234636
  -OEChem-01171810123D

 29 30  0     0  0  0  0  0  0999 V2000
    1.4230    2.6831    0.2251 S   0  0  0  0  0  0  0  0  0  0  0  0
    2.0764    0.0555    0.0126 O   0  0  0  0  0  0  0  0  0  0  0  0
   -4.3807   -0.8429    1.5371 O   0  0  0  0  0  0  0  0  0  0  0  0
    3.8863   -2.9344   -0.1098 O   0  5  0  0  0  0  0  0  0  0  0  0
    1.7386   -2.5205   -0.2971 O   0  0  0  0  0  0  0  0  0  0  0  0
   -3.6602   -0.3181   -0.6455 N   0  0  0  0  0  0  0  0  0  0  0  0
    2.9247   -2.1100   -0.1262 N   0  3  0  0  0  0  0  0  0  0  0  0
   -2.4717    0.3838   -0.4421 C   0  0  0  0  0  0  0  0  0  0  0  0
   -0.0950    1.7867   -0.0349 C   0  0  0  0  0  0  0  0  0  0  0  0
   -2.0056    0.6047    0.8539 C   0  0  0  0  0  0  0  0  0  0  0  0
   -1.7495    0.8642   -1.5345 C   0  0  0  0  0  0  0  0  0  0  0  0
   -0.8173    1.3062    1.0574 C   0  0  0  0  0  0  0  0  0  0  0  0
   -0.5611    1.5657   -1.3310 C   0  0  0  0  0  0  0  0  0  0  0  0
    2.5363    1.3065    0.1952 C   0  0  0  0  0  0  0  0  0  0  0  0
    3.8873    1.3446    0.3441 C   0  0  0  0  0  0  0  0  0  0  0  0
    3.1726   -0.7471    0.0447 C   0  0  0  0  0  0  0  0  0  0  0  0
    4.3111   -0.0022    0.2462 C   0  0  0  0  0  0  0  0  0  0  0  0
   -4.5138   -0.8718    0.3180 C   0  0  0  0  0  0  0  0  0  0  0  0
   -5.7015   -1.5540   -0.3132 C   0  0  0  0  0  0  0  0  0  0  0  0
   -2.5084    0.2635    1.7479 H   0  0  0  0  0  0  0  0  0  0  0  0
   -2.1009    0.6991   -2.5499 H   0  0  0  0  0  0  0  0  0  0  0  0
   -0.4686    1.4688    2.0745 H   0  0  0  0  0  0  0  0  0  0  0  0
   -0.0118    1.9321   -2.1948 H   0  0  0  0  0  0  0  0  0  0  0  0
   -3.9325   -0.4378   -1.6190 H   0  0  0  0  0  0  0  0  0  0  0  0
    4.5080    2.2150    0.5038 H   0  0  0  0  0  0  0  0  0  0  0  0
    5.3229   -0.3764    0.3152 H   0  0  0  0  0  0  0  0  0  0  0  0
   -6.2921   -0.8237   -0.8733 H   0  0  0  0  0  0  0  0  0  0  0  0
   -6.3295   -1.9989    0.4636 H   0  0  0  0  0  0  0  0  0  0  0  0
   -5.3605   -2.3440   -0.9883 H   0  0  0  0  0  0  0  0  0  0  0  0
  1  9  1  0  0  0  0
  1 14  1  0  0  0  0
  2 14  1  0  0  0  0
  2 16  1  0  0  0  0
  3 18  2  0  0  0  0
  4  7  1  0  0  0  0
  5  7  2  0  0  0  0
  6  8  1  0  0  0  0
  6 18  1  0  0  0  0
  6 24  1  0  0  0  0
  7 16  1  0  0  0  0
  8 10  2  0  0  0  0
  8 11  1  0  0  0  0
  9 12  2  0  0  0  0
  9 13  1  0  0  0  0
 10 12  1  0  0  0  0
 10 20  1  0  0  0  0
 11 13  2  0  0  0  0
 11 21  1  0  0  0  0
 12 22  1  0  0  0  0
 13 23  1  0  0  0  0
 14 15  2  0  0  0  0
 15 17  1  0  0  0  0
 15 25  1  0  0  0  0
 16 17  2  0  0  0  0
 17 26  1  0  0  0  0
 18 19  1  0  0  0  0
 19 27  1  0  0  0  0
 19 28  1  0  0  0  0
 19 29  1  0  0  0  0
M  CHG  2   4  -1   7   1
M  END
> <PUBCHEM_COMPOUND_CID>
234636

> <PUBCHEM_CONFORMER_RMSD>
0.6

> <PUBCHEM_CONFORMER_DIVERSEORDER>
1
46
45
12
21
30
25
29
5
27
37
6
14
38
13
24
11
2
28
22
23
36
35
48
18
42
47
20
43
10
9
26
39
40
19
17
16
15
32
33
31
7
4
8
34
3
41
44

> <PUBCHEM_MMFF94_PARTIAL_CHARGES>
26
1 -0.16
10 -0.15
11 -0.15
12 -0.15
13 -0.15
14 0.2
15 -0.15
16 0.22
17 -0.15
18 0.57
19 0.06
2 -0.28
20 0.15
21 0.15
22 0.15
23 0.15
24 0.37
25 0.15
26 0.15
3 -0.57
4 -0.52
5 -0.52
6 -0.55
7 0.96
8 0.12
9 0.1

> <PUBCHEM_EFFECTIVE_ROTOR_COUNT>
5

> <PUBCHEM_PHARMACOPHORE_FEATURES>
8
1 2 acceptor
1 3 acceptor
1 4 acceptor
1 4 anion
1 5 acceptor
1 6 donor
5 2 14 15 16 17 rings
6 8 9 10 11 12 13 rings

> <PUBCHEM_HEAVY_ATOM_COUNT>
19

> <PUBCHEM_ATOM_DEF_STEREO_COUNT>
0

> <PUBCHEM_ATOM_UDEF_STEREO_COUNT>
0

> <PUBCHEM_BOND_DEF_STEREO_COUNT>
0

> <PUBCHEM_BOND_UDEF_STEREO_COUNT>
0

> <PUBCHEM_ISOTOPIC_ATOM_COUNT>
0

> <PUBCHEM_COMPONENT_COUNT>
1

> <PUBCHEM_CACTVS_TAUTO_COUNT>
2

> <PUBCHEM_CONFORMER_ID>
0003948C00000001

> <PUBCHEM_MMFF94_ENERGY>
43.2257

> <PUBCHEM_FEATURE_SELFOVERLAP>
40.689

> <PUBCHEM_SHAPE_FINGERPRINT>
114674 6 18261109686097680490
12107183 9 18055647109790968977
12553582 1 18272358789719393692
12596599 1 17772202915864787162
12596602 18 17059778939540794635
12616999 72 18187651344653420188
12617007 42 17023182786006063709
12670546 56 17774724259700388697
12892183 10 18202845469825422281
13402501 40 18260267490091914706
13464513 79 18342178895001259988
13533116 47 18271527623901794203
13544653 18 18409453587572487857
13583140 156 17989197175294488793
14251705 54 18339077077972756990
14251731 5 18338238137657995582
14251757 5 12325110364157677289
14251764 30 17700433398664618718
14252887 29 18335701671453756232
14341114 328 17775004643153603276
14386348 63 17967812786382386939
14863182 85 18411706508668088910
15375462 189 17917704729700032728
15422964 175 18409443674551098652
15537594 2 18201438112047495702
15635459 17 18261110789777246018
15848702 151 18333731347233817081
1813 80 17531256058377081533
20645477 70 18261948669435830813
21033650 10 16299227887064081293
21197605 99 17978514466142462587
21285901 2 17822283613389305309
212916 134 14764636321938852365
21673915 165 18340767164694256087
221490 88 18266175037883353398
22224240 67 18128526266727421664
22620623 9 17313940801998506397
23557571 272 17676195871367609053
23598288 3 17417249806274042945
2871803 45 18113614577670880818
33382 64 18338801242689013291
33824 294 18411133675794511096
345986 75 17917711275546417907
4463277 69 18408604777438529477
5104073 3 18270955727114751544
5352402 22 18336551598632243385
9709674 26 18260551112536000691

> <PUBCHEM_SHAPE_MULTIPOLES>
361.42
10.06
2.78
1.09
8.13
1.33
-0.07
6.45
1.11
-2.86
-0.17
0.94
-0.3
0.55

> <PUBCHEM_SHAPE_SELFOVERLAP>
757.797

> <PUBCHEM_SHAPE_VOLUME>
204.4

> <PUBCHEM_COORDINATE_TYPE>
2
5
10

$$$$
