6050449
  -OEChem-01171809353D

 44 46  0     0  0  0  0  0  0999 V2000
    3.9695   -6.2040    0.3744 Br  0  0  0  0  0  0  0  0  0  0  0  0
   -8.2826    1.4902    0.0670 Cl  0  0  0  0  0  0  0  0  0  0  0  0
    4.0397    5.6607    1.5820 O   0  0  0  0  0  0  0  0  0  0  0  0
    4.0252    5.5820   -0.6857 O   0  0  0  0  0  0  0  0  0  0  0  0
   -2.7695   -2.2394    0.1879 O   0  0  0  0  0  0  0  0  0  0  0  0
    2.2514    1.6702   -0.5374 N   0  0  0  0  0  0  0  0  0  0  0  0
    3.0117    0.5672   -0.4315 N   0  0  0  0  0  0  0  0  0  0  0  0
    2.8778    2.9570   -0.7244 C   0  0  0  0  0  0  0  0  0  0  0  0
    2.1139   -0.4128   -0.2720 C   0  0  0  0  0  0  0  0  0  0  0  0
    0.7877    0.0700   -0.2769 C   0  0  0  0  0  0  0  0  0  0  0  0
    0.9120    1.4267   -0.4512 C   0  0  0  0  0  0  0  0  0  0  0  0
    2.5500   -1.7724   -0.1203 C   0  0  0  0  0  0  0  0  0  0  0  0
    3.2000    3.6741    0.5874 C   0  0  0  0  0  0  0  0  0  0  0  0
   -0.4269   -0.6319   -0.1387 C   0  0  0  0  0  0  0  0  0  0  0  0
    2.7117   -2.5824   -1.2443 C   0  0  0  0  0  0  0  0  0  0  0  0
    2.8113   -2.2833    1.1511 C   0  0  0  0  0  0  0  0  0  0  0  0
   -1.6964   -0.1330   -0.1446 C   0  0  0  0  0  0  0  0  0  0  0  0
    3.8001    5.0497    0.3918 C   0  0  0  0  0  0  0  0  0  0  0  0
    3.1349   -3.9033   -1.0968 C   0  0  0  0  0  0  0  0  0  0  0  0
    3.2345   -3.6042    1.2985 C   0  0  0  0  0  0  0  0  0  0  0  0
    3.3963   -4.4142    0.1745 C   0  0  0  0  0  0  0  0  0  0  0  0
   -2.8758   -1.0285    0.0287 C   0  0  0  0  0  0  0  0  0  0  0  0
   -4.2200   -0.4021    0.0377 C   0  0  0  0  0  0  0  0  0  0  0  0
   -4.4251    0.7527   -0.6909 C   0  0  0  0  0  0  0  0  0  0  0  0
   -5.2274   -0.9919    0.7753 C   0  0  0  0  0  0  0  0  0  0  0  0
   -5.6894    1.3417   -0.6817 C   0  0  0  0  0  0  0  0  0  0  0  0
   -6.4917   -0.4029    0.7843 C   0  0  0  0  0  0  0  0  0  0  0  0
   -6.7228    0.7640    0.0559 C   0  0  0  0  0  0  0  0  0  0  0  0
    2.2018    3.5657   -1.3371 H   0  0  0  0  0  0  0  0  0  0  0  0
    3.7887    2.8049   -1.3162 H   0  0  0  0  0  0  0  0  0  0  0  0
    0.1877    2.2277   -0.5199 H   0  0  0  0  0  0  0  0  0  0  0  0
    2.2828    3.7891    1.1771 H   0  0  0  0  0  0  0  0  0  0  0  0
    3.9090    3.0741    1.1698 H   0  0  0  0  0  0  0  0  0  0  0  0
   -0.3303   -1.7107   -0.0259 H   0  0  0  0  0  0  0  0  0  0  0  0
    2.5118   -2.1995   -2.2424 H   0  0  0  0  0  0  0  0  0  0  0  0
    2.6897   -1.6651    2.0376 H   0  0  0  0  0  0  0  0  0  0  0  0
   -1.8487    0.9366   -0.2237 H   0  0  0  0  0  0  0  0  0  0  0  0
    3.2558   -4.5214   -1.9828 H   0  0  0  0  0  0  0  0  0  0  0  0
    3.4337   -3.9869    2.2962 H   0  0  0  0  0  0  0  0  0  0  0  0
   -3.6613    1.2115   -1.3097 H   0  0  0  0  0  0  0  0  0  0  0  0
   -5.0618   -1.8974    1.3515 H   0  0  0  0  0  0  0  0  0  0  0  0
   -5.8579    2.2460   -1.2610 H   0  0  0  0  0  0  0  0  0  0  0  0
   -7.2872   -0.8635    1.3645 H   0  0  0  0  0  0  0  0  0  0  0  0
    4.4157    6.5589    1.4622 H   0  0  0  0  0  0  0  0  0  0  0  0
  1 21  1  0  0  0  0
  2 28  1  0  0  0  0
  3 18  1  0  0  0  0
  3 44  1  0  0  0  0
  4 18  2  0  0  0  0
  5 22  2  0  0  0  0
  6  7  1  0  0  0  0
  6  8  1  0  0  0  0
  6 11  1  0  0  0  0
  7  9  2  0  0  0  0
  8 13  1  0  0  0  0
  8 29  1  0  0  0  0
  8 30  1  0  0  0  0
  9 10  1  0  0  0  0
  9 12  1  0  0  0  0
 10 11  2  0  0  0  0
 10 14  1  0  0  0  0
 11 31  1  0  0  0  0
 12 15  2  0  0  0  0
 12 16  1  0  0  0  0
 13 18  1  0  0  0  0
 13 32  1  0  0  0  0
 13 33  1  0  0  0  0
 14 17  2  0  0  0  0
 14 34  1  0  0  0  0
 15 19  1  0  0  0  0
 15 35  1  0  0  0  0
 16 20  2  0  0  0  0
 16 36  1  0  0  0  0
 17 22  1  0  0  0  0
 17 37  1  0  0  0  0
 19 21  2  0  0  0  0
 19 38  1  0  0  0  0
 20 21  1  0  0  0  0
 20 39  1  0  0  0  0
 22 23  1  0  0  0  0
 23 24  2  0  0  0  0
 23 25  1  0  0  0  0
 24 26  1  0  0  0  0
 24 40  1  0  0  0  0
 25 27  2  0  0  0  0
 25 41  1  0  0  0  0
 26 28  2  0  0  0  0
 26 42  1  0  0  0  0
 27 28  1  0  0  0  0
 27 43  1  0  0  0  0
M  END
> <PUBCHEM_COMPOUND_CID>
6050449

> <PUBCHEM_CONFORMER_RMSD>
0.8

> <PUBCHEM_CONFORMER_DIVERSEORDER>
1
165
20
12
22
200
56
42
89
167
54
186
96
192
6
85
169
114
214
155
201
139
76
79
68
18
213
23
174
36
172
207
100
138
183
125
21
9
14
156
30
176
27
47
97
123
102
31
137
157
38
17
175
145
44
90
199
37
4
129
71
187
212
7
117
15
146
41
197
75
82
11
166
19
43
120
193
210
211
3
160
24
58
104
39
134
124
26
8
29
168
122
205
191
206
195
50
121
149
208
40
111
185
2
10
190
148
115
158
16
162
99
215
66
196
45
180
35
198
25
127
130
152
91
204
209
49
136
13
179
5
216
141
60
177
32
105
194
153
170
202
128
86
173
188
116
203
126
154
189
161
34
94
48
110
46
98
164
108
142
218
72
184
118
171
181
74
84
217
65
113
51
131
106
159
103
107
64
144
92
151
95
135
143
80
28
182
132
55
52
67
53
69
140
119
178
147
59
83
87
93
61
33
70
163
62
78
150
57
133
73
112
63
88
77
81
109
101

> <PUBCHEM_MMFF94_PARTIAL_CHARGES>
40
1 -0.11
10 -0.05
11 -0.3
12 0.05
13 0.06
14 -0.1
15 -0.15
16 -0.15
17 -0.14
18 0.66
19 -0.15
2 -0.18
20 -0.15
21 0.11
22 0.47
23 0.09
24 -0.15
25 -0.15
26 -0.15
27 -0.15
28 0.18
3 -0.65
31 0.15
34 0.15
35 0.15
36 0.15
37 0.15
38 0.15
39 0.15
4 -0.57
40 0.15
41 0.15
42 0.15
43 0.15
44 0.5
5 -0.57
6 0.31
7 -0.71
8 0.26
9 0.23

> <PUBCHEM_EFFECTIVE_ROTOR_COUNT>
7

> <PUBCHEM_PHARMACOPHORE_FEATURES>
9
1 1 hydrophobe
1 3 acceptor
1 4 acceptor
1 5 acceptor
1 7 acceptor
3 3 4 18 anion
5 6 7 9 10 11 rings
6 12 15 16 19 20 21 rings
6 23 24 25 26 27 28 rings

> <PUBCHEM_HEAVY_ATOM_COUNT>
28

> <PUBCHEM_ATOM_DEF_STEREO_COUNT>
0

> <PUBCHEM_ATOM_UDEF_STEREO_COUNT>
0

> <PUBCHEM_BOND_DEF_STEREO_COUNT>
1

> <PUBCHEM_BOND_UDEF_STEREO_COUNT>
0

> <PUBCHEM_ISOTOPIC_ATOM_COUNT>
0

> <PUBCHEM_COMPONENT_COUNT>
1

> <PUBCHEM_CACTVS_TAUTO_COUNT>
1

> <PUBCHEM_CONFORMER_ID>
005C529100000001

> <PUBCHEM_MMFF94_ENERGY>
64.4267

> <PUBCHEM_FEATURE_SELFOVERLAP>
45.731

> <PUBCHEM_SHAPE_FINGERPRINT>
10411042 1 18049724014676957638
10721379 63 18340218426913919180
11720765 8 18338516314025872634
12166972 35 18199465468329107771
12293681 160 17557722531402454328
12549972 3 17822591450906901707
13248334 5 18410575081111916710
13533116 47 18335706005740162151
13757389 114 17397840454079811780
13782708 43 18260555490284756955
13785724 45 18124038927187090815
13955234 65 18410860979345903130
14068700 686 18048606116368001715
14790565 3 18050566549779054036
15183329 4 18118129074395587843
15400415 2 18194122039112447853
15420108 30 18049992587613654388
16992752 21 17905900180509450566
17980427 26 18268418209017830630
20238998 120 18266737970704196330
20771845 65 18268429027597538386
20832881 197 18043818589269016243
21120745 212 17835255454622521766
21130935 74 18336275596388484171
21315764 268 18335136441785492893
21716022 299 17899158048026453518
23559900 14 18337106770542771211
249057 25 17846217701747777961
249999 5 18410293639820016504
3004659 81 17533508837085399718
3178227 256 18408880763927557824
3421961 26 18337390427062447558
34797466 226 7925329880266747355
3627633 1 17761494686696959670
376196 1 18191023611176761954
4046055 4 17690283712254376262
4058900 60 18194976355363156688
4073 2 17968390025903531515
5104073 3 18261397763219190945
5219985 13 18050851318790218916
550186 72 15816502081661682300
563151 97 18051685839683489471
57307002 103 18409739456417326451
6058803 2 18202283611273274095
6695519 79 17907326555594202627
6697151 62 18047446969097929551
77188 2 18194402187213029686
9658208 31 17834689571075088156
9896288 288 17468475263228410954
9962374 69 18411410692812115503
9981440 41 17975695305063297440

> <PUBCHEM_SHAPE_MULTIPOLES>
556.47
16.35
8.66
1.05
42.11
10.7
-0.11
-4.89
-1.6
-25.41
-2.05
-0.74
0.03
0.9

> <PUBCHEM_SHAPE_SELFOVERLAP>
1178.001

> <PUBCHEM_SHAPE_VOLUME>
319

> <PUBCHEM_COORDINATE_TYPE>
2
5
10

$$$$
