1291084
  -OEChem-01171809433D

 41 42  0     0  0  0  0  0  0999 V2000
    1.9231   -1.4190   -2.9806 Cl  0  0  0  0  0  0  0  0  0  0  0  0
   -2.5559    4.6558   -0.5932 Cl  0  0  0  0  0  0  0  0  0  0  0  0
    2.0738   -0.7787    2.0925 O   0  0  0  0  0  0  0  0  0  0  0  0
    3.2749   -0.7602   -0.3889 O   0  0  0  0  0  0  0  0  0  0  0  0
    5.3698    2.1018   -0.9177 O   0  0  0  0  0  0  0  0  0  0  0  0
    5.9057   -0.0909   -0.6135 O   0  0  0  0  0  0  0  0  0  0  0  0
   -5.5871   -2.2117    0.3029 N   0  0  0  0  0  0  0  0  0  0  0  0
   -0.7250   -1.7581   -0.0239 C   0  0  0  0  0  0  0  0  0  0  0  0
    1.3555   -1.0976    0.9795 C   0  0  0  0  0  0  0  0  0  0  0  0
    1.9556   -1.0906   -0.2797 C   0  0  0  0  0  0  0  0  0  0  0  0
    0.0077   -1.4332    1.1080 C   0  0  0  0  0  0  0  0  0  0  0  0
   -0.1401   -1.7550   -1.2817 C   0  0  0  0  0  0  0  0  0  0  0  0
    1.2077   -1.4193   -1.4104 C   0  0  0  0  0  0  0  0  0  0  0  0
   -2.1454   -2.1119    0.1121 C   0  0  0  0  0  0  0  0  0  0  0  0
   -3.1872   -1.2389    0.0692 C   0  0  0  0  0  0  0  0  0  0  0  0
   -3.0328    0.1985   -0.0920 C   0  0  0  0  0  0  0  0  0  0  0  0
    1.6241    0.3390    2.8556 C   0  0  0  0  0  0  0  0  0  0  0  0
   -2.8938    1.0155    1.0298 C   0  0  0  0  0  0  0  0  0  0  0  0
   -3.0240    0.7597   -1.3690 C   0  0  0  0  0  0  0  0  0  0  0  0
    3.5817    0.6178   -0.5853 C   0  0  0  0  0  0  0  0  0  0  0  0
    2.8133    0.9802    3.5386 C   0  0  0  0  0  0  0  0  0  0  0  0
   -2.7461    2.3938    0.8748 C   0  0  0  0  0  0  0  0  0  0  0  0
   -2.8762    2.1381   -1.5242 C   0  0  0  0  0  0  0  0  0  0  0  0
   -2.7371    2.9551   -0.4022 C   0  0  0  0  0  0  0  0  0  0  0  0
   -4.5121   -1.7868    0.1992 C   0  0  0  0  0  0  0  0  0  0  0  0
    5.0701    0.7965   -0.6998 C   0  0  0  0  0  0  0  0  0  0  0  0
   -0.4598   -1.4480    2.0897 H   0  0  0  0  0  0  0  0  0  0  0  0
   -0.7258   -2.0120   -2.1617 H   0  0  0  0  0  0  0  0  0  0  0  0
   -2.3274   -3.1779    0.2388 H   0  0  0  0  0  0  0  0  0  0  0  0
    1.1332    1.0815    2.2139 H   0  0  0  0  0  0  0  0  0  0  0  0
    0.9064   -0.0081    3.6067 H   0  0  0  0  0  0  0  0  0  0  0  0
   -2.8977    0.5939    2.0322 H   0  0  0  0  0  0  0  0  0  0  0  0
   -3.1308    0.1367   -2.2539 H   0  0  0  0  0  0  0  0  0  0  0  0
    3.1166    0.9765   -1.5096 H   0  0  0  0  0  0  0  0  0  0  0  0
    3.2266    1.2023    0.2696 H   0  0  0  0  0  0  0  0  0  0  0  0
    2.5019    1.8372    4.1423 H   0  0  0  0  0  0  0  0  0  0  0  0
    3.3210    0.2580    4.1865 H   0  0  0  0  0  0  0  0  0  0  0  0
    3.5489    1.3166    2.8009 H   0  0  0  0  0  0  0  0  0  0  0  0
   -2.6383    3.0181    1.7581 H   0  0  0  0  0  0  0  0  0  0  0  0
   -2.8710    2.5614   -2.5253 H   0  0  0  0  0  0  0  0  0  0  0  0
    6.3367    2.2472   -0.9969 H   0  0  0  0  0  0  0  0  0  0  0  0
  1 13  1  0  0  0  0
  2 24  1  0  0  0  0
  3  9  1  0  0  0  0
  3 17  1  0  0  0  0
  4 10  1  0  0  0  0
  4 20  1  0  0  0  0
  5 26  1  0  0  0  0
  5 41  1  0  0  0  0
  6 26  2  0  0  0  0
  7 25  3  0  0  0  0
  8 11  2  0  0  0  0
  8 12  1  0  0  0  0
  8 14  1  0  0  0  0
  9 10  2  0  0  0  0
  9 11  1  0  0  0  0
 10 13  1  0  0  0  0
 11 27  1  0  0  0  0
 12 13  2  0  0  0  0
 12 28  1  0  0  0  0
 14 15  2  0  0  0  0
 14 29  1  0  0  0  0
 15 16  1  0  0  0  0
 15 25  1  0  0  0  0
 16 18  2  0  0  0  0
 16 19  1  0  0  0  0
 17 21  1  0  0  0  0
 17 30  1  0  0  0  0
 17 31  1  0  0  0  0
 18 22  1  0  0  0  0
 18 32  1  0  0  0  0
 19 23  2  0  0  0  0
 19 33  1  0  0  0  0
 20 26  1  0  0  0  0
 20 34  1  0  0  0  0
 20 35  1  0  0  0  0
 21 36  1  0  0  0  0
 21 37  1  0  0  0  0
 21 38  1  0  0  0  0
 22 24  2  0  0  0  0
 22 39  1  0  0  0  0
 23 24  1  0  0  0  0
 23 40  1  0  0  0  0
M  END
> <PUBCHEM_COMPOUND_CID>
1291084

> <PUBCHEM_CONFORMER_RMSD>
0.8

> <PUBCHEM_CONFORMER_DIVERSEORDER>
1
38
24
39
47
48
37
14
16
44
49
25
59
21
42
58
9
60
20
29
27
31
45
40
53
34
52
7
57
36
51
33
55
19
11
17
26
43
32
41
8
54
61
50
18
35
6
30
5
56
28
10
23
46
15
4
12
13
22
2
3

> <PUBCHEM_MMFF94_PARTIAL_CHARGES>
33
1 -0.18
10 0.08
11 -0.15
12 -0.15
13 0.18
14 -0.18
15 0.04
16 0.03
17 0.28
18 -0.15
19 -0.15
2 -0.18
20 0.34
22 -0.15
23 -0.15
24 0.18
25 0.49
26 0.66
27 0.15
28 0.15
29 0.15
3 -0.36
32 0.15
33 0.15
39 0.15
4 -0.36
40 0.15
41 0.5
5 -0.65
6 -0.57
7 -0.56
8 0.03
9 0.08

> <PUBCHEM_EFFECTIVE_ROTOR_COUNT>
7

> <PUBCHEM_PHARMACOPHORE_FEATURES>
8
1 3 acceptor
1 4 acceptor
1 5 acceptor
1 6 acceptor
1 7 acceptor
3 5 6 26 anion
6 16 18 19 22 23 24 rings
6 8 9 10 11 12 13 rings

> <PUBCHEM_HEAVY_ATOM_COUNT>
26

> <PUBCHEM_ATOM_DEF_STEREO_COUNT>
0

> <PUBCHEM_ATOM_UDEF_STEREO_COUNT>
0

> <PUBCHEM_BOND_DEF_STEREO_COUNT>
1

> <PUBCHEM_BOND_UDEF_STEREO_COUNT>
0

> <PUBCHEM_ISOTOPIC_ATOM_COUNT>
0

> <PUBCHEM_COMPONENT_COUNT>
1

> <PUBCHEM_CACTVS_TAUTO_COUNT>
1

> <PUBCHEM_CONFORMER_ID>
0013B34C00000001

> <PUBCHEM_MMFF94_ENERGY>
79.3272

> <PUBCHEM_FEATURE_SELFOVERLAP>
40.665

> <PUBCHEM_SHAPE_FINGERPRINT>
10165383 225 17703241709837644455
10498660 4 18335704897469671597
10670039 82 18408319995421689032
10764073 3 16900699089132089730
11595378 159 18114728421604497738
11640471 11 17458913621912682903
12107183 9 17756135696951353090
12596602 18 17385719248615350042
12788726 201 18041272240845493811
12969540 114 16702017600301871334
13583140 156 18056450933746859731
13911987 19 16843624871074058550
13965767 371 17316486089437811357
14251751 93 18335419088729027996
14251757 17 18200049334651713996
14415361 192 17459458013476618165
14739800 52 18188755263086460288
14957384 54 17679576731904374525
15163728 17 18265640761142072470
15849732 13 12750972017889417763
17974551 9 14061213617098145141
20603629 256 15792276112780251266
21864079 5 18118970183014823109
22182313 1 17703493485241630306
22907989 373 18336531738983295109
22956985 138 16457154453087573483
23557571 272 18412548738722629071
238 59 16914788385500605413
3493558 16 18267314144925635284
392239 28 17387434517035587001
469060 322 18263100910772537963
57527585 21 18130496449677605501
6287921 2 17560520724222776979
7808743 9 18337675187725848673
9849439 229 17832411013219808353

> <PUBCHEM_SHAPE_MULTIPOLES>
510.35
9.99
3.75
2.53
6.8
3.94
1.46
2.4
-1.62
-4.86
-1.03
2.83
0.33
1.44

> <PUBCHEM_SHAPE_SELFOVERLAP>
1065.015

> <PUBCHEM_SHAPE_VOLUME>
291

> <PUBCHEM_COORDINATE_TYPE>
2
5
10

$$$$
