673346
  -OEChem-01171809423D

 33 35  0     0  0  0  0  0  0999 V2000
   -2.6565    2.0052    0.0285 S   0  0  0  0  0  0  0  0  0  0  0  0
    6.1149    0.1543   -0.0064 O   0  0  0  0  0  0  0  0  0  0  0  0
    5.3928   -2.0008   -0.0344 O   0  0  0  0  0  0  0  0  0  0  0  0
   -1.5772   -0.3511   -0.0027 N   0  0  0  0  0  0  0  0  0  0  0  0
   -0.0513    1.4567    0.0221 N   0  0  0  0  0  0  0  0  0  0  0  0
   -5.7804   -0.6349   -0.3565 C   0  0  0  0  0  0  0  0  0  0  0  0
   -5.0594   -1.8061    0.3346 C   0  0  0  0  0  0  0  0  0  0  0  0
   -5.1757    0.7276    0.0295 C   0  0  0  0  0  0  0  0  0  0  0  0
   -3.5682   -1.8669   -0.0420 C   0  0  0  0  0  0  0  0  0  0  0  0
   -3.6870    0.6515    0.0067 C   0  0  0  0  0  0  0  0  0  0  0  0
   -2.9468   -0.5141   -0.0026 C   0  0  0  0  0  0  0  0  0  0  0  0
   -1.3080    0.9372    0.0149 C   0  0  0  0  0  0  0  0  0  0  0  0
    1.2727    0.8828    0.0135 C   0  0  0  0  0  0  0  0  0  0  0  0
    1.4024   -0.4899   -0.0052 C   0  0  0  0  0  0  0  0  0  0  0  0
    2.3631    1.7268    0.0233 C   0  0  0  0  0  0  0  0  0  0  0  0
    2.6823   -1.0444   -0.0149 C   0  0  0  0  0  0  0  0  0  0  0  0
    3.6430    1.1721    0.0137 C   0  0  0  0  0  0  0  0  0  0  0  0
    3.8026   -0.2135   -0.0054 C   0  0  0  0  0  0  0  0  0  0  0  0
    5.1368   -0.7924   -0.0166 C   0  0  0  0  0  0  0  0  0  0  0  0
   -6.8454   -0.6469   -0.0987 H   0  0  0  0  0  0  0  0  0  0  0  0
   -5.7134   -0.7692   -1.4440 H   0  0  0  0  0  0  0  0  0  0  0  0
   -5.5421   -2.7529    0.0675 H   0  0  0  0  0  0  0  0  0  0  0  0
   -5.1576   -1.6918    1.4218 H   0  0  0  0  0  0  0  0  0  0  0  0
   -5.5040    0.9961    1.0410 H   0  0  0  0  0  0  0  0  0  0  0  0
   -5.5440    1.4991   -0.6558 H   0  0  0  0  0  0  0  0  0  0  0  0
   -3.4650   -2.2694   -1.0568 H   0  0  0  0  0  0  0  0  0  0  0  0
   -3.0433   -2.5477    0.6370 H   0  0  0  0  0  0  0  0  0  0  0  0
   -0.0001    2.4741    0.0361 H   0  0  0  0  0  0  0  0  0  0  0  0
    0.5689   -1.1789   -0.0133 H   0  0  0  0  0  0  0  0  0  0  0  0
    2.2480    2.8066    0.0378 H   0  0  0  0  0  0  0  0  0  0  0  0
    2.7860   -2.1264   -0.0299 H   0  0  0  0  0  0  0  0  0  0  0  0
    4.4874    1.8556    0.0213 H   0  0  0  0  0  0  0  0  0  0  0  0
    7.0104   -0.2462   -0.0147 H   0  0  0  0  0  0  0  0  0  0  0  0
  1 10  1  0  0  0  0
  1 12  1  0  0  0  0
  2 19  1  0  0  0  0
  2 33  1  0  0  0  0
  3 19  2  0  0  0  0
  4 11  1  0  0  0  0
  4 12  2  0  0  0  0
  5 12  1  0  0  0  0
  5 13  1  0  0  0  0
  5 28  1  0  0  0  0
  6  7  1  0  0  0  0
  6  8  1  0  0  0  0
  6 20  1  0  0  0  0
  6 21  1  0  0  0  0
  7  9  1  0  0  0  0
  7 22  1  0  0  0  0
  7 23  1  0  0  0  0
  8 10  1  0  0  0  0
  8 24  1  0  0  0  0
  8 25  1  0  0  0  0
  9 11  1  0  0  0  0
  9 26  1  0  0  0  0
  9 27  1  0  0  0  0
 10 11  2  0  0  0  0
 13 14  2  0  0  0  0
 13 15  1  0  0  0  0
 14 16  1  0  0  0  0
 14 29  1  0  0  0  0
 15 17  2  0  0  0  0
 15 30  1  0  0  0  0
 16 18  2  0  0  0  0
 16 31  1  0  0  0  0
 17 18  1  0  0  0  0
 17 32  1  0  0  0  0
 18 19  1  0  0  0  0
M  END
> <PUBCHEM_COMPOUND_CID>
673346

> <PUBCHEM_CONFORMER_RMSD>
0.6

> <PUBCHEM_CONFORMER_DIVERSEORDER>
1
14
15
4
2
13
12
9
3
7
6
8
5
10
11

> <PUBCHEM_MMFF94_PARTIAL_CHARGES>
23
1 -0.08
10 -0.14
11 0.05
12 0.46
13 0.1
14 -0.15
15 -0.15
16 -0.15
17 -0.15
18 0.09
19 0.63
2 -0.65
28 0.4
29 0.15
3 -0.57
30 0.15
31 0.15
32 0.15
33 0.5
4 -0.57
5 -0.58
8 0.18
9 0.18

> <PUBCHEM_EFFECTIVE_ROTOR_COUNT>
3.8

> <PUBCHEM_PHARMACOPHORE_FEATURES>
8
1 2 acceptor
1 3 acceptor
1 5 donor
3 2 3 19 anion
3 4 5 12 cation
5 1 4 10 11 12 rings
6 13 14 15 16 17 18 rings
6 6 7 8 9 10 11 rings

> <PUBCHEM_HEAVY_ATOM_COUNT>
19

> <PUBCHEM_ATOM_DEF_STEREO_COUNT>
0

> <PUBCHEM_ATOM_UDEF_STEREO_COUNT>
0

> <PUBCHEM_BOND_DEF_STEREO_COUNT>
0

> <PUBCHEM_BOND_UDEF_STEREO_COUNT>
0

> <PUBCHEM_ISOTOPIC_ATOM_COUNT>
0

> <PUBCHEM_COMPONENT_COUNT>
1

> <PUBCHEM_CACTVS_TAUTO_COUNT>
3

> <PUBCHEM_CONFORMER_ID>
000A464200000001

> <PUBCHEM_MMFF94_ENERGY>
48.4711

> <PUBCHEM_FEATURE_SELFOVERLAP>
40.721

> <PUBCHEM_SHAPE_FINGERPRINT>
10 15 18200580502380070432
10595046 47 18335987536287976412
10616163 171 18411982459879487311
10968037 39 18408042922464437101
11315181 36 18202004339198133137
11524674 6 16774077375634937087
11806522 49 18408605855686433956
12107183 9 17688870839242816121
12236239 1 18186240619267809116
12516196 113 18202843262169780704
12555020 224 18410001166307825903
12596602 18 13542460960279981015
12760667 363 18343301479319995959
12916754 54 18410013251665463873
13167823 11 18409165523688742235
13288520 33 18411419523206119589
13685833 64 18409171030353949435
14251731 8 18334573525774532597
14251752 14 17458615671435981239
14251764 18 18272938237238024961
14341114 176 18410859866849139956
15196674 1 18410575114748974993
15352361 1 18410856559645070821
15788980 27 18187367635760627665
17834072 33 18408325509785150828
17834072 8 18260541222059748493
17844677 252 18411989073881307273
17857418 61 18411135831303578123
200 152 18201718453110589697
20028762 73 18272928345238331014
20261772 1 17917708041172565934
20374829 77 18407476661149213777
20645477 70 18410012135184482854
21033648 29 16844711050289995952
21267235 1 18410863161062623751
221490 88 18336270153625540264
23402539 116 18408037412169121933
23522609 53 18121814743950075045
23559900 14 18411129273305774961
239999 70 18413673522074812878
26918003 58 18273495671815303553
2871803 45 18259980487528846835
3004659 81 18259982682225525488
335352 9 18410291403112733429
351380 3 18408319986330717970
3545911 37 18409729552053527173
4073 2 18041846228463958706
4214541 1 18410856538640103017
4325135 7 18334298686849459204
465052 167 18344150285032517142
4921388 177 16298676091815668771
5104073 3 18343302569540342913
542803 24 13479129090683275405
559249 180 18337950095887058451
57483677 66 18408884031532214394
59682541 35 18271234015848032376
59755656 215 18335701607198214295
67856867 119 18263083369752197508
7495541 125 17917989511949189800
77779 3 18410575106428325577
9709674 26 18262522631658804683
9971528 1 18040434433932931436

> <PUBCHEM_SHAPE_MULTIPOLES>
373.16
14.4
2.02
0.62
4.2
0.06
0
5.6
0.23
-0.55
-0.05
-0.13
0
0.1

> <PUBCHEM_SHAPE_SELFOVERLAP>
796.249

> <PUBCHEM_SHAPE_VOLUME>
208.6

> <PUBCHEM_COORDINATE_TYPE>
2
5
10

$$$$
