339701
  -OEChem-01171809533D

 30 33  0     0  0  0  0  0  0999 V2000
   -0.7927    1.6279    0.0008 S   0  0  0  0  0  0  0  0  0  0  0  0
   -5.6061    0.3894   -0.0009 O   0  0  0  0  0  0  0  0  0  0  0  0
   -0.4148   -1.4556    0.0004 N   0  0  0  0  0  0  0  0  0  0  0  0
    1.9485   -1.3293    0.0002 N   0  0  0  0  0  0  0  0  0  0  0  0
    1.8556    1.4247   -0.0003 N   0  0  0  0  0  0  0  0  0  0  0  0
   -3.3285    0.8267    0.0007 N   0  0  0  0  0  0  0  0  0  0  0  0
    0.7557   -0.6897    0.0003 C   0  0  0  0  0  0  0  0  0  0  0  0
   -1.7334   -0.9927    0.0004 C   0  0  0  0  0  0  0  0  0  0  0  0
    0.7192    0.6923    0.0001 C   0  0  0  0  0  0  0  0  0  0  0  0
   -2.0520    0.3655    0.0007 C   0  0  0  0  0  0  0  0  0  0  0  0
    3.0833   -0.6111   -0.0001 C   0  0  0  0  0  0  0  0  0  0  0  0
    3.0359    0.7876   -0.0005 C   0  0  0  0  0  0  0  0  0  0  0  0
   -2.7973   -1.9025   -0.0004 C   0  0  0  0  0  0  0  0  0  0  0  0
    4.3220   -1.2485    0.0002 C   0  0  0  0  0  0  0  0  0  0  0  0
    4.2279    1.5088   -0.0006 C   0  0  0  0  0  0  0  0  0  0  0  0
   -4.1117   -1.4524   -0.0008 C   0  0  0  0  0  0  0  0  0  0  0  0
   -4.3221   -0.0879    0.0000 C   0  0  0  0  0  0  0  0  0  0  0  0
    5.5109   -0.5214    0.0002 C   0  0  0  0  0  0  0  0  0  0  0  0
    5.4636    0.8646   -0.0003 C   0  0  0  0  0  0  0  0  0  0  0  0
   -5.7639    1.8034    0.0000 C   0  0  0  0  0  0  0  0  0  0  0  0
   -0.2771   -2.4591    0.0005 H   0  0  0  0  0  0  0  0  0  0  0  0
   -2.6048   -2.9729   -0.0009 H   0  0  0  0  0  0  0  0  0  0  0  0
    4.3722   -2.3356    0.0005 H   0  0  0  0  0  0  0  0  0  0  0  0
    4.2034    2.5968   -0.0008 H   0  0  0  0  0  0  0  0  0  0  0  0
   -4.9377   -2.1548   -0.0016 H   0  0  0  0  0  0  0  0  0  0  0  0
    6.4662   -1.0372    0.0005 H   0  0  0  0  0  0  0  0  0  0  0  0
    6.3815    1.4444   -0.0004 H   0  0  0  0  0  0  0  0  0  0  0  0
   -5.3283    2.2477   -0.9013 H   0  0  0  0  0  0  0  0  0  0  0  0
   -5.3295    2.2464    0.9024 H   0  0  0  0  0  0  0  0  0  0  0  0
   -6.8358    2.0224   -0.0006 H   0  0  0  0  0  0  0  0  0  0  0  0
  1  9  1  0  0  0  0
  1 10  1  0  0  0  0
  2 17  1  0  0  0  0
  2 20  1  0  0  0  0
  3  7  1  0  0  0  0
  3  8  1  0  0  0  0
  3 21  1  0  0  0  0
  4  7  2  0  0  0  0
  4 11  1  0  0  0  0
  5  9  2  0  0  0  0
  5 12  1  0  0  0  0
  6 10  1  0  0  0  0
  6 17  2  0  0  0  0
  7  9  1  0  0  0  0
  8 10  2  0  0  0  0
  8 13  1  0  0  0  0
 11 12  1  0  0  0  0
 11 14  2  0  0  0  0
 12 15  2  0  0  0  0
 13 16  2  0  0  0  0
 13 22  1  0  0  0  0
 14 18  1  0  0  0  0
 14 23  1  0  0  0  0
 15 19  1  0  0  0  0
 15 24  1  0  0  0  0
 16 17  1  0  0  0  0
 16 25  1  0  0  0  0
 18 19  2  0  0  0  0
 18 26  1  0  0  0  0
 19 27  1  0  0  0  0
 20 28  1  0  0  0  0
 20 29  1  0  0  0  0
 20 30  1  0  0  0  0
M  END
> <PUBCHEM_COMPOUND_CID>
339701

> <PUBCHEM_CONFORMER_RMSD>
0.6

> <PUBCHEM_CONFORMER_DIVERSEORDER>
1

> <PUBCHEM_MMFF94_PARTIAL_CHARGES>
27
1 -0.2
10 0.41
11 0.31
12 0.31
13 -0.15
14 -0.15
15 -0.15
16 -0.15
17 0.39
18 -0.15
19 -0.15
2 -0.36
20 0.28
21 0.4
22 0.15
23 0.15
24 0.15
25 0.15
26 0.15
27 0.15
3 -0.6
4 -0.62
5 -0.62
6 -0.62
7 0.41
8 0.1
9 0.41

> <PUBCHEM_EFFECTIVE_ROTOR_COUNT>
1.4

> <PUBCHEM_PHARMACOPHORE_FEATURES>
7
1 3 donor
1 5 acceptor
3 3 4 7 cation
6 1 3 7 8 9 10 rings
6 11 12 14 15 18 19 rings
6 4 5 7 9 11 12 rings
6 6 8 10 13 16 17 rings

> <PUBCHEM_HEAVY_ATOM_COUNT>
20

> <PUBCHEM_ATOM_DEF_STEREO_COUNT>
0

> <PUBCHEM_ATOM_UDEF_STEREO_COUNT>
0

> <PUBCHEM_BOND_DEF_STEREO_COUNT>
0

> <PUBCHEM_BOND_UDEF_STEREO_COUNT>
0

> <PUBCHEM_ISOTOPIC_ATOM_COUNT>
0

> <PUBCHEM_COMPONENT_COUNT>
1

> <PUBCHEM_CACTVS_TAUTO_COUNT>
2

> <PUBCHEM_CONFORMER_ID>
00052EF500000001

> <PUBCHEM_MMFF94_ENERGY>
66.4862

> <PUBCHEM_FEATURE_SELFOVERLAP>
35.595

> <PUBCHEM_SHAPE_FINGERPRINT>
10366900 7 16200433567679104107
10906281 52 18339099127986551959
11089746 13 17632570556843597697
11315181 36 17917998295383968536
12107183 9 17762620590429447178
12236239 1 18186239537009806042
12788726 201 17773878606198471049
13533116 47 17131554934275105710
14251764 18 18342742927639893729
14341114 176 18409736157343885344
14790565 3 18409453595767153869
15196674 1 18410855490198246598
15536298 74 18413389860616746634
15788980 27 18187649119343045203
1813 80 17022905644381998100
19141452 34 18410292531934556735
200 152 18060418036350510299
20281389 69 18261109660654741861
20645477 70 18342177739755751998
20681677 155 18260828202715268179
21065198 57 18338797930572785163
21267235 1 18410301336348734810
21279426 13 18339080371896045207
21421861 104 17823406111782542858
221490 88 18191593162183700098
23402539 116 18272364291487863519
23402655 69 18413668019541179287
23559900 14 18342734152452372768
26918003 58 18342457045108878552
29717793 49 17775290439437132780
300161 21 18412820296007533624
3004659 81 18335140874054020270
335352 9 18410573967987413148
34797466 226 17203055195791577108
34934 24 18410289199077091947
350125 39 18409730642864931324
351380 180 18411418423219738090
3545911 37 18411139138428370071
4073 2 18041002894635153834
4214541 1 18410575093469421253
4340502 62 16588027887526994650
4463277 17 18410012134762593516
5104073 3 18409447020156062538
542803 24 17313105267370776878
59755656 215 18340210687451560150
59755656 520 17022903449669897947
633830 44 17822007657155432202
77779 3 18410293644172889070
9709674 26 18411144649299354398

> <PUBCHEM_SHAPE_MULTIPOLES>
389.65
13.15
1.93
0.6
1.53
0.01
0
2.38
0
0.83
0
-0.02
0.01
0

> <PUBCHEM_SHAPE_SELFOVERLAP>
862.504

> <PUBCHEM_SHAPE_VOLUME>
210.4

> <PUBCHEM_COORDINATE_TYPE>
2
5
10

$$$$
