848023
  -OEChem-01171809323D

 37 39  0     0  0  0  0  0  0999 V2000
   -2.6979    2.0000    0.6829 S   0  0  0  0  0  0  0  0  0  0  0  0
    0.6529    1.0826    0.9633 O   0  0  0  0  0  0  0  0  0  0  0  0
   -2.3110   -0.4848    1.5170 N   0  0  0  0  0  0  0  0  0  0  0  0
    0.6716    3.1671    0.1515 N   0  0  0  0  0  0  0  0  0  0  0  0
    1.7920    2.5129   -0.3256 N   0  0  0  0  0  0  0  0  0  0  0  0
   -2.5025    1.2227   -3.0064 N   0  0  0  0  0  0  0  0  0  0  0  0
   -2.0777   -1.6284   -1.0230 C   0  0  0  0  0  0  0  0  0  0  0  0
   -2.3016   -0.2625   -0.8904 C   0  0  0  0  0  0  0  0  0  0  0  0
   -2.4105    0.2605    0.3910 C   0  0  0  0  0  0  0  0  0  0  0  0
   -2.0932   -1.8084    1.3485 C   0  0  0  0  0  0  0  0  0  0  0  0
   -1.9703   -2.4231    0.1129 C   0  0  0  0  0  0  0  0  0  0  0  0
   -1.2137    2.4422    1.6538 C   0  0  0  0  0  0  0  0  0  0  0  0
    0.0366    2.2945    0.8986 C   0  0  0  0  0  0  0  0  0  0  0  0
    2.6344    0.1902    0.0167 C   0  0  0  0  0  0  0  0  0  0  0  0
   -1.9470   -2.2792   -2.3627 C   0  0  0  0  0  0  0  0  0  0  0  0
    1.7346    1.3068    0.1746 C   0  0  0  0  0  0  0  0  0  0  0  0
   -1.9833   -2.6303    2.5893 C   0  0  0  0  0  0  0  0  0  0  0  0
    2.3641   -1.0203    0.6549 C   0  0  0  0  0  0  0  0  0  0  0  0
    3.7758    0.3219   -0.7741 C   0  0  0  0  0  0  0  0  0  0  0  0
    3.2353   -2.0990    0.5025 C   0  0  0  0  0  0  0  0  0  0  0  0
    4.6470   -0.7569   -0.9268 C   0  0  0  0  0  0  0  0  0  0  0  0
    4.3766   -1.9673   -0.2883 C   0  0  0  0  0  0  0  0  0  0  0  0
   -2.4126    0.5587   -2.0601 C   0  0  0  0  0  0  0  0  0  0  0  0
   -1.7950   -3.4920    0.0408 H   0  0  0  0  0  0  0  0  0  0  0  0
   -1.1897    1.8436    2.5705 H   0  0  0  0  0  0  0  0  0  0  0  0
   -1.3285    3.4863    1.9632 H   0  0  0  0  0  0  0  0  0  0  0  0
   -2.8627   -2.1435   -2.9478 H   0  0  0  0  0  0  0  0  0  0  0  0
   -1.0976   -1.8602   -2.9125 H   0  0  0  0  0  0  0  0  0  0  0  0
   -1.7755   -3.3580   -2.2770 H   0  0  0  0  0  0  0  0  0  0  0  0
   -1.0008   -3.1100    2.6416 H   0  0  0  0  0  0  0  0  0  0  0  0
   -2.1040   -2.0102    3.4836 H   0  0  0  0  0  0  0  0  0  0  0  0
   -2.7601   -3.4013    2.6057 H   0  0  0  0  0  0  0  0  0  0  0  0
    1.4845   -1.1615    1.2779 H   0  0  0  0  0  0  0  0  0  0  0  0
    4.0065    1.2558   -1.2808 H   0  0  0  0  0  0  0  0  0  0  0  0
    3.0247   -3.0418    0.9989 H   0  0  0  0  0  0  0  0  0  0  0  0
    5.5358   -0.6546   -1.5425 H   0  0  0  0  0  0  0  0  0  0  0  0
    5.0548   -2.8072   -0.4071 H   0  0  0  0  0  0  0  0  0  0  0  0
  1  9  1  0  0  0  0
  1 12  1  0  0  0  0
  2 13  1  0  0  0  0
  2 16  1  0  0  0  0
  3  9  1  0  0  0  0
  3 10  2  0  0  0  0
  4  5  1  0  0  0  0
  4 13  2  0  0  0  0
  5 16  2  0  0  0  0
  6 23  3  0  0  0  0
  7  8  1  0  0  0  0
  7 11  2  0  0  0  0
  7 15  1  0  0  0  0
  8  9  2  0  0  0  0
  8 23  1  0  0  0  0
 10 11  1  0  0  0  0
 10 17  1  0  0  0  0
 11 24  1  0  0  0  0
 12 13  1  0  0  0  0
 12 25  1  0  0  0  0
 12 26  1  0  0  0  0
 14 16  1  0  0  0  0
 14 18  2  0  0  0  0
 14 19  1  0  0  0  0
 15 27  1  0  0  0  0
 15 28  1  0  0  0  0
 15 29  1  0  0  0  0
 17 30  1  0  0  0  0
 17 31  1  0  0  0  0
 17 32  1  0  0  0  0
 18 20  1  0  0  0  0
 18 33  1  0  0  0  0
 19 21  2  0  0  0  0
 19 34  1  0  0  0  0
 20 22  2  0  0  0  0
 20 35  1  0  0  0  0
 21 22  1  0  0  0  0
 21 36  1  0  0  0  0
 22 37  1  0  0  0  0
M  END
> <PUBCHEM_COMPOUND_CID>
848023

> <PUBCHEM_CONFORMER_RMSD>
0.6

> <PUBCHEM_CONFORMER_DIVERSEORDER>
1
20
73
15
88
10
86
24
62
7
23
91
94
45
66
97
68
65
32
11
82
58
93
44
17
83
61
96
19
72
69
16
36
89
9
85
14
90
18
26
54
22
37
3
87
71
8
12
50
59
77
80
42
92
74
4
13
21
2
70
34
56
43
75
78
28
5
30
55
84
39
53
76
60
81
31
33
79
6
27
35
67
41
51
95
52
46
64
57
25
38
48
47
63
40
49
29

> <PUBCHEM_MMFF94_PARTIAL_CHARGES>
29
1 -0.33
10 0.17
11 -0.15
12 0.41
13 0.3
14 0.05
15 0.14
16 0.43
17 0.14
18 -0.15
19 -0.15
2 -0.28
20 -0.15
21 -0.15
22 -0.15
23 0.48
24 0.15
3 -0.62
33 0.15
34 0.15
35 0.15
36 0.15
37 0.15
4 -0.34
5 -0.34
6 -0.56
7 -0.14
8 0.07
9 0.41

> <PUBCHEM_EFFECTIVE_ROTOR_COUNT>
4

> <PUBCHEM_PHARMACOPHORE_FEATURES>
5
1 3 acceptor
1 6 acceptor
5 2 4 5 13 16 rings
6 14 18 19 20 21 22 rings
6 3 7 8 9 10 11 rings

> <PUBCHEM_HEAVY_ATOM_COUNT>
23

> <PUBCHEM_ATOM_DEF_STEREO_COUNT>
0

> <PUBCHEM_ATOM_UDEF_STEREO_COUNT>
0

> <PUBCHEM_BOND_DEF_STEREO_COUNT>
0

> <PUBCHEM_BOND_UDEF_STEREO_COUNT>
0

> <PUBCHEM_ISOTOPIC_ATOM_COUNT>
0

> <PUBCHEM_COMPONENT_COUNT>
1

> <PUBCHEM_CACTVS_TAUTO_COUNT>
1

> <PUBCHEM_CONFORMER_ID>
000CF09700000001

> <PUBCHEM_MMFF94_ENERGY>
45.1141

> <PUBCHEM_FEATURE_SELFOVERLAP>
25.373

> <PUBCHEM_SHAPE_FINGERPRINT>
10764073 3 18192740907085494867
107951 10 18046082462097964347
11582403 64 13179962834532499579
11725454 13 13036140185374740395
12156800 1 16604147797437378715
12553582 1 18340485556826312168
12788726 201 17985838021036977936
128993 33 11458974313459699814
15840311 113 10882498186381983239
16752209 62 18052239714128368656
18927931 339 18271535204524534790
18981168 100 11819540481529262320
19777482 4 17345739915181943613
20291156 8 18342746238474097002
20465049 17 18049693301729620349
21315764 21 16808112629123574542
21634736 98 18339372928579553588
21731516 1 17986960854062312009
23598288 3 17986137225401166585
23728640 28 17917433060317956889
238 59 17545854471389644126
3027735 51 17415546624012629375
3493558 16 13010504663868158335
6287921 2 17390251538482112636
6438718 38 17915190017926764288
70251023 43 18197488743574773599

> <PUBCHEM_SHAPE_MULTIPOLES>
451.39
7
3.63
2.24
8.93
0.76
-0.82
-2.94
-1.54
-1.04
0.98
-2.73
-0.85
0.09

> <PUBCHEM_SHAPE_SELFOVERLAP>
965.146

> <PUBCHEM_SHAPE_VOLUME>
253.3

> <PUBCHEM_COORDINATE_TYPE>
2
5
10

$$$$
