803928
  -OEChem-01171809583D

 39 41  0     0  0  0  0  0  0999 V2000
   -4.9224    0.5822    2.4871 Cl  0  0  0  0  0  0  0  0  0  0  0  0
   -2.7294    0.5476   -0.3529 O   0  0  0  0  0  0  0  0  0  0  0  0
    3.3044   -1.6914    0.5893 O   0  0  0  0  0  0  0  0  0  0  0  0
    2.8148    0.4508   -0.2469 N   0  0  0  0  0  0  0  0  0  0  0  0
    6.8635    1.3141    0.1640 N   0  0  0  0  0  0  0  0  0  0  0  0
   -3.3995   -0.6236    0.0934 C   0  0  0  0  0  0  0  0  0  0  0  0
   -4.8753   -0.4298   -0.0428 C   0  0  0  0  0  0  0  0  0  0  0  0
   -1.3592    0.5236   -0.3268 C   0  0  0  0  0  0  0  0  0  0  0  0
    1.4202    0.4751   -0.2731 C   0  0  0  0  0  0  0  0  0  0  0  0
   -0.6998   -0.6144    0.1230 C   0  0  0  0  0  0  0  0  0  0  0  0
   -0.6437    1.6379   -0.7497 C   0  0  0  0  0  0  0  0  0  0  0  0
    0.6947   -0.6388    0.1498 C   0  0  0  0  0  0  0  0  0  0  0  0
    0.7508    1.6135   -0.7225 C   0  0  0  0  0  0  0  0  0  0  0  0
   -5.6412    0.1093    0.9909 C   0  0  0  0  0  0  0  0  0  0  0  0
   -5.4847   -0.8029   -1.2408 C   0  0  0  0  0  0  0  0  0  0  0  0
    3.6519   -0.5935    0.1680 C   0  0  0  0  0  0  0  0  0  0  0  0
   -7.0165    0.2749    0.8267 C   0  0  0  0  0  0  0  0  0  0  0  0
   -6.8600   -0.6368   -1.4055 C   0  0  0  0  0  0  0  0  0  0  0  0
    5.1089   -0.3057    0.1050 C   0  0  0  0  0  0  0  0  0  0  0  0
   -7.6259   -0.0981   -0.3714 C   0  0  0  0  0  0  0  0  0  0  0  0
    6.0019   -1.3355   -0.0613 C   0  0  0  0  0  0  0  0  0  0  0  0
    5.5535    0.9840    0.2130 C   0  0  0  0  0  0  0  0  0  0  0  0
    7.3586   -1.0356   -0.1165 C   0  0  0  0  0  0  0  0  0  0  0  0
    7.7343    0.2930    0.0000 C   0  0  0  0  0  0  0  0  0  0  0  0
   -3.1412   -0.8680    1.1303 H   0  0  0  0  0  0  0  0  0  0  0  0
   -3.1166   -1.4832   -0.5306 H   0  0  0  0  0  0  0  0  0  0  0  0
   -1.1955   -1.5155    0.4659 H   0  0  0  0  0  0  0  0  0  0  0  0
   -1.1613    2.5263   -1.1004 H   0  0  0  0  0  0  0  0  0  0  0  0
    1.1399   -1.5553    0.5106 H   0  0  0  0  0  0  0  0  0  0  0  0
    1.3028    2.4892   -1.0548 H   0  0  0  0  0  0  0  0  0  0  0  0
    3.2469    1.2952   -0.6115 H   0  0  0  0  0  0  0  0  0  0  0  0
   -4.9018   -1.2211   -2.0574 H   0  0  0  0  0  0  0  0  0  0  0  0
   -7.6275    0.6932    1.6225 H   0  0  0  0  0  0  0  0  0  0  0  0
   -7.3344   -0.9263   -2.3386 H   0  0  0  0  0  0  0  0  0  0  0  0
   -8.6966    0.0312   -0.4996 H   0  0  0  0  0  0  0  0  0  0  0  0
    5.6818   -2.3685   -0.1556 H   0  0  0  0  0  0  0  0  0  0  0  0
    4.9062    1.8364    0.3828 H   0  0  0  0  0  0  0  0  0  0  0  0
    8.0985   -1.8168   -0.2481 H   0  0  0  0  0  0  0  0  0  0  0  0
    8.7801    0.5796   -0.0372 H   0  0  0  0  0  0  0  0  0  0  0  0
  1 14  1  0  0  0  0
  2  6  1  0  0  0  0
  2  8  1  0  0  0  0
  3 16  2  0  0  0  0
  4  9  1  0  0  0  0
  4 16  1  0  0  0  0
  4 31  1  0  0  0  0
  5 22  1  0  0  0  0
  5 24  2  0  0  0  0
  6  7  1  0  0  0  0
  6 25  1  0  0  0  0
  6 26  1  0  0  0  0
  7 14  1  0  0  0  0
  7 15  2  0  0  0  0
  8 10  2  0  0  0  0
  8 11  1  0  0  0  0
  9 12  2  0  0  0  0
  9 13  1  0  0  0  0
 10 12  1  0  0  0  0
 10 27  1  0  0  0  0
 11 13  2  0  0  0  0
 11 28  1  0  0  0  0
 12 29  1  0  0  0  0
 13 30  1  0  0  0  0
 14 17  2  0  0  0  0
 15 18  1  0  0  0  0
 15 32  1  0  0  0  0
 16 19  1  0  0  0  0
 17 20  1  0  0  0  0
 17 33  1  0  0  0  0
 18 20  2  0  0  0  0
 18 34  1  0  0  0  0
 19 21  1  0  0  0  0
 19 22  2  0  0  0  0
 20 35  1  0  0  0  0
 21 23  2  0  0  0  0
 21 36  1  0  0  0  0
 22 37  1  0  0  0  0
 23 24  1  0  0  0  0
 23 38  1  0  0  0  0
 24 39  1  0  0  0  0
M  END
> <PUBCHEM_COMPOUND_CID>
803928

> <PUBCHEM_CONFORMER_RMSD>
0.8

> <PUBCHEM_CONFORMER_DIVERSEORDER>
1
74
102
101
56
77
12
106
114
82
25
59
65
90
124
52
91
105
103
100
3
80
117
85
68
5
45
37
93
84
95
115
66
54
125
94
30
58
81
86
70
69
73
122
13
47
83
75
61
72
62
36
60
78
118
71
33
29
31
97
22
67
96
53
21
42
63
16
48
35
46
121
55
87
64
51
49
123
15
2
113
92
8
43
89
76
104
4
111
19
32
107
39
27
10
126
116
23
18
26
9
112
40
108
88
110
6
44
34
120
99
50
98
14
17
7
24
57
41
109
28
119
38
79
11
20

> <PUBCHEM_MMFF94_PARTIAL_CHARGES>
37
1 -0.18
10 -0.15
11 -0.15
12 -0.15
13 -0.15
14 0.18
15 -0.15
16 0.54
17 -0.15
18 -0.15
19 0.09
2 -0.36
20 -0.15
21 -0.15
22 0.16
23 -0.15
24 0.16
27 0.15
28 0.15
29 0.15
3 -0.57
30 0.15
31 0.37
32 0.15
33 0.15
34 0.15
35 0.15
36 0.15
37 0.15
38 0.15
39 0.15
4 -0.55
5 -0.62
6 0.42
7 -0.14
8 0.08
9 0.12

> <PUBCHEM_EFFECTIVE_ROTOR_COUNT>
6

> <PUBCHEM_PHARMACOPHORE_FEATURES>
7
1 2 acceptor
1 3 acceptor
1 4 donor
1 5 acceptor
6 5 19 21 22 23 24 rings
6 7 14 15 17 18 20 rings
6 8 9 10 11 12 13 rings

> <PUBCHEM_HEAVY_ATOM_COUNT>
24

> <PUBCHEM_ATOM_DEF_STEREO_COUNT>
0

> <PUBCHEM_ATOM_UDEF_STEREO_COUNT>
0

> <PUBCHEM_BOND_DEF_STEREO_COUNT>
0

> <PUBCHEM_BOND_UDEF_STEREO_COUNT>
0

> <PUBCHEM_ISOTOPIC_ATOM_COUNT>
0

> <PUBCHEM_COMPONENT_COUNT>
1

> <PUBCHEM_CACTVS_TAUTO_COUNT>
2

> <PUBCHEM_CONFORMER_ID>
000C445800000001

> <PUBCHEM_MMFF94_ENERGY>
82.7235

> <PUBCHEM_FEATURE_SELFOVERLAP>
35.522

> <PUBCHEM_SHAPE_FINGERPRINT>
10050765 1 18047749300045114358
10066227 49 14418398955058969424
10299344 5 17989205945242660422
10319688 140 18190737536549683578
11315181 36 17988925592048732723
11719270 70 16225760805625131418
11991303 11 13326562003827856733
12091667 2 18333731308710817853
12236239 1 18060137648005709383
12516196 113 18410571790486726300
12838862 33 18041543819774552802
13533116 47 18131350774686526578
13685833 64 18187083953191825852
13885169 127 16988848254558140419
14123256 10 17894910724396173150
14170010 4 18260265274574494652
14251752 14 14562530686942380817
14251764 18 18131351916361414996
14251764 46 16774078479604619822
14849402 71 17916866949200976736
14856354 85 16988842813288205557
15183329 4 18412260631715059219
15198563 99 17676762063731527284
15328684 2 17559679442972161402
15419008 47 17095515210321485940
15419008 91 16588575525943546845
15461852 350 16774069675618339877
15716309 27 18201718448862958839
15849732 13 18333448759201278767
16120349 18 18411133683820475924
17093844 174 17095241437085649577
18006028 8 18410291410710955965
19489759 90 16988846073479710155
19841028 212 14852150795017405808
20238998 120 17458341939964377980
20281389 69 13183018514721842266
21095086 128 17490151907210238190
21236236 1 18261389997591914853
21267235 1 18334579010906621094
21315763 28 17060337435328104674
21521721 280 18409449215512058792
21792961 116 17313376791161639086
22224240 67 17989202655566860614
23522609 53 18058473013224698288
23559900 14 18188488107071810537
249057 25 17703802447893692225
249057 3 15068626006762394559
255183 451 17986120604927803438
3004659 81 17095522911313416996
3009799 131 17385438821483955021
335352 9 18260548952299638111
34797466 226 18131355216004191604
397830 11 16879363409175488216
4073 2 18261113040757308386
4325135 7 18411417319766558230
4340502 62 15719388439166678690
5104073 3 18116145576888376032
5758199 1 18273496779774675026
5969126 39 18260260824719695357
59755656 215 17822006489098667370
59755656 520 10952044546568254413
6691757 9 17132119061840935007

> <PUBCHEM_SHAPE_MULTIPOLES>
474.08
24.85
1.33
1.2
7.59
0.1
0.44
-3.04
1.24
1.03
-0.09
-2.43
0.24
-1.49

> <PUBCHEM_SHAPE_SELFOVERLAP>
1022.636

> <PUBCHEM_SHAPE_VOLUME>
259.1

> <PUBCHEM_COORDINATE_TYPE>
2
5
10

$$$$
