9564843
  -OEChem-01171809363D

 49 51  0     0  0  0  0  0  0999 V2000
    2.6193    0.9326   -0.5859 O   0  0  0  0  0  0  0  0  0  0  0  0
    6.8685   -2.5390   -0.0635 O   0  0  0  0  0  0  0  0  0  0  0  0
   -3.6899    2.9563    0.4189 O   0  0  0  0  0  0  0  0  0  0  0  0
   -2.8656    0.8268    0.0374 N   0  0  0  0  0  0  0  0  0  0  0  0
   -4.0969    0.2682    0.1151 N   0  0  0  0  0  0  0  0  0  0  0  0
   -7.7329   -1.8381    0.2692 N   0  0  0  0  0  0  0  0  0  0  0  0
    1.0160    2.4644    0.2739 C   0  0  0  0  0  0  0  0  0  0  0  0
    2.1947    1.6075    0.5919 C   0  0  0  0  0  0  0  0  0  0  0  0
   -0.2739    1.9453    0.3850 C   0  0  0  0  0  0  0  0  0  0  0  0
   -1.3762    2.7463    0.0865 C   0  0  0  0  0  0  0  0  0  0  0  0
    1.2036    3.7846   -0.1352 C   0  0  0  0  0  0  0  0  0  0  0  0
    3.6761    0.0703   -0.4561 C   0  0  0  0  0  0  0  0  0  0  0  0
   -1.1886    4.0665   -0.3229 C   0  0  0  0  0  0  0  0  0  0  0  0
    0.1014    4.5856   -0.4337 C   0  0  0  0  0  0  0  0  0  0  0  0
    4.1401   -0.6222   -1.5688 C   0  0  0  0  0  0  0  0  0  0  0  0
    4.2732   -0.1046    0.7872 C   0  0  0  0  0  0  0  0  0  0  0  0
    5.8195   -1.6815   -0.1923 C   0  0  0  0  0  0  0  0  0  0  0  0
    5.2153   -1.5010   -1.4365 C   0  0  0  0  0  0  0  0  0  0  0  0
    5.3483   -0.9833    0.9196 C   0  0  0  0  0  0  0  0  0  0  0  0
   -2.7214    2.2060    0.2013 C   0  0  0  0  0  0  0  0  0  0  0  0
    7.8329   -2.2386    0.9440 C   0  0  0  0  0  0  0  0  0  0  0  0
    9.1816   -2.7724    0.5105 C   0  0  0  0  0  0  0  0  0  0  0  0
   -5.3541   -1.7946   -0.0438 C   0  0  0  0  0  0  0  0  0  0  0  0
   -4.1080   -1.0093   -0.0864 C   0  0  0  0  0  0  0  0  0  0  0  0
   -5.3265   -3.1564   -0.2642 C   0  0  0  0  0  0  0  0  0  0  0  0
   -6.5547   -1.1771    0.2159 C   0  0  0  0  0  0  0  0  0  0  0  0
   -6.5183   -3.8709   -0.2177 C   0  0  0  0  0  0  0  0  0  0  0  0
   -7.6838   -3.1713    0.0505 C   0  0  0  0  0  0  0  0  0  0  0  0
    2.9975    2.2462    0.9843 H   0  0  0  0  0  0  0  0  0  0  0  0
    1.8966    0.8912    1.3693 H   0  0  0  0  0  0  0  0  0  0  0  0
   -0.3913    0.9218    0.7307 H   0  0  0  0  0  0  0  0  0  0  0  0
    2.2035    4.2004   -0.2284 H   0  0  0  0  0  0  0  0  0  0  0  0
   -2.0337    4.7058   -0.5647 H   0  0  0  0  0  0  0  0  0  0  0  0
    0.2478    5.6130   -0.7540 H   0  0  0  0  0  0  0  0  0  0  0  0
    3.6723   -0.4846   -2.5395 H   0  0  0  0  0  0  0  0  0  0  0  0
    3.9606    0.4010    1.6939 H   0  0  0  0  0  0  0  0  0  0  0  0
    5.5780   -2.0421   -2.3062 H   0  0  0  0  0  0  0  0  0  0  0  0
    5.7733   -1.1159    1.9103 H   0  0  0  0  0  0  0  0  0  0  0  0
    7.5312   -2.7134    1.8841 H   0  0  0  0  0  0  0  0  0  0  0  0
    7.9411   -1.1573    1.0964 H   0  0  0  0  0  0  0  0  0  0  0  0
   -2.0919    0.2114   -0.1915 H   0  0  0  0  0  0  0  0  0  0  0  0
    9.4908   -2.3166   -0.4360 H   0  0  0  0  0  0  0  0  0  0  0  0
    9.1322   -3.8532    0.3417 H   0  0  0  0  0  0  0  0  0  0  0  0
    9.9451   -2.5685    1.2666 H   0  0  0  0  0  0  0  0  0  0  0  0
   -3.1814   -1.5744   -0.3007 H   0  0  0  0  0  0  0  0  0  0  0  0
   -4.3971   -3.6783   -0.4722 H   0  0  0  0  0  0  0  0  0  0  0  0
   -6.6391   -0.1107    0.3970 H   0  0  0  0  0  0  0  0  0  0  0  0
   -6.5346   -4.9416   -0.3860 H   0  0  0  0  0  0  0  0  0  0  0  0
   -8.6398   -3.6824    0.0976 H   0  0  0  0  0  0  0  0  0  0  0  0
  1  8  1  0  0  0  0
  1 12  1  0  0  0  0
  2 17  1  0  0  0  0
  2 21  1  0  0  0  0
  3 20  2  0  0  0  0
  4  5  1  0  0  0  0
  4 20  1  0  0  0  0
  4 41  1  0  0  0  0
  5 24  2  0  0  0  0
  6 26  1  0  0  0  0
  6 28  2  0  0  0  0
  7  8  1  0  0  0  0
  7  9  2  0  0  0  0
  7 11  1  0  0  0  0
  8 29  1  0  0  0  0
  8 30  1  0  0  0  0
  9 10  1  0  0  0  0
  9 31  1  0  0  0  0
 10 13  2  0  0  0  0
 10 20  1  0  0  0  0
 11 14  2  0  0  0  0
 11 32  1  0  0  0  0
 12 15  2  0  0  0  0
 12 16  1  0  0  0  0
 13 14  1  0  0  0  0
 13 33  1  0  0  0  0
 14 34  1  0  0  0  0
 15 18  1  0  0  0  0
 15 35  1  0  0  0  0
 16 19  2  0  0  0  0
 16 36  1  0  0  0  0
 17 18  2  0  0  0  0
 17 19  1  0  0  0  0
 18 37  1  0  0  0  0
 19 38  1  0  0  0  0
 21 22  1  0  0  0  0
 21 39  1  0  0  0  0
 21 40  1  0  0  0  0
 22 42  1  0  0  0  0
 22 43  1  0  0  0  0
 22 44  1  0  0  0  0
 23 24  1  0  0  0  0
 23 25  1  0  0  0  0
 23 26  2  0  0  0  0
 24 45  1  0  0  0  0
 25 27  2  0  0  0  0
 25 46  1  0  0  0  0
 26 47  1  0  0  0  0
 27 28  1  0  0  0  0
 27 48  1  0  0  0  0
 28 49  1  0  0  0  0
M  END
> <PUBCHEM_COMPOUND_CID>
9564843

> <PUBCHEM_CONFORMER_RMSD>
1

> <PUBCHEM_CONFORMER_DIVERSEORDER>
1
74
61
48
56
66
78
8
73
86
17
27
71
41
76
6
46
80
51
81
84
26
9
22
13
50
12
28
47
37
10
53
29
85
42
44
79
58
15
40
34
57
25
63
55
83
43
3
39
62
59
68
33
7
70
64
87
36
60
38
11
54
31
32
72
35
82
45
18
65
52
21
23
30
69
77
5
24
49
14
20
75
16
2
67
4
19

> <PUBCHEM_MMFF94_PARTIAL_CHARGES>
41
1 -0.36
10 0.09
11 -0.15
12 0.08
13 -0.15
14 -0.15
15 -0.15
16 -0.15
17 0.08
18 -0.15
19 -0.15
2 -0.36
20 0.54
21 0.28
23 0.09
24 0.3
25 -0.15
26 0.16
27 -0.15
28 0.16
3 -0.57
31 0.15
32 0.15
33 0.15
34 0.15
35 0.15
36 0.15
37 0.15
38 0.15
4 -0.37
41 0.37
45 0.06
46 0.15
47 0.15
48 0.15
49 0.15
5 -0.51
6 -0.62
7 -0.14
8 0.42
9 -0.15

> <PUBCHEM_EFFECTIVE_ROTOR_COUNT>
9

> <PUBCHEM_PHARMACOPHORE_FEATURES>
9
1 1 acceptor
1 2 acceptor
1 3 acceptor
1 4 donor
1 5 acceptor
1 6 acceptor
6 12 15 16 17 18 19 rings
6 6 23 25 26 27 28 rings
6 7 9 10 11 13 14 rings

> <PUBCHEM_HEAVY_ATOM_COUNT>
28

> <PUBCHEM_ATOM_DEF_STEREO_COUNT>
0

> <PUBCHEM_ATOM_UDEF_STEREO_COUNT>
0

> <PUBCHEM_BOND_DEF_STEREO_COUNT>
1

> <PUBCHEM_BOND_UDEF_STEREO_COUNT>
0

> <PUBCHEM_ISOTOPIC_ATOM_COUNT>
0

> <PUBCHEM_COMPONENT_COUNT>
1

> <PUBCHEM_CACTVS_TAUTO_COUNT>
2

> <PUBCHEM_CONFORMER_ID>
0091F2AB00000001

> <PUBCHEM_MMFF94_ENERGY>
90.7179

> <PUBCHEM_FEATURE_SELFOVERLAP>
45.679

> <PUBCHEM_SHAPE_FINGERPRINT>
10050765 1 18411421743663176353
10100884 174 18260827090852534690
10254770 206 18411693313817483459
10258705 36 17912369728639706078
10319688 140 18192998350860971109
10411042 1 18410011048262819025
11059845 2 17701563748500315657
11088757 655 18410007728774799466
11273773 46 18408314481237419943
11463208 1 17611474421471050531
117089 54 18411425011462914374
11756154 67 18410573972493376759
11761917 116 18411142437897437222
11761917 87 18116164436575582939
11828532 37 18043822094025971299
11963148 33 18052253196067530574
12107183 9 18342190973088100497
12166972 35 17967535713689152527
12643181 29 18337950070012162525
13248334 5 17977666733903169009
1361 4 17977949317803686323
13911852 28 18269273642292169277
13974486 7 18338225059362364426
14068700 675 18261396616078339828
14344974 204 18267303141320331478
14429380 30 18409168813902826706
14664723 55 8862662447244011914
14671636 106 18410573964879803938
14725015 67 18411978074612331187
15152005 1 18413107290060684903
15152005 304 18338528515918405299
15152005 77 18060135427788115719
15347591 1 18410291419412459196
15419008 145 18339071589543506338
15510800 12 18202285766566148567
155225 6 9367083163551844335
15773216 30 18117845623660445324
15803439 3 16957292095022462525
16120349 189 9439404623010164993
16120349 21 18342186540486600561
16990366 60 18336542806697545474
17138139 8 18040997311261734024
17492 89 18339922731559532193
17686467 74 18341603812250803744
19303781 99 18339910602033623935
20165401 70 18055072323240567111
20691028 202 9511454520424877402
20775438 99 17831570247432546779
208703 8 18409442592092706994
21130935 74 18052823839420793451
21307412 95 18336817599195897109
22956985 138 18411695526490622960
23523787 8 15357692019992829929
23569914 2 13324636587896780819
255183 451 18337676411533221397
270888 7 9367349232132282265
32027 91 18268986648256213405
393628 194 9799400127302311059
406291 66 18408884048723295819
44280117 145 18265052441249622348
44426701 97 18267573775683452392
4760202 70 18041290911791198198
5718773 13 18411135844220414467
6201460 15 17609198075106671386
7970288 3 18410572890156668043

> <PUBCHEM_SHAPE_MULTIPOLES>
543.68
24.57
6.32
0.94
6.34
4.34
-0.19
-43.65
2.71
-4.7
-0.24
1.41
-0.23
-0.85

> <PUBCHEM_SHAPE_SELFOVERLAP>
1164.689

> <PUBCHEM_SHAPE_VOLUME>
299.8

> <PUBCHEM_COORDINATE_TYPE>
2
5
10

$$$$
