5736224
  -OEChem-01171810133D

 60 65  0     1  0  0  0  0  0999 V2000
   -0.0980    2.9007    1.3006 S   0  0  0  0  0  0  0  0  0  0  0  0
    0.3370   -2.8317   -1.4088 O   0  0  0  0  0  0  0  0  0  0  0  0
    1.7906    0.0182   -0.3614 O   0  0  0  0  0  0  0  0  0  0  0  0
    7.1875   -0.2141   -0.7281 O   0  0  0  0  0  0  0  0  0  0  0  0
    5.9176    1.5695   -2.4413 O   0  0  0  0  0  0  0  0  0  0  0  0
   -0.4210    0.6542    0.0905 N   0  0  0  0  0  0  0  0  0  0  0  0
   -2.4401    1.8050    0.6294 N   0  0  0  0  0  0  0  0  0  0  0  0
   -1.0925   -0.5388   -0.4402 C   0  0  2  0  0  0  0  0  0  0  0  0
   -2.5834   -0.2794   -0.5666 C   0  0  0  0  0  0  0  0  0  0  0  0
   -3.3877   -1.3180   -1.3130 C   0  0  0  0  0  0  0  0  0  0  0  0
   -3.1528    0.8216   -0.0235 C   0  0  0  0  0  0  0  0  0  0  0  0
   -4.6513   -0.7456   -1.9532 C   0  0  0  0  0  0  0  0  0  0  0  0
   -4.6276    0.9808   -0.1157 C   0  0  0  0  0  0  0  0  0  0  0  0
   -5.3654    0.2054   -1.0318 C   0  0  0  0  0  0  0  0  0  0  0  0
   -0.7995   -1.7656    0.4126 C   0  0  0  0  0  0  0  0  0  0  0  0
   -1.1545    1.6893    0.6245 C   0  0  0  0  0  0  0  0  0  0  0  0
    0.9629    0.7935    0.0972 C   0  0  0  0  0  0  0  0  0  0  0  0
   -5.3149    1.8991    0.6950 C   0  0  0  0  0  0  0  0  0  0  0  0
   -6.7540    0.3696   -1.1367 C   0  0  0  0  0  0  0  0  0  0  0  0
   -0.1009   -2.8460   -0.1187 C   0  0  0  0  0  0  0  0  0  0  0  0
    1.3135    2.0685    0.7742 C   0  0  0  0  0  0  0  0  0  0  0  0
   -1.2413   -1.7928    1.7325 C   0  0  0  0  0  0  0  0  0  0  0  0
   -6.7001    2.0454    0.5937 C   0  0  0  0  0  0  0  0  0  0  0  0
   -7.4186    1.2827   -0.3216 C   0  0  0  0  0  0  0  0  0  0  0  0
    0.1580   -3.9626    0.6761 C   0  0  0  0  0  0  0  0  0  0  0  0
   -0.9824   -2.9094    2.5274 C   0  0  0  0  0  0  0  0  0  0  0  0
    2.5683    2.4880    0.9429 C   0  0  0  0  0  0  0  0  0  0  0  0
   -0.2828   -3.9944    1.9991 C   0  0  0  0  0  0  0  0  0  0  0  0
    3.7837    1.7795    0.5003 C   0  0  0  0  0  0  0  0  0  0  0  0
    1.0438   -3.9829   -1.8659 C   0  0  0  0  0  0  0  0  0  0  0  0
    4.2784    2.0131   -0.7719 C   0  0  0  0  0  0  0  0  0  0  0  0
    4.4044    0.8947    1.3659 C   0  0  0  0  0  0  0  0  0  0  0  0
    5.4275    1.3422   -1.1906 C   0  0  0  0  0  0  0  0  0  0  0  0
    5.5533    0.2237    0.9471 C   0  0  0  0  0  0  0  0  0  0  0  0
    6.0649    0.4475   -0.3311 C   0  0  0  0  0  0  0  0  0  0  0  0
    7.7775   -1.1110    0.2108 C   0  0  0  0  0  0  0  0  0  0  0  0
   -0.6855   -0.6696   -1.4503 H   0  0  0  0  0  0  0  0  0  0  0  0
   -3.6561   -2.1186   -0.6117 H   0  0  0  0  0  0  0  0  0  0  0  0
   -2.7818   -1.7758   -2.1041 H   0  0  0  0  0  0  0  0  0  0  0  0
   -5.3096   -1.5741   -2.2404 H   0  0  0  0  0  0  0  0  0  0  0  0
   -4.3901   -0.2013   -2.8698 H   0  0  0  0  0  0  0  0  0  0  0  0
   -4.7876    2.5125    1.4219 H   0  0  0  0  0  0  0  0  0  0  0  0
   -7.3234   -0.2127   -1.8567 H   0  0  0  0  0  0  0  0  0  0  0  0
   -1.7838   -0.9582    2.1672 H   0  0  0  0  0  0  0  0  0  0  0  0
   -7.2168    2.7588    1.2293 H   0  0  0  0  0  0  0  0  0  0  0  0
   -8.4948    1.4023   -0.4038 H   0  0  0  0  0  0  0  0  0  0  0  0
    0.6947   -4.8412    0.3354 H   0  0  0  0  0  0  0  0  0  0  0  0
   -1.3244   -2.9336    3.5579 H   0  0  0  0  0  0  0  0  0  0  0  0
    2.7668    3.4305    1.4496 H   0  0  0  0  0  0  0  0  0  0  0  0
   -0.0816   -4.8632    2.6192 H   0  0  0  0  0  0  0  0  0  0  0  0
    0.4104   -4.8765   -1.8558 H   0  0  0  0  0  0  0  0  0  0  0  0
    1.9796   -4.1273   -1.3151 H   0  0  0  0  0  0  0  0  0  0  0  0
    1.3162   -3.7992   -2.9105 H   0  0  0  0  0  0  0  0  0  0  0  0
    3.7855    2.7093   -1.4459 H   0  0  0  0  0  0  0  0  0  0  0  0
    4.0139    0.7126    2.3636 H   0  0  0  0  0  0  0  0  0  0  0  0
    5.9947   -0.4564    1.6675 H   0  0  0  0  0  0  0  0  0  0  0  0
    6.7138    1.0232   -2.5614 H   0  0  0  0  0  0  0  0  0  0  0  0
    8.6582   -1.5484   -0.2710 H   0  0  0  0  0  0  0  0  0  0  0  0
    7.1045   -1.9400    0.4550 H   0  0  0  0  0  0  0  0  0  0  0  0
    8.1323   -0.5848    1.1036 H   0  0  0  0  0  0  0  0  0  0  0  0
  1 16  1  0  0  0  0
  1 21  1  0  0  0  0
  2 20  1  0  0  0  0
  2 30  1  0  0  0  0
  3 17  2  0  0  0  0
  4 35  1  0  0  0  0
  4 36  1  0  0  0  0
  5 33  1  0  0  0  0
  5 57  1  0  0  0  0
  6  8  1  0  0  0  0
  6 16  1  0  0  0  0
  6 17  1  0  0  0  0
  7 11  1  0  0  0  0
  7 16  2  0  0  0  0
  8  9  1  0  0  0  0
  8 15  1  0  0  0  0
  8 37  1  0  0  0  0
  9 10  1  0  0  0  0
  9 11  2  0  0  0  0
 10 12  1  0  0  0  0
 10 38  1  0  0  0  0
 10 39  1  0  0  0  0
 11 13  1  0  0  0  0
 12 14  1  0  0  0  0
 12 40  1  0  0  0  0
 12 41  1  0  0  0  0
 13 14  1  0  0  0  0
 13 18  2  0  0  0  0
 14 19  2  0  0  0  0
 15 20  1  0  0  0  0
 15 22  2  0  0  0  0
 17 21  1  0  0  0  0
 18 23  1  0  0  0  0
 18 42  1  0  0  0  0
 19 24  1  0  0  0  0
 19 43  1  0  0  0  0
 20 25  2  0  0  0  0
 21 27  2  0  0  0  0
 22 26  1  0  0  0  0
 22 44  1  0  0  0  0
 23 24  2  0  0  0  0
 23 45  1  0  0  0  0
 24 46  1  0  0  0  0
 25 28  1  0  0  0  0
 25 47  1  0  0  0  0
 26 28  2  0  0  0  0
 26 48  1  0  0  0  0
 27 29  1  0  0  0  0
 27 49  1  0  0  0  0
 28 50  1  0  0  0  0
 29 31  2  0  0  0  0
 29 32  1  0  0  0  0
 30 51  1  0  0  0  0
 30 52  1  0  0  0  0
 30 53  1  0  0  0  0
 31 33  1  0  0  0  0
 31 54  1  0  0  0  0
 32 34  2  0  0  0  0
 32 55  1  0  0  0  0
 33 35  2  0  0  0  0
 34 35  1  0  0  0  0
 34 56  1  0  0  0  0
 36 58  1  0  0  0  0
 36 59  1  0  0  0  0
 36 60  1  0  0  0  0
M  END
> <PUBCHEM_COMPOUND_CID>
5736224

> <PUBCHEM_CONFORMER_RMSD>
0.8

> <PUBCHEM_CONFORMER_DIVERSEORDER>
5
7
4
2
3
1
6
8

> <PUBCHEM_MMFF94_PARTIAL_CHARGES>
49
1 -0.24
10 0.14
11 0.14
12 0.14
13 0.03
14 -0.14
15 -0.14
16 0.65
17 0.62
18 -0.15
19 -0.15
2 -0.36
20 0.08
21 0.12
22 -0.15
23 -0.15
24 -0.15
25 -0.15
26 -0.15
27 -0.18
28 -0.15
29 0.03
3 -0.57
30 0.28
31 -0.15
32 -0.15
33 0.08
34 -0.15
35 0.08
36 0.28
4 -0.36
42 0.15
43 0.15
44 0.15
45 0.15
46 0.15
47 0.15
48 0.15
49 0.15
5 -0.53
50 0.15
54 0.15
55 0.15
56 0.15
57 0.45
6 -0.42
7 -0.62
8 0.58
9 -0.28

> <PUBCHEM_EFFECTIVE_ROTOR_COUNT>
4.6

> <PUBCHEM_PHARMACOPHORE_FEATURES>
10
1 2 acceptor
1 3 acceptor
1 4 acceptor
1 5 donor
5 1 6 16 17 21 rings
6 13 14 18 19 23 24 rings
6 15 20 22 25 26 28 rings
6 29 31 32 33 34 35 rings
6 6 7 8 9 11 16 rings
6 9 10 11 12 13 14 rings

> <PUBCHEM_HEAVY_ATOM_COUNT>
36

> <PUBCHEM_ATOM_DEF_STEREO_COUNT>
0

> <PUBCHEM_ATOM_UDEF_STEREO_COUNT>
1

> <PUBCHEM_BOND_DEF_STEREO_COUNT>
1

> <PUBCHEM_BOND_UDEF_STEREO_COUNT>
0

> <PUBCHEM_ISOTOPIC_ATOM_COUNT>
0

> <PUBCHEM_COMPONENT_COUNT>
1

> <PUBCHEM_CACTVS_TAUTO_COUNT>
3

> <PUBCHEM_CONFORMER_ID>
0057872000000005

> <PUBCHEM_MMFF94_ENERGY>
118.1043

> <PUBCHEM_FEATURE_SELFOVERLAP>
50.878

> <PUBCHEM_SHAPE_FINGERPRINT>
102385 1 17613709328497247573
10369192 42 17676205775962951541
10674148 151 18343295960376841400
107951 10 18113619031626216282
10906281 52 18338811055945388353
10930396 42 11167649929384734670
11135926 11 18271236137266788949
11445158 3 16663420253357060698
11763715 3 16964075999808293131
11991303 11 17895195557879449987
12597179 24 18408046216799831411
12643181 29 18260546749941368234
12788726 201 18271528598427250568
13135754 10 16952539236767082043
1361 2 18130224857278224222
13782708 43 15122370225575464237
14118638 360 12823309996541324236
15131766 46 15792876597043995700
15183329 4 18273215304697971460
15320294 125 18188195526280474010
15357212 105 17461739564370598420
15420108 30 17413608155281295361
15664445 248 17911802371500738183
15927050 60 18408317809199595875
16628084 112 18190737532142841642
17980427 23 12035723181613744635
18681886 176 17060043870878727373
19309040 13 16156273994564236132
19311894 1 17986660662198348543
19958102 18 18334006203681879076
21133410 230 17824286953777807907
21133665 82 18411138027092422862
21344244 246 18272652298894151343
21781051 124 18335146443999038051
21814621 53 16558743559642387707
22440779 20 17029683240061279946
23559900 14 18129089199031663664
23569917 315 18410857689749938911
24893992 56 18412823608551178897
27425 322 16878234168411492288
3004659 81 18411133650194103456
3298306 158 18411415133412290214
3380486 145 16826992773223756395
3383291 50 18340479084242844250
340366 18 17894915191141517196
3411729 13 18337952269398875737
3418910 222 17106768450530670298
38695281 34 18202277013934833295
404807 14 15980076985049924166
4058900 60 18114179679872591353
4073 2 18192990642275526080
508180 173 17917711326896349009
5265222 85 18337115677904334852
563151 40 18336265726015749227
59755656 215 18131069312082989165
59755656 520 18186798106365805643
6138700 20 18343862203895003380

> <PUBCHEM_SHAPE_MULTIPOLES>
711.27
17.04
4.36
1.83
6.46
4.9
-0.01
-10.23
5.88
0.45
-1.35
0.33
1.17
-0.67

> <PUBCHEM_SHAPE_SELFOVERLAP>
1582.319

> <PUBCHEM_SHAPE_VOLUME>
381.7

> <PUBCHEM_COORDINATE_TYPE>
2
5
10

$$$$
