2826864
  -OEChem-01171809323D

 41 42  0     1  0  0  0  0  0999 V2000
   -3.6441    2.3690   -0.0751 S   0  0  0  0  0  0  0  0  0  0  0  0
   -1.1153    1.8808   -1.5098 O   0  0  0  0  0  0  0  0  0  0  0  0
   -1.3343   -4.1201   -0.2798 N   0  0  0  0  0  0  0  0  0  0  0  0
    2.3668   -2.8278    1.6364 N   0  0  0  0  0  0  0  0  0  0  0  0
    0.0761   -0.8701   -0.1566 C   0  0  1  0  0  0  0  0  0  0  0  0
    1.2406    0.1120   -0.0258 C   0  0  0  0  0  0  0  0  0  0  0  0
   -0.9392   -0.5014   -1.2719 C   0  0  0  0  0  0  0  0  0  0  0  0
    0.6051   -2.3336   -0.2645 C   0  0  0  0  0  0  0  0  0  0  0  0
    1.3709    0.8367    1.1397 C   0  0  0  0  0  0  0  0  0  0  0  0
    2.1219    0.2414   -1.0779 C   0  0  0  0  0  0  0  0  0  0  0  0
    2.4328    1.7334    1.2587 C   0  0  0  0  0  0  0  0  0  0  0  0
    3.1838    1.1379   -0.9590 C   0  0  0  0  0  0  0  0  0  0  0  0
    3.3392    1.8839    0.2094 C   0  0  0  0  0  0  0  0  0  0  0  0
   -1.6259    0.8527   -1.0623 C   0  0  0  0  0  0  0  0  0  0  0  0
    0.4133    0.6941    2.2774 C   0  0  0  0  0  0  0  0  0  0  0  0
    1.9778   -0.5463   -2.3389 C   0  0  0  0  0  0  0  0  0  0  0  0
   -2.8888    0.8741   -0.3044 C   0  0  0  0  0  0  0  0  0  0  0  0
    4.4747    2.8424    0.3366 C   0  0  0  0  0  0  0  0  0  0  0  0
   -0.4820   -3.3324   -0.2715 C   0  0  0  0  0  0  0  0  0  0  0  0
    1.5905   -2.6108    0.8015 C   0  0  0  0  0  0  0  0  0  0  0  0
   -3.5327   -0.1779    0.2426 C   0  0  0  0  0  0  0  0  0  0  0  0
   -4.7245    0.2501    0.8956 C   0  0  0  0  0  0  0  0  0  0  0  0
   -4.9066    1.6121    0.7996 C   0  0  0  0  0  0  0  0  0  0  0  0
   -0.5251   -0.8577    0.7587 H   0  0  0  0  0  0  0  0  0  0  0  0
   -1.7088   -1.2733   -1.3697 H   0  0  0  0  0  0  0  0  0  0  0  0
   -0.5298   -0.4306   -2.2786 H   0  0  0  0  0  0  0  0  0  0  0  0
    1.1415   -2.5256   -1.1930 H   0  0  0  0  0  0  0  0  0  0  0  0
    2.5574    2.3189    2.1666 H   0  0  0  0  0  0  0  0  0  0  0  0
    3.8895    1.2558   -1.7781 H   0  0  0  0  0  0  0  0  0  0  0  0
   -0.5991    0.9836    1.9787 H   0  0  0  0  0  0  0  0  0  0  0  0
    0.4162   -0.3269    2.6724 H   0  0  0  0  0  0  0  0  0  0  0  0
    0.6883    1.3489    3.1125 H   0  0  0  0  0  0  0  0  0  0  0  0
    1.1310   -1.1898   -2.5205 H   0  0  0  0  0  0  0  0  0  0  0  0
    2.8638   -1.1851   -2.4472 H   0  0  0  0  0  0  0  0  0  0  0  0
    1.9840    0.1552   -3.1834 H   0  0  0  0  0  0  0  0  0  0  0  0
    4.8088    2.9226    1.3766 H   0  0  0  0  0  0  0  0  0  0  0  0
    5.3380    2.5140   -0.2521 H   0  0  0  0  0  0  0  0  0  0  0  0
    4.1698    3.8341   -0.0119 H   0  0  0  0  0  0  0  0  0  0  0  0
   -3.2128   -1.2106    0.2154 H   0  0  0  0  0  0  0  0  0  0  0  0
   -5.4123   -0.4072    1.4116 H   0  0  0  0  0  0  0  0  0  0  0  0
   -5.7202    2.1989    1.2019 H   0  0  0  0  0  0  0  0  0  0  0  0
  1 17  1  0  0  0  0
  1 23  1  0  0  0  0
  2 14  2  0  0  0  0
  3 19  3  0  0  0  0
  4 20  3  0  0  0  0
  5  6  1  0  0  0  0
  5  7  1  0  0  0  0
  5  8  1  0  0  0  0
  5 24  1  0  0  0  0
  6  9  2  0  0  0  0
  6 10  1  0  0  0  0
  7 14  1  0  0  0  0
  7 25  1  0  0  0  0
  7 26  1  0  0  0  0
  8 19  1  0  0  0  0
  8 20  1  0  0  0  0
  8 27  1  0  0  0  0
  9 11  1  0  0  0  0
  9 15  1  0  0  0  0
 10 12  2  0  0  0  0
 10 16  1  0  0  0  0
 11 13  2  0  0  0  0
 11 28  1  0  0  0  0
 12 13  1  0  0  0  0
 12 29  1  0  0  0  0
 13 18  1  0  0  0  0
 14 17  1  0  0  0  0
 15 30  1  0  0  0  0
 15 31  1  0  0  0  0
 15 32  1  0  0  0  0
 16 33  1  0  0  0  0
 16 34  1  0  0  0  0
 16 35  1  0  0  0  0
 17 21  2  0  0  0  0
 18 36  1  0  0  0  0
 18 37  1  0  0  0  0
 18 38  1  0  0  0  0
 21 22  1  0  0  0  0
 21 39  1  0  0  0  0
 22 23  2  0  0  0  0
 22 40  1  0  0  0  0
 23 41  1  0  0  0  0
M  END
> <PUBCHEM_COMPOUND_CID>
2826864

> <PUBCHEM_CONFORMER_RMSD>
0.8

> <PUBCHEM_CONFORMER_DIVERSEORDER>
1
18
13
8
14
7
15
12
17
2
16
5
9
11
4
6
10
3

> <PUBCHEM_MMFF94_PARTIAL_CHARGES>
28
1 -0.08
10 -0.14
11 -0.15
12 -0.15
13 -0.14
14 0.59
15 0.14
16 0.14
17 -0.05
18 0.14
19 0.36
2 -0.57
20 0.36
21 -0.15
22 -0.15
23 -0.11
28 0.15
29 0.15
3 -0.56
39 0.15
4 -0.56
40 0.15
41 0.15
5 0.14
6 -0.14
7 0.06
8 0.4
9 -0.14

> <PUBCHEM_EFFECTIVE_ROTOR_COUNT>
5

> <PUBCHEM_PHARMACOPHORE_FEATURES>
5
1 2 acceptor
1 3 acceptor
1 4 acceptor
5 1 17 21 22 23 rings
6 6 9 10 11 12 13 rings

> <PUBCHEM_HEAVY_ATOM_COUNT>
23

> <PUBCHEM_ATOM_DEF_STEREO_COUNT>
0

> <PUBCHEM_ATOM_UDEF_STEREO_COUNT>
1

> <PUBCHEM_BOND_DEF_STEREO_COUNT>
0

> <PUBCHEM_BOND_UDEF_STEREO_COUNT>
0

> <PUBCHEM_ISOTOPIC_ATOM_COUNT>
0

> <PUBCHEM_COMPONENT_COUNT>
1

> <PUBCHEM_CACTVS_TAUTO_COUNT>
2

> <PUBCHEM_CONFORMER_ID>
002B227000000001

> <PUBCHEM_MMFF94_ENERGY>
67.5284

> <PUBCHEM_FEATURE_SELFOVERLAP>
25.373

> <PUBCHEM_SHAPE_FINGERPRINT>
10064457 181 18412263943229568887
10165383 225 18411989086824146929
1100329 8 18411415073504677610
11578080 2 17909863094913326548
12592029 89 18187085010434308386
12633257 1 18053107216534993513
12788726 201 17469898039268627190
13140716 1 18335701594730134643
13464514 151 18059578022510027476
13533116 47 18124601878247826777
13583140 156 16444447139512285077
13878862 14 17905317439367730701
14178342 30 18191587660193638798
14341114 328 16950572120297342653
14713325 29 17982733279425279036
14787075 74 17988080140284092573
14955137 171 18123469367553216442
15238133 3 17556580946517373177
18785283 64 18260545594067462888
19765921 60 18202278130304251656
20600515 1 16751239685627852227
21756936 100 18200304562951883656
23419403 2 17688363062735243202
23557571 272 17545317944629240372
23559900 14 18045221540567934509
25 1 17703511072932694732
283562 15 17832692853088949434
3052486 1 18045783652528154663
350125 39 18335985250974647127
3729539 64 18123212138088612926
394222 165 18342741784476986362
427121 178 18410582811314519181
4340502 62 18342184383758441787
469060 322 17824250717449376359
495365 180 18195512719779803661
5104073 3 18190474762165833481
5845 1 15690926248782885876
59755656 520 18338799017563586164
633830 44 18059862718854947053
6442390 28 18339933696325539815
7226269 152 17774993614358563784
7808743 9 18194686092793784668
81228 2 17758670431661104190

> <PUBCHEM_SHAPE_MULTIPOLES>
461.35
7.54
3.91
1.71
6.29
3.9
0
-6.87
1.31
-1.27
0.6
-0.85
-0.03
-0.1

> <PUBCHEM_SHAPE_SELFOVERLAP>
966.01

> <PUBCHEM_SHAPE_VOLUME>
262

> <PUBCHEM_COORDINATE_TYPE>
2
5
10

$$$$
