8016512
  -OEChem-01171809593D

 53 55  0     0  0  0  0  0  0999 V2000
   -4.7511   -0.0482   -0.8537 O   0  0  0  0  0  0  0  0  0  0  0  0
   -0.8371   -2.6752   -0.6170 O   0  0  0  0  0  0  0  0  0  0  0  0
    0.9989   -4.0092   -0.5815 O   0  0  0  0  0  0  0  0  0  0  0  0
    3.3864   -2.0881   -1.2521 O   0  0  0  0  0  0  0  0  0  0  0  0
    3.8581    4.3109    0.6537 O   0  0  0  0  0  0  0  0  0  0  0  0
    4.2027    3.7679   -1.5234 O   0  0  0  0  0  0  0  0  0  0  0  0
    4.4312   -0.9215    0.4633 N   0  0  0  0  0  0  0  0  0  0  0  0
   -5.5781    1.0077   -0.3293 C   0  0  0  0  0  0  0  0  0  0  0  0
   -4.7764    2.2998   -0.1042 C   0  0  0  0  0  0  0  0  0  0  0  0
   -3.5998    2.0672    0.8331 C   0  0  0  0  0  0  0  0  0  0  0  0
   -2.8712    0.8126    0.4491 C   0  0  0  0  0  0  0  0  0  0  0  0
   -3.4822   -0.1558   -0.3512 C   0  0  0  0  0  0  0  0  0  0  0  0
   -6.6507    1.2700   -1.3965 C   0  0  0  0  0  0  0  0  0  0  0  0
   -6.2719    0.5095    0.9476 C   0  0  0  0  0  0  0  0  0  0  0  0
   -1.5652    0.5929    0.9254 C   0  0  0  0  0  0  0  0  0  0  0  0
   -0.8477   -0.5688    0.5974 C   0  0  0  0  0  0  0  0  0  0  0  0
   -2.7816   -1.3075   -0.7004 C   0  0  0  0  0  0  0  0  0  0  0  0
   -1.4824   -1.4932   -0.2235 C   0  0  0  0  0  0  0  0  0  0  0  0
    0.5269   -0.8499    1.0615 C   0  0  0  0  0  0  0  0  0  0  0  0
    1.1493   -1.9746    0.6485 C   0  0  0  0  0  0  0  0  0  0  0  0
    2.5675   -2.3512    0.9933 C   0  0  0  0  0  0  0  0  0  0  0  0
    0.4579   -2.9670   -0.2242 C   0  0  0  0  0  0  0  0  0  0  0  0
    1.1503    0.1542    1.9994 C   0  0  0  0  0  0  0  0  0  0  0  0
    3.4848   -1.7849   -0.0641 C   0  0  0  0  0  0  0  0  0  0  0  0
    5.4342   -0.2640   -0.3435 C   0  0  0  0  0  0  0  0  0  0  0  0
    4.9705    1.0900   -0.8788 C   0  0  0  0  0  0  0  0  0  0  0  0
    4.6460    2.1150    0.2111 C   0  0  0  0  0  0  0  0  0  0  0  0
    4.2307    3.4616   -0.3397 C   0  0  0  0  0  0  0  0  0  0  0  0
   -5.4140    3.1008    0.2882 H   0  0  0  0  0  0  0  0  0  0  0  0
   -4.3794    2.6479   -1.0682 H   0  0  0  0  0  0  0  0  0  0  0  0
   -2.9258    2.9304    0.7820 H   0  0  0  0  0  0  0  0  0  0  0  0
   -3.9463    1.9773    1.8691 H   0  0  0  0  0  0  0  0  0  0  0  0
   -7.2223    0.3591   -1.6095 H   0  0  0  0  0  0  0  0  0  0  0  0
   -7.3494    2.0531   -1.0842 H   0  0  0  0  0  0  0  0  0  0  0  0
   -6.1914    1.5722   -2.3449 H   0  0  0  0  0  0  0  0  0  0  0  0
   -6.9334    1.2742    1.3675 H   0  0  0  0  0  0  0  0  0  0  0  0
   -5.5518    0.2160    1.7182 H   0  0  0  0  0  0  0  0  0  0  0  0
   -6.8683   -0.3863    0.7383 H   0  0  0  0  0  0  0  0  0  0  0  0
   -1.1226    1.3579    1.5597 H   0  0  0  0  0  0  0  0  0  0  0  0
   -3.2426   -2.0598   -1.3353 H   0  0  0  0  0  0  0  0  0  0  0  0
    2.7118   -3.4378    1.0173 H   0  0  0  0  0  0  0  0  0  0  0  0
    2.8455   -2.0213    1.9982 H   0  0  0  0  0  0  0  0  0  0  0  0
    0.5546    0.2471    2.9143 H   0  0  0  0  0  0  0  0  0  0  0  0
    1.2178    1.1367    1.5188 H   0  0  0  0  0  0  0  0  0  0  0  0
    2.1644   -0.0985    2.3132 H   0  0  0  0  0  0  0  0  0  0  0  0
    5.7000   -0.9179   -1.1814 H   0  0  0  0  0  0  0  0  0  0  0  0
    6.3241   -0.1404    0.2825 H   0  0  0  0  0  0  0  0  0  0  0  0
    4.4336   -0.7263    1.4598 H   0  0  0  0  0  0  0  0  0  0  0  0
    4.0848    0.9489   -1.5117 H   0  0  0  0  0  0  0  0  0  0  0  0
    5.7549    1.4943   -1.5308 H   0  0  0  0  0  0  0  0  0  0  0  0
    5.5269    2.2690    0.8441 H   0  0  0  0  0  0  0  0  0  0  0  0
    3.8245    1.7440    0.8335 H   0  0  0  0  0  0  0  0  0  0  0  0
    3.5771    5.1827    0.3026 H   0  0  0  0  0  0  0  0  0  0  0  0
  1  8  1  0  0  0  0
  1 12  1  0  0  0  0
  2 18  1  0  0  0  0
  2 22  1  0  0  0  0
  3 22  2  0  0  0  0
  4 24  2  0  0  0  0
  5 28  1  0  0  0  0
  5 53  1  0  0  0  0
  6 28  2  0  0  0  0
  7 24  1  0  0  0  0
  7 25  1  0  0  0  0
  7 48  1  0  0  0  0
  8  9  1  0  0  0  0
  8 13  1  0  0  0  0
  8 14  1  0  0  0  0
  9 10  1  0  0  0  0
  9 29  1  0  0  0  0
  9 30  1  0  0  0  0
 10 11  1  0  0  0  0
 10 31  1  0  0  0  0
 10 32  1  0  0  0  0
 11 12  1  0  0  0  0
 11 15  2  0  0  0  0
 12 17  2  0  0  0  0
 13 33  1  0  0  0  0
 13 34  1  0  0  0  0
 13 35  1  0  0  0  0
 14 36  1  0  0  0  0
 14 37  1  0  0  0  0
 14 38  1  0  0  0  0
 15 16  1  0  0  0  0
 15 39  1  0  0  0  0
 16 18  2  0  0  0  0
 16 19  1  0  0  0  0
 17 18  1  0  0  0  0
 17 40  1  0  0  0  0
 19 20  2  0  0  0  0
 19 23  1  0  0  0  0
 20 21  1  0  0  0  0
 20 22  1  0  0  0  0
 21 24  1  0  0  0  0
 21 41  1  0  0  0  0
 21 42  1  0  0  0  0
 23 43  1  0  0  0  0
 23 44  1  0  0  0  0
 23 45  1  0  0  0  0
 25 26  1  0  0  0  0
 25 46  1  0  0  0  0
 25 47  1  0  0  0  0
 26 27  1  0  0  0  0
 26 49  1  0  0  0  0
 26 50  1  0  0  0  0
 27 28  1  0  0  0  0
 27 51  1  0  0  0  0
 27 52  1  0  0  0  0
M  END
> <PUBCHEM_COMPOUND_CID>
8016512

> <PUBCHEM_CONFORMER_RMSD>
1

> <PUBCHEM_CONFORMER_DIVERSEORDER>
1
12
62
46
5
65
71
19
39
60
81
50
85
42
58
88
69
64
36
57
80
8
48
61
59
82
23
49
43
63
7
67
70
73
28
17
66
16
41
6
53
51
25
2
86
76
32
78
10
15
33
87
84
11
30
54
75
56
24
14
47
72
35
40
83
22
34
68
4
31
74
3
26
18
55
13
27
79
45
21
37
20
77
52
29
9
44
38

> <PUBCHEM_MMFF94_PARTIAL_CHARGES>
28
1 -0.36
10 0.14
11 -0.14
12 0.08
15 -0.15
16 0.03
17 -0.15
18 0.08
19 -0.17
2 -0.23
20 -0.12
21 0.2
22 0.71
23 0.14
24 0.57
25 0.3
27 0.06
28 0.66
3 -0.57
39 0.15
4 -0.57
40 0.15
48 0.37
5 -0.65
53 0.5
6 -0.57
7 -0.73
8 0.28

> <PUBCHEM_EFFECTIVE_ROTOR_COUNT>
7.8

> <PUBCHEM_PHARMACOPHORE_FEATURES>
11
1 1 acceptor
1 3 acceptor
1 4 acceptor
1 5 acceptor
1 6 acceptor
1 7 donor
3 5 6 28 anion
3 8 13 14 hydrophobe
6 1 8 9 10 11 12 rings
6 11 12 15 16 17 18 rings
6 2 16 18 19 20 22 rings

> <PUBCHEM_HEAVY_ATOM_COUNT>
28

> <PUBCHEM_ATOM_DEF_STEREO_COUNT>
0

> <PUBCHEM_ATOM_UDEF_STEREO_COUNT>
0

> <PUBCHEM_BOND_DEF_STEREO_COUNT>
0

> <PUBCHEM_BOND_UDEF_STEREO_COUNT>
0

> <PUBCHEM_ISOTOPIC_ATOM_COUNT>
0

> <PUBCHEM_COMPONENT_COUNT>
1

> <PUBCHEM_CACTVS_TAUTO_COUNT>
2

> <PUBCHEM_CONFORMER_ID>
007A528000000001

> <PUBCHEM_MMFF94_ENERGY>
69.9245

> <PUBCHEM_FEATURE_SELFOVERLAP>
55.934

> <PUBCHEM_SHAPE_FINGERPRINT>
10673678 19 18411984663165606903
10937287 8 18265053707737298094
11070050 100 16370720427115597752
11273773 38 17836931101126583857
11796584 16 13182724932295589079
13617811 41 18341599452363801801
14117953 113 18412545384743139060
14429115 67 10159705698320085440
14528608 73 18411699842240723543
14790565 3 18412827980031099859
15082195 135 18340753897708915135
15142526 21 18114180856329861226
15183329 4 18272088288104789521
15322687 12 18413107290587237544
18335252 114 18336821988504423054
18681886 176 18269267955502989618
19301679 30 17467054265052766194
20715895 44 18413103992315838296
21033648 29 16009025043203218711
21049683 118 17531516672365164506
21298829 104 18411417341505755728
21344244 78 17827335710948907410
23522609 53 17703243819325925017
23559900 14 17988633099589617962
23569914 2 17027357567238086381
245318 6 18042137599056278364
249057 3 18341614794287195518
25265897 201 17839780197956977844
2838139 119 18335134297699545580
3004659 81 17986388893748279070
3472631 163 18412263938998081054
34797466 226 18272093751777677751
4072396 5 12396591701979377635
4487111 67 16605767752144966300
474 4 18335422352903984626
5312510 48 18409167714286093652
53794403 172 18336554914532281580
6371009 1 18412256217005708648

> <PUBCHEM_SHAPE_MULTIPOLES>
536.03
14.53
4.48
1.27
8.81
2.1
-0.14
11.69
3.6
-6.94
0.86
0.05
0.18
-0.67

> <PUBCHEM_SHAPE_SELFOVERLAP>
1138.566

> <PUBCHEM_SHAPE_VOLUME>
298.5

> <PUBCHEM_COORDINATE_TYPE>
2
5
10

$$$$
