839498
  -OEChem-01171809413D

 33 34  0     0  0  0  0  0  0999 V2000
    1.9903   -1.8693   -0.0045 S   0  0  0  0  0  0  0  0  0  0  0  0
   -1.5057    1.2007    0.0452 O   0  0  0  0  0  0  0  0  0  0  0  0
   -7.7442   -0.4502   -0.0672 O   0  0  0  0  0  0  0  0  0  0  0  0
   -6.4944    1.4458   -0.0393 O   0  0  0  0  0  0  0  0  0  0  0  0
   -0.4361   -0.8901    0.0224 N   0  0  0  0  0  0  0  0  0  0  0  0
    1.4173    0.6453    0.0163 N   0  0  0  0  0  0  0  0  0  0  0  0
   -4.0622    0.0946    0.0645 C   0  0  0  0  0  0  0  0  0  0  0  0
   -2.8312   -0.8117    0.0478 C   0  0  0  0  0  0  0  0  0  0  0  0
   -5.3684   -0.6893    0.0028 C   0  0  0  0  0  0  0  0  0  0  0  0
    3.3061   -0.7552   -0.0085 C   0  0  0  0  0  0  0  0  0  0  0  0
   -1.5270   -0.0255    0.0374 C   0  0  0  0  0  0  0  0  0  0  0  0
    2.8012    0.5486    0.0039 C   0  0  0  0  0  0  0  0  0  0  0  0
    0.9367   -0.5467    0.0127 C   0  0  0  0  0  0  0  0  0  0  0  0
    5.5650    0.0699   -0.0227 C   0  0  0  0  0  0  0  0  0  0  0  0
    4.6858   -1.0160   -0.0218 C   0  0  0  0  0  0  0  0  0  0  0  0
    3.7116    1.6278    0.0029 C   0  0  0  0  0  0  0  0  0  0  0  0
    5.0864    1.3754   -0.0105 C   0  0  0  0  0  0  0  0  0  0  0  0
   -6.5681    0.2236   -0.0446 C   0  0  0  0  0  0  0  0  0  0  0  0
    7.0371   -0.1775   -0.0369 C   0  0  0  0  0  0  0  0  0  0  0  0
   -4.0466    0.7183    0.9677 H   0  0  0  0  0  0  0  0  0  0  0  0
   -4.0123    0.7887   -0.7848 H   0  0  0  0  0  0  0  0  0  0  0  0
   -2.8512   -1.4497   -0.8440 H   0  0  0  0  0  0  0  0  0  0  0  0
   -2.8368   -1.4627    0.9301 H   0  0  0  0  0  0  0  0  0  0  0  0
   -5.3854   -1.3160   -0.8955 H   0  0  0  0  0  0  0  0  0  0  0  0
   -5.4584   -1.3299    0.8868 H   0  0  0  0  0  0  0  0  0  0  0  0
   -0.6103   -1.8922    0.0178 H   0  0  0  0  0  0  0  0  0  0  0  0
    5.0558   -2.0373   -0.0294 H   0  0  0  0  0  0  0  0  0  0  0  0
    3.3485    2.6516    0.0128 H   0  0  0  0  0  0  0  0  0  0  0  0
    5.7752    2.2166   -0.0092 H   0  0  0  0  0  0  0  0  0  0  0  0
    7.5675    0.6233   -0.5635 H   0  0  0  0  0  0  0  0  0  0  0  0
    7.4176   -0.2361    0.9878 H   0  0  0  0  0  0  0  0  0  0  0  0
    7.2763   -1.1129   -0.5541 H   0  0  0  0  0  0  0  0  0  0  0  0
   -8.5143    0.1573   -0.0858 H   0  0  0  0  0  0  0  0  0  0  0  0
  1 10  1  0  0  0  0
  1 13  1  0  0  0  0
  2 11  2  0  0  0  0
  3 18  1  0  0  0  0
  3 33  1  0  0  0  0
  4 18  2  0  0  0  0
  5 11  1  0  0  0  0
  5 13  1  0  0  0  0
  5 26  1  0  0  0  0
  6 12  1  0  0  0  0
  6 13  2  0  0  0  0
  7  8  1  0  0  0  0
  7  9  1  0  0  0  0
  7 20  1  0  0  0  0
  7 21  1  0  0  0  0
  8 11  1  0  0  0  0
  8 22  1  0  0  0  0
  8 23  1  0  0  0  0
  9 18  1  0  0  0  0
  9 24  1  0  0  0  0
  9 25  1  0  0  0  0
 10 12  2  0  0  0  0
 10 15  1  0  0  0  0
 12 16  1  0  0  0  0
 14 15  2  0  0  0  0
 14 17  1  0  0  0  0
 14 19  1  0  0  0  0
 15 27  1  0  0  0  0
 16 17  2  0  0  0  0
 16 28  1  0  0  0  0
 17 29  1  0  0  0  0
 19 30  1  0  0  0  0
 19 31  1  0  0  0  0
 19 32  1  0  0  0  0
M  END
> <PUBCHEM_COMPOUND_CID>
839498

> <PUBCHEM_CONFORMER_RMSD>
0.8

> <PUBCHEM_CONFORMER_DIVERSEORDER>
1
32
16
21
31
13
27
35
11
30
22
19
7
28
15
25
10
34
3
2
14
20
24
36
29
8
5
33
12
9
23
6
17
26
18
4

> <PUBCHEM_MMFF94_PARTIAL_CHARGES>
23
1 -0.08
10 0.04
11 0.57
12 0.23
13 0.44
14 -0.14
15 -0.15
16 -0.15
17 -0.15
18 0.66
19 0.14
2 -0.57
26 0.37
27 0.15
28 0.15
29 0.15
3 -0.65
33 0.5
4 -0.57
5 -0.49
6 -0.57
8 0.06
9 0.06

> <PUBCHEM_EFFECTIVE_ROTOR_COUNT>
6

> <PUBCHEM_PHARMACOPHORE_FEATURES>
7
1 2 acceptor
1 3 acceptor
1 4 acceptor
1 5 donor
3 3 4 18 anion
5 1 6 10 12 13 rings
6 10 12 14 15 16 17 rings

> <PUBCHEM_HEAVY_ATOM_COUNT>
19

> <PUBCHEM_ATOM_DEF_STEREO_COUNT>
0

> <PUBCHEM_ATOM_UDEF_STEREO_COUNT>
0

> <PUBCHEM_BOND_DEF_STEREO_COUNT>
0

> <PUBCHEM_BOND_UDEF_STEREO_COUNT>
0

> <PUBCHEM_ISOTOPIC_ATOM_COUNT>
0

> <PUBCHEM_COMPONENT_COUNT>
1

> <PUBCHEM_CACTVS_TAUTO_COUNT>
3

> <PUBCHEM_CONFORMER_ID>
000CCF4A00000001

> <PUBCHEM_MMFF94_ENERGY>
31.3852

> <PUBCHEM_FEATURE_SELFOVERLAP>
35.653

> <PUBCHEM_SHAPE_FINGERPRINT>
10411042 1 18049721812076451858
10968037 39 18413107260822893079
11719270 70 18272367551516533070
12091667 2 18411982469133715819
12236239 1 18131068255357218095
12516196 113 18060698399099633097
13167372 99 18340488872325144233
13533116 47 17168414974710822242
14123256 10 18060138739085573747
14170010 4 18410292523782484800
14251764 18 18334011683421539666
14251764 46 18410292518775250579
14933364 13 18409168805624031061
17834076 25 18040434395552005703
19427546 62 18335142059259661890
20281389 69 18334574651051072521
20645477 70 18340769243542946934
21150785 3 14620792717086815201
21267235 1 18412268311891609062
21315763 28 18410855469303626357
220451 1 16298101003725558043
221357 26 18343585123165793152
22224240 67 17240481433608740770
23402539 116 18271802453656827694
23521765 1 18341895194735728099
23536379 177 18411418402035026131
23559900 14 18409726309020799217
29717793 49 17775571931504015844
300161 21 18060133262717694535
335352 9 18411141342844021046
33684 2 18409165511421064267
3545911 37 18407759239689984862
4073 2 17968382354437819883
42630746 31 18272091582914333590
42788 4 18410575093263569507
4325135 7 18343582940789332287
4340502 62 16950281801692637922
4463277 17 18411699885485672105
54446538 1 18273498970028693561
59755656 215 18336268963951494598
59755656 520 17603580859210065795
8209 1 18410856563934769871

> <PUBCHEM_SHAPE_MULTIPOLES>
367.29
19.67
1.47
0.6
24.9
0.05
0
2.59
0.44
-0.9
0
-0.08
-0.02
0.02

> <PUBCHEM_SHAPE_SELFOVERLAP>
760.22

> <PUBCHEM_SHAPE_VOLUME>
211

> <PUBCHEM_COORDINATE_TYPE>
2
5
10

$$$$
