1341811
  -OEChem-01171809293D

 38 39  0     0  0  0  0  0  0999 V2000
   -1.6439    2.6423   -0.0488 S   0  0  0  0  0  0  0  0  0  0  0  0
   -0.1407   -2.1162    0.6292 S   0  0  0  0  0  0  0  0  0  0  0  0
    8.3107   -0.9493   -0.2545 F   0  0  0  0  0  0  0  0  0  0  0  0
   -6.6731   -0.7301    0.1199 O   0  0  0  0  0  0  0  0  0  0  0  0
   -5.0094   -0.2252   -1.3956 O   0  0  0  0  0  0  0  0  0  0  0  0
    2.5554    1.6101   -0.1949 O   0  0  0  0  0  0  0  0  0  0  0  0
   -2.3350    0.2524    0.6538 N   0  0  0  0  0  0  0  0  0  0  0  0
    0.0085    0.6275    0.2396 N   0  0  0  0  0  0  0  0  0  0  0  0
    1.9937   -0.6263    0.2230 N   0  0  0  0  0  0  0  0  0  0  0  0
   -4.7679    0.3854    0.9499 C   0  0  0  0  0  0  0  0  0  0  0  0
   -3.4803    1.0237    0.6129 C   0  0  0  0  0  0  0  0  0  0  0  0
   -1.3344    1.0093    0.3252 C   0  0  0  0  0  0  0  0  0  0  0  0
   -3.3055    2.3435    0.2530 C   0  0  0  0  0  0  0  0  0  0  0  0
   -5.4661   -0.2128   -0.2606 C   0  0  0  0  0  0  0  0  0  0  0  0
    4.3119    0.0680   -0.0997 C   0  0  0  0  0  0  0  0  0  0  0  0
    2.9036    0.4272   -0.0443 C   0  0  0  0  0  0  0  0  0  0  0  0
    0.5921   -0.6258    0.3757 C   0  0  0  0  0  0  0  0  0  0  0  0
   -7.4434   -1.3312   -0.9259 C   0  0  0  0  0  0  0  0  0  0  0  0
    5.1949    0.8255   -0.8693 C   0  0  0  0  0  0  0  0  0  0  0  0
    4.7798   -1.0330    0.6176 C   0  0  0  0  0  0  0  0  0  0  0  0
    6.5458    0.4819   -0.9215 C   0  0  0  0  0  0  0  0  0  0  0  0
    6.1307   -1.3764    0.5655 C   0  0  0  0  0  0  0  0  0  0  0  0
    7.0137   -0.6190   -0.2041 C   0  0  0  0  0  0  0  0  0  0  0  0
   -8.7411   -1.8517   -0.3458 C   0  0  0  0  0  0  0  0  0  0  0  0
   -5.4420    1.1219    1.4027 H   0  0  0  0  0  0  0  0  0  0  0  0
   -4.6022   -0.4192    1.6755 H   0  0  0  0  0  0  0  0  0  0  0  0
   -4.0474    3.1233    0.1542 H   0  0  0  0  0  0  0  0  0  0  0  0
    0.6252    1.4021    0.0141 H   0  0  0  0  0  0  0  0  0  0  0  0
   -7.6565   -0.5837   -1.6982 H   0  0  0  0  0  0  0  0  0  0  0  0
   -6.8768   -2.1588   -1.3672 H   0  0  0  0  0  0  0  0  0  0  0  0
    4.8493    1.6843   -1.4391 H   0  0  0  0  0  0  0  0  0  0  0  0
    4.1376   -1.6293    1.2589 H   0  0  0  0  0  0  0  0  0  0  0  0
    2.3837   -1.5623    0.2830 H   0  0  0  0  0  0  0  0  0  0  0  0
    7.2335    1.0706   -1.5215 H   0  0  0  0  0  0  0  0  0  0  0  0
    6.4975   -2.2285    1.1301 H   0  0  0  0  0  0  0  0  0  0  0  0
   -9.3561   -2.3188   -1.1201 H   0  0  0  0  0  0  0  0  0  0  0  0
   -8.5438   -2.5873    0.4409 H   0  0  0  0  0  0  0  0  0  0  0  0
   -9.3107   -1.0382    0.1154 H   0  0  0  0  0  0  0  0  0  0  0  0
  1 12  1  0  0  0  0
  1 13  1  0  0  0  0
  2 17  2  0  0  0  0
  3 23  1  0  0  0  0
  4 14  1  0  0  0  0
  4 18  1  0  0  0  0
  5 14  2  0  0  0  0
  6 16  2  0  0  0  0
  7 11  1  0  0  0  0
  7 12  2  0  0  0  0
  8 12  1  0  0  0  0
  8 17  1  0  0  0  0
  8 28  1  0  0  0  0
  9 16  1  0  0  0  0
  9 17  1  0  0  0  0
  9 33  1  0  0  0  0
 10 11  1  0  0  0  0
 10 14  1  0  0  0  0
 10 25  1  0  0  0  0
 10 26  1  0  0  0  0
 11 13  2  0  0  0  0
 13 27  1  0  0  0  0
 15 16  1  0  0  0  0
 15 19  2  0  0  0  0
 15 20  1  0  0  0  0
 18 24  1  0  0  0  0
 18 29  1  0  0  0  0
 18 30  1  0  0  0  0
 19 21  1  0  0  0  0
 19 31  1  0  0  0  0
 20 22  2  0  0  0  0
 20 32  1  0  0  0  0
 21 23  2  0  0  0  0
 21 34  1  0  0  0  0
 22 23  1  0  0  0  0
 22 35  1  0  0  0  0
 24 36  1  0  0  0  0
 24 37  1  0  0  0  0
 24 38  1  0  0  0  0
M  END
> <PUBCHEM_COMPOUND_CID>
1341811

> <PUBCHEM_CONFORMER_RMSD>
1

> <PUBCHEM_CONFORMER_DIVERSEORDER>
1
39
18
45
66
52
44
33
41
63
34
21
51
61
53
57
36
48
60
16
58
55
30
12
56
50
22
43
19
28
31
49
38
2
42
62
64
46
27
65
13
25
11
37
23
20
5
32
7
6
8
35
10
59
29
47
24
54
15
14
17
40
26
4
9
3

> <PUBCHEM_MMFF94_PARTIAL_CHARGES>
30
1 -0.08
10 0.24
11 0.05
12 0.44
13 -0.11
14 0.66
15 0.09
16 0.54
17 0.5
18 0.28
19 -0.15
2 -0.38
20 -0.15
21 -0.15
22 -0.15
23 0.19
27 0.15
28 0.37
3 -0.19
31 0.15
32 0.15
33 0.37
34 0.15
35 0.15
4 -0.43
5 -0.57
6 -0.57
7 -0.57
8 -0.49
9 -0.49

> <PUBCHEM_EFFECTIVE_ROTOR_COUNT>
9

> <PUBCHEM_PHARMACOPHORE_FEATURES>
8
1 2 acceptor
1 5 acceptor
1 6 acceptor
1 8 donor
1 9 donor
3 7 8 12 cation
5 1 7 11 12 13 rings
6 15 19 20 21 22 23 rings

> <PUBCHEM_HEAVY_ATOM_COUNT>
24

> <PUBCHEM_ATOM_DEF_STEREO_COUNT>
0

> <PUBCHEM_ATOM_UDEF_STEREO_COUNT>
0

> <PUBCHEM_BOND_DEF_STEREO_COUNT>
0

> <PUBCHEM_BOND_UDEF_STEREO_COUNT>
0

> <PUBCHEM_ISOTOPIC_ATOM_COUNT>
0

> <PUBCHEM_COMPONENT_COUNT>
1

> <PUBCHEM_CACTVS_TAUTO_COUNT>
8

> <PUBCHEM_CONFORMER_ID>
0014797300000001

> <PUBCHEM_MMFF94_ENERGY>
48.5428

> <PUBCHEM_FEATURE_SELFOVERLAP>
40.637

> <PUBCHEM_SHAPE_FINGERPRINT>
10 15 11312059859590953063
10299344 5 18343304777886534371
10595046 47 18335986372462505144
11089746 13 12901554558670232518
11315181 36 17095817563133929073
11524674 6 15913325806237512759
12166972 35 18187085069915712292
13073987 5 15625673704076442430
13631057 29 18341892974955184593
13668630 136 17775291530390448468
13673619 4 17704068512944079881
13862211 1 18411138030385038009
14123256 10 18411982464121343271
14251764 18 18333735698415314128
14767858 380 18335419080091289255
15048467 5 10809343342918552973
15131766 46 15432313774748903558
15183329 4 18335141981907942354
155225 1 11602809200441256151
15690457 1 18343299279616498918
1577012 14 18188493467459930504
16120349 18 18114466747735666964
17093844 174 11097866193637847973
18335252 98 17489591156227415710
18681886 176 18408879646370891368
19427546 20 18337107857602461997
19489759 90 14345799335778961693
20028762 73 18343301465749863870
21130935 74 18058169428235914698
21150785 3 17894630361531129582
21267235 1 18341613741945900057
23035841 295 17989207062419376095
23081809 10 18334862675731590504
23402539 116 18410855425811089220
23522609 53 18125192439381099200
23559900 14 18114466772155212073
23569917 315 18270404889318407382
23569943 247 17340711621297792814
246663 6 17632580465686551383
3009799 131 14851604384328438397
335352 9 18187653497233791278
34797466 226 17274825775152175368
3633792 109 17095239203037952301
4325135 7 18342176652632744647
4340502 62 15051735279129855220
484989 97 18115596001331440467
5283156 175 18411700980913212317
54039377 194 18338800122267460535
5969126 39 18335135376533493629
59755656 215 18334296448549538066
59755656 520 17458060499600592971
9953998 17 14477241583614981823
9996256 80 18341333310176802330

> <PUBCHEM_SHAPE_MULTIPOLES>
461.78
24.02
2.15
0.92
4.84
0.66
0.1
-12.84
6.03
2.13
-0.13
0.39
-0.07
-1.61

> <PUBCHEM_SHAPE_SELFOVERLAP>
945.108

> <PUBCHEM_SHAPE_VOLUME>
269.5

> <PUBCHEM_COORDINATE_TYPE>
2
5
10

$$$$
