16403454
  -OEChem-01171809593D

 87 93  0     1  0  0  0  0  0999 V2000
    4.5794   -0.0489   -1.4590 O   0  0  0  0  0  0  0  0  0  0  0  0
   -0.8847   -3.4884   -1.2966 O   0  0  0  0  0  0  0  0  0  0  0  0
   -3.0157    0.0894   -0.1870 O   0  0  0  0  0  0  0  0  0  0  0  0
    0.8856   -4.4730    1.4050 O   0  0  0  0  0  0  0  0  0  0  0  0
    8.5441    1.7721    0.3031 O   0  0  0  0  0  0  0  0  0  0  0  0
   -5.1729   -0.5642   -0.8224 O   0  0  0  0  0  0  0  0  0  0  0  0
    8.6786    2.1443   -1.9640 O   0  0  0  0  0  0  0  0  0  0  0  0
   -6.9448    2.3848    1.2580 O   0  0  0  0  0  0  0  0  0  0  0  0
   -7.5280    1.3146   -0.7454 O   0  0  0  0  0  0  0  0  0  0  0  0
    3.5802    0.0974   -0.4384 C   0  0  1  0  0  0  0  0  0  0  0  0
    2.5548   -1.0590   -0.5954 C   0  0  1  0  0  0  0  0  0  0  0  0
    4.2503    0.1576    0.9614 C   0  0  1  0  0  0  0  0  0  0  0  0
    1.5131   -1.1275    0.5572 C   0  0  1  0  0  0  0  0  0  0  0  0
    0.4882   -2.3127    0.3861 C   0  0  2  0  0  0  0  0  0  0  0  0
   -0.1674   -2.2701   -1.0352 C   0  0  1  0  0  0  0  0  0  0  0  0
    4.8811    1.5859    0.9863 C   0  0  2  0  0  0  0  0  0  0  0  0
    3.1726    0.0673    2.0753 C   0  0  0  0  0  0  0  0  0  0  0  0
    2.2298   -1.1254    1.9226 C   0  0  0  0  0  0  0  0  0  0  0  0
    2.9936    1.5096   -0.6172 C   0  0  0  0  0  0  0  0  0  0  0  0
    1.8666   -1.0228   -1.9706 C   0  0  0  0  0  0  0  0  0  0  0  0
    0.8914   -2.1785   -2.1476 C   0  0  0  0  0  0  0  0  0  0  0  0
    3.8856    2.4575    0.1976 C   0  0  0  0  0  0  0  0  0  0  0  0
   -0.6240   -2.2913    1.4745 C   0  0  0  0  0  0  0  0  0  0  0  0
   -1.1809   -1.1077   -1.1627 C   0  0  0  0  0  0  0  0  0  0  0  0
    5.2939   -0.9535    1.1947 C   0  0  0  0  0  0  0  0  0  0  0  0
   -1.5906   -1.1214    1.3311 C   0  0  0  0  0  0  0  0  0  0  0  0
   -2.2320   -1.0932   -0.0516 C   0  0  1  0  0  0  0  0  0  0  0  0
    1.1966   -3.6450    0.5552 C   0  0  0  0  0  0  0  0  0  0  0  0
    6.2576    1.7094    0.3987 C   0  0  0  0  0  0  0  0  0  0  0  0
    7.4707    1.5988    1.2341 C   0  0  0  0  0  0  0  0  0  0  0  0
    6.5696    1.9236   -0.8766 C   0  0  0  0  0  0  0  0  0  0  0  0
   -4.3524   -0.1185    0.2573 C   0  0  2  0  0  0  0  0  0  0  0  0
    8.0311    1.9656   -0.9469 C   0  0  0  0  0  0  0  0  0  0  0  0
   -4.8882    1.2085    0.7734 C   0  0  0  0  0  0  0  0  0  0  0  0
   -6.3456    1.0843    1.2136 C   0  0  2  0  0  0  0  0  0  0  0  0
   -7.1987    0.3139    0.2250 C   0  0  2  0  0  0  0  0  0  0  0  0
   -6.4976   -0.8952   -0.3942 C   0  0  1  0  0  0  0  0  0  0  0  0
   -7.6726    2.5182    0.0250 C   0  0  0  0  0  0  0  0  0  0  0  0
   -7.2478   -1.4395   -1.6034 C   0  0  0  0  0  0  0  0  0  0  0  0
   -7.1236    3.6914   -0.7766 C   0  0  0  0  0  0  0  0  0  0  0  0
   -9.1469    2.7417    0.3556 C   0  0  0  0  0  0  0  0  0  0  0  0
    3.1379   -1.9897   -0.5747 H   0  0  0  0  0  0  0  0  0  0  0  0
    0.9331   -0.1979    0.5167 H   0  0  0  0  0  0  0  0  0  0  0  0
    4.9348    1.9661    2.0154 H   0  0  0  0  0  0  0  0  0  0  0  0
    2.5613    0.9782    2.1016 H   0  0  0  0  0  0  0  0  0  0  0  0
    3.6590    0.0140    3.0580 H   0  0  0  0  0  0  0  0  0  0  0  0
    1.5001   -1.0654    2.7363 H   0  0  0  0  0  0  0  0  0  0  0  0
    2.7829   -2.0590    2.0695 H   0  0  0  0  0  0  0  0  0  0  0  0
    2.9859    1.8180   -1.6689 H   0  0  0  0  0  0  0  0  0  0  0  0
    1.9672    1.5868   -0.2452 H   0  0  0  0  0  0  0  0  0  0  0  0
    1.3417   -0.0724   -2.1134 H   0  0  0  0  0  0  0  0  0  0  0  0
    2.6171   -1.0795   -2.7682 H   0  0  0  0  0  0  0  0  0  0  0  0
    1.4571   -3.1166   -2.2179 H   0  0  0  0  0  0  0  0  0  0  0  0
    0.3949   -2.0860   -3.1228 H   0  0  0  0  0  0  0  0  0  0  0  0
    3.2495    3.0060    0.9051 H   0  0  0  0  0  0  0  0  0  0  0  0
    4.3401    3.2285   -0.4333 H   0  0  0  0  0  0  0  0  0  0  0  0
   -0.2037   -2.2947    2.4858 H   0  0  0  0  0  0  0  0  0  0  0  0
   -1.2230   -3.2115    1.4114 H   0  0  0  0  0  0  0  0  0  0  0  0
   -0.6737   -0.1360   -1.1728 H   0  0  0  0  0  0  0  0  0  0  0  0
   -1.7069   -1.1741   -2.1249 H   0  0  0  0  0  0  0  0  0  0  0  0
    5.7502   -0.8577    2.1862 H   0  0  0  0  0  0  0  0  0  0  0  0
    6.0990   -0.9459    0.4541 H   0  0  0  0  0  0  0  0  0  0  0  0
    4.8404   -1.9482    1.1413 H   0  0  0  0  0  0  0  0  0  0  0  0
   -2.3649   -1.1971    2.1037 H   0  0  0  0  0  0  0  0  0  0  0  0
   -1.0819   -0.1708    1.5310 H   0  0  0  0  0  0  0  0  0  0  0  0
   -2.8642   -1.9826   -0.1840 H   0  0  0  0  0  0  0  0  0  0  0  0
    4.9091   -0.9626   -1.4352 H   0  0  0  0  0  0  0  0  0  0  0  0
    2.0287   -3.8590   -0.1339 H   0  0  0  0  0  0  0  0  0  0  0  0
   -0.2504   -4.2217   -1.3592 H   0  0  0  0  0  0  0  0  0  0  0  0
    7.5798    0.6247    1.7158 H   0  0  0  0  0  0  0  0  0  0  0  0
    7.5260    2.3903    1.9873 H   0  0  0  0  0  0  0  0  0  0  0  0
    5.9304    2.0647   -1.7303 H   0  0  0  0  0  0  0  0  0  0  0  0
   -4.3817   -0.8557    1.0709 H   0  0  0  0  0  0  0  0  0  0  0  0
   -4.7876    1.9676   -0.0114 H   0  0  0  0  0  0  0  0  0  0  0  0
   -4.2736    1.5824    1.6016 H   0  0  0  0  0  0  0  0  0  0  0  0
   -6.3889    0.6294    2.2092 H   0  0  0  0  0  0  0  0  0  0  0  0
   -8.1405   -0.0052    0.6890 H   0  0  0  0  0  0  0  0  0  0  0  0
   -6.4222   -1.6938    0.3550 H   0  0  0  0  0  0  0  0  0  0  0  0
   -6.7453   -2.3337   -1.9884 H   0  0  0  0  0  0  0  0  0  0  0  0
   -7.2611   -0.7151   -2.4249 H   0  0  0  0  0  0  0  0  0  0  0  0
   -8.2781   -1.7036   -1.3466 H   0  0  0  0  0  0  0  0  0  0  0  0
   -6.0745    3.5280   -1.0426 H   0  0  0  0  0  0  0  0  0  0  0  0
   -7.6723    3.8208   -1.7155 H   0  0  0  0  0  0  0  0  0  0  0  0
   -7.1697    4.6221   -0.2015 H   0  0  0  0  0  0  0  0  0  0  0  0
   -9.2871    3.6578    0.9392 H   0  0  0  0  0  0  0  0  0  0  0  0
   -9.7530    2.7981   -0.5547 H   0  0  0  0  0  0  0  0  0  0  0  0
   -9.5439    1.9169    0.9577 H   0  0  0  0  0  0  0  0  0  0  0  0
  1 10  1  0  0  0  0
  1 67  1  0  0  0  0
  2 15  1  0  0  0  0
  2 69  1  0  0  0  0
  3 27  1  0  0  0  0
  3 32  1  0  0  0  0
  4 28  2  0  0  0  0
  5 30  1  0  0  0  0
  5 33  1  0  0  0  0
  6 32  1  0  0  0  0
  6 37  1  0  0  0  0
  7 33  2  0  0  0  0
  8 35  1  0  0  0  0
  8 38  1  0  0  0  0
  9 36  1  0  0  0  0
  9 38  1  0  0  0  0
 10 11  1  0  0  0  0
 10 12  1  0  0  0  0
 10 19  1  0  0  0  0
 11 13  1  0  0  0  0
 11 20  1  0  0  0  0
 11 42  1  0  0  0  0
 12 16  1  0  0  0  0
 12 17  1  0  0  0  0
 12 25  1  0  0  0  0
 13 14  1  0  0  0  0
 13 18  1  0  0  0  0
 13 43  1  0  0  0  0
 14 15  1  0  0  0  0
 14 23  1  0  0  0  0
 14 28  1  0  0  0  0
 15 21  1  0  0  0  0
 15 24  1  0  0  0  0
 16 22  1  0  0  0  0
 16 29  1  0  0  0  0
 16 44  1  0  0  0  0
 17 18  1  0  0  0  0
 17 45  1  0  0  0  0
 17 46  1  0  0  0  0
 18 47  1  0  0  0  0
 18 48  1  0  0  0  0
 19 22  1  0  0  0  0
 19 49  1  0  0  0  0
 19 50  1  0  0  0  0
 20 21  1  0  0  0  0
 20 51  1  0  0  0  0
 20 52  1  0  0  0  0
 21 53  1  0  0  0  0
 21 54  1  0  0  0  0
 22 55  1  0  0  0  0
 22 56  1  0  0  0  0
 23 26  1  0  0  0  0
 23 57  1  0  0  0  0
 23 58  1  0  0  0  0
 24 27  1  0  0  0  0
 24 59  1  0  0  0  0
 24 60  1  0  0  0  0
 25 61  1  0  0  0  0
 25 62  1  0  0  0  0
 25 63  1  0  0  0  0
 26 27  1  0  0  0  0
 26 64  1  0  0  0  0
 26 65  1  0  0  0  0
 27 66  1  0  0  0  0
 28 68  1  0  0  0  0
 29 30  1  0  0  0  0
 29 31  2  0  0  0  0
 30 70  1  0  0  0  0
 30 71  1  0  0  0  0
 31 33  1  0  0  0  0
 31 72  1  0  0  0  0
 32 34  1  0  0  0  0
 32 73  1  0  0  0  0
 34 35  1  0  0  0  0
 34 74  1  0  0  0  0
 34 75  1  0  0  0  0
 35 36  1  0  0  0  0
 35 76  1  0  0  0  0
 36 37  1  0  0  0  0
 36 77  1  0  0  0  0
 37 39  1  0  0  0  0
 37 78  1  0  0  0  0
 38 40  1  0  0  0  0
 38 41  1  0  0  0  0
 39 79  1  0  0  0  0
 39 80  1  0  0  0  0
 39 81  1  0  0  0  0
 40 82  1  0  0  0  0
 40 83  1  0  0  0  0
 40 84  1  0  0  0  0
 41 85  1  0  0  0  0
 41 86  1  0  0  0  0
 41 87  1  0  0  0  0
M  END
> <PUBCHEM_COMPOUND_CID>
16403454

> <PUBCHEM_CONFORMER_RMSD>
1

> <PUBCHEM_CONFORMER_DIVERSEORDER>
6
39
115
71
102
75
61
33
62
52
79
100
27
109
17
97
77
113
45
108
76
28
51
96
90
16
50
103
93
116
84
55
89
49
31
73
83
72
46
92
70
63
40
65
81
58
78
5
74
105
14
59
57
32
95
35
24
88
91
47
114
86
41
18
30
80
10
67
112
98
23
110
12
53
104
43
106
60
111
94
42
56
26
25
107
20
54
29
68
8
69
15
85
7
48
44
9
2
22
21
36
1
66
82
101
99
34
87
19
11
38
3
13
4
37
64

> <PUBCHEM_MMFF94_PARTIAL_CHARGES>
28
1 -0.68
10 0.28
14 0.06
15 0.28
16 0.14
2 -0.68
27 0.28
28 0.45
29 -0.28
3 -0.56
30 0.42
31 -0.14
32 0.56
33 0.71
35 0.28
36 0.28
37 0.28
38 0.56
4 -0.57
5 -0.43
6 -0.56
67 0.4
68 0.06
69 0.4
7 -0.57
72 0.15
8 -0.56
9 -0.56

> <PUBCHEM_EFFECTIVE_ROTOR_COUNT>
8

> <PUBCHEM_PHARMACOPHORE_FEATURES>
18
1 1 acceptor
1 1 donor
1 2 acceptor
1 2 donor
1 3 acceptor
1 4 acceptor
1 6 acceptor
1 7 acceptor
1 8 acceptor
1 9 acceptor
3 38 40 41 hydrophobe
5 10 12 16 19 22 rings
5 5 29 30 31 33 rings
5 8 9 35 36 38 rings
6 10 11 12 13 17 18 rings
6 11 13 14 15 20 21 rings
6 14 15 23 24 26 27 rings
6 6 32 34 35 36 37 rings

> <PUBCHEM_HEAVY_ATOM_COUNT>
41

> <PUBCHEM_ATOM_DEF_STEREO_COUNT>
9

> <PUBCHEM_ATOM_UDEF_STEREO_COUNT>
3

> <PUBCHEM_BOND_DEF_STEREO_COUNT>
0

> <PUBCHEM_BOND_UDEF_STEREO_COUNT>
0

> <PUBCHEM_ISOTOPIC_ATOM_COUNT>
0

> <PUBCHEM_COMPONENT_COUNT>
1

> <PUBCHEM_CACTVS_TAUTO_COUNT>
1

> <PUBCHEM_CONFORMER_ID>
00FA4BFE00000006

> <PUBCHEM_MMFF94_ENERGY>
139.3336

> <PUBCHEM_FEATURE_SELFOVERLAP>
91.902

> <PUBCHEM_SHAPE_FINGERPRINT>
10 15 16153701055497587804
10190206 1 17346328093557075537
10280341 67 18201423796848216888
10674148 151 18343300414569416560
11409948 41 15482125869171681180
11621639 336 18267585702480734552
1200032 147 18343303656488827894
12013929 112 18270415949216624740
12047536 79 17169537516222296509
12133447 93 18343311357450248780
12522641 68 18272933842870329687
12539765 74 18412266108073058078
12660671 118 18126287441851889630
12758862 65 11891340829039495028
13150687 139 17846789502879385526
13248334 5 18120936109621534419
13512321 179 17895485816486716772
13782708 43 9439106664634618625
14294032 229 18341321267178130157
14359421 15 12175627248234613725
14394314 77 18409449176927022505
14395042 70 18188767237223199474
14931854 50 16630531725849415440
15064981 194 18046067326580966078
15183329 4 13973966502303632993
15198563 99 17627776845836563879
15289351 153 17846219917470828544
15350500 55 18408039589828869453
15510800 12 9295281755311835869
1577012 14 18411695487307259945
15840311 113 18114184117000874310
16989713 51 17274244198173642343
16992610 120 18335712671893364084
16994733 274 18343861121863782347
19303781 99 8574420994671921785
20105231 36 14189293816469778231
20505436 4 18335977649389812626
20691028 202 18263924522117813568
21033648 29 17749399160521319051
21057603 130 9583523135522557340
21298829 104 18408603669221487429
21585482 111 18336543824969298053
21792965 68 18408610279255082928
23522609 53 17169561925075048748
23576562 1 17914327128753307181
23729398 52 18191870012030467658
24771293 8 18334012796514759389
25269216 80 17202751714314740869
2747138 104 12757138092167094396
3918712 181 18272366456220764673
4073 2 18335422353542678179
4112364 45 18262794064738655531
4169191 19 18333724711715203293
4353968 344 15912784803947112348
439807 62 9799687113085636513
4461854 278 14057004931864333624
4516262 110 18335696110277852871
45266715 3 15697736869515311492
5080951 261 16371010746300435003
508180 173 17845936350433550176
5109719 28 18336842956893685681
5219985 9 9943534015776192058
54039377 194 9655580712312525296
57303763 176 18129389203172223496
5937810 71 17632305545331536889
6691757 9 16805603720299704539
9896288 288 17897452915497472466
9962374 69 11963690940678484561

> <PUBCHEM_SHAPE_MULTIPOLES>
790.94
26.47
4.09
1.79
20.35
1.24
-0.16
-32.57
-2.58
1.78
-0.05
-1.4
0.62
-1.81

> <PUBCHEM_SHAPE_SELFOVERLAP>
1718.539

> <PUBCHEM_SHAPE_VOLUME>
427.7

> <PUBCHEM_COORDINATE_TYPE>
2
5
10

$$$$
