6461024
  -OEChem-01171809573D

 39 41  0     0  0  0  0  0  0999 V2000
   -0.1354   -0.4557   -0.3905 O   0  0  0  0  0  0  0  0  0  0  0  0
    6.2326    0.3937   -1.5109 O   0  0  0  0  0  0  0  0  0  0  0  0
    5.2843    0.1278    0.6314 N   0  0  0  0  0  0  0  0  0  0  0  0
   -3.3070    0.2167    0.1673 C   0  0  0  0  0  0  0  0  0  0  0  0
   -2.4085   -0.8509    0.3267 C   0  0  0  0  0  0  0  0  0  0  0  0
   -4.6405   -0.0535   -0.2221 C   0  0  0  0  0  0  0  0  0  0  0  0
   -0.9842   -0.6354    0.7364 C   0  0  0  0  0  0  0  0  0  0  0  0
   -2.8189   -2.1659    0.1057 C   0  0  0  0  0  0  0  0  0  0  0  0
   -2.9113    1.5465    0.3855 C   0  0  0  0  0  0  0  0  0  0  0  0
   -5.0363   -1.3832   -0.4407 C   0  0  0  0  0  0  0  0  0  0  0  0
   -5.5391    1.0139   -0.3817 C   0  0  0  0  0  0  0  0  0  0  0  0
   -4.1302   -2.4316   -0.2775 C   0  0  0  0  0  0  0  0  0  0  0  0
   -3.8175    2.5947    0.2225 C   0  0  0  0  0  0  0  0  0  0  0  0
    1.2035   -0.3114   -0.1381 C   0  0  0  0  0  0  0  0  0  0  0  0
   -5.1290    2.3289   -0.1604 C   0  0  0  0  0  0  0  0  0  0  0  0
    2.0878   -0.1321   -1.1958 C   0  0  0  0  0  0  0  0  0  0  0  0
    1.6643   -0.3465    1.1732 C   0  0  0  0  0  0  0  0  0  0  0  0
    3.9212   -0.0193    0.3741 C   0  0  0  0  0  0  0  0  0  0  0  0
    3.4511    0.0145   -0.9389 C   0  0  0  0  0  0  0  0  0  0  0  0
    3.0276   -0.2002    1.4300 C   0  0  0  0  0  0  0  0  0  0  0  0
    6.3232    0.3171   -0.2899 C   0  0  0  0  0  0  0  0  0  0  0  0
    7.6627    0.4320    0.3936 C   0  0  0  0  0  0  0  0  0  0  0  0
   -0.9095    0.2001    1.4414 H   0  0  0  0  0  0  0  0  0  0  0  0
   -0.6734   -1.5351    1.2881 H   0  0  0  0  0  0  0  0  0  0  0  0
   -2.1268   -2.9958    0.2234 H   0  0  0  0  0  0  0  0  0  0  0  0
   -1.8987    1.8198    0.6651 H   0  0  0  0  0  0  0  0  0  0  0  0
   -6.0562   -1.6143   -0.7410 H   0  0  0  0  0  0  0  0  0  0  0  0
   -6.5689    0.8296   -0.6808 H   0  0  0  0  0  0  0  0  0  0  0  0
   -4.4489   -3.4553   -0.4508 H   0  0  0  0  0  0  0  0  0  0  0  0
   -3.4983    3.6193    0.3896 H   0  0  0  0  0  0  0  0  0  0  0  0
   -5.8337    3.1455   -0.2884 H   0  0  0  0  0  0  0  0  0  0  0  0
    1.7245   -0.1053   -2.2193 H   0  0  0  0  0  0  0  0  0  0  0  0
    1.0340   -0.4817    2.0446 H   0  0  0  0  0  0  0  0  0  0  0  0
    4.0805    0.1500   -1.8073 H   0  0  0  0  0  0  0  0  0  0  0  0
    3.3810   -0.2282    2.4578 H   0  0  0  0  0  0  0  0  0  0  0  0
    5.5471    0.0916    1.6142 H   0  0  0  0  0  0  0  0  0  0  0  0
    7.6661    1.3028    1.0552 H   0  0  0  0  0  0  0  0  0  0  0  0
    8.4517    0.5503   -0.3543 H   0  0  0  0  0  0  0  0  0  0  0  0
    7.8605   -0.4715    0.9772 H   0  0  0  0  0  0  0  0  0  0  0  0
  1  7  1  0  0  0  0
  1 14  1  0  0  0  0
  2 21  2  0  0  0  0
  3 18  1  0  0  0  0
  3 21  1  0  0  0  0
  3 36  1  0  0  0  0
  4  5  1  0  0  0  0
  4  6  1  0  0  0  0
  4  9  2  0  0  0  0
  5  7  1  0  0  0  0
  5  8  2  0  0  0  0
  6 10  1  0  0  0  0
  6 11  2  0  0  0  0
  7 23  1  0  0  0  0
  7 24  1  0  0  0  0
  8 12  1  0  0  0  0
  8 25  1  0  0  0  0
  9 13  1  0  0  0  0
  9 26  1  0  0  0  0
 10 12  2  0  0  0  0
 10 27  1  0  0  0  0
 11 15  1  0  0  0  0
 11 28  1  0  0  0  0
 12 29  1  0  0  0  0
 13 15  2  0  0  0  0
 13 30  1  0  0  0  0
 14 16  2  0  0  0  0
 14 17  1  0  0  0  0
 15 31  1  0  0  0  0
 16 19  1  0  0  0  0
 16 32  1  0  0  0  0
 17 20  2  0  0  0  0
 17 33  1  0  0  0  0
 18 19  2  0  0  0  0
 18 20  1  0  0  0  0
 19 34  1  0  0  0  0
 20 35  1  0  0  0  0
 21 22  1  0  0  0  0
 22 37  1  0  0  0  0
 22 38  1  0  0  0  0
 22 39  1  0  0  0  0
M  END
> <PUBCHEM_COMPOUND_CID>
6461024

> <PUBCHEM_CONFORMER_RMSD>
0.8

> <PUBCHEM_CONFORMER_DIVERSEORDER>
2
36
31
23
6
24
16
38
42
9
47
35
8
20
26
10
30
51
22
33
27
28
1
17
12
25
19
14
45
41
5
21
18
11
32
4
44
46
13
15
43
7
49
37
48
34
29
39
50
40
3

> <PUBCHEM_MMFF94_PARTIAL_CHARGES>
32
1 -0.36
10 -0.15
11 -0.15
12 -0.15
13 -0.15
14 0.08
15 -0.15
16 -0.15
17 -0.15
18 0.12
19 -0.15
2 -0.57
20 -0.15
21 0.57
22 0.06
25 0.15
26 0.15
27 0.15
28 0.15
29 0.15
3 -0.55
30 0.15
31 0.15
32 0.15
33 0.15
34 0.15
35 0.15
36 0.37
5 -0.14
7 0.42
8 -0.15
9 -0.15

> <PUBCHEM_EFFECTIVE_ROTOR_COUNT>
5

> <PUBCHEM_PHARMACOPHORE_FEATURES>
6
1 1 acceptor
1 2 acceptor
1 3 donor
6 14 16 17 18 19 20 rings
6 4 5 6 8 10 12 rings
6 4 6 9 11 13 15 rings

> <PUBCHEM_HEAVY_ATOM_COUNT>
22

> <PUBCHEM_ATOM_DEF_STEREO_COUNT>
0

> <PUBCHEM_ATOM_UDEF_STEREO_COUNT>
0

> <PUBCHEM_BOND_DEF_STEREO_COUNT>
0

> <PUBCHEM_BOND_UDEF_STEREO_COUNT>
0

> <PUBCHEM_ISOTOPIC_ATOM_COUNT>
0

> <PUBCHEM_COMPONENT_COUNT>
1

> <PUBCHEM_CACTVS_TAUTO_COUNT>
2

> <PUBCHEM_CONFORMER_ID>
0062966000000002

> <PUBCHEM_MMFF94_ENERGY>
77.5718

> <PUBCHEM_FEATURE_SELFOVERLAP>
30.472

> <PUBCHEM_SHAPE_FINGERPRINT>
10087517 78 18261109660159188388
10291535 26 17774730775123423225
10411042 1 18050566546238824359
10595046 47 18334575789132854058
10730089 173 18410011026977548881
10906281 52 17240779380238731350
11089746 13 18040716991615589396
11315181 36 18040434433821686991
11991303 11 16916784158404055252
12091667 2 18335422391242198658
12107183 9 17758386388225359970
12236239 1 17894346674725395898
12390115 104 18058456396781823865
12403259 415 17775278391489475674
12616971 3 16877951542056369198
13583140 156 17774999102656704991
13590594 115 16805602564594942596
13631057 29 17386853983797909699
13668630 136 15339117948505673932
13885169 127 18411698773595570714
14849402 71 17604721104914416876
15183329 4 18410860924139127522
16988056 13 15307858429592389205
17844677 252 18341335595247246488
17980427 23 18113344127806576421
18927931 339 18341895238302950087
19489759 90 18412263947498097499
20281389 69 18333730196035077136
20511986 3 17895178996432581673
20567600 75 17918000464537696958
20645477 56 18413108334401082985
20645477 70 16486699069381063446
21033648 29 17489293196638416714
21033650 10 18192737590753576348
21065198 48 18187638085572419402
21150785 3 12535340221709018880
21267235 1 18338236085291492539
21709351 56 17846211193738044692
21792961 116 17632303354855451830
22061861 79 16988567883751957068
2297311 6 18271809059933733203
23081809 10 17894912949658665890
23402539 116 18408600378980691582
23536379 177 18408885131787705730
23557571 272 18201721760425207817
23559900 14 18202279208208953491
23569943 247 16662030445364170914
300161 21 18186516592449494298
328310 630 17168155580366617532
34797466 226 17988091096703466900
3545911 37 18272370862893321227
4073 2 18186807993697526410
441001 317 18412262831038702681
445580 37 18410020935599015196
531348 171 18202001001808597343
542803 24 17967813855523366402
5758199 1 17458345260965061512
6327066 14 18116988880948594869
6328613 192 18113624521195800780
67856867 119 18189619504494717780
9981440 41 18335424547975697283

> <PUBCHEM_SHAPE_MULTIPOLES>
436.03
17.69
2.03
1.05
24.81
0.28
-0.02
4.46
-2.14
-5.13
-0.01
1.2
-0.03
-0.33

> <PUBCHEM_SHAPE_SELFOVERLAP>
951.33

> <PUBCHEM_SHAPE_VOLUME>
237.1

> <PUBCHEM_COORDINATE_TYPE>
2
5
10

$$$$
