2522066
  -OEChem-01171809383D

 43 44  0     0  0  0  0  0  0999 V2000
    1.8125    0.2738   -0.0196 O   0  0  0  0  0  0  0  0  0  0  0  0
   -0.2384   -1.4070   -0.0074 O   0  0  0  0  0  0  0  0  0  0  0  0
    2.7864    2.3739    0.0019 O   0  0  0  0  0  0  0  0  0  0  0  0
    3.3383   -1.5273    1.0415 O   0  0  0  0  0  0  0  0  0  0  0  0
   -4.1551    0.0323    0.2950 N   0  0  0  0  0  0  0  0  0  0  0  0
    5.5229   -1.5324    0.3029 N   0  0  0  0  0  0  0  0  0  0  0  0
   -3.0072   -0.7090    0.1918 C   0  0  0  0  0  0  0  0  0  0  0  0
   -5.4970   -0.5087    0.3496 C   0  0  0  0  0  0  0  0  0  0  0  0
   -3.8386    1.3650    0.3392 C   0  0  0  0  0  0  0  0  0  0  0  0
   -1.9781    0.1738    0.1718 C   0  0  0  0  0  0  0  0  0  0  0  0
   -2.4679    1.4760    0.2622 C   0  0  0  0  0  0  0  0  0  0  0  0
   -6.1137   -0.6565   -1.0395 C   0  0  0  0  0  0  0  0  0  0  0  0
   -3.0340   -2.1864    0.1238 C   0  0  0  0  0  0  0  0  0  0  0  0
   -4.8687    2.4183    0.4508 C   0  0  0  0  0  0  0  0  0  0  0  0
   -0.5631   -0.2210    0.0684 C   0  0  0  0  0  0  0  0  0  0  0  0
   -7.5252   -1.2145   -0.9620 C   0  0  0  0  0  0  0  0  0  0  0  0
    0.5081    0.8586    0.0547 C   0  0  0  0  0  0  0  0  0  0  0  0
    2.8445    1.1549   -0.0376 C   0  0  0  0  0  0  0  0  0  0  0  0
    4.1006    0.4049   -0.1157 C   0  0  0  0  0  0  0  0  0  0  0  0
    4.2670   -0.9659    0.4653 C   0  0  0  0  0  0  0  0  0  0  0  0
    5.1368    0.9877   -0.7388 C   0  0  0  0  0  0  0  0  0  0  0  0
    6.4088    0.3164   -0.8579 C   0  0  0  0  0  0  0  0  0  0  0  0
    6.5612   -0.9070   -0.3403 C   0  0  0  0  0  0  0  0  0  0  0  0
   -5.4731   -1.4636    0.8850 H   0  0  0  0  0  0  0  0  0  0  0  0
   -6.1089    0.1562    0.9693 H   0  0  0  0  0  0  0  0  0  0  0  0
   -1.9143    2.4049    0.2726 H   0  0  0  0  0  0  0  0  0  0  0  0
   -5.4990   -1.3196   -1.6596 H   0  0  0  0  0  0  0  0  0  0  0  0
   -6.1389    0.3124   -1.5513 H   0  0  0  0  0  0  0  0  0  0  0  0
   -2.7844   -2.6146    1.1000 H   0  0  0  0  0  0  0  0  0  0  0  0
   -3.9968   -2.5977   -0.1884 H   0  0  0  0  0  0  0  0  0  0  0  0
   -2.3112   -2.5595   -0.6085 H   0  0  0  0  0  0  0  0  0  0  0  0
   -5.6062    2.3458   -0.3541 H   0  0  0  0  0  0  0  0  0  0  0  0
   -4.4142    3.4129    0.3865 H   0  0  0  0  0  0  0  0  0  0  0  0
   -5.3881    2.3582    1.4125 H   0  0  0  0  0  0  0  0  0  0  0  0
   -7.5307   -2.2027   -0.4912 H   0  0  0  0  0  0  0  0  0  0  0  0
   -8.1770   -0.5532   -0.3821 H   0  0  0  0  0  0  0  0  0  0  0  0
   -7.9493   -1.3143   -1.9660 H   0  0  0  0  0  0  0  0  0  0  0  0
    0.3492    1.4965   -0.8217 H   0  0  0  0  0  0  0  0  0  0  0  0
    0.4296    1.4407    0.9795 H   0  0  0  0  0  0  0  0  0  0  0  0
    5.0677    1.9766   -1.1811 H   0  0  0  0  0  0  0  0  0  0  0  0
    5.6934   -2.4613    0.6771 H   0  0  0  0  0  0  0  0  0  0  0  0
    7.2206    0.8207   -1.3684 H   0  0  0  0  0  0  0  0  0  0  0  0
    7.4904   -1.4591   -0.3987 H   0  0  0  0  0  0  0  0  0  0  0  0
  1 17  1  0  0  0  0
  1 18  1  0  0  0  0
  2 15  2  0  0  0  0
  3 18  2  0  0  0  0
  4 20  2  0  0  0  0
  5  7  1  0  0  0  0
  5  8  1  0  0  0  0
  5  9  1  0  0  0  0
  6 20  1  0  0  0  0
  6 23  1  0  0  0  0
  6 41  1  0  0  0  0
  7 10  2  0  0  0  0
  7 13  1  0  0  0  0
  8 12  1  0  0  0  0
  8 24  1  0  0  0  0
  8 25  1  0  0  0  0
  9 11  2  0  0  0  0
  9 14  1  0  0  0  0
 10 11  1  0  0  0  0
 10 15  1  0  0  0  0
 11 26  1  0  0  0  0
 12 16  1  0  0  0  0
 12 27  1  0  0  0  0
 12 28  1  0  0  0  0
 13 29  1  0  0  0  0
 13 30  1  0  0  0  0
 13 31  1  0  0  0  0
 14 32  1  0  0  0  0
 14 33  1  0  0  0  0
 14 34  1  0  0  0  0
 15 17  1  0  0  0  0
 16 35  1  0  0  0  0
 16 36  1  0  0  0  0
 16 37  1  0  0  0  0
 17 38  1  0  0  0  0
 17 39  1  0  0  0  0
 18 19  1  0  0  0  0
 19 20  1  0  0  0  0
 19 21  2  0  0  0  0
 21 22  1  0  0  0  0
 21 40  1  0  0  0  0
 22 23  2  0  0  0  0
 22 42  1  0  0  0  0
 23 43  1  0  0  0  0
M  END
> <PUBCHEM_COMPOUND_CID>
2522066

> <PUBCHEM_CONFORMER_RMSD>
1.2

> <PUBCHEM_CONFORMER_DIVERSEORDER>
1
64
69
109
83
105
2
100
84
90
80
79
29
70
4
55
108
33
97
53
20
75
91
40
65
45
82
117
6
60
14
85
49
41
51
66
34
24
111
95
17
73
74
52
72
42
71
114
56
25
8
88
62
15
44
76
107
22
47
19
28
86
58
98
27
113
11
92
115
12
81
37
106
103
77
67
87
119
21
94
118
78
43
101
110
26
38
104
16
96
35
18
102
93
39
116
46
68
10
120
9
23
63
59
89
7
31
57
112
54
5
13
48
50
32
3
99
36
61
30

> <PUBCHEM_MMFF94_PARTIAL_CHARGES>
26
1 -0.43
10 -0.09
11 -0.15
13 0.18
14 0.18
15 0.6
17 0.34
18 0.71
19 0.03
2 -0.57
20 0.62
21 -0.15
22 -0.15
23 -0.04
26 0.15
3 -0.57
4 -0.57
40 0.15
41 0.37
42 0.15
43 0.15
5 0.05
6 -0.54
7 -0.33
8 0.26
9 -0.33

> <PUBCHEM_EFFECTIVE_ROTOR_COUNT>
7

> <PUBCHEM_PHARMACOPHORE_FEATURES>
9
1 16 hydrophobe
1 19 anion
1 2 acceptor
1 3 acceptor
1 4 acceptor
1 5 cation
1 6 donor
5 5 7 9 10 11 rings
6 6 19 20 21 22 23 rings

> <PUBCHEM_HEAVY_ATOM_COUNT>
23

> <PUBCHEM_ATOM_DEF_STEREO_COUNT>
0

> <PUBCHEM_ATOM_UDEF_STEREO_COUNT>
0

> <PUBCHEM_BOND_DEF_STEREO_COUNT>
0

> <PUBCHEM_BOND_UDEF_STEREO_COUNT>
0

> <PUBCHEM_ISOTOPIC_ATOM_COUNT>
0

> <PUBCHEM_COMPONENT_COUNT>
1

> <PUBCHEM_CACTVS_TAUTO_COUNT>
6

> <PUBCHEM_CONFORMER_ID>
00267BD200000001

> <PUBCHEM_MMFF94_ENERGY>
40.1589

> <PUBCHEM_FEATURE_SELFOVERLAP>
45.67

> <PUBCHEM_SHAPE_FINGERPRINT>
10595046 47 18409450267420642176
11315181 36 18113905987223496993
11524674 6 15697999665494563959
12107183 9 17686899415184455088
12166972 35 18202002152722682729
12236239 1 18408889508074459264
12516196 113 18060418010960657880
12616971 3 12391506499207542977
13167823 11 18408887360363996898
13288520 33 18344146999524869141
13533116 47 18334851706153066563
13668630 136 17489594467129976542
13862211 1 18343863333919528831
13914758 101 17967807220495356477
14251764 18 18408887334831504892
15183329 4 18334295353295311194
15196674 1 18409169913746549594
15250474 111 18334847312486334690
1577012 14 18336548230966777537
17834072 33 18407763642674911552
17844677 252 18412553123515187512
17857418 61 18410008844854581034
18681886 176 18272927237315135672
19489759 90 17418095386502657921
21065198 48 18334575702821837419
21150785 3 17458060482652175951
21236236 1 18413108343139028801
21267235 1 18411143554261418419
221357 26 18334010597138107988
2215653 11 18259983790342970514
23081809 10 18335986389220361576
23402539 116 18272649026556176965
23522609 53 18124065440099681088
23559900 14 18266174109716964377
3004659 81 18334018264313665974
335352 9 18411417328815422181
34797466 226 17418379129628392856
3545911 37 18261111898121316739
3633792 109 17822003208318192287
4073 2 17895765109793334450
4214541 1 18410295800162205665
4325135 7 18202845453056568159
4340502 62 13470692550769514508
5104073 3 18408886252568448920
559249 180 18341048528011879289
59755656 215 18261110768228887606
59755656 520 17968088764149891247
9996256 80 18342458136463075359

> <PUBCHEM_SHAPE_MULTIPOLES>
439.89
19.16
2.06
0.83
1.77
0.46
-0.09
-4.34
-4.51
-1.11
0.22
-0.17
-0.11
-1.38

> <PUBCHEM_SHAPE_SELFOVERLAP>
928.176

> <PUBCHEM_SHAPE_VOLUME>
247.7

> <PUBCHEM_COORDINATE_TYPE>
2
5
10

$$$$
