16195138
  -OEChem-01171809473D

 38 40  0     0  0  0  0  0  0999 V2000
    0.9914    0.9331   -0.1855 S   0  0  0  0  0  0  0  0  0  0  0  0
   -2.8459   -3.1961    0.1644 S   0  0  0  0  0  0  0  0  0  0  0  0
    5.5959   -2.1191    0.6728 F   0  0  0  0  0  0  0  0  0  0  0  0
   -3.2057    1.6764   -1.2729 O   0  0  0  0  0  0  0  0  0  0  0  0
    0.2145    4.1492    1.2519 O   0  0  0  0  0  0  0  0  0  0  0  0
    1.8260    4.0124   -0.4045 O   0  0  0  0  0  0  0  0  0  0  0  0
   -1.4823    0.1094   -1.0124 N   0  0  0  0  0  0  0  0  0  0  0  0
    0.2869   -1.4763   -0.7453 N   0  0  0  0  0  0  0  0  0  0  0  0
   -2.3788   -0.9731   -1.4302 C   0  0  0  0  0  0  0  0  0  0  0  0
   -3.0687   -1.5445   -0.2293 C   0  0  0  0  0  0  0  0  0  0  0  0
   -0.1635   -0.2644   -0.6922 C   0  0  0  0  0  0  0  0  0  0  0  0
   -2.0407    1.4003   -0.9784 C   0  0  0  0  0  0  0  0  0  0  0  0
   -1.1680    2.5216   -0.5586 C   0  0  0  0  0  0  0  0  0  0  0  0
    0.1105    2.3882   -0.2144 C   0  0  0  0  0  0  0  0  0  0  0  0
   -3.9061   -0.9093    0.6614 C   0  0  0  0  0  0  0  0  0  0  0  0
    1.6339   -1.6392   -0.3854 C   0  0  0  0  0  0  0  0  0  0  0  0
   -4.3706   -1.7901    1.6803 C   0  0  0  0  0  0  0  0  0  0  0  0
   -3.8707   -3.0649    1.5298 C   0  0  0  0  0  0  0  0  0  0  0  0
    0.8340    3.6020    0.1759 C   0  0  0  0  0  0  0  0  0  0  0  0
    1.9752   -1.8922    0.9432 C   0  0  0  0  0  0  0  0  0  0  0  0
    2.6310   -1.5478   -1.3566 C   0  0  0  0  0  0  0  0  0  0  0  0
    3.3136   -2.0541    1.3007 C   0  0  0  0  0  0  0  0  0  0  0  0
    3.9696   -1.7098   -0.9990 C   0  0  0  0  0  0  0  0  0  0  0  0
    4.3108   -1.9627    0.3298 C   0  0  0  0  0  0  0  0  0  0  0  0
    0.8077    5.3510    1.7543 C   0  0  0  0  0  0  0  0  0  0  0  0
   -1.8169   -1.7347   -1.9827 H   0  0  0  0  0  0  0  0  0  0  0  0
   -3.1351   -0.5838   -2.1226 H   0  0  0  0  0  0  0  0  0  0  0  0
   -1.6474    3.4979   -0.5548 H   0  0  0  0  0  0  0  0  0  0  0  0
   -4.1874    0.1330    0.5980 H   0  0  0  0  0  0  0  0  0  0  0  0
   -5.0385   -1.5038    2.4823 H   0  0  0  0  0  0  0  0  0  0  0  0
   -4.0585   -3.9255    2.1562 H   0  0  0  0  0  0  0  0  0  0  0  0
    1.2056   -1.9698    1.7071 H   0  0  0  0  0  0  0  0  0  0  0  0
    2.3760   -1.3553   -2.3956 H   0  0  0  0  0  0  0  0  0  0  0  0
    3.5795   -2.2522    2.3348 H   0  0  0  0  0  0  0  0  0  0  0  0
    4.7463   -1.6399   -1.7549 H   0  0  0  0  0  0  0  0  0  0  0  0
    1.8332    5.1581    2.0835 H   0  0  0  0  0  0  0  0  0  0  0  0
    0.7879    6.1318    0.9881 H   0  0  0  0  0  0  0  0  0  0  0  0
    0.2204    5.6868    2.6131 H   0  0  0  0  0  0  0  0  0  0  0  0
  1 11  1  0  0  0  0
  1 14  1  0  0  0  0
  2 10  1  0  0  0  0
  2 18  1  0  0  0  0
  3 24  1  0  0  0  0
  4 12  2  0  0  0  0
  5 19  1  0  0  0  0
  5 25  1  0  0  0  0
  6 19  2  0  0  0  0
  7  9  1  0  0  0  0
  7 11  1  0  0  0  0
  7 12  1  0  0  0  0
  8 11  2  0  0  0  0
  8 16  1  0  0  0  0
  9 10  1  0  0  0  0
  9 26  1  0  0  0  0
  9 27  1  0  0  0  0
 10 15  2  0  0  0  0
 12 13  1  0  0  0  0
 13 14  2  0  0  0  0
 13 28  1  0  0  0  0
 14 19  1  0  0  0  0
 15 17  1  0  0  0  0
 15 29  1  0  0  0  0
 16 20  2  0  0  0  0
 16 21  1  0  0  0  0
 17 18  2  0  0  0  0
 17 30  1  0  0  0  0
 18 31  1  0  0  0  0
 20 22  1  0  0  0  0
 20 32  1  0  0  0  0
 21 23  2  0  0  0  0
 21 33  1  0  0  0  0
 22 24  2  0  0  0  0
 22 34  1  0  0  0  0
 23 24  1  0  0  0  0
 23 35  1  0  0  0  0
 25 36  1  0  0  0  0
 25 37  1  0  0  0  0
 25 38  1  0  0  0  0
M  END
> <PUBCHEM_COMPOUND_CID>
16195138

> <PUBCHEM_CONFORMER_RMSD>
0.8

> <PUBCHEM_CONFORMER_DIVERSEORDER>
1
27
30
21
18
13
28
23
26
17
8
29
19
32
22
15
31
20
6
24
25
4
14
7
16
5
10
3
2
12
9
11

> <PUBCHEM_MMFF94_PARTIAL_CHARGES>
33
1 -0.24
10 -0.14
11 0.65
12 0.62
13 -0.14
14 0.12
15 -0.15
16 0.18
17 -0.15
18 -0.11
19 0.71
2 -0.08
20 -0.15
21 -0.15
22 -0.15
23 -0.15
24 0.19
25 0.28
28 0.15
29 0.15
3 -0.19
30 0.15
31 0.15
32 0.15
33 0.15
34 0.15
35 0.15
4 -0.57
5 -0.43
6 -0.57
7 -0.42
8 -0.63
9 0.48

> <PUBCHEM_EFFECTIVE_ROTOR_COUNT>
5

> <PUBCHEM_PHARMACOPHORE_FEATURES>
5
1 4 acceptor
1 6 acceptor
5 2 10 15 17 18 rings
6 1 7 11 12 13 14 rings
6 16 20 21 22 23 24 rings

> <PUBCHEM_HEAVY_ATOM_COUNT>
25

> <PUBCHEM_ATOM_DEF_STEREO_COUNT>
0

> <PUBCHEM_ATOM_UDEF_STEREO_COUNT>
0

> <PUBCHEM_BOND_DEF_STEREO_COUNT>
0

> <PUBCHEM_BOND_UDEF_STEREO_COUNT>
0

> <PUBCHEM_ISOTOPIC_ATOM_COUNT>
0

> <PUBCHEM_COMPONENT_COUNT>
1

> <PUBCHEM_CACTVS_TAUTO_COUNT>
1

> <PUBCHEM_CONFORMER_ID>
00F71E4200000001

> <PUBCHEM_MMFF94_ENERGY>
76.1864

> <PUBCHEM_FEATURE_SELFOVERLAP>
25.373

> <PUBCHEM_SHAPE_FINGERPRINT>
10074138 170 17977935792307606536
10382601 240 17979370968509171863
10906281 52 18126849283444961333
1100329 8 18337111146940385509
11036077 51 17543625327502311738
11578080 2 17604415401535767311
12160290 23 17978787904844056941
12293681 160 17760900988846365685
12549972 3 18041270072050506755
12553582 1 18408889537950099463
12633257 1 18267888141534844403
12788726 201 17907280075389344537
12839892 36 17038384861510612059
13009979 54 18116159874824175582
13140716 1 18339923714695060136
13149001 5 18118375433429341933
133893 2 17982711258938113935
13533116 47 18048889773652465347
14363568 33 18196369441138208584
14787075 74 18042698376025201358
14844126 61 18189886539601780659
14863182 85 17323247386195764935
14955137 171 18270689800030486344
15420108 30 17697044991115685631
15475509 84 18268453307696918841
15775530 1 18262785389511327341
19591789 44 17688871260402974228
20028762 73 16538214865556012759
20101258 96 18340769247958655386
20510252 161 17693926406640042140
20600515 1 18264504888067908885
21041028 32 18412270523003279005
21731228 192 17186160310656802105
21796203 349 18121531126027043458
22440779 20 17119508620140665126
22956985 138 17899127497549614226
23557571 272 18267861684251568158
23559900 14 17822851009013906935
23845131 108 17114393533049870353
238918 7 16822793725089733546
283562 15 17691394218745774277
3418910 222 18335710417378340164
392239 28 18261386763507791650
458136 41 17832154092327730493
5171179 24 18339068406708027919
58807428 26 17474948109012645553
79837 15 17545324077467739482
81228 2 17910669865263625092

> <PUBCHEM_SHAPE_MULTIPOLES>
487.34
7.92
6.29
1.54
1.8
8.97
-0.29
-9.4
-2.57
-5.32
-2.82
0.44
0.17
1.59

> <PUBCHEM_SHAPE_SELFOVERLAP>
1030.293

> <PUBCHEM_SHAPE_VOLUME>
274.7

> <PUBCHEM_COORDINATE_TYPE>
2
5
10

$$$$
