2247934
  -OEChem-01171809403D

 41 43  0     0  0  0  0  0  0999 V2000
   -6.0931   -0.2215    0.0056 O   0  0  0  0  0  0  0  0  0  0  0  0
    2.4567    0.7733   -0.0353 N   0  0  0  0  0  0  0  0  0  0  0  0
   -0.5940   -0.9404   -0.1874 N   0  0  0  0  0  0  0  0  0  0  0  0
   -0.2214    1.2359    0.7657 N   0  0  0  0  0  0  0  0  0  0  0  0
    0.6420    1.9708    1.5600 N   0  0  0  0  0  0  0  0  0  0  0  0
    4.3322   -0.7394   -0.0725 C   0  0  0  0  0  0  0  0  0  0  0  0
    3.7815    0.5575   -0.1415 C   0  0  0  0  0  0  0  0  0  0  0  0
    1.6468   -0.2956    0.1421 C   0  0  0  0  0  0  0  0  0  0  0  0
    3.4577   -1.8187    0.1120 C   0  0  0  0  0  0  0  0  0  0  0  0
    2.0920   -1.5995    0.2217 C   0  0  0  0  0  0  0  0  0  0  0  0
    0.2287    0.0026    0.2484 C   0  0  0  0  0  0  0  0  0  0  0  0
    5.7199   -0.9280   -0.1874 C   0  0  0  0  0  0  0  0  0  0  0  0
    4.6509    1.6293   -0.3250 C   0  0  0  0  0  0  0  0  0  0  0  0
   -1.9860   -0.7591   -0.1389 C   0  0  0  0  0  0  0  0  0  0  0  0
    6.5661    0.1619   -0.3703 C   0  0  0  0  0  0  0  0  0  0  0  0
    6.0306    1.4420   -0.4391 C   0  0  0  0  0  0  0  0  0  0  0  0
   -4.7446   -0.3991   -0.0425 C   0  0  0  0  0  0  0  0  0  0  0  0
   -2.6460   -0.1816   -1.2196 C   0  0  0  0  0  0  0  0  0  0  0  0
   -2.6962   -1.1579    0.9895 C   0  0  0  0  0  0  0  0  0  0  0  0
   -4.0283   -0.0012   -1.1714 C   0  0  0  0  0  0  0  0  0  0  0  0
   -4.0785   -0.9775    1.0380 C   0  0  0  0  0  0  0  0  0  0  0  0
   -6.6289    0.8835   -0.7209 C   0  0  0  0  0  0  0  0  0  0  0  0
   -7.8883    1.3629   -0.0312 C   0  0  0  0  0  0  0  0  0  0  0  0
    3.8367   -2.8362    0.1734 H   0  0  0  0  0  0  0  0  0  0  0  0
    1.4251   -2.4410    0.3743 H   0  0  0  0  0  0  0  0  0  0  0  0
    6.1495   -1.9260   -0.1350 H   0  0  0  0  0  0  0  0  0  0  0  0
    4.2560    2.6420   -0.3821 H   0  0  0  0  0  0  0  0  0  0  0  0
    7.6379    0.0122   -0.4586 H   0  0  0  0  0  0  0  0  0  0  0  0
    6.6835    2.2982   -0.5816 H   0  0  0  0  0  0  0  0  0  0  0  0
   -2.0958    0.1256   -2.1051 H   0  0  0  0  0  0  0  0  0  0  0  0
   -2.1850   -1.6092    1.8357 H   0  0  0  0  0  0  0  0  0  0  0  0
   -4.5113    0.4276   -2.0443 H   0  0  0  0  0  0  0  0  0  0  0  0
   -4.6311   -1.2889    1.9202 H   0  0  0  0  0  0  0  0  0  0  0  0
   -1.2114    1.4456    0.8402 H   0  0  0  0  0  0  0  0  0  0  0  0
   -5.9297    1.7285   -0.7529 H   0  0  0  0  0  0  0  0  0  0  0  0
   -6.8644    0.5630   -1.7417 H   0  0  0  0  0  0  0  0  0  0  0  0
   -8.3329    2.2052   -0.5688 H   0  0  0  0  0  0  0  0  0  0  0  0
   -8.6252    0.5553    0.0305 H   0  0  0  0  0  0  0  0  0  0  0  0
   -7.6711    1.6742    0.9959 H   0  0  0  0  0  0  0  0  0  0  0  0
    0.3410    2.9442    1.5468 H   0  0  0  0  0  0  0  0  0  0  0  0
    0.5386    1.6572    2.5242 H   0  0  0  0  0  0  0  0  0  0  0  0
  1 17  1  0  0  0  0
  1 22  1  0  0  0  0
  2  7  1  0  0  0  0
  2  8  2  0  0  0  0
  3 11  2  0  0  0  0
  3 14  1  0  0  0  0
  4  5  1  0  0  0  0
  4 11  1  0  0  0  0
  4 34  1  0  0  0  0
  5 40  1  0  0  0  0
  5 41  1  0  0  0  0
  6  7  1  0  0  0  0
  6  9  1  0  0  0  0
  6 12  2  0  0  0  0
  7 13  2  0  0  0  0
  8 10  1  0  0  0  0
  8 11  1  0  0  0  0
  9 10  2  0  0  0  0
  9 24  1  0  0  0  0
 10 25  1  0  0  0  0
 12 15  1  0  0  0  0
 12 26  1  0  0  0  0
 13 16  1  0  0  0  0
 13 27  1  0  0  0  0
 14 18  2  0  0  0  0
 14 19  1  0  0  0  0
 15 16  2  0  0  0  0
 15 28  1  0  0  0  0
 16 29  1  0  0  0  0
 17 20  2  0  0  0  0
 17 21  1  0  0  0  0
 18 20  1  0  0  0  0
 18 30  1  0  0  0  0
 19 21  2  0  0  0  0
 19 31  1  0  0  0  0
 20 32  1  0  0  0  0
 21 33  1  0  0  0  0
 22 23  1  0  0  0  0
 22 35  1  0  0  0  0
 22 36  1  0  0  0  0
 23 37  1  0  0  0  0
 23 38  1  0  0  0  0
 23 39  1  0  0  0  0
M  END
> <PUBCHEM_COMPOUND_CID>
2247934

> <PUBCHEM_CONFORMER_RMSD>
0.8

> <PUBCHEM_CONFORMER_DIVERSEORDER>
1
10
2
6
13
7
11
4
9
8
5
12
3

> <PUBCHEM_MMFF94_PARTIAL_CHARGES>
34
1 -0.36
10 -0.15
11 0.41
12 -0.15
13 -0.15
14 0.18
15 -0.15
16 -0.15
17 0.08
18 -0.15
19 -0.15
2 -0.62
20 -0.15
21 -0.15
22 0.28
24 0.15
25 0.15
26 0.15
27 0.15
28 0.15
29 0.15
3 -0.63
30 0.15
31 0.15
32 0.15
33 0.15
34 0.4
4 -0.46
40 0.36
41 0.36
5 -0.71
7 0.31
8 0.4
9 -0.15

> <PUBCHEM_EFFECTIVE_ROTOR_COUNT>
5

> <PUBCHEM_PHARMACOPHORE_FEATURES>
8
1 1 acceptor
1 2 acceptor
1 4 donor
1 5 donor
3 3 4 11 cation
6 14 17 18 19 20 21 rings
6 2 6 7 8 9 10 rings
6 6 7 12 13 15 16 rings

> <PUBCHEM_HEAVY_ATOM_COUNT>
23

> <PUBCHEM_ATOM_DEF_STEREO_COUNT>
0

> <PUBCHEM_ATOM_UDEF_STEREO_COUNT>
0

> <PUBCHEM_BOND_DEF_STEREO_COUNT>
0

> <PUBCHEM_BOND_UDEF_STEREO_COUNT>
0

> <PUBCHEM_ISOTOPIC_ATOM_COUNT>
0

> <PUBCHEM_COMPONENT_COUNT>
1

> <PUBCHEM_CACTVS_TAUTO_COUNT>
2

> <PUBCHEM_CONFORMER_ID>
00224CFE00000001

> <PUBCHEM_MMFF94_ENERGY>
83.606

> <PUBCHEM_FEATURE_SELFOVERLAP>
42.121

> <PUBCHEM_SHAPE_FINGERPRINT>
10 15 16732704960536406661
10066227 112 18335416855641361877
10411042 1 17903634078602375378
106641 1 10737291259835252164
10835480 77 18334575788695205504
10906281 52 18130805433834930547
11287383 113 17676770959009033782
11315181 36 16200433606560526483
11578080 2 13047380638985275028
11646440 116 15357700773099352637
11719270 70 18410288095809009042
12236239 1 17703793630114362006
12516196 113 17918273168737384816
12730499 353 17967816037794404130
12788726 201 17917715651775175107
12916748 109 15574711374399079670
14251752 14 18343299241251897985
14251764 18 18413389839642985637
14251764 46 18408322181718155310
14294032 229 15696895653136629555
14933364 13 18259985968213091277
15048467 5 18187364333231392509
15183329 4 18060137618421135825
15439362 3 17912355726165093104
16120349 18 18334573568851189709
18222031 100 16128656361985489994
200 152 18343584036507061554
20281389 69 17603863382253150853
20645477 70 18410575055332174134
20681677 155 17458062686049611387
20735858 18 12035447237806117081
21033648 29 18187639271436956600
21150785 3 17632856439057822495
21236236 1 18201725003273774785
21267235 1 18341902874828440822
21641784 216 18338815445998954300
21792934 111 18200864103038564416
22224240 67 11963395150211778649
23402539 116 17561085817386029822
23536379 177 17458060465329745418
23559900 14 18335416923785728185
23576562 1 18058440084158430213
29717793 49 17917997157338980358
300161 21 17988639722640249558
3004659 81 18408040693846019258
3009799 131 18060418010702032665
34797466 226 14345800435908008318
3545911 37 17894630352872662318
4073 2 17749114430006897026
4325135 7 18272090487660438020
4340502 62 16877940534124216154
4463277 17 18410855460444731429
5104073 3 16154256201384993849
5283173 99 18041274374917167148
58260988 393 15647044924581411525
59682541 35 13262690244342095261
6328613 192 18412266129858818945

> <PUBCHEM_SHAPE_MULTIPOLES>
447.54
18.87
1.68
0.98
13.93
0.17
-0.09
5.91
3.03
-1.02
-0.28
0.7
0.14
0.33

> <PUBCHEM_SHAPE_SELFOVERLAP>
973.288

> <PUBCHEM_SHAPE_VOLUME>
242.6

> <PUBCHEM_COORDINATE_TYPE>
2
5
10

$$$$
