1096383
  -OEChem-01171809213D

 29 30  0     0  0  0  0  0  0999 V2000
    5.6638   -0.5526    1.0404 Cl  0  0  0  0  0  0  0  0  0  0  0  0
   -4.2547   -1.3927    0.1121 O   0  0  0  0  0  0  0  0  0  0  0  0
    3.0684   -1.4331   -0.2824 O   0  0  0  0  0  0  0  0  0  0  0  0
   -1.8849   -1.3506   -0.0206 N   0  0  0  0  0  0  0  0  0  0  0  0
   -2.9993    0.6220    0.0996 N   0  0  0  0  0  0  0  0  0  0  0  0
    2.5195    0.8541   -0.2039 N   0  0  0  0  0  0  0  0  0  0  0  0
   -0.9396   -0.3129   -0.0434 C   0  0  0  0  0  0  0  0  0  0  0  0
   -1.6251    0.9005    0.0305 C   0  0  0  0  0  0  0  0  0  0  0  0
   -3.1910   -0.7892    0.0692 C   0  0  0  0  0  0  0  0  0  0  0  0
    0.4376   -0.3662   -0.1225 C   0  0  0  0  0  0  0  0  0  0  0  0
   -0.9621    2.1112    0.0281 C   0  0  0  0  0  0  0  0  0  0  0  0
    1.1254    0.8509   -0.1261 C   0  0  0  0  0  0  0  0  0  0  0  0
    0.4330    2.0762   -0.0518 C   0  0  0  0  0  0  0  0  0  0  0  0
   -1.5824   -2.7579   -0.0788 C   0  0  0  0  0  0  0  0  0  0  0  0
   -4.0287    1.6261    0.1872 C   0  0  0  0  0  0  0  0  0  0  0  0
    3.3835   -0.2459   -0.2842 C   0  0  0  0  0  0  0  0  0  0  0  0
    4.8366    0.1601   -0.3535 C   0  0  0  0  0  0  0  0  0  0  0  0
    0.9008   -1.3384   -0.1781 H   0  0  0  0  0  0  0  0  0  0  0  0
   -1.4880    3.0570    0.0850 H   0  0  0  0  0  0  0  0  0  0  0  0
    0.9816    3.0158   -0.0554 H   0  0  0  0  0  0  0  0  0  0  0  0
   -1.0546   -2.9745   -1.0119 H   0  0  0  0  0  0  0  0  0  0  0  0
   -2.5044   -3.3444   -0.0441 H   0  0  0  0  0  0  0  0  0  0  0  0
   -0.9540   -3.0267    0.7751 H   0  0  0  0  0  0  0  0  0  0  0  0
   -3.8791    2.2193    1.0938 H   0  0  0  0  0  0  0  0  0  0  0  0
   -5.0123    1.1505    0.2287 H   0  0  0  0  0  0  0  0  0  0  0  0
   -3.9798    2.2720   -0.6940 H   0  0  0  0  0  0  0  0  0  0  0  0
    2.9463    1.7778   -0.2045 H   0  0  0  0  0  0  0  0  0  0  0  0
    4.9767    1.2431   -0.3224 H   0  0  0  0  0  0  0  0  0  0  0  0
    5.2789   -0.2333   -1.2728 H   0  0  0  0  0  0  0  0  0  0  0  0
  1 17  1  0  0  0  0
  2  9  2  0  0  0  0
  3 16  2  0  0  0  0
  4  7  1  0  0  0  0
  4  9  1  0  0  0  0
  4 14  1  0  0  0  0
  5  8  1  0  0  0  0
  5  9  1  0  0  0  0
  5 15  1  0  0  0  0
  6 12  1  0  0  0  0
  6 16  1  0  0  0  0
  6 27  1  0  0  0  0
  7  8  2  0  0  0  0
  7 10  1  0  0  0  0
  8 11  1  0  0  0  0
 10 12  2  0  0  0  0
 10 18  1  0  0  0  0
 11 13  2  0  0  0  0
 11 19  1  0  0  0  0
 12 13  1  0  0  0  0
 13 20  1  0  0  0  0
 14 21  1  0  0  0  0
 14 22  1  0  0  0  0
 14 23  1  0  0  0  0
 15 24  1  0  0  0  0
 15 25  1  0  0  0  0
 15 26  1  0  0  0  0
 16 17  1  0  0  0  0
 17 28  1  0  0  0  0
 17 29  1  0  0  0  0
M  END
> <PUBCHEM_COMPOUND_CID>
1096383

> <PUBCHEM_CONFORMER_RMSD>
0.6

> <PUBCHEM_CONFORMER_DIVERSEORDER>
1
3
5
6
4
2
8
7

> <PUBCHEM_MMFF94_PARTIAL_CHARGES>
21
1 -0.29
10 -0.15
11 -0.15
12 0.12
13 -0.15
14 0.3
15 0.3
16 0.57
17 0.35
18 0.15
19 0.15
2 -0.57
20 0.15
27 0.37
3 -0.57
4 -0.48
5 -0.48
6 -0.55
7 0.12
8 0.12
9 0.69

> <PUBCHEM_EFFECTIVE_ROTOR_COUNT>
3

> <PUBCHEM_PHARMACOPHORE_FEATURES>
5
1 2 acceptor
1 3 acceptor
1 6 donor
5 4 5 7 8 9 rings
6 7 8 10 11 12 13 rings

> <PUBCHEM_HEAVY_ATOM_COUNT>
17

> <PUBCHEM_ATOM_DEF_STEREO_COUNT>
0

> <PUBCHEM_ATOM_UDEF_STEREO_COUNT>
0

> <PUBCHEM_BOND_DEF_STEREO_COUNT>
0

> <PUBCHEM_BOND_UDEF_STEREO_COUNT>
0

> <PUBCHEM_ISOTOPIC_ATOM_COUNT>
0

> <PUBCHEM_COMPONENT_COUNT>
1

> <PUBCHEM_CACTVS_TAUTO_COUNT>
2

> <PUBCHEM_CONFORMER_ID>
0010BABF00000001

> <PUBCHEM_MMFF94_ENERGY>
53.0978

> <PUBCHEM_FEATURE_SELFOVERLAP>
25.469

> <PUBCHEM_SHAPE_FINGERPRINT>
10062212 137 18334573555364692842
10616163 171 18411705408845737726
10967382 1 18339083816544296783
11132069 177 18340772554840931948
12032990 46 18410298050983291141
12236239 1 17894914019152891396
13140716 1 18340209716345631608
13214271 11 18272649030492175517
13288520 33 18411703192278076884
13862211 1 18410853308803753367
14252887 29 17846791697792497622
15042514 8 18408889550786950283
15196674 1 18411140203897011014
15375358 24 18202002110157416766
15442244 35 18338802315824435389
16945 1 18123192570059102565
17804303 29 18342178885889436624
1813 80 17458069240164248462
18186145 218 12179845000670745284
200 152 18260827111819753444
20510252 161 18057042406831041496
21267235 1 18337964470641737094
22959321 94 18335413569901384762
2297311 6 18272382957974972580
23366157 5 17971190580672102628
23402539 116 18342733009848315965
23463225 33 18410299115871449676
23557571 272 18202015313129555900
23559900 14 18343024346755642958
2748010 2 18267582592823347141
335352 9 18410294688161412661
34934 24 18337386045947203722
4214541 1 18410575080626821348
5104073 3 18410859897035530032
559249 180 18188202113905386738
57005193 9 18336822014031412486
573450 72 18260821567191112904
67856867 119 18188491402092708428
7364860 26 18125160686877159856
8809292 202 18262804102071840890
9709674 26 18341902878775482646

> <PUBCHEM_SHAPE_MULTIPOLES>
325.04
9.38
2.29
0.69
10.25
0.46
-0.07
1.74
-1.56
-1.98
0.03
0.48
0.02
-0.25

> <PUBCHEM_SHAPE_SELFOVERLAP>
680.665

> <PUBCHEM_SHAPE_VOLUME>
187.5

> <PUBCHEM_COORDINATE_TYPE>
2
5
10

$$$$
