885550
  -OEChem-01171809293D

 37 39  0     0  0  0  0  0  0999 V2000
   -4.6310   -1.8680    0.5333 Cl  0  0  0  0  0  0  0  0  0  0  0  0
   -3.6228    0.7847   -2.3916 O   0  0  0  0  0  0  0  0  0  0  0  0
   -3.1977    1.5227    2.1628 O   0  0  0  0  0  0  0  0  0  0  0  0
    1.9122   -2.4185   -0.5543 O   0  0  0  0  0  0  0  0  0  0  0  0
   -3.1237    0.7206   -0.0710 N   0  0  0  0  0  0  0  0  0  0  0  0
    1.8488   -0.1758    0.1356 N   0  0  0  0  0  0  0  0  0  0  0  0
   -2.3369   -0.4704    0.0486 C   0  0  0  0  0  0  0  0  0  0  0  0
   -0.1600   -1.5168   -0.0050 C   0  0  0  0  0  0  0  0  0  0  0  0
   -0.9550   -0.3759   -0.1156 C   0  0  0  0  0  0  0  0  0  0  0  0
   -2.9239   -1.7055    0.3232 C   0  0  0  0  0  0  0  0  0  0  0  0
   -0.7469   -2.7520    0.2696 C   0  0  0  0  0  0  0  0  0  0  0  0
   -3.6792    1.1929   -1.2430 C   0  0  0  0  0  0  0  0  0  0  0  0
   -3.4426    1.5713    0.9684 C   0  0  0  0  0  0  0  0  0  0  0  0
    1.2811   -1.4187   -0.1755 C   0  0  0  0  0  0  0  0  0  0  0  0
   -2.1289   -2.8463    0.4337 C   0  0  0  0  0  0  0  0  0  0  0  0
    3.2001    0.1933    0.0881 C   0  0  0  0  0  0  0  0  0  0  0  0
   -4.4016    2.4277   -0.9043 C   0  0  0  0  0  0  0  0  0  0  0  0
   -4.2529    2.6566    0.3967 C   0  0  0  0  0  0  0  0  0  0  0  0
    5.8837    0.9255   -0.0064 C   0  0  0  0  0  0  0  0  0  0  0  0
    4.1567   -0.7367   -0.3081 C   0  0  0  0  0  0  0  0  0  0  0  0
    3.5761    1.4868    0.4373 C   0  0  0  0  0  0  0  0  0  0  0  0
    5.5016   -0.3697   -0.3554 C   0  0  0  0  0  0  0  0  0  0  0  0
    4.9210    1.8538    0.3898 C   0  0  0  0  0  0  0  0  0  0  0  0
    7.3218    1.3182   -0.0570 C   0  0  0  0  0  0  0  0  0  0  0  0
   -0.5383    0.5952   -0.3687 H   0  0  0  0  0  0  0  0  0  0  0  0
   -0.1459   -3.6526    0.3652 H   0  0  0  0  0  0  0  0  0  0  0  0
   -2.5706   -3.8161    0.6486 H   0  0  0  0  0  0  0  0  0  0  0  0
    1.2401    0.5591    0.4843 H   0  0  0  0  0  0  0  0  0  0  0  0
   -4.9430    3.0316   -1.6131 H   0  0  0  0  0  0  0  0  0  0  0  0
   -4.6549    3.4805    0.9622 H   0  0  0  0  0  0  0  0  0  0  0  0
    3.9471   -1.7566   -0.5943 H   0  0  0  0  0  0  0  0  0  0  0  0
    2.8361    2.2200    0.7471 H   0  0  0  0  0  0  0  0  0  0  0  0
    6.2434   -1.1004   -0.6674 H   0  0  0  0  0  0  0  0  0  0  0  0
    5.2061    2.8666    0.6623 H   0  0  0  0  0  0  0  0  0  0  0  0
    7.5491    2.0836    0.6928 H   0  0  0  0  0  0  0  0  0  0  0  0
    7.9727    0.4623    0.1519 H   0  0  0  0  0  0  0  0  0  0  0  0
    7.5686    1.7131   -1.0474 H   0  0  0  0  0  0  0  0  0  0  0  0
  1 10  1  0  0  0  0
  2 12  2  0  0  0  0
  3 13  2  0  0  0  0
  4 14  2  0  0  0  0
  5  7  1  0  0  0  0
  5 12  1  0  0  0  0
  5 13  1  0  0  0  0
  6 14  1  0  0  0  0
  6 16  1  0  0  0  0
  6 28  1  0  0  0  0
  7  9  1  0  0  0  0
  7 10  2  0  0  0  0
  8  9  2  0  0  0  0
  8 11  1  0  0  0  0
  8 14  1  0  0  0  0
  9 25  1  0  0  0  0
 10 15  1  0  0  0  0
 11 15  2  0  0  0  0
 11 26  1  0  0  0  0
 12 17  1  0  0  0  0
 13 18  1  0  0  0  0
 15 27  1  0  0  0  0
 16 20  2  0  0  0  0
 16 21  1  0  0  0  0
 17 18  2  0  0  0  0
 17 29  1  0  0  0  0
 18 30  1  0  0  0  0
 19 22  2  0  0  0  0
 19 23  1  0  0  0  0
 19 24  1  0  0  0  0
 20 22  1  0  0  0  0
 20 31  1  0  0  0  0
 21 23  2  0  0  0  0
 21 32  1  0  0  0  0
 22 33  1  0  0  0  0
 23 34  1  0  0  0  0
 24 35  1  0  0  0  0
 24 36  1  0  0  0  0
 24 37  1  0  0  0  0
M  END
> <PUBCHEM_COMPOUND_CID>
885550

> <PUBCHEM_CONFORMER_RMSD>
0.8

> <PUBCHEM_CONFORMER_DIVERSEORDER>
2
6
4
8
5
1
7
3
9

> <PUBCHEM_MMFF94_PARTIAL_CHARGES>
34
1 -0.18
10 0.18
11 -0.15
12 0.62
13 0.62
14 0.54
15 -0.15
16 0.12
17 -0.14
18 -0.14
19 -0.14
2 -0.57
20 -0.15
21 -0.15
22 -0.15
23 -0.15
24 0.14
25 0.15
26 0.15
27 0.15
28 0.37
29 0.15
3 -0.57
30 0.15
31 0.15
32 0.15
33 0.15
34 0.15
4 -0.57
5 -0.24
6 -0.55
7 0.12
8 0.09
9 -0.15

> <PUBCHEM_EFFECTIVE_ROTOR_COUNT>
4.2

> <PUBCHEM_PHARMACOPHORE_FEATURES>
7
1 2 acceptor
1 3 acceptor
1 4 acceptor
1 6 donor
5 5 12 13 17 18 rings
6 16 19 20 21 22 23 rings
6 7 8 9 10 11 15 rings

> <PUBCHEM_HEAVY_ATOM_COUNT>
24

> <PUBCHEM_ATOM_DEF_STEREO_COUNT>
0

> <PUBCHEM_ATOM_UDEF_STEREO_COUNT>
0

> <PUBCHEM_BOND_DEF_STEREO_COUNT>
0

> <PUBCHEM_BOND_UDEF_STEREO_COUNT>
0

> <PUBCHEM_ISOTOPIC_ATOM_COUNT>
0

> <PUBCHEM_COMPONENT_COUNT>
1

> <PUBCHEM_CACTVS_TAUTO_COUNT>
2

> <PUBCHEM_CONFORMER_ID>
000D832E00000002

> <PUBCHEM_MMFF94_ENERGY>
88.7877

> <PUBCHEM_FEATURE_SELFOVERLAP>
35.522

> <PUBCHEM_SHAPE_FINGERPRINT>
10411042 1 17760933239814495235
105312 117 18334010566719610493
12107183 9 18117830011432842306
12390115 104 18339091427110352635
12403259 415 18200871885392613000
12788726 201 18265316486569304659
13073987 5 18334293189180920658
13103583 49 13623815977297262412
13140716 1 18190462658346742507
13941219 33 7997703042203780221
14142880 1 18259983765337993183
14251764 38 18339083808255438972
14251764 75 17553777165965612729
14466204 15 18409726283968452704
14848178 96 18340764845432748968
15042514 8 17975420423194637059
15183329 4 18412547575139464786
15513586 35 16879941743638785884
16994733 274 16807545337949670285
17780758 139 12685089267698206189
17844677 252 18264777726134548312
18608769 82 18412265073486436995
20281389 69 18334293206529354280
21033648 144 18336540521521268924
21033648 29 18201146759062709592
21236236 1 18411138064697193031
21279426 13 18342748369321519798
21315764 268 18267019638712076128
21421861 104 17749937857912472858
21756936 100 17775295924041908769
22956985 138 16458274860037375299
23402539 116 11240005551055345906
283562 15 18335418015414939803
2838139 119 18272644637183886036
312425 83 16557639503776136924
350125 39 18337958990811807913
4214541 1 18410576227625494202
474 4 18197492935688843635
5104073 3 18187364303346463842
6327066 14 18261385595092135621
6328613 192 18335707174372661276
633830 44 18127410043070387591
6677587 24 15873012062435439055
7288768 16 18188218589616186489
7808743 9 18335699433817895600
9981440 41 18408041822869160963

> <PUBCHEM_SHAPE_MULTIPOLES>
468.21
14.68
3.21
1.14
22.53
0.55
0.16
-8.98
0.35
-3.67
-0.27
-1.63
-0.6
0.96

> <PUBCHEM_SHAPE_SELFOVERLAP>
1019.467

> <PUBCHEM_SHAPE_VOLUME>
254.6

> <PUBCHEM_COORDINATE_TYPE>
2
5
10

$$$$
