44825280
  -OEChem-01171810193D

 37 40  0     0  0  0  0  0  0999 V2000
    3.4736   -2.1880    1.3489 S   0  0  0  0  0  0  0  0  0  0  0  0
    0.5887    1.2294   -1.5992 S   0  0  0  0  0  0  0  0  0  0  0  0
   -4.6088   -0.5538    0.3790 O   0  0  0  0  0  0  0  0  0  0  0  0
    4.4877    0.1316    0.5182 N   0  0  0  0  0  0  0  0  0  0  0  0
    3.1109    1.6196   -0.8116 N   0  0  0  0  0  0  0  0  0  0  0  0
   -1.5180    2.6655   -0.4783 N   0  0  0  0  0  0  0  0  0  0  0  0
    0.0958    2.3129    0.9267 N   0  0  0  0  0  0  0  0  0  0  0  0
   -1.9127    3.2445    0.6642 N   0  0  0  0  0  0  0  0  0  0  0  0
   -0.9218    3.0254    1.5200 N   0  0  0  0  0  0  0  0  0  0  0  0
    1.2956   -1.5425    0.1508 C   0  0  0  0  0  0  0  0  0  0  0  0
    2.1953   -0.4532   -0.0729 C   0  0  0  0  0  0  0  0  0  0  0  0
   -0.0650   -1.7090   -0.2968 C   0  0  0  0  0  0  0  0  0  0  0  0
    3.4211   -0.6914    0.5351 C   0  0  0  0  0  0  0  0  0  0  0  0
    1.8609   -2.5472    0.9057 C   0  0  0  0  0  0  0  0  0  0  0  0
   -1.1204   -1.2553    0.4943 C   0  0  0  0  0  0  0  0  0  0  0  0
    2.0730    0.7574   -0.7627 C   0  0  0  0  0  0  0  0  0  0  0  0
   -0.3255   -2.3236   -1.5217 C   0  0  0  0  0  0  0  0  0  0  0  0
   -2.4365   -1.4163    0.0606 C   0  0  0  0  0  0  0  0  0  0  0  0
   -1.6414   -2.4848   -1.9552 C   0  0  0  0  0  0  0  0  0  0  0  0
   -2.6969   -2.0309   -1.1642 C   0  0  0  0  0  0  0  0  0  0  0  0
   -3.5376   -0.9436    0.8848 C   0  0  0  0  0  0  0  0  0  0  0  0
    4.2420    1.2575   -0.1751 C   0  0  0  0  0  0  0  0  0  0  0  0
   -0.2940    2.1009   -0.3092 C   0  0  0  0  0  0  0  0  0  0  0  0
   -3.4030   -0.9131    2.4036 C   0  0  0  0  0  0  0  0  0  0  0  0
   -2.3630    2.7080   -1.6450 C   0  0  0  0  0  0  0  0  0  0  0  0
    1.4146   -3.4800    1.2246 H   0  0  0  0  0  0  0  0  0  0  0  0
   -0.9055   -0.7660    1.4418 H   0  0  0  0  0  0  0  0  0  0  0  0
    0.4857   -2.6821   -2.1511 H   0  0  0  0  0  0  0  0  0  0  0  0
   -1.8441   -2.9637   -2.9087 H   0  0  0  0  0  0  0  0  0  0  0  0
   -3.7157   -2.1682   -1.5171 H   0  0  0  0  0  0  0  0  0  0  0  0
    5.0603    1.9670   -0.2293 H   0  0  0  0  0  0  0  0  0  0  0  0
   -2.9863    0.0483    2.7138 H   0  0  0  0  0  0  0  0  0  0  0  0
   -2.7705   -1.7332    2.7538 H   0  0  0  0  0  0  0  0  0  0  0  0
   -4.3920   -1.0457    2.8524 H   0  0  0  0  0  0  0  0  0  0  0  0
   -2.6040    1.6827   -1.9361 H   0  0  0  0  0  0  0  0  0  0  0  0
   -3.2830    3.2498   -1.4103 H   0  0  0  0  0  0  0  0  0  0  0  0
   -1.8255    3.2229   -2.4449 H   0  0  0  0  0  0  0  0  0  0  0  0
  1 13  1  0  0  0  0
  1 14  1  0  0  0  0
  2 16  1  0  0  0  0
  2 23  1  0  0  0  0
  3 21  2  0  0  0  0
  4 13  1  0  0  0  0
  4 22  2  0  0  0  0
  5 16  2  0  0  0  0
  5 22  1  0  0  0  0
  6  8  1  0  0  0  0
  6 23  1  0  0  0  0
  6 25  1  0  0  0  0
  7  9  1  0  0  0  0
  7 23  2  0  0  0  0
  8  9  2  0  0  0  0
 10 11  1  0  0  0  0
 10 12  1  0  0  0  0
 10 14  2  0  0  0  0
 11 13  2  0  0  0  0
 11 16  1  0  0  0  0
 12 15  2  0  0  0  0
 12 17  1  0  0  0  0
 14 26  1  0  0  0  0
 15 18  1  0  0  0  0
 15 27  1  0  0  0  0
 17 19  2  0  0  0  0
 17 28  1  0  0  0  0
 18 20  2  0  0  0  0
 18 21  1  0  0  0  0
 19 20  1  0  0  0  0
 19 29  1  0  0  0  0
 20 30  1  0  0  0  0
 21 24  1  0  0  0  0
 22 31  1  0  0  0  0
 24 32  1  0  0  0  0
 24 33  1  0  0  0  0
 24 34  1  0  0  0  0
 25 35  1  0  0  0  0
 25 36  1  0  0  0  0
 25 37  1  0  0  0  0
M  END
> <PUBCHEM_COMPOUND_CID>
44825280

> <PUBCHEM_CONFORMER_RMSD>
0.8

> <PUBCHEM_CONFORMER_DIVERSEORDER>
1
28
40
37
49
34
50
33
36
44
2
24
32
35
52
45
19
25
3
23
17
39
43
47
54
53
4
29
31
15
27
26
20
48
51
38
46
9
41
30
8
16
21
18
42
22
10
11
13
6
5
14
7
12

> <PUBCHEM_MMFF94_PARTIAL_CHARGES>
29
1 -0.08
10 -0.05
12 0.05
13 0.3
14 -0.11
15 -0.15
16 0.41
17 -0.15
18 0.09
19 -0.15
2 -0.16
20 -0.15
21 0.42
22 0.47
23 0.24
24 0.06
25 0.26
26 0.15
27 0.15
28 0.15
29 0.15
3 -0.57
30 0.15
31 0.15
4 -0.57
5 -0.62
6 0.31
7 -0.34
8 -0.42

> <PUBCHEM_EFFECTIVE_ROTOR_COUNT>
4

> <PUBCHEM_PHARMACOPHORE_FEATURES>
8
1 3 acceptor
1 5 acceptor
3 4 5 22 cation
3 6 7 23 cation
5 1 10 11 13 14 rings
5 6 7 8 9 23 rings
6 12 15 17 18 19 20 rings
6 4 5 11 13 16 22 rings

> <PUBCHEM_HEAVY_ATOM_COUNT>
25

> <PUBCHEM_ATOM_DEF_STEREO_COUNT>
0

> <PUBCHEM_ATOM_UDEF_STEREO_COUNT>
0

> <PUBCHEM_BOND_DEF_STEREO_COUNT>
0

> <PUBCHEM_BOND_UDEF_STEREO_COUNT>
0

> <PUBCHEM_ISOTOPIC_ATOM_COUNT>
0

> <PUBCHEM_COMPONENT_COUNT>
1

> <PUBCHEM_CACTVS_TAUTO_COUNT>
2

> <PUBCHEM_CONFORMER_ID>
02ABFAC000000001

> <PUBCHEM_MMFF94_ENERGY>
59.0338

> <PUBCHEM_FEATURE_SELFOVERLAP>
40.678

> <PUBCHEM_SHAPE_FINGERPRINT>
104564 63 18410015429097338372
10688039 33 17894917339025701661
10759866 29 18187373112218593596
11370993 70 17831848058607124357
11578080 2 17842803802855891617
12156800 1 11436270223496804625
12422481 6 18121240705018122681
12553582 1 18339357599313727566
12633257 1 17560810956226419416
12788726 201 18268450073307105884
13132413 78 18267871772681100213
13140716 1 17899975230031689170
13583140 156 17243588472695152705
13965767 371 18057913293080830747
14081887 123 18200010937602194904
14840074 17 18268732634677985889
14955137 171 17840057296109286115
17138139 8 17623236742954622869
20261772 1 18341900709494900186
20600515 1 17831307464464783764
20691752 17 18049707813822193608
20715895 44 17974846165092997893
21197605 99 18265899043612265405
21236236 1 18335416843135916962
22112679 90 18200869707433165870
23419403 2 15954612484829581086
34934 24 18341053033163787790
350125 39 18408323285746387448
35225 105 17039449836794294675
352729 6 18053378803906086052
392239 28 18126828607926163592
4340502 62 17979362954538969793
445580 8 18198931212825136163
469060 322 17968109654147853200
5282274 181 17835255449346430841
57527358 35 14643939412452430742
6287921 2 17194882229762626549
7832392 63 17984424297859061622

> <PUBCHEM_SHAPE_MULTIPOLES>
486.43
6.89
4.03
1.77
2.14
2.4
0.05
-1.19
2.09
-1.48
-0.18
-1.33
-0.33
-0.9

> <PUBCHEM_SHAPE_SELFOVERLAP>
1048.716

> <PUBCHEM_SHAPE_VOLUME>
269.4

> <PUBCHEM_COORDINATE_TYPE>
2
5
10

$$$$
