5720078
  -OEChem-01171809303D

 40 42  0     0  0  0  0  0  0999 V2000
   -0.3924   -1.8191   -1.8459 O   0  0  0  0  0  0  0  0  0  0  0  0
    2.9034   -1.1682    1.1297 N   0  0  0  0  0  0  0  0  0  0  0  0
    5.0757    2.1920   -0.2615 C   0  0  0  0  0  0  0  0  0  0  0  0
    5.8438    0.9845    0.2630 C   0  0  0  0  0  0  0  0  0  0  0  0
    3.8849    1.7443   -1.1080 C   0  0  0  0  0  0  0  0  0  0  0  0
    4.9492    0.1394    1.1670 C   0  0  0  0  0  0  0  0  0  0  0  0
    3.0875    0.6390   -0.4709 C   0  0  0  0  0  0  0  0  0  0  0  0
    3.5984   -0.1476    0.5662 C   0  0  0  0  0  0  0  0  0  0  0  0
    1.8141    0.3268   -0.9566 C   0  0  0  0  0  0  0  0  0  0  0  0
    1.0894   -0.7185   -0.3979 C   0  0  0  0  0  0  0  0  0  0  0  0
    1.6735   -1.4283    0.6344 C   0  0  0  0  0  0  0  0  0  0  0  0
    0.9445   -2.5615    1.2800 C   0  0  0  0  0  0  0  0  0  0  0  0
   -0.2394   -1.0296   -0.9021 C   0  0  0  0  0  0  0  0  0  0  0  0
   -1.4238   -0.3496   -0.2754 C   0  0  0  0  0  0  0  0  0  0  0  0
   -2.6645   -0.5859   -0.7268 C   0  0  0  0  0  0  0  0  0  0  0  0
   -3.8833    0.0424   -0.1874 C   0  0  0  0  0  0  0  0  0  0  0  0
   -3.8556    0.5982    1.0813 C   0  0  0  0  0  0  0  0  0  0  0  0
   -5.0336    0.0652   -0.9596 C   0  0  0  0  0  0  0  0  0  0  0  0
   -5.0094    1.1928    1.5920 C   0  0  0  0  0  0  0  0  0  0  0  0
   -6.1873    0.6600   -0.4488 C   0  0  0  0  0  0  0  0  0  0  0  0
   -6.1752    1.2238    0.8270 C   0  0  0  0  0  0  0  0  0  0  0  0
    5.7349    2.8299   -0.8608 H   0  0  0  0  0  0  0  0  0  0  0  0
    4.7247    2.7975    0.5839 H   0  0  0  0  0  0  0  0  0  0  0  0
    6.7276    1.3122    0.8218 H   0  0  0  0  0  0  0  0  0  0  0  0
    6.2010    0.3809   -0.5810 H   0  0  0  0  0  0  0  0  0  0  0  0
    4.2482    1.3847   -2.0789 H   0  0  0  0  0  0  0  0  0  0  0  0
    3.2399    2.6107   -1.2964 H   0  0  0  0  0  0  0  0  0  0  0  0
    4.7892    0.6662    2.1159 H   0  0  0  0  0  0  0  0  0  0  0  0
    5.4570   -0.8041    1.3985 H   0  0  0  0  0  0  0  0  0  0  0  0
    1.3928    0.9057   -1.7756 H   0  0  0  0  0  0  0  0  0  0  0  0
    1.5647   -3.0371    2.0477 H   0  0  0  0  0  0  0  0  0  0  0  0
    0.0312   -2.2062    1.7675 H   0  0  0  0  0  0  0  0  0  0  0  0
    0.6889   -3.3290    0.5424 H   0  0  0  0  0  0  0  0  0  0  0  0
   -1.1998    0.3432    0.5277 H   0  0  0  0  0  0  0  0  0  0  0  0
   -2.8232   -1.2729   -1.5547 H   0  0  0  0  0  0  0  0  0  0  0  0
   -2.9786    0.5779    1.7204 H   0  0  0  0  0  0  0  0  0  0  0  0
   -5.0586   -0.3685   -1.9558 H   0  0  0  0  0  0  0  0  0  0  0  0
   -5.0021    1.6275    2.5874 H   0  0  0  0  0  0  0  0  0  0  0  0
   -7.0953    0.6842   -1.0443 H   0  0  0  0  0  0  0  0  0  0  0  0
   -7.0739    1.6857    1.2251 H   0  0  0  0  0  0  0  0  0  0  0  0
  1 13  2  0  0  0  0
  2  8  2  0  0  0  0
  2 11  1  0  0  0  0
  3  4  1  0  0  0  0
  3  5  1  0  0  0  0
  3 22  1  0  0  0  0
  3 23  1  0  0  0  0
  4  6  1  0  0  0  0
  4 24  1  0  0  0  0
  4 25  1  0  0  0  0
  5  7  1  0  0  0  0
  5 26  1  0  0  0  0
  5 27  1  0  0  0  0
  6  8  1  0  0  0  0
  6 28  1  0  0  0  0
  6 29  1  0  0  0  0
  7  8  1  0  0  0  0
  7  9  2  0  0  0  0
  9 10  1  0  0  0  0
  9 30  1  0  0  0  0
 10 11  2  0  0  0  0
 10 13  1  0  0  0  0
 11 12  1  0  0  0  0
 12 31  1  0  0  0  0
 12 32  1  0  0  0  0
 12 33  1  0  0  0  0
 13 14  1  0  0  0  0
 14 15  2  0  0  0  0
 14 34  1  0  0  0  0
 15 16  1  0  0  0  0
 15 35  1  0  0  0  0
 16 17  2  0  0  0  0
 16 18  1  0  0  0  0
 17 19  1  0  0  0  0
 17 36  1  0  0  0  0
 18 20  2  0  0  0  0
 18 37  1  0  0  0  0
 19 21  2  0  0  0  0
 19 38  1  0  0  0  0
 20 21  1  0  0  0  0
 20 39  1  0  0  0  0
 21 40  1  0  0  0  0
M  END
> <PUBCHEM_COMPOUND_CID>
5720078

> <PUBCHEM_CONFORMER_RMSD>
0.6

> <PUBCHEM_CONFORMER_DIVERSEORDER>
1
18
25
12
21
17
6
7
23
8
24
4
9
10
2
19
5
13
14
3
22
11
20
15
16

> <PUBCHEM_MMFF94_PARTIAL_CHARGES>
27
1 -0.57
10 0.09
11 0.17
12 0.14
13 0.47
14 -0.14
15 -0.18
16 0.03
17 -0.15
18 -0.15
19 -0.15
2 -0.62
20 -0.15
21 -0.15
30 0.15
34 0.15
35 0.15
36 0.15
37 0.15
38 0.15
39 0.15
40 0.15
5 0.14
6 0.14
7 -0.14
8 0.17
9 -0.15

> <PUBCHEM_EFFECTIVE_ROTOR_COUNT>
3.8

> <PUBCHEM_PHARMACOPHORE_FEATURES>
5
1 1 acceptor
1 2 acceptor
6 16 17 18 19 20 21 rings
6 2 7 8 9 10 11 rings
6 3 4 5 6 7 8 rings

> <PUBCHEM_HEAVY_ATOM_COUNT>
21

> <PUBCHEM_ATOM_DEF_STEREO_COUNT>
0

> <PUBCHEM_ATOM_UDEF_STEREO_COUNT>
0

> <PUBCHEM_BOND_DEF_STEREO_COUNT>
1

> <PUBCHEM_BOND_UDEF_STEREO_COUNT>
0

> <PUBCHEM_ISOTOPIC_ATOM_COUNT>
0

> <PUBCHEM_COMPONENT_COUNT>
1

> <PUBCHEM_CACTVS_TAUTO_COUNT>
1

> <PUBCHEM_CONFORMER_ID>
0057480E00000001

> <PUBCHEM_MMFF94_ENERGY>
60.206

> <PUBCHEM_FEATURE_SELFOVERLAP>
25.398

> <PUBCHEM_SHAPE_FINGERPRINT>
10 15 16877940572868540164
10354089 29 18187365428500858852
10498660 4 16988564550857387545
10554248 39 17700967744409674189
10591671 39 17704070733536870383
10670039 82 17417821603570080249
10693767 8 11311786046657447436
10753850 27 10087649182308399468
11045977 3 17095526205584851696
11089746 13 18202277035019149236
11796584 16 11674865693716653699
12236239 1 18341888601887192790
12516196 113 12396301469437347174
12596602 18 18409169905235938123
12633257 1 16877947182337593665
13631057 29 18266454503122000199
13668630 136 9655576322761022497
13675066 3 16660649523247242463
13955234 65 18114740422012785082
14251764 75 17534921971973557628
14341114 176 17240482498691999708
14341114 328 18409448085592800811
14528608 73 17418372489429507701
14576447 43 10231759994018042476
14739800 52 17846200155883078362
15142526 21 18263643038002003489
15183329 4 13686307859039162823
15188451 53 15430327983671118993
15238133 3 18272929466778013904
15348495 7 16443353117116521849
15475509 35 14852147492029130544
15475509 8 18338250293233017492
1601671 61 18060701684322378913
17857418 61 10809342248097635249
1813 80 8790611437184694442
18222031 100 9943811062614766134
19377110 9 18409451410409502707
19784866 240 8430317948288801837
1979834 28 17458634388650528847
20567600 234 17676211307717109485
20567600 247 9943802275159761885
21285901 2 14620804781935189280
21623969 137 17676211268851413961
21637258 2 8142090836022195016
221357 26 13038906612401508699
22224240 67 17530679935284034242
22393880 68 14261339267712026669
23559900 14 15792294753086606163
26918003 58 16443063889881623405
2767999 5 18201717362263022293
2838139 119 18202844370023579088
3009799 131 14117515446529205378
312425 54 16298386838548092561
314194 84 9727639418572714716
3178227 256 17385718085596916104
3472631 163 18059856233449165516
34797466 226 15267057086382852753
351380 3 8070031064457232837
38570 142 18263100936479304612
4340502 62 17894633655871383131
465052 167 13984662547102519784
474 4 18335421283135186058
5104073 3 17750785752907076608
5281201 14 13614520753578307259
5924683 9 17241057621226479195
59682541 52 13470414322814576325
633830 44 18410857676574471350
7808743 9 17989487429046429039
7970288 3 10809341165634631777
8272917 22 18334012752984928054
960060 61 11959729378207104560

> <PUBCHEM_SHAPE_MULTIPOLES>
421.32
15.39
1.93
1.42
10.71
0.45
0.04
-9.96
3.37
-1.84
0.2
0.62
0.2
-1.57

> <PUBCHEM_SHAPE_SELFOVERLAP>
909.547

> <PUBCHEM_SHAPE_VOLUME>
230.6

> <PUBCHEM_COORDINATE_TYPE>
2
5
10

$$$$
