6616230
  -OEChem-01171810133D

 59 62  0     0  0  0  0  0  0999 V2000
   -0.8437    1.4998   -1.2346 S   0  0  0  0  0  0  0  0  0  0  0  0
    0.0879    4.6793   -0.8446 O   0  0  0  0  0  0  0  0  0  0  0  0
   -2.8894   -2.8731    0.1639 O   0  0  0  0  0  0  0  0  0  0  0  0
   -0.2203   -0.8323    1.6072 O   0  0  0  0  0  0  0  0  0  0  0  0
    5.2127   -3.4290   -0.2382 O   0  0  0  0  0  0  0  0  0  0  0  0
    1.4988    3.3489    0.4345 N   0  0  0  0  0  0  0  0  0  0  0  0
   -2.0081   -0.8128   -0.4804 N   0  0  0  0  0  0  0  0  0  0  0  0
   -3.3689    1.1105   -0.6797 N   0  0  0  0  0  0  0  0  0  0  0  0
   -0.7468   -1.3622   -0.5839 N   0  0  0  0  0  0  0  0  0  0  0  0
    4.1853    2.2629    0.5666 C   0  0  0  0  0  0  0  0  0  0  0  0
    2.9435    1.3714    0.7189 C   0  0  0  0  0  0  0  0  0  0  0  0
    3.8508    3.4979   -0.2835 C   0  0  0  0  0  0  0  0  0  0  0  0
    1.7545    2.1632    1.2608 C   0  0  0  0  0  0  0  0  0  0  0  0
    2.6451    4.2461    0.2803 C   0  0  0  0  0  0  0  0  0  0  0  0
    5.3446    1.4799   -0.0449 C   0  0  0  0  0  0  0  0  0  0  0  0
    0.2772    3.6752   -0.1533 C   0  0  0  0  0  0  0  0  0  0  0  0
   -0.8646    2.7200    0.0865 C   0  0  0  0  0  0  0  0  0  0  0  0
   -2.2115    0.5339   -0.7577 C   0  0  0  0  0  0  0  0  0  0  0  0
   -4.3560   -1.0399    0.0042 C   0  0  0  0  0  0  0  0  0  0  0  0
   -4.4706    0.3256   -0.2941 C   0  0  0  0  0  0  0  0  0  0  0  0
   -3.0241   -1.6806   -0.0906 C   0  0  0  0  0  0  0  0  0  0  0  0
   -5.4747   -1.7884    0.3844 C   0  0  0  0  0  0  0  0  0  0  0  0
   -5.7297    0.9297   -0.2045 C   0  0  0  0  0  0  0  0  0  0  0  0
    0.0786   -1.3099    0.5154 C   0  0  0  0  0  0  0  0  0  0  0  0
   -6.7212   -1.1699    0.4684 C   0  0  0  0  0  0  0  0  0  0  0  0
   -6.8492    0.1864    0.1746 C   0  0  0  0  0  0  0  0  0  0  0  0
    1.4406   -1.8708    0.3152 C   0  0  0  0  0  0  0  0  0  0  0  0
    2.1171   -2.3780    1.4046 C   0  0  0  0  0  0  0  0  0  0  0  0
    1.9829   -1.8665   -0.9528 C   0  0  0  0  0  0  0  0  0  0  0  0
    3.3950   -2.9052    1.2173 C   0  0  0  0  0  0  0  0  0  0  0  0
    3.2606   -2.3937   -1.1400 C   0  0  0  0  0  0  0  0  0  0  0  0
    3.9667   -2.9130   -0.0550 C   0  0  0  0  0  0  0  0  0  0  0  0
    5.7368   -3.4052   -1.5650 C   0  0  0  0  0  0  0  0  0  0  0  0
    4.4937    2.6017    1.5647 H   0  0  0  0  0  0  0  0  0  0  0  0
    2.6784    0.9510   -0.2584 H   0  0  0  0  0  0  0  0  0  0  0  0
    3.1654    0.5369    1.3924 H   0  0  0  0  0  0  0  0  0  0  0  0
    4.7137    4.1726   -0.3250 H   0  0  0  0  0  0  0  0  0  0  0  0
    3.6326    3.1878   -1.3137 H   0  0  0  0  0  0  0  0  0  0  0  0
    0.9007    1.4958    1.3267 H   0  0  0  0  0  0  0  0  0  0  0  0
    1.9653    2.5179    2.2767 H   0  0  0  0  0  0  0  0  0  0  0  0
    2.3962    5.0890   -0.3720 H   0  0  0  0  0  0  0  0  0  0  0  0
    2.8761    4.6557    1.2707 H   0  0  0  0  0  0  0  0  0  0  0  0
    6.2373    2.1087   -0.1271 H   0  0  0  0  0  0  0  0  0  0  0  0
    5.5988    0.6149    0.5768 H   0  0  0  0  0  0  0  0  0  0  0  0
    5.0943    1.1136   -1.0463 H   0  0  0  0  0  0  0  0  0  0  0  0
   -0.8681    2.2806    1.0846 H   0  0  0  0  0  0  0  0  0  0  0  0
   -1.7910    3.3025    0.0160 H   0  0  0  0  0  0  0  0  0  0  0  0
   -0.5264   -1.8021   -1.4705 H   0  0  0  0  0  0  0  0  0  0  0  0
   -5.3950   -2.8465    0.6172 H   0  0  0  0  0  0  0  0  0  0  0  0
   -5.8467    1.9870   -0.4303 H   0  0  0  0  0  0  0  0  0  0  0  0
   -7.5938   -1.7456    0.7630 H   0  0  0  0  0  0  0  0  0  0  0  0
   -7.8212    0.6665    0.2406 H   0  0  0  0  0  0  0  0  0  0  0  0
    1.6838   -2.3830    2.4002 H   0  0  0  0  0  0  0  0  0  0  0  0
    1.4787   -1.4421   -1.8147 H   0  0  0  0  0  0  0  0  0  0  0  0
    3.9399   -3.3093    2.0661 H   0  0  0  0  0  0  0  0  0  0  0  0
    3.6480   -2.3613   -2.1527 H   0  0  0  0  0  0  0  0  0  0  0  0
    6.7343   -3.8551   -1.5267 H   0  0  0  0  0  0  0  0  0  0  0  0
    5.1360   -4.0173   -2.2463 H   0  0  0  0  0  0  0  0  0  0  0  0
    5.8624   -2.3799   -1.9293 H   0  0  0  0  0  0  0  0  0  0  0  0
  1 17  1  0  0  0  0
  1 18  1  0  0  0  0
  2 16  2  0  0  0  0
  3 21  2  0  0  0  0
  4 24  2  0  0  0  0
  5 32  1  0  0  0  0
  5 33  1  0  0  0  0
  6 13  1  0  0  0  0
  6 14  1  0  0  0  0
  6 16  1  0  0  0  0
  7  9  1  0  0  0  0
  7 18  1  0  0  0  0
  7 21  1  0  0  0  0
  8 18  2  0  0  0  0
  8 20  1  0  0  0  0
  9 24  1  0  0  0  0
  9 48  1  0  0  0  0
 10 11  1  0  0  0  0
 10 12  1  0  0  0  0
 10 15  1  0  0  0  0
 10 34  1  0  0  0  0
 11 13  1  0  0  0  0
 11 35  1  0  0  0  0
 11 36  1  0  0  0  0
 12 14  1  0  0  0  0
 12 37  1  0  0  0  0
 12 38  1  0  0  0  0
 13 39  1  0  0  0  0
 13 40  1  0  0  0  0
 14 41  1  0  0  0  0
 14 42  1  0  0  0  0
 15 43  1  0  0  0  0
 15 44  1  0  0  0  0
 15 45  1  0  0  0  0
 16 17  1  0  0  0  0
 17 46  1  0  0  0  0
 17 47  1  0  0  0  0
 19 20  1  0  0  0  0
 19 21  1  0  0  0  0
 19 22  2  0  0  0  0
 20 23  2  0  0  0  0
 22 25  1  0  0  0  0
 22 49  1  0  0  0  0
 23 26  1  0  0  0  0
 23 50  1  0  0  0  0
 24 27  1  0  0  0  0
 25 26  2  0  0  0  0
 25 51  1  0  0  0  0
 26 52  1  0  0  0  0
 27 28  2  0  0  0  0
 27 29  1  0  0  0  0
 28 30  1  0  0  0  0
 28 53  1  0  0  0  0
 29 31  2  0  0  0  0
 29 54  1  0  0  0  0
 30 32  2  0  0  0  0
 30 55  1  0  0  0  0
 31 32  1  0  0  0  0
 31 56  1  0  0  0  0
 33 57  1  0  0  0  0
 33 58  1  0  0  0  0
 33 59  1  0  0  0  0
M  END
> <PUBCHEM_COMPOUND_CID>
6616230

> <PUBCHEM_CONFORMER_RMSD>
1

> <PUBCHEM_CONFORMER_DIVERSEORDER>
1
162
182
37
134
136
204
11
149
167
100
154
110
64
142
75
170
7
95
189
131
33
197
56
190
65
161
32
159
165
151
195
112
174
143
185
69
13
166
181
49
188
124
164
23
133
109
79
2
29
179
194
51
163
63
202
127
78
206
168
205
45
68
155
178
171
86
71
121
67
156
138
175
187
184
82
52
120
153
119
114
28
39
83
21
129
172
198
177
88
141
87
145
108
186
118
10
146
46
93
44
80
70
199
180
132
99
30
183
40
31
200
90
12
58
152
60
169
125
77
115
157
192
128
66
137
126
173
73
14
150
160
117
24
122
20
193
140
101
3
107
91
94
196
139
116
144
17
54
59
74
158
15
8
35
176
16
36
203
92
42
81
191
148
38
4
89
47
135
84
76
111
22
50
55
96
41
48
57
103
53
98
6
105
27
123
25
97
201
19
72
18
147
9
106
61
5
26
62
102
34
113
130
85
43
104

> <PUBCHEM_MMFF94_PARTIAL_CHARGES>
38
1 -0.37
13 0.3
14 0.3
16 0.57
17 0.29
18 0.65
19 0.09
2 -0.57
20 0.18
21 0.54
22 -0.15
23 -0.15
24 0.54
25 -0.15
26 -0.15
27 0.09
28 -0.15
29 -0.15
3 -0.57
30 -0.15
31 -0.15
32 0.08
33 0.28
4 -0.57
48 0.37
49 0.15
5 -0.36
50 0.15
51 0.15
52 0.15
53 0.15
54 0.15
55 0.15
56 0.15
6 -0.66
7 -0.12
8 -0.63
9 -0.43

> <PUBCHEM_EFFECTIVE_ROTOR_COUNT>
9.2

> <PUBCHEM_PHARMACOPHORE_FEATURES>
9
1 2 acceptor
1 3 acceptor
1 4 acceptor
1 5 acceptor
1 9 donor
6 19 20 22 23 25 26 rings
6 27 28 29 30 31 32 rings
6 6 10 11 12 13 14 rings
6 7 8 18 19 20 21 rings

> <PUBCHEM_HEAVY_ATOM_COUNT>
33

> <PUBCHEM_ATOM_DEF_STEREO_COUNT>
0

> <PUBCHEM_ATOM_UDEF_STEREO_COUNT>
0

> <PUBCHEM_BOND_DEF_STEREO_COUNT>
0

> <PUBCHEM_BOND_UDEF_STEREO_COUNT>
0

> <PUBCHEM_ISOTOPIC_ATOM_COUNT>
0

> <PUBCHEM_COMPONENT_COUNT>
1

> <PUBCHEM_CACTVS_TAUTO_COUNT>
2

> <PUBCHEM_CONFORMER_ID>
0064F4A600000001

> <PUBCHEM_MMFF94_ENERGY>
90.5745

> <PUBCHEM_FEATURE_SELFOVERLAP>
45.703

> <PUBCHEM_SHAPE_FINGERPRINT>
10050765 1 18338233873768313991
10074138 170 16604018957493672058
1100329 8 17978790108321242649
11513181 2 18199464548932313159
12422481 6 18124560233348010008
12741549 16 17416673653612188443
12788726 201 17973165032524119651
13140716 1 18264201405884683053
13402501 40 18262514913344461528
13785724 45 18340492166496475357
14114211 68 18116172123812408668
14415360 78 17684354068007037781
14790565 3 17975976793136497029
15081414 286 18410008857977158629
15082195 135 18054764412386208591
15400415 2 17690841580793143717
15664445 248 18270691861077342199
15927050 60 18124316270526263983
16112460 7 18341625772313126041
17852330 31 18192456232806925683
17909252 39 18199751354532786042
20028762 73 17691680508111577559
20721686 56 18409730651180143778
21033648 29 17626091307063548160
21133665 82 18050007998632260380
23559900 14 18411695483218436651
244849 19 17968958503274057203
3298306 158 18266457788080365644
3411729 13 18339642346876046185
3737641 26 18409726248865344212
4144715 1 18334300885857033443
469060 322 17981334391022459667
5104073 3 18337685174468739755
5265222 85 17759250978117429172
5385378 56 18268154326243449321
59755656 215 18337107977328367653
70251023 43 18339086969398997570

> <PUBCHEM_SHAPE_MULTIPOLES>
639.57
13.78
6
1.16
15.34
3.86
-0.03
-7
0.51
-9.64
0.39
-0.88
-0.44
1.66

> <PUBCHEM_SHAPE_SELFOVERLAP>
1361.605

> <PUBCHEM_SHAPE_VOLUME>
357

> <PUBCHEM_COORDINATE_TYPE>
2
5
10

$$$$
