646626
  -OEChem-01171809143D

 32 33  0     0  0  0  0  0  0999 V2000
    2.7252   -1.8401   -0.0207 O   0  0  0  0  0  0  0  0  0  0  0  0
    4.5466    0.3929    0.0673 O   0  0  0  0  0  0  0  0  0  0  0  0
   -5.6280    0.2285    0.0568 O   0  0  0  0  0  0  0  0  0  0  0  0
   -4.1806   -1.5668    0.0063 O   0  0  0  0  0  0  0  0  0  0  0  0
   -0.9584    1.2190   -0.0676 N   0  0  0  0  0  0  0  0  0  0  0  0
    2.3027   -0.5365   -0.0157 C   0  0  0  0  0  0  0  0  0  0  0  0
    0.4335    0.9910   -0.0513 C   0  0  0  0  0  0  0  0  0  0  0  0
    3.1857    0.5457    0.0159 C   0  0  0  0  0  0  0  0  0  0  0  0
   -1.9189    0.1594   -0.0723 C   0  0  0  0  0  0  0  0  0  0  0  0
    0.9255   -0.3144   -0.0338 C   0  0  0  0  0  0  0  0  0  0  0  0
    4.1128   -1.9494   -0.3502 C   0  0  0  0  0  0  0  0  0  0  0  0
    4.9207   -0.9368    0.4382 C   0  0  0  0  0  0  0  0  0  0  0  0
    1.3161    2.0718   -0.0476 C   0  0  0  0  0  0  0  0  0  0  0  0
    2.6931    1.8506   -0.0151 C   0  0  0  0  0  0  0  0  0  0  0  0
   -3.3370    0.7173   -0.0278 C   0  0  0  0  0  0  0  0  0  0  0  0
   -4.3973   -0.3630    0.0082 C   0  0  0  0  0  0  0  0  0  0  0  0
   -6.7416   -0.6692    0.1094 C   0  0  0  0  0  0  0  0  0  0  0  0
   -1.8071   -0.4570   -0.9729 H   0  0  0  0  0  0  0  0  0  0  0  0
   -1.7758   -0.4921    0.7990 H   0  0  0  0  0  0  0  0  0  0  0  0
    0.2678   -1.1788   -0.0455 H   0  0  0  0  0  0  0  0  0  0  0  0
    4.2286   -1.8053   -1.4316 H   0  0  0  0  0  0  0  0  0  0  0  0
    4.4341   -2.9663   -0.1045 H   0  0  0  0  0  0  0  0  0  0  0  0
    4.7717   -1.0540    1.5187 H   0  0  0  0  0  0  0  0  0  0  0  0
    5.9880   -1.0538    0.2257 H   0  0  0  0  0  0  0  0  0  0  0  0
   -1.2718    2.1831   -0.0942 H   0  0  0  0  0  0  0  0  0  0  0  0
    0.9428    3.0927   -0.0634 H   0  0  0  0  0  0  0  0  0  0  0  0
    3.3732    2.6979   -0.0030 H   0  0  0  0  0  0  0  0  0  0  0  0
   -3.4588    1.3413    0.8658 H   0  0  0  0  0  0  0  0  0  0  0  0
   -3.5151    1.3410   -0.9118 H   0  0  0  0  0  0  0  0  0  0  0  0
   -7.6574   -0.0732    0.1446 H   0  0  0  0  0  0  0  0  0  0  0  0
   -6.6888   -1.2855    1.0119 H   0  0  0  0  0  0  0  0  0  0  0  0
   -6.7650   -1.2964   -0.7869 H   0  0  0  0  0  0  0  0  0  0  0  0
  1  6  1  0  0  0  0
  1 11  1  0  0  0  0
  2  8  1  0  0  0  0
  2 12  1  0  0  0  0
  3 16  1  0  0  0  0
  3 17  1  0  0  0  0
  4 16  2  0  0  0  0
  5  7  1  0  0  0  0
  5  9  1  0  0  0  0
  5 25  1  0  0  0  0
  6  8  2  0  0  0  0
  6 10  1  0  0  0  0
  7 10  2  0  0  0  0
  7 13  1  0  0  0  0
  8 14  1  0  0  0  0
  9 15  1  0  0  0  0
  9 18  1  0  0  0  0
  9 19  1  0  0  0  0
 10 20  1  0  0  0  0
 11 12  1  0  0  0  0
 11 21  1  0  0  0  0
 11 22  1  0  0  0  0
 12 23  1  0  0  0  0
 12 24  1  0  0  0  0
 13 14  2  0  0  0  0
 13 26  1  0  0  0  0
 14 27  1  0  0  0  0
 15 16  1  0  0  0  0
 15 28  1  0  0  0  0
 15 29  1  0  0  0  0
 17 30  1  0  0  0  0
 17 31  1  0  0  0  0
 17 32  1  0  0  0  0
M  END
> <PUBCHEM_COMPOUND_CID>
646626

> <PUBCHEM_CONFORMER_RMSD>
0.8

> <PUBCHEM_CONFORMER_DIVERSEORDER>
1
16
27
6
28
8
10
31
26
18
4
29
24
30
35
5
13
11
34
37
21
3
14
7
19
25
9
12
15
23
2
22
17
20
36
32
33

> <PUBCHEM_MMFF94_PARTIAL_CHARGES>
21
1 -0.36
10 -0.15
11 0.28
12 0.28
13 -0.15
14 -0.15
15 0.06
16 0.66
17 0.28
2 -0.36
20 0.15
25 0.4
26 0.15
27 0.15
3 -0.43
4 -0.57
5 -0.87
6 0.08
7 0.1
8 0.08
9 0.37

> <PUBCHEM_EFFECTIVE_ROTOR_COUNT>
5.8

> <PUBCHEM_PHARMACOPHORE_FEATURES>
7
1 1 acceptor
1 2 acceptor
1 4 acceptor
1 5 cation
1 5 donor
6 1 2 6 8 11 12 rings
6 6 7 8 10 13 14 rings

> <PUBCHEM_HEAVY_ATOM_COUNT>
17

> <PUBCHEM_ATOM_DEF_STEREO_COUNT>
0

> <PUBCHEM_ATOM_UDEF_STEREO_COUNT>
0

> <PUBCHEM_BOND_DEF_STEREO_COUNT>
0

> <PUBCHEM_BOND_UDEF_STEREO_COUNT>
0

> <PUBCHEM_ISOTOPIC_ATOM_COUNT>
0

> <PUBCHEM_COMPONENT_COUNT>
1

> <PUBCHEM_CACTVS_TAUTO_COUNT>
1

> <PUBCHEM_CONFORMER_ID>
0009DDE200000001

> <PUBCHEM_MMFF94_ENERGY>
52.1435

> <PUBCHEM_FEATURE_SELFOVERLAP>
35.562

> <PUBCHEM_SHAPE_FINGERPRINT>
11806522 49 18408886213781782576
12032990 46 18339080376787163116
12107183 9 17766287479257220961
12236239 1 17917994979743081729
12596602 18 16486967436065078995
13167823 11 18412824707529855271
13533116 47 18343866640933765593
13685833 64 18334861623907474299
13862211 1 18335419011704401362
13955234 65 18340486793461019392
14251764 18 18202850955368480073
14252887 29 17846503595617828758
14341114 176 18412831282950595157
15196674 1 18410856521038039325
15477762 27 18409731746924318204
17834072 33 18412825811114871821
17844677 252 18408610253775662901
17857418 61 18413668020005337839
200 152 18272650147600390689
20028762 73 18272647943839952959
20261772 1 17989481926856070566
20645477 70 18407759239679324902
21267235 1 18341336596259514958
221490 88 18262807392005999859
23402539 116 16298381327587749149
23557571 272 17458619004389080373
23559900 14 18336262456949460169
239999 70 18260830414570625874
26918003 58 18342175579254878449
2871803 45 18113898234432877547
3004659 81 18259703389049918690
33824 294 18408601461808367762
3421961 26 18412260644905812176
4047638 21 10375869680061632476
4214541 1 18410292480854209653
42630746 31 18341612650950685068
465052 167 18343306963291873255
5104073 3 18271238314177002360
6025842 7 18335706104303299428
77779 3 18410012156812468925
9709674 26 18189057662906368939

> <PUBCHEM_SHAPE_MULTIPOLES>
321.39
13.53
1.91
0.61
20.11
0.06
0
-5.72
-0.74
-1.85
0.08
-0.11
-0.02
0.09

> <PUBCHEM_SHAPE_SELFOVERLAP>
670.927

> <PUBCHEM_SHAPE_VOLUME>
181.6

> <PUBCHEM_COORDINATE_TYPE>
2
5
10

$$$$
