9586311
  -OEChem-01171809303D

 36 37  0     0  0  0  0  0  0999 V2000
   -4.1442    2.2187   -1.2175 Cl  0  0  0  0  0  0  0  0  0  0  0  0
   -1.7924   -0.2934   -0.1978 O   0  0  0  0  0  0  0  0  0  0  0  0
    4.6048   -0.0318   -0.0190 N   0  0  0  0  0  0  0  0  0  0  0  0
    5.8763    0.3021    0.4372 N   0  0  0  0  0  0  0  0  0  0  0  0
    8.1769   -0.0387   -0.1437 N   0  0  0  0  0  0  0  0  0  0  0  0
    6.5180   -0.9389   -1.4327 N   0  0  0  0  0  0  0  0  0  0  0  0
   -4.1053   -0.0318    0.3191 C   0  0  0  0  0  0  0  0  0  0  0  0
   -2.7008    0.3079    0.7237 C   0  0  0  0  0  0  0  0  0  0  0  0
   -0.4637   -0.1104    0.0334 C   0  0  0  0  0  0  0  0  0  0  0  0
   -4.8258    0.7790   -0.5529 C   0  0  0  0  0  0  0  0  0  0  0  0
   -4.6774   -1.1884    0.8415 C   0  0  0  0  0  0  0  0  0  0  0  0
   -0.0436    0.6380    1.1329 C   0  0  0  0  0  0  0  0  0  0  0  0
    0.4778   -0.6698   -0.8303 C   0  0  0  0  0  0  0  0  0  0  0  0
    2.2597    0.2676    0.5051 C   0  0  0  0  0  0  0  0  0  0  0  0
    1.3182    0.8271    1.3688 C   0  0  0  0  0  0  0  0  0  0  0  0
    1.8396   -0.4808   -0.5945 C   0  0  0  0  0  0  0  0  0  0  0  0
   -6.1295    0.4304   -0.9057 C   0  0  0  0  0  0  0  0  0  0  0  0
   -5.9811   -1.5368    0.4887 C   0  0  0  0  0  0  0  0  0  0  0  0
   -6.7073   -0.7275   -0.3849 C   0  0  0  0  0  0  0  0  0  0  0  0
    3.6795    0.4657    0.7512 C   0  0  0  0  0  0  0  0  0  0  0  0
    6.8202   -0.1881   -0.3226 C   0  0  0  0  0  0  0  0  0  0  0  0
   -2.5683    1.3950    0.7710 H   0  0  0  0  0  0  0  0  0  0  0  0
   -2.5344   -0.0930    1.7335 H   0  0  0  0  0  0  0  0  0  0  0  0
   -4.1233   -1.8309    1.5205 H   0  0  0  0  0  0  0  0  0  0  0  0
   -0.7157    1.1015    1.8466 H   0  0  0  0  0  0  0  0  0  0  0  0
    0.1561   -1.2533   -1.6886 H   0  0  0  0  0  0  0  0  0  0  0  0
    1.6313    1.4126    2.2296 H   0  0  0  0  0  0  0  0  0  0  0  0
    2.5505   -0.9282   -1.2842 H   0  0  0  0  0  0  0  0  0  0  0  0
   -6.7088    1.0503   -1.5854 H   0  0  0  0  0  0  0  0  0  0  0  0
   -6.4307   -2.4389    0.8933 H   0  0  0  0  0  0  0  0  0  0  0  0
   -7.7223   -0.9992   -0.6596 H   0  0  0  0  0  0  0  0  0  0  0  0
    3.9556    1.0674    1.6373 H   0  0  0  0  0  0  0  0  0  0  0  0
    8.8444   -0.4546   -0.7839 H   0  0  0  0  0  0  0  0  0  0  0  0
    8.5470    0.4928    0.6368 H   0  0  0  0  0  0  0  0  0  0  0  0
    5.5564   -1.1325   -1.6907 H   0  0  0  0  0  0  0  0  0  0  0  0
    7.2454   -1.3223   -2.0264 H   0  0  0  0  0  0  0  0  0  0  0  0
  1 10  1  0  0  0  0
  2  8  1  0  0  0  0
  2  9  1  0  0  0  0
  3  4  1  0  0  0  0
  3 20  2  0  0  0  0
  4 21  2  0  0  0  0
  5 21  1  0  0  0  0
  5 33  1  0  0  0  0
  5 34  1  0  0  0  0
  6 21  1  0  0  0  0
  6 35  1  0  0  0  0
  6 36  1  0  0  0  0
  7  8  1  0  0  0  0
  7 10  1  0  0  0  0
  7 11  2  0  0  0  0
  8 22  1  0  0  0  0
  8 23  1  0  0  0  0
  9 12  2  0  0  0  0
  9 13  1  0  0  0  0
 10 17  2  0  0  0  0
 11 18  1  0  0  0  0
 11 24  1  0  0  0  0
 12 15  1  0  0  0  0
 12 25  1  0  0  0  0
 13 16  2  0  0  0  0
 13 26  1  0  0  0  0
 14 15  2  0  0  0  0
 14 16  1  0  0  0  0
 14 20  1  0  0  0  0
 15 27  1  0  0  0  0
 16 28  1  0  0  0  0
 17 19  1  0  0  0  0
 17 29  1  0  0  0  0
 18 19  2  0  0  0  0
 18 30  1  0  0  0  0
 19 31  1  0  0  0  0
 20 32  1  0  0  0  0
M  END
> <PUBCHEM_COMPOUND_CID>
9586311

> <PUBCHEM_CONFORMER_RMSD>
0.8

> <PUBCHEM_CONFORMER_DIVERSEORDER>
1
21
32
40
34
38
37
44
39
9
2
50
25
45
10
36
14
11
4
41
31
48
43
26
22
47
35
12
52
30
46
29
42
23
5
6
33
3
17
7
16
28
24
18
8
49
19
27
51
13
20
15

> <PUBCHEM_MMFF94_PARTIAL_CHARGES>
34
1 -0.18
10 0.18
11 -0.15
12 -0.15
13 -0.15
14 0.09
15 -0.15
16 -0.15
17 -0.15
18 -0.15
19 -0.15
2 -0.36
20 0.3
21 0.55
24 0.15
25 0.15
26 0.15
27 0.15
28 0.15
29 0.15
3 -0.45
30 0.15
31 0.15
32 0.06
33 0.4
34 0.4
35 0.4
36 0.4
4 -0.45
5 -0.85
6 -0.85
7 -0.14
8 0.42
9 0.08

> <PUBCHEM_EFFECTIVE_ROTOR_COUNT>
5

> <PUBCHEM_PHARMACOPHORE_FEATURES>
7
1 2 acceptor
1 3 acceptor
1 5 donor
1 6 donor
4 4 5 6 21 cation
6 7 10 11 17 18 19 rings
6 9 12 13 14 15 16 rings

> <PUBCHEM_HEAVY_ATOM_COUNT>
21

> <PUBCHEM_ATOM_DEF_STEREO_COUNT>
0

> <PUBCHEM_ATOM_UDEF_STEREO_COUNT>
0

> <PUBCHEM_BOND_DEF_STEREO_COUNT>
1

> <PUBCHEM_BOND_UDEF_STEREO_COUNT>
0

> <PUBCHEM_ISOTOPIC_ATOM_COUNT>
0

> <PUBCHEM_COMPONENT_COUNT>
1

> <PUBCHEM_CACTVS_TAUTO_COUNT>
2

> <PUBCHEM_CONFORMER_ID>
0092468700000001

> <PUBCHEM_MMFF94_ENERGY>
68.2126

> <PUBCHEM_FEATURE_SELFOVERLAP>
35.575

> <PUBCHEM_SHAPE_FINGERPRINT>
10066227 49 18335983048543557066
10087517 78 16805318851744929261
10968037 39 14562528488177659595
11089746 13 16515687753376381421
11315181 36 16732986440446186421
12091667 2 17603307055281562321
12166972 35 17846216682843867392
12236239 1 16370718219597183521
12616971 3 15410889691069296897
13288520 33 18259702324852785443
13533116 47 15791718686682676592
13590594 115 16200433572111008169
13668630 136 17989207053191274511
13685833 64 17275107232489710730
13862211 1 16988844973340198400
1420 363 17918278661858235315
14251764 18 16370720431157194312
14251764 46 18412826893652319722
14849402 71 14188996956171588682
15048467 5 15791731897500704040
15183329 4 17967249780557604096
15348495 7 9943508722497118542
15419008 47 18413383241856873001
15716309 27 15123790686427801936
15849732 13 18410855482251929740
17093844 174 9223228542635765629
18006028 8 16845292744150726656
18681886 176 17531525490107017545
19489759 90 17967812743675417465
20567600 75 18411420574951075822
21150785 3 17458346351000635082
21267235 1 17418097632501359369
21792961 116 18272368629209783321
22224240 67 14692568819585348414
2297311 6 18333730230784971681
23035841 295 14549017689031700053
23081809 10 16877937222582819152
23402539 116 17748820835233343503
23536379 177 17894629236571315120
23557571 272 18408881820463125813
23559900 14 18259978306366137473
3545911 37 18060136552615157527
4325135 7 15430033262582977518
445580 37 17749391438212130509
4463277 17 13479132397792346934
5758199 1 15285357318912697672
58260988 114 16629390532682780127
59755656 215 18341895173588335734
59755656 520 18411410739661156191
6328613 192 15285649815033693142

> <PUBCHEM_SHAPE_MULTIPOLES>
408.25
20.9
1.29
1.16
23.35
0.49
0.06
-2.3
-5.39
-2.84
-0.17
0.72
0.04
1.01

> <PUBCHEM_SHAPE_SELFOVERLAP>
856.731

> <PUBCHEM_SHAPE_VOLUME>
230.6

> <PUBCHEM_COORDINATE_TYPE>
2
5
10

$$$$
