16193680
  -OEChem-01171809463D

 48 50  0     0  0  0  0  0  0999 V2000
    1.8057    2.7519    0.0871 S   0  0  0  0  0  0  0  0  0  0  0  0
   -1.4848   -0.1687    1.5084 O   0  0  0  0  0  0  0  0  0  0  0  0
    4.2017   -1.8027   -1.4181 O   0  0  0  0  0  0  0  0  0  0  0  0
    4.6206    1.8627    1.0646 O   0  0  0  0  0  0  0  0  0  0  0  0
   -1.0208    0.7675   -0.4974 N   0  0  0  0  0  0  0  0  0  0  0  0
    4.8473    0.9728   -1.0705 N   0  0  0  0  0  0  0  0  0  0  0  0
   -3.3590    0.1798    0.1128 C   0  0  0  0  0  0  0  0  0  0  0  0
    0.1147    0.6065    0.2320 C   0  0  0  0  0  0  0  0  0  0  0  0
   -1.9403    0.2894    0.3103 C   0  0  0  0  0  0  0  0  0  0  0  0
   -6.1197   -0.0326   -0.2721 C   0  0  0  0  0  0  0  0  0  0  0  0
   -0.1414    0.0455    1.4415 C   0  0  0  0  0  0  0  0  0  0  0  0
    1.4320    1.0322   -0.3290 C   0  0  0  0  0  0  0  0  0  0  0  0
   -7.5923   -0.1459   -0.4776 C   0  0  0  0  0  0  0  0  0  0  0  0
   -3.9384    0.6193   -1.0808 C   0  0  0  0  0  0  0  0  0  0  0  0
   -4.1683   -0.3665    1.1128 C   0  0  0  0  0  0  0  0  0  0  0  0
   -5.3160    0.5134   -1.2728 C   0  0  0  0  0  0  0  0  0  0  0  0
   -5.5458   -0.4725    0.9207 C   0  0  0  0  0  0  0  0  0  0  0  0
    0.6568   -0.3508    2.6065 C   0  0  0  0  0  0  0  0  0  0  0  0
    3.4112    2.8851   -0.7354 C   0  0  0  0  0  0  0  0  0  0  0  0
   -7.9890   -1.4745   -1.1162 C   0  0  0  0  0  0  0  0  0  0  0  0
    5.7544   -0.1011   -0.7341 C   0  0  0  0  0  0  0  0  0  0  0  0
    4.3545    1.8689   -0.1362 C   0  0  0  0  0  0  0  0  0  0  0  0
    4.9712   -1.3382   -0.4161 C   0  0  0  0  0  0  0  0  0  0  0  0
    4.8818   -2.0976    0.7037 C   0  0  0  0  0  0  0  0  0  0  0  0
    3.9746   -3.1340    0.3786 C   0  0  0  0  0  0  0  0  0  0  0  0
    3.5894   -2.9102   -0.9227 C   0  0  0  0  0  0  0  0  0  0  0  0
    2.2069    0.3671    0.0635 H   0  0  0  0  0  0  0  0  0  0  0  0
    1.4145    0.9217   -1.4187 H   0  0  0  0  0  0  0  0  0  0  0  0
   -8.1139   -0.0330    0.4811 H   0  0  0  0  0  0  0  0  0  0  0  0
   -7.9474    0.6803   -1.1062 H   0  0  0  0  0  0  0  0  0  0  0  0
   -3.3324    1.0480   -1.8755 H   0  0  0  0  0  0  0  0  0  0  0  0
   -3.7596   -0.7210    2.0559 H   0  0  0  0  0  0  0  0  0  0  0  0
   -5.7508    0.8582   -2.2073 H   0  0  0  0  0  0  0  0  0  0  0  0
   -6.1613   -0.9014    1.7072 H   0  0  0  0  0  0  0  0  0  0  0  0
    0.8490   -1.4279    2.5879 H   0  0  0  0  0  0  0  0  0  0  0  0
    0.1340   -0.1119    3.5378 H   0  0  0  0  0  0  0  0  0  0  0  0
    1.6211    0.1663    2.6222 H   0  0  0  0  0  0  0  0  0  0  0  0
    3.8268    3.8829   -0.5648 H   0  0  0  0  0  0  0  0  0  0  0  0
    3.2849    2.7538   -1.8138 H   0  0  0  0  0  0  0  0  0  0  0  0
   -7.5190   -1.5980   -2.0978 H   0  0  0  0  0  0  0  0  0  0  0  0
   -9.0744   -1.5197   -1.2505 H   0  0  0  0  0  0  0  0  0  0  0  0
   -7.6878   -2.3207   -0.4896 H   0  0  0  0  0  0  0  0  0  0  0  0
    6.4029   -0.2761   -1.5983 H   0  0  0  0  0  0  0  0  0  0  0  0
    6.3752    0.1938    0.1181 H   0  0  0  0  0  0  0  0  0  0  0  0
    4.5502    1.0468   -2.0389 H   0  0  0  0  0  0  0  0  0  0  0  0
    5.3937   -1.9417    1.6422 H   0  0  0  0  0  0  0  0  0  0  0  0
    3.6420   -3.9424    1.0135 H   0  0  0  0  0  0  0  0  0  0  0  0
    2.9221   -3.4189   -1.6030 H   0  0  0  0  0  0  0  0  0  0  0  0
  1 12  1  0  0  0  0
  1 19  1  0  0  0  0
  2  9  1  0  0  0  0
  2 11  1  0  0  0  0
  3 23  1  0  0  0  0
  3 26  1  0  0  0  0
  4 22  2  0  0  0  0
  5  8  1  0  0  0  0
  5  9  2  0  0  0  0
  6 21  1  0  0  0  0
  6 22  1  0  0  0  0
  6 45  1  0  0  0  0
  7  9  1  0  0  0  0
  7 14  2  0  0  0  0
  7 15  1  0  0  0  0
  8 11  2  0  0  0  0
  8 12  1  0  0  0  0
 10 13  1  0  0  0  0
 10 16  2  0  0  0  0
 10 17  1  0  0  0  0
 11 18  1  0  0  0  0
 12 27  1  0  0  0  0
 12 28  1  0  0  0  0
 13 20  1  0  0  0  0
 13 29  1  0  0  0  0
 13 30  1  0  0  0  0
 14 16  1  0  0  0  0
 14 31  1  0  0  0  0
 15 17  2  0  0  0  0
 15 32  1  0  0  0  0
 16 33  1  0  0  0  0
 17 34  1  0  0  0  0
 18 35  1  0  0  0  0
 18 36  1  0  0  0  0
 18 37  1  0  0  0  0
 19 22  1  0  0  0  0
 19 38  1  0  0  0  0
 19 39  1  0  0  0  0
 20 40  1  0  0  0  0
 20 41  1  0  0  0  0
 20 42  1  0  0  0  0
 21 23  1  0  0  0  0
 21 43  1  0  0  0  0
 21 44  1  0  0  0  0
 23 24  2  0  0  0  0
 24 25  1  0  0  0  0
 24 46  1  0  0  0  0
 25 26  2  0  0  0  0
 25 47  1  0  0  0  0
 26 48  1  0  0  0  0
M  END
> <PUBCHEM_COMPOUND_CID>
16193680

> <PUBCHEM_CONFORMER_RMSD>
1

> <PUBCHEM_CONFORMER_DIVERSEORDER>
1
29
49
9
61
112
134
140
12
44
133
168
123
118
68
66
75
63
130
90
106
151
36
153
41
5
131
139
171
80
39
37
22
58
47
43
156
154
24
142
160
38
161
6
11
144
28
116
120
20
35
138
124
162
94
132
18
56
117
166
127
78
170
54
31
158
70
115
57
7
88
84
148
169
25
110
4
137
52
59
17
55
122
155
136
19
69
103
85
81
83
152
91
164
30
109
76
45
2
71
62
53
34
125
163
40
104
33
150
10
3
51
108
165
67
74
119
92
8
114
113
129
102
72
143
73
98
128
60
79
100
147
121
135
146
13
101
16
126
26
149
23
50
157
89
15
167
99
27
82
32
65
97
21
86
64
77
42
111
87
107
145
14
159
95
46
96
141
105
93
48

> <PUBCHEM_MMFF94_PARTIAL_CHARGES>
33
1 -0.46
10 -0.14
11 -0.04
12 0.41
13 0.14
14 -0.15
15 -0.15
16 -0.15
17 -0.15
18 0.18
19 0.29
2 -0.28
21 0.48
22 0.57
23 -0.04
24 -0.15
25 -0.15
26 -0.01
3 -0.28
31 0.15
32 0.15
33 0.15
34 0.15
4 -0.57
45 0.37
46 0.15
47 0.15
48 0.15
5 -0.57
6 -0.73
7 0.05
8 0.05
9 0.43

> <PUBCHEM_EFFECTIVE_ROTOR_COUNT>
9

> <PUBCHEM_PHARMACOPHORE_FEATURES>
7
1 20 hydrophobe
1 3 acceptor
1 4 acceptor
1 6 donor
5 2 5 8 9 11 rings
5 3 23 24 25 26 rings
6 7 10 14 15 16 17 rings

> <PUBCHEM_HEAVY_ATOM_COUNT>
26

> <PUBCHEM_ATOM_DEF_STEREO_COUNT>
0

> <PUBCHEM_ATOM_UDEF_STEREO_COUNT>
0

> <PUBCHEM_BOND_DEF_STEREO_COUNT>
0

> <PUBCHEM_BOND_UDEF_STEREO_COUNT>
0

> <PUBCHEM_ISOTOPIC_ATOM_COUNT>
0

> <PUBCHEM_COMPONENT_COUNT>
1

> <PUBCHEM_CACTVS_TAUTO_COUNT>
2

> <PUBCHEM_CONFORMER_ID>
00F7189000000001

> <PUBCHEM_MMFF94_ENERGY>
32.1181

> <PUBCHEM_FEATURE_SELFOVERLAP>
35.522

> <PUBCHEM_SHAPE_FINGERPRINT>
10670039 82 15647331884036011431
10693767 8 18335693923470164187
11408170 132 16806428238319884391
11796584 16 17418096567370601837
11828532 37 16660937659100999000
12838862 33 18410006676988210740
12838863 1 18189046518120857554
13533116 47 18272654549725682280
1361 2 18411984646170880170
14347332 77 18342455898838420261
14681490 219 18334857186368117525
14931854 50 17750813064746912846
15119646 104 18131077008864473055
15183329 4 18410016520177397457
15351334 14 17532348964640848319
15352257 5 18343020030213946279
15483637 11 18121503719936023486
17134984 74 18343020029506947662
19026451 147 18263360301223091482
20157964 124 18410575127987733612
20567600 234 9943517505937249601
20567600 247 18272647965625427943
21285901 2 17894911807002498836
21521239 73 18408038529034880523
22061861 79 18335140886432513663
221357 26 18260546718932819061
2215653 11 18186524310373817392
23522609 53 17630633243758711945
23559900 14 18260833738580154280
23569914 152 17398074216596647199
3004659 81 17703796920201683988
345986 75 17917430865959304648
3472631 163 15575291998902456172
34797466 226 18187080676648873633
3633792 109 18410007716222213537
4098825 35 18411700942654574357
463206 1 18271243928179078070
513532 50 18186793687155617120
59682541 52 18408318874223975079
59755656 215 17530960293933186105
6669772 16 18259982708296373778
8988823 20 18410577275655588998

> <PUBCHEM_SHAPE_MULTIPOLES>
511.35
19.15
2.86
1.54
26.3
0.44
0.66
6.64
-6.69
-6.75
-0.51
0.17
0.3
0.17

> <PUBCHEM_SHAPE_SELFOVERLAP>
1076.097

> <PUBCHEM_SHAPE_VOLUME>
291.4

> <PUBCHEM_COORDINATE_TYPE>
2
5
10

$$$$
