2118097
  -OEChem-01171809503D

 37 39  0     0  0  0  0  0  0999 V2000
    1.0607    2.3127   -0.5501 S   0  0  0  0  0  0  0  0  0  0  0  0
   -4.2820   -0.4908    0.9991 S   0  0  0  0  0  0  0  0  0  0  0  0
    1.2774    1.9949   -1.9484 O   0  0  0  0  0  0  0  0  0  0  0  0
    1.0262    3.6933   -0.1074 O   0  0  0  0  0  0  0  0  0  0  0  0
    2.1715    1.4492    0.4108 N   0  0  0  0  0  0  0  0  0  0  0  0
    2.3297   -0.3853   -1.0196 N   0  0  0  0  0  0  0  0  0  0  0  0
   -2.7428   -1.2424   -0.9292 N   0  0  0  0  0  0  0  0  0  0  0  0
   -4.6889   -2.5466   -0.6309 N   0  0  0  0  0  0  0  0  0  0  0  0
    3.0170   -1.6324    1.7653 C   0  0  0  0  0  0  0  0  0  0  0  0
    3.0756   -2.8893    0.8985 C   0  0  0  0  0  0  0  0  0  0  0  0
    3.6424   -0.4145    1.0947 C   0  0  0  0  0  0  0  0  0  0  0  0
    2.3190   -2.7818   -0.4256 C   0  0  0  0  0  0  0  0  0  0  0  0
    2.6973    0.1748    0.0776 C   0  0  0  0  0  0  0  0  0  0  0  0
    2.8671   -1.7018   -1.3534 C   0  0  0  0  0  0  0  0  0  0  0  0
   -0.4646    1.5709   -0.0517 C   0  0  0  0  0  0  0  0  0  0  0  0
   -0.9273    0.4601   -0.7427 C   0  0  0  0  0  0  0  0  0  0  0  0
   -1.1585    2.1134    1.0110 C   0  0  0  0  0  0  0  0  0  0  0  0
   -2.1454   -0.1339   -0.3468 C   0  0  0  0  0  0  0  0  0  0  0  0
   -2.8433    0.4205    0.7304 C   0  0  0  0  0  0  0  0  0  0  0  0
   -2.3665    1.5450    1.4230 C   0  0  0  0  0  0  0  0  0  0  0  0
   -3.8643   -1.5161   -0.3047 C   0  0  0  0  0  0  0  0  0  0  0  0
    3.5605   -1.8369    2.6957 H   0  0  0  0  0  0  0  0  0  0  0  0
    1.9762   -1.4247    2.0429 H   0  0  0  0  0  0  0  0  0  0  0  0
    4.1235   -3.1458    0.6989 H   0  0  0  0  0  0  0  0  0  0  0  0
    2.6565   -3.7258    1.4710 H   0  0  0  0  0  0  0  0  0  0  0  0
    4.5919   -0.6688    0.6120 H   0  0  0  0  0  0  0  0  0  0  0  0
    3.8654    0.3371    1.8605 H   0  0  0  0  0  0  0  0  0  0  0  0
    2.4037   -3.7499   -0.9345 H   0  0  0  0  0  0  0  0  0  0  0  0
    1.2518   -2.6164   -0.2334 H   0  0  0  0  0  0  0  0  0  0  0  0
    3.9629   -1.6987   -1.3843 H   0  0  0  0  0  0  0  0  0  0  0  0
    2.5381   -1.9281   -2.3745 H   0  0  0  0  0  0  0  0  0  0  0  0
    2.4880    1.9068    1.2751 H   0  0  0  0  0  0  0  0  0  0  0  0
   -0.3837    0.0357   -1.5802 H   0  0  0  0  0  0  0  0  0  0  0  0
   -0.7859    2.9781    1.5527 H   0  0  0  0  0  0  0  0  0  0  0  0
   -2.9159    1.9658    2.2595 H   0  0  0  0  0  0  0  0  0  0  0  0
   -5.5481   -2.7254   -0.1217 H   0  0  0  0  0  0  0  0  0  0  0  0
   -4.4776   -3.1783   -1.3963 H   0  0  0  0  0  0  0  0  0  0  0  0
  1  3  2  0  0  0  0
  1  4  2  0  0  0  0
  1  5  1  0  0  0  0
  1 15  1  0  0  0  0
  2 19  1  0  0  0  0
  2 21  1  0  0  0  0
  5 13  1  0  0  0  0
  5 32  1  0  0  0  0
  6 13  2  0  0  0  0
  6 14  1  0  0  0  0
  7 18  1  0  0  0  0
  7 21  2  0  0  0  0
  8 21  1  0  0  0  0
  8 36  1  0  0  0  0
  8 37  1  0  0  0  0
  9 10  1  0  0  0  0
  9 11  1  0  0  0  0
  9 22  1  0  0  0  0
  9 23  1  0  0  0  0
 10 12  1  0  0  0  0
 10 24  1  0  0  0  0
 10 25  1  0  0  0  0
 11 13  1  0  0  0  0
 11 26  1  0  0  0  0
 11 27  1  0  0  0  0
 12 14  1  0  0  0  0
 12 28  1  0  0  0  0
 12 29  1  0  0  0  0
 14 30  1  0  0  0  0
 14 31  1  0  0  0  0
 15 16  2  0  0  0  0
 15 17  1  0  0  0  0
 16 18  1  0  0  0  0
 16 33  1  0  0  0  0
 17 20  2  0  0  0  0
 17 34  1  0  0  0  0
 18 19  2  0  0  0  0
 19 20  1  0  0  0  0
 20 35  1  0  0  0  0
M  END
> <PUBCHEM_COMPOUND_CID>
2118097

> <PUBCHEM_CONFORMER_RMSD>
0.6

> <PUBCHEM_CONFORMER_DIVERSEORDER>
1
49
20
24
37
58
32
47
27
75
72
10
21
60
44
35
61
67
31
62
46
63
30
45
74
76
22
69
12
39
4
48
17
50
65
26
13
54
70
19
2
11
16
71
3
55
36
15
25
14
38
59
18
34
9
41
29
40
68
52
56
73
7
23
57
5
28
64
66
33
6
51
8
53
42
43

> <PUBCHEM_MMFF94_PARTIAL_CHARGES>
24
1 1.45
11 0.06
13 0.63
14 0.25
15 -0.01
16 -0.15
17 -0.15
18 0.23
19 0.04
2 -0.08
20 -0.15
21 0.46
3 -0.65
32 0.42
33 0.15
34 0.15
35 0.15
36 0.4
37 0.4
4 -0.65
5 -0.79
6 -0.7
7 -0.57
8 -0.88

> <PUBCHEM_EFFECTIVE_ROTOR_COUNT>
4

> <PUBCHEM_PHARMACOPHORE_FEATURES>
9
1 3 acceptor
1 4 acceptor
1 5 donor
1 6 acceptor
1 8 donor
3 7 8 21 cation
5 2 7 18 19 21 rings
6 15 16 17 18 19 20 rings
7 6 9 10 11 12 13 14 rings

> <PUBCHEM_HEAVY_ATOM_COUNT>
21

> <PUBCHEM_ATOM_DEF_STEREO_COUNT>
0

> <PUBCHEM_ATOM_UDEF_STEREO_COUNT>
0

> <PUBCHEM_BOND_DEF_STEREO_COUNT>
0

> <PUBCHEM_BOND_UDEF_STEREO_COUNT>
0

> <PUBCHEM_ISOTOPIC_ATOM_COUNT>
0

> <PUBCHEM_COMPONENT_COUNT>
1

> <PUBCHEM_CACTVS_TAUTO_COUNT>
4

> <PUBCHEM_CONFORMER_ID>
002051D100000001

> <PUBCHEM_MMFF94_ENERGY>
26.7

> <PUBCHEM_FEATURE_SELFOVERLAP>
45.765

> <PUBCHEM_SHAPE_FINGERPRINT>
10764073 3 11603652645775453518
1100329 8 17764016266249697776
11118852 30 18130222773907660718
11578080 2 18336807758814437333
12363563 72 17749383720356047858
12400797 245 18342165653474778782
12422481 6 17982762700505269057
12553582 1 18410017597955771390
12596599 1 18199189477440331538
12633257 1 17556580937615890274
128993 33 10663519544091228730
13083527 12 18263910185231759768
13533116 47 18264775540191627003
13878862 14 10806562605831648019
13931106 250 17684637736835400676
14178342 30 18199746951468341962
14251757 17 17898257599384201935
14251757 5 16540752989301539894
14251764 38 11670689706112012939
14508693 111 15908790483887340015
14848160 33 18260542351008912795
14863182 85 18264772254124816484
15342168 16 11023828400965227155
17138139 8 16977292679387191407
17818456 19 18128551383706744225
1813 80 18187653470308543741
18981168 100 10734717346059013324
20291156 8 18338241461730379218
20361792 2 17822864060971067692
20442098 301 18200877275122979450
20645477 70 18191299580026432959
20775530 9 18189051997465223610
21421861 104 18341343283112086425
21731516 1 18115315445123997288
2255824 54 18191312778155400660
23184049 29 18193834847597192940
23559900 14 17273163265856749117
23728640 28 17181641889018081304
238 59 17896895445720742634
3797600 57 17274534438476717208
463206 1 17982162624411889767
59682541 52 18051943057471260271
6433294 58 17975977884269342931
7097593 13 18342750602145461369

> <PUBCHEM_SHAPE_MULTIPOLES>
408.21
7.85
3.65
1.49
3.85
0.7
-0.07
-6.86
-1.46
-0.98
0.39
-0.6
-0.06
-1.37

> <PUBCHEM_SHAPE_SELFOVERLAP>
846.69

> <PUBCHEM_SHAPE_VOLUME>
233

> <PUBCHEM_COORDINATE_TYPE>
2
5
10

$$$$
