8100181
  -OEChem-01171809393D

 42 43  0     0  0  0  0  0  0999 V2000
    5.7893    1.8492   -0.6098 O   0  0  0  0  0  0  0  0  0  0  0  0
    4.1291   -2.6350   -0.3393 O   0  0  0  0  0  0  0  0  0  0  0  0
    6.2295   -0.8809   -0.7665 O   0  0  0  0  0  0  0  0  0  0  0  0
   -1.4177    2.1746    1.0038 O   0  0  0  0  0  0  0  0  0  0  0  0
   -6.1230    2.0203   -0.5668 O   0  5  0  0  0  0  0  0  0  0  0  0
   -7.1653    0.0899   -0.6455 O   0  0  0  0  0  0  0  0  0  0  0  0
   -6.1279    0.7706   -0.4668 N   0  3  0  0  0  0  0  0  0  0  0  0
   -2.5592    0.2219    0.3806 C   0  0  0  0  0  0  0  0  0  0  0  0
    2.4561    0.5684    0.1012 C   0  0  0  0  0  0  0  0  0  0  0  0
   -4.8719   -1.2862   -0.0178 C   0  0  0  0  0  0  0  0  0  0  0  0
   -4.9154    0.1027   -0.1400 C   0  0  0  0  0  0  0  0  0  0  0  0
   -3.7589    0.8568    0.0591 C   0  0  0  0  0  0  0  0  0  0  0  0
   -2.5159   -1.1669    0.5028 C   0  0  0  0  0  0  0  0  0  0  0  0
   -3.6722   -1.9210    0.3037 C   0  0  0  0  0  0  0  0  0  0  0  0
    2.6567   -0.8004    0.0273 C   0  0  0  0  0  0  0  0  0  0  0  0
    3.4941    1.4617   -0.1098 C   0  0  0  0  0  0  0  0  0  0  0  0
    4.7672    0.9728   -0.4024 C   0  0  0  0  0  0  0  0  0  0  0  0
    3.9299   -1.2894   -0.2652 C   0  0  0  0  0  0  0  0  0  0  0  0
   -1.3531    1.0077    0.5884 C   0  0  0  0  0  0  0  0  0  0  0  0
    1.1112    1.0850    0.4101 C   0  0  0  0  0  0  0  0  0  0  0  0
    4.9851   -0.4029   -0.4803 C   0  0  0  0  0  0  0  0  0  0  0  0
   -0.0243    0.3874    0.2595 C   0  0  0  0  0  0  0  0  0  0  0  0
   -6.0932   -2.1232   -0.2236 C   0  0  0  0  0  0  0  0  0  0  0  0
    6.5501    2.2396    0.5317 C   0  0  0  0  0  0  0  0  0  0  0  0
    4.4996   -3.3025    0.8654 C   0  0  0  0  0  0  0  0  0  0  0  0
   -3.7706    1.9403   -0.0367 H   0  0  0  0  0  0  0  0  0  0  0  0
   -1.6132   -1.6990    0.7875 H   0  0  0  0  0  0  0  0  0  0  0  0
    1.8661   -1.5221    0.2098 H   0  0  0  0  0  0  0  0  0  0  0  0
    3.3322    2.5354   -0.0530 H   0  0  0  0  0  0  0  0  0  0  0  0
   -3.6212   -3.0013    0.4113 H   0  0  0  0  0  0  0  0  0  0  0  0
    1.0813    2.1032    0.7909 H   0  0  0  0  0  0  0  0  0  0  0  0
   -0.0258   -0.6065   -0.1687 H   0  0  0  0  0  0  0  0  0  0  0  0
   -6.8671   -1.9105    0.5213 H   0  0  0  0  0  0  0  0  0  0  0  0
   -6.4697   -2.0549   -1.2496 H   0  0  0  0  0  0  0  0  0  0  0  0
   -5.8529   -3.1854   -0.0831 H   0  0  0  0  0  0  0  0  0  0  0  0
    6.8228   -0.1268   -0.9257 H   0  0  0  0  0  0  0  0  0  0  0  0
    6.9993    1.3674    1.0171 H   0  0  0  0  0  0  0  0  0  0  0  0
    5.9187    2.7808    1.2435 H   0  0  0  0  0  0  0  0  0  0  0  0
    7.3509    2.9052    0.1983 H   0  0  0  0  0  0  0  0  0  0  0  0
    5.4442   -2.9065    1.2513 H   0  0  0  0  0  0  0  0  0  0  0  0
    4.6312   -4.3648    0.6420 H   0  0  0  0  0  0  0  0  0  0  0  0
    3.7125   -3.1981    1.6189 H   0  0  0  0  0  0  0  0  0  0  0  0
  1 17  1  0  0  0  0
  1 24  1  0  0  0  0
  2 18  1  0  0  0  0
  2 25  1  0  0  0  0
  3 21  1  0  0  0  0
  3 36  1  0  0  0  0
  4 19  2  0  0  0  0
  5  7  1  0  0  0  0
  6  7  2  0  0  0  0
  7 11  1  0  0  0  0
  8 12  2  0  0  0  0
  8 13  1  0  0  0  0
  8 19  1  0  0  0  0
  9 15  2  0  0  0  0
  9 16  1  0  0  0  0
  9 20  1  0  0  0  0
 10 11  2  0  0  0  0
 10 14  1  0  0  0  0
 10 23  1  0  0  0  0
 11 12  1  0  0  0  0
 12 26  1  0  0  0  0
 13 14  2  0  0  0  0
 13 27  1  0  0  0  0
 14 30  1  0  0  0  0
 15 18  1  0  0  0  0
 15 28  1  0  0  0  0
 16 17  2  0  0  0  0
 16 29  1  0  0  0  0
 17 21  1  0  0  0  0
 18 21  2  0  0  0  0
 19 22  1  0  0  0  0
 20 22  2  0  0  0  0
 20 31  1  0  0  0  0
 22 32  1  0  0  0  0
 23 33  1  0  0  0  0
 23 34  1  0  0  0  0
 23 35  1  0  0  0  0
 24 37  1  0  0  0  0
 24 38  1  0  0  0  0
 24 39  1  0  0  0  0
 25 40  1  0  0  0  0
 25 41  1  0  0  0  0
 25 42  1  0  0  0  0
M  CHG  2   5  -1   7   1
M  END
> <PUBCHEM_COMPOUND_CID>
8100181

> <PUBCHEM_CONFORMER_RMSD>
0.8

> <PUBCHEM_CONFORMER_DIVERSEORDER>
2
42
41
32
12
22
27
7
24
29
20
43
36
44
10
5
31
4
40
23
3
30
26
28
19
25
33
9
8
14
35
6
37
21
34
11
39
1
38
16
17
18
13
15

> <PUBCHEM_MMFF94_PARTIAL_CHARGES>
33
1 -0.36
10 -0.14
11 0.13
12 -0.15
13 -0.15
14 -0.15
15 -0.15
16 -0.15
17 0.08
18 0.08
19 0.47
2 -0.36
20 -0.18
21 0.08
22 -0.14
23 0.14
24 0.28
25 0.28
26 0.15
27 0.15
28 0.15
29 0.15
3 -0.53
30 0.15
31 0.15
32 0.15
36 0.45
4 -0.57
5 -0.52
6 -0.52
7 0.91
8 0.09
9 0.03

> <PUBCHEM_EFFECTIVE_ROTOR_COUNT>
6

> <PUBCHEM_PHARMACOPHORE_FEATURES>
9
1 1 acceptor
1 2 acceptor
1 3 donor
1 4 acceptor
1 5 acceptor
1 5 anion
1 6 acceptor
6 8 10 11 12 13 14 rings
6 9 15 16 17 18 21 rings

> <PUBCHEM_HEAVY_ATOM_COUNT>
25

> <PUBCHEM_ATOM_DEF_STEREO_COUNT>
0

> <PUBCHEM_ATOM_UDEF_STEREO_COUNT>
0

> <PUBCHEM_BOND_DEF_STEREO_COUNT>
1

> <PUBCHEM_BOND_UDEF_STEREO_COUNT>
0

> <PUBCHEM_ISOTOPIC_ATOM_COUNT>
0

> <PUBCHEM_COMPONENT_COUNT>
1

> <PUBCHEM_CACTVS_TAUTO_COUNT>
2

> <PUBCHEM_CONFORMER_ID>
007B995500000002

> <PUBCHEM_MMFF94_ENERGY>
108.4602

> <PUBCHEM_FEATURE_SELFOVERLAP>
45.755

> <PUBCHEM_SHAPE_FINGERPRINT>
10447042 23 18343862216948437780
10595046 47 18411140238087976824
10835480 77 18410852183158454837
11315181 36 17989211486272776945
11719270 70 18411978079708976434
11796584 16 18273218586089681583
12107183 9 17763470517392052872
12236239 1 18335421287387961741
12516196 113 18131353046033084441
12788726 201 17775292629321905825
13073987 5 18410578387957120987
13533116 47 18341891862009859754
13668630 136 17775573026309388838
14251752 14 18335136471433077449
14461889 52 18338231686970376594
14849402 71 10663809794277332826
15183329 4 18409166585046739867
15196674 1 18410857659452455083
15250474 111 18340769217635934858
15348495 7 10879985878582111845
15537594 2 17917149506419164086
16993438 75 17898299543635161362
17492 89 18199756834658114590
17857418 61 18341049631739619602
18222031 100 15769774654225131088
18335252 98 18334862766226460811
19427546 62 18262803012062484844
19958102 18 18114737136610190535
20028762 73 18270398274894620062
20511986 3 18410283735688664078
20645477 70 18412830157917356438
21033650 10 16009310864771040740
21267235 1 18336830901152282219
21279426 13 18337108973850373135
220451 1 18343309175621731201
2215653 11 18272365374178343965
22224240 67 18340202012335241672
23081809 10 17917713470385689761
23522609 53 17914928463025132585
23559900 14 18341888653785919089
239999 70 18201728353885816158
29717793 49 18059862731776479828
300161 21 18334574659160764472
3004659 81 18334857199658616650
335352 9 18341609348795775645
4073 2 18114467850170560138
465052 167 17846785134459840804
504579 68 18341625793429292220
5104073 3 18202285766587104872
5283173 99 18408882902504902917

> <PUBCHEM_SHAPE_MULTIPOLES>
474.29
19.57
2.79
0.8
6.82
1.5
0.05
-0.28
-3.83
-2.55
0.41
-0.2
-0.01
0.11

> <PUBCHEM_SHAPE_SELFOVERLAP>
1017.038

> <PUBCHEM_SHAPE_VOLUME>
263.6

> <PUBCHEM_COORDINATE_TYPE>
2
5
10

$$$$
