4296505
  -OEChem-01171809463D

 33 34  0     0  0  0  0  0  0999 V2000
   -6.6746    0.5559   -0.4221 Cl  0  0  0  0  0  0  0  0  0  0  0  0
   -0.6567   -1.0560    0.1545 S   0  0  0  0  0  0  0  0  0  0  0  0
   -0.5674    1.8864    0.0730 S   0  0  0  0  0  0  0  0  0  0  0  0
   -0.5415   -1.7214    1.4512 O   0  0  0  0  0  0  0  0  0  0  0  0
   -0.2607   -1.7524   -1.0666 O   0  0  0  0  0  0  0  0  0  0  0  0
    2.4551   -1.4413    0.4115 O   0  0  0  0  0  0  0  0  0  0  0  0
    3.9777    0.2877    0.5183 N   0  0  0  0  0  0  0  0  0  0  0  0
    1.9214    2.0864    0.2833 N   0  0  0  0  0  0  0  0  0  0  0  0
    0.8232    2.8157    0.1656 N   0  0  0  0  0  0  0  0  0  0  0  0
   -2.3630   -0.5989   -0.0090 C   0  0  0  0  0  0  0  0  0  0  0  0
    0.2941    0.4074    0.1926 C   0  0  0  0  0  0  0  0  0  0  0  0
    5.1410   -0.5497    0.6147 C   0  0  0  0  0  0  0  0  0  0  0  0
    1.6064    0.7545    0.2967 C   0  0  0  0  0  0  0  0  0  0  0  0
    5.7206   -0.8977   -0.7511 C   0  0  0  0  0  0  0  0  0  0  0  0
    2.6876   -0.2329    0.4213 C   0  0  0  0  0  0  0  0  0  0  0  0
   -2.9015   -0.4637   -1.2735 C   0  0  0  0  0  0  0  0  0  0  0  0
   -3.1122   -0.3893    1.1322 C   0  0  0  0  0  0  0  0  0  0  0  0
    6.1667    0.3307   -1.5312 C   0  0  0  0  0  0  0  0  0  0  0  0
   -4.2431   -0.1042   -1.4019 C   0  0  0  0  0  0  0  0  0  0  0  0
   -4.4538   -0.0299    1.0036 C   0  0  0  0  0  0  0  0  0  0  0  0
   -5.0193    0.1126   -0.2634 C   0  0  0  0  0  0  0  0  0  0  0  0
    4.8827   -1.4694    1.1508 H   0  0  0  0  0  0  0  0  0  0  0  0
    5.8806   -0.0103    1.2162 H   0  0  0  0  0  0  0  0  0  0  0  0
    6.5802   -1.5638   -0.6136 H   0  0  0  0  0  0  0  0  0  0  0  0
    4.9793   -1.4460   -1.3444 H   0  0  0  0  0  0  0  0  0  0  0  0
    4.1090    1.2953    0.5090 H   0  0  0  0  0  0  0  0  0  0  0  0
   -2.3113   -0.6220   -2.1705 H   0  0  0  0  0  0  0  0  0  0  0  0
   -2.6883   -0.4871    2.1266 H   0  0  0  0  0  0  0  0  0  0  0  0
    6.9037    0.9088   -0.9646 H   0  0  0  0  0  0  0  0  0  0  0  0
    6.6282    0.0281   -2.4767 H   0  0  0  0  0  0  0  0  0  0  0  0
    5.3217    0.9849   -1.7670 H   0  0  0  0  0  0  0  0  0  0  0  0
   -4.6701    0.0048   -2.3956 H   0  0  0  0  0  0  0  0  0  0  0  0
   -5.0462    0.1379    1.8995 H   0  0  0  0  0  0  0  0  0  0  0  0
  1 21  1  0  0  0  0
  2  4  2  0  0  0  0
  2  5  2  0  0  0  0
  2 10  1  0  0  0  0
  2 11  1  0  0  0  0
  3  9  1  0  0  0  0
  3 11  1  0  0  0  0
  6 15  2  0  0  0  0
  7 12  1  0  0  0  0
  7 15  1  0  0  0  0
  7 26  1  0  0  0  0
  8  9  2  0  0  0  0
  8 13  1  0  0  0  0
 10 16  2  0  0  0  0
 10 17  1  0  0  0  0
 11 13  2  0  0  0  0
 12 14  1  0  0  0  0
 12 22  1  0  0  0  0
 12 23  1  0  0  0  0
 13 15  1  0  0  0  0
 14 18  1  0  0  0  0
 14 24  1  0  0  0  0
 14 25  1  0  0  0  0
 16 19  1  0  0  0  0
 16 27  1  0  0  0  0
 17 20  2  0  0  0  0
 17 28  1  0  0  0  0
 18 29  1  0  0  0  0
 18 30  1  0  0  0  0
 18 31  1  0  0  0  0
 19 21  2  0  0  0  0
 19 32  1  0  0  0  0
 20 21  1  0  0  0  0
 20 33  1  0  0  0  0
M  END
> <PUBCHEM_COMPOUND_CID>
4296505

> <PUBCHEM_CONFORMER_RMSD>
0.8

> <PUBCHEM_CONFORMER_DIVERSEORDER>
1
39
12
43
37
13
6
18
10
28
30
19
42
34
29
40
22
14
8
9
7
27
11
36
31
20
3
2
38
41
24
35
5
16
15
33
4
26
17
25
21
32
23

> <PUBCHEM_MMFF94_PARTIAL_CHARGES>
24
1 -0.18
10 -0.01
11 -0.02
12 0.3
13 0.14
15 0.72
16 -0.15
17 -0.15
19 -0.15
2 1.37
20 -0.15
21 0.18
26 0.37
27 0.15
28 0.15
3 0.18
32 0.15
33 0.15
4 -0.65
5 -0.65
6 -0.57
7 -0.73
8 -0.23
9 -0.22

> <PUBCHEM_EFFECTIVE_ROTOR_COUNT>
6

> <PUBCHEM_PHARMACOPHORE_FEATURES>
7
1 18 hydrophobe
1 4 acceptor
1 5 acceptor
1 6 acceptor
1 7 donor
5 3 8 9 11 13 rings
6 10 16 17 19 20 21 rings

> <PUBCHEM_HEAVY_ATOM_COUNT>
21

> <PUBCHEM_ATOM_DEF_STEREO_COUNT>
0

> <PUBCHEM_ATOM_UDEF_STEREO_COUNT>
0

> <PUBCHEM_BOND_DEF_STEREO_COUNT>
0

> <PUBCHEM_BOND_UDEF_STEREO_COUNT>
0

> <PUBCHEM_ISOTOPIC_ATOM_COUNT>
0

> <PUBCHEM_COMPONENT_COUNT>
1

> <PUBCHEM_CACTVS_TAUTO_COUNT>
2

> <PUBCHEM_CONFORMER_ID>
00418F3900000001

> <PUBCHEM_MMFF94_ENERGY>
21.8976

> <PUBCHEM_FEATURE_SELFOVERLAP>
35.538

> <PUBCHEM_SHAPE_FINGERPRINT>
10366900 7 17458332057998125723
10906281 52 18338817649099963456
12011746 2 18411140225065651958
12166972 35 17774718753404427393
12236239 1 17704067417695380453
12403259 415 17822279207143308013
12553582 1 18410567388567072378
12788726 201 18262796264210128856
13533116 47 14692575399538802910
13862211 1 18412538795656885490
14115302 16 17894638084346557918
15048467 5 16950285113402189734
15099037 51 18410291428017237150
15183329 4 17775570823297185742
15475509 8 18129962078241073932
17834072 8 18411419513888178189
18186145 218 18261660571745910009
18222031 100 18201998828992404048
19141452 34 17775280595245730214
192875 21 18131633413367227465
19489759 90 15267346214817055587
200 152 17989201551285193537
20612939 158 18409730702720121429
20681677 155 14707209924636396801
20735858 18 9295287231563384364
20871999 31 18261676982979835620
21033648 29 17604409874213881277
21236236 1 18341052900125686600
21267235 1 18343024406658331483
21279426 13 17972308521777016911
21285901 2 18200319810269894846
21641784 216 18041854908873036860
21709351 56 18341038697433099989
22079108 93 11891336460898823838
23175994 123 18334577949153224853
23402539 116 14692569910179961491
23559900 14 18338514261485406688
23569943 247 17772483291409933742
2916195 48 13118002223445052414
29717793 49 17275385413015658220
3004659 81 17749104449415407106
314173 85 18272368672671237376
335352 9 18411979173959987133
347723 3 18343579633843901371
34797466 226 16515410646655951254
474 4 18342737434118376243
59682541 35 8862648106062549276
59755656 215 17988644056119677407
9971528 1 18130781296060932296

> <PUBCHEM_SHAPE_MULTIPOLES>
409.19
13.82
1.8
1.23
3.78
0.99
-0.21
-0.77
-4.02
0.8
0.18
-0.12
-0.27
0.04

> <PUBCHEM_SHAPE_SELFOVERLAP>
826.352

> <PUBCHEM_SHAPE_VOLUME>
240.6

> <PUBCHEM_COORDINATE_TYPE>
2
5
10

$$$$
