1474463
  -OEChem-01171809273D

 30 31  0     0  0  0  0  0  0999 V2000
   -4.5996    1.8380   -1.7387 Cl  0  0  0  0  0  0  0  0  0  0  0  0
   -5.6766    1.8692    1.3644 Cl  0  0  0  0  0  0  0  0  0  0  0  0
    4.5877    2.7113    0.2506 F   0  0  0  0  0  0  0  0  0  0  0  0
    3.0527    2.6117   -1.2783 F   0  0  0  0  0  0  0  0  0  0  0  0
    2.4889    2.7777    0.8153 F   0  0  0  0  0  0  0  0  0  0  0  0
   -0.1764   -1.3740    0.0040 O   0  0  0  0  0  0  0  0  0  0  0  0
    0.8780   -3.2828   -0.7336 O   0  0  0  0  0  0  0  0  0  0  0  0
   -2.5362   -0.2064   -2.0426 O   0  0  0  0  0  0  0  0  0  0  0  0
   -2.4871   -1.0213    0.1241 N   0  0  0  0  0  0  0  0  0  0  0  0
   -2.9470   -0.9940    1.4102 N   0  0  0  0  0  0  0  0  0  0  0  0
    2.1573   -1.3968   -0.0317 C   0  0  0  0  0  0  0  0  0  0  0  0
    3.3390    0.6764    0.0977 C   0  0  0  0  0  0  0  0  0  0  0  0
   -1.4510   -1.9844   -0.2119 C   0  0  0  0  0  0  0  0  0  0  0  0
    2.1585   -0.0224   -0.1556 C   0  0  0  0  0  0  0  0  0  0  0  0
    3.2852   -2.1028    0.3344 C   0  0  0  0  0  0  0  0  0  0  0  0
    4.4924   -0.0147    0.4693 C   0  0  0  0  0  0  0  0  0  0  0  0
    0.9012   -2.1412   -0.3005 C   0  0  0  0  0  0  0  0  0  0  0  0
    4.4654   -1.4042    0.5877 C   0  0  0  0  0  0  0  0  0  0  0  0
   -2.9521   -0.1812   -0.8835 C   0  0  0  0  0  0  0  0  0  0  0  0
    3.3683    2.1621   -0.0277 C   0  0  0  0  0  0  0  0  0  0  0  0
   -4.0149    0.7911   -0.4979 C   0  0  0  0  0  0  0  0  0  0  0  0
   -4.4671    0.8222    0.7549 C   0  0  0  0  0  0  0  0  0  0  0  0
   -3.8664   -0.1335    1.6893 C   0  0  0  0  0  0  0  0  0  0  0  0
   -1.5443   -2.2909   -1.2598 H   0  0  0  0  0  0  0  0  0  0  0  0
   -1.5610   -2.8603    0.4380 H   0  0  0  0  0  0  0  0  0  0  0  0
    1.2728    0.5299   -0.4573 H   0  0  0  0  0  0  0  0  0  0  0  0
    3.2757   -3.1842    0.4332 H   0  0  0  0  0  0  0  0  0  0  0  0
    5.4212    0.5118    0.6712 H   0  0  0  0  0  0  0  0  0  0  0  0
    5.3633   -1.9421    0.8779 H   0  0  0  0  0  0  0  0  0  0  0  0
   -4.2454   -0.1021    2.7243 H   0  0  0  0  0  0  0  0  0  0  0  0
  1 21  1  0  0  0  0
  2 22  1  0  0  0  0
  3 20  1  0  0  0  0
  4 20  1  0  0  0  0
  5 20  1  0  0  0  0
  6 13  1  0  0  0  0
  6 17  1  0  0  0  0
  7 17  2  0  0  0  0
  8 19  2  0  0  0  0
  9 10  1  0  0  0  0
  9 13  1  0  0  0  0
  9 19  1  0  0  0  0
 10 23  2  0  0  0  0
 11 14  2  0  0  0  0
 11 15  1  0  0  0  0
 11 17  1  0  0  0  0
 12 14  1  0  0  0  0
 12 16  2  0  0  0  0
 12 20  1  0  0  0  0
 13 24  1  0  0  0  0
 13 25  1  0  0  0  0
 14 26  1  0  0  0  0
 15 18  2  0  0  0  0
 15 27  1  0  0  0  0
 16 18  1  0  0  0  0
 16 28  1  0  0  0  0
 18 29  1  0  0  0  0
 19 21  1  0  0  0  0
 21 22  2  0  0  0  0
 22 23  1  0  0  0  0
 23 30  1  0  0  0  0
M  END
> <PUBCHEM_COMPOUND_CID>
1474463

> <PUBCHEM_CONFORMER_RMSD>
0.8

> <PUBCHEM_CONFORMER_DIVERSEORDER>
1
86
12
58
65
67
105
16
88
46
94
85
97
20
100
99
24
77
59
10
54
57
79
102
7
76
104
90
45
92
62
103
13
101
82
87
98
11
31
55
66
80
68
83
107
27
26
73
6
56
35
39
14
74
78
89
106
9
71
47
29
95
8
63
93
42
84
4
38
41
17
37
25
60
44
34
43
81
15
21
72
50
33
69
64
75
32
3
18
52
91
5
48
53
40
70
61
96
30
2
22
51
28
49
19
23
36

> <PUBCHEM_MMFF94_PARTIAL_CHARGES>
28
1 -0.14
10 -0.51
11 0.09
12 -0.14
13 0.58
14 -0.15
15 -0.15
16 -0.15
17 0.63
18 -0.15
19 0.62
2 -0.14
20 1.16
21 0.15
22 0.15
23 0.38
26 0.15
27 0.15
28 0.15
29 0.15
3 -0.34
30 0.06
4 -0.34
5 -0.34
6 -0.43
7 -0.57
8 -0.57
9 -0.3

> <PUBCHEM_EFFECTIVE_ROTOR_COUNT>
5

> <PUBCHEM_PHARMACOPHORE_FEATURES>
5
1 10 acceptor
1 7 acceptor
1 8 acceptor
6 11 12 14 15 16 18 rings
6 9 10 19 21 22 23 rings

> <PUBCHEM_HEAVY_ATOM_COUNT>
23

> <PUBCHEM_ATOM_DEF_STEREO_COUNT>
0

> <PUBCHEM_ATOM_UDEF_STEREO_COUNT>
0

> <PUBCHEM_BOND_DEF_STEREO_COUNT>
0

> <PUBCHEM_BOND_UDEF_STEREO_COUNT>
0

> <PUBCHEM_ISOTOPIC_ATOM_COUNT>
0

> <PUBCHEM_COMPONENT_COUNT>
1

> <PUBCHEM_CACTVS_TAUTO_COUNT>
1

> <PUBCHEM_CONFORMER_ID>
00167F9F00000001

> <PUBCHEM_MMFF94_ENERGY>
52.1186

> <PUBCHEM_FEATURE_SELFOVERLAP>
25.373

> <PUBCHEM_SHAPE_FINGERPRINT>
11370993 144 18186519873772801395
12403259 118 18412539937733480538
12422481 6 18117248511742548744
12633257 1 18261943085915094650
13402501 40 18042957684343362277
13583140 156 17313649495425072602
14251764 75 18339652255371678432
14576447 43 8430311334050053402
14790565 3 17756429623476487956
14848178 96 18341604958126226928
15003188 100 18335688409095484383
15081414 286 18269276751416228318
151778 21 18335429022830095628
15342168 16 18342746200056949991
15475509 8 18129395817543035998
1601671 61 18409167702102519606
16760501 71 18411428302151051449
17810953 82 18340775866160756984
17834072 32 18412828001179122490
17868525 174 18042676218278111954
20715895 44 18197501723260821905
21033648 144 18335692871128719735
21033648 29 17313372401615223445
21033650 10 15338855143694069131
21315763 76 18270666576904985517
21475661 188 18114737132077774781
21709351 56 18341889671376715518
21860390 5 18200877279718660358
21864079 5 18271814544016041987
22122407 14 18199485276924408553
2838139 119 18193831545385274677
474 4 18342736295419539587
5081480 168 17270899237796353910
5104073 3 18261109694518615402
5252454 2 18266467696480337564
57724786 102 18408892832062927476
602551 16 15936418839965187690
633830 44 18202005429988113622
9971528 1 17988077791026892862

> <PUBCHEM_SHAPE_MULTIPOLES>
427.68
12.33
3.22
1.4
5.95
0.96
0.19
6.76
-2.49
-3.5
0.33
2.27
0.34
0.08

> <PUBCHEM_SHAPE_SELFOVERLAP>
899.928

> <PUBCHEM_SHAPE_VOLUME>
242.8

> <PUBCHEM_COORDINATE_TYPE>
2
5
10

$$$$
