22694
  -OEChem-01171810143D

 36 36  0     0  0  0  0  0  0999 V2000
    1.1549    2.8388    0.2352 Cl  0  0  0  0  0  0  0  0  0  0  0  0
    3.9399    2.4808    0.7860 Cl  0  0  0  0  0  0  0  0  0  0  0  0
    1.0942   -2.0180   -0.8649 Cl  0  0  0  0  0  0  0  0  0  0  0  0
    6.0389   -0.1748    0.6696 Cl  0  0  0  0  0  0  0  0  0  0  0  0
    4.3230   -2.8876   -0.3258 Cl  0  0  0  0  0  0  0  0  0  0  0  0
   -0.4897    0.4713   -1.7678 O   0  0  0  0  0  0  0  0  0  0  0  0
   -4.6010   -0.2448    0.0449 N   0  0  0  0  0  0  0  0  0  0  0  0
   -0.9229    0.0104    0.4544 N   0  0  0  0  0  0  0  0  0  0  0  0
   -3.3127    0.3911    0.2906 C   0  0  0  0  0  0  0  0  0  0  0  0
   -5.6772    0.7480    0.0573 C   0  0  0  0  0  0  0  0  0  0  0  0
   -4.8606   -1.2864    1.0407 C   0  0  0  0  0  0  0  0  0  0  0  0
   -2.1932   -0.6406    0.2365 C   0  0  0  0  0  0  0  0  0  0  0  0
   -5.4285    1.8398   -0.9695 C   0  0  0  0  0  0  0  0  0  0  0  0
   -6.1701   -2.0027    0.7572 C   0  0  0  0  0  0  0  0  0  0  0  0
   -0.1644    0.5206   -0.5832 C   0  0  0  0  0  0  0  0  0  0  0  0
    1.1168    1.1580   -0.1498 C   0  0  0  0  0  0  0  0  0  0  0  0
    2.2302    0.4210   -0.0616 C   0  0  0  0  0  0  0  0  0  0  0  0
    3.5516    0.8881    0.3429 C   0  0  0  0  0  0  0  0  0  0  0  0
    2.3553   -1.0031   -0.3514 C   0  0  0  0  0  0  0  0  0  0  0  0
    4.3790   -0.1681    0.2948 C   0  0  0  0  0  0  0  0  0  0  0  0
    3.6364   -1.3420   -0.1361 C   0  0  0  0  0  0  0  0  0  0  0  0
   -3.2979    0.9129    1.2572 H   0  0  0  0  0  0  0  0  0  0  0  0
   -3.0837    1.1361   -0.4790 H   0  0  0  0  0  0  0  0  0  0  0  0
   -6.6293    0.2875   -0.2256 H   0  0  0  0  0  0  0  0  0  0  0  0
   -5.8078    1.1988    1.0492 H   0  0  0  0  0  0  0  0  0  0  0  0
   -4.1061   -2.0761    0.9956 H   0  0  0  0  0  0  0  0  0  0  0  0
   -4.8660   -0.8877    2.0629 H   0  0  0  0  0  0  0  0  0  0  0  0
   -2.1774   -1.1607   -0.7278 H   0  0  0  0  0  0  0  0  0  0  0  0
   -2.2512   -1.3818    1.0368 H   0  0  0  0  0  0  0  0  0  0  0  0
   -4.6595    2.5496   -0.6493 H   0  0  0  0  0  0  0  0  0  0  0  0
   -5.1518    1.4268   -1.9457 H   0  0  0  0  0  0  0  0  0  0  0  0
   -6.3459    2.4223   -1.1123 H   0  0  0  0  0  0  0  0  0  0  0  0
   -7.0434   -1.3987    1.0219 H   0  0  0  0  0  0  0  0  0  0  0  0
   -6.2499   -2.3040   -0.2929 H   0  0  0  0  0  0  0  0  0  0  0  0
   -6.2285   -2.9145    1.3627 H   0  0  0  0  0  0  0  0  0  0  0  0
   -0.5878    0.0993    1.4097 H   0  0  0  0  0  0  0  0  0  0  0  0
  1 16  1  0  0  0  0
  2 18  1  0  0  0  0
  3 19  1  0  0  0  0
  4 20  1  0  0  0  0
  5 21  1  0  0  0  0
  6 15  2  0  0  0  0
  7  9  1  0  0  0  0
  7 10  1  0  0  0  0
  7 11  1  0  0  0  0
  8 12  1  0  0  0  0
  8 15  1  0  0  0  0
  8 36  1  0  0  0  0
  9 12  1  0  0  0  0
  9 22  1  0  0  0  0
  9 23  1  0  0  0  0
 10 13  1  0  0  0  0
 10 24  1  0  0  0  0
 10 25  1  0  0  0  0
 11 14  1  0  0  0  0
 11 26  1  0  0  0  0
 11 27  1  0  0  0  0
 12 28  1  0  0  0  0
 12 29  1  0  0  0  0
 13 30  1  0  0  0  0
 13 31  1  0  0  0  0
 13 32  1  0  0  0  0
 14 33  1  0  0  0  0
 14 34  1  0  0  0  0
 14 35  1  0  0  0  0
 15 16  1  0  0  0  0
 16 17  2  0  0  0  0
 17 18  1  0  0  0  0
 17 19  1  0  0  0  0
 18 20  2  0  0  0  0
 19 21  2  0  0  0  0
 20 21  1  0  0  0  0
M  END
> <PUBCHEM_COMPOUND_CID>
22694

> <PUBCHEM_CONFORMER_RMSD>
0.8

> <PUBCHEM_CONFORMER_DIVERSEORDER>
2
21
29
28
24
9
30
26
13
25
6
19
23
11
22
1
18
20
27
12
3
8
17
4
15
16
7
14
5
10

> <PUBCHEM_MMFF94_PARTIAL_CHARGES>
19
1 -0.14
10 0.27
11 0.27
12 0.3
15 0.62
16 0.15
18 0.14
19 0.14
2 -0.14
20 0.14
21 0.14
3 -0.14
36 0.37
4 -0.14
5 -0.14
6 -0.57
7 -0.81
8 -0.73
9 0.27

> <PUBCHEM_EFFECTIVE_ROTOR_COUNT>
7

> <PUBCHEM_PHARMACOPHORE_FEATURES>
4
1 6 acceptor
1 7 cation
1 8 donor
5 17 18 19 20 21 rings

> <PUBCHEM_HEAVY_ATOM_COUNT>
21

> <PUBCHEM_ATOM_DEF_STEREO_COUNT>
0

> <PUBCHEM_ATOM_UDEF_STEREO_COUNT>
0

> <PUBCHEM_BOND_DEF_STEREO_COUNT>
0

> <PUBCHEM_BOND_UDEF_STEREO_COUNT>
0

> <PUBCHEM_ISOTOPIC_ATOM_COUNT>
0

> <PUBCHEM_COMPONENT_COUNT>
1

> <PUBCHEM_CACTVS_TAUTO_COUNT>
2

> <PUBCHEM_CONFORMER_ID>
000058A600000002

> <PUBCHEM_MMFF94_ENERGY>
71.4851

> <PUBCHEM_FEATURE_SELFOVERLAP>
20.297

> <PUBCHEM_SHAPE_FINGERPRINT>
10411042 1 18053948356047577046
11045977 3 18408888420978533691
11089746 13 16845282860998650008
11545043 162 18113620106021830089
11578080 2 14275178868216773716
11796584 16 17894630331566735131
12107183 9 17840036134699469537
12236239 1 17203603787727064412
12507560 40 18409449228275783861
12616971 3 17131833166440231271
13140716 1 18198047279202913826
13533116 47 18343306984777194243
13583140 156 18272083925103371029
13675066 3 18334859441742236925
14341114 176 18271814526978695099
14573314 32 18261110738622831773
14790565 3 17688594183927143764
15196674 1 18409732854857159955
15475509 35 17386266737514460960
15475509 84 17774724147883676480
15788980 27 18060136544589394063
16945 1 18270665521102393652
17349148 13 16988570104223746389
17844677 252 18409737278884536505
1813 80 17022903466886281021
18785283 64 18190742135968631020
20645477 70 18410858763132352154
21065201 7 17894629249688397065
21197605 99 18196659716070957011
21267235 1 18342183258856863598
21279426 13 18191020097846073405
21315763 129 18335137613846989945
21637258 2 16370711631191185242
22224240 67 18201428208586172874
23402539 116 18040149622114186959
23557571 272 17530960250920372500
23559900 14 18410570678385680449
239999 70 18113900489918345186
26918003 58 18410855456186674545
2748010 2 17911505512425049772
33824 294 18411700989519335018
3421961 26 18412263913555045130
4073 2 18114467837602052531
4214541 1 18335140895565890505
4340502 62 18131071575578057866
465052 167 18271813389213613334
5104073 3 18412549790899472219
59755656 215 17894345567462843883
8272917 22 18201725045806164012
9709674 26 18334866068972025747
9995097 60 18410290294483585093

> <PUBCHEM_SHAPE_MULTIPOLES>
425.69
14.74
2.78
1
16.24
0.11
0.16
-3.07
-3.16
-1.68
-0.03
0.44
0
2.03

> <PUBCHEM_SHAPE_SELFOVERLAP>
828.615

> <PUBCHEM_SHAPE_VOLUME>
259

> <PUBCHEM_COORDINATE_TYPE>
2
5
10

$$$$
