5857541
  -OEChem-01171809433D

 47 49  0     0  0  0  0  0  0999 V2000
    5.5755    0.8939   -0.8413 S   0  0  0  0  0  0  0  0  0  0  0  0
   -9.1184   -0.6315    0.3028 O   0  0  0  0  0  0  0  0  0  0  0  0
   -3.1772    1.6591   -0.7788 O   0  0  0  0  0  0  0  0  0  0  0  0
    3.1842    2.1758    2.5839 O   0  5  0  0  0  0  0  0  0  0  0  0
    5.0873    1.7390    1.5809 O   0  0  0  0  0  0  0  0  0  0  0  0
    6.9206   -1.3777   -0.1759 N   0  0  0  0  0  0  0  0  0  0  0  0
   -3.5805   -0.4887    0.0435 N   0  0  0  0  0  0  0  0  0  0  0  0
    3.8364    1.8038    1.5812 N   0  3  0  0  0  0  0  0  0  0  0  0
    4.7494   -1.5473    0.0359 N   0  0  0  0  0  0  0  0  0  0  0  0
    5.3179   -2.7516    0.4000 N   0  0  0  0  0  0  0  0  0  0  0  0
   -0.4092   -2.0214    0.5028 N   0  0  0  0  0  0  0  0  0  0  0  0
    1.0056    1.1722   -0.7201 C   0  0  0  0  0  0  0  0  0  0  0  0
    3.7908    1.0173   -0.7540 C   0  0  0  0  0  0  0  0  0  0  0  0
    3.1299    1.4410    0.3989 C   0  0  0  0  0  0  0  0  0  0  0  0
    1.7373    1.5184    0.4159 C   0  0  0  0  0  0  0  0  0  0  0  0
    1.6664    0.7484   -1.8730 C   0  0  0  0  0  0  0  0  0  0  0  0
    3.0590    0.6710   -1.8899 C   0  0  0  0  0  0  0  0  0  0  0  0
   -0.4466    1.2519   -0.7031 C   0  0  0  0  0  0  0  0  0  0  0  0
   -4.9966   -0.5254    0.1093 C   0  0  0  0  0  0  0  0  0  0  0  0
    5.7299   -0.7809   -0.2915 C   0  0  0  0  0  0  0  0  0  0  0  0
   -1.2981    0.2652   -0.3232 C   0  0  0  0  0  0  0  0  0  0  0  0
   -2.7806    0.5663   -0.3817 C   0  0  0  0  0  0  0  0  0  0  0  0
   -5.6210   -1.6735    0.5629 C   0  0  0  0  0  0  0  0  0  0  0  0
   -5.7191    0.5879   -0.2816 C   0  0  0  0  0  0  0  0  0  0  0  0
   -7.7594   -0.5969    0.2380 C   0  0  0  0  0  0  0  0  0  0  0  0
   -7.0139   -1.7096    0.6278 C   0  0  0  0  0  0  0  0  0  0  0  0
   -7.1120    0.5518   -0.2166 C   0  0  0  0  0  0  0  0  0  0  0  0
    8.2467   -0.8739   -0.4398 C   0  0  0  0  0  0  0  0  0  0  0  0
    6.6194   -2.6301    0.2663 C   0  0  0  0  0  0  0  0  0  0  0  0
   -0.8051   -0.9956    0.1316 C   0  0  0  0  0  0  0  0  0  0  0  0
   -9.8185    0.5409   -0.1111 C   0  0  0  0  0  0  0  0  0  0  0  0
    1.1952    1.8460    1.3010 H   0  0  0  0  0  0  0  0  0  0  0  0
    1.1101    0.4752   -2.7665 H   0  0  0  0  0  0  0  0  0  0  0  0
    3.5529    0.3378   -2.7996 H   0  0  0  0  0  0  0  0  0  0  0  0
   -0.8274    2.2130   -1.0423 H   0  0  0  0  0  0  0  0  0  0  0  0
   -3.1323   -1.3482    0.3498 H   0  0  0  0  0  0  0  0  0  0  0  0
   -5.0498   -2.5454    0.8690 H   0  0  0  0  0  0  0  0  0  0  0  0
   -5.2981    1.5133   -0.6439 H   0  0  0  0  0  0  0  0  0  0  0  0
   -7.5128   -2.6071    0.9832 H   0  0  0  0  0  0  0  0  0  0  0  0
   -7.6306    1.4502   -0.5341 H   0  0  0  0  0  0  0  0  0  0  0  0
    8.4293   -0.0145    0.2100 H   0  0  0  0  0  0  0  0  0  0  0  0
    8.3083   -0.5872   -1.4926 H   0  0  0  0  0  0  0  0  0  0  0  0
    8.9814   -1.6555   -0.2291 H   0  0  0  0  0  0  0  0  0  0  0  0
    7.3590   -3.3917    0.4694 H   0  0  0  0  0  0  0  0  0  0  0  0
   -9.6484    0.7581   -1.1711 H   0  0  0  0  0  0  0  0  0  0  0  0
  -10.8879    0.3368    0.0056 H   0  0  0  0  0  0  0  0  0  0  0  0
   -9.5846    1.3969    0.5310 H   0  0  0  0  0  0  0  0  0  0  0  0
  1 13  1  0  0  0  0
  1 20  1  0  0  0  0
  2 25  1  0  0  0  0
  2 31  1  0  0  0  0
  3 22  2  0  0  0  0
  4  8  1  0  0  0  0
  5  8  2  0  0  0  0
  6 20  1  0  0  0  0
  6 28  1  0  0  0  0
  6 29  1  0  0  0  0
  7 19  1  0  0  0  0
  7 22  1  0  0  0  0
  7 36  1  0  0  0  0
  8 14  1  0  0  0  0
  9 10  1  0  0  0  0
  9 20  2  0  0  0  0
 10 29  2  0  0  0  0
 11 30  3  0  0  0  0
 12 15  2  0  0  0  0
 12 16  1  0  0  0  0
 12 18  1  0  0  0  0
 13 14  2  0  0  0  0
 13 17  1  0  0  0  0
 14 15  1  0  0  0  0
 15 32  1  0  0  0  0
 16 17  2  0  0  0  0
 16 33  1  0  0  0  0
 17 34  1  0  0  0  0
 18 21  2  0  0  0  0
 18 35  1  0  0  0  0
 19 23  2  0  0  0  0
 19 24  1  0  0  0  0
 21 22  1  0  0  0  0
 21 30  1  0  0  0  0
 23 26  1  0  0  0  0
 23 37  1  0  0  0  0
 24 27  2  0  0  0  0
 24 38  1  0  0  0  0
 25 26  2  0  0  0  0
 25 27  1  0  0  0  0
 26 39  1  0  0  0  0
 27 40  1  0  0  0  0
 28 41  1  0  0  0  0
 28 42  1  0  0  0  0
 28 43  1  0  0  0  0
 29 44  1  0  0  0  0
 31 45  1  0  0  0  0
 31 46  1  0  0  0  0
 31 47  1  0  0  0  0
M  CHG  2   4  -1   8   1
M  END
> <PUBCHEM_COMPOUND_CID>
5857541

> <PUBCHEM_CONFORMER_RMSD>
1

> <PUBCHEM_CONFORMER_DIVERSEORDER>
1
40
59
53
4
36
64
48
67
61
71
17
23
63
13
66
22
6
27
30
52
69
15
74
26
60
5
9
70
50
47
62
73
41
56
8
49
51
34
20
10
43
39
35
24
21
58
65
14
2
32
33
44
38
46
3
29
54
68
57
42
55
45
72
7
31
11
37
18
28
19
16
12
25

> <PUBCHEM_MMFF94_PARTIAL_CHARGES>
41
1 -0.16
10 -0.34
11 -0.56
12 0.03
13 0.1
14 0.13
15 -0.15
16 -0.15
17 -0.15
18 -0.18
19 0.12
2 -0.36
20 0.24
21 0.08
22 0.62
23 -0.15
24 -0.15
25 0.08
26 -0.15
27 -0.15
28 0.26
29 0.04
3 -0.57
30 0.49
31 0.28
32 0.15
33 0.15
34 0.15
35 0.15
36 0.37
37 0.15
38 0.15
39 0.15
4 -0.52
40 0.15
44 0.15
5 -0.52
6 0.05
7 -0.55
8 0.91
9 -0.34

> <PUBCHEM_EFFECTIVE_ROTOR_COUNT>
8

> <PUBCHEM_PHARMACOPHORE_FEATURES>
12
1 11 acceptor
1 2 acceptor
1 3 acceptor
1 4 acceptor
1 4 anion
1 5 acceptor
1 7 donor
3 6 10 29 cation
3 6 9 20 cation
5 6 9 10 20 29 rings
6 12 13 14 15 16 17 rings
6 19 23 24 25 26 27 rings

> <PUBCHEM_HEAVY_ATOM_COUNT>
31

> <PUBCHEM_ATOM_DEF_STEREO_COUNT>
0

> <PUBCHEM_ATOM_UDEF_STEREO_COUNT>
0

> <PUBCHEM_BOND_DEF_STEREO_COUNT>
1

> <PUBCHEM_BOND_UDEF_STEREO_COUNT>
0

> <PUBCHEM_ISOTOPIC_ATOM_COUNT>
0

> <PUBCHEM_COMPONENT_COUNT>
1

> <PUBCHEM_CACTVS_TAUTO_COUNT>
2

> <PUBCHEM_CONFORMER_ID>
0059610500000001

> <PUBCHEM_MMFF94_ENERGY>
107.682

> <PUBCHEM_FEATURE_SELFOVERLAP>
63.568

> <PUBCHEM_SHAPE_FINGERPRINT>
10 15 17346599698561925469
10162869 55 15697993046971370837
10666366 153 17967525749802810575
11456790 92 17346888857920684875
117089 54 17840878370073123734
11719270 70 18341898480681726343
12166972 35 18187369839090076045
12522641 24 18201714059253629450
12522641 33 17386581284066774820
13008946 282 16988549256110225448
13533116 47 18343017800930000160
13540713 5 14491572501880977300
13617811 41 17167864149819134444
13668630 136 17385445449140634655
13685833 64 18334577928232088070
13782708 43 18413106147566468799
14216079 64 18260267425825563118
15131766 46 17128157653546169993
15183329 4 16153425060651330925
15301273 46 18187362134661882477
15352257 5 18261114071116727919
15475509 35 18411975841893774202
17324776 126 15652368597170855642
19315958 150 18338516451992444152
19841028 212 18187926106992438602
20105231 36 16370733634582878193
20511986 3 13829856768899813285
20812841 46 18131068238208906689
21130935 74 18339926021588584963
21150785 3 11458425743679199791
21781051 124 17749968746716196947
21792934 111 18272082786826599065
23559900 14 18261394519575305509
3004659 81 17313104172022449093
3178227 256 17847061086857753484
439807 62 18260551104484441454
504579 68 15357699691073392829
5104073 3 18060702771012694664
58083652 198 17489309720206039793
9831232 110 18187928335362637662

> <PUBCHEM_SHAPE_MULTIPOLES>
588.45
27.38
2.34
1.3
38.83
1.1
0.43
10.97
1.23
-3.39
0.57
-2.02
-0.91
1.33

> <PUBCHEM_SHAPE_SELFOVERLAP>
1259.303

> <PUBCHEM_SHAPE_VOLUME>
326.4

> <PUBCHEM_COORDINATE_TYPE>
2
5
10

$$$$
