843208
  -OEChem-01171809363D

 36 37  0     0  0  0  0  0  0999 V2000
    0.9247   -0.4047    0.3599 O   0  0  0  0  0  0  0  0  0  0  0  0
    6.2899    0.5804   -0.4297 O   0  0  0  0  0  0  0  0  0  0  0  0
   -3.9431    2.2413    0.1231 O   0  0  0  0  0  0  0  0  0  0  0  0
   -5.7269    0.7765   -0.1120 N   0  0  0  0  0  0  0  0  0  0  0  0
   -6.6568    1.7973   -0.1608 N   0  0  0  0  0  0  0  0  0  0  0  0
   -1.2454   -0.9590   -0.3393 C   0  0  0  0  0  0  0  0  0  0  0  0
    0.1664   -0.7774   -0.7844 C   0  0  0  0  0  0  0  0  0  0  0  0
   -2.1285    0.1206   -0.3617 C   0  0  0  0  0  0  0  0  0  0  0  0
   -3.4487   -0.0497    0.0557 C   0  0  0  0  0  0  0  0  0  0  0  0
   -1.6825   -2.2086    0.1005 C   0  0  0  0  0  0  0  0  0  0  0  0
    2.2583   -0.1597    0.1633 C   0  0  0  0  0  0  0  0  0  0  0  0
   -3.8856   -1.2993    0.4954 C   0  0  0  0  0  0  0  0  0  0  0  0
   -3.0026   -2.3786    0.5178 C   0  0  0  0  0  0  0  0  0  0  0  0
    3.0562    0.2091    1.2406 C   0  0  0  0  0  0  0  0  0  0  0  0
    2.8006   -0.2820   -1.1112 C   0  0  0  0  0  0  0  0  0  0  0  0
   -4.3699    1.0756    0.0331 C   0  0  0  0  0  0  0  0  0  0  0  0
    4.9648    0.3383   -0.2347 C   0  0  0  0  0  0  0  0  0  0  0  0
    4.4139    0.4590    1.0409 C   0  0  0  0  0  0  0  0  0  0  0  0
    4.1582   -0.0322   -1.3108 C   0  0  0  0  0  0  0  0  0  0  0  0
    7.0571    0.9532    0.7141 C   0  0  0  0  0  0  0  0  0  0  0  0
    0.5319   -1.7209   -1.2107 H   0  0  0  0  0  0  0  0  0  0  0  0
    0.1944    0.0058   -1.5534 H   0  0  0  0  0  0  0  0  0  0  0  0
   -1.7812    1.0915   -0.7075 H   0  0  0  0  0  0  0  0  0  0  0  0
   -1.0036   -3.0568    0.1267 H   0  0  0  0  0  0  0  0  0  0  0  0
   -4.8959   -1.4680    0.8561 H   0  0  0  0  0  0  0  0  0  0  0  0
   -3.3404   -3.3501    0.8669 H   0  0  0  0  0  0  0  0  0  0  0  0
    2.6297    0.3038    2.2353 H   0  0  0  0  0  0  0  0  0  0  0  0
    2.2366   -0.5677   -1.9918 H   0  0  0  0  0  0  0  0  0  0  0  0
    4.9823    0.7423    1.9201 H   0  0  0  0  0  0  0  0  0  0  0  0
    4.5833   -0.1284   -2.3062 H   0  0  0  0  0  0  0  0  0  0  0  0
   -6.0765   -0.1667   -0.2442 H   0  0  0  0  0  0  0  0  0  0  0  0
    7.0814    0.1523    1.4609 H   0  0  0  0  0  0  0  0  0  0  0  0
    6.7142    1.9040    1.1362 H   0  0  0  0  0  0  0  0  0  0  0  0
    8.0873    1.1066    0.3765 H   0  0  0  0  0  0  0  0  0  0  0  0
   -7.1472    1.7079   -1.0497 H   0  0  0  0  0  0  0  0  0  0  0  0
   -7.3475    1.6018    0.5627 H   0  0  0  0  0  0  0  0  0  0  0  0
  1  7  1  0  0  0  0
  1 11  1  0  0  0  0
  2 17  1  0  0  0  0
  2 20  1  0  0  0  0
  3 16  2  0  0  0  0
  4  5  1  0  0  0  0
  4 16  1  0  0  0  0
  4 31  1  0  0  0  0
  5 35  1  0  0  0  0
  5 36  1  0  0  0  0
  6  7  1  0  0  0  0
  6  8  2  0  0  0  0
  6 10  1  0  0  0  0
  7 21  1  0  0  0  0
  7 22  1  0  0  0  0
  8  9  1  0  0  0  0
  8 23  1  0  0  0  0
  9 12  2  0  0  0  0
  9 16  1  0  0  0  0
 10 13  2  0  0  0  0
 10 24  1  0  0  0  0
 11 14  2  0  0  0  0
 11 15  1  0  0  0  0
 12 13  1  0  0  0  0
 12 25  1  0  0  0  0
 13 26  1  0  0  0  0
 14 18  1  0  0  0  0
 14 27  1  0  0  0  0
 15 19  2  0  0  0  0
 15 28  1  0  0  0  0
 17 18  2  0  0  0  0
 17 19  1  0  0  0  0
 18 29  1  0  0  0  0
 19 30  1  0  0  0  0
 20 32  1  0  0  0  0
 20 33  1  0  0  0  0
 20 34  1  0  0  0  0
M  END
> <PUBCHEM_COMPOUND_CID>
843208

> <PUBCHEM_CONFORMER_RMSD>
0.8

> <PUBCHEM_CONFORMER_DIVERSEORDER>
2
66
52
10
39
61
46
63
83
74
65
59
40
8
44
41
70
36
67
92
55
85
30
68
88
38
9
95
14
69
26
93
6
60
29
31
45
96
62
81
54
75
84
7
78
43
51
56
12
73
15
42
27
86
18
24
48
58
91
82
16
13
47
33
35
72
28
94
1
25
87
79
19
5
77
3
23
80
64
53
21
17
57
4
20
76
71
37
49
22
34
50
89
32
11
90

> <PUBCHEM_MMFF94_PARTIAL_CHARGES>
31
1 -0.36
10 -0.15
11 0.08
12 -0.15
13 -0.15
14 -0.15
15 -0.15
16 0.54
17 0.08
18 -0.15
19 -0.15
2 -0.36
20 0.28
23 0.15
24 0.15
25 0.15
26 0.15
27 0.15
28 0.15
29 0.15
3 -0.57
30 0.15
31 0.37
35 0.36
36 0.36
4 -0.42
5 -0.73
6 -0.14
7 0.42
8 -0.15
9 0.09

> <PUBCHEM_EFFECTIVE_ROTOR_COUNT>
6

> <PUBCHEM_PHARMACOPHORE_FEATURES>
7
1 1 acceptor
1 2 acceptor
1 3 acceptor
1 4 donor
1 5 donor
6 11 14 15 17 18 19 rings
6 6 8 9 10 12 13 rings

> <PUBCHEM_HEAVY_ATOM_COUNT>
20

> <PUBCHEM_ATOM_DEF_STEREO_COUNT>
0

> <PUBCHEM_ATOM_UDEF_STEREO_COUNT>
0

> <PUBCHEM_BOND_DEF_STEREO_COUNT>
0

> <PUBCHEM_BOND_UDEF_STEREO_COUNT>
0

> <PUBCHEM_ISOTOPIC_ATOM_COUNT>
0

> <PUBCHEM_COMPONENT_COUNT>
1

> <PUBCHEM_CACTVS_TAUTO_COUNT>
2

> <PUBCHEM_CONFORMER_ID>
000CDDC800000002

> <PUBCHEM_MMFF94_ENERGY>
71.2802

> <PUBCHEM_FEATURE_SELFOVERLAP>
37.023

> <PUBCHEM_SHAPE_FINGERPRINT>
10354089 29 16877664552536900364
10411042 1 17905328786703033467
10912923 1 17458624570798323714
11315181 36 17822853202993037006
11796584 16 18413673513775697726
12107183 9 17827628167481493906
12166972 35 12247676084849496730
12236239 1 17676206901038459174
12403259 415 17775000240775494331
12596602 18 17095249124592124857
12616971 3 16588027939583715974
13402501 40 18060134332054184497
14251764 75 17552087199777829065
15183329 4 16128659630598059216
16079462 125 17846773036243908152
17844677 252 18338523065993945744
19489759 90 18412261765913316847
200 152 15430304880451527406
20281389 69 18334854996266768032
20645477 56 18411419510110279515
20645477 70 16701749250412979934
20681677 155 18260548948220981082
21033648 29 17917418869930614736
21065198 48 18113610201115446458
21150785 3 12103842385114833336
21709351 56 16988276599159664956
21792961 116 17846511322765017654
220451 1 17313100870068298202
221357 26 16702018643288224473
23402539 116 18334291011547754646
23536379 177 18335138713864968034
23559900 14 18340500971417011006
2916195 48 18272085058906048472
300161 21 18333446538740044430
3545911 37 18342178860098247983
4073 2 18114186376064501922
4325135 7 9583222956148291794
5104073 3 18186237321007531938
5385378 56 18265339409004247195
542803 24 17749107816263221054
5758199 1 17095524041839361896
59682541 35 18335433370449699673
5969126 39 18128529561226060463
59755656 520 18410567379845743407
6327066 14 18263075540532926925

> <PUBCHEM_SHAPE_MULTIPOLES>
384.02
16.45
1.82
1.01
8.08
0.26
0.03
-9.06
-1.19
-3.71
-0.2
1.19
0.05
0.77

> <PUBCHEM_SHAPE_SELFOVERLAP>
817.626

> <PUBCHEM_SHAPE_VOLUME>
214.3

> <PUBCHEM_COORDINATE_TYPE>
2
5
10

$$$$
