661151
  -OEChem-01171809163D

 51 54  0     0  0  0  0  0  0999 V2000
    6.7384   -0.1057   -0.1483 O   0  0  0  0  0  0  0  0  0  0  0  0
    5.5301    0.3301    1.7719 O   0  0  0  0  0  0  0  0  0  0  0  0
   -7.9371   -0.1147    0.0911 O   0  0  0  0  0  0  0  0  0  0  0  0
    2.1471    0.0815   -0.2637 N   0  0  0  0  0  0  0  0  0  0  0  0
    0.7091   -1.8464   -0.2849 N   0  0  0  0  0  0  0  0  0  0  0  0
   -2.4559    0.6275   -0.0774 N   0  0  0  0  0  0  0  0  0  0  0  0
   -1.7226   -1.6772   -0.1909 N   0  0  0  0  0  0  0  0  0  0  0  0
   -1.9414    1.8709   -0.0491 N   0  0  0  0  0  0  0  0  0  0  0  0
    4.8178    1.2170   -0.3523 C   0  0  0  0  0  0  0  0  0  0  0  0
    4.2828    0.3188   -1.4659 C   0  0  0  0  0  0  0  0  0  0  0  0
    3.6801    1.8895    0.4129 C   0  0  0  0  0  0  0  0  0  0  0  0
    3.2007   -0.6460   -0.9820 C   0  0  0  0  0  0  0  0  0  0  0  0
    2.5862    0.9164    0.8578 C   0  0  0  0  0  0  0  0  0  0  0  0
    0.8698   -0.4906   -0.2393 C   0  0  0  0  0  0  0  0  0  0  0  0
    5.7141    0.4401    0.5672 C   0  0  0  0  0  0  0  0  0  0  0  0
   -0.2886    0.2969   -0.1677 C   0  0  0  0  0  0  0  0  0  0  0  0
   -1.5106   -0.3522   -0.1483 C   0  0  0  0  0  0  0  0  0  0  0  0
   -0.6211    1.6629   -0.1041 C   0  0  0  0  0  0  0  0  0  0  0  0
   -0.5501   -2.3443   -0.2585 C   0  0  0  0  0  0  0  0  0  0  0  0
    7.6750   -0.8777    0.6098 C   0  0  0  0  0  0  0  0  0  0  0  0
   -3.8369    0.4406   -0.0347 C   0  0  0  0  0  0  0  0  0  0  0  0
    8.7428   -1.4108   -0.3214 C   0  0  0  0  0  0  0  0  0  0  0  0
   -4.3559   -0.7099    0.5454 C   0  0  0  0  0  0  0  0  0  0  0  0
   -4.6770    1.4073   -0.5732 C   0  0  0  0  0  0  0  0  0  0  0  0
   -5.7375   -0.8971    0.5878 C   0  0  0  0  0  0  0  0  0  0  0  0
   -6.0587    1.2203   -0.5307 C   0  0  0  0  0  0  0  0  0  0  0  0
   -6.5890    0.0680    0.0498 C   0  0  0  0  0  0  0  0  0  0  0  0
   -8.4114   -1.3154    0.6986 C   0  0  0  0  0  0  0  0  0  0  0  0
    5.4412    2.0080   -0.7899 H   0  0  0  0  0  0  0  0  0  0  0  0
    5.0813   -0.2495   -1.9561 H   0  0  0  0  0  0  0  0  0  0  0  0
    3.8465    0.9629   -2.2415 H   0  0  0  0  0  0  0  0  0  0  0  0
    3.2220    2.6398   -0.2457 H   0  0  0  0  0  0  0  0  0  0  0  0
    4.0602    2.4347    1.2853 H   0  0  0  0  0  0  0  0  0  0  0  0
    2.7884   -1.1576   -1.8611 H   0  0  0  0  0  0  0  0  0  0  0  0
    3.6336   -1.4127   -0.3279 H   0  0  0  0  0  0  0  0  0  0  0  0
    2.9490    0.2679    1.6639 H   0  0  0  0  0  0  0  0  0  0  0  0
    1.7635    1.5004    1.2826 H   0  0  0  0  0  0  0  0  0  0  0  0
    0.0350    2.5217   -0.1015 H   0  0  0  0  0  0  0  0  0  0  0  0
   -0.6263   -3.4256   -0.2966 H   0  0  0  0  0  0  0  0  0  0  0  0
    8.1348   -0.2441    1.3764 H   0  0  0  0  0  0  0  0  0  0  0  0
    7.1539   -1.7124    1.0920 H   0  0  0  0  0  0  0  0  0  0  0  0
    9.4770   -2.0079    0.2264 H   0  0  0  0  0  0  0  0  0  0  0  0
    8.2956   -2.0316   -1.1049 H   0  0  0  0  0  0  0  0  0  0  0  0
    9.2607   -0.5879   -0.8250 H   0  0  0  0  0  0  0  0  0  0  0  0
   -3.7431   -1.4630    1.0290 H   0  0  0  0  0  0  0  0  0  0  0  0
   -4.2935    2.3098   -1.0418 H   0  0  0  0  0  0  0  0  0  0  0  0
   -6.0831   -1.8083    1.0643 H   0  0  0  0  0  0  0  0  0  0  0  0
   -6.7172    1.9742   -0.9535 H   0  0  0  0  0  0  0  0  0  0  0  0
   -8.1477   -1.3600    1.7608 H   0  0  0  0  0  0  0  0  0  0  0  0
   -8.0778   -2.2030    0.1503 H   0  0  0  0  0  0  0  0  0  0  0  0
   -9.5047   -1.2966    0.6413 H   0  0  0  0  0  0  0  0  0  0  0  0
  1 15  1  0  0  0  0
  1 20  1  0  0  0  0
  2 15  2  0  0  0  0
  3 27  1  0  0  0  0
  3 28  1  0  0  0  0
  4 12  1  0  0  0  0
  4 13  1  0  0  0  0
  4 14  1  0  0  0  0
  5 14  2  0  0  0  0
  5 19  1  0  0  0  0
  6  8  1  0  0  0  0
  6 17  1  0  0  0  0
  6 21  1  0  0  0  0
  7 17  1  0  0  0  0
  7 19  2  0  0  0  0
  8 18  2  0  0  0  0
  9 10  1  0  0  0  0
  9 11  1  0  0  0  0
  9 15  1  0  0  0  0
  9 29  1  0  0  0  0
 10 12  1  0  0  0  0
 10 30  1  0  0  0  0
 10 31  1  0  0  0  0
 11 13  1  0  0  0  0
 11 32  1  0  0  0  0
 11 33  1  0  0  0  0
 12 34  1  0  0  0  0
 12 35  1  0  0  0  0
 13 36  1  0  0  0  0
 13 37  1  0  0  0  0
 14 16  1  0  0  0  0
 16 17  2  0  0  0  0
 16 18  1  0  0  0  0
 18 38  1  0  0  0  0
 19 39  1  0  0  0  0
 20 22  1  0  0  0  0
 20 40  1  0  0  0  0
 20 41  1  0  0  0  0
 21 23  2  0  0  0  0
 21 24  1  0  0  0  0
 22 42  1  0  0  0  0
 22 43  1  0  0  0  0
 22 44  1  0  0  0  0
 23 25  1  0  0  0  0
 23 45  1  0  0  0  0
 24 26  2  0  0  0  0
 24 46  1  0  0  0  0
 25 27  2  0  0  0  0
 25 47  1  0  0  0  0
 26 27  1  0  0  0  0
 26 48  1  0  0  0  0
 28 49  1  0  0  0  0
 28 50  1  0  0  0  0
 28 51  1  0  0  0  0
M  END
> <PUBCHEM_COMPOUND_CID>
661151

> <PUBCHEM_CONFORMER_RMSD>
0.8

> <PUBCHEM_CONFORMER_DIVERSEORDER>
1
6
39
44
74
81
33
34
73
38
46
50
58
48
80
3
53
23
12
42
54
61
72
11
22
52
67
19
75
20
57
55
30
8
9
43
77
51
68
21
10
18
13
32
14
83
28
47
17
84
66
78
56
64
59
40
49
7
76
79
60
70
2
27
35
63
65
36
4
85
31
24
26
16
62
37
25
69
15
71
41
82
45
5
29

> <PUBCHEM_MMFF94_PARTIAL_CHARGES>
30
1 -0.43
12 0.37
13 0.37
14 0.41
15 0.66
17 0.11
18 0.14
19 0.47
2 -0.57
20 0.28
21 -0.02
23 -0.15
24 -0.15
25 -0.15
26 -0.15
27 0.08
28 0.28
3 -0.36
38 0.15
39 0.15
4 -0.84
45 0.15
46 0.15
47 0.15
48 0.15
5 -0.62
6 0.59
7 -0.57
8 -0.71
9 0.06

> <PUBCHEM_EFFECTIVE_ROTOR_COUNT>
7.2

> <PUBCHEM_PHARMACOPHORE_FEATURES>
9
1 2 acceptor
1 3 acceptor
1 8 acceptor
3 4 5 14 cation
3 5 7 19 cation
5 6 8 16 17 18 rings
6 21 23 24 25 26 27 rings
6 4 9 10 11 12 13 rings
6 5 7 14 16 17 19 rings

> <PUBCHEM_HEAVY_ATOM_COUNT>
28

> <PUBCHEM_ATOM_DEF_STEREO_COUNT>
0

> <PUBCHEM_ATOM_UDEF_STEREO_COUNT>
0

> <PUBCHEM_BOND_DEF_STEREO_COUNT>
0

> <PUBCHEM_BOND_UDEF_STEREO_COUNT>
0

> <PUBCHEM_ISOTOPIC_ATOM_COUNT>
0

> <PUBCHEM_COMPONENT_COUNT>
1

> <PUBCHEM_CACTVS_TAUTO_COUNT>
1

> <PUBCHEM_CONFORMER_ID>
000A169F00000001

> <PUBCHEM_MMFF94_ENERGY>
87.903

> <PUBCHEM_FEATURE_SELFOVERLAP>
45.893

> <PUBCHEM_SHAPE_FINGERPRINT>
10 15 18335421317611040465
10050765 1 18122063096559952717
10299344 5 17095240315255160176
10835480 77 18336541600618824333
10883706 142 16845574214289254599
11135926 11 18341041957303371455
11456790 92 17775851207167464314
11646440 116 17989208161229832680
11719270 70 18409164394139223850
12166972 35 17385725807352645708
12236239 1 17675926508441083980
12516196 113 18272936038041131169
12730499 353 18131638876048546159
13914758 101 15430308114814862341
14840074 17 13262392280278709761
15131766 46 16590576723464043604
15183329 4 9655582915841276807
15461852 350 14706929562604880731
15849732 13 17821729438328168334
15927050 60 18335978739837213370
18608769 82 18341050817857598267
19611394 137 17968953014632406609
21267235 1 18409450276279556576
21315763 28 18260548935262316965
21521721 280 18059861705358248451
21781051 124 18262252100296207090
21792934 111 18342170072743399457
22149856 69 18269575887809728147
22224240 67 18202281433688061571
22956985 138 17753602447783568242
23559900 14 18271238435174687656
23569917 315 18408893931522502875
3004659 81 18113617889840018440
3009799 131 9439409025588883805
335352 9 18412545423134035612
350125 39 18335698300384190814
3545911 37 18342455929103040870
4093350 32 16630253519279793023
4149490 64 14764634110020120324
4325135 7 17749107794883258757
4340502 62 18343018891567045230
5104073 3 18263367993545837961
59682541 35 18341049717744324489
59755656 215 18410856521766163198
59755656 520 17821723965991973427
6138700 20 18408603647435096336
6669772 16 17917998239112382582

> <PUBCHEM_SHAPE_MULTIPOLES>
533.71
23.58
1.85
0.95
2.26
0.19
-0.06
5.46
-3.26
-0.16
0.07
0.94
-0.04
0.99

> <PUBCHEM_SHAPE_SELFOVERLAP>
1156.88

> <PUBCHEM_SHAPE_VOLUME>
289.2

> <PUBCHEM_COORDINATE_TYPE>
2
5
10

$$$$
