1482680
  -OEChem-01171809273D

 63 66  0     0  0  0  0  0  0999 V2000
   -1.7620   -0.4745    0.7958 S   0  0  0  0  0  0  0  0  0  0  0  0
    6.0603   -1.7291   -0.5596 O   0  0  0  0  0  0  0  0  0  0  0  0
    5.0059   -3.3019    1.4716 O   0  0  0  0  0  0  0  0  0  0  0  0
   -0.1446    6.3435    1.5384 O   0  0  0  0  0  0  0  0  0  0  0  0
    0.3671    0.4421   -0.7262 N   0  0  0  0  0  0  0  0  0  0  0  0
    0.6800   -1.3351    0.8589 N   0  0  0  0  0  0  0  0  0  0  0  0
    2.1578    0.9915   -2.2716 N   0  0  0  0  0  0  0  0  0  0  0  0
   -0.5358    1.4674   -1.2732 C   0  0  0  0  0  0  0  0  0  0  0  0
    2.5779   -0.6087   -0.5490 C   0  0  0  0  0  0  0  0  0  0  0  0
    1.6716    0.3512   -1.2525 C   0  0  0  0  0  0  0  0  0  0  0  0
   -0.0714   -0.4521    0.2667 C   0  0  0  0  0  0  0  0  0  0  0  0
    2.0339   -1.3989    0.4777 C   0  0  0  0  0  0  0  0  0  0  0  0
   -0.4313    2.7649   -0.5252 C   0  0  0  0  0  0  0  0  0  0  0  0
   -2.3946   -1.6604   -0.4030 C   0  0  0  0  0  0  0  0  0  0  0  0
   -3.8655   -1.9176   -0.2248 C   0  0  0  0  0  0  0  0  0  0  0  0
    3.9297   -0.7221   -0.8959 C   0  0  0  0  0  0  0  0  0  0  0  0
    2.8695   -2.3016    1.1469 C   0  0  0  0  0  0  0  0  0  0  0  0
    4.7456   -1.6264   -0.2169 C   0  0  0  0  0  0  0  0  0  0  0  0
   -4.3089   -2.9349    0.6117 C   0  0  0  0  0  0  0  0  0  0  0  0
    4.2172   -2.4148    0.8027 C   0  0  0  0  0  0  0  0  0  0  0  0
   -4.7709   -1.1199   -0.9146 C   0  0  0  0  0  0  0  0  0  0  0  0
   -1.2549    2.9941    0.5706 C   0  0  0  0  0  0  0  0  0  0  0  0
    0.4872    3.7239   -0.9360 C   0  0  0  0  0  0  0  0  0  0  0  0
   -6.1396   -1.3426   -0.7653 C   0  0  0  0  0  0  0  0  0  0  0  0
   -5.6777   -3.1578    0.7607 C   0  0  0  0  0  0  0  0  0  0  0  0
   -6.5932   -2.3615    0.0724 C   0  0  0  0  0  0  0  0  0  0  0  0
   -1.1587    4.1997    1.2656 C   0  0  0  0  0  0  0  0  0  0  0  0
    0.5834    4.9294   -0.2409 C   0  0  0  0  0  0  0  0  0  0  0  0
   -3.3480   -3.8011    1.3579 C   0  0  0  0  0  0  0  0  0  0  0  0
   -0.2394    5.1673    0.8599 C   0  0  0  0  0  0  0  0  0  0  0  0
   -7.1184   -0.4908   -1.5007 C   0  0  0  0  0  0  0  0  0  0  0  0
    6.5227   -0.8871   -1.6137 C   0  0  0  0  0  0  0  0  0  0  0  0
    5.0878   -4.6235    0.9420 C   0  0  0  0  0  0  0  0  0  0  0  0
    0.8171    7.2876    1.0697 C   0  0  0  0  0  0  0  0  0  0  0  0
   -0.3608    1.6371   -2.3419 H   0  0  0  0  0  0  0  0  0  0  0  0
   -1.5807    1.1381   -1.2845 H   0  0  0  0  0  0  0  0  0  0  0  0
   -2.2168   -1.2720   -1.4135 H   0  0  0  0  0  0  0  0  0  0  0  0
   -1.8171   -2.5891   -0.3518 H   0  0  0  0  0  0  0  0  0  0  0  0
    4.2994   -0.0873   -1.6923 H   0  0  0  0  0  0  0  0  0  0  0  0
    2.4653   -2.9229    1.9436 H   0  0  0  0  0  0  0  0  0  0  0  0
   -4.4187   -0.3255   -1.5682 H   0  0  0  0  0  0  0  0  0  0  0  0
   -2.0053    2.2822    0.8884 H   0  0  0  0  0  0  0  0  0  0  0  0
    1.1279    3.5635   -1.7968 H   0  0  0  0  0  0  0  0  0  0  0  0
   -6.0482   -3.9481    1.4082 H   0  0  0  0  0  0  0  0  0  0  0  0
   -7.6571   -2.5463    0.1956 H   0  0  0  0  0  0  0  0  0  0  0  0
    1.4772    1.6124   -2.7050 H   0  0  0  0  0  0  0  0  0  0  0  0
   -2.7573   -4.4092    0.6653 H   0  0  0  0  0  0  0  0  0  0  0  0
   -3.8703   -4.4951    2.0263 H   0  0  0  0  0  0  0  0  0  0  0  0
   -2.6810   -3.2046    1.9874 H   0  0  0  0  0  0  0  0  0  0  0  0
   -1.8081    4.3832    2.1173 H   0  0  0  0  0  0  0  0  0  0  0  0
    1.3167    5.6377   -0.6112 H   0  0  0  0  0  0  0  0  0  0  0  0
   -8.0687   -0.4213   -0.9604 H   0  0  0  0  0  0  0  0  0  0  0  0
   -6.7412    0.5309   -1.6173 H   0  0  0  0  0  0  0  0  0  0  0  0
   -7.3103   -0.9105   -2.4931 H   0  0  0  0  0  0  0  0  0  0  0  0
    7.5874   -1.1023   -1.7530 H   0  0  0  0  0  0  0  0  0  0  0  0
    6.0269   -1.1177   -2.5628 H   0  0  0  0  0  0  0  0  0  0  0  0
    6.4469    0.1728   -1.3475 H   0  0  0  0  0  0  0  0  0  0  0  0
    5.7582   -5.2070    1.5790 H   0  0  0  0  0  0  0  0  0  0  0  0
    4.1017   -5.0988    0.9436 H   0  0  0  0  0  0  0  0  0  0  0  0
    5.4958   -4.6075   -0.0736 H   0  0  0  0  0  0  0  0  0  0  0  0
    0.5832    7.6309    0.0562 H   0  0  0  0  0  0  0  0  0  0  0  0
    1.8372    6.8971    1.1507 H   0  0  0  0  0  0  0  0  0  0  0  0
    0.7570    8.1625    1.7251 H   0  0  0  0  0  0  0  0  0  0  0  0
  1 11  1  0  0  0  0
  1 14  1  0  0  0  0
  2 18  1  0  0  0  0
  2 32  1  0  0  0  0
  3 20  1  0  0  0  0
  3 33  1  0  0  0  0
  4 30  1  0  0  0  0
  4 34  1  0  0  0  0
  5  8  1  0  0  0  0
  5 10  1  0  0  0  0
  5 11  1  0  0  0  0
  6 11  2  0  0  0  0
  6 12  1  0  0  0  0
  7 10  2  0  0  0  0
  7 46  1  0  0  0  0
  8 13  1  0  0  0  0
  8 35  1  0  0  0  0
  8 36  1  0  0  0  0
  9 10  1  0  0  0  0
  9 12  1  0  0  0  0
  9 16  2  0  0  0  0
 12 17  2  0  0  0  0
 13 22  2  0  0  0  0
 13 23  1  0  0  0  0
 14 15  1  0  0  0  0
 14 37  1  0  0  0  0
 14 38  1  0  0  0  0
 15 19  2  0  0  0  0
 15 21  1  0  0  0  0
 16 18  1  0  0  0  0
 16 39  1  0  0  0  0
 17 20  1  0  0  0  0
 17 40  1  0  0  0  0
 18 20  2  0  0  0  0
 19 25  1  0  0  0  0
 19 29  1  0  0  0  0
 21 24  2  0  0  0  0
 21 41  1  0  0  0  0
 22 27  1  0  0  0  0
 22 42  1  0  0  0  0
 23 28  2  0  0  0  0
 23 43  1  0  0  0  0
 24 26  1  0  0  0  0
 24 31  1  0  0  0  0
 25 26  2  0  0  0  0
 25 44  1  0  0  0  0
 26 45  1  0  0  0  0
 27 30  2  0  0  0  0
 27 50  1  0  0  0  0
 28 30  1  0  0  0  0
 28 51  1  0  0  0  0
 29 47  1  0  0  0  0
 29 48  1  0  0  0  0
 29 49  1  0  0  0  0
 31 52  1  0  0  0  0
 31 53  1  0  0  0  0
 31 54  1  0  0  0  0
 32 55  1  0  0  0  0
 32 56  1  0  0  0  0
 32 57  1  0  0  0  0
 33 58  1  0  0  0  0
 33 59  1  0  0  0  0
 33 60  1  0  0  0  0
 34 61  1  0  0  0  0
 34 62  1  0  0  0  0
 34 63  1  0  0  0  0
M  END
> <PUBCHEM_COMPOUND_CID>
1482680

> <PUBCHEM_CONFORMER_RMSD>
1

> <PUBCHEM_CONFORMER_DIVERSEORDER>
6
63
59
55
72
35
28
8
70
58
87
51
39
37
92
49
52
76
75
81
46
7
89
17
69
13
88
80
30
65
45
20
43
48
24
68
47
18
62
21
60
84
31
42
79
61
77
38
66
41
53
95
12
33
3
94
54
14
85
56
32
40
34
4
64
78
29
91
16
11
27
15
57
71
2
36
67
73
22
90
23
19
86
44
50
25
83
1
26
10
5
82
93
9
74

> <PUBCHEM_MMFF94_PARTIAL_CHARGES>
44
1 -0.37
10 0.41
11 0.64
12 0.18
13 -0.14
14 0.37
15 -0.14
16 -0.15
17 -0.15
18 0.08
19 -0.14
2 -0.36
20 0.08
21 -0.15
22 -0.15
23 -0.15
24 -0.14
25 -0.15
26 -0.15
27 -0.15
28 -0.15
29 0.14
3 -0.36
30 0.08
31 0.14
32 0.28
33 0.28
34 0.28
39 0.15
4 -0.36
40 0.15
41 0.15
42 0.15
43 0.15
44 0.15
45 0.15
46 0.4
5 -0.47
50 0.15
51 0.15
6 -0.63
7 -0.85
8 0.51
9 0.09

> <PUBCHEM_EFFECTIVE_ROTOR_COUNT>
8

> <PUBCHEM_PHARMACOPHORE_FEATURES>
10
1 2 acceptor
1 3 acceptor
1 4 acceptor
1 7 donor
3 5 6 11 cation
3 5 7 10 cation
6 13 22 23 27 28 30 rings
6 15 19 21 24 25 26 rings
6 5 6 9 10 11 12 rings
6 9 12 16 17 18 20 rings

> <PUBCHEM_HEAVY_ATOM_COUNT>
34

> <PUBCHEM_ATOM_DEF_STEREO_COUNT>
0

> <PUBCHEM_ATOM_UDEF_STEREO_COUNT>
0

> <PUBCHEM_BOND_DEF_STEREO_COUNT>
0

> <PUBCHEM_BOND_UDEF_STEREO_COUNT>
0

> <PUBCHEM_ISOTOPIC_ATOM_COUNT>
0

> <PUBCHEM_COMPONENT_COUNT>
1

> <PUBCHEM_CACTVS_TAUTO_COUNT>
1

> <PUBCHEM_CONFORMER_ID>
00169FB800000006

> <PUBCHEM_MMFF94_ENERGY>
132.4199

> <PUBCHEM_FEATURE_SELFOVERLAP>
50.876

> <PUBCHEM_SHAPE_FINGERPRINT>
11115154 58 18408041797779136971
11331351 85 18131356306218853567
11411753 29 17845653643793209202
11456790 92 18334586737896003235
11720765 8 18339071688068576801
11763715 3 18338533975110689748
12516196 113 18410290332816979063
12788726 201 18336827481150649555
13540713 5 17897733055450931366
13835254 42 18411979122884518698
13955234 65 18049728717676137899
14068700 675 18187365424416895158
14150023 79 17763178446652024533
15183329 4 18040150713089530623
15198563 99 18270689662053898628
15219462 58 17767086884398515834
15351339 4 17895745210820124627
17980427 26 17765987690249985365
18681886 176 18340486780386518338
20238998 120 18412259553699412225
21120745 212 18339652139681601732
21304303 172 18272376326303075465
21344244 181 8069751870239668360
23559900 14 18337381769030682947
249999 5 17979073013880245929
255183 313 17839476492398763881
3004659 81 17894345592230886287
3534868 343 18335711511878044038
376196 1 16834889431032229613
4058900 60 17547022183209957641
437815 12 18409165528648855103
508180 173 18260258622028797377
57124632 79 17764023962794032673
6058803 2 17899142616435772070
613672 6 18342185461822451847
6697151 62 18268694152166535927
6700243 42 17843711905530219742
79837 15 17762897667169696467
9981440 41 17258503240557663353

> <PUBCHEM_SHAPE_MULTIPOLES>
671
14.09
9.27
1.55
10.9
21.23
0.23
-23.48
3.57
-5.33
-6.06
-0.53
0.33
-0.37

> <PUBCHEM_SHAPE_SELFOVERLAP>
1434.96

> <PUBCHEM_SHAPE_VOLUME>
376.5

> <PUBCHEM_COORDINATE_TYPE>
2
5
10

$$$$
