3159504
  -OEChem-01171809253D

 53 55  0     1  0  0  0  0  0999 V2000
    1.3128    1.9459   -1.2725 O   0  0  0  0  0  0  0  0  0  0  0  0
    3.9904    0.3385    1.9400 O   0  0  0  0  0  0  0  0  0  0  0  0
    2.1010   -2.7570   -1.1250 O   0  0  0  0  0  0  0  0  0  0  0  0
    3.8442    1.0005   -0.2824 N   0  0  0  0  0  0  0  0  0  0  0  0
    1.3242   -1.6392    0.6537 N   0  0  0  0  0  0  0  0  0  0  0  0
    0.7559   -2.4773   -1.3976 N   0  0  0  0  0  0  0  0  0  0  0  0
    1.8437    2.3682   -0.0051 C   0  0  2  0  0  0  0  0  0  0  0  0
    1.2787    3.7549    0.2495 C   0  0  0  0  0  0  0  0  0  0  0  0
   -0.0831    3.6463   -0.3892 C   0  0  0  0  0  0  0  0  0  0  0  0
    0.2105    2.8011   -1.6104 C   0  0  0  0  0  0  0  0  0  0  0  0
    3.3591    2.3300   -0.0432 C   0  0  0  0  0  0  0  0  0  0  0  0
   -4.9541    0.1590    0.3733 C   0  0  0  0  0  0  0  0  0  0  0  0
   -3.5662   -0.3566    0.1974 C   0  0  0  0  0  0  0  0  0  0  0  0
   -5.4515   -0.0424    1.8386 C   0  0  0  0  0  0  0  0  0  0  0  0
   -5.0360    1.6842    0.0546 C   0  0  0  0  0  0  0  0  0  0  0  0
   -6.0402   -0.5137   -0.5305 C   0  0  0  0  0  0  0  0  0  0  0  0
    4.1241    0.1010    0.7426 C   0  0  0  0  0  0  0  0  0  0  0  0
    4.6200   -1.2309    0.2079 C   0  0  0  0  0  0  0  0  0  0  0  0
   -2.5233    0.1748    0.9560 C   0  0  0  0  0  0  0  0  0  0  0  0
   -3.3106   -1.3700   -0.7264 C   0  0  0  0  0  0  0  0  0  0  0  0
    3.7192   -2.3959    0.6173 C   0  0  0  0  0  0  0  0  0  0  0  0
   -0.9679   -1.3208   -0.1330 C   0  0  0  0  0  0  0  0  0  0  0  0
   -1.2246   -0.3070    0.7909 C   0  0  0  0  0  0  0  0  0  0  0  0
   -2.0120   -1.8520   -0.8915 C   0  0  0  0  0  0  0  0  0  0  0  0
    2.3183   -2.2252    0.0880 C   0  0  0  0  0  0  0  0  0  0  0  0
    0.3675   -1.8166   -0.3029 C   0  0  0  0  0  0  0  0  0  0  0  0
    1.4645    1.6664    0.7479 H   0  0  0  0  0  0  0  0  0  0  0  0
    1.2412    4.0100    1.3121 H   0  0  0  0  0  0  0  0  0  0  0  0
    1.8678    4.5216   -0.2682 H   0  0  0  0  0  0  0  0  0  0  0  0
   -0.5325    4.6116   -0.6362 H   0  0  0  0  0  0  0  0  0  0  0  0
   -0.7666    3.1116    0.2809 H   0  0  0  0  0  0  0  0  0  0  0  0
    0.5192    3.4222   -2.4579 H   0  0  0  0  0  0  0  0  0  0  0  0
   -0.6462    2.1937   -1.9158 H   0  0  0  0  0  0  0  0  0  0  0  0
    3.7774    2.7054    0.8969 H   0  0  0  0  0  0  0  0  0  0  0  0
    3.7396    2.9475   -0.8642 H   0  0  0  0  0  0  0  0  0  0  0  0
    3.9689    0.7152   -1.2490 H   0  0  0  0  0  0  0  0  0  0  0  0
   -4.8343    0.5055    2.5591 H   0  0  0  0  0  0  0  0  0  0  0  0
   -6.4821    0.3103    1.9620 H   0  0  0  0  0  0  0  0  0  0  0  0
   -5.4228   -1.1024    2.1171 H   0  0  0  0  0  0  0  0  0  0  0  0
   -6.0613    2.0586    0.1561 H   0  0  0  0  0  0  0  0  0  0  0  0
   -4.4073    2.2773    0.7278 H   0  0  0  0  0  0  0  0  0  0  0  0
   -4.7037    1.8858   -0.9707 H   0  0  0  0  0  0  0  0  0  0  0  0
   -6.1168   -1.5893   -0.3336 H   0  0  0  0  0  0  0  0  0  0  0  0
   -5.8233   -0.3680   -1.5951 H   0  0  0  0  0  0  0  0  0  0  0  0
   -7.0314   -0.0827   -0.3438 H   0  0  0  0  0  0  0  0  0  0  0  0
    5.6282   -1.3862    0.6094 H   0  0  0  0  0  0  0  0  0  0  0  0
    4.7158   -1.2028   -0.8838 H   0  0  0  0  0  0  0  0  0  0  0  0
   -2.6937    0.9654    1.6811 H   0  0  0  0  0  0  0  0  0  0  0  0
   -4.0834   -1.8191   -1.3403 H   0  0  0  0  0  0  0  0  0  0  0  0
    4.1411   -3.3379    0.2489 H   0  0  0  0  0  0  0  0  0  0  0  0
    3.6705   -2.4683    1.7104 H   0  0  0  0  0  0  0  0  0  0  0  0
   -0.4311    0.1274    1.3936 H   0  0  0  0  0  0  0  0  0  0  0  0
   -1.8470   -2.6467   -1.6151 H   0  0  0  0  0  0  0  0  0  0  0  0
  1  7  1  0  0  0  0
  1 10  1  0  0  0  0
  2 17  2  0  0  0  0
  3  6  1  0  0  0  0
  3 25  1  0  0  0  0
  4 11  1  0  0  0  0
  4 17  1  0  0  0  0
  4 36  1  0  0  0  0
  5 25  2  0  0  0  0
  5 26  1  0  0  0  0
  6 26  2  0  0  0  0
  7  8  1  0  0  0  0
  7 11  1  0  0  0  0
  7 27  1  0  0  0  0
  8  9  1  0  0  0  0
  8 28  1  0  0  0  0
  8 29  1  0  0  0  0
  9 10  1  0  0  0  0
  9 30  1  0  0  0  0
  9 31  1  0  0  0  0
 10 32  1  0  0  0  0
 10 33  1  0  0  0  0
 11 34  1  0  0  0  0
 11 35  1  0  0  0  0
 12 13  1  0  0  0  0
 12 14  1  0  0  0  0
 12 15  1  0  0  0  0
 12 16  1  0  0  0  0
 13 19  2  0  0  0  0
 13 20  1  0  0  0  0
 14 37  1  0  0  0  0
 14 38  1  0  0  0  0
 14 39  1  0  0  0  0
 15 40  1  0  0  0  0
 15 41  1  0  0  0  0
 15 42  1  0  0  0  0
 16 43  1  0  0  0  0
 16 44  1  0  0  0  0
 16 45  1  0  0  0  0
 17 18  1  0  0  0  0
 18 21  1  0  0  0  0
 18 46  1  0  0  0  0
 18 47  1  0  0  0  0
 19 23  1  0  0  0  0
 19 48  1  0  0  0  0
 20 24  2  0  0  0  0
 20 49  1  0  0  0  0
 21 25  1  0  0  0  0
 21 50  1  0  0  0  0
 21 51  1  0  0  0  0
 22 23  2  0  0  0  0
 22 24  1  0  0  0  0
 22 26  1  0  0  0  0
 23 52  1  0  0  0  0
 24 53  1  0  0  0  0
M  END
> <PUBCHEM_COMPOUND_CID>
3159504

> <PUBCHEM_CONFORMER_RMSD>
1

> <PUBCHEM_CONFORMER_DIVERSEORDER>
1
68
16
19
38
93
137
92
126
45
102
14
108
3
28
48
63
116
97
120
100
59
91
88
32
139
36
124
119
7
131
62
142
58
110
138
113
69
39
37
77
94
86
10
23
33
8
60
132
41
128
134
24
96
2
112
67
6
111
117
4
105
50
127
83
109
15
9
65
95
42
81
143
146
118
107
53
64
98
71
141
11
35
133
57
76
27
106
135
13
103
147
70
43
99
73
47
5
87
17
129
90
130
84
104
61
29
123
101
40
52
66
136
144
26
56
25
51
44
12
89
30
46
121
122
79
55
85
114
22
75
54
31
125
20
72
49
18
115
74
140
21
34
145
80
78
82

> <PUBCHEM_MMFF94_PARTIAL_CHARGES>
26
1 -0.56
10 0.28
11 0.3
12 0.14
13 -0.14
17 0.57
18 0.06
19 -0.15
2 -0.57
20 -0.15
21 0.18
22 0.05
23 -0.15
24 -0.15
25 0.3
26 0.46
3 -0.02
36 0.37
4 -0.73
48 0.15
49 0.15
5 -0.57
52 0.15
53 0.15
6 -0.41
7 0.28

> <PUBCHEM_EFFECTIVE_ROTOR_COUNT>
9

> <PUBCHEM_PHARMACOPHORE_FEATURES>
8
1 1 acceptor
1 2 acceptor
1 4 donor
3 5 6 26 cation
4 12 14 15 16 hydrophobe
5 1 7 8 9 10 rings
5 3 5 6 25 26 rings
6 13 19 20 22 23 24 rings

> <PUBCHEM_HEAVY_ATOM_COUNT>
26

> <PUBCHEM_ATOM_DEF_STEREO_COUNT>
0

> <PUBCHEM_ATOM_UDEF_STEREO_COUNT>
1

> <PUBCHEM_BOND_DEF_STEREO_COUNT>
0

> <PUBCHEM_BOND_UDEF_STEREO_COUNT>
0

> <PUBCHEM_ISOTOPIC_ATOM_COUNT>
0

> <PUBCHEM_COMPONENT_COUNT>
1

> <PUBCHEM_CACTVS_TAUTO_COUNT>
6

> <PUBCHEM_CONFORMER_ID>
003035D000000001

> <PUBCHEM_MMFF94_ENERGY>
53.177

> <PUBCHEM_FEATURE_SELFOVERLAP>
40.596

> <PUBCHEM_SHAPE_FINGERPRINT>
10074138 170 15593536881757417267
10688039 33 17895473626967992900
10708813 3 18196932395096212812
10864689 126 16825030630104841021
12422481 6 18338228263417490393
12633257 1 17968362546364966858
13075007 39 17895774996375435809
13402501 40 18334572395760647644
13422730 153 18198603605979337055
13583140 156 17967530156497817419
13965767 371 18126255723739292786
14117953 113 18270961224256184774
14178342 30 17330262287603776736
14790565 3 17830459732468375708
15420108 30 18201147875585466326
15840311 113 17344364246379940377
1601671 61 18411417328145528424
16760501 71 18338806705861182939
17980427 23 18131627885849637119
18785283 64 18042415801246536933
20567600 299 18342453798092900073
20621476 7 18410576145641515296
21033648 29 17023448820459190119
21298829 104 18343019999605823881
21304253 335 18131355172363298513
23227448 37 18412544344891964039
23559900 14 17560241293182118431
25147074 1 18059575849916335543
3014063 31 18337390435631049452
4409770 3 15965714983569147814
474 4 18411138064729322443
508706 21 17604138226322960165
513532 50 17989216949328460700
5283268 108 18335700486591057962
6443956 14 18409169904782633820
8509985 295 18261110802620034140
9777508 108 17618781362524241192
9981440 41 17257363571127990521

> <PUBCHEM_SHAPE_MULTIPOLES>
502.52
11.04
4.19
1.3
10.49
3.18
-0.13
-1.33
-3.22
-3.84
1.24
0.22
-0.01
-0.43

> <PUBCHEM_SHAPE_SELFOVERLAP>
1057.092

> <PUBCHEM_SHAPE_VOLUME>
285.3

> <PUBCHEM_COORDINATE_TYPE>
2
5
10

$$$$
