6002117
  -OEChem-01171809463D

 52 55  0     0  0  0  0  0  0999 V2000
    7.5760    2.4552    1.5581 Cl  0  0  0  0  0  0  0  0  0  0  0  0
    3.6526   -1.2668    0.9714 S   0  0  0  0  0  0  0  0  0  0  0  0
   -0.9600    2.5432   -1.9259 O   0  0  0  0  0  0  0  0  0  0  0  0
    3.6727   -2.5879    0.3618 O   0  0  0  0  0  0  0  0  0  0  0  0
    3.6378   -1.1337    2.4197 O   0  0  0  0  0  0  0  0  0  0  0  0
    2.3446   -2.3277   -2.1527 O   0  5  0  0  0  0  0  0  0  0  0  0
    1.1238   -3.2279   -0.5658 O   0  0  0  0  0  0  0  0  0  0  0  0
   -2.3408    1.6471   -0.2678 N   0  0  0  0  0  0  0  0  0  0  0  0
   -4.8941    0.5311    0.1539 N   0  0  0  0  0  0  0  0  0  0  0  0
   -6.8858   -0.2820   -0.8352 N   0  0  0  0  0  0  0  0  0  0  0  0
    1.6338   -2.2287   -1.1250 N   0  3  0  0  0  0  0  0  0  0  0  0
   -2.5609    0.7816    0.8931 C   0  0  0  0  0  0  0  0  0  0  0  0
   -3.5210    2.4054   -0.6702 C   0  0  0  0  0  0  0  0  0  0  0  0
   -3.7042   -0.1945    0.6219 C   0  0  0  0  0  0  0  0  0  0  0  0
   -4.6864    1.4633   -0.9670 C   0  0  0  0  0  0  0  0  0  0  0  0
   -1.1361    1.8138   -0.9512 C   0  0  0  0  0  0  0  0  0  0  0  0
   -6.1567   -0.0599    0.2813 C   0  0  0  0  0  0  0  0  0  0  0  0
    0.0313    1.0521   -0.4897 C   0  0  0  0  0  0  0  0  0  0  0  0
    0.2893   -0.2148   -1.0134 C   0  0  0  0  0  0  0  0  0  0  0  0
    2.2490   -0.3948    0.3883 C   0  0  0  0  0  0  0  0  0  0  0  0
    0.8821    1.5955    0.4730 C   0  0  0  0  0  0  0  0  0  0  0  0
   -6.5797   -0.3816    1.5609 C   0  0  0  0  0  0  0  0  0  0  0  0
    1.3981   -0.9384   -0.5743 C   0  0  0  0  0  0  0  0  0  0  0  0
    1.9908    0.8720    0.9120 C   0  0  0  0  0  0  0  0  0  0  0  0
    5.1036   -0.4536    0.3640 C   0  0  0  0  0  0  0  0  0  0  0  0
   -7.8316   -0.9697    1.7037 C   0  0  0  0  0  0  0  0  0  0  0  0
   -8.0973   -0.8549   -0.6571 C   0  0  0  0  0  0  0  0  0  0  0  0
   -8.6111   -1.2143    0.5785 C   0  0  0  0  0  0  0  0  0  0  0  0
    5.6985    0.5621    1.1124 C   0  0  0  0  0  0  0  0  0  0  0  0
    5.6524   -0.8296   -0.8621 C   0  0  0  0  0  0  0  0  0  0  0  0
    6.8423    1.2020    0.6347 C   0  0  0  0  0  0  0  0  0  0  0  0
    6.7960   -0.1899   -1.3396 C   0  0  0  0  0  0  0  0  0  0  0  0
    7.3910    0.8259   -0.5914 C   0  0  0  0  0  0  0  0  0  0  0  0
   -2.8093    1.4344    1.7388 H   0  0  0  0  0  0  0  0  0  0  0  0
   -1.6620    0.2248    1.1656 H   0  0  0  0  0  0  0  0  0  0  0  0
   -3.3093    3.0258   -1.5467 H   0  0  0  0  0  0  0  0  0  0  0  0
   -3.7735    3.0781    0.1583 H   0  0  0  0  0  0  0  0  0  0  0  0
   -3.4049   -0.9167   -0.1483 H   0  0  0  0  0  0  0  0  0  0  0  0
   -3.9023   -0.7594    1.5394 H   0  0  0  0  0  0  0  0  0  0  0  0
   -5.5836    2.0695   -1.1427 H   0  0  0  0  0  0  0  0  0  0  0  0
   -4.4812    0.8897   -1.8797 H   0  0  0  0  0  0  0  0  0  0  0  0
   -0.3782   -0.6349   -1.7632 H   0  0  0  0  0  0  0  0  0  0  0  0
    0.6897    2.5816    0.8878 H   0  0  0  0  0  0  0  0  0  0  0  0
   -5.9793   -0.1771    2.4413 H   0  0  0  0  0  0  0  0  0  0  0  0
    2.6399    1.3144    1.6626 H   0  0  0  0  0  0  0  0  0  0  0  0
   -8.2008   -1.2335    2.6901 H   0  0  0  0  0  0  0  0  0  0  0  0
   -8.6659   -1.0240   -1.5657 H   0  0  0  0  0  0  0  0  0  0  0  0
   -9.5904   -1.6707    0.6660 H   0  0  0  0  0  0  0  0  0  0  0  0
    5.2743    0.8633    2.0669 H   0  0  0  0  0  0  0  0  0  0  0  0
    5.2032   -1.6127   -1.4657 H   0  0  0  0  0  0  0  0  0  0  0  0
    7.2225   -0.4814   -2.2950 H   0  0  0  0  0  0  0  0  0  0  0  0
    8.2817    1.3159   -0.9764 H   0  0  0  0  0  0  0  0  0  0  0  0
  1 31  1  0  0  0  0
  2  4  2  0  0  0  0
  2  5  2  0  0  0  0
  2 20  1  0  0  0  0
  2 25  1  0  0  0  0
  3 16  2  0  0  0  0
  6 11  1  0  0  0  0
  7 11  2  0  0  0  0
  8 12  1  0  0  0  0
  8 13  1  0  0  0  0
  8 16  1  0  0  0  0
  9 14  1  0  0  0  0
  9 15  1  0  0  0  0
  9 17  1  0  0  0  0
 10 17  1  0  0  0  0
 10 27  2  0  0  0  0
 11 23  1  0  0  0  0
 12 14  1  0  0  0  0
 12 34  1  0  0  0  0
 12 35  1  0  0  0  0
 13 15  1  0  0  0  0
 13 36  1  0  0  0  0
 13 37  1  0  0  0  0
 14 38  1  0  0  0  0
 14 39  1  0  0  0  0
 15 40  1  0  0  0  0
 15 41  1  0  0  0  0
 16 18  1  0  0  0  0
 17 22  2  0  0  0  0
 18 19  2  0  0  0  0
 18 21  1  0  0  0  0
 19 23  1  0  0  0  0
 19 42  1  0  0  0  0
 20 23  2  0  0  0  0
 20 24  1  0  0  0  0
 21 24  2  0  0  0  0
 21 43  1  0  0  0  0
 22 26  1  0  0  0  0
 22 44  1  0  0  0  0
 24 45  1  0  0  0  0
 25 29  2  0  0  0  0
 25 30  1  0  0  0  0
 26 28  2  0  0  0  0
 26 46  1  0  0  0  0
 27 28  1  0  0  0  0
 27 47  1  0  0  0  0
 28 48  1  0  0  0  0
 29 31  1  0  0  0  0
 29 49  1  0  0  0  0
 30 32  2  0  0  0  0
 30 50  1  0  0  0  0
 31 33  2  0  0  0  0
 32 33  1  0  0  0  0
 32 51  1  0  0  0  0
 33 52  1  0  0  0  0
M  CHG  2   6  -1  11   1
M  END
> <PUBCHEM_COMPOUND_CID>
6002117

> <PUBCHEM_CONFORMER_RMSD>
1

> <PUBCHEM_CONFORMER_DIVERSEORDER>
4
35
24
28
61
56
43
31
26
67
39
60
62
36
40
42
23
41
18
54
58
44
33
32
51
14
66
64
7
50
63
20
59
53
17
22
25
30
48
2
21
29
45
52
65
49
10
37
57
19
34
27
8
46
15
11
38
9
6
47
13
12
55
16
1
5
3

> <PUBCHEM_MMFF94_PARTIAL_CHARGES>
44
1 -0.18
10 -0.62
11 0.91
12 0.3
13 0.3
14 0.37
15 0.37
16 0.54
17 0.41
18 0.09
19 -0.15
2 1.32
20 -0.01
21 -0.15
22 -0.15
23 0.13
24 -0.15
25 -0.01
26 -0.15
27 0.16
28 -0.15
29 -0.15
3 -0.57
30 -0.15
31 0.18
32 -0.15
33 -0.15
4 -0.65
42 0.15
43 0.15
44 0.15
45 0.15
46 0.15
47 0.15
48 0.15
49 0.15
5 -0.65
50 0.15
51 0.15
52 0.15
6 -0.52
7 -0.52
8 -0.66
9 -0.84

> <PUBCHEM_EFFECTIVE_ROTOR_COUNT>
7.2

> <PUBCHEM_PHARMACOPHORE_FEATURES>
12
1 10 acceptor
1 3 acceptor
1 4 acceptor
1 5 acceptor
1 6 acceptor
1 6 anion
1 7 acceptor
1 9 cation
6 10 17 22 26 27 28 rings
6 18 19 20 21 23 24 rings
6 25 29 30 31 32 33 rings
6 8 9 12 13 14 15 rings

> <PUBCHEM_HEAVY_ATOM_COUNT>
33

> <PUBCHEM_ATOM_DEF_STEREO_COUNT>
0

> <PUBCHEM_ATOM_UDEF_STEREO_COUNT>
0

> <PUBCHEM_BOND_DEF_STEREO_COUNT>
0

> <PUBCHEM_BOND_UDEF_STEREO_COUNT>
0

> <PUBCHEM_ISOTOPIC_ATOM_COUNT>
0

> <PUBCHEM_COMPONENT_COUNT>
1

> <PUBCHEM_CACTVS_TAUTO_COUNT>
1

> <PUBCHEM_CONFORMER_ID>
005B95C500000004

> <PUBCHEM_MMFF94_ENERGY>
102.3416

> <PUBCHEM_FEATURE_SELFOVERLAP>
61.006

> <PUBCHEM_SHAPE_FINGERPRINT>
10 15 18408317813720610872
10391435 84 17967813894642302827
10674148 151 13901906713811755910
11828422 8 7923898264298345918
12120059 20 18267040521017500079
12778500 126 13326856604371465758
12857493 111 18040154028820400557
13782708 43 18193557766103618150
13811026 1 17894910702737065091
13914758 101 12396290448493457596
14068700 686 18265894649127063757
14118638 360 18113899321191576401
1454969 45 18407761447361087190
14849402 71 17489021673017308313
15142383 8 10015579494053860010
15183329 4 11819277719978274163
15301273 46 17632298947792069481
15357212 105 15696290010306315976
15510800 12 18187938304894348203
15728490 51 18334575784521525251
15979999 66 16660645193788704309
18335252 114 10881397660281569171
18335252 98 18410858750890762158
20105231 36 17917998269508741470
21049683 271 18335987544651798388
21150785 3 16370443363112425745
21223535 225 11819262336054682759
21344244 181 17489596641238503790
21365058 27 17418374705521941646
21521721 280 17917711327386731200
21774942 28 12324228439514284951
21781051 124 18342739568918167102
22149856 69 18270687458724749361
22224240 67 18272369797440887906
2747138 104 18409454691015521505
3009799 131 11674881095675248436
3178227 256 18202002152943916848
34797466 226 18130791166212198380
4066623 53 14851608791049677615
4073 2 18265051337189943181
4325135 7 17894915127022416796
437795 51 18131066052513911416
4461854 278 18270972327359379967
474113 269 12396562032946917592
5381727 24 18113897149198738370
57303763 176 11171005681600937431
5758199 1 17704353294401756979
59682541 35 18412546543593069961
59755656 520 15051726491574078669
6523845 18 18408887309763464486
9689198 14 14692568844848931819
9962374 69 18188773989523457499

> <PUBCHEM_SHAPE_MULTIPOLES>
635.57
24.93
2.54
1.66
21.76
0.35
0.14
1.06
6.2
-1.69
-0.63
-0.62
0.13
2.37

> <PUBCHEM_SHAPE_SELFOVERLAP>
1359.747

> <PUBCHEM_SHAPE_VOLUME>
352.8

> <PUBCHEM_COORDINATE_TYPE>
2
5
10

$$$$
