44601686
  -OEChem-01171810133D

 90 96  0     1  0  0  0  0  0999 V2000
    2.9332    7.2062   -1.6226 Cl  0  0  0  0  0  0  0  0  0  0  0  0
    0.0854    1.2005    4.4517 O   0  0  0  0  0  0  0  0  0  0  0  0
    0.6957   -2.4755    1.9896 O   0  0  0  0  0  0  0  0  0  0  0  0
   -3.9109   -1.2339    3.0359 O   0  0  0  0  0  0  0  0  0  0  0  0
    1.2862    0.5651    2.5701 N   0  0  0  0  0  0  0  0  0  0  0  0
    1.3269    1.6217   -0.9812 N   0  0  0  0  0  0  0  0  0  0  0  0
   -0.6802   -2.9209    0.1713 N   0  0  0  0  0  0  0  0  0  0  0  0
   -4.4769    0.8715    2.2312 N   0  0  0  0  0  0  0  0  0  0  0  0
   -4.8477    0.7024   -2.1209 N   0  0  0  0  0  0  0  0  0  0  0  0
   -5.3886    0.1681   -4.2074 N   0  0  0  0  0  0  0  0  0  0  0  0
    1.3308    0.1279    1.1245 C   0  0  1  0  0  0  0  0  0  0  0  0
    0.0478   -0.6144    0.6744 C   0  0  2  0  0  0  0  0  0  0  0  0
   -1.2003    0.0170    1.2763 C   0  0  0  0  0  0  0  0  0  0  0  0
    1.5334    1.4309    0.3583 C   0  0  0  0  0  0  0  0  0  0  0  0
    2.5760   -0.7569    0.8526 C   0  0  0  0  0  0  0  0  0  0  0  0
   -1.1342   -0.0186    2.7986 C   0  0  1  0  0  0  0  0  0  0  0  0
    2.4321    1.3861    3.0235 C   0  0  0  0  0  0  0  0  0  0  0  0
    0.1184    0.6561    3.3429 C   0  0  0  0  0  0  0  0  0  0  0  0
    2.0379    2.6107    0.8821 C   0  0  0  0  0  0  0  0  0  0  0  0
    2.3965    2.7597    2.3257 C   0  0  0  0  0  0  0  0  0  0  0  0
    0.0547   -2.0843    1.0108 C   0  0  0  0  0  0  0  0  0  0  0  0
    2.4786   -1.4033   -0.5188 C   0  0  0  0  0  0  0  0  0  0  0  0
   -2.3956    0.6191    3.3867 C   0  0  0  0  0  0  0  0  0  0  0  0
    2.1039    3.5598   -0.1756 C   0  0  0  0  0  0  0  0  0  0  0  0
    1.6520    2.9146   -1.3301 C   0  0  0  0  0  0  0  0  0  0  0  0
   -0.7208   -4.3614    0.4313 C   0  0  0  0  0  0  0  0  0  0  0  0
   -1.4877   -2.4797   -0.9730 C   0  0  0  0  0  0  0  0  0  0  0  0
    3.6817   -2.2711   -0.7861 C   0  0  0  0  0  0  0  0  0  0  0  0
    2.5068    4.9075   -0.2670 C   0  0  0  0  0  0  0  0  0  0  0  0
   -3.6600   -0.0418    2.8815 C   0  0  0  0  0  0  0  0  0  0  0  0
   -0.3076   -5.1515   -0.8075 C   0  0  0  0  0  0  0  0  0  0  0  0
   -1.0904   -3.2347   -2.2397 C   0  0  0  0  0  0  0  0  0  0  0  0
    1.5851    3.5535   -2.5735 C   0  0  0  0  0  0  0  0  0  0  0  0
   -1.1389   -4.7465   -2.0238 C   0  0  0  0  0  0  0  0  0  0  0  0
    2.4431    5.5585   -1.5042 C   0  0  0  0  0  0  0  0  0  0  0  0
    1.9888    4.8899   -2.6386 C   0  0  0  0  0  0  0  0  0  0  0  0
    4.8121   -1.7270   -1.3960 C   0  0  0  0  0  0  0  0  0  0  0  0
    3.6650   -3.6178   -0.4237 C   0  0  0  0  0  0  0  0  0  0  0  0
   -5.7491    0.5155    1.6459 C   0  0  0  0  0  0  0  0  0  0  0  0
    5.9257   -2.5297   -1.6435 C   0  0  0  0  0  0  0  0  0  0  0  0
    4.7785   -4.4206   -0.6711 C   0  0  0  0  0  0  0  0  0  0  0  0
    5.9089   -3.8765   -1.2811 C   0  0  0  0  0  0  0  0  0  0  0  0
   -5.6174    0.0789    0.1904 C   0  0  0  0  0  0  0  0  0  0  0  0
   -5.0046    1.1685   -0.6956 C   0  0  0  0  0  0  0  0  0  0  0  0
   -3.6867    0.2964   -2.7161 C   0  0  0  0  0  0  0  0  0  0  0  0
   -5.8419    0.6082   -3.0547 C   0  0  0  0  0  0  0  0  0  0  0  0
   -4.0458   -0.0283   -4.0031 C   0  0  0  0  0  0  0  0  0  0  0  0
   -0.0082   -0.5061   -0.4082 H   0  0  0  0  0  0  0  0  0  0  0  0
   -2.0909   -0.5099    0.9180 H   0  0  0  0  0  0  0  0  0  0  0  0
   -1.2926    1.0541    0.9283 H   0  0  0  0  0  0  0  0  0  0  0  0
    3.4936   -0.1518    0.8817 H   0  0  0  0  0  0  0  0  0  0  0  0
    2.7276   -1.5053    1.6384 H   0  0  0  0  0  0  0  0  0  0  0  0
   -1.1004   -1.0584    3.1465 H   0  0  0  0  0  0  0  0  0  0  0  0
    3.3612    0.8537    2.7992 H   0  0  0  0  0  0  0  0  0  0  0  0
    2.4069    1.5259    4.1096 H   0  0  0  0  0  0  0  0  0  0  0  0
    1.6377    3.3910    2.8044 H   0  0  0  0  0  0  0  0  0  0  0  0
    3.3644    3.2594    2.4399 H   0  0  0  0  0  0  0  0  0  0  0  0
    0.9711    0.9338   -1.6298 H   0  0  0  0  0  0  0  0  0  0  0  0
    2.4493   -0.6505   -1.3122 H   0  0  0  0  0  0  0  0  0  0  0  0
    1.6157   -2.0368   -0.7042 H   0  0  0  0  0  0  0  0  0  0  0  0
   -2.3990    1.6972    3.1842 H   0  0  0  0  0  0  0  0  0  0  0  0
   -2.4028    0.5170    4.4794 H   0  0  0  0  0  0  0  0  0  0  0  0
   -1.7475   -4.6124    0.7226 H   0  0  0  0  0  0  0  0  0  0  0  0
   -0.0687   -4.6244    1.2701 H   0  0  0  0  0  0  0  0  0  0  0  0
   -2.5319   -2.7054   -0.7219 H   0  0  0  0  0  0  0  0  0  0  0  0
   -1.4517   -1.4122   -1.1680 H   0  0  0  0  0  0  0  0  0  0  0  0
    2.8619    5.4290    0.6180 H   0  0  0  0  0  0  0  0  0  0  0  0
   -0.4196   -6.2249   -0.6199 H   0  0  0  0  0  0  0  0  0  0  0  0
    0.7516   -4.9683   -1.0228 H   0  0  0  0  0  0  0  0  0  0  0  0
   -0.0739   -2.9444   -2.5330 H   0  0  0  0  0  0  0  0  0  0  0  0
   -1.7578   -2.9568   -3.0630 H   0  0  0  0  0  0  0  0  0  0  0  0
    1.2326    3.0335   -3.4580 H   0  0  0  0  0  0  0  0  0  0  0  0
   -0.7679   -5.2619   -2.9165 H   0  0  0  0  0  0  0  0  0  0  0  0
   -2.1791   -5.0622   -1.8777 H   0  0  0  0  0  0  0  0  0  0  0  0
    1.9421    5.4013   -3.5977 H   0  0  0  0  0  0  0  0  0  0  0  0
    4.8388   -0.6785   -1.6810 H   0  0  0  0  0  0  0  0  0  0  0  0
    2.7937   -4.0513    0.0592 H   0  0  0  0  0  0  0  0  0  0  0  0
   -4.1822    1.8393    2.1437 H   0  0  0  0  0  0  0  0  0  0  0  0
   -6.3983    1.3941    1.7228 H   0  0  0  0  0  0  0  0  0  0  0  0
   -6.2000   -0.2910    2.2341 H   0  0  0  0  0  0  0  0  0  0  0  0
    6.8061   -2.1059   -2.1177 H   0  0  0  0  0  0  0  0  0  0  0  0
    4.7660   -5.4688   -0.3872 H   0  0  0  0  0  0  0  0  0  0  0  0
    6.7761   -4.5014   -1.4732 H   0  0  0  0  0  0  0  0  0  0  0  0
   -4.9960   -0.8240    0.1320 H   0  0  0  0  0  0  0  0  0  0  0  0
   -6.6072   -0.1976   -0.1923 H   0  0  0  0  0  0  0  0  0  0  0  0
   -4.0002    1.4583   -0.3692 H   0  0  0  0  0  0  0  0  0  0  0  0
   -5.6381    2.0608   -0.7459 H   0  0  0  0  0  0  0  0  0  0  0  0
   -2.7400    0.2833   -2.1960 H   0  0  0  0  0  0  0  0  0  0  0  0
   -6.8681    0.8720   -2.8386 H   0  0  0  0  0  0  0  0  0  0  0  0
   -3.4049   -0.3914   -4.7933 H   0  0  0  0  0  0  0  0  0  0  0  0
  1 35  1  0  0  0  0
  2 18  2  0  0  0  0
  3 21  2  0  0  0  0
  4 30  2  0  0  0  0
  5 11  1  0  0  0  0
  5 17  1  0  0  0  0
  5 18  1  0  0  0  0
  6 14  1  0  0  0  0
  6 25  1  0  0  0  0
  6 58  1  0  0  0  0
  7 21  1  0  0  0  0
  7 26  1  0  0  0  0
  7 27  1  0  0  0  0
  8 30  1  0  0  0  0
  8 39  1  0  0  0  0
  8 78  1  0  0  0  0
  9 44  1  0  0  0  0
  9 45  1  0  0  0  0
  9 46  1  0  0  0  0
 10 46  2  0  0  0  0
 10 47  1  0  0  0  0
 11 12  1  0  0  0  0
 11 14  1  0  0  0  0
 11 15  1  0  0  0  0
 12 13  1  0  0  0  0
 12 21  1  0  0  0  0
 12 48  1  0  0  0  0
 13 16  1  0  0  0  0
 13 49  1  0  0  0  0
 13 50  1  0  0  0  0
 14 19  2  0  0  0  0
 15 22  1  0  0  0  0
 15 51  1  0  0  0  0
 15 52  1  0  0  0  0
 16 18  1  0  0  0  0
 16 23  1  0  0  0  0
 16 53  1  0  0  0  0
 17 20  1  0  0  0  0
 17 54  1  0  0  0  0
 17 55  1  0  0  0  0
 19 20  1  0  0  0  0
 19 24  1  0  0  0  0
 20 56  1  0  0  0  0
 20 57  1  0  0  0  0
 22 28  1  0  0  0  0
 22 59  1  0  0  0  0
 22 60  1  0  0  0  0
 23 30  1  0  0  0  0
 23 61  1  0  0  0  0
 23 62  1  0  0  0  0
 24 25  2  0  0  0  0
 24 29  1  0  0  0  0
 25 33  1  0  0  0  0
 26 31  1  0  0  0  0
 26 63  1  0  0  0  0
 26 64  1  0  0  0  0
 27 32  1  0  0  0  0
 27 65  1  0  0  0  0
 27 66  1  0  0  0  0
 28 37  2  0  0  0  0
 28 38  1  0  0  0  0
 29 35  2  0  0  0  0
 29 67  1  0  0  0  0
 31 34  1  0  0  0  0
 31 68  1  0  0  0  0
 31 69  1  0  0  0  0
 32 34  1  0  0  0  0
 32 70  1  0  0  0  0
 32 71  1  0  0  0  0
 33 36  2  0  0  0  0
 33 72  1  0  0  0  0
 34 73  1  0  0  0  0
 34 74  1  0  0  0  0
 35 36  1  0  0  0  0
 36 75  1  0  0  0  0
 37 40  1  0  0  0  0
 37 76  1  0  0  0  0
 38 41  2  0  0  0  0
 38 77  1  0  0  0  0
 39 43  1  0  0  0  0
 39 79  1  0  0  0  0
 39 80  1  0  0  0  0
 40 42  2  0  0  0  0
 40 81  1  0  0  0  0
 41 42  1  0  0  0  0
 41 82  1  0  0  0  0
 42 83  1  0  0  0  0
 43 44  1  0  0  0  0
 43 84  1  0  0  0  0
 43 85  1  0  0  0  0
 44 86  1  0  0  0  0
 44 87  1  0  0  0  0
 45 47  2  0  0  0  0
 45 88  1  0  0  0  0
 46 89  1  0  0  0  0
 47 90  1  0  0  0  0
M  END
> <PUBCHEM_COMPOUND_CID>
44601686

> <PUBCHEM_CONFORMER_RMSD>
1.4

> <PUBCHEM_CONFORMER_DIVERSEORDER>
1
29
9
13
10
26
21
33
22
36
17
7
34
28
8
31
19
18
15
32
37
25
27
2
20
5
35
3
24
4
30
23
12
16
11
6
14

> <PUBCHEM_MMFF94_PARTIAL_CHARGES>
53
1 -0.18
10 -0.57
11 0.48
12 0.06
14 -0.33
16 0.06
17 0.3
18 0.57
19 -0.18
2 -0.57
20 0.18
21 0.57
22 0.14
23 0.06
25 -0.15
26 0.3
27 0.3
28 -0.14
29 -0.15
3 -0.57
30 0.57
33 -0.15
35 0.18
36 -0.15
37 -0.15
38 -0.15
39 0.3
4 -0.57
40 -0.15
41 -0.15
42 -0.15
44 0.26
45 -0.3
46 0.04
47 0.08
5 -0.66
58 0.27
6 0.03
67 0.15
7 -0.66
72 0.15
75 0.15
76 0.15
77 0.15
78 0.37
8 -0.73
81 0.15
82 0.15
83 0.15
88 0.15
89 0.15
9 0.05
90 0.15

> <PUBCHEM_EFFECTIVE_ROTOR_COUNT>
14.2

> <PUBCHEM_PHARMACOPHORE_FEATURES>
14
1 2 acceptor
1 3 acceptor
1 4 acceptor
1 6 cation
1 6 donor
1 8 donor
3 9 10 46 cation
5 6 14 19 24 25 rings
5 9 10 45 46 47 rings
6 24 25 29 33 35 36 rings
6 28 37 38 40 41 42 rings
6 5 11 12 13 16 18 rings
6 5 11 14 17 19 20 rings
6 7 26 27 31 32 34 rings

> <PUBCHEM_HEAVY_ATOM_COUNT>
47

> <PUBCHEM_ATOM_DEF_STEREO_COUNT>
3

> <PUBCHEM_ATOM_UDEF_STEREO_COUNT>
0

> <PUBCHEM_BOND_DEF_STEREO_COUNT>
0

> <PUBCHEM_BOND_UDEF_STEREO_COUNT>
0

> <PUBCHEM_ISOTOPIC_ATOM_COUNT>
0

> <PUBCHEM_COMPONENT_COUNT>
1

> <PUBCHEM_CACTVS_TAUTO_COUNT>
4

> <PUBCHEM_CONFORMER_ID>
02A8915600000001

> <PUBCHEM_MMFF94_ENERGY>
107.7014

> <PUBCHEM_FEATURE_SELFOVERLAP>
71.296

> <PUBCHEM_SHAPE_FINGERPRINT>
11445158 3 18121815865131191955
11607047 403 15119232175929266539
14068700 675 17130974378717994490
14289585 56 18051400782614110343
19319366 153 17333700366190550882
22121540 332 16878227566482236997
24941158 1 18261961841784309349
25019877 29 17058107505894878470
46939830 39 18191326912939750948
5081480 168 18335421240259476701

> <PUBCHEM_SHAPE_MULTIPOLES>
921.61
10.89
8.66
4.72
9.47
6.2
-1
-3.21
7.07
-14.58
7.18
5.92
2.2
0.14

> <PUBCHEM_SHAPE_SELFOVERLAP>
1993.525

> <PUBCHEM_SHAPE_VOLUME>
503.5

> <PUBCHEM_COORDINATE_TYPE>
2
5
10

$$$$
