784698
  -OEChem-01171809213D

 31 33  0     0  0  0  0  0  0999 V2000
   -5.2018    0.5908    0.0902 O   0  0  0  0  0  0  0  0  0  0  0  0
   -0.3094    0.8010    0.1094 N   0  0  0  0  0  0  0  0  0  0  0  0
   -0.0630   -1.3875   -0.1903 N   0  0  0  0  0  0  0  0  0  0  0  0
    6.1552    0.4993    0.0587 N   0  0  0  0  0  0  0  0  0  0  0  0
   -1.5823    0.2952    0.0423 C   0  0  0  0  0  0  0  0  0  0  0  0
    0.5625   -0.2421   -0.0345 C   0  0  0  0  0  0  0  0  0  0  0  0
   -1.4016   -1.0724   -0.1452 C   0  0  0  0  0  0  0  0  0  0  0  0
    1.9922   -0.0525   -0.0096 C   0  0  0  0  0  0  0  0  0  0  0  0
   -2.8378    0.8980    0.1269 C   0  0  0  0  0  0  0  0  0  0  0  0
   -2.5294   -1.9032   -0.2571 C   0  0  0  0  0  0  0  0  0  0  0  0
   -3.9491    0.0562    0.0137 C   0  0  0  0  0  0  0  0  0  0  0  0
   -3.7998   -1.3197   -0.1751 C   0  0  0  0  0  0  0  0  0  0  0  0
    2.8227   -1.0696    0.4605 C   0  0  0  0  0  0  0  0  0  0  0  0
    2.5442    1.1479   -0.4572 C   0  0  0  0  0  0  0  0  0  0  0  0
    4.2053   -0.8865    0.4832 C   0  0  0  0  0  0  0  0  0  0  0  0
    3.9268    1.3310   -0.4347 C   0  0  0  0  0  0  0  0  0  0  0  0
    4.7575    0.3138    0.0354 C   0  0  0  0  0  0  0  0  0  0  0  0
   -5.2922    2.0002    0.2833 C   0  0  0  0  0  0  0  0  0  0  0  0
   -0.0728    1.7737    0.2549 H   0  0  0  0  0  0  0  0  0  0  0  0
   -2.8849    1.9690    0.2737 H   0  0  0  0  0  0  0  0  0  0  0  0
   -2.4239   -2.9733   -0.4037 H   0  0  0  0  0  0  0  0  0  0  0  0
   -4.6791   -1.9540   -0.2602 H   0  0  0  0  0  0  0  0  0  0  0  0
    2.4131   -2.0119    0.8165 H   0  0  0  0  0  0  0  0  0  0  0  0
    1.9267    1.9555   -0.8422 H   0  0  0  0  0  0  0  0  0  0  0  0
    4.8421   -1.6863    0.8527 H   0  0  0  0  0  0  0  0  0  0  0  0
    4.3454    2.2696   -0.7889 H   0  0  0  0  0  0  0  0  0  0  0  0
    6.7581   -0.2382    0.3983 H   0  0  0  0  0  0  0  0  0  0  0  0
    6.5560    1.3689   -0.2668 H   0  0  0  0  0  0  0  0  0  0  0  0
   -4.8637    2.5517   -0.5605 H   0  0  0  0  0  0  0  0  0  0  0  0
   -6.3570    2.2533    0.3204 H   0  0  0  0  0  0  0  0  0  0  0  0
   -4.8596    2.3049    1.2424 H   0  0  0  0  0  0  0  0  0  0  0  0
  1 11  1  0  0  0  0
  1 18  1  0  0  0  0
  2  5  1  0  0  0  0
  2  6  1  0  0  0  0
  2 19  1  0  0  0  0
  3  6  2  0  0  0  0
  3  7  1  0  0  0  0
  4 17  1  0  0  0  0
  4 27  1  0  0  0  0
  4 28  1  0  0  0  0
  5  7  2  0  0  0  0
  5  9  1  0  0  0  0
  6  8  1  0  0  0  0
  7 10  1  0  0  0  0
  8 13  2  0  0  0  0
  8 14  1  0  0  0  0
  9 11  2  0  0  0  0
  9 20  1  0  0  0  0
 10 12  2  0  0  0  0
 10 21  1  0  0  0  0
 11 12  1  0  0  0  0
 12 22  1  0  0  0  0
 13 15  1  0  0  0  0
 13 23  1  0  0  0  0
 14 16  2  0  0  0  0
 14 24  1  0  0  0  0
 15 17  2  0  0  0  0
 15 25  1  0  0  0  0
 16 17  1  0  0  0  0
 16 26  1  0  0  0  0
 18 29  1  0  0  0  0
 18 30  1  0  0  0  0
 18 31  1  0  0  0  0
M  END
> <PUBCHEM_COMPOUND_CID>
784698

> <PUBCHEM_CONFORMER_RMSD>
0.6

> <PUBCHEM_CONFORMER_DIVERSEORDER>
1
2

> <PUBCHEM_MMFF94_PARTIAL_CHARGES>
28
1 -0.36
10 -0.15
11 0.08
12 -0.15
13 -0.15
14 -0.15
15 -0.15
16 -0.15
17 0.1
18 0.28
19 0.27
2 0.03
20 0.15
21 0.15
22 0.15
23 0.15
24 0.15
25 0.15
26 0.15
27 0.4
28 0.4
3 -0.57
4 -0.9
5 -0.15
6 0.13
7 0.23
8 0.05
9 -0.15

> <PUBCHEM_EFFECTIVE_ROTOR_COUNT>
2

> <PUBCHEM_PHARMACOPHORE_FEATURES>
8
1 1 acceptor
1 2 donor
1 4 cation
1 4 donor
3 2 3 6 cation
5 2 3 5 6 7 rings
6 5 7 9 10 11 12 rings
6 8 13 14 15 16 17 rings

> <PUBCHEM_HEAVY_ATOM_COUNT>
18

> <PUBCHEM_ATOM_DEF_STEREO_COUNT>
0

> <PUBCHEM_ATOM_UDEF_STEREO_COUNT>
0

> <PUBCHEM_BOND_DEF_STEREO_COUNT>
0

> <PUBCHEM_BOND_UDEF_STEREO_COUNT>
0

> <PUBCHEM_ISOTOPIC_ATOM_COUNT>
0

> <PUBCHEM_COMPONENT_COUNT>
1

> <PUBCHEM_CACTVS_TAUTO_COUNT>
5

> <PUBCHEM_CONFORMER_ID>
000BF93A00000001

> <PUBCHEM_MMFF94_ENERGY>
60.8293

> <PUBCHEM_FEATURE_SELFOVERLAP>
40.703

> <PUBCHEM_SHAPE_FINGERPRINT>
10014705 185 18409728465521701381
10354089 29 18113622283158694824
10366900 7 13686301292250757086
10411042 1 17836644494175494687
10616163 171 18339643463805823078
11089746 13 18201711873278876780
117890 112 18343019965061046657
12107183 9 17759799247776602578
12236239 1 18335420179834895634
12390115 104 17915474809109494049
12403814 3 17967810540299237589
13167823 11 18335982047024372954
13533116 47 17560800962249438958
13675066 3 17676492735195900719
13760787 19 18410291423722464714
13785724 45 17617093603633552834
15048467 5 18410573976572403904
15196674 1 18410575110432895694
15242433 33 18409729560532769914
18186145 218 17530957007961516106
19050596 39 18333729139251251346
19489759 90 16988846064219706753
200 152 18341610451336475410
20279233 1 16272213002470579886
20281389 69 18334293145888375449
20621476 66 18341056233310354649
20645477 56 18411700967880799237
20645477 70 18339642244419940598
20681677 155 18408039628172033690
21065198 48 18334852822818118146
21267235 1 18336836380591730310
212847 35 18413387622770279432
21421861 104 17823971247927019834
23402539 116 18273490191120510004
23402655 69 18410292527787178462
23559900 14 18201998846135324008
26918003 58 17458064880392667064
293599 30 18341896256099136913
300161 21 18411975862682619904
3004659 81 18410295766715142230
335352 9 18410856529685808246
34797466 226 17417819507752471124
34934 24 18411978044331132715
3545911 37 18411702084392779204
4073 2 18040721415643057258
4214541 1 18410292527439057709
474 4 17460036399642292500
5104073 3 18334573576876304016
542803 24 17458346355548595716
573450 72 18410284830805175795
59755656 215 18272095938000447150
633830 44 17967250914070358338
67856867 119 18264486364106588804
77779 3 18408886265047116006
8272917 22 18336266743569622322
9709674 26 18410299133315803334

> <PUBCHEM_SHAPE_MULTIPOLES>
349.62
12.34
1.71
0.66
3.1
0.04
0
-4.09
-0.72
-1.42
0.05
0.11
0
-0.75

> <PUBCHEM_SHAPE_SELFOVERLAP>
777.193

> <PUBCHEM_SHAPE_VOLUME>
189.1

> <PUBCHEM_COORDINATE_TYPE>
2
5
10

$$$$
