15945204
  -OEChem-01171809373D

 41 44  0     0  0  0  0  0  0999 V2000
    2.9094   -5.0199    1.0304 Cl  0  0  0  0  0  0  0  0  0  0  0  0
    0.7748    0.3395   -2.2597 O   0  0  0  0  0  0  0  0  0  0  0  0
   -2.1908   -0.2432   -0.6724 N   0  0  0  0  0  0  0  0  0  0  0  0
   -2.4551    1.4388    0.7563 N   0  0  0  0  0  0  0  0  0  0  0  0
   -1.5916    0.7655    0.0296 C   0  0  0  0  0  0  0  0  0  0  0  0
   -3.5302   -0.2189   -0.3794 C   0  0  0  0  0  0  0  0  0  0  0  0
   -0.2037    0.9224   -0.1245 C   0  0  0  0  0  0  0  0  0  0  0  0
   -3.6698    0.8396    0.5142 C   0  0  0  0  0  0  0  0  0  0  0  0
    0.6010    0.0603   -1.0775 C   0  0  0  0  0  0  0  0  0  0  0  0
    0.5256    1.8825    0.5125 C   0  0  0  0  0  0  0  0  0  0  0  0
   -4.5991   -1.0077   -0.8063 C   0  0  0  0  0  0  0  0  0  0  0  0
   -4.9441    1.1432    1.0223 C   0  0  0  0  0  0  0  0  0  0  0  0
    1.1715   -1.1980   -0.5568 C   0  0  0  0  0  0  0  0  0  0  0  0
    1.9769    2.0843    0.3821 C   0  0  0  0  0  0  0  0  0  0  0  0
   -5.8602   -0.6912   -0.2906 C   0  0  0  0  0  0  0  0  0  0  0  0
   -6.0319    0.3645    0.6075 C   0  0  0  0  0  0  0  0  0  0  0  0
    0.9540   -1.5409    0.7662 C   0  0  0  0  0  0  0  0  0  0  0  0
    1.9124   -2.0051   -1.4023 C   0  0  0  0  0  0  0  0  0  0  0  0
    2.8360    1.4327    1.2539 C   0  0  0  0  0  0  0  0  0  0  0  0
    2.4612    2.9230   -0.6102 C   0  0  0  0  0  0  0  0  0  0  0  0
    1.4945   -2.7284    1.2594 C   0  0  0  0  0  0  0  0  0  0  0  0
    2.4529   -3.1927   -0.9092 C   0  0  0  0  0  0  0  0  0  0  0  0
    4.2122    1.6243    1.1304 C   0  0  0  0  0  0  0  0  0  0  0  0
    3.8373    3.1146   -0.7339 C   0  0  0  0  0  0  0  0  0  0  0  0
    2.2440   -3.5543    0.4216 C   0  0  0  0  0  0  0  0  0  0  0  0
    4.7128    2.4652    0.1364 C   0  0  0  0  0  0  0  0  0  0  0  0
   -1.7466   -0.9005   -1.3002 H   0  0  0  0  0  0  0  0  0  0  0  0
    0.0386    2.5691    1.2022 H   0  0  0  0  0  0  0  0  0  0  0  0
   -4.4632   -1.8267   -1.5034 H   0  0  0  0  0  0  0  0  0  0  0  0
   -5.0879    1.9614    1.7206 H   0  0  0  0  0  0  0  0  0  0  0  0
   -6.7227   -1.2790   -0.5952 H   0  0  0  0  0  0  0  0  0  0  0  0
   -7.0245    0.5862    0.9912 H   0  0  0  0  0  0  0  0  0  0  0  0
    0.3776   -0.9385    1.4594 H   0  0  0  0  0  0  0  0  0  0  0  0
    2.0900   -1.7445   -2.4416 H   0  0  0  0  0  0  0  0  0  0  0  0
    2.4607    0.7833    2.0401 H   0  0  0  0  0  0  0  0  0  0  0  0
    1.7895    3.4348   -1.2944 H   0  0  0  0  0  0  0  0  0  0  0  0
    1.3233   -2.9983    2.2985 H   0  0  0  0  0  0  0  0  0  0  0  0
    3.0350   -3.8265   -1.5732 H   0  0  0  0  0  0  0  0  0  0  0  0
    4.8938    1.1203    1.8094 H   0  0  0  0  0  0  0  0  0  0  0  0
    4.2272    3.7693   -1.5077 H   0  0  0  0  0  0  0  0  0  0  0  0
    5.7842    2.6147    0.0404 H   0  0  0  0  0  0  0  0  0  0  0  0
  1 25  1  0  0  0  0
  2  9  2  0  0  0  0
  3  5  1  0  0  0  0
  3  6  1  0  0  0  0
  3 27  1  0  0  0  0
  4  5  2  0  0  0  0
  4  8  1  0  0  0  0
  5  7  1  0  0  0  0
  6  8  1  0  0  0  0
  6 11  2  0  0  0  0
  7  9  1  0  0  0  0
  7 10  2  0  0  0  0
  8 12  2  0  0  0  0
  9 13  1  0  0  0  0
 10 14  1  0  0  0  0
 10 28  1  0  0  0  0
 11 15  1  0  0  0  0
 11 29  1  0  0  0  0
 12 16  1  0  0  0  0
 12 30  1  0  0  0  0
 13 17  2  0  0  0  0
 13 18  1  0  0  0  0
 14 19  2  0  0  0  0
 14 20  1  0  0  0  0
 15 16  2  0  0  0  0
 15 31  1  0  0  0  0
 16 32  1  0  0  0  0
 17 21  1  0  0  0  0
 17 33  1  0  0  0  0
 18 22  2  0  0  0  0
 18 34  1  0  0  0  0
 19 23  1  0  0  0  0
 19 35  1  0  0  0  0
 20 24  2  0  0  0  0
 20 36  1  0  0  0  0
 21 25  2  0  0  0  0
 21 37  1  0  0  0  0
 22 25  1  0  0  0  0
 22 38  1  0  0  0  0
 23 26  2  0  0  0  0
 23 39  1  0  0  0  0
 24 26  1  0  0  0  0
 24 40  1  0  0  0  0
 26 41  1  0  0  0  0
M  END
> <PUBCHEM_COMPOUND_CID>
15945204

> <PUBCHEM_CONFORMER_RMSD>
0.8

> <PUBCHEM_CONFORMER_DIVERSEORDER>
1
4
2
5
6
3

> <PUBCHEM_MMFF94_PARTIAL_CHARGES>
41
1 -0.18
10 -0.18
11 -0.15
12 -0.15
13 0.09
14 0.03
15 -0.15
16 -0.15
17 -0.15
18 -0.15
19 -0.15
2 -0.57
20 -0.15
21 -0.15
22 -0.15
23 -0.15
24 -0.15
25 0.18
26 -0.15
27 0.27
28 0.15
29 0.15
3 0.03
30 0.15
31 0.15
32 0.15
33 0.15
34 0.15
35 0.15
36 0.15
37 0.15
38 0.15
39 0.15
4 -0.57
40 0.15
41 0.15
5 0.14
6 -0.15
7 0.06
8 0.23
9 0.47

> <PUBCHEM_EFFECTIVE_ROTOR_COUNT>
4

> <PUBCHEM_PHARMACOPHORE_FEATURES>
7
1 2 acceptor
1 3 donor
3 3 4 5 cation
5 3 4 5 6 8 rings
6 13 17 18 21 22 25 rings
6 14 19 20 23 24 26 rings
6 6 8 11 12 15 16 rings

> <PUBCHEM_HEAVY_ATOM_COUNT>
26

> <PUBCHEM_ATOM_DEF_STEREO_COUNT>
0

> <PUBCHEM_ATOM_UDEF_STEREO_COUNT>
0

> <PUBCHEM_BOND_DEF_STEREO_COUNT>
1

> <PUBCHEM_BOND_UDEF_STEREO_COUNT>
0

> <PUBCHEM_ISOTOPIC_ATOM_COUNT>
0

> <PUBCHEM_COMPONENT_COUNT>
1

> <PUBCHEM_CACTVS_TAUTO_COUNT>
1

> <PUBCHEM_CONFORMER_ID>
00F34DF400000001

> <PUBCHEM_MMFF94_ENERGY>
78.3963

> <PUBCHEM_FEATURE_SELFOVERLAP>
35.629

> <PUBCHEM_SHAPE_FINGERPRINT>
10090160 65 18338793528363571893
11112662 9 18114173198582033410
11421498 54 18202286913533894153
11488393 25 18189598489425044106
11763715 3 17617118914434717894
11963148 33 18196080261001257423
12107183 9 17910119002165995705
12156800 1 16372443452220669890
12553582 1 18052820243589044391
12592029 89 18413108389756012856
12597179 24 18188495795036741218
12788726 201 17255702797785366418
133893 2 18269292178780415880
13533116 47 18409172074437197251
13692114 37 17982717864645768243
14020679 6 17198792454152340360
14118638 360 18272089414557021185
14739800 52 17489579052719529833
14790565 3 18195810892935960849
14863182 85 18335142024540811830
15664445 248 17984717627003960798
15775530 1 18044361734743218300
15927050 60 18341333408655939903
1813 80 18054793875281681327
18681886 176 16056598828399493889
19311894 1 16835706355023418391
20028762 73 17767685318965808343
20567600 347 18339363079702468734
20600515 1 17266099796806391048
21033648 144 17753320161163371117
21033648 29 15070002659682122101
21054139 6 18128246999141731413
21421861 104 18339928112762761713
21796203 349 17835278599389611627
22956985 138 18263352604314694826
23366157 5 18336552629013093748
23419403 2 17898552199480327510
23558518 356 17406539781166788044
23559900 14 17273709654479255735
25147074 1 17988635299330103261
25222932 49 17985826163186109887
3411729 13 18342740714787601008
3421961 26 18338515218814584299
4073 2 18336836394146350723
4340502 62 18334863870016958515
465052 167 17822003246498624992
474 4 18338237171079467725
5104073 3 18200326437989943113
59755656 215 18411419513925614933
6138700 20 18342184345773785708
633830 44 17987233528540913277
6376802 90 17895181217932837959
8272917 22 18410575093358943904
9841814 1 18269000777886519863

> <PUBCHEM_SHAPE_MULTIPOLES>
521.11
10.69
4.92
1.36
17.47
5.49
-0.27
-3.3
1.63
-9.67
0.93
-0.57
0.28
-0.99

> <PUBCHEM_SHAPE_SELFOVERLAP>
1157.251

> <PUBCHEM_SHAPE_VOLUME>
278.8

> <PUBCHEM_COORDINATE_TYPE>
2
5
10

$$$$
