2808387
  -OEChem-01171809553D

 46 48  0     0  0  0  0  0  0999 V2000
    1.7061    2.5356    0.0049 F   0  0  0  0  0  0  0  0  0  0  0  0
    3.5376    2.1125    1.0868 F   0  0  0  0  0  0  0  0  0  0  0  0
    3.5341    2.0960   -1.0877 F   0  0  0  0  0  0  0  0  0  0  0  0
   -7.4464   -2.6452    0.0020 F   0  0  0  0  0  0  0  0  0  0  0  0
   -5.6959   -3.3283   -1.0811 F   0  0  0  0  0  0  0  0  0  0  0  0
   -5.6861   -3.3077    1.0933 F   0  0  0  0  0  0  0  0  0  0  0  0
   -8.1552    1.9968    0.0000 F   0  0  0  0  0  0  0  0  0  0  0  0
   -6.6877    3.1711    1.0824 F   0  0  0  0  0  0  0  0  0  0  0  0
   -6.6733    3.1543   -1.0921 F   0  0  0  0  0  0  0  0  0  0  0  0
   -1.4049   -1.6558   -0.0050 O   0  0  0  0  0  0  0  0  0  0  0  0
    9.5637    0.0867    1.0988 O   0  5  0  0  0  0  0  0  0  0  0  0
    9.5636    0.0912   -1.0963 O   0  0  0  0  0  0  0  0  0  0  0  0
    3.4153   -0.7150   -0.0017 N   0  0  0  0  0  0  0  0  0  0  0  0
    0.0133    0.2051   -0.0006 N   0  0  0  0  0  0  0  0  0  0  0  0
    2.9050   -1.9584   -0.0038 N   0  0  0  0  0  0  0  0  0  0  0  0
   -2.2741    0.5194    0.0000 N   0  0  0  0  0  0  0  0  0  0  0  0
    8.9605    0.0105    0.0011 N   0  3  0  0  0  0  0  0  0  0  0  0
    2.4702    0.2686   -0.0002 C   0  0  0  0  0  0  0  0  0  0  0  0
    1.2816   -0.3875   -0.0016 C   0  0  0  0  0  0  0  0  0  0  0  0
    4.7985   -0.5340   -0.0005 C   0  0  0  0  0  0  0  0  0  0  0  0
   -3.6533    0.3091   -0.0004 C   0  0  0  0  0  0  0  0  0  0  0  0
    1.5866   -1.7450   -0.0039 C   0  0  0  0  0  0  0  0  0  0  0  0
    2.8004    1.7088    0.0030 C   0  0  0  0  0  0  0  0  0  0  0  0
   -5.5392   -1.2008    0.0009 C   0  0  0  0  0  0  0  0  0  0  0  0
   -5.9040    1.1873    0.0001 C   0  0  0  0  0  0  0  0  0  0  0  0
   -4.5251    1.3979   -0.0005 C   0  0  0  0  0  0  0  0  0  0  0  0
   -4.1604   -0.9903    0.0003 C   0  0  0  0  0  0  0  0  0  0  0  0
   -6.4111   -0.1120    0.0007 C   0  0  0  0  0  0  0  0  0  0  0  0
    5.4777   -0.4475    1.2078 C   0  0  0  0  0  0  0  0  0  0  0  0
    5.4784   -0.4427   -1.2082 C   0  0  0  0  0  0  0  0  0  0  0  0
   -1.2328   -0.4411   -0.0016 C   0  0  0  0  0  0  0  0  0  0  0  0
    6.8608   -0.2662    1.2085 C   0  0  0  0  0  0  0  0  0  0  0  0
    6.8614   -0.2615   -1.2075 C   0  0  0  0  0  0  0  0  0  0  0  0
    7.5526   -0.1733    0.0009 C   0  0  0  0  0  0  0  0  0  0  0  0
   -6.0816   -2.5903    0.0016 C   0  0  0  0  0  0  0  0  0  0  0  0
   -6.8362    2.3517   -0.0002 C   0  0  0  0  0  0  0  0  0  0  0  0
    0.9360   -2.6069   -0.0054 H   0  0  0  0  0  0  0  0  0  0  0  0
    0.0135    1.2216    0.0015 H   0  0  0  0  0  0  0  0  0  0  0  0
   -4.1342    2.4130   -0.0008 H   0  0  0  0  0  0  0  0  0  0  0  0
   -3.5441   -1.8782    0.0009 H   0  0  0  0  0  0  0  0  0  0  0  0
   -7.4854   -0.2761    0.0011 H   0  0  0  0  0  0  0  0  0  0  0  0
    4.9495   -0.5180    2.1552 H   0  0  0  0  0  0  0  0  0  0  0  0
    4.9507   -0.5095   -2.1562 H   0  0  0  0  0  0  0  0  0  0  0  0
   -1.9802    1.4931    0.0008 H   0  0  0  0  0  0  0  0  0  0  0  0
    7.3661   -0.2017    2.1687 H   0  0  0  0  0  0  0  0  0  0  0  0
    7.3672   -0.1933   -2.1673 H   0  0  0  0  0  0  0  0  0  0  0  0
  1 23  1  0  0  0  0
  2 23  1  0  0  0  0
  3 23  1  0  0  0  0
  4 35  1  0  0  0  0
  5 35  1  0  0  0  0
  6 35  1  0  0  0  0
  7 36  1  0  0  0  0
  8 36  1  0  0  0  0
  9 36  1  0  0  0  0
 10 31  2  0  0  0  0
 11 17  1  0  0  0  0
 12 17  2  0  0  0  0
 13 15  1  0  0  0  0
 13 18  1  0  0  0  0
 13 20  1  0  0  0  0
 14 19  1  0  0  0  0
 14 31  1  0  0  0  0
 14 38  1  0  0  0  0
 15 22  2  0  0  0  0
 16 21  1  0  0  0  0
 16 31  1  0  0  0  0
 16 44  1  0  0  0  0
 17 34  1  0  0  0  0
 18 19  2  0  0  0  0
 18 23  1  0  0  0  0
 19 22  1  0  0  0  0
 20 29  2  0  0  0  0
 20 30  1  0  0  0  0
 21 26  2  0  0  0  0
 21 27  1  0  0  0  0
 22 37  1  0  0  0  0
 24 27  2  0  0  0  0
 24 28  1  0  0  0  0
 24 35  1  0  0  0  0
 25 26  1  0  0  0  0
 25 28  2  0  0  0  0
 25 36  1  0  0  0  0
 26 39  1  0  0  0  0
 27 40  1  0  0  0  0
 28 41  1  0  0  0  0
 29 32  1  0  0  0  0
 29 42  1  0  0  0  0
 30 33  2  0  0  0  0
 30 43  1  0  0  0  0
 32 34  2  0  0  0  0
 32 45  1  0  0  0  0
 33 34  1  0  0  0  0
 33 46  1  0  0  0  0
M  CHG  2  11  -1  17   1
M  END
> <PUBCHEM_COMPOUND_CID>
2808387

> <PUBCHEM_CONFORMER_RMSD>
1

> <PUBCHEM_CONFORMER_DIVERSEORDER>
1
5
4
3
2

> <PUBCHEM_MMFF94_PARTIAL_CHARGES>
46
1 -0.34
10 -0.57
11 -0.52
12 -0.52
13 0.59
14 -0.49
15 -0.71
16 -0.55
17 0.91
18 -0.33
19 0.06
2 -0.34
20 -0.02
21 0.12
22 0.14
23 1.2
24 -0.14
25 -0.14
26 -0.15
27 -0.15
28 -0.15
29 -0.15
3 -0.34
30 -0.15
31 0.69
32 -0.15
33 -0.15
34 0.13
35 1.16
36 1.16
37 0.15
38 0.37
39 0.15
4 -0.34
40 0.15
41 0.15
42 0.15
43 0.15
44 0.37
45 0.15
46 0.15
5 -0.34
6 -0.34
7 -0.34
8 -0.34
9 -0.34

> <PUBCHEM_EFFECTIVE_ROTOR_COUNT>
9

> <PUBCHEM_PHARMACOPHORE_FEATURES>
10
1 10 acceptor
1 11 acceptor
1 11 anion
1 12 acceptor
1 14 donor
1 15 acceptor
1 16 donor
5 13 15 18 19 22 rings
6 20 29 30 32 33 34 rings
6 21 24 25 26 27 28 rings

> <PUBCHEM_HEAVY_ATOM_COUNT>
36

> <PUBCHEM_ATOM_DEF_STEREO_COUNT>
0

> <PUBCHEM_ATOM_UDEF_STEREO_COUNT>
0

> <PUBCHEM_BOND_DEF_STEREO_COUNT>
0

> <PUBCHEM_BOND_UDEF_STEREO_COUNT>
0

> <PUBCHEM_ISOTOPIC_ATOM_COUNT>
0

> <PUBCHEM_COMPONENT_COUNT>
1

> <PUBCHEM_CACTVS_TAUTO_COUNT>
3

> <PUBCHEM_CONFORMER_ID>
002ADA4300000001

> <PUBCHEM_MMFF94_ENERGY>
96.8002

> <PUBCHEM_FEATURE_SELFOVERLAP>
50.877

> <PUBCHEM_SHAPE_FINGERPRINT>
10050765 1 18049724311377275922
100830 39 18410011005983188917
10100884 174 17024611095198957515
10299344 5 17967532376605181202
11315181 36 17417811730310055009
12082328 90 18410573981025861039
12089408 11 18113336415137386954
12133447 93 18341342106596827404
12664476 115 18408321073907139465
13811026 1 18201997746724111656
14251764 18 17894910746324807202
150020 25 17917712388095921066
15183329 4 18407760318106766145
15198563 99 16844740729364110888
15361156 5 17967823755961456893
15419008 91 18058996350662898840
15461852 350 18411423933937410366
15510794 2 18060703870856534254
1577012 14 18186517683534964834
15840311 113 17967535714681072244
15849732 13 17917993884842874332
15890870 6 18124314905861638377
16989713 51 17988072422355080375
17844677 252 18339648931920721537
18608769 82 18408321068873603252
18681886 176 18342734156720816986
21130935 74 18410569566142664530
23081809 10 17822012016573689319
23522609 53 17823440256303320580
23559900 14 18343015571953022809
249057 3 18411418402346639173
335352 9 18411135827014269180
335507 130 18340772628277843719
4073 2 18186806911064808083
44280117 145 18341332296797162191
6691757 9 15195282053832064287
99344 41 18410011013829312023

> <PUBCHEM_SHAPE_MULTIPOLES>
632.89
29.95
3
0.96
18
0.04
0
-2.39
-0.02
-9.25
0
1.25
-0.05
0

> <PUBCHEM_SHAPE_SELFOVERLAP>
1388.952

> <PUBCHEM_SHAPE_VOLUME>
343.9

> <PUBCHEM_COORDINATE_TYPE>
2
5
10

$$$$
