619061
  -OEChem-01171810153D

 35 38  0     1  0  0  0  0  0999 V2000
    3.9259   -1.8174    0.8465 O   0  0  0  0  0  0  0  0  0  0  0  0
    3.7999    0.9286    1.4512 O   0  0  0  0  0  0  0  0  0  0  0  0
    3.7097    2.7838   -0.5587 O   0  0  0  0  0  0  0  0  0  0  0  0
   -3.4321    2.3994    0.2598 O   0  0  0  0  0  0  0  0  0  0  0  0
   -4.5158    0.2486    0.2136 O   0  0  0  0  0  0  0  0  0  0  0  0
   -0.8172   -3.2355   -0.5384 O   0  0  0  0  0  0  0  0  0  0  0  0
   -3.1163   -2.2028   -0.0314 O   0  0  0  0  0  0  0  0  0  0  0  0
    1.1092   -2.0376   -0.1864 N   0  0  0  0  0  0  0  0  0  0  0  0
    1.7799   -0.8453    0.3239 C   0  0  1  0  0  0  0  0  0  0  0  0
    3.2784   -0.8983   -0.0317 C   0  0  1  0  0  0  0  0  0  0  0  0
    3.9312    0.4794    0.0986 C   0  0  1  0  0  0  0  0  0  0  0  0
    1.0763    0.3823   -0.2111 C   0  0  0  0  0  0  0  0  0  0  0  0
    3.2465    1.4685   -0.8508 C   0  0  1  0  0  0  0  0  0  0  0  0
    1.7446    1.4132   -0.7633 C   0  0  0  0  0  0  0  0  0  0  0  0
   -0.3997    0.3379   -0.1197 C   0  0  0  0  0  0  0  0  0  0  0  0
   -1.0507   -0.9219   -0.1302 C   0  0  0  0  0  0  0  0  0  0  0  0
   -0.2614   -2.1686   -0.2954 C   0  0  0  0  0  0  0  0  0  0  0  0
   -1.1737    1.5038    0.0187 C   0  0  0  0  0  0  0  0  0  0  0  0
   -2.4468   -1.0209   -0.0282 C   0  0  0  0  0  0  0  0  0  0  0  0
   -2.5454    1.3756    0.1214 C   0  0  0  0  0  0  0  0  0  0  0  0
   -3.1634    0.1495    0.0975 C   0  0  0  0  0  0  0  0  0  0  0  0
   -4.6791    1.6777    0.3142 C   0  0  0  0  0  0  0  0  0  0  0  0
    1.6571   -0.8794    1.4153 H   0  0  0  0  0  0  0  0  0  0  0  0
    3.4144   -1.2738   -1.0545 H   0  0  0  0  0  0  0  0  0  0  0  0
    5.0069    0.4241   -0.1034 H   0  0  0  0  0  0  0  0  0  0  0  0
    3.5266    1.2453   -1.8874 H   0  0  0  0  0  0  0  0  0  0  0  0
    1.2121    2.2552   -1.1976 H   0  0  0  0  0  0  0  0  0  0  0  0
    1.6601   -2.8860   -0.2793 H   0  0  0  0  0  0  0  0  0  0  0  0
   -0.7239    2.4907    0.0602 H   0  0  0  0  0  0  0  0  0  0  0  0
    4.8673   -1.8397    0.6040 H   0  0  0  0  0  0  0  0  0  0  0  0
    4.1810    1.8221    1.4978 H   0  0  0  0  0  0  0  0  0  0  0  0
    4.6757    2.7858   -0.6714 H   0  0  0  0  0  0  0  0  0  0  0  0
   -5.1770    1.9081    1.2631 H   0  0  0  0  0  0  0  0  0  0  0  0
   -5.3175    2.0169   -0.5097 H   0  0  0  0  0  0  0  0  0  0  0  0
   -4.0689   -2.0237    0.0541 H   0  0  0  0  0  0  0  0  0  0  0  0
  1 10  1  0  0  0  0
  1 30  1  0  0  0  0
  2 11  1  0  0  0  0
  2 31  1  0  0  0  0
  3 13  1  0  0  0  0
  3 32  1  0  0  0  0
  4 20  1  0  0  0  0
  4 22  1  0  0  0  0
  5 21  1  0  0  0  0
  5 22  1  0  0  0  0
  6 17  2  0  0  0  0
  7 19  1  0  0  0  0
  7 35  1  0  0  0  0
  8  9  1  0  0  0  0
  8 17  1  0  0  0  0
  8 28  1  0  0  0  0
  9 10  1  0  0  0  0
  9 12  1  0  0  0  0
  9 23  1  0  0  0  0
 10 11  1  0  0  0  0
 10 24  1  0  0  0  0
 11 13  1  0  0  0  0
 11 25  1  0  0  0  0
 12 14  2  0  0  0  0
 12 15  1  0  0  0  0
 13 14  1  0  0  0  0
 13 26  1  0  0  0  0
 14 27  1  0  0  0  0
 15 16  1  0  0  0  0
 15 18  2  0  0  0  0
 16 17  1  0  0  0  0
 16 19  2  0  0  0  0
 18 20  1  0  0  0  0
 18 29  1  0  0  0  0
 19 21  1  0  0  0  0
 20 21  2  0  0  0  0
 22 33  1  0  0  0  0
 22 34  1  0  0  0  0
M  END
> <PUBCHEM_COMPOUND_CID>
619061

> <PUBCHEM_CONFORMER_RMSD>
0.6

> <PUBCHEM_CONFORMER_DIVERSEORDER>
5
7
3
9
6
4
1
2
8

> <PUBCHEM_MMFF94_PARTIAL_CHARGES>
29
1 -0.68
10 0.28
11 0.28
12 -0.17
13 0.42
14 -0.29
15 0.03
16 0.09
17 0.54
18 -0.15
19 0.08
2 -0.68
20 0.08
21 0.08
22 0.56
27 0.15
28 0.37
29 0.15
3 -0.68
30 0.4
31 0.4
32 0.4
35 0.45
4 -0.36
5 -0.36
6 -0.57
7 -0.53
8 -0.73
9 0.44

> <PUBCHEM_EFFECTIVE_ROTOR_COUNT>
1.4

> <PUBCHEM_PHARMACOPHORE_FEATURES>
15
1 1 acceptor
1 1 donor
1 2 acceptor
1 2 donor
1 3 acceptor
1 3 donor
1 4 acceptor
1 5 acceptor
1 6 acceptor
1 7 donor
1 8 donor
5 4 5 20 21 22 rings
6 15 16 18 19 20 21 rings
6 8 9 12 15 16 17 rings
6 9 10 11 12 13 14 rings

> <PUBCHEM_HEAVY_ATOM_COUNT>
22

> <PUBCHEM_ATOM_DEF_STEREO_COUNT>
0

> <PUBCHEM_ATOM_UDEF_STEREO_COUNT>
4

> <PUBCHEM_BOND_DEF_STEREO_COUNT>
0

> <PUBCHEM_BOND_UDEF_STEREO_COUNT>
0

> <PUBCHEM_ISOTOPIC_ATOM_COUNT>
0

> <PUBCHEM_COMPONENT_COUNT>
1

> <PUBCHEM_CACTVS_TAUTO_COUNT>
7

> <PUBCHEM_CONFORMER_ID>
0009723500000005

> <PUBCHEM_MMFF94_ENERGY>
59.843

> <PUBCHEM_FEATURE_SELFOVERLAP>
76.348

> <PUBCHEM_SHAPE_FINGERPRINT>
10062212 137 18411410713769597311
10319926 262 18128234862049677480
10411042 1 16897650087891418191
10616163 171 18338240482520319606
10646746 165 18343302578457207312
10759866 29 18261402182250232812
10967382 1 18338801104574715943
11132069 177 18409445882121746441
11370993 70 18339638945562809985
12173636 292 18341889710231205573
12251169 10 18334294223513196903
12390115 104 18199490881112813489
12403260 363 18339072692837449965
12403814 3 17967247603220318053
12553582 1 17763743595439271559
12592029 89 18337117752536588651
12788726 201 17829328338897051658
13140716 1 18408887312908269211
138480 1 17474392374884181215
14178342 30 18193822963670735010
14790565 3 18341906151846868081
15196674 1 18410294717898862855
15256400 18 18339078177410460136
15442244 35 18408319969620178198
15536298 74 18341052934595629550
16752209 62 18341332309154218351
16945 1 18196369449152818182
17492 89 18408605885272073306
1813 80 16951126163094721006
18186145 218 18411982421140022100
18222031 100 11891345278651643297
19591789 44 18411421726023396855
20510252 161 18200040671428410025
20715895 44 18192987119975114029
21267235 1 18337119994203574603
21501502 16 18409448111030334126
21524375 3 18408886217876211883
23184049 59 18260830358546179380
2334 1 18410858788754209599
23463225 33 18334858298953771700
23558518 356 18335980964592790410
23559900 14 18201728323446388316
25147074 1 18115019840237554980
2748010 2 18339375079888839631
3091708 16 8978766438462138835
335352 9 18338237038109438414
350125 39 18337957779346466556
352729 6 18341619196032431863
474 4 18261396632677648233
495365 180 17274813650063600090
5104073 3 18408887334346137681
58807428 26 18335695001364355546
69090 78 18410853252747067263
7064713 232 18412820261748353568
7097593 13 18115574968697321658
7364860 26 18054793883897840471
7808743 9 18267587003960839240
7832392 63 18410011074480437630
9709674 26 18340212899243848175
9981440 41 17757553328375181752

> <PUBCHEM_SHAPE_MULTIPOLES>
406.68
8.36
2.93
0.8
1.16
0.89
0.08
-3.73
1.32
0.14
-0.36
-0.57
-0.11
-0.8

> <PUBCHEM_SHAPE_SELFOVERLAP>
915.893

> <PUBCHEM_SHAPE_VOLUME>
211.2

> <PUBCHEM_COORDINATE_TYPE>
2
5
10

$$$$
