252247
  -OEChem-01171810143D

 36 37  0     0  0  0  0  0  0999 V2000
   -3.3229   -1.1435    1.1153 O   0  0  0  0  0  0  0  0  0  0  0  0
   -1.4701    1.6088    1.8654 O   0  0  0  0  0  0  0  0  0  0  0  0
    6.7797    0.0793   -0.2734 O   0  5  0  0  0  0  0  0  0  0  0  0
    5.7836    1.3917    1.1772 O   0  0  0  0  0  0  0  0  0  0  0  0
   -2.3412   -2.1895   -0.7346 O   0  0  0  0  0  0  0  0  0  0  0  0
    5.7406    0.5291    0.2670 N   0  3  0  0  0  0  0  0  0  0  0  0
   -2.8822    0.9837    0.0991 C   0  0  0  0  0  0  0  0  0  0  0  0
    2.0659    0.0583   -0.0042 C   0  0  0  0  0  0  0  0  0  0  0  0
   -3.6956   -0.1138    0.3041 C   0  0  0  0  0  0  0  0  0  0  0  0
   -1.5629    1.0633    0.7714 C   0  0  0  0  0  0  0  0  0  0  0  0
   -3.2587    2.0285   -0.7237 C   0  0  0  0  0  0  0  0  0  0  0  0
    0.8461    0.5633    0.6062 C   0  0  0  0  0  0  0  0  0  0  0  0
    3.3072    0.5322    0.4206 C   0  0  0  0  0  0  0  0  0  0  0  0
   -0.3872    0.4926    0.0566 C   0  0  0  0  0  0  0  0  0  0  0  0
    4.4765    0.0476   -0.1654 C   0  0  0  0  0  0  0  0  0  0  0  0
    1.9941   -0.9002   -1.0150 C   0  0  0  0  0  0  0  0  0  0  0  0
   -4.9329   -0.1693   -0.3377 C   0  0  0  0  0  0  0  0  0  0  0  0
   -4.4959    1.9728   -1.3656 C   0  0  0  0  0  0  0  0  0  0  0  0
   -5.3330    0.8740   -1.1727 C   0  0  0  0  0  0  0  0  0  0  0  0
    4.4046   -0.9110   -1.1761 C   0  0  0  0  0  0  0  0  0  0  0  0
    3.1633   -1.3850   -1.6011 C   0  0  0  0  0  0  0  0  0  0  0  0
   -2.6214   -2.1657    0.4565 C   0  0  0  0  0  0  0  0  0  0  0  0
   -2.2576   -3.2470    1.4303 C   0  0  0  0  0  0  0  0  0  0  0  0
   -2.6125    2.8877   -0.8786 H   0  0  0  0  0  0  0  0  0  0  0  0
    0.9721    1.0390    1.5763 H   0  0  0  0  0  0  0  0  0  0  0  0
    3.3448    1.2811    1.2093 H   0  0  0  0  0  0  0  0  0  0  0  0
   -0.5760    0.0588   -0.9184 H   0  0  0  0  0  0  0  0  0  0  0  0
    1.0519   -1.3132   -1.3636 H   0  0  0  0  0  0  0  0  0  0  0  0
   -5.5907   -1.0219   -0.1918 H   0  0  0  0  0  0  0  0  0  0  0  0
   -4.8075    2.7853   -2.0156 H   0  0  0  0  0  0  0  0  0  0  0  0
   -6.2963    0.8308   -1.6724 H   0  0  0  0  0  0  0  0  0  0  0  0
    5.2943   -1.3124   -1.6545 H   0  0  0  0  0  0  0  0  0  0  0  0
    3.1078   -2.1349   -2.3848 H   0  0  0  0  0  0  0  0  0  0  0  0
   -1.6168   -2.8360    2.2144 H   0  0  0  0  0  0  0  0  0  0  0  0
   -1.7085   -4.0356    0.9081 H   0  0  0  0  0  0  0  0  0  0  0  0
   -3.1653   -3.6778    1.8597 H   0  0  0  0  0  0  0  0  0  0  0  0
  1  9  1  0  0  0  0
  1 22  1  0  0  0  0
  2 10  2  0  0  0  0
  3  6  1  0  0  0  0
  4  6  2  0  0  0  0
  5 22  2  0  0  0  0
  6 15  1  0  0  0  0
  7  9  1  0  0  0  0
  7 10  1  0  0  0  0
  7 11  2  0  0  0  0
  8 12  1  0  0  0  0
  8 13  2  0  0  0  0
  8 16  1  0  0  0  0
  9 17  2  0  0  0  0
 10 14  1  0  0  0  0
 11 18  1  0  0  0  0
 11 24  1  0  0  0  0
 12 14  2  0  0  0  0
 12 25  1  0  0  0  0
 13 15  1  0  0  0  0
 13 26  1  0  0  0  0
 14 27  1  0  0  0  0
 15 20  2  0  0  0  0
 16 21  2  0  0  0  0
 16 28  1  0  0  0  0
 17 19  1  0  0  0  0
 17 29  1  0  0  0  0
 18 19  2  0  0  0  0
 18 30  1  0  0  0  0
 19 31  1  0  0  0  0
 20 21  1  0  0  0  0
 20 32  1  0  0  0  0
 21 33  1  0  0  0  0
 22 23  1  0  0  0  0
 23 34  1  0  0  0  0
 23 35  1  0  0  0  0
 23 36  1  0  0  0  0
M  CHG  2   3  -1   6   1
M  END
> <PUBCHEM_COMPOUND_CID>
252247

> <PUBCHEM_CONFORMER_RMSD>
0.8

> <PUBCHEM_CONFORMER_DIVERSEORDER>
2
134
30
57
98
20
106
139
138
74
53
144
100
35
141
110
125
71
76
99
143
153
137
27
22
36
127
111
96
54
69
122
108
93
59
95
47
68
12
10
60
129
75
32
77
112
9
37
14
117
61
29
84
123
48
119
124
21
23
4
101
50
44
86
131
132
6
148
92
18
149
28
118
19
63
102
81
67
116
40
140
130
126
7
73
58
55
152
41
147
43
128
135
83
5
34
114
33
45
79
97
82
109
66
38
88
146
52
13
115
65
8
103
31
49
26
85
121
56
94
17
11
136
150
87
151
16
15
89
42
1
91
70
78
46
113
39
104
25
62
145
105
90
142
107
120
3
51
64
24
72
80
133

> <PUBCHEM_MMFF94_PARTIAL_CHARGES>
33
1 -0.23
10 0.47
11 -0.15
12 -0.18
13 -0.15
14 -0.14
15 0.13
16 -0.15
17 -0.15
18 -0.15
19 -0.15
2 -0.57
20 -0.15
21 -0.15
22 0.66
23 0.06
24 0.15
25 0.15
26 0.15
27 0.15
28 0.15
29 0.15
3 -0.52
30 0.15
31 0.15
32 0.15
33 0.15
4 -0.52
5 -0.57
6 0.91
7 0.09
8 0.03
9 0.08

> <PUBCHEM_EFFECTIVE_ROTOR_COUNT>
6

> <PUBCHEM_PHARMACOPHORE_FEATURES>
7
1 2 acceptor
1 3 acceptor
1 3 anion
1 4 acceptor
1 5 acceptor
6 7 9 11 17 18 19 rings
6 8 13 15 16 20 21 rings

> <PUBCHEM_HEAVY_ATOM_COUNT>
23

> <PUBCHEM_ATOM_DEF_STEREO_COUNT>
0

> <PUBCHEM_ATOM_UDEF_STEREO_COUNT>
0

> <PUBCHEM_BOND_DEF_STEREO_COUNT>
0

> <PUBCHEM_BOND_UDEF_STEREO_COUNT>
1

> <PUBCHEM_ISOTOPIC_ATOM_COUNT>
0

> <PUBCHEM_COMPONENT_COUNT>
1

> <PUBCHEM_CACTVS_TAUTO_COUNT>
1

> <PUBCHEM_CONFORMER_ID>
0003D95700000002

> <PUBCHEM_MMFF94_ENERGY>
78.1473

> <PUBCHEM_FEATURE_SELFOVERLAP>
35.605

> <PUBCHEM_SHAPE_FINGERPRINT>
10 15 18201145651483419240
10366900 7 17418088815202630250
105312 117 17894905180031160047
107951 10 18186523190021064179
11045977 3 18341610447574258280
11089746 13 16588027913924876772
11315181 36 18131351920867651928
11370993 70 18334858277658666759
12236239 1 16660642955772683520
12616971 3 15502377837687518126
12788726 201 18059289842889116297
13402501 40 18272936046114036127
14386348 63 18202286913348776638
15163728 17 17025423389446423181
15375358 24 18272089378962874102
15463212 79 17822284674272666059
15788980 27 17603590720702149696
15880784 105 15913330165196885126
167882 2 17825660050616600123
19433438 15 16877951546082440854
19489759 90 17967250879652701525
200 152 16988560182633086361
20511986 3 17168126945608800952
20645477 70 17489029254198470710
21033650 10 17315088649156712780
21315759 40 14620797090033643588
23402539 116 17313103055779234484
23557571 272 18409167705754155468
23559900 14 18272081738332391696
3545911 37 18272371971147948844
4015057 19 17917421077539049857
497634 4 14189574130608060233
5104073 3 17774168886111300498
5283173 99 18337950095439269668
9709674 26 17773891812974920974
9862886 166 18410292540397974995
9981440 41 18186524285047840611

> <PUBCHEM_SHAPE_MULTIPOLES>
439
13.92
2.39
1.39
15.59
1.81
0
-3.68
2.34
-3.14
-0.43
-0.02
0.05
2.2

> <PUBCHEM_SHAPE_SELFOVERLAP>
943.134

> <PUBCHEM_SHAPE_VOLUME>
240.4

> <PUBCHEM_COORDINATE_TYPE>
2
5
10

$$$$
