7560574
  -OEChem-01171810083D

 35 36  0     0  0  0  0  0  0999 V2000
    4.1091   -2.4927   -0.3783 Cl  0  0  0  0  0  0  0  0  0  0  0  0
    5.8355    0.2096   -1.0906 Cl  0  0  0  0  0  0  0  0  0  0  0  0
   -0.3608    1.3642   -0.7800 O   0  0  0  0  0  0  0  0  0  0  0  0
    1.5571   -1.7397    0.8254 O   0  0  0  0  0  0  0  0  0  0  0  0
   -1.7909    0.3617    0.7522 N   0  0  0  0  0  0  0  0  0  0  0  0
    1.7675    0.5679    0.8002 N   0  0  0  0  0  0  0  0  0  0  0  0
   -3.5229    2.9020   -0.6423 N   0  0  0  0  0  0  0  0  0  0  0  0
    2.5184    1.6768    0.4884 N   0  0  0  0  0  0  0  0  0  0  0  0
   -2.9910    0.3834   -0.0646 C   0  0  0  0  0  0  0  0  0  0  0  0
   -4.1713   -0.2175    0.7228 C   0  0  0  0  0  0  0  0  0  0  0  0
   -2.7614   -0.3950   -1.3765 C   0  0  0  0  0  0  0  0  0  0  0  0
   -4.0412   -1.7274    0.9281 C   0  0  0  0  0  0  0  0  0  0  0  0
   -2.6557   -1.9074   -1.1715 C   0  0  0  0  0  0  0  0  0  0  0  0
   -3.8464   -2.4584   -0.3954 C   0  0  0  0  0  0  0  0  0  0  0  0
   -3.2890    1.7943   -0.3882 C   0  0  0  0  0  0  0  0  0  0  0  0
   -0.5738    0.8576    0.3186 C   0  0  0  0  0  0  0  0  0  0  0  0
    0.4795    0.7518    1.4007 C   0  0  0  0  0  0  0  0  0  0  0  0
    2.2179   -0.7371    0.5512 C   0  0  0  0  0  0  0  0  0  0  0  0
    3.5630   -0.8842   -0.0753 C   0  0  0  0  0  0  0  0  0  0  0  0
    3.6749    1.4924   -0.0519 C   0  0  0  0  0  0  0  0  0  0  0  0
    4.2814    0.1977   -0.3730 C   0  0  0  0  0  0  0  0  0  0  0  0
   -5.1116   -0.0222    0.1881 H   0  0  0  0  0  0  0  0  0  0  0  0
   -4.2707    0.2692    1.7024 H   0  0  0  0  0  0  0  0  0  0  0  0
   -1.8822   -0.0508   -1.9309 H   0  0  0  0  0  0  0  0  0  0  0  0
   -3.6117   -0.2125   -2.0503 H   0  0  0  0  0  0  0  0  0  0  0  0
   -4.9414   -2.1062    1.4255 H   0  0  0  0  0  0  0  0  0  0  0  0
   -3.1985   -1.9441    1.5953 H   0  0  0  0  0  0  0  0  0  0  0  0
   -1.7280   -2.1419   -0.6353 H   0  0  0  0  0  0  0  0  0  0  0  0
   -2.5921   -2.4054   -2.1459 H   0  0  0  0  0  0  0  0  0  0  0  0
   -3.7011   -3.5282   -0.2081 H   0  0  0  0  0  0  0  0  0  0  0  0
   -4.7545   -2.3614   -1.0030 H   0  0  0  0  0  0  0  0  0  0  0  0
   -1.8623   -0.0079    1.6959 H   0  0  0  0  0  0  0  0  0  0  0  0
    0.2602   -0.0797    2.0790 H   0  0  0  0  0  0  0  0  0  0  0  0
    0.4758    1.6788    1.9847 H   0  0  0  0  0  0  0  0  0  0  0  0
    4.2749    2.3832   -0.3011 H   0  0  0  0  0  0  0  0  0  0  0  0
  1 19  1  0  0  0  0
  2 21  1  0  0  0  0
  3 16  2  0  0  0  0
  4 18  2  0  0  0  0
  5  9  1  0  0  0  0
  5 16  1  0  0  0  0
  5 32  1  0  0  0  0
  6  8  1  0  0  0  0
  6 17  1  0  0  0  0
  6 18  1  0  0  0  0
  7 15  3  0  0  0  0
  8 20  2  0  0  0  0
  9 10  1  0  0  0  0
  9 11  1  0  0  0  0
  9 15  1  0  0  0  0
 10 12  1  0  0  0  0
 10 22  1  0  0  0  0
 10 23  1  0  0  0  0
 11 13  1  0  0  0  0
 11 24  1  0  0  0  0
 11 25  1  0  0  0  0
 12 14  1  0  0  0  0
 12 26  1  0  0  0  0
 12 27  1  0  0  0  0
 13 14  1  0  0  0  0
 13 28  1  0  0  0  0
 13 29  1  0  0  0  0
 14 30  1  0  0  0  0
 14 31  1  0  0  0  0
 16 17  1  0  0  0  0
 17 33  1  0  0  0  0
 17 34  1  0  0  0  0
 18 19  1  0  0  0  0
 19 21  2  0  0  0  0
 20 21  1  0  0  0  0
 20 35  1  0  0  0  0
M  END
> <PUBCHEM_COMPOUND_CID>
7560574

> <PUBCHEM_CONFORMER_RMSD>
0.8

> <PUBCHEM_CONFORMER_DIVERSEORDER>
1
35
29
65
46
59
33
10
57
63
53
36
75
50
71
72
21
60
78
48
28
23
6
58
73
81
19
70
76
9
16
74
47
56
43
42
67
52
64
68
7
54
51
13
77
27
49
8
17
44
31
5
62
26
79
3
66
80
25
11
41
37
69
18
4
61
55
20
45
2
22
38
40
12
15
32
14
30
39
24
34

> <PUBCHEM_MMFF94_PARTIAL_CHARGES>
18
1 -0.14
15 0.36
16 0.57
17 0.36
18 0.62
19 0.15
2 -0.14
20 0.38
21 0.15
3 -0.57
32 0.37
35 0.06
4 -0.57
5 -0.73
6 -0.3
7 -0.56
8 -0.51
9 0.5

> <PUBCHEM_EFFECTIVE_ROTOR_COUNT>
5.2

> <PUBCHEM_PHARMACOPHORE_FEATURES>
7
1 3 acceptor
1 4 acceptor
1 5 donor
1 7 acceptor
1 8 acceptor
6 6 8 18 19 20 21 rings
6 9 10 11 12 13 14 rings

> <PUBCHEM_HEAVY_ATOM_COUNT>
21

> <PUBCHEM_ATOM_DEF_STEREO_COUNT>
0

> <PUBCHEM_ATOM_UDEF_STEREO_COUNT>
0

> <PUBCHEM_BOND_DEF_STEREO_COUNT>
0

> <PUBCHEM_BOND_UDEF_STEREO_COUNT>
0

> <PUBCHEM_ISOTOPIC_ATOM_COUNT>
0

> <PUBCHEM_COMPONENT_COUNT>
1

> <PUBCHEM_CACTVS_TAUTO_COUNT>
2

> <PUBCHEM_CONFORMER_ID>
00735D7E00000001

> <PUBCHEM_MMFF94_ENERGY>
41.5695

> <PUBCHEM_FEATURE_SELFOVERLAP>
35.523

> <PUBCHEM_SHAPE_FINGERPRINT>
10616163 171 18413106164926049535
11405975 8 18338513036855173064
11552529 35 17702944876347864523
121448 382 16008748052166687937
12553582 1 17275103899352392162
12633257 1 16701467887184734347
12670546 177 17458630080982733030
12714826 92 18273209816156619449
128620 24 18408321116223225146
13167823 11 18410857663704970942
13224815 77 18337663208782141082
13583140 156 17774424088193097984
13944108 23 16314128249749095949
14251751 93 18410290294230338467
14576447 43 18342460361572827622
14617045 38 18341339945917521207
15239191 94 18131066073503334027
15537594 2 18202290212200561110
17349148 13 17458060503953049432
18186145 218 17168142295732090000
20281475 54 18272367568384529378
20871999 31 18335135393111365093
21709351 56 18259984881781804228
221357 26 18340767130186759619
221490 88 18411702093162276426
22393880 68 18411136922842488884
23402539 116 17748825203173093284
23402655 69 18336266739337685716
235170 7 17385435523128939678
23557571 272 17821728359917038165
23559900 14 18271516585013372088
2838139 119 16660657275911126052
2871803 45 18337099185335029819
3268164 11 17095515214921738253
3323516 105 18340768238541127114
351380 180 8358268020372228514
4214541 1 18411419488298086305
4921388 177 17603592928226000779
5104073 3 18411415081851305224
5281201 14 18187369809362388596
58051976 100 18412542111276789997
5924683 9 10087628300394008693
6049 1 18058716026879640361
6287921 2 18187932853620701844
633830 44 17313391080496720968
9709674 26 18334580173872496482

> <PUBCHEM_SHAPE_MULTIPOLES>
404.25
11.25
2.64
1.17
6.92
0.36
0.04
2.27
2.3
-1.54
0.42
-0.34
0.08
0.31

> <PUBCHEM_SHAPE_SELFOVERLAP>
824.23

> <PUBCHEM_SHAPE_VOLUME>
231.5

> <PUBCHEM_COORDINATE_TYPE>
2
5
10

$$$$
