3005295
  -OEChem-01171810163D

 54 57  0     0  0  0  0  0  0999 V2000
   -1.1272   -2.0709    2.0745 S   0  0  0  0  0  0  0  0  0  0  0  0
   -2.1713   -0.0734    0.4954 N   0  0  0  0  0  0  0  0  0  0  0  0
    0.1706   -0.3488    0.4354 N   0  0  0  0  0  0  0  0  0  0  0  0
   -0.5772    2.7129    0.4287 N   0  0  0  0  0  0  0  0  0  0  0  0
   -3.4240   -1.9216   -0.9334 N   0  0  0  0  0  0  0  0  0  0  0  0
    1.3349   -0.9941    0.7002 N   0  0  0  0  0  0  0  0  0  0  0  0
    2.7241    1.7184   -0.3167 N   0  0  0  0  0  0  0  0  0  0  0  0
   -2.0768    1.0320   -0.4605 C   0  0  0  0  0  0  0  0  0  0  0  0
   -3.5355   -0.3792    0.9303 C   0  0  0  0  0  0  0  0  0  0  0  0
   -1.8593    2.3502    0.2247 C   0  0  0  0  0  0  0  0  0  0  0  0
   -4.1756   -1.4327    0.0731 C   0  0  0  0  0  0  0  0  0  0  0  0
   -1.0435   -0.7918    0.9667 C   0  0  0  0  0  0  0  0  0  0  0  0
   -2.9576    3.0997    0.5989 C   0  0  0  0  0  0  0  0  0  0  0  0
   -5.4672   -1.8327    0.3560 C   0  0  0  0  0  0  0  0  0  0  0  0
    2.4226   -0.6000    0.1019 C   0  0  0  0  0  0  0  0  0  0  0  0
    3.6979   -1.3267    0.4087 C   0  0  0  0  0  0  0  0  0  0  0  0
   -2.7220    4.3155    1.2312 C   0  0  0  0  0  0  0  0  0  0  0  0
   -6.0310   -2.8100   -0.4565 C   0  0  0  0  0  0  0  0  0  0  0  0
    2.4810    0.5217   -0.8660 C   0  0  0  0  0  0  0  0  0  0  0  0
   -0.3874    3.9006    1.0460 C   0  0  0  0  0  0  0  0  0  0  0  0
   -4.0055   -2.8697   -1.7019 C   0  0  0  0  0  0  0  0  0  0  0  0
   -1.4154    4.7308    1.4627 C   0  0  0  0  0  0  0  0  0  0  0  0
   -5.2929   -3.3437   -1.5072 C   0  0  0  0  0  0  0  0  0  0  0  0
    4.8788   -0.6304    0.3354 C   0  0  0  0  0  0  0  0  0  0  0  0
    3.6262   -2.6545    0.7494 C   0  0  0  0  0  0  0  0  0  0  0  0
    2.2888    0.2648   -2.1987 C   0  0  0  0  0  0  0  0  0  0  0  0
    6.0651   -1.3062    0.6211 C   0  0  0  0  0  0  0  0  0  0  0  0
    4.8126   -3.3302    1.0352 C   0  0  0  0  0  0  0  0  0  0  0  0
    6.0320   -2.6559    0.9710 C   0  0  0  0  0  0  0  0  0  0  0  0
    2.3530    1.3523   -3.0628 C   0  0  0  0  0  0  0  0  0  0  0  0
    2.7792    2.7513   -1.1872 C   0  0  0  0  0  0  0  0  0  0  0  0
    2.6025    2.6226   -2.5554 C   0  0  0  0  0  0  0  0  0  0  0  0
   -2.9947    1.0658   -1.0626 H   0  0  0  0  0  0  0  0  0  0  0  0
   -1.2849    0.8495   -1.1940 H   0  0  0  0  0  0  0  0  0  0  0  0
   -4.1447    0.5295    0.8994 H   0  0  0  0  0  0  0  0  0  0  0  0
   -3.5327   -0.7124    1.9728 H   0  0  0  0  0  0  0  0  0  0  0  0
   -3.9743    2.7779    0.4056 H   0  0  0  0  0  0  0  0  0  0  0  0
   -6.0316   -1.4081    1.1789 H   0  0  0  0  0  0  0  0  0  0  0  0
    0.2394    0.4795   -0.1389 H   0  0  0  0  0  0  0  0  0  0  0  0
   -3.5550    4.9396    1.5405 H   0  0  0  0  0  0  0  0  0  0  0  0
   -7.0437   -3.1553   -0.2714 H   0  0  0  0  0  0  0  0  0  0  0  0
    0.6496    4.1783    1.2033 H   0  0  0  0  0  0  0  0  0  0  0  0
   -3.3881   -3.2534   -2.5073 H   0  0  0  0  0  0  0  0  0  0  0  0
   -1.2081    5.6749    1.9533 H   0  0  0  0  0  0  0  0  0  0  0  0
   -5.7121   -4.1064   -2.1533 H   0  0  0  0  0  0  0  0  0  0  0  0
    4.9445    0.4207    0.0804 H   0  0  0  0  0  0  0  0  0  0  0  0
    2.6879   -3.1981    0.7955 H   0  0  0  0  0  0  0  0  0  0  0  0
    2.0938   -0.7320   -2.5771 H   0  0  0  0  0  0  0  0  0  0  0  0
    7.0147   -0.7810    0.5742 H   0  0  0  0  0  0  0  0  0  0  0  0
    4.7873   -4.3817    1.3057 H   0  0  0  0  0  0  0  0  0  0  0  0
    6.9557   -3.1820    1.1937 H   0  0  0  0  0  0  0  0  0  0  0  0
    2.2080    1.2102   -4.1295 H   0  0  0  0  0  0  0  0  0  0  0  0
    2.9748    3.7209   -0.7411 H   0  0  0  0  0  0  0  0  0  0  0  0
    2.6560    3.4848   -3.2101 H   0  0  0  0  0  0  0  0  0  0  0  0
  1 12  2  0  0  0  0
  2  8  1  0  0  0  0
  2  9  1  0  0  0  0
  2 12  1  0  0  0  0
  3  6  1  0  0  0  0
  3 12  1  0  0  0  0
  3 39  1  0  0  0  0
  4 10  1  0  0  0  0
  4 20  2  0  0  0  0
  5 11  1  0  0  0  0
  5 21  2  0  0  0  0
  6 15  2  0  0  0  0
  7 19  1  0  0  0  0
  7 31  2  0  0  0  0
  8 10  1  0  0  0  0
  8 33  1  0  0  0  0
  8 34  1  0  0  0  0
  9 11  1  0  0  0  0
  9 35  1  0  0  0  0
  9 36  1  0  0  0  0
 10 13  2  0  0  0  0
 11 14  2  0  0  0  0
 13 17  1  0  0  0  0
 13 37  1  0  0  0  0
 14 18  1  0  0  0  0
 14 38  1  0  0  0  0
 15 16  1  0  0  0  0
 15 19  1  0  0  0  0
 16 24  2  0  0  0  0
 16 25  1  0  0  0  0
 17 22  2  0  0  0  0
 17 40  1  0  0  0  0
 18 23  2  0  0  0  0
 18 41  1  0  0  0  0
 19 26  2  0  0  0  0
 20 22  1  0  0  0  0
 20 42  1  0  0  0  0
 21 23  1  0  0  0  0
 21 43  1  0  0  0  0
 22 44  1  0  0  0  0
 23 45  1  0  0  0  0
 24 27  1  0  0  0  0
 24 46  1  0  0  0  0
 25 28  2  0  0  0  0
 25 47  1  0  0  0  0
 26 30  1  0  0  0  0
 26 48  1  0  0  0  0
 27 29  2  0  0  0  0
 27 49  1  0  0  0  0
 28 29  1  0  0  0  0
 28 50  1  0  0  0  0
 29 51  1  0  0  0  0
 30 32  2  0  0  0  0
 30 52  1  0  0  0  0
 31 32  1  0  0  0  0
 31 53  1  0  0  0  0
 32 54  1  0  0  0  0
M  END
> <PUBCHEM_COMPOUND_CID>
3005295

> <PUBCHEM_CONFORMER_RMSD>
1.2

> <PUBCHEM_CONFORMER_DIVERSEORDER>
1
50
181
165
19
66
206
219
86
246
118
136
182
94
159
36
177
144
161
238
109
185
203
193
174
15
65
58
122
244
176
233
135
64
131
240
225
9
237
62
191
60
72
101
247
16
169
235
103
207
141
73
221
200
57
127
128
84
119
69
33
229
213
76
232
8
254
17
194
129
210
51
89
226
199
252
43
106
160
30
162
71
39
241
250
45
97
123
166
95
74
63
178
48
197
156
68
125
116
91
24
224
171
192
256
172
87
80
151
167
251
102
179
83
249
75
253
56
77
98
183
248
205
163
93
23
175
154
130
242
196
137
40
27
14
88
217
190
132
255
164
99
85
208
34
120
222
155
227
239
138
70
153
46
150
52
218
26
140
13
37
186
236
215
180
212
234
12
110
21
117
228
220
32
168
188
115
149
139
4
42
147
78
47
61
189
124
107
158
59
146
53
104
6
11
223
92
173
114
209
82
204
170
3
100
134
96
157
143
2
29
231
18
7
184
28
152
195
38
81
111
216
245
10
133
187
211
25
55
79
5
142
112
31
22
230
49
201
198
145
105
44
20
113
54
214
35
67
202
121
41
126
90
243
108
148

> <PUBCHEM_MMFF94_PARTIAL_CHARGES>
50
1 -0.38
10 0.17
11 0.17
12 0.5
13 -0.15
14 -0.15
15 0.28
16 0.09
17 -0.15
18 -0.15
19 0.4
2 -0.66
20 0.16
21 0.16
22 -0.15
23 -0.15
24 -0.15
25 -0.15
26 -0.15
27 -0.15
28 -0.15
29 -0.15
3 -0.37
30 -0.15
31 0.16
32 -0.15
37 0.15
38 0.15
39 0.37
4 -0.62
40 0.15
41 0.15
42 0.15
43 0.15
44 0.15
45 0.15
46 0.15
47 0.15
48 0.15
49 0.15
5 -0.62
50 0.15
51 0.15
52 0.15
53 0.15
54 0.15
6 -0.51
7 -0.62
8 0.44
9 0.44

> <PUBCHEM_EFFECTIVE_ROTOR_COUNT>
9

> <PUBCHEM_PHARMACOPHORE_FEATURES>
10
1 1 acceptor
1 3 donor
1 4 acceptor
1 5 acceptor
1 6 acceptor
1 7 acceptor
6 16 24 25 27 28 29 rings
6 4 10 13 17 20 22 rings
6 5 11 14 18 21 23 rings
6 7 19 26 30 31 32 rings

> <PUBCHEM_HEAVY_ATOM_COUNT>
32

> <PUBCHEM_ATOM_DEF_STEREO_COUNT>
0

> <PUBCHEM_ATOM_UDEF_STEREO_COUNT>
0

> <PUBCHEM_BOND_DEF_STEREO_COUNT>
0

> <PUBCHEM_BOND_UDEF_STEREO_COUNT>
1

> <PUBCHEM_ISOTOPIC_ATOM_COUNT>
0

> <PUBCHEM_COMPONENT_COUNT>
1

> <PUBCHEM_CACTVS_TAUTO_COUNT>
2

> <PUBCHEM_CONFORMER_ID>
002DDB6F00000001

> <PUBCHEM_MMFF94_ENERGY>
112.1464

> <PUBCHEM_FEATURE_SELFOVERLAP>
50.751

> <PUBCHEM_SHAPE_FINGERPRINT>
10622 236 18261387815336915642
11069576 57 18261394515654410790
11135926 11 17533801530784940484
11513181 2 18269284474100022078
11552529 35 18195516005334547234
11763715 3 18412830213086981072
12166972 35 18113332041863634878
12403260 363 18335424560353572898
12608794 3 17040334831986069002
12788726 201 18339662095568410877
13009979 54 18409168770958253252
13540713 5 18261973868030406540
13583140 156 17345169135672291138
13911987 19 17611485407057597460
14068700 675 18408877434932128162
14347332 77 18411132515631524082
14844126 61 18340204068980530961
15420108 30 17543625331791686217
15664445 248 17842569718775236613
15968369 26 17613700940493865587
1813 80 17916310614097797743
19319366 153 17904486555719741172
20775438 99 17474364247249335495
2132832 1 18334011696522816804
23559900 14 17822855406601572978
3388396 114 18190755317186333244
463206 1 18265894842274828963
508180 173 16298933278066674455
57527295 17 18122637303976344749
6700243 42 17702128952403887436
7471813 234 18408602578336204414

> <PUBCHEM_SHAPE_MULTIPOLES>
632.51
12.74
6.09
2.08
2.07
5.42
-1.47
-15.88
-0.25
-4.25
1.5
0.72
0.69
-5.53

> <PUBCHEM_SHAPE_SELFOVERLAP>
1360.344

> <PUBCHEM_SHAPE_VOLUME>
350.1

> <PUBCHEM_COORDINATE_TYPE>
2
5
10

$$$$
