2371784
  -OEChem-01171809173D

 32 35  0     0  0  0  0  0  0999 V2000
    3.3190    0.4954    0.9610 S   0  0  0  0  0  0  0  0  0  0  0  0
   -1.3118   -0.3557   -1.6175 S   0  0  0  0  0  0  0  0  0  0  0  0
    2.4671   -1.9774    0.3891 N   0  0  0  0  0  0  0  0  0  0  0  0
    0.3639   -2.2769   -0.7857 N   0  0  0  0  0  0  0  0  0  0  0  0
   -3.3763    0.5215   -0.0761 N   0  0  0  0  0  0  0  0  0  0  0  0
   -2.2829   -1.1278    0.8108 N   0  0  0  0  0  0  0  0  0  0  0  0
   -3.9863    0.2826    1.0932 N   0  0  0  0  0  0  0  0  0  0  0  0
   -3.3134   -0.7275    1.6310 N   0  0  0  0  0  0  0  0  0  0  0  0
    1.1918    1.3391   -0.1837 C   0  0  0  0  0  0  0  0  0  0  0  0
    0.3643    2.5017   -0.5914 C   0  0  0  0  0  0  0  0  0  0  0  0
    1.3534    3.6949   -0.4009 C   0  0  0  0  0  0  0  0  0  0  0  0
    2.4561    3.2145    0.5927 C   0  0  0  0  0  0  0  0  0  0  0  0
    2.3281    1.7450    0.4613 C   0  0  0  0  0  0  0  0  0  0  0  0
    1.1007   -0.0679   -0.2903 C   0  0  0  0  0  0  0  0  0  0  0  0
    2.2200   -0.6556    0.3053 C   0  0  0  0  0  0  0  0  0  0  0  0
    0.1627   -0.9427   -0.8435 C   0  0  0  0  0  0  0  0  0  0  0  0
    1.4898   -2.7064   -0.1804 C   0  0  0  0  0  0  0  0  0  0  0  0
    1.6749   -4.1871   -0.1358 C   0  0  0  0  0  0  0  0  0  0  0  0
   -2.3727   -0.3417   -0.1968 C   0  0  0  0  0  0  0  0  0  0  0  0
   -3.8485    1.5719   -0.9423 C   0  0  0  0  0  0  0  0  0  0  0  0
    0.0247    2.4489   -1.6289 H   0  0  0  0  0  0  0  0  0  0  0  0
   -0.4987    2.6125    0.0734 H   0  0  0  0  0  0  0  0  0  0  0  0
    1.8213    3.9270   -1.3669 H   0  0  0  0  0  0  0  0  0  0  0  0
    0.8483    4.6021   -0.0548 H   0  0  0  0  0  0  0  0  0  0  0  0
    2.2206    3.5363    1.6122 H   0  0  0  0  0  0  0  0  0  0  0  0
    3.4408    3.5924    0.3047 H   0  0  0  0  0  0  0  0  0  0  0  0
    1.4926   -4.6221   -1.1234 H   0  0  0  0  0  0  0  0  0  0  0  0
    2.6920   -4.4519    0.1701 H   0  0  0  0  0  0  0  0  0  0  0  0
    0.9723   -4.6268    0.5784 H   0  0  0  0  0  0  0  0  0  0  0  0
   -4.1505    1.1286   -1.8942 H   0  0  0  0  0  0  0  0  0  0  0  0
   -4.7051    2.0693   -0.4798 H   0  0  0  0  0  0  0  0  0  0  0  0
   -3.0403    2.2926   -1.0885 H   0  0  0  0  0  0  0  0  0  0  0  0
  1 13  1  0  0  0  0
  1 15  1  0  0  0  0
  2 16  1  0  0  0  0
  2 19  1  0  0  0  0
  3 15  1  0  0  0  0
  3 17  2  0  0  0  0
  4 16  2  0  0  0  0
  4 17  1  0  0  0  0
  5  7  1  0  0  0  0
  5 19  1  0  0  0  0
  5 20  1  0  0  0  0
  6  8  1  0  0  0  0
  6 19  2  0  0  0  0
  7  8  2  0  0  0  0
  9 10  1  0  0  0  0
  9 13  2  0  0  0  0
  9 14  1  0  0  0  0
 10 11  1  0  0  0  0
 10 21  1  0  0  0  0
 10 22  1  0  0  0  0
 11 12  1  0  0  0  0
 11 23  1  0  0  0  0
 11 24  1  0  0  0  0
 12 13  1  0  0  0  0
 12 25  1  0  0  0  0
 12 26  1  0  0  0  0
 14 15  2  0  0  0  0
 14 16  1  0  0  0  0
 17 18  1  0  0  0  0
 18 27  1  0  0  0  0
 18 28  1  0  0  0  0
 18 29  1  0  0  0  0
 20 30  1  0  0  0  0
 20 31  1  0  0  0  0
 20 32  1  0  0  0  0
M  END
> <PUBCHEM_COMPOUND_CID>
2371784

> <PUBCHEM_CONFORMER_RMSD>
0.6

> <PUBCHEM_CONFORMER_DIVERSEORDER>
1
14
17
12
11
2
13
15
18
4
3
9
7
10
8
5
6
16

> <PUBCHEM_MMFF94_PARTIAL_CHARGES>
17
1 -0.08
10 0.18
12 0.18
13 -0.14
15 0.3
16 0.41
17 0.48
18 0.14
19 0.24
2 -0.16
20 0.26
3 -0.57
4 -0.62
5 0.31
6 -0.34
7 -0.42
9 -0.18

> <PUBCHEM_EFFECTIVE_ROTOR_COUNT>
2.6

> <PUBCHEM_PHARMACOPHORE_FEATURES>
7
1 4 acceptor
3 3 4 17 cation
3 5 6 19 cation
5 1 9 13 14 15 rings
5 5 6 7 8 19 rings
5 9 10 11 12 13 rings
6 3 4 14 15 16 17 rings

> <PUBCHEM_HEAVY_ATOM_COUNT>
20

> <PUBCHEM_ATOM_DEF_STEREO_COUNT>
0

> <PUBCHEM_ATOM_UDEF_STEREO_COUNT>
0

> <PUBCHEM_BOND_DEF_STEREO_COUNT>
0

> <PUBCHEM_BOND_UDEF_STEREO_COUNT>
0

> <PUBCHEM_ISOTOPIC_ATOM_COUNT>
0

> <PUBCHEM_COMPONENT_COUNT>
1

> <PUBCHEM_CACTVS_TAUTO_COUNT>
1

> <PUBCHEM_CONFORMER_ID>
002430C800000001

> <PUBCHEM_MMFF94_ENERGY>
48.9084

> <PUBCHEM_FEATURE_SELFOVERLAP>
35.784

> <PUBCHEM_SHAPE_FINGERPRINT>
10366900 7 18114474443430486843
10382601 240 18271525304176544058
104564 63 17910681968787244924
11582403 64 16163205250781908191
11640471 11 17632573877132755725
116883 192 17763178038455765828
12403259 327 17168684402288514329
12633257 1 18113897191040707289
12788726 201 17399236348114725666
12954195 1 17185046501510685844
13134695 92 18195240010335433319
13140716 1 18340766069266293816
13583140 156 16736885398488095288
14713325 29 17115241811024394756
14790565 3 18410294744355222452
14844126 61 16898180068837469322
15309172 13 18193835074845610741
1601671 61 18410295805011132268
16945 1 18338780321692239812
18219364 16 18263909089798548917
19049666 15 18116149961691035149
19591789 44 18410572903595367084
20157964 124 18411411831236268805
20510252 161 16320046483049076108
20681677 76 18407757028493945039
20739085 24 18408324389316015056
21041028 32 18050282562251691486
21524375 3 17914054458511878791
21665062 11 18269286672516018233
21731228 192 18196091277042777480
22182313 1 17410475599730802342
23558518 356 17909827974765332446
23559900 14 17968392194909073031
2748010 2 18052794985228735196
283562 15 16535379225584351800
3091708 16 9473321279624770682
31174 14 18336281071701568419
350125 39 18050568739980032414
352729 6 17474932699039447806
3610482 184 16090681696123021756
3797600 57 17486234471687025651
474 4 18342170115771680203
54173680 148 17114942189547003790
6992083 37 17540229361607666404
81228 2 17472704628539699348
8809292 202 17329706518544796580

> <PUBCHEM_SHAPE_MULTIPOLES>
389.4
5.83
4.44
1.18
5.96
1.24
0.07
-2.01
2.02
-4.14
-0.55
0.86
0.04
0.55

> <PUBCHEM_SHAPE_SELFOVERLAP>
835.094

> <PUBCHEM_SHAPE_VOLUME>
220.4

> <PUBCHEM_COORDINATE_TYPE>
2
5
10

$$$$
