1132849
  -OEChem-01171809583D

 39 41  0     0  0  0  0  0  0999 V2000
    1.8587    0.2579   -1.4785 O   0  0  0  0  0  0  0  0  0  0  0  0
    3.8204    0.1695   -0.2367 N   0  0  0  0  0  0  0  0  0  0  0  0
    0.2953    1.0683    0.4707 N   0  0  0  0  0  0  0  0  0  0  0  0
   -0.5993    0.0836    0.5818 N   0  0  0  0  0  0  0  0  0  0  0  0
   -0.1567    2.2473    0.0374 N   0  0  0  0  0  0  0  0  0  0  0  0
   -1.4539    2.0454   -0.1586 N   0  0  0  0  0  0  0  0  0  0  0  0
   -6.8066   -1.5890   -0.1485 N   0  0  0  0  0  0  0  0  0  0  0  0
    6.2072   -1.3854    0.2598 C   0  0  0  0  0  0  0  0  0  0  0  0
    5.3908   -1.5606   -1.0196 C   0  0  0  0  0  0  0  0  0  0  0  0
    5.3277   -0.8851    1.4048 C   0  0  0  0  0  0  0  0  0  0  0  0
    4.6310   -0.2839   -1.3690 C   0  0  0  0  0  0  0  0  0  0  0  0
    4.5676    0.3791    1.0097 C   0  0  0  0  0  0  0  0  0  0  0  0
    2.4569    0.4057   -0.4097 C   0  0  0  0  0  0  0  0  0  0  0  0
    1.6920    0.8677    0.8048 C   0  0  0  0  0  0  0  0  0  0  0  0
   -1.6863    0.7443    0.1755 C   0  0  0  0  0  0  0  0  0  0  0  0
   -2.9878    0.1507    0.0928 C   0  0  0  0  0  0  0  0  0  0  0  0
   -3.1717   -1.1873    0.4471 C   0  0  0  0  0  0  0  0  0  0  0  0
   -4.0768    0.9092   -0.3418 C   0  0  0  0  0  0  0  0  0  0  0  0
   -4.4390   -1.7646    0.3670 C   0  0  0  0  0  0  0  0  0  0  0  0
   -5.3443    0.3321   -0.4218 C   0  0  0  0  0  0  0  0  0  0  0  0
   -5.5253   -1.0049   -0.0673 C   0  0  0  0  0  0  0  0  0  0  0  0
    6.6735   -2.3372    0.5371 H   0  0  0  0  0  0  0  0  0  0  0  0
    7.0182   -0.6687    0.0812 H   0  0  0  0  0  0  0  0  0  0  0  0
    6.0508   -1.8407   -1.8478 H   0  0  0  0  0  0  0  0  0  0  0  0
    4.6771   -2.3822   -0.8801 H   0  0  0  0  0  0  0  0  0  0  0  0
    4.6108   -1.6701    1.6761 H   0  0  0  0  0  0  0  0  0  0  0  0
    5.9440   -0.6885    2.2889 H   0  0  0  0  0  0  0  0  0  0  0  0
    5.3306    0.5240   -1.6142 H   0  0  0  0  0  0  0  0  0  0  0  0
    4.0072   -0.4558   -2.2517 H   0  0  0  0  0  0  0  0  0  0  0  0
    3.9164    0.6813    1.8317 H   0  0  0  0  0  0  0  0  0  0  0  0
    5.2674    1.2042    0.8311 H   0  0  0  0  0  0  0  0  0  0  0  0
    2.0850    1.8225    1.1673 H   0  0  0  0  0  0  0  0  0  0  0  0
    1.7379    0.1145    1.5974 H   0  0  0  0  0  0  0  0  0  0  0  0
   -2.3484   -1.8093    0.7898 H   0  0  0  0  0  0  0  0  0  0  0  0
   -3.9673    1.9533   -0.6248 H   0  0  0  0  0  0  0  0  0  0  0  0
   -4.5677   -2.8074    0.6458 H   0  0  0  0  0  0  0  0  0  0  0  0
   -6.1830    0.9343   -0.7618 H   0  0  0  0  0  0  0  0  0  0  0  0
   -7.5949   -1.0386   -0.4623 H   0  0  0  0  0  0  0  0  0  0  0  0
   -6.9384   -2.5579    0.1095 H   0  0  0  0  0  0  0  0  0  0  0  0
  1 13  2  0  0  0  0
  2 11  1  0  0  0  0
  2 12  1  0  0  0  0
  2 13  1  0  0  0  0
  3  4  1  0  0  0  0
  3  5  1  0  0  0  0
  3 14  1  0  0  0  0
  4 15  2  0  0  0  0
  5  6  2  0  0  0  0
  6 15  1  0  0  0  0
  7 21  1  0  0  0  0
  7 38  1  0  0  0  0
  7 39  1  0  0  0  0
  8  9  1  0  0  0  0
  8 10  1  0  0  0  0
  8 22  1  0  0  0  0
  8 23  1  0  0  0  0
  9 11  1  0  0  0  0
  9 24  1  0  0  0  0
  9 25  1  0  0  0  0
 10 12  1  0  0  0  0
 10 26  1  0  0  0  0
 10 27  1  0  0  0  0
 11 28  1  0  0  0  0
 11 29  1  0  0  0  0
 12 30  1  0  0  0  0
 12 31  1  0  0  0  0
 13 14  1  0  0  0  0
 14 32  1  0  0  0  0
 14 33  1  0  0  0  0
 15 16  1  0  0  0  0
 16 17  2  0  0  0  0
 16 18  1  0  0  0  0
 17 19  1  0  0  0  0
 17 34  1  0  0  0  0
 18 20  2  0  0  0  0
 18 35  1  0  0  0  0
 19 21  2  0  0  0  0
 19 36  1  0  0  0  0
 20 21  1  0  0  0  0
 20 37  1  0  0  0  0
M  END
> <PUBCHEM_COMPOUND_CID>
1132849

> <PUBCHEM_CONFORMER_RMSD>
0.8

> <PUBCHEM_CONFORMER_DIVERSEORDER>
1
6
27
24
8
11
7
29
9
13
10
21
16
15
4
28
22
5
3
23
2
17
19
12
26
18
20
25
14

> <PUBCHEM_MMFF94_PARTIAL_CHARGES>
24
1 -0.57
11 0.3
12 0.3
13 0.57
14 0.32
15 0.46
16 0.05
17 -0.15
18 -0.15
19 -0.15
2 -0.66
20 -0.15
21 0.1
3 0.58
34 0.15
35 0.15
36 0.15
37 0.15
38 0.4
39 0.4
4 -0.71
5 -0.42
6 -0.23
7 -0.9

> <PUBCHEM_EFFECTIVE_ROTOR_COUNT>
5.2

> <PUBCHEM_PHARMACOPHORE_FEATURES>
7
1 1 acceptor
1 7 cation
1 7 donor
3 4 6 15 cation
5 3 4 5 6 15 rings
6 16 17 18 19 20 21 rings
6 2 8 9 10 11 12 rings

> <PUBCHEM_HEAVY_ATOM_COUNT>
21

> <PUBCHEM_ATOM_DEF_STEREO_COUNT>
0

> <PUBCHEM_ATOM_UDEF_STEREO_COUNT>
0

> <PUBCHEM_BOND_DEF_STEREO_COUNT>
0

> <PUBCHEM_BOND_UDEF_STEREO_COUNT>
0

> <PUBCHEM_ISOTOPIC_ATOM_COUNT>
0

> <PUBCHEM_COMPONENT_COUNT>
1

> <PUBCHEM_CACTVS_TAUTO_COUNT>
2

> <PUBCHEM_CONFORMER_ID>
0011493100000001

> <PUBCHEM_MMFF94_ENERGY>
45.0761

> <PUBCHEM_FEATURE_SELFOVERLAP>
35.522

> <PUBCHEM_SHAPE_FINGERPRINT>
10 15 11671784888464825791
10354089 29 13183019631682273674
10670039 82 11025785463086181446
10753850 27 18409449202305494227
10803635 8 18040427781423773871
11128504 68 16732704964899809124
11524674 6 17418373606284932135
11796584 16 18408321068889284554
12166972 35 17821732744815150684
12236239 1 17676205762349977192
12516196 113 17989487437214637137
12596602 18 13902189283367161887
13288520 33 18409448085919932693
13402501 40 18343867709922154070
13533116 47 17561362915717219824
13668630 136 18260549996404179526
13685833 64 18343303695312202219
13862211 1 18410572903173393355
14123256 34 18413114960844952846
1420 363 18059858363356857126
14216079 64 18341894108795103335
14251752 14 17895187775836176477
14347332 77 17895185554852742124
14848160 23 18273493464049074046
15048467 5 9439400233622218714
15183329 4 16805039609971707590
15188451 53 18335695019224427058
17844677 252 18410577288045281120
17857418 61 18260265214228564290
18222031 100 18041001726620177452
19141452 34 17703788167269389847
19784866 240 18410299129305062057
20374829 77 18410011035504082401
20403669 9 18342179972531902422
20645477 56 8214135257290171536
21150785 3 17749396975094641166
21267235 1 18261395585734237307
21623969 137 17418093204880856686
21637258 2 18343577465096302959
21781051 124 17604440716606506715
22079108 93 14764624231268206414
221357 26 14851599981850044214
22224240 67 16200423685296745366
22289505 5 12829493645435286566
23035841 295 18334014986873876139
23198884 109 15936410039983100247
23402539 116 18261108552088858629
23522609 53 18120688839848524421
23557571 272 18200318697631395148
23559900 14 18335416919380302800
239999 70 18344146995377581930
25122255 55 18341622468987701502
2838139 119 11098125721215585931
2916195 48 8286195041734747846
293599 30 8934999274095057576
29717793 49 17530966861128014294
3004659 81 18113620088562242918
312425 54 16845580820202533671
3472631 163 9799396846363462914
351380 3 18335137596218864290
4340502 62 15195570112772073702
44062 13 18261958569578567691
465052 167 18131353003705474934
5104073 3 17059781001288672706
559249 180 18335136471644002571
59682541 35 17988632018207451354
59682541 52 15430307023476626130
59755656 215 18334293141250783274
6138700 20 18408885122886917979
960060 61 16370730318683657878

> <PUBCHEM_SHAPE_MULTIPOLES>
396.41
16.94
1.79
1.08
0.02
0.1
0.09
-10.34
0.57
0.96
-0.04
-1.63
-0.12
0.47

> <PUBCHEM_SHAPE_SELFOVERLAP>
842.358

> <PUBCHEM_SHAPE_VOLUME>
220.7

> <PUBCHEM_COORDINATE_TYPE>
2
5
10

$$$$
