2357903
  -OEChem-01171809403D

 47 49  0     0  0  0  0  0  0999 V2000
    5.6605   -0.0451   -1.1671 S   0  0  0  0  0  0  0  0  0  0  0  0
    5.6151   -1.0722   -2.1922 O   0  0  0  0  0  0  0  0  0  0  0  0
    6.4001    1.1840   -1.3917 O   0  0  0  0  0  0  0  0  0  0  0  0
   -3.4618    0.5716    0.1888 O   0  0  0  0  0  0  0  0  0  0  0  0
   -1.1740   -0.4695   -0.5031 O   0  0  0  0  0  0  0  0  0  0  0  0
   -4.8845    2.2022    1.0121 O   0  0  0  0  0  0  0  0  0  0  0  0
   -4.6475   -0.9507   -1.5586 O   0  0  0  0  0  0  0  0  0  0  0  0
    6.1424   -0.7344    0.3084 N   0  0  0  0  0  0  0  0  0  0  0  0
    0.0629    1.4408    0.1090 N   0  0  0  0  0  0  0  0  0  0  0  0
   -6.7166   -1.7578   -0.9376 N   0  0  0  0  0  0  0  0  0  0  0  0
    6.0988    0.1194    1.5315 C   0  0  0  0  0  0  0  0  0  0  0  0
    5.6080   -2.0806    0.6526 C   0  0  0  0  0  0  0  0  0  0  0  0
    5.3969   -0.7289    2.5835 C   0  0  0  0  0  0  0  0  0  0  0  0
    5.7303   -2.1480    2.1667 C   0  0  0  0  0  0  0  0  0  0  0  0
    3.9919    0.3978   -0.7861 C   0  0  0  0  0  0  0  0  0  0  0  0
    3.7292    1.6494   -0.2573 C   0  0  0  0  0  0  0  0  0  0  0  0
    2.9800   -0.5155   -1.0242 C   0  0  0  0  0  0  0  0  0  0  0  0
    2.4125    1.9988    0.0430 C   0  0  0  0  0  0  0  0  0  0  0  0
    1.6633   -0.1662   -0.7242 C   0  0  0  0  0  0  0  0  0  0  0  0
    1.3796    1.0911   -0.1905 C   0  0  0  0  0  0  0  0  0  0  0  0
   -1.0961    0.6703   -0.0547 C   0  0  0  0  0  0  0  0  0  0  0  0
   -2.3409    1.4075    0.3895 C   0  0  0  0  0  0  0  0  0  0  0  0
   -5.7244    0.1116    0.2760 C   0  0  0  0  0  0  0  0  0  0  0  0
   -4.6715    1.0954    0.5433 C   0  0  0  0  0  0  0  0  0  0  0  0
   -5.6305   -0.9022   -0.8231 C   0  0  0  0  0  0  0  0  0  0  0  0
   -6.8133    0.1352    1.0605 C   0  0  0  0  0  0  0  0  0  0  0  0
   -7.8953   -0.7990    0.8628 C   0  0  0  0  0  0  0  0  0  0  0  0
   -7.8152   -1.7050   -0.1172 C   0  0  0  0  0  0  0  0  0  0  0  0
    7.1371    0.3053    1.8313 H   0  0  0  0  0  0  0  0  0  0  0  0
    5.6228    1.0893    1.4115 H   0  0  0  0  0  0  0  0  0  0  0  0
    4.5616   -2.1939    0.3648 H   0  0  0  0  0  0  0  0  0  0  0  0
    6.2006   -2.8629    0.1704 H   0  0  0  0  0  0  0  0  0  0  0  0
    5.7296   -0.4951    3.5986 H   0  0  0  0  0  0  0  0  0  0  0  0
    4.3132   -0.5682    2.5327 H   0  0  0  0  0  0  0  0  0  0  0  0
    5.0597   -2.8897    2.6089 H   0  0  0  0  0  0  0  0  0  0  0  0
    6.7589   -2.3951    2.4560 H   0  0  0  0  0  0  0  0  0  0  0  0
    4.5133    2.3794   -0.0823 H   0  0  0  0  0  0  0  0  0  0  0  0
    3.1780   -1.4969   -1.4441 H   0  0  0  0  0  0  0  0  0  0  0  0
    2.2056    2.9833    0.4551 H   0  0  0  0  0  0  0  0  0  0  0  0
    0.9182   -0.9209   -0.9334 H   0  0  0  0  0  0  0  0  0  0  0  0
   -0.0618    2.3741    0.4956 H   0  0  0  0  0  0  0  0  0  0  0  0
   -2.4401    2.3216   -0.2066 H   0  0  0  0  0  0  0  0  0  0  0  0
   -2.2414    1.6575    1.4518 H   0  0  0  0  0  0  0  0  0  0  0  0
   -6.9290    0.8454    1.8732 H   0  0  0  0  0  0  0  0  0  0  0  0
   -6.7077   -2.4659   -1.6658 H   0  0  0  0  0  0  0  0  0  0  0  0
   -8.7570   -0.7474    1.5175 H   0  0  0  0  0  0  0  0  0  0  0  0
   -8.5944   -2.4305   -0.3131 H   0  0  0  0  0  0  0  0  0  0  0  0
  1  2  2  0  0  0  0
  1  3  2  0  0  0  0
  1  8  1  0  0  0  0
  1 15  1  0  0  0  0
  4 22  1  0  0  0  0
  4 24  1  0  0  0  0
  5 21  2  0  0  0  0
  6 24  2  0  0  0  0
  7 25  2  0  0  0  0
  8 11  1  0  0  0  0
  8 12  1  0  0  0  0
  9 20  1  0  0  0  0
  9 21  1  0  0  0  0
  9 41  1  0  0  0  0
 10 25  1  0  0  0  0
 10 28  1  0  0  0  0
 10 45  1  0  0  0  0
 11 13  1  0  0  0  0
 11 29  1  0  0  0  0
 11 30  1  0  0  0  0
 12 14  1  0  0  0  0
 12 31  1  0  0  0  0
 12 32  1  0  0  0  0
 13 14  1  0  0  0  0
 13 33  1  0  0  0  0
 13 34  1  0  0  0  0
 14 35  1  0  0  0  0
 14 36  1  0  0  0  0
 15 16  2  0  0  0  0
 15 17  1  0  0  0  0
 16 18  1  0  0  0  0
 16 37  1  0  0  0  0
 17 19  2  0  0  0  0
 17 38  1  0  0  0  0
 18 20  2  0  0  0  0
 18 39  1  0  0  0  0
 19 20  1  0  0  0  0
 19 40  1  0  0  0  0
 21 22  1  0  0  0  0
 22 42  1  0  0  0  0
 22 43  1  0  0  0  0
 23 24  1  0  0  0  0
 23 25  1  0  0  0  0
 23 26  2  0  0  0  0
 26 27  1  0  0  0  0
 26 44  1  0  0  0  0
 27 28  2  0  0  0  0
 27 46  1  0  0  0  0
 28 47  1  0  0  0  0
M  END
> <PUBCHEM_COMPOUND_CID>
2357903

> <PUBCHEM_CONFORMER_RMSD>
1

> <PUBCHEM_CONFORMER_DIVERSEORDER>
1
125
171
200
49
155
150
152
154
40
140
109
188
132
67
99
175
54
61
73
190
36
102
145
88
185
146
127
79
82
74
180
148
199
80
117
65
163
149
72
45
69
173
165
116
144
4
83
22
196
92
135
50
46
124
101
186
137
147
32
158
179
128
90
122
42
126
134
51
170
194
2
60
70
184
29
41
133
110
115
177
174
191
78
138
28
114
130
39
183
34
187
193
75
169
181
57
112
159
143
168
9
85
136
63
166
18
161
172
27
47
81
35
48
89
197
167
100
121
58
3
94
91
95
162
31
8
56
160
139
178
76
97
142
103
10
33
30
107
43
25
157
156
59
26
21
20
68
108
105
7
71
151
86
182
98
176
15
189
129
62
93
84
14
6
195
64
52
198
141
12
77
164
87
55
118
96
53
23
131
66
104
113
38
44
16
19
106
153
17
192
111
13
37
11
123
5
24
120
119

> <PUBCHEM_MMFF94_PARTIAL_CHARGES>
35
1 1.45
10 -0.54
11 0.36
12 0.36
15 -0.01
16 -0.15
17 -0.15
18 -0.15
19 -0.15
2 -0.65
20 0.12
21 0.57
22 0.34
23 0.03
24 0.71
25 0.62
26 -0.15
27 -0.15
28 -0.04
3 -0.65
37 0.15
38 0.15
39 0.15
4 -0.43
40 0.15
41 0.37
44 0.15
45 0.37
46 0.15
47 0.15
5 -0.57
6 -0.57
7 -0.57
8 -0.85
9 -0.55

> <PUBCHEM_EFFECTIVE_ROTOR_COUNT>
9

> <PUBCHEM_PHARMACOPHORE_FEATURES>
11
1 10 donor
1 2 acceptor
1 23 anion
1 3 acceptor
1 5 acceptor
1 6 acceptor
1 7 acceptor
1 9 donor
5 8 11 12 13 14 rings
6 10 23 25 26 27 28 rings
6 15 16 17 18 19 20 rings

> <PUBCHEM_HEAVY_ATOM_COUNT>
28

> <PUBCHEM_ATOM_DEF_STEREO_COUNT>
0

> <PUBCHEM_ATOM_UDEF_STEREO_COUNT>
0

> <PUBCHEM_BOND_DEF_STEREO_COUNT>
0

> <PUBCHEM_BOND_UDEF_STEREO_COUNT>
0

> <PUBCHEM_ISOTOPIC_ATOM_COUNT>
0

> <PUBCHEM_COMPONENT_COUNT>
1

> <PUBCHEM_CACTVS_TAUTO_COUNT>
6

> <PUBCHEM_CONFORMER_ID>
0023FA8F00000001

> <PUBCHEM_MMFF94_ENERGY>
61.3806

> <PUBCHEM_FEATURE_SELFOVERLAP>
55.84

> <PUBCHEM_SHAPE_FINGERPRINT>
10 15 17203322333987904400
10066227 49 16950275179127361307
10299344 5 18343310288145004589
10319926 262 17775564221953667865
106641 1 18343858927879364400
11475781 23 12757154584662299316
11524674 6 15123515818102765293
11719270 70 18271807895417678814
11991303 11 16298676091705458067
12082328 90 16877944937135184797
12166972 35 18411707616359090629
125118 31 12319745756235104251
13533116 47 17967249776642373520
13668630 136 16660367000271943161
13692114 37 18130782403709476879
13782708 43 17822285756224382468
14118638 360 17313106324597838164
14251764 18 18411421730239119541
14347332 77 18187078412658218557
15119646 104 18187082819326040130
15183329 4 18333453153026694515
15326921 28 17557437483799112881
15352257 5 17313105267582248147
15419008 47 16558750096250550456
15419008 91 17846205623435280217
15475509 35 18261380127925237616
1577012 14 18114469976348351669
17134984 74 17530687615371439810
1754908 1 16200434698031170671
21033648 29 16199851961231741550
21130935 74 18130229250871226186
21136928 126 12592855408027329330
21150785 3 17676492786503640605
21267235 1 18059869362636506629
21315759 40 18040438815289722359
21792934 111 17203891847585368889
22061861 79 16877941628971214659
22149856 69 17346053216087837995
22224240 67 15267344020595234973
22956985 138 17907582428904714862
23081809 10 17967821513392403221
23522609 53 18118716285876167764
23559900 14 16733274555210819317
27425 322 13046525201938200872
3004659 81 18341901804970251156
328310 630 11023820682903552691
3383291 50 18272369824060888231
394071 54 13326852249190166968
397830 11 15984810588576076775
406291 66 17969775290432848954
4073 2 18044100278924980720
4340502 62 16487254361713517036
5104073 3 17131277839879856115
59682541 52 14779544557128978408
68570916 9 13326557580037473605

> <PUBCHEM_SHAPE_MULTIPOLES>
529.92
25.34
2.02
1.71
27.06
0.41
0.06
12.08
1.24
-1.64
0.64
-2.03
0.56
-3.07

> <PUBCHEM_SHAPE_SELFOVERLAP>
1117.866

> <PUBCHEM_SHAPE_VOLUME>
295.9

> <PUBCHEM_COORDINATE_TYPE>
2
5
10

$$$$
