1143231
  -OEChem-01171809283D

 42 44  0     0  0  0  0  0  0999 V2000
    4.9318    2.0600    1.4206 Cl  0  0  0  0  0  0  0  0  0  0  0  0
    9.0844   -1.1310    0.1778 Cl  0  0  0  0  0  0  0  0  0  0  0  0
   -3.1596    3.0883   -0.5095 S   0  0  0  0  0  0  0  0  0  0  0  0
    2.5204   -0.3500    0.3062 O   0  0  0  0  0  0  0  0  0  0  0  0
   -2.9648    0.3822   -0.0580 N   0  0  0  0  0  0  0  0  0  0  0  0
   -5.1135    1.3513   -0.3500 N   0  0  0  0  0  0  0  0  0  0  0  0
    3.3269    0.3831   -0.6061 C   0  0  0  0  0  0  0  0  0  0  0  0
    4.7627    0.0304   -0.3893 C   0  0  0  0  0  0  0  0  0  0  0  0
    1.1649   -0.1681    0.2170 C   0  0  0  0  0  0  0  0  0  0  0  0
   -1.5849    0.1985    0.0340 C   0  0  0  0  0  0  0  0  0  0  0  0
    0.3203   -0.8558    1.0807 C   0  0  0  0  0  0  0  0  0  0  0  0
    0.6488    0.7011   -0.7373 C   0  0  0  0  0  0  0  0  0  0  0  0
   -1.0594   -0.6720    0.9888 C   0  0  0  0  0  0  0  0  0  0  0  0
   -0.7307    0.8850   -0.8291 C   0  0  0  0  0  0  0  0  0  0  0  0
    5.5624    0.7370    0.5090 C   0  0  0  0  0  0  0  0  0  0  0  0
    5.2994   -1.0352   -1.1119 C   0  0  0  0  0  0  0  0  0  0  0  0
   -5.9219    0.2078   -0.1312 C   0  0  0  0  0  0  0  0  0  0  0  0
    6.8988    0.3782    0.6844 C   0  0  0  0  0  0  0  0  0  0  0  0
    6.6358   -1.3941   -0.9364 C   0  0  0  0  0  0  0  0  0  0  0  0
   -3.7366    1.5145   -0.3338 C   0  0  0  0  0  0  0  0  0  0  0  0
    7.4355   -0.6873   -0.0382 C   0  0  0  0  0  0  0  0  0  0  0  0
   -7.2047    0.3717    0.3614 C   0  0  0  0  0  0  0  0  0  0  0  0
   -5.4095   -1.0457   -0.4165 C   0  0  0  0  0  0  0  0  0  0  0  0
   -8.0005   -0.7537    0.5757 C   0  0  0  0  0  0  0  0  0  0  0  0
   -6.2053   -2.1711   -0.2023 C   0  0  0  0  0  0  0  0  0  0  0  0
   -7.5008   -2.0251    0.2939 C   0  0  0  0  0  0  0  0  0  0  0  0
    3.1786    1.4641   -0.4999 H   0  0  0  0  0  0  0  0  0  0  0  0
    3.0698    0.1133   -1.6403 H   0  0  0  0  0  0  0  0  0  0  0  0
    0.7257   -1.5345    1.8255 H   0  0  0  0  0  0  0  0  0  0  0  0
    1.2478    1.2560   -1.4502 H   0  0  0  0  0  0  0  0  0  0  0  0
   -1.7122   -1.2135    1.6688 H   0  0  0  0  0  0  0  0  0  0  0  0
   -1.0997    1.5173   -1.6297 H   0  0  0  0  0  0  0  0  0  0  0  0
    4.6889   -1.5983   -1.8131 H   0  0  0  0  0  0  0  0  0  0  0  0
   -3.4579   -0.3086    0.4980 H   0  0  0  0  0  0  0  0  0  0  0  0
    7.5240    0.9281    1.3847 H   0  0  0  0  0  0  0  0  0  0  0  0
    7.0403   -2.2271   -1.5055 H   0  0  0  0  0  0  0  0  0  0  0  0
   -5.6314    2.2275   -0.3698 H   0  0  0  0  0  0  0  0  0  0  0  0
   -7.6027    1.3576    0.5843 H   0  0  0  0  0  0  0  0  0  0  0  0
   -4.4622   -1.2185   -0.9134 H   0  0  0  0  0  0  0  0  0  0  0  0
   -9.0096   -0.6400    0.9607 H   0  0  0  0  0  0  0  0  0  0  0  0
   -5.8270   -3.1595   -0.4471 H   0  0  0  0  0  0  0  0  0  0  0  0
   -8.1227   -2.9008    0.4546 H   0  0  0  0  0  0  0  0  0  0  0  0
  1 15  1  0  0  0  0
  2 21  1  0  0  0  0
  3 20  2  0  0  0  0
  4  7  1  0  0  0  0
  4  9  1  0  0  0  0
  5 10  1  0  0  0  0
  5 20  1  0  0  0  0
  5 34  1  0  0  0  0
  6 17  1  0  0  0  0
  6 20  1  0  0  0  0
  6 37  1  0  0  0  0
  7  8  1  0  0  0  0
  7 27  1  0  0  0  0
  7 28  1  0  0  0  0
  8 15  2  0  0  0  0
  8 16  1  0  0  0  0
  9 11  2  0  0  0  0
  9 12  1  0  0  0  0
 10 13  2  0  0  0  0
 10 14  1  0  0  0  0
 11 13  1  0  0  0  0
 11 29  1  0  0  0  0
 12 14  2  0  0  0  0
 12 30  1  0  0  0  0
 13 31  1  0  0  0  0
 14 32  1  0  0  0  0
 15 18  1  0  0  0  0
 16 19  2  0  0  0  0
 16 33  1  0  0  0  0
 17 22  2  0  0  0  0
 17 23  1  0  0  0  0
 18 21  2  0  0  0  0
 18 35  1  0  0  0  0
 19 21  1  0  0  0  0
 19 36  1  0  0  0  0
 22 24  1  0  0  0  0
 22 38  1  0  0  0  0
 23 25  2  0  0  0  0
 23 39  1  0  0  0  0
 24 26  2  0  0  0  0
 24 40  1  0  0  0  0
 25 26  1  0  0  0  0
 25 41  1  0  0  0  0
 26 42  1  0  0  0  0
M  END
> <PUBCHEM_COMPOUND_CID>
1143231

> <PUBCHEM_CONFORMER_RMSD>
0.8

> <PUBCHEM_CONFORMER_DIVERSEORDER>
1
44
185
188
121
126
173
26
69
187
217
134
110
112
91
140
71
93
56
223
166
156
186
96
158
162
34
72
191
129
218
45
163
113
213
151
190
48
83
125
70
108
192
210
106
141
60
99
150
177
43
130
144
179
42
159
82
118
61
63
109
181
50
180
88
19
51
133
222
229
90
53
55
101
172
22
78
76
160
23
131
46
196
175
219
183
28
115
167
214
124
40
170
15
81
114
145
116
168
100
227
33
194
221
94
21
209
103
148
138
84
47
58
98
220
212
127
135
165
89
54
147
178
111
152
193
153
198
176
77
184
224
35
142
66
207
216
137
9
117
65
211
36
10
189
27
228
52
201
157
143
199
86
155
97
64
226
32
119
62
29
49
11
208
68
7
31
206
107
74
139
120
154
102
182
171
92
123
149
25
37
195
85
73
18
128
80
6
8
169
204
136
203
122
41
164
14
95
79
146
12
2
16
205
161
215
200
225
197
59
30
24
104
174
3
202
17
38
87
13
39
57
4
75
20
5
105
132
67

> <PUBCHEM_MMFF94_PARTIAL_CHARGES>
40
1 -0.18
10 0.12
11 -0.15
12 -0.15
13 -0.15
14 -0.15
15 0.18
16 -0.15
17 0.12
18 -0.15
19 -0.15
2 -0.18
20 0.5
21 0.18
22 -0.15
23 -0.15
24 -0.15
25 -0.15
26 -0.15
29 0.15
3 -0.38
30 0.15
31 0.15
32 0.15
33 0.15
34 0.37
35 0.15
36 0.15
37 0.37
38 0.15
39 0.15
4 -0.36
40 0.15
41 0.15
42 0.15
5 -0.55
6 -0.55
7 0.42
8 -0.14
9 0.08

> <PUBCHEM_EFFECTIVE_ROTOR_COUNT>
7

> <PUBCHEM_PHARMACOPHORE_FEATURES>
7
1 3 acceptor
1 4 acceptor
1 5 donor
1 6 donor
6 17 22 23 24 25 26 rings
6 8 15 16 18 19 21 rings
6 9 10 11 12 13 14 rings

> <PUBCHEM_HEAVY_ATOM_COUNT>
26

> <PUBCHEM_ATOM_DEF_STEREO_COUNT>
0

> <PUBCHEM_ATOM_UDEF_STEREO_COUNT>
0

> <PUBCHEM_BOND_DEF_STEREO_COUNT>
0

> <PUBCHEM_BOND_UDEF_STEREO_COUNT>
0

> <PUBCHEM_ISOTOPIC_ATOM_COUNT>
0

> <PUBCHEM_COMPONENT_COUNT>
1

> <PUBCHEM_CACTVS_TAUTO_COUNT>
3

> <PUBCHEM_CONFORMER_ID>
001171BF00000001

> <PUBCHEM_MMFF94_ENERGY>
104.8335

> <PUBCHEM_FEATURE_SELFOVERLAP>
35.558

> <PUBCHEM_SHAPE_FINGERPRINT>
10050765 1 18119526531555797099
10066227 112 10737285753265334711
11135926 11 18187078443756847431
11315181 36 18273498984105390617
11524674 6 16702302369492501927
12166972 35 18333734632483573604
12498461 61 18334006174039647074
13885169 127 18343586218234435937
14068700 675 18113340821326051269
14123256 10 17894351077183003099
14251764 18 17168142330434583410
14251764 46 18131350800392552623
14933364 13 18272651250874333161
15021287 119 14692568836649141011
15183329 4 16298103207012268183
15419008 47 18272927219719470824
15419008 91 18264188318708661949
15461852 350 18335989705420112238
15510794 2 18202001028237244791
15716309 27 17917993893221844487
1577012 14 17313380076453073953
18335252 98 18272654545604801190
18608769 82 18341893008692670895
18681886 176 18187924015036682297
20157964 124 17846779616429204368
21130935 74 18266739083243722602
21150785 3 17531249460858804694
21267235 1 18260553346942302791
21315759 40 17603586301154415412
21315763 28 18334857204222693764
21521721 280 17275102872639138362
21792961 116 17632013048545084105
23035841 295 18409732868105915807
232437 2 18335139770738425326
23424782 7 18412265055525943234
23569917 315 17822016388983052458
23569943 247 17902796254672779610
2747138 104 18187931711628860505
3044373 193 18201441411189325708
3178227 256 16988846089958089150
328311 84 18344146982049477436
335352 9 17385449821865955934
3383291 50 18114184172266153507
34797466 226 18131353024958953452
4325135 7 18113617885428746887
4339292 15 18060125571164718519
4340502 62 17704356563246559126
44317340 157 17703502290035694248
5047190 19 16298965276549203419
54039377 194 18041003986226961003
5969126 39 16370718223981789997
6328613 192 9871750200249306647
67123 10 18408042919002835188
68570916 9 17774153664309281733
7226269 152 7925637709225667623
9953998 17 18201442459372134841

> <PUBCHEM_SHAPE_MULTIPOLES>
526.83
27.72
2.13
1.02
6.87
0.93
0.09
-11.84
1.68
-2.47
-0.1
0.85
0.1
1.73

> <PUBCHEM_SHAPE_SELFOVERLAP>
1105.549

> <PUBCHEM_SHAPE_VOLUME>
299

> <PUBCHEM_COORDINATE_TYPE>
2
5
10

$$$$
