5916626
  -OEChem-01171810073D

 32 33  0     0  0  0  0  0  0999 V2000
    2.7366   -0.1531    0.0153 O   0  0  0  0  0  0  0  0  0  0  0  0
   -3.6517   -2.1877   -0.6816 O   0  0  0  0  0  0  0  0  0  0  0  0
   -5.9054   -0.7793    0.1282 O   0  0  0  0  0  0  0  0  0  0  0  0
    1.5196    3.1494   -0.1174 O   0  0  0  0  0  0  0  0  0  0  0  0
    5.3440   -2.4804    0.1374 O   0  5  0  0  0  0  0  0  0  0  0  0
    3.1631   -2.7314    0.1416 O   0  0  0  0  0  0  0  0  0  0  0  0
    4.1813   -1.9790    0.1090 N   0  3  0  0  0  0  0  0  0  0  0  0
   -2.2078    1.1035   -0.0132 C   0  0  0  0  0  0  0  0  0  0  0  0
   -2.3166   -0.2398   -0.3729 C   0  0  0  0  0  0  0  0  0  0  0  0
   -3.5570   -0.8760   -0.3264 C   0  0  0  0  0  0  0  0  0  0  0  0
   -3.3394    1.8106    0.3930 C   0  0  0  0  0  0  0  0  0  0  0  0
   -0.9143    1.7665   -0.0607 C   0  0  0  0  0  0  0  0  0  0  0  0
   -4.6887   -0.1689    0.0794 C   0  0  0  0  0  0  0  0  0  0  0  0
    2.8313    1.1801   -0.0486 C   0  0  0  0  0  0  0  0  0  0  0  0
   -4.5799    1.1744    0.4392 C   0  0  0  0  0  0  0  0  0  0  0  0
    0.2837    1.1386   -0.0575 C   0  0  0  0  0  0  0  0  0  0  0  0
    1.5627    1.9195   -0.0898 C   0  0  0  0  0  0  0  0  0  0  0  0
    4.0980    1.6335   -0.0652 C   0  0  0  0  0  0  0  0  0  0  0  0
    4.0217   -0.5935    0.0421 C   0  0  0  0  0  0  0  0  0  0  0  0
    4.8968    0.4667   -0.0052 C   0  0  0  0  0  0  0  0  0  0  0  0
   -3.4783   -3.1536    0.3534 C   0  0  0  0  0  0  0  0  0  0  0  0
   -1.4636   -0.8190   -0.7157 H   0  0  0  0  0  0  0  0  0  0  0  0
   -3.2740    2.8578    0.6786 H   0  0  0  0  0  0  0  0  0  0  0  0
   -0.9497    2.8533   -0.0865 H   0  0  0  0  0  0  0  0  0  0  0  0
   -5.4534    1.7369    0.7577 H   0  0  0  0  0  0  0  0  0  0  0  0
    0.3625    0.0598   -0.0049 H   0  0  0  0  0  0  0  0  0  0  0  0
    4.4360    2.6585   -0.1133 H   0  0  0  0  0  0  0  0  0  0  0  0
    5.9764    0.4125    0.0019 H   0  0  0  0  0  0  0  0  0  0  0  0
   -4.2380   -3.0264    1.1311 H   0  0  0  0  0  0  0  0  0  0  0  0
   -2.4773   -3.0730    0.7889 H   0  0  0  0  0  0  0  0  0  0  0  0
   -3.5898   -4.1492   -0.0849 H   0  0  0  0  0  0  0  0  0  0  0  0
   -6.5699   -0.1371    0.4316 H   0  0  0  0  0  0  0  0  0  0  0  0
  1 14  1  0  0  0  0
  1 19  1  0  0  0  0
  2 10  1  0  0  0  0
  2 21  1  0  0  0  0
  3 13  1  0  0  0  0
  3 32  1  0  0  0  0
  4 17  2  0  0  0  0
  5  7  1  0  0  0  0
  6  7  2  0  0  0  0
  7 19  1  0  0  0  0
  8  9  2  0  0  0  0
  8 11  1  0  0  0  0
  8 12  1  0  0  0  0
  9 10  1  0  0  0  0
  9 22  1  0  0  0  0
 10 13  2  0  0  0  0
 11 15  2  0  0  0  0
 11 23  1  0  0  0  0
 12 16  2  0  0  0  0
 12 24  1  0  0  0  0
 13 15  1  0  0  0  0
 14 17  1  0  0  0  0
 14 18  2  0  0  0  0
 15 25  1  0  0  0  0
 16 17  1  0  0  0  0
 16 26  1  0  0  0  0
 18 20  1  0  0  0  0
 18 27  1  0  0  0  0
 19 20  2  0  0  0  0
 20 28  1  0  0  0  0
 21 29  1  0  0  0  0
 21 30  1  0  0  0  0
 21 31  1  0  0  0  0
M  CHG  2   5  -1   7   1
M  END
> <PUBCHEM_COMPOUND_CID>
5916626

> <PUBCHEM_CONFORMER_RMSD>
0.8

> <PUBCHEM_CONFORMER_DIVERSEORDER>
1
26
27
13
30
4
34
15
9
28
19
12
8
22
14
7
37
39
25
33
24
31
10
18
5
16
32
36
3
38
6
21
17
23
35
20
2
29
11

> <PUBCHEM_MMFF94_PARTIAL_CHARGES>
29
1 -0.28
10 0.08
11 -0.15
12 -0.18
13 0.08
14 0.05
15 -0.15
16 -0.14
17 0.64
18 -0.15
19 0.22
2 -0.36
20 -0.15
21 0.28
22 0.15
23 0.15
24 0.15
25 0.15
26 0.15
27 0.15
28 0.15
3 -0.53
32 0.45
4 -0.57
5 -0.52
6 -0.52
7 0.96
8 0.03
9 -0.15

> <PUBCHEM_EFFECTIVE_ROTOR_COUNT>
5

> <PUBCHEM_PHARMACOPHORE_FEATURES>
9
1 1 acceptor
1 2 acceptor
1 3 donor
1 4 acceptor
1 5 acceptor
1 5 anion
1 6 acceptor
5 1 14 18 19 20 rings
6 8 9 10 11 13 15 rings

> <PUBCHEM_HEAVY_ATOM_COUNT>
21

> <PUBCHEM_ATOM_DEF_STEREO_COUNT>
0

> <PUBCHEM_ATOM_UDEF_STEREO_COUNT>
0

> <PUBCHEM_BOND_DEF_STEREO_COUNT>
1

> <PUBCHEM_BOND_UDEF_STEREO_COUNT>
0

> <PUBCHEM_ISOTOPIC_ATOM_COUNT>
0

> <PUBCHEM_COMPONENT_COUNT>
1

> <PUBCHEM_CACTVS_TAUTO_COUNT>
3

> <PUBCHEM_CONFORMER_ID>
005A47D200000001

> <PUBCHEM_MMFF94_ENERGY>
60.0723

> <PUBCHEM_FEATURE_SELFOVERLAP>
45.765

> <PUBCHEM_SHAPE_FINGERPRINT>
10616163 171 18341053033390732263
11036077 51 18199476480889284681
11405975 8 18271529801086677809
12107183 9 18125167026312238345
12555020 224 18338224991274545981
12596602 18 17346598603682609216
13167823 11 18410293596806962081
13255334 9 18410859875623827366
13533116 47 18341330089125572585
13551218 46 18412267229475571279
14341114 176 18412549820616173821
14420673 8 18267872691873004455
14866123 147 17621321234289270104
15196674 1 18411136913714568444
15250474 111 18269549606013728999
15352361 1 18410572868723691798
15537594 2 18337969951183199396
17492 89 18338236097527742715
17857418 61 18412821408694259157
1813 80 17458347433264088940
19141452 34 18409731729581263061
20281475 54 18410012122131289140
20403669 9 18341899562633280383
20645477 70 18259983773632788208
21065198 57 18412544340402103561
21267235 1 18411990156307595636
21673915 165 18410854390892477086
221490 88 18264492964811660544
22950370 63 18410016503071660604
23379529 103 18198348351773271374
23559900 14 18268141140530632009
239999 70 18131358527260647884
3004659 81 18187646865097098952
314173 41 18412833481979418068
3246872 21 17189249929546733622
338550 245 18335143115462829966
3421961 26 18412259532799562800
4073 2 18263647427690675496
4214541 1 18412263947904695053
4283 87 18335692832527274538
46194498 28 17386006221129341612
463206 1 18334862701332550426
5104073 3 18273497866253643544
559249 180 18338795611818115329
633830 44 16950568778617626945
6433294 58 18411138030617555690
6823239 73 17845390872686682998
7970288 3 18120651336774104242
9709674 26 18334861670313286099
9981440 41 17255681318453933857

> <PUBCHEM_SHAPE_MULTIPOLES>
391.97
13.16
3.36
0.64
0.87
1.86
0.01
6.01
-0.66
1.02
-0.16
-0.22
0.01
-0.53

> <PUBCHEM_SHAPE_SELFOVERLAP>
843.802

> <PUBCHEM_SHAPE_VOLUME>
216.7

> <PUBCHEM_COORDINATE_TYPE>
2
5
10

$$$$
