2904443
  -OEChem-01171809203D

 40 42  0     0  0  0  0  0  0999 V2000
   -1.5951   -0.3276   -0.6686 O   0  0  0  0  0  0  0  0  0  0  0  0
   -1.8601   -0.2894    1.6466 O   0  0  0  0  0  0  0  0  0  0  0  0
    3.8501   -1.1475    0.0552 N   0  0  0  0  0  0  0  0  0  0  0  0
   -5.5170    0.2366   -1.3652 N   0  0  0  0  0  0  0  0  0  0  0  0
    4.8414   -0.0841    0.1706 C   0  0  0  0  0  0  0  0  0  0  0  0
    4.2219    1.2904    0.0674 C   0  0  0  0  0  0  0  0  0  0  0  0
    2.4964   -0.9118   -0.1251 C   0  0  0  0  0  0  0  0  0  0  0  0
    2.9129    1.5410   -0.1085 C   0  0  0  0  0  0  0  0  0  0  0  0
    1.9808    0.3968   -0.2127 C   0  0  0  0  0  0  0  0  0  0  0  0
    5.8658   -0.2668   -0.9572 C   0  0  0  0  0  0  0  0  0  0  0  0
    5.5351   -0.2290    1.5320 C   0  0  0  0  0  0  0  0  0  0  0  0
    0.5984    0.5742   -0.3959 C   0  0  0  0  0  0  0  0  0  0  0  0
    1.6171   -2.0037   -0.2233 C   0  0  0  0  0  0  0  0  0  0  0  0
    2.3975    2.9478   -0.1988 C   0  0  0  0  0  0  0  0  0  0  0  0
   -0.2598   -0.5224   -0.4911 C   0  0  0  0  0  0  0  0  0  0  0  0
    0.2491   -1.8116   -0.4047 C   0  0  0  0  0  0  0  0  0  0  0  0
   -2.3248   -0.2258    0.5183 C   0  0  0  0  0  0  0  0  0  0  0  0
   -3.7694   -0.0149    0.2448 C   0  0  0  0  0  0  0  0  0  0  0  0
   -4.6509    0.1187    1.2898 C   0  0  0  0  0  0  0  0  0  0  0  0
   -4.2168    0.0461   -1.0474 C   0  0  0  0  0  0  0  0  0  0  0  0
   -5.9971    0.3160    1.0028 C   0  0  0  0  0  0  0  0  0  0  0  0
   -6.3755    0.3669   -0.3291 C   0  0  0  0  0  0  0  0  0  0  0  0
    4.1668   -2.1093    0.1116 H   0  0  0  0  0  0  0  0  0  0  0  0
    4.9102    2.1309    0.1446 H   0  0  0  0  0  0  0  0  0  0  0  0
    6.3399   -1.2542   -0.9060 H   0  0  0  0  0  0  0  0  0  0  0  0
    5.3913   -0.1874   -1.9431 H   0  0  0  0  0  0  0  0  0  0  0  0
    6.6599    0.4872   -0.9064 H   0  0  0  0  0  0  0  0  0  0  0  0
    4.8199   -0.1220    2.3569 H   0  0  0  0  0  0  0  0  0  0  0  0
    6.0022   -1.2156    1.6359 H   0  0  0  0  0  0  0  0  0  0  0  0
    6.3179    0.5263    1.6678 H   0  0  0  0  0  0  0  0  0  0  0  0
    0.1670    1.5698   -0.4685 H   0  0  0  0  0  0  0  0  0  0  0  0
    1.9993   -3.0204   -0.1579 H   0  0  0  0  0  0  0  0  0  0  0  0
    1.9119    3.1230   -1.1647 H   0  0  0  0  0  0  0  0  0  0  0  0
    1.6797    3.1514    0.6031 H   0  0  0  0  0  0  0  0  0  0  0  0
    3.2022    3.6856   -0.1049 H   0  0  0  0  0  0  0  0  0  0  0  0
   -0.4103   -2.6718   -0.4783 H   0  0  0  0  0  0  0  0  0  0  0  0
   -4.3294    0.0752    2.3257 H   0  0  0  0  0  0  0  0  0  0  0  0
   -3.5738   -0.0521   -1.9146 H   0  0  0  0  0  0  0  0  0  0  0  0
   -6.7271    0.4265    1.7964 H   0  0  0  0  0  0  0  0  0  0  0  0
   -7.4135    0.5189   -0.6060 H   0  0  0  0  0  0  0  0  0  0  0  0
  1 15  1  0  0  0  0
  1 17  1  0  0  0  0
  2 17  2  0  0  0  0
  3  5  1  0  0  0  0
  3  7  1  0  0  0  0
  3 23  1  0  0  0  0
  4 20  1  0  0  0  0
  4 22  2  0  0  0  0
  5  6  1  0  0  0  0
  5 10  1  0  0  0  0
  5 11  1  0  0  0  0
  6  8  2  0  0  0  0
  6 24  1  0  0  0  0
  7  9  2  0  0  0  0
  7 13  1  0  0  0  0
  8  9  1  0  0  0  0
  8 14  1  0  0  0  0
  9 12  1  0  0  0  0
 10 25  1  0  0  0  0
 10 26  1  0  0  0  0
 10 27  1  0  0  0  0
 11 28  1  0  0  0  0
 11 29  1  0  0  0  0
 11 30  1  0  0  0  0
 12 15  2  0  0  0  0
 12 31  1  0  0  0  0
 13 16  2  0  0  0  0
 13 32  1  0  0  0  0
 14 33  1  0  0  0  0
 14 34  1  0  0  0  0
 14 35  1  0  0  0  0
 15 16  1  0  0  0  0
 16 36  1  0  0  0  0
 17 18  1  0  0  0  0
 18 19  1  0  0  0  0
 18 20  2  0  0  0  0
 19 21  2  0  0  0  0
 19 37  1  0  0  0  0
 20 38  1  0  0  0  0
 21 22  1  0  0  0  0
 21 39  1  0  0  0  0
 22 40  1  0  0  0  0
M  END
> <PUBCHEM_COMPOUND_CID>
2904443

> <PUBCHEM_CONFORMER_RMSD>
0.6

> <PUBCHEM_CONFORMER_DIVERSEORDER>
2
47
110
77
35
111
112
54
32
109
84
60
38
108
17
53
119
61
63
76
29
102
90
33
95
1
71
51
78
81
83
3
68
21
85
86
88
91
122
59
75
72
80
92
46
58
22
82
36
87
123
57
18
56
115
67
120
55
69
74
48
99
31
49
43
96
62
93
13
79
97
30
89
10
52
34
98
50
121
9
107
14
65
105
94
118
4
15
106
37
41
104
26
40
101
24
19
103
16
66
23
100
20
28
114
39
25
42
117
73
64
116
27
113
11
70
45
44
12
7
5
8
6

> <PUBCHEM_MMFF94_PARTIAL_CHARGES>
29
1 -0.23
12 -0.15
13 -0.15
14 0.14
15 0.08
16 -0.15
17 0.63
18 0.09
19 -0.15
2 -0.57
20 0.16
21 -0.15
22 0.16
23 0.4
24 0.15
3 -0.87
31 0.15
32 0.15
36 0.15
37 0.15
38 0.15
39 0.15
4 -0.62
40 0.15
5 0.51
6 -0.29
7 0.1
8 -0.17
9 0.03

> <PUBCHEM_EFFECTIVE_ROTOR_COUNT>
3.4

> <PUBCHEM_PHARMACOPHORE_FEATURES>
8
1 2 acceptor
1 3 cation
1 3 donor
1 4 acceptor
3 5 10 11 hydrophobe
6 3 5 6 7 8 9 rings
6 4 18 19 20 21 22 rings
6 7 9 12 13 15 16 rings

> <PUBCHEM_HEAVY_ATOM_COUNT>
22

> <PUBCHEM_ATOM_DEF_STEREO_COUNT>
0

> <PUBCHEM_ATOM_UDEF_STEREO_COUNT>
0

> <PUBCHEM_BOND_DEF_STEREO_COUNT>
0

> <PUBCHEM_BOND_UDEF_STEREO_COUNT>
0

> <PUBCHEM_ISOTOPIC_ATOM_COUNT>
0

> <PUBCHEM_COMPONENT_COUNT>
1

> <PUBCHEM_CACTVS_TAUTO_COUNT>
1

> <PUBCHEM_CONFORMER_ID>
002C517B00000002

> <PUBCHEM_MMFF94_ENERGY>
79.372

> <PUBCHEM_FEATURE_SELFOVERLAP>
40.62

> <PUBCHEM_SHAPE_FINGERPRINT>
10 15 17967809492422422504
10090160 65 18272370850040425099
10354089 29 18412829079526948810
10411042 1 17978792312325430278
10688039 33 17967531242491729212
11045977 3 18040722497199212731
11089746 13 17846497045196746192
11545043 162 16950568796208511457
11796584 16 16443066080262314562
12011746 2 18334864904961691118
12166972 35 17775288257325098096
12236239 1 17561362872677927647
12403259 415 17894625968085749165
12616971 3 18202285835818569605
13140716 1 18265608974168209426
13167372 99 18200599094750441865
13402501 40 18113615681683542213
13533116 47 17676762076874482018
13540713 5 18049148163100104646
13583140 156 18113337531269968475
13631057 29 17987787657665483775
13685833 64 10447926188005597701
14170010 4 18412826875976558868
14341114 176 17603589642317523708
15348495 7 17677056849212294089
15475509 35 16443327768746926272
15788980 27 17967250918702688815
18681886 176 17418085542263671774
192875 21 17989212563650360816
19489759 90 16343705426547474697
200 152 18202280286778546409
20511986 3 17774710975329189841
20567600 75 16950277378013355523
21033648 144 18267293403869160469
21033648 29 17749656463865199605
21033650 10 15768401377039312224
21054139 6 17917699241259603255
21267235 1 18335139736246792242
21641784 216 18042704831255949212
21709351 56 18411134775084664607
21792961 116 17968654918427827902
23035841 295 15482672364730473647
23402539 116 16056878022574016389
23522609 53 10954307238276844199
23536379 177 15770059415015223366
23559900 14 18336266820451239913
23569943 247 17771921428441941182
23622692 88 18342458153722033566
29717793 49 17275111626215017524
300161 21 17632293450444491983
335352 9 18412266147338979062
3472631 163 16343413016536783528
34797466 226 14404903634742996425
351380 180 18334856130085211305
3545911 37 18335424573549652543
4072396 5 18334848403792519370
42630746 31 18343585122859851318
4325135 7 18343582976109484831
465052 167 17822012004237283874
474 4 18342461464688352267
5104073 3 18265047114719802386
542803 24 17632578240866994783
57724786 102 18187936139160290117
59755656 215 18410860923627496438
8509985 295 18335419084639529096
9971528 1 17988928860249936604
9999458 23 18114183068749201622

> <PUBCHEM_SHAPE_MULTIPOLES>
431.05
15.3
1.71
1.17
11.53
0.67
-0.26
1.95
-1.1
-2.18
0.21
0.62
-0.03
-0.09

> <PUBCHEM_SHAPE_SELFOVERLAP>
938.886

> <PUBCHEM_SHAPE_VOLUME>
232.6

> <PUBCHEM_COORDINATE_TYPE>
2
5
10

$$$$
