6903352
  -OEChem-01171809413D

 33 34  0     0  0  0  0  0  0999 V2000
    6.2740    0.8836   -0.0882 Cl  0  0  0  0  0  0  0  0  0  0  0  0
   -2.0064    2.0519    1.1899 Cl  0  0  0  0  0  0  0  0  0  0  0  0
   -3.5653   -3.2330    0.1479 S   0  0  0  0  0  0  0  0  0  0  0  0
    2.3287    2.6237   -0.2444 O   0  5  0  0  0  0  0  0  0  0  0  0
    4.5196    2.7593   -0.2366 O   0  0  0  0  0  0  0  0  0  0  0  0
   -2.4625   -0.6902   -0.0445 N   0  0  0  0  0  0  0  0  0  0  0  0
    3.4612    2.0897   -0.1968 N   0  3  0  0  0  0  0  0  0  0  0  0
   -1.0429   -2.5249    0.0994 N   0  0  0  0  0  0  0  0  0  0  0  0
   -0.0005   -1.6607    0.0462 N   0  0  0  0  0  0  0  0  0  0  0  0
    2.4100   -1.4535    0.0502 C   0  0  0  0  0  0  0  0  0  0  0  0
    2.3641   -0.0629   -0.0496 C   0  0  0  0  0  0  0  0  0  0  0  0
    3.5484    0.6727   -0.0936 C   0  0  0  0  0  0  0  0  0  0  0  0
   -3.5605    0.2050   -0.0866 C   0  0  0  0  0  0  0  0  0  0  0  0
    3.6403   -2.1084    0.1059 C   0  0  0  0  0  0  0  0  0  0  0  0
    4.7788    0.0177   -0.0375 C   0  0  0  0  0  0  0  0  0  0  0  0
    4.8247   -1.3729    0.0623 C   0  0  0  0  0  0  0  0  0  0  0  0
   -3.4576    1.4784    0.4481 C   0  0  0  0  0  0  0  0  0  0  0  0
   -4.7334   -0.2370   -0.6776 C   0  0  0  0  0  0  0  0  0  0  0  0
    1.1752   -2.2207    0.0952 C   0  0  0  0  0  0  0  0  0  0  0  0
   -4.5578    2.3340    0.3911 C   0  0  0  0  0  0  0  0  0  0  0  0
   -5.8335    0.6185   -0.7347 C   0  0  0  0  0  0  0  0  0  0  0  0
   -5.7458    1.9040   -0.2002 C   0  0  0  0  0  0  0  0  0  0  0  0
   -2.3588   -2.0742    0.0541 C   0  0  0  0  0  0  0  0  0  0  0  0
    1.3982    0.4349   -0.0923 H   0  0  0  0  0  0  0  0  0  0  0  0
    3.6922   -3.1914    0.1836 H   0  0  0  0  0  0  0  0  0  0  0  0
    5.7750   -1.8989    0.1069 H   0  0  0  0  0  0  0  0  0  0  0  0
   -4.8307   -1.1940   -1.1736 H   0  0  0  0  0  0  0  0  0  0  0  0
   -1.5801   -0.2175    0.1433 H   0  0  0  0  0  0  0  0  0  0  0  0
    1.2756   -3.3193    0.1739 H   0  0  0  0  0  0  0  0  0  0  0  0
   -4.5059    3.3391    0.8019 H   0  0  0  0  0  0  0  0  0  0  0  0
   -6.7533    0.2909   -1.2106 H   0  0  0  0  0  0  0  0  0  0  0  0
   -6.6012    2.5714   -0.2484 H   0  0  0  0  0  0  0  0  0  0  0  0
   -0.8353   -3.5157    0.1762 H   0  0  0  0  0  0  0  0  0  0  0  0
  1 15  1  0  0  0  0
  2 17  1  0  0  0  0
  3 23  2  0  0  0  0
  4  7  1  0  0  0  0
  5  7  2  0  0  0  0
  6 13  1  0  0  0  0
  6 23  1  0  0  0  0
  6 28  1  0  0  0  0
  7 12  1  0  0  0  0
  8  9  1  0  0  0  0
  8 23  1  0  0  0  0
  8 33  1  0  0  0  0
  9 19  2  0  0  0  0
 10 11  2  0  0  0  0
 10 14  1  0  0  0  0
 10 19  1  0  0  0  0
 11 12  1  0  0  0  0
 11 24  1  0  0  0  0
 12 15  2  0  0  0  0
 13 17  1  0  0  0  0
 13 18  2  0  0  0  0
 14 16  2  0  0  0  0
 14 25  1  0  0  0  0
 15 16  1  0  0  0  0
 16 26  1  0  0  0  0
 17 20  2  0  0  0  0
 18 21  1  0  0  0  0
 18 27  1  0  0  0  0
 19 29  1  0  0  0  0
 20 22  1  0  0  0  0
 20 30  1  0  0  0  0
 21 22  2  0  0  0  0
 21 31  1  0  0  0  0
 22 32  1  0  0  0  0
M  CHG  2   4  -1   7   1
M  END
> <PUBCHEM_COMPOUND_CID>
6903352

> <PUBCHEM_CONFORMER_RMSD>
0.8

> <PUBCHEM_CONFORMER_DIVERSEORDER>
1
54
58
56
18
109
44
115
88
101
93
25
89
90
6
68
79
107
111
69
57
16
14
48
86
41
104
102
17
65
112
22
110
77
94
38
64
23
66
63
53
59
113
95
51
96
33
28
82
50
100
30
37
99
103
71
108
74
10
13
52
12
72
31
19
39
106
75
81
60
67
92
84
87
83
45
29
116
78
21
73
105
43
7
55
34
98
26
61
9
20
47
15
42
4
49
46
40
80
76
114
36
62
97
11
8
27
5
3
24
85
32
2
35
70
91

> <PUBCHEM_MMFF94_PARTIAL_CHARGES>
33
1 -0.18
10 0.09
11 -0.15
12 0.13
13 0.12
14 -0.15
15 0.18
16 -0.15
17 0.18
18 -0.15
19 0.3
2 -0.18
20 -0.15
21 -0.15
22 -0.15
23 0.5
24 0.15
25 0.15
26 0.15
27 0.15
28 0.37
29 0.06
3 -0.38
30 0.15
31 0.15
32 0.15
33 0.37
4 -0.52
5 -0.52
6 -0.55
7 0.91
8 -0.37
9 -0.51

> <PUBCHEM_EFFECTIVE_ROTOR_COUNT>
6

> <PUBCHEM_PHARMACOPHORE_FEATURES>
9
1 3 acceptor
1 4 acceptor
1 4 anion
1 5 acceptor
1 6 donor
1 8 donor
1 9 acceptor
6 10 11 12 14 15 16 rings
6 13 17 18 20 21 22 rings

> <PUBCHEM_HEAVY_ATOM_COUNT>
23

> <PUBCHEM_ATOM_DEF_STEREO_COUNT>
0

> <PUBCHEM_ATOM_UDEF_STEREO_COUNT>
0

> <PUBCHEM_BOND_DEF_STEREO_COUNT>
1

> <PUBCHEM_BOND_UDEF_STEREO_COUNT>
0

> <PUBCHEM_ISOTOPIC_ATOM_COUNT>
0

> <PUBCHEM_COMPONENT_COUNT>
1

> <PUBCHEM_CACTVS_TAUTO_COUNT>
3

> <PUBCHEM_CONFORMER_ID>
0069563800000001

> <PUBCHEM_MMFF94_ENERGY>
84.0044

> <PUBCHEM_FEATURE_SELFOVERLAP>
45.799

> <PUBCHEM_SHAPE_FINGERPRINT>
12107183 9 18263353695257675586
12633257 1 18261100842854638170
12788726 201 17632019637415722769
13402501 40 18335137557548457981
14251764 38 18411421742992042229
14394314 77 18271812285281080705
14767858 380 18271507742688079063
14790565 3 18125727795150162889
14931854 50 18272088266687975629
15196674 1 18337672013533760430
16760501 71 18409456873364848875
17834072 32 18410576167227335891
17844677 252 18337679705826033930
20028762 73 18129096719898947222
20715895 44 18339358540112077465
21033648 144 18261382352101482143
21298829 104 18340770334227503681
21421861 104 17749937870665707266
21623110 236 18412832365646591265
23227448 37 18411418410630469415
23559900 14 18342733044055339888
245318 6 18041859409391919645
2838139 119 18337104575655961095
335352 9 18410012105568436278
3680242 22 18262796246829611234
4073 2 18113623421510197154
474 4 18337671915034433787
5104073 3 18113613508556814746
6328613 192 18261402182688193564
9981440 41 18409449180989660843

> <PUBCHEM_SHAPE_MULTIPOLES>
449.26
15.28
3.74
0.75
1.85
0.65
-0.06
-7.01
1.88
-1.01
-0.32
-0.45
-0.17
-0.59

> <PUBCHEM_SHAPE_SELFOVERLAP>
928.441

> <PUBCHEM_SHAPE_VOLUME>
259.2

> <PUBCHEM_COORDINATE_TYPE>
2
5
10

$$$$
