203396
  -OEChem-01171809473D

 21 22  0     0  0  0  0  0  0999 V2000
    3.5019    2.0767    0.1615 Br  0  0  0  0  0  0  0  0  0  0  0  0
    4.5565   -1.2358   -0.2314 Br  0  0  0  0  0  0  0  0  0  0  0  0
    0.5314    2.0262    0.4012 O   0  0  0  0  0  0  0  0  0  0  0  0
    0.0194   -0.2203    0.0103 N   0  0  0  0  0  0  0  0  0  0  0  0
    0.4797   -1.5030   -0.1085 N   0  0  0  0  0  0  0  0  0  0  0  0
   -1.4206   -0.1292   -0.0129 C   0  0  0  0  0  0  0  0  0  0  0  0
    0.8842    0.8701    0.1649 C   0  0  0  0  0  0  0  0  0  0  0  0
   -2.0386    1.0249   -0.4949 C   0  0  0  0  0  0  0  0  0  0  0  0
   -2.1948   -1.1951    0.4458 C   0  0  0  0  0  0  0  0  0  0  0  0
    2.3575    0.5901    0.0589 C   0  0  0  0  0  0  0  0  0  0  0  0
   -3.4305    1.1131   -0.5180 C   0  0  0  0  0  0  0  0  0  0  0  0
   -3.5867   -1.1068    0.4227 C   0  0  0  0  0  0  0  0  0  0  0  0
    2.7932   -0.6643   -0.0920 C   0  0  0  0  0  0  0  0  0  0  0  0
   -4.2045    0.0473   -0.0593 C   0  0  0  0  0  0  0  0  0  0  0  0
    1.7520   -1.6937   -0.1483 C   0  0  0  0  0  0  0  0  0  0  0  0
   -1.4728    1.8595   -0.8964 H   0  0  0  0  0  0  0  0  0  0  0  0
   -1.7460   -2.1024    0.8414 H   0  0  0  0  0  0  0  0  0  0  0  0
   -3.9122    2.0079   -0.9014 H   0  0  0  0  0  0  0  0  0  0  0  0
   -4.1899   -1.9353    0.7826 H   0  0  0  0  0  0  0  0  0  0  0  0
    2.1055   -2.7342   -0.2411 H   0  0  0  0  0  0  0  0  0  0  0  0
   -5.2882    0.1154   -0.0787 H   0  0  0  0  0  0  0  0  0  0  0  0
  1 10  1  0  0  0  0
  2 13  1  0  0  0  0
  3  7  2  0  0  0  0
  4  5  1  0  0  0  0
  4  6  1  0  0  0  0
  4  7  1  0  0  0  0
  5 15  2  0  0  0  0
  6  8  2  0  0  0  0
  6  9  1  0  0  0  0
  7 10  1  0  0  0  0
  8 11  1  0  0  0  0
  8 16  1  0  0  0  0
  9 12  2  0  0  0  0
  9 17  1  0  0  0  0
 10 13  2  0  0  0  0
 11 14  2  0  0  0  0
 11 18  1  0  0  0  0
 12 14  1  0  0  0  0
 12 19  1  0  0  0  0
 13 15  1  0  0  0  0
 14 21  1  0  0  0  0
 15 20  1  0  0  0  0
M  END
> <PUBCHEM_COMPOUND_CID>
203396

> <PUBCHEM_CONFORMER_RMSD>
0.4

> <PUBCHEM_CONFORMER_DIVERSEORDER>
1
2
3

> <PUBCHEM_MMFF94_PARTIAL_CHARGES>
21
1 -0.11
10 0.12
11 -0.15
12 -0.15
13 0.12
14 -0.15
15 0.38
16 0.15
17 0.15
18 0.15
19 0.15
2 -0.11
20 0.06
21 0.15
3 -0.57
4 -0.11
5 -0.51
6 0.12
7 0.62
8 -0.15
9 -0.15

> <PUBCHEM_EFFECTIVE_ROTOR_COUNT>
1

> <PUBCHEM_PHARMACOPHORE_FEATURES>
6
1 1 hydrophobe
1 2 hydrophobe
1 3 acceptor
1 5 acceptor
6 4 5 7 10 13 15 rings
6 6 8 9 11 12 14 rings

> <PUBCHEM_HEAVY_ATOM_COUNT>
15

> <PUBCHEM_ATOM_DEF_STEREO_COUNT>
0

> <PUBCHEM_ATOM_UDEF_STEREO_COUNT>
0

> <PUBCHEM_BOND_DEF_STEREO_COUNT>
0

> <PUBCHEM_BOND_UDEF_STEREO_COUNT>
0

> <PUBCHEM_ISOTOPIC_ATOM_COUNT>
0

> <PUBCHEM_COMPONENT_COUNT>
1

> <PUBCHEM_CACTVS_TAUTO_COUNT>
1

> <PUBCHEM_CONFORMER_ID>
00031A8400000001

> <PUBCHEM_MMFF94_ENERGY>
50.9615

> <PUBCHEM_FEATURE_SELFOVERLAP>
30.446

> <PUBCHEM_SHAPE_FINGERPRINT>
10608611 8 18408036304020353061
10967382 1 18339079405581345624
10980938 120 18341330080218905986
11132069 177 18187359973765987285
11471102 20 18412823598937701996
12032990 46 18412267211873728462
124424 183 18335419041241469627
13296908 3 18412262839333062650
14144814 61 18410856551429663305
14252887 29 17846786161437455606
14325111 11 18409728490869557429
14415576 193 18408888446953812636
15196674 1 18410574010937085669
15219456 202 18408603686295361377
15442244 35 18196092144573553777
15536298 74 18341894112746834880
15775835 57 18200595928942416837
16945 1 18267028241288645504
17804303 29 18407763624899014951
17834074 16 18408604768426601423
18175812 5 18335139795210289630
18186145 218 17967810539771593188
200 152 17988917864959546471
20201158 50 18410012091923813787
20279233 1 18407478868815281371
20645477 56 17968938574952740309
20645477 70 18343863311959649398
21267235 1 18411709763646994631
21452121 103 18271234006947244376
21501502 16 18409728486885768019
221490 88 18336835285317080186
23402539 116 18201147759178179111
23402655 69 18341885256709056173
23463225 33 18409165506709261608
23557571 272 17386005031475784141
23559900 14 18409725137080192152
2748010 2 18410572915989580556
3312278 4 18337675196051675386
335352 9 18338516313867630197
474 4 14708357900690965710
5104073 3 18409450301790606089
53812653 166 18270959180047118728
7364860 26 18342175592240175856
77779 3 18408887351536568461
8809292 202 18260554428419935155
9709674 26 18262802998349622435

> <PUBCHEM_SHAPE_MULTIPOLES>
304.75
8.26
2.08
0.7
0.56
0.49
0.01
-0.61
0.34
-1.53
-0.08
0.06
0.03
0.7

> <PUBCHEM_SHAPE_SELFOVERLAP>
625.468

> <PUBCHEM_SHAPE_VOLUME>
179.6

> <PUBCHEM_COORDINATE_TYPE>
2
5
10

$$$$
