1087128
  -OEChem-01171809443D

 50 52  0     0  0  0  0  0  0999 V2000
    7.6473   -0.8131   -1.0793 O   0  0  0  0  0  0  0  0  0  0  0  0
   -5.5037    0.3255    0.0134 O   0  0  0  0  0  0  0  0  0  0  0  0
   -3.3679   -2.4023    0.3936 O   0  0  0  0  0  0  0  0  0  0  0  0
   -8.7283    1.6638   -0.1388 O   0  5  0  0  0  0  0  0  0  0  0  0
   -6.7455    2.5961   -0.3320 O   0  0  0  0  0  0  0  0  0  0  0  0
    5.6243   -0.0275   -0.2492 N   0  0  0  0  0  0  0  0  0  0  0  0
    2.7302   -0.0261   -0.1950 N   0  0  0  0  0  0  0  0  0  0  0  0
   -2.8816   -0.1303    0.0325 N   0  0  0  0  0  0  0  0  0  0  0  0
   -7.4659    1.5713   -0.1496 N   0  3  0  0  0  0  0  0  0  0  0  0
    4.8741    0.7614    0.7306 C   0  0  0  0  0  0  0  0  0  0  0  0
    4.8361   -0.7235   -1.2631 C   0  0  0  0  0  0  0  0  0  0  0  0
    3.4830    1.1554    0.2336 C   0  0  0  0  0  0  0  0  0  0  0  0
    3.4790   -1.1697   -0.7236 C   0  0  0  0  0  0  0  0  0  0  0  0
    7.0142   -0.1494   -0.2551 C   0  0  0  0  0  0  0  0  0  0  0  0
    1.3386   -0.0520   -0.1396 C   0  0  0  0  0  0  0  0  0  0  0  0
    7.7536    0.5978    0.8277 C   0  0  0  0  0  0  0  0  0  0  0  0
    0.6320   -1.2600    0.0697 C   0  0  0  0  0  0  0  0  0  0  0  0
    0.5729    1.1284   -0.2894 C   0  0  0  0  0  0  0  0  0  0  0  0
    8.0693    2.0008    0.3420 C   0  0  0  0  0  0  0  0  0  0  0  0
    9.0102   -0.1777    1.1813 C   0  0  0  0  0  0  0  0  0  0  0  0
   -0.7616   -1.2860    0.1260 C   0  0  0  0  0  0  0  0  0  0  0  0
   -0.8206    1.1024   -0.2330 C   0  0  0  0  0  0  0  0  0  0  0  0
   -1.4879   -0.1048   -0.0253 C   0  0  0  0  0  0  0  0  0  0  0  0
   -3.7167   -1.2377    0.2317 C   0  0  0  0  0  0  0  0  0  0  0  0
   -5.1744   -0.9478    0.2151 C   0  0  0  0  0  0  0  0  0  0  0  0
   -6.2060   -1.7791    0.3732 C   0  0  0  0  0  0  0  0  0  0  0  0
   -7.3424   -0.9431    0.2605 C   0  0  0  0  0  0  0  0  0  0  0  0
   -6.8621    0.3272    0.0421 C   0  0  0  0  0  0  0  0  0  0  0  0
    5.4149    1.6687    1.0046 H   0  0  0  0  0  0  0  0  0  0  0  0
    4.7875    0.1408    1.6313 H   0  0  0  0  0  0  0  0  0  0  0  0
    5.3912   -1.5873   -1.6443 H   0  0  0  0  0  0  0  0  0  0  0  0
    4.7056   -0.0245   -2.0983 H   0  0  0  0  0  0  0  0  0  0  0  0
    3.5700    1.8528   -0.6087 H   0  0  0  0  0  0  0  0  0  0  0  0
    2.9669    1.6743    1.0506 H   0  0  0  0  0  0  0  0  0  0  0  0
    3.6204   -1.9090    0.0742 H   0  0  0  0  0  0  0  0  0  0  0  0
    2.9284   -1.6508   -1.5413 H   0  0  0  0  0  0  0  0  0  0  0  0
    7.1559    0.6462    1.7426 H   0  0  0  0  0  0  0  0  0  0  0  0
    1.1682   -2.1970    0.2037 H   0  0  0  0  0  0  0  0  0  0  0  0
    1.0595    2.0852   -0.4657 H   0  0  0  0  0  0  0  0  0  0  0  0
    8.5595    2.5814    1.1307 H   0  0  0  0  0  0  0  0  0  0  0  0
    8.7432    1.9769   -0.5223 H   0  0  0  0  0  0  0  0  0  0  0  0
    7.1741    2.5465    0.0297 H   0  0  0  0  0  0  0  0  0  0  0  0
    9.5324    0.2979    2.0187 H   0  0  0  0  0  0  0  0  0  0  0  0
    8.7709   -1.2053    1.4774 H   0  0  0  0  0  0  0  0  0  0  0  0
    9.7133   -0.2282    0.3420 H   0  0  0  0  0  0  0  0  0  0  0  0
   -1.2040   -2.2578    0.2929 H   0  0  0  0  0  0  0  0  0  0  0  0
   -1.3743    2.0299   -0.3552 H   0  0  0  0  0  0  0  0  0  0  0  0
   -3.3398    0.7705   -0.0899 H   0  0  0  0  0  0  0  0  0  0  0  0
   -6.1906   -2.8451    0.5476 H   0  0  0  0  0  0  0  0  0  0  0  0
   -8.3804   -1.2369    0.3306 H   0  0  0  0  0  0  0  0  0  0  0  0
  1 14  2  0  0  0  0
  2 25  1  0  0  0  0
  2 28  1  0  0  0  0
  3 24  2  0  0  0  0
  4  9  1  0  0  0  0
  5  9  2  0  0  0  0
  6 10  1  0  0  0  0
  6 11  1  0  0  0  0
  6 14  1  0  0  0  0
  7 12  1  0  0  0  0
  7 13  1  0  0  0  0
  7 15  1  0  0  0  0
  8 23  1  0  0  0  0
  8 24  1  0  0  0  0
  8 48  1  0  0  0  0
  9 28  1  0  0  0  0
 10 12  1  0  0  0  0
 10 29  1  0  0  0  0
 10 30  1  0  0  0  0
 11 13  1  0  0  0  0
 11 31  1  0  0  0  0
 11 32  1  0  0  0  0
 12 33  1  0  0  0  0
 12 34  1  0  0  0  0
 13 35  1  0  0  0  0
 13 36  1  0  0  0  0
 14 16  1  0  0  0  0
 15 17  2  0  0  0  0
 15 18  1  0  0  0  0
 16 19  1  0  0  0  0
 16 20  1  0  0  0  0
 16 37  1  0  0  0  0
 17 21  1  0  0  0  0
 17 38  1  0  0  0  0
 18 22  2  0  0  0  0
 18 39  1  0  0  0  0
 19 40  1  0  0  0  0
 19 41  1  0  0  0  0
 19 42  1  0  0  0  0
 20 43  1  0  0  0  0
 20 44  1  0  0  0  0
 20 45  1  0  0  0  0
 21 23  2  0  0  0  0
 21 46  1  0  0  0  0
 22 23  1  0  0  0  0
 22 47  1  0  0  0  0
 24 25  1  0  0  0  0
 25 26  2  0  0  0  0
 26 27  1  0  0  0  0
 26 49  1  0  0  0  0
 27 28  2  0  0  0  0
 27 50  1  0  0  0  0
M  CHG  2   4  -1   9   1
M  END
> <PUBCHEM_COMPOUND_CID>
1087128

> <PUBCHEM_CONFORMER_RMSD>
1

> <PUBCHEM_CONFORMER_DIVERSEORDER>
1
12
22
11
7
3
4
16
14
10
6
2
5
18
9
17
15
20
21
19
13
8

> <PUBCHEM_MMFF94_PARTIAL_CHARGES>
33
1 -0.57
10 0.3
11 0.3
12 0.37
13 0.37
14 0.57
15 0.1
16 0.06
17 -0.15
18 -0.15
2 -0.28
21 -0.15
22 -0.15
23 0.12
24 0.71
25 0.05
26 -0.15
27 -0.15
28 0.22
3 -0.57
38 0.15
39 0.15
4 -0.52
46 0.15
47 0.15
48 0.37
49 0.15
5 -0.52
50 0.15
6 -0.66
7 -0.84
8 -0.55
9 0.96

> <PUBCHEM_EFFECTIVE_ROTOR_COUNT>
8.2

> <PUBCHEM_PHARMACOPHORE_FEATURES>
12
1 1 acceptor
1 2 acceptor
1 3 acceptor
1 4 acceptor
1 4 anion
1 5 acceptor
1 7 cation
1 8 donor
3 16 19 20 hydrophobe
5 2 25 26 27 28 rings
6 15 17 18 21 22 23 rings
6 6 7 10 11 12 13 rings

> <PUBCHEM_HEAVY_ATOM_COUNT>
28

> <PUBCHEM_ATOM_DEF_STEREO_COUNT>
0

> <PUBCHEM_ATOM_UDEF_STEREO_COUNT>
0

> <PUBCHEM_BOND_DEF_STEREO_COUNT>
0

> <PUBCHEM_BOND_UDEF_STEREO_COUNT>
0

> <PUBCHEM_ISOTOPIC_ATOM_COUNT>
0

> <PUBCHEM_COMPONENT_COUNT>
1

> <PUBCHEM_CACTVS_TAUTO_COUNT>
2

> <PUBCHEM_CONFORMER_ID>
0010969800000001

> <PUBCHEM_MMFF94_ENERGY>
82.0288

> <PUBCHEM_FEATURE_SELFOVERLAP>
60.988

> <PUBCHEM_SHAPE_FINGERPRINT>
10 15 18342173415213710640
10050765 1 18122063104975878930
100830 39 18409730621891449549
10299344 5 17312821588949398778
10666366 153 18130797729080164572
10674148 151 18114177549653111552
10835480 77 18343866589552354919
10951579 204 18194138325349399725
11135926 11 17894903036310475891
11315181 36 17703795834218497363
11719270 70 18202004331125618014
12089408 11 17240203248408186534
12104220 1 18409444753231890781
125118 31 18335424599462284076
12838862 33 18340756096341890878
13383665 225 18190483609661404356
13533116 47 14620527679519958014
13885169 127 18410575076347665313
14118638 360 16486986059491303690
14251764 18 17821445763880023274
14251764 46 18410855473013076683
14294032 229 17750235798755242069
14344974 52 18273209816884548133
14429380 56 15769769183196100784
14856354 85 16370730366050014091
15183329 4 18334858299597317467
15247644 1 15719392858925429939
15301273 46 18343300371060210728
15419008 47 18413384336910029016
15461852 350 17489300919823012741
15510794 2 18273498970144816151
15849732 13 18201721768730273743
16087824 20 18263362504779106773
17093844 174 18408325493459713627
18608769 82 18409726266129564076
19841028 212 18115022997123804266
20238998 120 18342177773630810792
21095086 128 13767929044223587875
21150785 3 12535629383859511754
21304253 13 18335701671575523973
21792934 111 18059849564092572312
22224240 67 17131833188100126166
23559900 14 18200310047255433752
249057 3 15841264939012705892
2835820 82 16516512293637011034
335352 9 18336266824904625223
4073 2 18114749351028104242
4339292 15 17202756146853677719
444735 82 18337674239060867836
4625314 4 18271527593931929710
5283156 175 17313100844192739418
5385378 56 17603864460116427995
54039377 194 11455877093502516069
5758199 1 17675924300295170211
59567204 34 18410292476865535285
636775 72 18411982430432271601

> <PUBCHEM_SHAPE_MULTIPOLES>
526.96
29.84
1.9
0.84
3.26
0.46
-0.03
8.04
3.41
-2.82
-0.02
1.34
-0.11
1.56

> <PUBCHEM_SHAPE_SELFOVERLAP>
1121.759

> <PUBCHEM_SHAPE_VOLUME>
292.1

> <PUBCHEM_COORDINATE_TYPE>
2
5
10

$$$$
