2940152
  -OEChem-01171809313D

 43 45  0     1  0  0  0  0  0999 V2000
   -1.2016    2.0078   -0.1519 F   0  0  0  0  0  0  0  0  0  0  0  0
   -3.6812   -1.8616    1.0478 F   0  0  0  0  0  0  0  0  0  0  0  0
   -5.9567   -0.6809    0.1257 F   0  0  0  0  0  0  0  0  0  0  0  0
   -3.4843    3.1761   -1.0723 F   0  0  0  0  0  0  0  0  0  0  0  0
   -5.8637    1.8367   -0.9368 F   0  0  0  0  0  0  0  0  0  0  0  0
    5.3960    3.0758    0.1377 O   0  0  0  0  0  0  0  0  0  0  0  0
   -1.2425   -1.4052    1.8742 O   0  0  0  0  0  0  0  0  0  0  0  0
    0.0063   -0.2055    0.3323 N   0  0  0  0  0  0  0  0  0  0  0  0
    1.2927   -0.7567    0.6933 C   0  0  2  0  0  0  0  0  0  0  0  0
    2.3963    0.2748    0.5435 C   0  0  0  0  0  0  0  0  0  0  0  0
    1.6040   -2.0498   -0.0382 C   0  0  0  0  0  0  0  0  0  0  0  0
    3.0411    0.7359    1.6751 C   0  0  0  0  0  0  0  0  0  0  0  0
    2.7275    0.7245   -0.7203 C   0  0  0  0  0  0  0  0  0  0  0  0
    2.4019   -2.9943    0.5790 C   0  0  0  0  0  0  0  0  0  0  0  0
    1.0818   -2.2484   -1.3020 C   0  0  0  0  0  0  0  0  0  0  0  0
   -1.1935   -0.5700    0.9539 C   0  0  0  0  0  0  0  0  0  0  0  0
    4.0557    1.6830    1.5378 C   0  0  0  0  0  0  0  0  0  0  0  0
    3.7422    1.6717   -0.8577 C   0  0  0  0  0  0  0  0  0  0  0  0
   -2.4097    0.0566    0.4602 C   0  0  0  0  0  0  0  0  0  0  0  0
    4.4062    2.1510    0.2714 C   0  0  0  0  0  0  0  0  0  0  0  0
    2.6881   -4.1826   -0.0931 C   0  0  0  0  0  0  0  0  0  0  0  0
    1.3681   -3.4368   -1.9741 C   0  0  0  0  0  0  0  0  0  0  0  0
    2.1712   -4.4039   -1.3697 C   0  0  0  0  0  0  0  0  0  0  0  0
   -2.3626    1.3412   -0.0811 C   0  0  0  0  0  0  0  0  0  0  0  0
   -3.6237   -0.6267    0.5295 C   0  0  0  0  0  0  0  0  0  0  0  0
   -4.7906   -0.0254    0.0577 C   0  0  0  0  0  0  0  0  0  0  0  0
   -3.5293    1.9426   -0.5529 C   0  0  0  0  0  0  0  0  0  0  0  0
   -4.7434    1.2592   -0.4835 C   0  0  0  0  0  0  0  0  0  0  0  0
    5.7037    3.5110   -1.1857 C   0  0  0  0  0  0  0  0  0  0  0  0
    1.2089   -1.0182    1.7577 H   0  0  0  0  0  0  0  0  0  0  0  0
   -0.0248    0.4408   -0.4510 H   0  0  0  0  0  0  0  0  0  0  0  0
    2.7774    0.3798    2.6664 H   0  0  0  0  0  0  0  0  0  0  0  0
    2.2161    0.3746   -1.6111 H   0  0  0  0  0  0  0  0  0  0  0  0
    2.8098   -2.8306    1.5720 H   0  0  0  0  0  0  0  0  0  0  0  0
    0.4621   -1.5113   -1.8027 H   0  0  0  0  0  0  0  0  0  0  0  0
    4.5695    2.0528    2.4210 H   0  0  0  0  0  0  0  0  0  0  0  0
    3.9620    1.9940   -1.8697 H   0  0  0  0  0  0  0  0  0  0  0  0
    3.3140   -4.9354    0.3773 H   0  0  0  0  0  0  0  0  0  0  0  0
    0.9678   -3.6083   -2.9691 H   0  0  0  0  0  0  0  0  0  0  0  0
    2.3948   -5.3288   -1.8932 H   0  0  0  0  0  0  0  0  0  0  0  0
    6.0786    2.6877   -1.8031 H   0  0  0  0  0  0  0  0  0  0  0  0
    6.5130    4.2441   -1.1050 H   0  0  0  0  0  0  0  0  0  0  0  0
    4.8534    4.0232   -1.6487 H   0  0  0  0  0  0  0  0  0  0  0  0
  1 24  1  0  0  0  0
  2 25  1  0  0  0  0
  3 26  1  0  0  0  0
  4 27  1  0  0  0  0
  5 28  1  0  0  0  0
  6 20  1  0  0  0  0
  6 29  1  0  0  0  0
  7 16  2  0  0  0  0
  8  9  1  0  0  0  0
  8 16  1  0  0  0  0
  8 31  1  0  0  0  0
  9 10  1  0  0  0  0
  9 11  1  0  0  0  0
  9 30  1  0  0  0  0
 10 12  2  0  0  0  0
 10 13  1  0  0  0  0
 11 14  2  0  0  0  0
 11 15  1  0  0  0  0
 12 17  1  0  0  0  0
 12 32  1  0  0  0  0
 13 18  2  0  0  0  0
 13 33  1  0  0  0  0
 14 21  1  0  0  0  0
 14 34  1  0  0  0  0
 15 22  2  0  0  0  0
 15 35  1  0  0  0  0
 16 19  1  0  0  0  0
 17 20  2  0  0  0  0
 17 36  1  0  0  0  0
 18 20  1  0  0  0  0
 18 37  1  0  0  0  0
 19 24  2  0  0  0  0
 19 25  1  0  0  0  0
 21 23  2  0  0  0  0
 21 38  1  0  0  0  0
 22 23  1  0  0  0  0
 22 39  1  0  0  0  0
 23 40  1  0  0  0  0
 24 27  1  0  0  0  0
 25 26  2  0  0  0  0
 26 28  1  0  0  0  0
 27 28  2  0  0  0  0
 29 41  1  0  0  0  0
 29 42  1  0  0  0  0
 29 43  1  0  0  0  0
M  END
> <PUBCHEM_COMPOUND_CID>
2940152

> <PUBCHEM_CONFORMER_RMSD>
0.8

> <PUBCHEM_CONFORMER_DIVERSEORDER>
1
18
22
16
20
29
14
26
11
28
27
3
13
15
10
19
17
21
7
23
30
6
8
12
5
24
25
9
4
2

> <PUBCHEM_MMFF94_PARTIAL_CHARGES>
39
1 -0.19
10 -0.14
11 -0.14
12 -0.15
13 -0.15
14 -0.15
15 -0.15
16 0.54
17 -0.15
18 -0.15
19 0.09
2 -0.19
20 0.08
21 -0.15
22 -0.15
23 -0.15
24 0.19
25 0.19
26 0.19
27 0.19
28 0.19
29 0.28
3 -0.19
31 0.37
32 0.15
33 0.15
34 0.15
35 0.15
36 0.15
37 0.15
38 0.15
39 0.15
4 -0.19
40 0.15
5 -0.19
6 -0.36
7 -0.57
8 -0.73
9 0.59

> <PUBCHEM_EFFECTIVE_ROTOR_COUNT>
6

> <PUBCHEM_PHARMACOPHORE_FEATURES>
6
1 6 acceptor
1 7 acceptor
1 8 donor
6 10 12 13 17 18 20 rings
6 11 14 15 21 22 23 rings
6 19 24 25 26 27 28 rings

> <PUBCHEM_HEAVY_ATOM_COUNT>
29

> <PUBCHEM_ATOM_DEF_STEREO_COUNT>
0

> <PUBCHEM_ATOM_UDEF_STEREO_COUNT>
1

> <PUBCHEM_BOND_DEF_STEREO_COUNT>
0

> <PUBCHEM_BOND_UDEF_STEREO_COUNT>
0

> <PUBCHEM_ISOTOPIC_ATOM_COUNT>
0

> <PUBCHEM_COMPONENT_COUNT>
1

> <PUBCHEM_CACTVS_TAUTO_COUNT>
2

> <PUBCHEM_CONFORMER_ID>
002CDCF800000001

> <PUBCHEM_MMFF94_ENERGY>
79.3814

> <PUBCHEM_FEATURE_SELFOVERLAP>
30.446

> <PUBCHEM_SHAPE_FINGERPRINT>
10190108 129 17912084155799659063
10369192 42 18263649626661365628
10815517 723 17339006664719487423
10906281 52 18188221999699029849
10930396 42 17761465034676727354
11488393 25 18269854042355375010
11991303 11 18056768860896242014
12549972 3 17605861147304065826
12633257 1 15502932056025388348
12730499 353 18342745121687869067
12788726 201 17689985061877865934
133893 2 18056220006698704530
13540713 4 18187942642357506579
13681431 1 17911812275716038154
13757389 114 17833562558512577574
13911987 19 18200600331390001176
14251764 38 18264767662588603257
15849732 13 18340476800058279362
15961568 22 18040997362216558484
17980427 23 17677612140838054749
18681886 176 18263363762824651096
19309040 13 18272088245530176885
21304303 282 17698410533560958310
21756936 100 17753609341817429544
22149856 69 18339095847702345857
22182313 1 18042430004946270779
22393880 68 18273218598979936462
23558518 356 18053673464395739281
23559900 14 18192991526263055835
3298306 158 18341893013203513314
376196 1 18334287699774606880
44249763 50 17695068091517769552
44802255 64 17977408323780513940
46194498 28 18267866090755995767
469060 322 17980482592035224795
5104073 3 18261112912234902377
5219985 13 18265331884184744596
59554788 281 16805042930318843531
59755656 215 18336546019549074458
60123966 16 18120358883506901613
6669772 16 18060145371074521414
7399639 24 18338245963104376179
7808743 9 18049160261865260960
9709674 26 18337672997540402083
9981440 41 18187650270557785554

> <PUBCHEM_SHAPE_MULTIPOLES>
543.72
11.83
5.17
1.46
9.21
4.08
0.03
-11.59
-1.54
-7.29
-2.43
-0.81
0.35
1.35

> <PUBCHEM_SHAPE_SELFOVERLAP>
1196.428

> <PUBCHEM_SHAPE_VOLUME>
292.5

> <PUBCHEM_COORDINATE_TYPE>
2
5
10

$$$$
