1487013
  -OEChem-01171809473D

 27 28  0     0  0  0  0  0  0999 V2000
    6.0542   -0.6569    0.0070 Cl  0  0  0  0  0  0  0  0  0  0  0  0
    0.0538    1.1149   -0.0032 S   0  0  0  0  0  0  0  0  0  0  0  0
   -0.0390   -1.8286   -0.0016 S   0  0  0  0  0  0  0  0  0  0  0  0
   -0.2895    1.7250    1.2697 O   0  0  0  0  0  0  0  0  0  0  0  0
   -0.2222    1.7730   -1.2672 O   0  0  0  0  0  0  0  0  0  0  0  0
   -3.1132    1.5403    0.0143 O   0  0  0  0  0  0  0  0  0  0  0  0
   -2.5373   -2.0196   -0.0070 N   0  0  0  0  0  0  0  0  0  0  0  0
   -4.6240   -0.1892   -0.0112 N   0  0  0  0  0  0  0  0  0  0  0  0
   -1.4357   -2.7533   -0.0042 N   0  0  0  0  0  0  0  0  0  0  0  0
    1.7283    0.6205   -0.0004 C   0  0  0  0  0  0  0  0  0  0  0  0
   -0.9057   -0.3511   -0.0046 C   0  0  0  0  0  0  0  0  0  0  0  0
   -2.2455   -0.6647   -0.0068 C   0  0  0  0  0  0  0  0  0  0  0  0
    2.3991    0.4228   -1.2073 C   0  0  0  0  0  0  0  0  0  0  0  0
    2.3951    0.4230    1.2088 C   0  0  0  0  0  0  0  0  0  0  0  0
    3.7369    0.0277   -1.2049 C   0  0  0  0  0  0  0  0  0  0  0  0
    3.7329    0.0280    1.2110 C   0  0  0  0  0  0  0  0  0  0  0  0
   -3.3041    0.3038   -0.0092 C   0  0  0  0  0  0  0  0  0  0  0  0
    4.4037   -0.1697    0.0042 C   0  0  0  0  0  0  0  0  0  0  0  0
   -5.7879    0.6540    0.0125 C   0  0  0  0  0  0  0  0  0  0  0  0
    1.8985    0.5646   -2.1609 H   0  0  0  0  0  0  0  0  0  0  0  0
    1.8906    0.5667    2.1601 H   0  0  0  0  0  0  0  0  0  0  0  0
    4.2467   -0.1241   -2.1528 H   0  0  0  0  0  0  0  0  0  0  0  0
    4.2396   -0.1232    2.1607 H   0  0  0  0  0  0  0  0  0  0  0  0
   -4.7670   -1.1952   -0.0081 H   0  0  0  0  0  0  0  0  0  0  0  0
   -5.7034    1.4171   -0.7656 H   0  0  0  0  0  0  0  0  0  0  0  0
   -5.8524    1.1386    0.9901 H   0  0  0  0  0  0  0  0  0  0  0  0
   -6.6738    0.0389   -0.1593 H   0  0  0  0  0  0  0  0  0  0  0  0
  1 18  1  0  0  0  0
  2  4  2  0  0  0  0
  2  5  2  0  0  0  0
  2 10  1  0  0  0  0
  2 11  1  0  0  0  0
  3  9  1  0  0  0  0
  3 11  1  0  0  0  0
  6 17  2  0  0  0  0
  7  9  2  0  0  0  0
  7 12  1  0  0  0  0
  8 17  1  0  0  0  0
  8 19  1  0  0  0  0
  8 24  1  0  0  0  0
 10 13  2  0  0  0  0
 10 14  1  0  0  0  0
 11 12  2  0  0  0  0
 12 17  1  0  0  0  0
 13 15  1  0  0  0  0
 13 20  1  0  0  0  0
 14 16  2  0  0  0  0
 14 21  1  0  0  0  0
 15 18  2  0  0  0  0
 15 22  1  0  0  0  0
 16 18  1  0  0  0  0
 16 23  1  0  0  0  0
 19 25  1  0  0  0  0
 19 26  1  0  0  0  0
 19 27  1  0  0  0  0
M  END
> <PUBCHEM_COMPOUND_CID>
1487013

> <PUBCHEM_CONFORMER_RMSD>
0.6

> <PUBCHEM_CONFORMER_DIVERSEORDER>
1
4
17
14
24
13
23
11
2
21
8
18
10
9
12
3
25
16
5
22
6
7
15
19
20

> <PUBCHEM_MMFF94_PARTIAL_CHARGES>
24
1 -0.18
10 -0.01
11 -0.02
12 0.14
13 -0.15
14 -0.15
15 -0.15
16 -0.15
17 0.72
18 0.18
19 0.3
2 1.37
20 0.15
21 0.15
22 0.15
23 0.15
24 0.37
3 0.18
4 -0.65
5 -0.65
6 -0.57
7 -0.23
8 -0.73
9 -0.22

> <PUBCHEM_EFFECTIVE_ROTOR_COUNT>
4

> <PUBCHEM_PHARMACOPHORE_FEATURES>
6
1 4 acceptor
1 5 acceptor
1 6 acceptor
1 8 donor
5 3 7 9 11 12 rings
6 10 13 14 15 16 18 rings

> <PUBCHEM_HEAVY_ATOM_COUNT>
19

> <PUBCHEM_ATOM_DEF_STEREO_COUNT>
0

> <PUBCHEM_ATOM_UDEF_STEREO_COUNT>
0

> <PUBCHEM_BOND_DEF_STEREO_COUNT>
0

> <PUBCHEM_BOND_UDEF_STEREO_COUNT>
0

> <PUBCHEM_ISOTOPIC_ATOM_COUNT>
0

> <PUBCHEM_COMPONENT_COUNT>
1

> <PUBCHEM_CACTVS_TAUTO_COUNT>
2

> <PUBCHEM_CONFORMER_ID>
0016B0A500000001

> <PUBCHEM_MMFF94_ENERGY>
23.9568

> <PUBCHEM_FEATURE_SELFOVERLAP>
30.463

> <PUBCHEM_SHAPE_FINGERPRINT>
10366900 7 17275394209388066912
11646440 116 18060148647949783041
12011746 2 18343017770290319981
12119455 92 16630522929951630324
12236239 1 17749109993648044828
12346177 29 18200869690332320679
12507560 18 18131630079928871083
12553582 1 17895460501716390234
12592029 89 18113339674252726107
13140716 1 18266179620502591169
13533116 47 17988644026440476070
13544592 145 18272934912379488694
13583140 156 15554157194208151342
13862211 1 18410854395741494775
14115302 16 18408890663272929812
14386348 63 17918277554263055710
15042514 8 18264773328146514323
15099037 51 18410856568535672943
15196674 1 18338797934825723238
15375358 24 17917711322854373878
1601671 61 18334012753322401821
16752209 62 18336542733382206369
16945 1 18410856568425078377
17804303 29 18340205301430364043
18186145 218 15357973520934554212
19141452 34 18413106190569220358
200 152 15051734166347910858
20279233 1 17632302289176080902
20600515 1 18341622520432435092
20645477 70 16486982752345263740
20681677 155 18187365467234809506
21267235 1 18260836994128213858
21279426 13 17984990288606916356
23402539 116 18272645758180659701
23557571 272 18272654507346046092
23558518 356 17901948870214170275
23559900 14 18272088348861936328
26918003 58 16558749026887900130
3004659 81 18334861593969446630
335352 9 18410855464438973279
347723 3 18334577927709900657
351380 180 17346877853507551089
465052 167 17676780846250479387
495365 180 17203317923415375810
5104073 3 18266746955438170241
5385378 56 18268721507013898883
58051976 100 18113617923461012215
59755656 215 18341613663977489327
69090 78 17417807366074818551
7226269 152 18130788927874965105
81228 2 17773621358916219824

> <PUBCHEM_SHAPE_MULTIPOLES>
368.03
10.72
1.87
1.06
0.2
0.93
0
0.1
-0.03
-1.42
0.01
0.95
-0.31
-0.01

> <PUBCHEM_SHAPE_SELFOVERLAP>
748.913

> <PUBCHEM_SHAPE_VOLUME>
214.9

> <PUBCHEM_COORDINATE_TYPE>
2
5
10

$$$$
