1167228
  -OEChem-01171809573D

 36 38  0     0  0  0  0  0  0999 V2000
    4.3702    3.0247   -1.5665 Br  0  0  0  0  0  0  0  0  0  0  0  0
   -1.9260    2.2690    1.2219 O   0  0  0  0  0  0  0  0  0  0  0  0
   -5.5072   -0.1922   -0.7319 O   0  0  0  0  0  0  0  0  0  0  0  0
   -0.0647    0.3909    0.2589 N   0  0  0  0  0  0  0  0  0  0  0  0
    0.6408   -1.7554    0.9144 N   0  0  0  0  0  0  0  0  0  0  0  0
    2.9515   -2.4071    0.7087 N   0  0  0  0  0  0  0  0  0  0  0  0
    2.2741   -0.2093    0.0293 C   0  0  0  0  0  0  0  0  0  0  0  0
   -1.4402    0.2530    0.0147 C   0  0  0  0  0  0  0  0  0  0  0  0
    0.9797   -0.5554    0.4067 C   0  0  0  0  0  0  0  0  0  0  0  0
    3.2556   -1.1983    0.2045 C   0  0  0  0  0  0  0  0  0  0  0  0
   -2.3539    1.1951    0.4998 C   0  0  0  0  0  0  0  0  0  0  0  0
   -1.9065   -0.8398   -0.7235 C   0  0  0  0  0  0  0  0  0  0  0  0
    2.6036    1.0511   -0.4990 C   0  0  0  0  0  0  0  0  0  0  0  0
   -3.7178    1.0457    0.2494 C   0  0  0  0  0  0  0  0  0  0  0  0
   -4.1762   -0.0463   -0.4874 C   0  0  0  0  0  0  0  0  0  0  0  0
   -3.2705   -0.9892   -0.9739 C   0  0  0  0  0  0  0  0  0  0  0  0
    4.5631   -0.8886   -0.1618 C   0  0  0  0  0  0  0  0  0  0  0  0
    3.9180    1.3335   -0.8568 C   0  0  0  0  0  0  0  0  0  0  0  0
    4.8987    0.3624   -0.6879 C   0  0  0  0  0  0  0  0  0  0  0  0
    1.6608   -2.6200    1.0361 C   0  0  0  0  0  0  0  0  0  0  0  0
   -1.8462    2.1078    2.6364 C   0  0  0  0  0  0  0  0  0  0  0  0
   -5.9068   -1.3317   -1.4919 C   0  0  0  0  0  0  0  0  0  0  0  0
    0.1901    1.3174    0.5900 H   0  0  0  0  0  0  0  0  0  0  0  0
   -1.2210   -1.5808   -1.1267 H   0  0  0  0  0  0  0  0  0  0  0  0
    1.8474    1.8185   -0.6449 H   0  0  0  0  0  0  0  0  0  0  0  0
   -4.4249    1.7801    0.6272 H   0  0  0  0  0  0  0  0  0  0  0  0
   -3.5579   -1.8585   -1.5554 H   0  0  0  0  0  0  0  0  0  0  0  0
    5.3491   -1.6314   -0.0396 H   0  0  0  0  0  0  0  0  0  0  0  0
    5.9328    0.5587   -0.9596 H   0  0  0  0  0  0  0  0  0  0  0  0
    1.4222   -3.5957    1.4414 H   0  0  0  0  0  0  0  0  0  0  0  0
   -1.1595    1.2963    2.8972 H   0  0  0  0  0  0  0  0  0  0  0  0
   -2.8379    1.9091    3.0550 H   0  0  0  0  0  0  0  0  0  0  0  0
   -1.4657    3.0385    3.0660 H   0  0  0  0  0  0  0  0  0  0  0  0
   -5.4936   -1.3041   -2.5059 H   0  0  0  0  0  0  0  0  0  0  0  0
   -6.9965   -1.2891   -1.5897 H   0  0  0  0  0  0  0  0  0  0  0  0
   -5.6689   -2.2658   -0.9718 H   0  0  0  0  0  0  0  0  0  0  0  0
  1 18  1  0  0  0  0
  2 11  1  0  0  0  0
  2 21  1  0  0  0  0
  3 15  1  0  0  0  0
  3 22  1  0  0  0  0
  4  8  1  0  0  0  0
  4  9  1  0  0  0  0
  4 23  1  0  0  0  0
  5  9  2  0  0  0  0
  5 20  1  0  0  0  0
  6 10  1  0  0  0  0
  6 20  2  0  0  0  0
  7  9  1  0  0  0  0
  7 10  2  0  0  0  0
  7 13  1  0  0  0  0
  8 11  2  0  0  0  0
  8 12  1  0  0  0  0
 10 17  1  0  0  0  0
 11 14  1  0  0  0  0
 12 16  2  0  0  0  0
 12 24  1  0  0  0  0
 13 18  2  0  0  0  0
 13 25  1  0  0  0  0
 14 15  2  0  0  0  0
 14 26  1  0  0  0  0
 15 16  1  0  0  0  0
 16 27  1  0  0  0  0
 17 19  2  0  0  0  0
 17 28  1  0  0  0  0
 18 19  1  0  0  0  0
 19 29  1  0  0  0  0
 20 30  1  0  0  0  0
 21 31  1  0  0  0  0
 21 32  1  0  0  0  0
 21 33  1  0  0  0  0
 22 34  1  0  0  0  0
 22 35  1  0  0  0  0
 22 36  1  0  0  0  0
M  END
> <PUBCHEM_COMPOUND_CID>
1167228

> <PUBCHEM_CONFORMER_RMSD>
0.6

> <PUBCHEM_CONFORMER_DIVERSEORDER>
2
36
44
42
47
39
29
45
10
21
25
49
48
38
30
46
41
35
31
43
34
5
4
26
33
37
6
40
14
23
24
22
28
9
32
8
27
18
13
15
11
7
12
16
17
3
1
19
20

> <PUBCHEM_MMFF94_PARTIAL_CHARGES>
29
1 -0.11
10 0.31
11 0.08
12 -0.15
13 -0.15
14 -0.15
15 0.08
16 -0.15
17 -0.15
18 0.11
19 -0.15
2 -0.36
20 0.47
21 0.28
22 0.28
23 0.4
24 0.15
25 0.15
26 0.15
27 0.15
28 0.15
29 0.15
3 -0.36
30 0.15
4 -0.6
5 -0.62
6 -0.62
8 0.1
9 0.41

> <PUBCHEM_EFFECTIVE_ROTOR_COUNT>
4

> <PUBCHEM_PHARMACOPHORE_FEATURES>
9
1 1 hydrophobe
1 2 acceptor
1 3 acceptor
1 4 donor
3 4 5 9 cation
3 5 6 20 cation
6 5 6 7 9 10 20 rings
6 7 10 13 17 18 19 rings
6 8 11 12 14 15 16 rings

> <PUBCHEM_HEAVY_ATOM_COUNT>
22

> <PUBCHEM_ATOM_DEF_STEREO_COUNT>
0

> <PUBCHEM_ATOM_UDEF_STEREO_COUNT>
0

> <PUBCHEM_BOND_DEF_STEREO_COUNT>
0

> <PUBCHEM_BOND_UDEF_STEREO_COUNT>
0

> <PUBCHEM_ISOTOPIC_ATOM_COUNT>
0

> <PUBCHEM_COMPONENT_COUNT>
1

> <PUBCHEM_CACTVS_TAUTO_COUNT>
3

> <PUBCHEM_CONFORMER_ID>
0011CF7C00000002

> <PUBCHEM_MMFF94_ENERGY>
97.0828

> <PUBCHEM_FEATURE_SELFOVERLAP>
45.843

> <PUBCHEM_SHAPE_FINGERPRINT>
10366900 7 16950568727304197228
10693767 8 18268149765337022982
11135609 187 18189897706632762141
11578080 2 7924210387675948766
11725454 13 16443615904479180244
12107183 9 17618220607430366699
12236239 1 18341892969858207975
12553582 1 17703490169753951543
12730499 353 17894634772483869026
12788726 201 18060139813038518011
13009979 54 17912357637424987586
13583140 156 17681011594948108729
13899415 154 17988925617755343379
14528608 73 18260546740280405671
14767858 380 18339921644436324029
14931854 50 18341621459681086244
15342168 16 17750240377490416620
15375358 24 15936413316610610823
15842332 3 18198352753354626985
16752209 62 17774430582520694395
17834072 33 18409162216907004375
18681886 176 18343576335810411714
19319366 153 18337661014028232542
200 152 18410851049740158699
20612939 158 18259988171805497398
20645477 70 17968088673443576274
21033648 29 16153419567251048924
21033650 10 17558582182455451288
21709351 56 18261671459361418188
2255824 54 18261957354134126954
2297311 6 17418379090540943237
23522609 53 18128559174909359201
23557571 272 16917351398692194152
23559900 14 18339352054373740105
23598291 2 18196942075936517730
25147074 1 18269558251645440475
266924 1 18341333297260291121
3004659 81 18412255117092985231
312423 11 18270971132677196907
474 4 18187650232267205956
495365 180 15647039448371306984
6034566 193 17100053041276003180
621550 5 14908190767210247217
6327066 14 17679869494799425708
633830 44 18337124401377792094
67856867 119 18336255799997746392
9981440 41 17905041805456190056

> <PUBCHEM_SHAPE_MULTIPOLES>
432.01
11.74
2.75
1.53
5.91
0.34
-0.68
1.26
6.14
-2.83
-0.56
1.15
0.83
-3.2

> <PUBCHEM_SHAPE_SELFOVERLAP>
928.37

> <PUBCHEM_SHAPE_VOLUME>
246

> <PUBCHEM_COORDINATE_TYPE>
2
5
10

$$$$
