2688721
  -OEChem-01171809373D

 49 50  0     0  0  0  0  0  0999 V2000
   -3.9435    1.9658   -0.4719 S   0  0  0  0  0  0  0  0  0  0  0  0
   -2.6131    2.1875    0.4584 O   0  0  0  0  0  0  0  0  0  0  0  0
   -2.0146   -0.2926    1.5595 O   0  0  0  0  0  0  0  0  0  0  0  0
   -3.6074    2.2313   -1.8575 O   0  0  0  0  0  0  0  0  0  0  0  0
   -5.0635    2.6179    0.1808 O   0  0  0  0  0  0  0  0  0  0  0  0
    4.6413   -1.5673   -1.3232 O   0  0  0  0  0  0  0  0  0  0  0  0
    5.8155   -0.5870    0.4080 N   0  0  0  0  0  0  0  0  0  0  0  0
    3.5400    1.5022    2.1752 N   0  0  0  0  0  0  0  0  0  0  0  0
   -4.2515    0.2280   -0.3837 C   0  0  0  0  0  0  0  0  0  0  0  0
   -1.4156    1.5891    0.2064 C   0  0  0  0  0  0  0  0  0  0  0  0
   -1.1145    0.3448    0.7603 C   0  0  0  0  0  0  0  0  0  0  0  0
    1.0302    0.3928   -0.3191 C   0  0  0  0  0  0  0  0  0  0  0  0
   -3.6647   -0.6109   -1.3158 C   0  0  0  0  0  0  0  0  0  0  0  0
   -5.0737   -0.2633    0.6158 C   0  0  0  0  0  0  0  0  0  0  0  0
   -4.7338   -2.4948   -0.2458 C   0  0  0  0  0  0  0  0  0  0  0  0
    0.1159   -0.2569    0.4958 C   0  0  0  0  0  0  0  0  0  0  0  0
   -0.4864    2.2315   -0.6119 C   0  0  0  0  0  0  0  0  0  0  0  0
   -3.9077   -1.9827   -1.2463 C   0  0  0  0  0  0  0  0  0  0  0  0
   -5.3165   -1.6351    0.6854 C   0  0  0  0  0  0  0  0  0  0  0  0
    0.7440    1.6299   -0.8762 C   0  0  0  0  0  0  0  0  0  0  0  0
    2.3280   -0.2417   -0.5978 C   0  0  0  0  0  0  0  0  0  0  0  0
   -4.9936   -3.9614   -0.1714 C   0  0  0  0  0  0  0  0  0  0  0  0
    3.4554   -0.0680    0.1195 C   0  0  0  0  0  0  0  0  0  0  0  0
    4.6774   -0.8167   -0.3493 C   0  0  0  0  0  0  0  0  0  0  0  0
   -1.6298   -1.5610    2.0862 C   0  0  0  0  0  0  0  0  0  0  0  0
    7.0842   -1.2179    0.1186 C   0  0  0  0  0  0  0  0  0  0  0  0
    3.4998    0.7984    1.2533 C   0  0  0  0  0  0  0  0  0  0  0  0
    7.8555   -0.3531   -0.8221 C   0  0  0  0  0  0  0  0  0  0  0  0
    9.0425    0.1912   -0.5313 C   0  0  0  0  0  0  0  0  0  0  0  0
   -3.0129   -0.2354   -2.0986 H   0  0  0  0  0  0  0  0  0  0  0  0
   -5.5296    0.3874    1.3555 H   0  0  0  0  0  0  0  0  0  0  0  0
    0.4048   -1.2229    0.8967 H   0  0  0  0  0  0  0  0  0  0  0  0
   -0.7140    3.2014   -1.0456 H   0  0  0  0  0  0  0  0  0  0  0  0
   -3.4472   -2.6423   -1.9769 H   0  0  0  0  0  0  0  0  0  0  0  0
   -5.9609   -2.0223    1.4702 H   0  0  0  0  0  0  0  0  0  0  0  0
    1.4591    2.1407   -1.5156 H   0  0  0  0  0  0  0  0  0  0  0  0
    2.3047   -0.8981   -1.4649 H   0  0  0  0  0  0  0  0  0  0  0  0
   -5.8748   -4.2176   -0.7678 H   0  0  0  0  0  0  0  0  0  0  0  0
   -5.1642   -4.2804    0.8625 H   0  0  0  0  0  0  0  0  0  0  0  0
   -4.1378   -4.5336   -0.5455 H   0  0  0  0  0  0  0  0  0  0  0  0
   -2.4633   -1.9217    2.6978 H   0  0  0  0  0  0  0  0  0  0  0  0
   -0.7626   -1.4765    2.7498 H   0  0  0  0  0  0  0  0  0  0  0  0
   -1.4775   -2.2989    1.2913 H   0  0  0  0  0  0  0  0  0  0  0  0
    5.7934    0.0532    1.1951 H   0  0  0  0  0  0  0  0  0  0  0  0
    6.9154   -2.2012   -0.3320 H   0  0  0  0  0  0  0  0  0  0  0  0
    7.6045   -1.3595    1.0714 H   0  0  0  0  0  0  0  0  0  0  0  0
    7.4304   -0.1721   -1.8063 H   0  0  0  0  0  0  0  0  0  0  0  0
    9.5170    0.0371    0.4314 H   0  0  0  0  0  0  0  0  0  0  0  0
    9.5588    0.8049   -1.2613 H   0  0  0  0  0  0  0  0  0  0  0  0
  1  2  1  0  0  0  0
  1  4  2  0  0  0  0
  1  5  2  0  0  0  0
  1  9  1  0  0  0  0
  2 10  1  0  0  0  0
  3 11  1  0  0  0  0
  3 25  1  0  0  0  0
  6 24  2  0  0  0  0
  7 24  1  0  0  0  0
  7 26  1  0  0  0  0
  7 44  1  0  0  0  0
  8 27  3  0  0  0  0
  9 13  2  0  0  0  0
  9 14  1  0  0  0  0
 10 11  2  0  0  0  0
 10 17  1  0  0  0  0
 11 16  1  0  0  0  0
 12 16  2  0  0  0  0
 12 20  1  0  0  0  0
 12 21  1  0  0  0  0
 13 18  1  0  0  0  0
 13 30  1  0  0  0  0
 14 19  2  0  0  0  0
 14 31  1  0  0  0  0
 15 18  2  0  0  0  0
 15 19  1  0  0  0  0
 15 22  1  0  0  0  0
 16 32  1  0  0  0  0
 17 20  2  0  0  0  0
 17 33  1  0  0  0  0
 18 34  1  0  0  0  0
 19 35  1  0  0  0  0
 20 36  1  0  0  0  0
 21 23  2  0  0  0  0
 21 37  1  0  0  0  0
 22 38  1  0  0  0  0
 22 39  1  0  0  0  0
 22 40  1  0  0  0  0
 23 24  1  0  0  0  0
 23 27  1  0  0  0  0
 25 41  1  0  0  0  0
 25 42  1  0  0  0  0
 25 43  1  0  0  0  0
 26 28  1  0  0  0  0
 26 45  1  0  0  0  0
 26 46  1  0  0  0  0
 28 29  2  0  0  0  0
 28 47  1  0  0  0  0
 29 48  1  0  0  0  0
 29 49  1  0  0  0  0
M  END
> <PUBCHEM_COMPOUND_CID>
2688721

> <PUBCHEM_CONFORMER_RMSD>
1

> <PUBCHEM_CONFORMER_DIVERSEORDER>
41
58
7
4
54
34
70
49
74
43
48
68
31
56
65
55
72
25
71
60
59
42
27
6
23
33
10
36
57
30
20
32
9
61
69
16
50
8
53
26
67
66
45
17
37
22
46
62
19
14
38
24
44
2
39
47
1
21
28
12
64
35
52
11
40
3
18
73
29
13
63
51
15
5

> <PUBCHEM_MMFF94_PARTIAL_CHARGES>
41
1 1.49
10 0.08
11 0.08
12 0.03
13 -0.15
14 -0.15
15 -0.14
16 -0.15
17 -0.15
18 -0.15
19 -0.15
2 -0.27
20 -0.15
21 -0.18
22 0.14
23 0.08
24 0.62
25 0.28
26 0.44
27 0.49
28 -0.29
29 -0.3
3 -0.36
30 0.15
31 0.15
32 0.15
33 0.15
34 0.15
35 0.15
36 0.15
37 0.15
4 -0.65
44 0.37
47 0.15
48 0.15
49 0.15
5 -0.65
6 -0.57
7 -0.73
8 -0.56
9 -0.01

> <PUBCHEM_EFFECTIVE_ROTOR_COUNT>
9

> <PUBCHEM_PHARMACOPHORE_FEATURES>
9
1 29 hydrophobe
1 3 acceptor
1 4 acceptor
1 5 acceptor
1 6 acceptor
1 7 donor
1 8 acceptor
6 10 11 12 16 17 20 rings
6 9 13 14 15 18 19 rings

> <PUBCHEM_HEAVY_ATOM_COUNT>
29

> <PUBCHEM_ATOM_DEF_STEREO_COUNT>
0

> <PUBCHEM_ATOM_UDEF_STEREO_COUNT>
0

> <PUBCHEM_BOND_DEF_STEREO_COUNT>
1

> <PUBCHEM_BOND_UDEF_STEREO_COUNT>
0

> <PUBCHEM_ISOTOPIC_ATOM_COUNT>
0

> <PUBCHEM_COMPONENT_COUNT>
1

> <PUBCHEM_CACTVS_TAUTO_COUNT>
2

> <PUBCHEM_CONFORMER_ID>
002906D100000029

> <PUBCHEM_MMFF94_ENERGY>
73.951

> <PUBCHEM_FEATURE_SELFOVERLAP>
45.689

> <PUBCHEM_SHAPE_FINGERPRINT>
11315181 36 18334860506424868444
11545043 162 18271801324180616616
117089 54 18046913963762932883
12236239 1 16371010659884091072
12633257 1 15195286477653932391
13583140 156 17560793308132271429
13782708 43 18342735213768133370
13947920 75 17821728338758550856
14950920 106 16558466504208480707
15183329 4 15574433215722917634
15461852 350 18408893936803050350
17349148 13 17894346687589114345
17492 89 18266738176614719829
17780758 139 17846786200192037323
18393751 57 16832046107285774009
18608769 82 18342739633110223646
18927931 339 18342172271971792135
21150785 3 17313105267840372550
21756936 100 8142091931334048179
23402539 116 18187083923153558477
23559900 14 18272080570280622048
2838139 119 11025802019994897962
335352 9 18335697231496620653
397830 11 18059562646743360144
4015057 19 17531258304481745812
4073 2 18343299241320235992
4625314 4 18411420567141817636
54039377 194 18188216502447092715
999808 66 17775006778411836910

> <PUBCHEM_SHAPE_MULTIPOLES>
561.35
19.13
2.98
1.46
41.37
0.78
-0.4
8.37
3.39
-6.27
0.45
-0.16
-0.03
0.85

> <PUBCHEM_SHAPE_SELFOVERLAP>
1174.188

> <PUBCHEM_SHAPE_VOLUME>
317

> <PUBCHEM_COORDINATE_TYPE>
2
5
10

$$$$
