2259539
  -OEChem-01171809563D

 54 55  0     0  0  0  0  0  0999 V2000
   -6.3707    2.7925    0.8611 O   0  0  0  0  0  0  0  0  0  0  0  0
   -1.1148   -2.7804    1.0960 O   0  0  0  0  0  0  0  0  0  0  0  0
   -5.4690    0.3953   -0.3806 N   0  0  0  0  0  0  0  0  0  0  0  0
   -1.9046   -2.0223   -0.9560 N   0  0  0  0  0  0  0  0  0  0  0  0
   -4.4457   -0.4232   -1.0276 C   0  0  0  0  0  0  0  0  0  0  0  0
   -5.7342    1.6121   -1.1608 C   0  0  0  0  0  0  0  0  0  0  0  0
   -5.0646    0.7519    0.9864 C   0  0  0  0  0  0  0  0  0  0  0  0
    6.3427    1.2098   -0.2002 C   0  0  0  0  0  0  0  0  0  0  0  0
   -4.2521   -1.7321   -0.2602 C   0  0  0  0  0  0  0  0  0  0  0  0
   -6.7953    2.4558   -0.4602 C   0  0  0  0  0  0  0  0  0  0  0  0
   -6.1422    1.6150    1.6362 C   0  0  0  0  0  0  0  0  0  0  0  0
    5.0371    0.5206    0.0104 C   0  0  0  0  0  0  0  0  0  0  0  0
   -3.2041   -2.6342   -0.9055 C   0  0  0  0  0  0  0  0  0  0  0  0
    6.8134    1.0896   -1.6830 C   0  0  0  0  0  0  0  0  0  0  0  0
    7.5335    0.6695    0.6593 C   0  0  0  0  0  0  0  0  0  0  0  0
    6.2416    2.7292    0.1394 C   0  0  0  0  0  0  0  0  0  0  0  0
    3.9116    0.9247   -0.7077 C   0  0  0  0  0  0  0  0  0  0  0  0
    4.9410   -0.5273    0.9259 C   0  0  0  0  0  0  0  0  0  0  0  0
    2.6107   -0.7582    0.4025 C   0  0  0  0  0  0  0  0  0  0  0  0
    2.6899    0.2809   -0.5103 C   0  0  0  0  0  0  0  0  0  0  0  0
    3.7194   -1.1712    1.1233 C   0  0  0  0  0  0  0  0  0  0  0  0
   -0.9613   -2.1474    0.0565 C   0  0  0  0  0  0  0  0  0  0  0  0
    1.3202   -1.4383    0.6110 C   0  0  0  0  0  0  0  0  0  0  0  0
    0.2974   -1.4123   -0.2561 C   0  0  0  0  0  0  0  0  0  0  0  0
   -4.7610   -0.6648   -2.0504 H   0  0  0  0  0  0  0  0  0  0  0  0
   -3.4987    0.1264   -1.1008 H   0  0  0  0  0  0  0  0  0  0  0  0
   -4.8145    2.2014   -1.2709 H   0  0  0  0  0  0  0  0  0  0  0  0
   -6.0928    1.3514   -2.1631 H   0  0  0  0  0  0  0  0  0  0  0  0
   -4.9573   -0.1218    1.6335 H   0  0  0  0  0  0  0  0  0  0  0  0
   -4.1124    1.2979    0.9764 H   0  0  0  0  0  0  0  0  0  0  0  0
   -3.9129   -1.5585    0.7652 H   0  0  0  0  0  0  0  0  0  0  0  0
   -5.2030   -2.2762   -0.2043 H   0  0  0  0  0  0  0  0  0  0  0  0
   -7.7599    1.9358   -0.4134 H   0  0  0  0  0  0  0  0  0  0  0  0
   -6.9497    3.3908   -1.0083 H   0  0  0  0  0  0  0  0  0  0  0  0
   -5.8165    1.9319    2.6323 H   0  0  0  0  0  0  0  0  0  0  0  0
   -7.0848    1.0664    1.7547 H   0  0  0  0  0  0  0  0  0  0  0  0
   -3.1343   -3.5741   -0.3468 H   0  0  0  0  0  0  0  0  0  0  0  0
   -3.4912   -2.8775   -1.9341 H   0  0  0  0  0  0  0  0  0  0  0  0
    6.1090    1.5631   -2.3756 H   0  0  0  0  0  0  0  0  0  0  0  0
    7.7867    1.5711   -1.8327 H   0  0  0  0  0  0  0  0  0  0  0  0
    6.9095    0.0377   -1.9767 H   0  0  0  0  0  0  0  0  0  0  0  0
    8.4560    1.2243    0.4489 H   0  0  0  0  0  0  0  0  0  0  0  0
    7.3346    0.7746    1.7323 H   0  0  0  0  0  0  0  0  0  0  0  0
    7.7384   -0.3856    0.4436 H   0  0  0  0  0  0  0  0  0  0  0  0
    7.2078    3.2313    0.0127 H   0  0  0  0  0  0  0  0  0  0  0  0
    5.5223    3.2458   -0.5054 H   0  0  0  0  0  0  0  0  0  0  0  0
    5.9198    2.8754    1.1773 H   0  0  0  0  0  0  0  0  0  0  0  0
    3.9575    1.7409   -1.4230 H   0  0  0  0  0  0  0  0  0  0  0  0
    5.7833   -0.8817    1.5098 H   0  0  0  0  0  0  0  0  0  0  0  0
   -1.6833   -1.4722   -1.7811 H   0  0  0  0  0  0  0  0  0  0  0  0
    1.8366    0.6436   -1.0743 H   0  0  0  0  0  0  0  0  0  0  0  0
    3.6601   -1.9871    1.8389 H   0  0  0  0  0  0  0  0  0  0  0  0
    1.2355   -1.9968    1.5404 H   0  0  0  0  0  0  0  0  0  0  0  0
    0.3416   -0.8939   -1.2068 H   0  0  0  0  0  0  0  0  0  0  0  0
  1 10  1  0  0  0  0
  1 11  1  0  0  0  0
  2 22  2  0  0  0  0
  3  5  1  0  0  0  0
  3  6  1  0  0  0  0
  3  7  1  0  0  0  0
  4 13  1  0  0  0  0
  4 22  1  0  0  0  0
  4 50  1  0  0  0  0
  5  9  1  0  0  0  0
  5 25  1  0  0  0  0
  5 26  1  0  0  0  0
  6 10  1  0  0  0  0
  6 27  1  0  0  0  0
  6 28  1  0  0  0  0
  7 11  1  0  0  0  0
  7 29  1  0  0  0  0
  7 30  1  0  0  0  0
  8 12  1  0  0  0  0
  8 14  1  0  0  0  0
  8 15  1  0  0  0  0
  8 16  1  0  0  0  0
  9 13  1  0  0  0  0
  9 31  1  0  0  0  0
  9 32  1  0  0  0  0
 10 33  1  0  0  0  0
 10 34  1  0  0  0  0
 11 35  1  0  0  0  0
 11 36  1  0  0  0  0
 12 17  2  0  0  0  0
 12 18  1  0  0  0  0
 13 37  1  0  0  0  0
 13 38  1  0  0  0  0
 14 39  1  0  0  0  0
 14 40  1  0  0  0  0
 14 41  1  0  0  0  0
 15 42  1  0  0  0  0
 15 43  1  0  0  0  0
 15 44  1  0  0  0  0
 16 45  1  0  0  0  0
 16 46  1  0  0  0  0
 16 47  1  0  0  0  0
 17 20  1  0  0  0  0
 17 48  1  0  0  0  0
 18 21  2  0  0  0  0
 18 49  1  0  0  0  0
 19 20  2  0  0  0  0
 19 21  1  0  0  0  0
 19 23  1  0  0  0  0
 20 51  1  0  0  0  0
 21 52  1  0  0  0  0
 22 24  1  0  0  0  0
 23 24  2  0  0  0  0
 23 53  1  0  0  0  0
 24 54  1  0  0  0  0
M  END
> <PUBCHEM_COMPOUND_CID>
2259539

> <PUBCHEM_CONFORMER_RMSD>
1

> <PUBCHEM_CONFORMER_DIVERSEORDER>
1
25
13
3
24
2
20
10
5
22
6
9
12
14
19
21
4
15
16
7
11
17
23
18
8

> <PUBCHEM_MMFF94_PARTIAL_CHARGES>
27
1 -0.56
10 0.28
11 0.28
12 -0.14
13 0.3
17 -0.15
18 -0.15
19 0.03
2 -0.57
20 -0.15
21 -0.15
22 0.62
23 -0.18
24 -0.14
3 -0.81
4 -0.73
48 0.15
49 0.15
5 0.27
50 0.37
51 0.15
52 0.15
53 0.15
54 0.15
6 0.27
7 0.27
8 0.14

> <PUBCHEM_EFFECTIVE_ROTOR_COUNT>
9.2

> <PUBCHEM_PHARMACOPHORE_FEATURES>
7
1 1 acceptor
1 2 acceptor
1 3 cation
1 4 donor
4 8 14 15 16 hydrophobe
6 1 3 6 7 10 11 rings
6 12 17 18 19 20 21 rings

> <PUBCHEM_HEAVY_ATOM_COUNT>
24

> <PUBCHEM_ATOM_DEF_STEREO_COUNT>
0

> <PUBCHEM_ATOM_UDEF_STEREO_COUNT>
0

> <PUBCHEM_BOND_DEF_STEREO_COUNT>
1

> <PUBCHEM_BOND_UDEF_STEREO_COUNT>
0

> <PUBCHEM_ISOTOPIC_ATOM_COUNT>
0

> <PUBCHEM_COMPONENT_COUNT>
1

> <PUBCHEM_CACTVS_TAUTO_COUNT>
2

> <PUBCHEM_CONFORMER_ID>
00227A5300000001

> <PUBCHEM_MMFF94_ENERGY>
58.0168

> <PUBCHEM_FEATURE_SELFOVERLAP>
35.52

> <PUBCHEM_SHAPE_FINGERPRINT>
10 15 18186525389238673507
10454371 7 18130785694376072605
105312 117 17704070711856793207
10554248 39 18199173019125861398
10906281 52 17968384537088229798
10930396 42 16443347547514669269
11475781 23 18131356315204446540
11761917 87 15864893341716342064
12390115 104 18411703192811437495
13073987 5 18187924027315618002
13167372 99 18335415799131835922
13690498 29 17416114225711772023
13885169 86 18335706052758312949
14150022 121 18115601477726128883
14211702 104 8574441953674553960
14344974 204 11169908385807645224
15183329 4 18336256925089390798
15338160 23 18261117413471826459
15519825 34 15864649361667105065
155225 6 17983019951951481953
1577012 14 18410006632904355495
15778101 99 18410855477688307039
15803439 3 16200143271403635887
1768 23 17604164708642472844
17780758 139 12901541326667531727
17913733 40 16009020674904779690
20281389 69 18334290980902773671
20621476 66 18410012134709670607
21315759 148 13840533039537387066
21424621 283 18335420187971572178
21774942 28 18202565077665532920
23081809 10 18335689572879406634
23389318 12 11671774993134294338
23522609 53 17676781975890143436
270888 7 18340204077981934533
2748736 6 18341043030759987929
2838139 119 18342736364001405094
312425 54 14418409932937302633
328310 18 17775573052632995899
397830 11 12396584082965825134
44555599 121 18335138752150785460
445580 204 18343302565345478256
4487111 67 17984422928308632401
44880568 143 15051726474299017675
5104073 3 17676477398063379570
5470011 282 12535330325608458097
5718773 13 9079110060130199965
5937810 71 18270693090060461184
59682541 52 16702025219141338334
6327066 14 18340482271608860741
6328613 192 18411416245682141400
636775 72 18194677297096369072
7226269 152 18272654549847053505

> <PUBCHEM_SHAPE_MULTIPOLES>
472.21
23.41
3.17
1.31
0.49
0.02
0.02
21.1
-0.02
-4.18
0.11
-0.47
0.18
-1.98

> <PUBCHEM_SHAPE_SELFOVERLAP>
962.261

> <PUBCHEM_SHAPE_VOLUME>
274.7

> <PUBCHEM_COORDINATE_TYPE>
2
5
10

$$$$
