3265869
  -OEChem-01171810063D

 65 69  0     0  0  0  0  0  0999 V2000
    4.2459    3.1615    0.0917 O   0  0  0  0  0  0  0  0  0  0  0  0
   -0.0394   -2.1844   -1.8249 O   0  0  0  0  0  0  0  0  0  0  0  0
   -0.9560    3.3103   -1.9167 O   0  0  0  0  0  0  0  0  0  0  0  0
   -4.0437   -2.1004   -0.2771 O   0  0  0  0  0  0  0  0  0  0  0  0
   -6.2013   -2.0096    1.4732 O   0  0  0  0  0  0  0  0  0  0  0  0
    2.1628    1.1746    0.7345 N   0  0  0  0  0  0  0  0  0  0  0  0
    1.9306   -2.7540   -0.7182 N   0  0  0  0  0  0  0  0  0  0  0  0
    3.0472   -1.0995    0.5615 N   0  0  0  0  0  0  0  0  0  0  0  0
   -2.1157    2.6338   -0.0109 N   0  0  0  0  0  0  0  0  0  0  0  0
    1.1921    3.3813    0.8101 N   0  0  0  0  0  0  0  0  0  0  0  0
    2.0824   -0.1630    0.2385 C   0  0  0  0  0  0  0  0  0  0  0  0
    1.0347   -0.4934   -0.5593 C   0  0  0  0  0  0  0  0  0  0  0  0
    0.0396    1.7466   -0.4734 C   0  0  0  0  0  0  0  0  0  0  0  0
    1.1870    2.1392    0.4058 C   0  0  0  0  0  0  0  0  0  0  0  0
    3.2828    1.5623    1.6047 C   0  0  0  0  0  0  0  0  0  0  0  0
    2.9647   -2.3108    0.1070 C   0  0  0  0  0  0  0  0  0  0  0  0
    0.0120    0.4805   -0.9073 C   0  0  0  0  0  0  0  0  0  0  0  0
    0.9101   -1.8841   -1.1013 C   0  0  0  0  0  0  0  0  0  0  0  0
    4.0300   -3.3119    0.4747 C   0  0  0  0  0  0  0  0  0  0  0  0
   -1.0441    2.6415   -0.8870 C   0  0  0  0  0  0  0  0  0  0  0  0
    4.4835    2.0902    0.8665 C   0  0  0  0  0  0  0  0  0  0  0  0
   -3.3013    3.4372   -0.2057 C   0  0  0  0  0  0  0  0  0  0  0  0
    1.8976   -4.0665   -1.1730 C   0  0  0  0  0  0  0  0  0  0  0  0
   -4.3730    2.7132   -1.0169 C   0  0  0  0  0  0  0  0  0  0  0  0
    3.9315   -4.5615   -0.0017 C   0  0  0  0  0  0  0  0  0  0  0  0
    2.8408   -4.9550   -0.8468 C   0  0  0  0  0  0  0  0  0  0  0  0
   -4.8594    1.4484   -0.3531 C   0  0  0  0  0  0  0  0  0  0  0  0
    5.1528   -2.8627    1.3572 C   0  0  0  0  0  0  0  0  0  0  0  0
    5.7731    1.6881    0.8320 C   0  0  0  0  0  0  0  0  0  0  0  0
   -4.2207    0.2486   -0.6252 C   0  0  0  0  0  0  0  0  0  0  0  0
   -5.9365    1.5087    0.5174 C   0  0  0  0  0  0  0  0  0  0  0  0
    6.4154    2.5906   -0.0488 C   0  0  0  0  0  0  0  0  0  0  0  0
   -4.6702   -0.9204   -0.0110 C   0  0  0  0  0  0  0  0  0  0  0  0
    5.4439    3.4674   -0.4724 C   0  0  0  0  0  0  0  0  0  0  0  0
   -6.3862    0.3396    1.1312 C   0  0  0  0  0  0  0  0  0  0  0  0
   -5.7530   -0.8749    0.8671 C   0  0  0  0  0  0  0  0  0  0  0  0
   -2.9504   -2.4582    0.5662 C   0  0  0  0  0  0  0  0  0  0  0  0
   -7.2097   -2.7532    0.7917 C   0  0  0  0  0  0  0  0  0  0  0  0
    3.5891    0.7166    2.2340 H   0  0  0  0  0  0  0  0  0  0  0  0
    2.9577    2.3282    2.3210 H   0  0  0  0  0  0  0  0  0  0  0  0
   -0.8000    0.1502   -1.5493 H   0  0  0  0  0  0  0  0  0  0  0  0
   -3.0201    4.3654   -0.7152 H   0  0  0  0  0  0  0  0  0  0  0  0
   -3.6774    3.6991    0.7894 H   0  0  0  0  0  0  0  0  0  0  0  0
    1.0703   -4.3566   -1.8114 H   0  0  0  0  0  0  0  0  0  0  0  0
   -3.9887    2.4724   -2.0168 H   0  0  0  0  0  0  0  0  0  0  0  0
   -5.2221    3.3889   -1.1810 H   0  0  0  0  0  0  0  0  0  0  0  0
   -2.0815    2.0386    0.8122 H   0  0  0  0  0  0  0  0  0  0  0  0
    4.6741   -5.3162    0.2355 H   0  0  0  0  0  0  0  0  0  0  0  0
    2.8026   -5.9759   -1.2084 H   0  0  0  0  0  0  0  0  0  0  0  0
    5.7074   -2.0447    0.8860 H   0  0  0  0  0  0  0  0  0  0  0  0
    4.7677   -2.5146    2.3212 H   0  0  0  0  0  0  0  0  0  0  0  0
    5.8633   -3.6718    1.5574 H   0  0  0  0  0  0  0  0  0  0  0  0
    6.2164    0.8571    1.3611 H   0  0  0  0  0  0  0  0  0  0  0  0
    0.3944    3.9172    0.4602 H   0  0  0  0  0  0  0  0  0  0  0  0
   -3.3813    0.2073   -1.3136 H   0  0  0  0  0  0  0  0  0  0  0  0
   -6.4344    2.4501    0.7313 H   0  0  0  0  0  0  0  0  0  0  0  0
    7.4560    2.6006   -0.3392 H   0  0  0  0  0  0  0  0  0  0  0  0
    5.4430    4.3178   -1.1386 H   0  0  0  0  0  0  0  0  0  0  0  0
   -7.2294    0.3828    1.8153 H   0  0  0  0  0  0  0  0  0  0  0  0
   -2.5280   -3.3979    0.1999 H   0  0  0  0  0  0  0  0  0  0  0  0
   -2.1717   -1.6896    0.5354 H   0  0  0  0  0  0  0  0  0  0  0  0
   -3.2925   -2.6050    1.5954 H   0  0  0  0  0  0  0  0  0  0  0  0
   -8.1138   -2.1487    0.6675 H   0  0  0  0  0  0  0  0  0  0  0  0
   -7.4556   -3.6305    1.3962 H   0  0  0  0  0  0  0  0  0  0  0  0
   -6.8463   -3.0911   -0.1840 H   0  0  0  0  0  0  0  0  0  0  0  0
  1 21  1  0  0  0  0
  1 34  1  0  0  0  0
  2 18  2  0  0  0  0
  3 20  2  0  0  0  0
  4 33  1  0  0  0  0
  4 37  1  0  0  0  0
  5 36  1  0  0  0  0
  5 38  1  0  0  0  0
  6 11  1  0  0  0  0
  6 14  1  0  0  0  0
  6 15  1  0  0  0  0
  7 16  1  0  0  0  0
  7 18  1  0  0  0  0
  7 23  1  0  0  0  0
  8 11  1  0  0  0  0
  8 16  2  0  0  0  0
  9 20  1  0  0  0  0
  9 22  1  0  0  0  0
  9 47  1  0  0  0  0
 10 14  2  0  0  0  0
 10 54  1  0  0  0  0
 11 12  2  0  0  0  0
 12 17  1  0  0  0  0
 12 18  1  0  0  0  0
 13 14  1  0  0  0  0
 13 17  2  0  0  0  0
 13 20  1  0  0  0  0
 15 21  1  0  0  0  0
 15 39  1  0  0  0  0
 15 40  1  0  0  0  0
 16 19  1  0  0  0  0
 17 41  1  0  0  0  0
 19 25  2  0  0  0  0
 19 28  1  0  0  0  0
 21 29  2  0  0  0  0
 22 24  1  0  0  0  0
 22 42  1  0  0  0  0
 22 43  1  0  0  0  0
 23 26  2  0  0  0  0
 23 44  1  0  0  0  0
 24 27  1  0  0  0  0
 24 45  1  0  0  0  0
 24 46  1  0  0  0  0
 25 26  1  0  0  0  0
 25 48  1  0  0  0  0
 26 49  1  0  0  0  0
 27 30  2  0  0  0  0
 27 31  1  0  0  0  0
 28 50  1  0  0  0  0
 28 51  1  0  0  0  0
 28 52  1  0  0  0  0
 29 32  1  0  0  0  0
 29 53  1  0  0  0  0
 30 33  1  0  0  0  0
 30 55  1  0  0  0  0
 31 35  2  0  0  0  0
 31 56  1  0  0  0  0
 32 34  2  0  0  0  0
 32 57  1  0  0  0  0
 33 36  2  0  0  0  0
 34 58  1  0  0  0  0
 35 36  1  0  0  0  0
 35 59  1  0  0  0  0
 37 60  1  0  0  0  0
 37 61  1  0  0  0  0
 37 62  1  0  0  0  0
 38 63  1  0  0  0  0
 38 64  1  0  0  0  0
 38 65  1  0  0  0  0
M  END
> <PUBCHEM_COMPOUND_CID>
3265869

> <PUBCHEM_CONFORMER_RMSD>
1

> <PUBCHEM_CONFORMER_DIVERSEORDER>
1
48
384
299
91
230
73
159
379
300
351
206
36
311
191
194
176
150
142
240
66
178
369
45
38
86
113
183
364
233
366
201
326
371
227
20
336
6
154
210
257
322
182
47
389
44
228
57
96
365
367
133
147
305
95
378
342
360
89
306
10
372
186
243
53
363
288
56
317
281
223
284
155
106
293
193
383
163
5
83
269
162
190
109
319
102
388
104
340
28
375
58
368
52
279
129
370
111
286
31
13
387
329
25
175
349
321
270
140
134
157
98
16
161
250
289
112
35
164
170
77
219
310
33
21
320
158
180
192
125
262
249
135
126
141
291
302
274
316
390
253
213
231
313
276
343
23
39
238
202
215
354
246
172
275
235
272
236
386
287
339
255
19
348
181
244
353
55
266
114
301
294
199
144
127
345
169
377
26
12
361
332
171
189
395
139
196
7
76
99
307
290
128
203
14
22
123
167
327
71
224
27
256
303
153
323
247
362
229
259
120
222
207
393
374
382
328
394
69
151
211
107
373
356
220
32
64
34
152
225
271
50
330
232
130
61
205
40
60
278
315
381
122
97
43
304
148
333
352
51
346
179
251
226
41
68
17
312
314
81
9
237
350
392
385
212
187
221
241
49
46
177
54
105
376
391
184
265
355
173
132
283
100
110
208
11
165
166
347
297
124
324
331
15
298
174
245
160
79
118
242
197
8
121
252
24
357
92
188
380
268
234
216
185
168
80
78
67
18
273
136
214
156
309
94
295
217
137
119
29
101
248
93
296
335
200
2
63
254
108
75
292
85
74
280
282
308
338
116
145
337
37
277
117
218
318
4
285
267
42
359
59
70
260
239
263
146
65
204
3
131
325
261
115
30
341
195
198
149
72
82
264
103
258
87
138
143
84
334
209
62
90
88
344
358

> <PUBCHEM_MMFF94_PARTIAL_CHARGES>
50
1 -0.28
10 -0.85
11 0.27
12 0.01
13 0.03
14 0.49
15 0.55
16 0.5
17 -0.15
18 0.62
19 -0.12
2 -0.57
20 0.62
21 -0.04
22 0.3
23 -0.04
24 0.14
25 -0.15
26 -0.15
27 -0.14
28 0.14
29 -0.15
3 -0.57
30 -0.15
31 -0.15
32 -0.15
33 0.08
34 -0.01
35 -0.15
36 0.08
37 0.28
38 0.28
4 -0.36
41 0.15
44 0.15
47 0.37
48 0.15
49 0.15
5 -0.36
53 0.15
54 0.4
55 0.15
56 0.15
57 0.15
58 0.15
59 0.15
6 -0.52
7 -0.23
8 -0.62
9 -0.73

> <PUBCHEM_EFFECTIVE_ROTOR_COUNT>
9

> <PUBCHEM_PHARMACOPHORE_FEATURES>
13
1 1 acceptor
1 10 donor
1 2 acceptor
1 3 acceptor
1 4 acceptor
1 5 acceptor
1 9 donor
3 6 10 14 cation
5 1 21 29 32 34 rings
6 27 30 31 33 35 36 rings
6 6 11 12 13 14 17 rings
6 7 16 19 23 25 26 rings
6 7 8 11 12 16 18 rings

> <PUBCHEM_HEAVY_ATOM_COUNT>
38

> <PUBCHEM_ATOM_DEF_STEREO_COUNT>
0

> <PUBCHEM_ATOM_UDEF_STEREO_COUNT>
0

> <PUBCHEM_BOND_DEF_STEREO_COUNT>
0

> <PUBCHEM_BOND_UDEF_STEREO_COUNT>
0

> <PUBCHEM_ISOTOPIC_ATOM_COUNT>
0

> <PUBCHEM_COMPONENT_COUNT>
1

> <PUBCHEM_CACTVS_TAUTO_COUNT>
2

> <PUBCHEM_CONFORMER_ID>
0031D54D00000001

> <PUBCHEM_MMFF94_ENERGY>
121.1592

> <PUBCHEM_FEATURE_SELFOVERLAP>
66.035

> <PUBCHEM_SHAPE_FINGERPRINT>
10010297 198 18342733013980136750
10169797 241 18340504278082990022
10190108 129 18338524156541196436
10258939 38 17967805067947088657
10838868 158 18115040678796838339
11135926 11 18411693322369670181
11136131 41 18336531760532361586
11488393 25 18339362951143827968
11763715 3 15503488220062533068
11963148 33 18334850662317751666
12202916 173 17970341727931005699
12522641 126 18334303037725092318
131258 43 17555470431769324678
13402501 40 17980476768217138767
13757389 114 17763190533095885588
14028597 1 17704077283156736656
14790565 3 18122903389911192972
15001296 14 18261387781383223419
15420108 30 18059570364241168998
15927050 60 18271240651177638630
16112460 7 18270128907350875089
19315958 150 18410578349888893585
19611394 137 18121779431403980042
21033648 29 17770496744411721936
21133410 52 17620471745908876335
21781051 124 18408890655353129368
23559900 14 18121491354434384989
3178227 256 18268995456564790064
32027 91 18048311150803373429
3411729 13 18412829114003036958
4144715 1 18049720720410778360
4435113 14 18260835886474869787
4461854 278 18122359131460694067
484989 97 18340215103136798246
5047190 48 18410568530711959326
5104073 3 18340496590977026259
5265222 85 18122911090429430068
6371380 46 17689433785704045453
6376802 90 17969770900955322693
6703917 75 18269005348433810332

> <PUBCHEM_SHAPE_MULTIPOLES>
727.77
16.32
6.77
1.3
15.69
3.8
-0.08
0.31
5.99
-7.64
-1.16
0.11
0.14
2.15

> <PUBCHEM_SHAPE_SELFOVERLAP>
1592.036

> <PUBCHEM_SHAPE_VOLUME>
390.7

> <PUBCHEM_COORDINATE_TYPE>
2
5
10

$$$$
