262537
  -OEChem-01171810163D

 52 53  0     0  0  0  0  0  0999 V2000
   -6.0495    1.2324   -0.1253 O   0  0  0  0  0  0  0  0  0  0  0  0
   -3.7682    2.5302    0.7608 O   0  0  0  0  0  0  0  0  0  0  0  0
   -5.9435   -1.4690   -0.7272 O   0  0  0  0  0  0  0  0  0  0  0  0
    6.2385    0.9696   -0.1776 O   0  0  0  0  0  0  0  0  0  0  0  0
    6.0009   -1.7846   -0.3464 O   0  0  0  0  0  0  0  0  0  0  0  0
    3.9859    2.5147    0.2799 O   0  0  0  0  0  0  0  0  0  0  0  0
   -1.2671   -2.7824    0.7513 O   0  0  0  0  0  0  0  0  0  0  0  0
   -2.5124   -0.8474    0.2936 C   0  0  0  0  0  0  0  0  0  0  0  0
    2.5224   -0.8346    0.2525 C   0  0  0  0  0  0  0  0  0  0  0  0
   -4.8802    0.5451    0.0136 C   0  0  0  0  0  0  0  0  0  0  0  0
   -3.7332    1.2021    0.4593 C   0  0  0  0  0  0  0  0  0  0  0  0
   -4.8309   -0.8152   -0.2906 C   0  0  0  0  0  0  0  0  0  0  0  0
   -2.5370    0.4986    0.6007 C   0  0  0  0  0  0  0  0  0  0  0  0
   -3.6347   -1.5188   -0.1491 C   0  0  0  0  0  0  0  0  0  0  0  0
    5.0186    0.3772   -0.0362 C   0  0  0  0  0  0  0  0  0  0  0  0
    4.9028   -1.0101   -0.1218 C   0  0  0  0  0  0  0  0  0  0  0  0
    3.8863    1.1587    0.1939 C   0  0  0  0  0  0  0  0  0  0  0  0
    3.6547   -1.6161    0.0224 C   0  0  0  0  0  0  0  0  0  0  0  0
    2.6381    0.5527    0.3383 C   0  0  0  0  0  0  0  0  0  0  0  0
   -1.2411   -1.5953    0.4461 C   0  0  0  0  0  0  0  0  0  0  0  0
    1.2211   -1.4665    0.4033 C   0  0  0  0  0  0  0  0  0  0  0  0
    0.0304   -0.8452    0.2472 C   0  0  0  0  0  0  0  0  0  0  0  0
   -6.6269    1.2700   -1.4283 C   0  0  0  0  0  0  0  0  0  0  0  0
   -3.4790    3.4426   -0.2966 C   0  0  0  0  0  0  0  0  0  0  0  0
   -6.7796   -2.0597    0.2659 C   0  0  0  0  0  0  0  0  0  0  0  0
    7.0076    1.1577    1.0081 C   0  0  0  0  0  0  0  0  0  0  0  0
    6.3327   -2.0598   -1.7059 C   0  0  0  0  0  0  0  0  0  0  0  0
    3.8432    3.2531   -0.9319 C   0  0  0  0  0  0  0  0  0  0  0  0
   -1.6739    1.0312    0.9875 H   0  0  0  0  0  0  0  0  0  0  0  0
   -3.6027   -2.5772   -0.3931 H   0  0  0  0  0  0  0  0  0  0  0  0
    3.5764   -2.6991   -0.0469 H   0  0  0  0  0  0  0  0  0  0  0  0
    1.7837    1.1937    0.5383 H   0  0  0  0  0  0  0  0  0  0  0  0
    1.2439   -2.5173    0.6838 H   0  0  0  0  0  0  0  0  0  0  0  0
   -0.0234    0.1838   -0.0838 H   0  0  0  0  0  0  0  0  0  0  0  0
   -5.8761    1.1579   -2.2184 H   0  0  0  0  0  0  0  0  0  0  0  0
   -7.1099    2.2436   -1.5540 H   0  0  0  0  0  0  0  0  0  0  0  0
   -7.3952    0.4976   -1.5206 H   0  0  0  0  0  0  0  0  0  0  0  0
   -4.2000    3.3306   -1.1124 H   0  0  0  0  0  0  0  0  0  0  0  0
   -2.4620    3.2861   -0.6700 H   0  0  0  0  0  0  0  0  0  0  0  0
   -3.5537    4.4595    0.0984 H   0  0  0  0  0  0  0  0  0  0  0  0
   -6.2320   -2.8290    0.8194 H   0  0  0  0  0  0  0  0  0  0  0  0
   -7.6297   -2.5286   -0.2370 H   0  0  0  0  0  0  0  0  0  0  0  0
   -7.1576   -1.2980    0.9551 H   0  0  0  0  0  0  0  0  0  0  0  0
    7.9496    1.6394    0.7322 H   0  0  0  0  0  0  0  0  0  0  0  0
    6.4770    1.8057    1.7130 H   0  0  0  0  0  0  0  0  0  0  0  0
    7.2319    0.1952    1.4787 H   0  0  0  0  0  0  0  0  0  0  0  0
    6.5378   -1.1315   -2.2483 H   0  0  0  0  0  0  0  0  0  0  0  0
    5.5221   -2.6096   -2.1945 H   0  0  0  0  0  0  0  0  0  0  0  0
    7.2337   -2.6792   -1.7199 H   0  0  0  0  0  0  0  0  0  0  0  0
    3.9556    4.3158   -0.7008 H   0  0  0  0  0  0  0  0  0  0  0  0
    4.6175    2.9675   -1.6510 H   0  0  0  0  0  0  0  0  0  0  0  0
    2.8506    3.0918   -1.3644 H   0  0  0  0  0  0  0  0  0  0  0  0
  1 10  1  0  0  0  0
  1 23  1  0  0  0  0
  2 11  1  0  0  0  0
  2 24  1  0  0  0  0
  3 12  1  0  0  0  0
  3 25  1  0  0  0  0
  4 15  1  0  0  0  0
  4 26  1  0  0  0  0
  5 16  1  0  0  0  0
  5 27  1  0  0  0  0
  6 17  1  0  0  0  0
  6 28  1  0  0  0  0
  7 20  2  0  0  0  0
  8 13  2  0  0  0  0
  8 14  1  0  0  0  0
  8 20  1  0  0  0  0
  9 18  2  0  0  0  0
  9 19  1  0  0  0  0
  9 21  1  0  0  0  0
 10 11  2  0  0  0  0
 10 12  1  0  0  0  0
 11 13  1  0  0  0  0
 12 14  2  0  0  0  0
 13 29  1  0  0  0  0
 14 30  1  0  0  0  0
 15 16  2  0  0  0  0
 15 17  1  0  0  0  0
 16 18  1  0  0  0  0
 17 19  2  0  0  0  0
 18 31  1  0  0  0  0
 19 32  1  0  0  0  0
 20 22  1  0  0  0  0
 21 22  2  0  0  0  0
 21 33  1  0  0  0  0
 22 34  1  0  0  0  0
 23 35  1  0  0  0  0
 23 36  1  0  0  0  0
 23 37  1  0  0  0  0
 24 38  1  0  0  0  0
 24 39  1  0  0  0  0
 24 40  1  0  0  0  0
 25 41  1  0  0  0  0
 25 42  1  0  0  0  0
 25 43  1  0  0  0  0
 26 44  1  0  0  0  0
 26 45  1  0  0  0  0
 26 46  1  0  0  0  0
 27 47  1  0  0  0  0
 27 48  1  0  0  0  0
 27 49  1  0  0  0  0
 28 50  1  0  0  0  0
 28 51  1  0  0  0  0
 28 52  1  0  0  0  0
M  END
> <PUBCHEM_COMPOUND_CID>
262537

> <PUBCHEM_CONFORMER_RMSD>
1

> <PUBCHEM_CONFORMER_DIVERSEORDER>
12
28
26
18
15
37
6
23
29
33
19
25
16
17
13
35
22
5
36
8
20
27
14
9
21
30
34
11
7
24
32
31
2
10
1
4
3

> <PUBCHEM_MMFF94_PARTIAL_CHARGES>
34
1 -0.36
10 0.08
11 0.08
12 0.08
13 -0.15
14 -0.15
15 0.08
16 0.08
17 0.08
18 -0.15
19 -0.15
2 -0.36
20 0.47
21 -0.18
22 -0.14
23 0.28
24 0.28
25 0.28
26 0.28
27 0.28
28 0.28
29 0.15
3 -0.36
30 0.15
31 0.15
32 0.15
33 0.15
34 0.15
4 -0.36
5 -0.36
6 -0.36
7 -0.57
8 0.09
9 0.03

> <PUBCHEM_EFFECTIVE_ROTOR_COUNT>
9

> <PUBCHEM_PHARMACOPHORE_FEATURES>
9
1 1 acceptor
1 2 acceptor
1 3 acceptor
1 4 acceptor
1 5 acceptor
1 6 acceptor
1 7 acceptor
6 8 10 11 12 13 14 rings
6 9 15 16 17 18 19 rings

> <PUBCHEM_HEAVY_ATOM_COUNT>
28

> <PUBCHEM_ATOM_DEF_STEREO_COUNT>
0

> <PUBCHEM_ATOM_UDEF_STEREO_COUNT>
0

> <PUBCHEM_BOND_DEF_STEREO_COUNT>
0

> <PUBCHEM_BOND_UDEF_STEREO_COUNT>
1

> <PUBCHEM_ISOTOPIC_ATOM_COUNT>
0

> <PUBCHEM_COMPONENT_COUNT>
1

> <PUBCHEM_CACTVS_TAUTO_COUNT>
1

> <PUBCHEM_CONFORMER_ID>
000401890000000C

> <PUBCHEM_MMFF94_ENERGY>
147.8049

> <PUBCHEM_FEATURE_SELFOVERLAP>
45.695

> <PUBCHEM_SHAPE_FINGERPRINT>
10595046 47 18412260619030610835
10670039 82 18335983077673806833
10763959 59 18186520994901833884
11101153 10 18410294748459739929
12107183 9 17760643668375253275
12166972 35 18411142454191024248
14528608 73 18408884044491151147
14933364 13 18411139143103476819
15064981 194 18336562581206647077
15183329 4 18339645542822688746
15419008 145 18189037756250267792
15537594 2 12031799066809783973
17844677 252 18411990151928290754
18681886 176 18272929415185769338
19611394 137 17898301739011633443
21033648 29 16950552273126439063
21279426 13 18341615850595539852
21315763 129 18411983529273310710
21315764 268 18410852183311305820
221357 26 18343018912777988200
23559900 14 18271799155438618065
245318 6 17533233091504865932
3004659 81 18412262818364765106
34797466 226 17560528395050295726
4073 2 18114185297869546098
54446538 1 18409447024588347952
6328613 192 18114477716564708676
6371009 1 18335975419879500192

> <PUBCHEM_SHAPE_MULTIPOLES>
535.14
20.38
3.33
0.97
1.8
2.03
-0.26
0.9
-3.83
-0.28
-0.38
0.38
-0.01
1.22

> <PUBCHEM_SHAPE_SELFOVERLAP>
1128.911

> <PUBCHEM_SHAPE_VOLUME>
302.7

> <PUBCHEM_COORDINATE_TYPE>
2
5
10

$$$$
