3102106
  -OEChem-01171809213D

 53 55  0     1  0  0  0  0  0999 V2000
    3.2496    4.3084    0.9582 O   0  0  0  0  0  0  0  0  0  0  0  0
    1.3296    0.0769   -2.1462 O   0  0  0  0  0  0  0  0  0  0  0  0
   -4.7774    0.3457   -0.6990 O   0  0  0  0  0  0  0  0  0  0  0  0
    2.8305    1.6447    0.0470 N   0  0  0  0  0  0  0  0  0  0  0  0
    2.9749    0.1956    0.1692 C   0  0  0  0  0  0  0  0  0  0  0  0
    1.6056   -0.5201    0.1887 C   0  0  2  0  0  0  0  0  0  0  0  0
    2.0849    2.1928    1.1885 C   0  0  0  0  0  0  0  0  0  0  0  0
    4.1452    2.2933   -0.0539 C   0  0  0  0  0  0  0  0  0  0  0  0
    1.9574    3.7067    1.0445 C   0  0  0  0  0  0  0  0  0  0  0  0
    3.9698    3.8050   -0.1676 C   0  0  0  0  0  0  0  0  0  0  0  0
    1.7621   -2.0279    0.3071 C   0  0  0  0  0  0  0  0  0  0  0  0
    0.7949   -0.1413   -1.0602 C   0  0  0  0  0  0  0  0  0  0  0  0
   -0.6875   -0.0121   -0.9652 C   0  0  0  0  0  0  0  0  0  0  0  0
    1.8718   -2.5921    1.5623 C   0  0  0  0  0  0  0  0  0  0  0  0
    1.7904   -2.7895   -0.8442 C   0  0  0  0  0  0  0  0  0  0  0  0
   -1.3290    0.8754   -1.8000 C   0  0  0  0  0  0  0  0  0  0  0  0
   -1.3598   -0.7852   -0.0453 C   0  0  0  0  0  0  0  0  0  0  0  0
    2.0160   -3.9753    1.6709 C   0  0  0  0  0  0  0  0  0  0  0  0
    1.9343   -4.1727   -0.7355 C   0  0  0  0  0  0  0  0  0  0  0  0
    2.0471   -4.7655    0.5220 C   0  0  0  0  0  0  0  0  0  0  0  0
   -2.7158    0.9963   -1.7099 C   0  0  0  0  0  0  0  0  0  0  0  0
   -2.7467   -0.6643    0.0446 C   0  0  0  0  0  0  0  0  0  0  0  0
   -3.4245    0.2264   -0.7878 C   0  0  0  0  0  0  0  0  0  0  0  0
   -5.3681    0.1055    0.5774 C   0  0  0  0  0  0  0  0  0  0  0  0
   -6.6385    0.9336    0.6950 C   0  0  0  0  0  0  0  0  0  0  0  0
   -7.3166    0.7396    2.0394 C   0  0  0  0  0  0  0  0  0  0  0  0
    3.5416   -0.0657    1.0736 H   0  0  0  0  0  0  0  0  0  0  0  0
    3.5602   -0.1809   -0.6811 H   0  0  0  0  0  0  0  0  0  0  0  0
    1.0399   -0.1972    1.0696 H   0  0  0  0  0  0  0  0  0  0  0  0
    1.0631    1.8091    1.2429 H   0  0  0  0  0  0  0  0  0  0  0  0
    2.5955    1.9553    2.1306 H   0  0  0  0  0  0  0  0  0  0  0  0
    4.7523    2.0627    0.8312 H   0  0  0  0  0  0  0  0  0  0  0  0
    4.6819    1.9311   -0.9382 H   0  0  0  0  0  0  0  0  0  0  0  0
    1.4549    4.1242    1.9230 H   0  0  0  0  0  0  0  0  0  0  0  0
    1.3657    3.9813    0.1625 H   0  0  0  0  0  0  0  0  0  0  0  0
    3.4469    4.0832   -1.0908 H   0  0  0  0  0  0  0  0  0  0  0  0
    4.9491    4.2938   -0.1817 H   0  0  0  0  0  0  0  0  0  0  0  0
    1.8504   -1.9839    2.4616 H   0  0  0  0  0  0  0  0  0  0  0  0
    1.7276   -2.3684   -1.8407 H   0  0  0  0  0  0  0  0  0  0  0  0
   -0.7900    1.4859   -2.5180 H   0  0  0  0  0  0  0  0  0  0  0  0
   -0.8730   -1.4999    0.6063 H   0  0  0  0  0  0  0  0  0  0  0  0
    2.1045   -4.4368    2.6501 H   0  0  0  0  0  0  0  0  0  0  0  0
    1.9635   -4.7881   -1.6300 H   0  0  0  0  0  0  0  0  0  0  0  0
    2.1606   -5.8423    0.6064 H   0  0  0  0  0  0  0  0  0  0  0  0
   -3.2384    1.6932   -2.3595 H   0  0  0  0  0  0  0  0  0  0  0  0
   -3.2636   -1.3031    0.7546 H   0  0  0  0  0  0  0  0  0  0  0  0
   -5.6036   -0.9614    0.6668 H   0  0  0  0  0  0  0  0  0  0  0  0
   -4.6963    0.4012    1.3939 H   0  0  0  0  0  0  0  0  0  0  0  0
   -7.3290    0.6642   -0.1131 H   0  0  0  0  0  0  0  0  0  0  0  0
   -6.4019    1.9942    0.5478 H   0  0  0  0  0  0  0  0  0  0  0  0
   -7.5936   -0.3084    2.1915 H   0  0  0  0  0  0  0  0  0  0  0  0
   -8.2281    1.3431    2.0948 H   0  0  0  0  0  0  0  0  0  0  0  0
   -6.6582    1.0438    2.8592 H   0  0  0  0  0  0  0  0  0  0  0  0
  1  9  1  0  0  0  0
  1 10  1  0  0  0  0
  2 12  2  0  0  0  0
  3 23  1  0  0  0  0
  3 24  1  0  0  0  0
  4  5  1  0  0  0  0
  4  7  1  0  0  0  0
  4  8  1  0  0  0  0
  5  6  1  0  0  0  0
  5 27  1  0  0  0  0
  5 28  1  0  0  0  0
  6 11  1  0  0  0  0
  6 12  1  0  0  0  0
  6 29  1  0  0  0  0
  7  9  1  0  0  0  0
  7 30  1  0  0  0  0
  7 31  1  0  0  0  0
  8 10  1  0  0  0  0
  8 32  1  0  0  0  0
  8 33  1  0  0  0  0
  9 34  1  0  0  0  0
  9 35  1  0  0  0  0
 10 36  1  0  0  0  0
 10 37  1  0  0  0  0
 11 14  2  0  0  0  0
 11 15  1  0  0  0  0
 12 13  1  0  0  0  0
 13 16  2  0  0  0  0
 13 17  1  0  0  0  0
 14 18  1  0  0  0  0
 14 38  1  0  0  0  0
 15 19  2  0  0  0  0
 15 39  1  0  0  0  0
 16 21  1  0  0  0  0
 16 40  1  0  0  0  0
 17 22  2  0  0  0  0
 17 41  1  0  0  0  0
 18 20  2  0  0  0  0
 18 42  1  0  0  0  0
 19 20  1  0  0  0  0
 19 43  1  0  0  0  0
 20 44  1  0  0  0  0
 21 23  2  0  0  0  0
 21 45  1  0  0  0  0
 22 23  1  0  0  0  0
 22 46  1  0  0  0  0
 24 25  1  0  0  0  0
 24 47  1  0  0  0  0
 24 48  1  0  0  0  0
 25 26  1  0  0  0  0
 25 49  1  0  0  0  0
 25 50  1  0  0  0  0
 26 51  1  0  0  0  0
 26 52  1  0  0  0  0
 26 53  1  0  0  0  0
M  END
> <PUBCHEM_COMPOUND_CID>
3102106

> <PUBCHEM_CONFORMER_RMSD>
1

> <PUBCHEM_CONFORMER_DIVERSEORDER>
1
21
61
71
52
31
5
50
49
63
58
66
32
53
10
3
28
27
23
62
6
65
17
20
37
39
44
46
24
38
11
9
30
2
69
15
36
47
12
43
26
60
64
18
59
51
34
7
4
42
29
16
57
40
41
45
68
48
67
54
22
14
35
8
25
70
33
19
55
56
13

> <PUBCHEM_MMFF94_PARTIAL_CHARGES>
33
1 -0.56
10 0.28
11 -0.14
12 0.42
13 0.09
14 -0.15
15 -0.15
16 -0.15
17 -0.15
18 -0.15
19 -0.15
2 -0.57
20 -0.15
21 -0.15
22 -0.15
23 0.08
24 0.28
3 -0.36
38 0.15
39 0.15
4 -0.81
40 0.15
41 0.15
42 0.15
43 0.15
44 0.15
45 0.15
46 0.15
5 0.27
6 0.2
7 0.27
8 0.27
9 0.28

> <PUBCHEM_EFFECTIVE_ROTOR_COUNT>
9.2

> <PUBCHEM_PHARMACOPHORE_FEATURES>
8
1 1 acceptor
1 2 acceptor
1 26 hydrophobe
1 3 acceptor
1 4 cation
6 1 4 7 8 9 10 rings
6 11 14 15 18 19 20 rings
6 13 16 17 21 22 23 rings

> <PUBCHEM_HEAVY_ATOM_COUNT>
26

> <PUBCHEM_ATOM_DEF_STEREO_COUNT>
0

> <PUBCHEM_ATOM_UDEF_STEREO_COUNT>
1

> <PUBCHEM_BOND_DEF_STEREO_COUNT>
0

> <PUBCHEM_BOND_UDEF_STEREO_COUNT>
0

> <PUBCHEM_ISOTOPIC_ATOM_COUNT>
0

> <PUBCHEM_COMPONENT_COUNT>
1

> <PUBCHEM_CACTVS_TAUTO_COUNT>
2

> <PUBCHEM_CONFORMER_ID>
002F559A00000001

> <PUBCHEM_MMFF94_ENERGY>
75.3095

> <PUBCHEM_FEATURE_SELFOVERLAP>
40.597

> <PUBCHEM_SHAPE_FINGERPRINT>
10165383 225 18188216502373097156
11505856 67 17328310658659261101
12522641 24 18337119952287546051
12549972 3 17534600652516098293
12788726 201 16825280236423669358
13140716 1 18264757925939609910
13533116 47 18263373512547359275
13540713 4 17677320599228148717
13583140 156 18265037073228663261
13878862 14 18267000797076119189
13955234 65 18409167679915591675
14178342 30 18044099183909091951
14347424 109 18264776459456786937
14565420 104 18339924926023647985
15142526 21 18054785349935207417
15475509 84 18051978022177627801
15842332 3 17773289358297290423
17868525 174 18123744258355534065
1979834 28 18040724688139020253
21033648 29 18122906688198643856
21049683 271 18116163177548446854
21120745 212 17692255132619422814
21344244 78 18057027022278825491
21421861 104 18340767035776308323
21796203 349 18265618667277244923
21927370 108 17906733605737894874
22033318 11 17555760728365748801
22182313 1 17459177518026069111
23559900 14 18191004738705412743
23845131 108 18192141809954333795
24893989 43 15394098911767948944
283562 15 17763730392963050463
31174 14 18337102354931158815
3178227 256 18335138683520427400
3380486 145 17474900465331126694
4058900 60 18267597964216154049
56616090 278 18271812323518132053
57634706 229 17908150119874185896
621550 34 18260260863305270413
633830 44 18129376171497623276
6442390 28 18191863650734157798
653340 110 17975700811649779259
6786 2 18194400219901879866
7288768 16 17695889408526570656
7808743 9 17612586040315786036
9658208 31 18049170157416903772
9841814 1 18268991977577690687

> <PUBCHEM_SHAPE_MULTIPOLES>
512.48
11.18
5.93
1.71
29.64
1.71
-0.09
-6.12
5.42
-12.55
2.3
0.98
0.07
0.09

> <PUBCHEM_SHAPE_SELFOVERLAP>
1079.934

> <PUBCHEM_SHAPE_VOLUME>
287.3

> <PUBCHEM_COORDINATE_TYPE>
2
5
10

$$$$
