3089250
  -OEChem-01171809573D

 49 53  0     0  0  0  0  0  0999 V2000
    4.2272    0.0093   -0.0010 O   0  0  0  0  0  0  0  0  0  0  0  0
   -3.2761   -4.6395   -0.3611 N   0  0  0  0  0  0  0  0  0  0  0  0
   -3.3148    4.6126    0.3611 N   0  0  0  0  0  0  0  0  0  0  0  0
    0.0002    0.0003    0.0002 C   0  0  0  0  0  0  0  0  0  0  0  0
    0.8649    0.0976   -1.2944 C   0  0  0  0  0  0  0  0  0  0  0  0
    0.8660   -0.0897    1.2945 C   0  0  0  0  0  0  0  0  0  0  0  0
   -0.8675   -1.2278   -0.0948 C   0  0  0  0  0  0  0  0  0  0  0  0
   -0.8777    1.2212    0.0950 C   0  0  0  0  0  0  0  0  0  0  0  0
    2.2648    0.1217   -1.2693 C   0  0  0  0  0  0  0  0  0  0  0  0
    2.2659   -0.1058    1.2689 C   0  0  0  0  0  0  0  0  0  0  0  0
    3.0011    0.0089   -0.0005 C   0  0  0  0  0  0  0  0  0  0  0  0
    0.2386    0.1484   -2.5615 C   0  0  0  0  0  0  0  0  0  0  0  0
    0.2404   -0.1418    2.5620 C   0  0  0  0  0  0  0  0  0  0  0  0
   -2.1156   -1.1364   -0.6931 C   0  0  0  0  0  0  0  0  0  0  0  0
   -2.1251    1.1194    0.6932 C   0  0  0  0  0  0  0  0  0  0  0  0
   -0.4044   -2.4313    0.4167 C   0  0  0  0  0  0  0  0  0  0  0  0
   -0.4246    2.4285   -0.4165 C   0  0  0  0  0  0  0  0  0  0  0  0
    3.0064    0.2238   -2.4589 C   0  0  0  0  0  0  0  0  0  0  0  0
    3.0085   -0.2013    2.4585 C   0  0  0  0  0  0  0  0  0  0  0  0
    0.9756    0.2483   -3.7427 C   0  0  0  0  0  0  0  0  0  0  0  0
    0.9784   -0.2347    3.7431 C   0  0  0  0  0  0  0  0  0  0  0  0
    2.3611    0.2917   -3.6904 C   0  0  0  0  0  0  0  0  0  0  0  0
    2.3642   -0.2702    3.6904 C   0  0  0  0  0  0  0  0  0  0  0  0
   -2.9185   -2.2735   -0.7818 C   0  0  0  0  0  0  0  0  0  0  0  0
   -2.9374    2.2498    0.7819 C   0  0  0  0  0  0  0  0  0  0  0  0
   -1.2071   -3.5686    0.3279 C   0  0  0  0  0  0  0  0  0  0  0  0
   -1.2369    3.5590   -0.3277 C   0  0  0  0  0  0  0  0  0  0  0  0
   -2.4642   -3.4898   -0.2714 C   0  0  0  0  0  0  0  0  0  0  0  0
   -2.4934    3.4697    0.2715 C   0  0  0  0  0  0  0  0  0  0  0  0
   -0.8420    0.1458   -2.6606 H   0  0  0  0  0  0  0  0  0  0  0  0
   -0.8401   -0.1456    2.6614 H   0  0  0  0  0  0  0  0  0  0  0  0
   -2.4963   -0.2613   -1.2111 H   0  0  0  0  0  0  0  0  0  0  0  0
   -2.4985    0.2412    1.2111 H   0  0  0  0  0  0  0  0  0  0  0  0
    0.5807   -2.5530    0.8555 H   0  0  0  0  0  0  0  0  0  0  0  0
    0.5595    2.5585   -0.8551 H   0  0  0  0  0  0  0  0  0  0  0  0
    4.0933    0.2461   -2.4466 H   0  0  0  0  0  0  0  0  0  0  0  0
    4.0955   -0.2172    2.4458 H   0  0  0  0  0  0  0  0  0  0  0  0
    0.4641    0.2988   -4.6993 H   0  0  0  0  0  0  0  0  0  0  0  0
    0.4676   -0.2862    4.7001 H   0  0  0  0  0  0  0  0  0  0  0  0
    2.9401    0.3709   -4.6054 H   0  0  0  0  0  0  0  0  0  0  0  0
    2.9439   -0.3442    4.6055 H   0  0  0  0  0  0  0  0  0  0  0  0
   -3.8866   -2.2057   -1.2717 H   0  0  0  0  0  0  0  0  0  0  0  0
   -3.9050    2.1739    1.2718 H   0  0  0  0  0  0  0  0  0  0  0  0
   -0.8387   -4.5125    0.7216 H   0  0  0  0  0  0  0  0  0  0  0  0
   -0.8764    4.5060   -0.7214 H   0  0  0  0  0  0  0  0  0  0  0  0
   -2.9470   -5.5216    0.0082 H   0  0  0  0  0  0  0  0  0  0  0  0
   -4.1874   -4.5829   -0.7959 H   0  0  0  0  0  0  0  0  0  0  0  0
   -2.9930    5.4974   -0.0081 H   0  0  0  0  0  0  0  0  0  0  0  0
   -4.2256    4.5486    0.7959 H   0  0  0  0  0  0  0  0  0  0  0  0
  1 11  2  0  0  0  0
  2 28  1  0  0  0  0
  2 46  1  0  0  0  0
  2 47  1  0  0  0  0
  3 29  1  0  0  0  0
  3 48  1  0  0  0  0
  3 49  1  0  0  0  0
  4  5  1  0  0  0  0
  4  6  1  0  0  0  0
  4  7  1  0  0  0  0
  4  8  1  0  0  0  0
  5  9  1  0  0  0  0
  5 12  2  0  0  0  0
  6 10  1  0  0  0  0
  6 13  2  0  0  0  0
  7 14  2  0  0  0  0
  7 16  1  0  0  0  0
  8 15  2  0  0  0  0
  8 17  1  0  0  0  0
  9 11  1  0  0  0  0
  9 18  2  0  0  0  0
 10 11  1  0  0  0  0
 10 19  2  0  0  0  0
 12 20  1  0  0  0  0
 12 30  1  0  0  0  0
 13 21  1  0  0  0  0
 13 31  1  0  0  0  0
 14 24  1  0  0  0  0
 14 32  1  0  0  0  0
 15 25  1  0  0  0  0
 15 33  1  0  0  0  0
 16 26  2  0  0  0  0
 16 34  1  0  0  0  0
 17 27  2  0  0  0  0
 17 35  1  0  0  0  0
 18 22  1  0  0  0  0
 18 36  1  0  0  0  0
 19 23  1  0  0  0  0
 19 37  1  0  0  0  0
 20 22  2  0  0  0  0
 20 38  1  0  0  0  0
 21 23  2  0  0  0  0
 21 39  1  0  0  0  0
 22 40  1  0  0  0  0
 23 41  1  0  0  0  0
 24 28  2  0  0  0  0
 24 42  1  0  0  0  0
 25 29  2  0  0  0  0
 25 43  1  0  0  0  0
 26 28  1  0  0  0  0
 26 44  1  0  0  0  0
 27 29  1  0  0  0  0
 27 45  1  0  0  0  0
M  END
> <PUBCHEM_COMPOUND_CID>
3089250

> <PUBCHEM_CONFORMER_RMSD>
0.6

> <PUBCHEM_CONFORMER_DIVERSEORDER>
1
2

> <PUBCHEM_MMFF94_PARTIAL_CHARGES>
49
1 -0.57
10 0.09
11 0.4
12 -0.15
13 -0.15
14 -0.15
15 -0.15
16 -0.15
17 -0.15
18 -0.15
19 -0.15
2 -0.9
20 -0.15
21 -0.15
22 -0.15
23 -0.15
24 -0.15
25 -0.15
26 -0.15
27 -0.15
28 0.1
29 0.1
3 -0.9
30 0.15
31 0.15
32 0.15
33 0.15
34 0.15
35 0.15
36 0.15
37 0.15
38 0.15
39 0.15
4 0.57
40 0.15
41 0.15
42 0.15
43 0.15
44 0.15
45 0.15
46 0.4
47 0.4
48 0.4
49 0.4
5 -0.14
6 -0.14
7 -0.14
8 -0.14
9 0.09

> <PUBCHEM_EFFECTIVE_ROTOR_COUNT>
2.2

> <PUBCHEM_PHARMACOPHORE_FEATURES>
10
1 1 acceptor
1 2 cation
1 2 donor
1 3 cation
1 3 donor
6 4 5 6 9 10 11 rings
6 5 9 12 18 20 22 rings
6 6 10 13 19 21 23 rings
6 7 14 16 24 26 28 rings
6 8 15 17 25 27 29 rings

> <PUBCHEM_HEAVY_ATOM_COUNT>
29

> <PUBCHEM_ATOM_DEF_STEREO_COUNT>
0

> <PUBCHEM_ATOM_UDEF_STEREO_COUNT>
0

> <PUBCHEM_BOND_DEF_STEREO_COUNT>
0

> <PUBCHEM_BOND_UDEF_STEREO_COUNT>
0

> <PUBCHEM_ISOTOPIC_ATOM_COUNT>
0

> <PUBCHEM_COMPONENT_COUNT>
1

> <PUBCHEM_CACTVS_TAUTO_COUNT>
1

> <PUBCHEM_CONFORMER_ID>
002F236200000001

> <PUBCHEM_MMFF94_ENERGY>
146.3279

> <PUBCHEM_FEATURE_SELFOVERLAP>
50.784

> <PUBCHEM_SHAPE_FINGERPRINT>
10165383 225 17986122811654386937
107951 10 17842528800669007584
11443803 9 17971222277039994196
11578080 2 16985505833551562177
11725454 13 17343471472064264880
12082328 90 15370448622998209398
12655364 131 17024305435277154788
12788726 201 18118710878743333191
13009979 54 18041823108518452058
13681431 1 17408267092595883015
13965767 371 17607802794987535844
14004458 79 18267603444541097983
14817 1 7894009534817015267
14863182 85 18048311142509123861
15219462 58 17622109825256322034
17980427 23 17316754366165274045
17980427 26 16687049703093074970
20600515 1 17983300618540066403
20602899 9 17408009462992828454
23419403 2 17131845269299375114
25222932 49 15381883844037543414
266924 78 16009042721114392486
298252 57 17829650237910344452
3052486 1 18410855465119402863
35225 105 17769898425228466155
3552219 110 17606088884082323208
376196 1 17102891713641904069
497634 4 17827597527849137496
57527358 35 18412542142127473360
57527585 21 16961599225565000716
81228 2 18200882863276286639

> <PUBCHEM_SHAPE_MULTIPOLES>
580.98
5.02
4.51
3.8
0.87
0.08
0
-0.06
-0.01
-8.43
0.01
4.6
-0.02
-1.74

> <PUBCHEM_SHAPE_SELFOVERLAP>
1329.163

> <PUBCHEM_SHAPE_VOLUME>
299.1

> <PUBCHEM_COORDINATE_TYPE>
2
5
10

$$$$
