16808745
  -OEChem-01171810043D

 57 59  0     0  0  0  0  0  0999 V2000
   -3.8811    0.3172    0.1631 S   0  0  0  0  0  0  0  0  0  0  0  0
    3.9560    1.0390    0.3324 S   0  0  0  0  0  0  0  0  0  0  0  0
    0.2414   -1.5340    0.0337 O   0  0  0  0  0  0  0  0  0  0  0  0
   -3.9749    1.1186   -1.0443 O   0  0  0  0  0  0  0  0  0  0  0  0
   -4.0297    0.9378    1.4677 O   0  0  0  0  0  0  0  0  0  0  0  0
    1.3401    0.5273    0.2962 N   0  0  0  0  0  0  0  0  0  0  0  0
   -0.2436    4.6023    0.0537 N   0  0  0  0  0  0  0  0  0  0  0  0
    2.9482   -1.3158    0.0286 N   0  0  0  0  0  0  0  0  0  0  0  0
    1.2116    1.9814    0.4930 C   0  0  0  0  0  0  0  0  0  0  0  0
    1.1428    2.7471   -0.8270 C   0  0  0  0  0  0  0  0  0  0  0  0
   -1.1495    0.3948    0.2600 C   0  0  0  0  0  0  0  0  0  0  0  0
    0.9740    4.2613   -0.6719 C   0  0  0  0  0  0  0  0  0  0  0  0
   -2.3406   -0.5477    0.1505 C   0  0  0  0  0  0  0  0  0  0  0  0
    0.2045   -0.3117    0.1981 C   0  0  0  0  0  0  0  0  0  0  0  0
    2.6441   -0.0508    0.2021 C   0  0  0  0  0  0  0  0  0  0  0  0
   -5.0912   -0.9643    0.0279 C   0  0  0  0  0  0  0  0  0  0  0  0
    4.3274   -1.4615   -0.0068 C   0  0  0  0  0  0  0  0  0  0  0  0
    5.0543   -0.2766    0.1434 C   0  0  0  0  0  0  0  0  0  0  0  0
    5.0329   -2.6724   -0.1770 C   0  0  0  0  0  0  0  0  0  0  0  0
   -1.4056    4.5495   -0.8354 C   0  0  0  0  0  0  0  0  0  0  0  0
   -0.1282    5.9300    0.6596 C   0  0  0  0  0  0  0  0  0  0  0  0
    6.4582   -0.2610    0.1292 C   0  0  0  0  0  0  0  0  0  0  0  0
   -5.6088   -1.5591    1.1786 C   0  0  0  0  0  0  0  0  0  0  0  0
   -5.5282   -1.3811   -1.2295 C   0  0  0  0  0  0  0  0  0  0  0  0
    6.4306   -2.6643   -0.1917 C   0  0  0  0  0  0  0  0  0  0  0  0
    7.1319   -1.4732   -0.0405 C   0  0  0  0  0  0  0  0  0  0  0  0
    4.3297   -3.9822   -0.3443 C   0  0  0  0  0  0  0  0  0  0  0  0
   -6.5633   -2.5707    1.0720 C   0  0  0  0  0  0  0  0  0  0  0  0
   -6.4828   -2.3927   -1.3361 C   0  0  0  0  0  0  0  0  0  0  0  0
   -7.0003   -2.9874   -0.1853 C   0  0  0  0  0  0  0  0  0  0  0  0
    1.9842    2.3809    1.1574 H   0  0  0  0  0  0  0  0  0  0  0  0
    0.3007    2.1815    1.0609 H   0  0  0  0  0  0  0  0  0  0  0  0
    0.3487    2.3452   -1.4646 H   0  0  0  0  0  0  0  0  0  0  0  0
    2.0651    2.5759   -1.3955 H   0  0  0  0  0  0  0  0  0  0  0  0
   -1.2323    0.9106    1.2221 H   0  0  0  0  0  0  0  0  0  0  0  0
   -1.2070    1.1329   -0.5431 H   0  0  0  0  0  0  0  0  0  0  0  0
    1.0139    4.7498   -1.6540 H   0  0  0  0  0  0  0  0  0  0  0  0
    1.8538    4.6182   -0.1193 H   0  0  0  0  0  0  0  0  0  0  0  0
   -2.2923   -1.1176   -0.7835 H   0  0  0  0  0  0  0  0  0  0  0  0
   -2.3469   -1.2549    0.9867 H   0  0  0  0  0  0  0  0  0  0  0  0
   -1.5489    3.5470   -1.2500 H   0  0  0  0  0  0  0  0  0  0  0  0
   -1.3253    5.2594   -1.6668 H   0  0  0  0  0  0  0  0  0  0  0  0
   -2.3206    4.7811   -0.2781 H   0  0  0  0  0  0  0  0  0  0  0  0
    0.6982    5.9561    1.3786 H   0  0  0  0  0  0  0  0  0  0  0  0
   -1.0362    6.1772    1.2212 H   0  0  0  0  0  0  0  0  0  0  0  0
    0.0384    6.7126   -0.0896 H   0  0  0  0  0  0  0  0  0  0  0  0
    7.0124    0.6651    0.2468 H   0  0  0  0  0  0  0  0  0  0  0  0
   -5.2773   -1.2541    2.1671 H   0  0  0  0  0  0  0  0  0  0  0  0
   -5.1332   -0.9370   -2.1388 H   0  0  0  0  0  0  0  0  0  0  0  0
    6.9834   -3.5916   -0.3220 H   0  0  0  0  0  0  0  0  0  0  0  0
    8.2187   -1.4832   -0.0543 H   0  0  0  0  0  0  0  0  0  0  0  0
    4.6135   -4.6688    0.4601 H   0  0  0  0  0  0  0  0  0  0  0  0
    3.2415   -3.8696   -0.3179 H   0  0  0  0  0  0  0  0  0  0  0  0
    4.5949   -4.4333   -1.3061 H   0  0  0  0  0  0  0  0  0  0  0  0
   -6.9651   -3.0351    1.9678 H   0  0  0  0  0  0  0  0  0  0  0  0
   -6.8219   -2.7187   -2.3150 H   0  0  0  0  0  0  0  0  0  0  0  0
   -7.7428   -3.7756   -0.2683 H   0  0  0  0  0  0  0  0  0  0  0  0
  1  4  2  0  0  0  0
  1  5  2  0  0  0  0
  1 13  1  0  0  0  0
  1 16  1  0  0  0  0
  2 15  1  0  0  0  0
  2 18  1  0  0  0  0
  3 14  2  0  0  0  0
  6  9  1  0  0  0  0
  6 14  1  0  0  0  0
  6 15  1  0  0  0  0
  7 12  1  0  0  0  0
  7 20  1  0  0  0  0
  7 21  1  0  0  0  0
  8 15  2  0  0  0  0
  8 17  1  0  0  0  0
  9 10  1  0  0  0  0
  9 31  1  0  0  0  0
  9 32  1  0  0  0  0
 10 12  1  0  0  0  0
 10 33  1  0  0  0  0
 10 34  1  0  0  0  0
 11 13  1  0  0  0  0
 11 14  1  0  0  0  0
 11 35  1  0  0  0  0
 11 36  1  0  0  0  0
 12 37  1  0  0  0  0
 12 38  1  0  0  0  0
 13 39  1  0  0  0  0
 13 40  1  0  0  0  0
 16 23  2  0  0  0  0
 16 24  1  0  0  0  0
 17 18  1  0  0  0  0
 17 19  2  0  0  0  0
 18 22  2  0  0  0  0
 19 25  1  0  0  0  0
 19 27  1  0  0  0  0
 20 41  1  0  0  0  0
 20 42  1  0  0  0  0
 20 43  1  0  0  0  0
 21 44  1  0  0  0  0
 21 45  1  0  0  0  0
 21 46  1  0  0  0  0
 22 26  1  0  0  0  0
 22 47  1  0  0  0  0
 23 28  1  0  0  0  0
 23 48  1  0  0  0  0
 24 29  2  0  0  0  0
 24 49  1  0  0  0  0
 25 26  2  0  0  0  0
 25 50  1  0  0  0  0
 26 51  1  0  0  0  0
 27 52  1  0  0  0  0
 27 53  1  0  0  0  0
 27 54  1  0  0  0  0
 28 30  2  0  0  0  0
 28 55  1  0  0  0  0
 29 30  1  0  0  0  0
 29 56  1  0  0  0  0
 30 57  1  0  0  0  0
M  END
> <PUBCHEM_COMPOUND_CID>
16808745

> <PUBCHEM_CONFORMER_RMSD>
1.4

> <PUBCHEM_CONFORMER_DIVERSEORDER>
1
105
37
78
12
53
73
74
109
96
40
8
58
22
30
66
64
27
21
118
34
59
50
120
62
84
33
93
83
61
92
36
72
77
24
113
107
97
91
28
82
103
79
18
41
7
6
29
54
94
16
102
112
48
116
42
15
115
4
111
80
17
119
46
38
9
99
100
67
52
31
63
51
35
65
86
20
49
68
56
76
23
101
88
71
114
90
60
13
19
55
104
95
3
75
110
108
44
43
14
45
39
5
2
11
10
81
57
32
25
47
85
87
69
70
98
89
106
26
117

> <PUBCHEM_MMFF94_PARTIAL_CHARGES>
37
1 1.2
11 0.06
12 0.27
13 0.11
14 0.57
15 0.44
16 -0.01
17 0.23
18 0.04
19 -0.14
2 -0.08
20 0.27
21 0.27
22 -0.15
23 -0.15
24 -0.15
25 -0.15
26 -0.15
27 0.14
28 -0.15
29 -0.15
3 -0.57
30 -0.15
4 -0.65
47 0.15
48 0.15
49 0.15
5 -0.65
50 0.15
51 0.15
55 0.15
56 0.15
57 0.15
6 -0.42
7 -0.81
8 -0.57
9 0.3

> <PUBCHEM_EFFECTIVE_ROTOR_COUNT>
10

> <PUBCHEM_PHARMACOPHORE_FEATURES>
7
1 3 acceptor
1 4 acceptor
1 5 acceptor
1 7 cation
5 2 8 15 17 18 rings
6 16 23 24 28 29 30 rings
6 17 18 19 22 25 26 rings

> <PUBCHEM_HEAVY_ATOM_COUNT>
30

> <PUBCHEM_ATOM_DEF_STEREO_COUNT>
0

> <PUBCHEM_ATOM_UDEF_STEREO_COUNT>
0

> <PUBCHEM_BOND_DEF_STEREO_COUNT>
0

> <PUBCHEM_BOND_UDEF_STEREO_COUNT>
0

> <PUBCHEM_ISOTOPIC_ATOM_COUNT>
0

> <PUBCHEM_COMPONENT_COUNT>
1

> <PUBCHEM_CACTVS_TAUTO_COUNT>
1

> <PUBCHEM_CONFORMER_ID>
01007B2900000001

> <PUBCHEM_MMFF94_ENERGY>
66.9681

> <PUBCHEM_FEATURE_SELFOVERLAP>
35.611

> <PUBCHEM_SHAPE_FINGERPRINT>
10050765 1 18050286965331609082
10411042 1 18410012143299923528
11093857 51 17320998854853251581
11497681 19 18272097050798000574
12166972 35 18272090547484135881
12516196 113 18408885139945162570
12623949 98 17988653952305018142
12645989 146 18410857698012306295
12788726 201 18189049807637927896
13009979 54 18202572778294176633
13782708 43 18113333106947452531
13835254 42 18412825772756331976
13955234 65 18052258689674028689
15021287 119 18271240625375880951
15183329 4 18412821404242036603
15320294 125 17131830993509235399
15419008 47 17894623782210756677
15876981 60 18261962842944264821
15890870 6 17975408015894215685
18365409 1 17973161729926865333
18681886 176 18339634637700368395
21049683 271 18340772641336864240
21236236 1 18122906430679797872
21424621 283 8718823189278173302
23522609 53 18126036881485377321
23559900 14 18264765640112467035
24771750 20 17537730171651735148
249057 3 18410291390359712965
255183 451 18410292557936358789
283562 15 18190180096832320776
3627633 1 18337953376821092957
4015057 19 18262245537828376299
4046055 25 18335423409386876884
437815 12 18260827116051436943
46194498 28 17677325138475811244
5969126 39 18337952290647092740
6004065 56 18336263565272321866
9555976 147 17560254539461899441
9962374 69 18196645414351853911

> <PUBCHEM_SHAPE_MULTIPOLES>
592.53
19.06
6.48
1
7.42
11.2
0.03
-26.83
0.47
-0.48
0.63
1.49
0.03
0.29

> <PUBCHEM_SHAPE_SELFOVERLAP>
1219.222

> <PUBCHEM_SHAPE_VOLUME>
341.5

> <PUBCHEM_COORDINATE_TYPE>
2
5
10

$$$$
