584851
  -OEChem-01171809463D

 36 38  0     1  0  0  0  0  0999 V2000
    3.1438   -0.1015   -1.0890 S   0  0  0  0  0  0  0  0  0  0  0  0
    0.9184   -2.2792   -0.5454 O   0  0  0  0  0  0  0  0  0  0  0  0
    5.1250    1.4969    0.1922 N   0  0  0  0  0  0  0  0  0  0  0  0
   -0.5267   -0.4472   -0.0768 C   0  0  0  0  0  0  0  0  0  0  0  0
   -3.0046   -0.7299   -0.4671 C   0  0  0  0  0  0  0  0  0  0  0  0
   -1.9101    1.5038   -0.8844 C   0  0  0  0  0  0  0  0  0  0  0  0
   -2.1839    0.6546    1.4752 C   0  0  0  0  0  0  0  0  0  0  0  0
   -1.6292   -1.4142   -0.5528 C   0  0  0  0  0  0  0  0  0  0  0  0
   -0.5389    0.8106   -0.9683 C   0  0  0  0  0  0  0  0  0  0  0  0
   -0.8117   -0.0354    1.3809 C   0  0  0  0  0  0  0  0  0  0  0  0
   -3.0005    0.5261   -1.3556 C   0  0  0  0  0  0  0  0  0  0  0  0
   -3.2735   -0.3178    0.9907 C   0  0  0  0  0  0  0  0  0  0  0  0
   -2.1850    1.9032    0.5760 C   0  0  0  0  0  0  0  0  0  0  0  0
    0.8150   -1.1180   -0.1488 C   0  0  0  0  0  0  0  0  0  0  0  0
    2.0137   -0.3094    0.3202 C   0  0  1  0  0  0  0  0  0  0  0  0
    2.7327   -0.9887    1.4779 C   0  0  0  0  0  0  0  0  0  0  0  0
    4.3156    0.8461   -0.3248 C   0  0  0  0  0  0  0  0  0  0  0  0
   -3.7841   -1.4210   -0.8064 H   0  0  0  0  0  0  0  0  0  0  0  0
   -1.9140    2.3964   -1.5199 H   0  0  0  0  0  0  0  0  0  0  0  0
   -2.3825    0.9448    2.5130 H   0  0  0  0  0  0  0  0  0  0  0  0
   -1.6360   -2.3261    0.0590 H   0  0  0  0  0  0  0  0  0  0  0  0
   -1.4432   -1.7343   -1.5867 H   0  0  0  0  0  0  0  0  0  0  0  0
   -0.3217    0.5391   -2.0098 H   0  0  0  0  0  0  0  0  0  0  0  0
    0.2326    1.5310   -0.6745 H   0  0  0  0  0  0  0  0  0  0  0  0
   -0.0550    0.6508    1.7764 H   0  0  0  0  0  0  0  0  0  0  0  0
   -0.7932   -0.9174    2.0349 H   0  0  0  0  0  0  0  0  0  0  0  0
   -2.8246    0.2448   -2.4011 H   0  0  0  0  0  0  0  0  0  0  0  0
   -3.9822    1.0142   -1.3180 H   0  0  0  0  0  0  0  0  0  0  0  0
   -4.2597    0.1559    1.0697 H   0  0  0  0  0  0  0  0  0  0  0  0
   -3.2946   -1.2066    1.6332 H   0  0  0  0  0  0  0  0  0  0  0  0
   -1.4225    2.6129    0.9199 H   0  0  0  0  0  0  0  0  0  0  0  0
   -3.1523    2.4153    0.6480 H   0  0  0  0  0  0  0  0  0  0  0  0
    1.7122    0.6888    0.6423 H   0  0  0  0  0  0  0  0  0  0  0  0
    2.0194   -1.2155    2.2792 H   0  0  0  0  0  0  0  0  0  0  0  0
    3.5113   -0.3598    1.9201 H   0  0  0  0  0  0  0  0  0  0  0  0
    3.1816   -1.9435    1.1799 H   0  0  0  0  0  0  0  0  0  0  0  0
  1 15  1  0  0  0  0
  1 17  1  0  0  0  0
  2 14  2  0  0  0  0
  3 17  3  0  0  0  0
  4  8  1  0  0  0  0
  4  9  1  0  0  0  0
  4 10  1  0  0  0  0
  4 14  1  0  0  0  0
  5  8  1  0  0  0  0
  5 11  1  0  0  0  0
  5 12  1  0  0  0  0
  5 18  1  0  0  0  0
  6  9  1  0  0  0  0
  6 11  1  0  0  0  0
  6 13  1  0  0  0  0
  6 19  1  0  0  0  0
  7 10  1  0  0  0  0
  7 12  1  0  0  0  0
  7 13  1  0  0  0  0
  7 20  1  0  0  0  0
  8 21  1  0  0  0  0
  8 22  1  0  0  0  0
  9 23  1  0  0  0  0
  9 24  1  0  0  0  0
 10 25  1  0  0  0  0
 10 26  1  0  0  0  0
 11 27  1  0  0  0  0
 11 28  1  0  0  0  0
 12 29  1  0  0  0  0
 12 30  1  0  0  0  0
 13 31  1  0  0  0  0
 13 32  1  0  0  0  0
 14 15  1  0  0  0  0
 15 16  1  0  0  0  0
 15 33  1  0  0  0  0
 16 34  1  0  0  0  0
 16 35  1  0  0  0  0
 16 36  1  0  0  0  0
M  END
> <PUBCHEM_COMPOUND_CID>
584851

> <PUBCHEM_CONFORMER_RMSD>
0.6

> <PUBCHEM_CONFORMER_DIVERSEORDER>
3
4
14
8
7
13
2
12
5
1
11
10
9
6

> <PUBCHEM_MMFF94_PARTIAL_CHARGES>
7
1 -0.27
14 0.45
15 0.29
17 0.59
2 -0.57
3 -0.56
4 0.06

> <PUBCHEM_EFFECTIVE_ROTOR_COUNT>
4.2

> <PUBCHEM_PHARMACOPHORE_FEATURES>
7
1 16 hydrophobe
1 2 acceptor
1 3 acceptor
6 4 5 6 8 9 11 rings
6 4 5 7 8 10 12 rings
6 4 6 7 9 10 13 rings
6 5 6 7 11 12 13 rings

> <PUBCHEM_HEAVY_ATOM_COUNT>
17

> <PUBCHEM_ATOM_DEF_STEREO_COUNT>
0

> <PUBCHEM_ATOM_UDEF_STEREO_COUNT>
1

> <PUBCHEM_BOND_DEF_STEREO_COUNT>
0

> <PUBCHEM_BOND_UDEF_STEREO_COUNT>
0

> <PUBCHEM_ISOTOPIC_ATOM_COUNT>
0

> <PUBCHEM_COMPONENT_COUNT>
1

> <PUBCHEM_CACTVS_TAUTO_COUNT>
2

> <PUBCHEM_CONFORMER_ID>
0008EC9300000003

> <PUBCHEM_MMFF94_ENERGY>
40.5098

> <PUBCHEM_FEATURE_SELFOVERLAP>
48.066

> <PUBCHEM_SHAPE_FINGERPRINT>
10498660 4 18341891874958474316
10948715 1 17025138641366989757
11132069 177 18259991482798138100
11315181 36 14996281457596346124
11715629 250 18410299090544673188
12173636 292 18059585654260802085
12186901 62 15841559548041638353
12346645 44 18341899584466656686
12403814 3 18334012800498151953
12423570 1 14756387777254427017
12491281 212 18265336110089393005
12507557 5 16878225367817976276
12916754 54 18336264539855676162
13024252 1 15502382214454176417
13214271 11 17967535683471328573
13224815 77 18187086139699353652
13693222 15 17313111825601182554
14142880 1 18261676978447848917
14178342 30 14201401538543799537
15061688 2 17024010580875391189
15309172 13 18408889533622788310
15775835 57 18407757049704900840
16945 1 18273206487504197743
17804303 29 11167940281467722589
18186145 218 13686294673695383430
200 152 17240481459225615483
20279233 1 14490470876648632690
20281475 54 9150879590711403242
20325693 3 14764354837865986449
20525323 117 18335984173228005999
21524375 3 18336267929159625770
22094290 60 15985107413728973480
232386 152 8862941693248032194
23402539 116 12396293794884949563
23557571 272 17773598410821385886
23559900 14 18048023087062676174
27216 239 18333737922217025488
2748010 2 17555427863498646179
296302 2 18260828177040234189
369184 2 16950569822615803211
633830 44 17917444081420374926
8030462 33 17489016042383208351

> <PUBCHEM_SHAPE_MULTIPOLES>
342.85
7.15
1.73
1.42
8.54
0.01
0.26
2.56
0.13
0.12
-0.14
-0.45
0.01
-0.15

> <PUBCHEM_SHAPE_SELFOVERLAP>
720.343

> <PUBCHEM_SHAPE_VOLUME>
195.2

> <PUBCHEM_COORDINATE_TYPE>
2
5
10

$$$$
