5730500
  -OEChem-01171809303D

 56 57  0     0  0  0  0  0  0999 V2000
   -2.9257    0.0043    2.4553 O   0  0  0  0  0  0  0  0  0  0  0  0
    2.9251    0.0048   -2.4559 O   0  0  0  0  0  0  0  0  0  0  0  0
   -5.9005    3.0886    0.0729 O   0  0  0  0  0  0  0  0  0  0  0  0
    5.9000    3.0882   -0.0726 O   0  0  0  0  0  0  0  0  0  0  0  0
   -4.8344    2.1100   -1.7281 O   0  0  0  0  0  0  0  0  0  0  0  0
    4.8338    2.1092    1.7282 O   0  0  0  0  0  0  0  0  0  0  0  0
   -1.7577   -1.0803    0.7255 N   0  0  0  0  0  0  0  0  0  0  0  0
    1.7677   -1.0689   -0.7175 N   0  0  0  0  0  0  0  0  0  0  0  0
   -0.0346   -2.8020    0.7238 C   0  0  0  0  0  0  0  0  0  0  0  0
    0.0337   -2.8018   -0.7250 C   0  0  0  0  0  0  0  0  0  0  0  0
   -0.9105   -1.9593    1.4083 C   0  0  0  0  0  0  0  0  0  0  0  0
    0.9097   -1.9590   -1.4093 C   0  0  0  0  0  0  0  0  0  0  0  0
    0.7981   -3.6674    1.4334 C   0  0  0  0  0  0  0  0  0  0  0  0
   -0.7989   -3.6669   -1.4350 C   0  0  0  0  0  0  0  0  0  0  0  0
   -0.9537   -1.9822    2.8023 C   0  0  0  0  0  0  0  0  0  0  0  0
    0.9529   -1.9815   -2.8034 C   0  0  0  0  0  0  0  0  0  0  0  0
    0.7548   -3.6900    2.8275 C   0  0  0  0  0  0  0  0  0  0  0  0
   -0.7557   -3.6892   -2.8291 C   0  0  0  0  0  0  0  0  0  0  0  0
   -0.1210   -2.8474    3.5120 C   0  0  0  0  0  0  0  0  0  0  0  0
    0.1201   -2.8464   -3.5132 C   0  0  0  0  0  0  0  0  0  0  0  0
   -2.6828   -0.1813    1.2686 C   0  0  0  0  0  0  0  0  0  0  0  0
    2.6822   -0.1811   -1.2692 C   0  0  0  0  0  0  0  0  0  0  0  0
   -3.3970    0.5831    0.2016 C   0  0  0  0  0  0  0  0  0  0  0  0
    3.3964    0.5829   -0.2019 C   0  0  0  0  0  0  0  0  0  0  0  0
   -4.3216    1.4913    0.5368 C   0  0  0  0  0  0  0  0  0  0  0  0
    4.3210    1.4912   -0.5370 C   0  0  0  0  0  0  0  0  0  0  0  0
   -5.0223    2.2417   -0.5290 C   0  0  0  0  0  0  0  0  0  0  0  0
    5.0218    2.2411    0.5291 C   0  0  0  0  0  0  0  0  0  0  0  0
   -6.6760    3.9023   -0.8135 C   0  0  0  0  0  0  0  0  0  0  0  0
    6.6755    3.9017    0.8140 C   0  0  0  0  0  0  0  0  0  0  0  0
   -7.5973    4.7823    0.0041 C   0  0  0  0  0  0  0  0  0  0  0  0
    7.5970    4.7818   -0.0034 C   0  0  0  0  0  0  0  0  0  0  0  0
    1.4879   -4.3311    0.9173 H   0  0  0  0  0  0  0  0  0  0  0  0
   -1.4888   -4.3308   -0.9191 H   0  0  0  0  0  0  0  0  0  0  0  0
   -1.5979   -1.3671    3.4127 H   0  0  0  0  0  0  0  0  0  0  0  0
    1.5972   -1.3662   -3.4132 H   0  0  0  0  0  0  0  0  0  0  0  0
    1.4033   -4.3635    3.3801 H   0  0  0  0  0  0  0  0  0  0  0  0
   -1.4043   -4.3624   -3.3819 H   0  0  0  0  0  0  0  0  0  0  0  0
   -0.1532   -2.8663    4.5976 H   0  0  0  0  0  0  0  0  0  0  0  0
    0.1523   -2.8648   -4.5988 H   0  0  0  0  0  0  0  0  0  0  0  0
   -1.6876   -1.1014   -0.2885 H   0  0  0  0  0  0  0  0  0  0  0  0
    1.6952   -1.0928    0.2963 H   0  0  0  0  0  0  0  0  0  0  0  0
   -3.1439    0.3792   -0.8336 H   0  0  0  0  0  0  0  0  0  0  0  0
    3.1448    0.3802    0.8340 H   0  0  0  0  0  0  0  0  0  0  0  0
   -4.5830    1.7038    1.5678 H   0  0  0  0  0  0  0  0  0  0  0  0
    4.5824    1.7040   -1.5679 H   0  0  0  0  0  0  0  0  0  0  0  0
   -6.0064    4.5261   -1.4162 H   0  0  0  0  0  0  0  0  0  0  0  0
   -7.2679    3.2599   -1.4749 H   0  0  0  0  0  0  0  0  0  0  0  0
    6.0060    4.5254    1.4168 H   0  0  0  0  0  0  0  0  0  0  0  0
    7.2674    3.2591    1.4753 H   0  0  0  0  0  0  0  0  0  0  0  0
   -8.2064    5.4191   -0.6435 H   0  0  0  0  0  0  0  0  0  0  0  0
   -7.0202    5.4180    0.6837 H   0  0  0  0  0  0  0  0  0  0  0  0
   -8.2610    4.1725    0.6260 H   0  0  0  0  0  0  0  0  0  0  0  0
    8.2060    5.4185    0.6443 H   0  0  0  0  0  0  0  0  0  0  0  0
    7.0200    5.4176   -0.6829 H   0  0  0  0  0  0  0  0  0  0  0  0
    8.2607    4.1722   -0.6253 H   0  0  0  0  0  0  0  0  0  0  0  0
  1 21  2  0  0  0  0
  2 22  2  0  0  0  0
  3 27  1  0  0  0  0
  3 29  1  0  0  0  0
  4 28  1  0  0  0  0
  4 30  1  0  0  0  0
  5 27  2  0  0  0  0
  6 28  2  0  0  0  0
  7 11  1  0  0  0  0
  7 21  1  0  0  0  0
  7 41  1  0  0  0  0
  8 12  1  0  0  0  0
  8 22  1  0  0  0  0
  8 42  1  0  0  0  0
  9 10  1  0  0  0  0
  9 11  1  0  0  0  0
  9 13  2  0  0  0  0
 10 12  1  0  0  0  0
 10 14  2  0  0  0  0
 11 15  2  0  0  0  0
 12 16  2  0  0  0  0
 13 17  1  0  0  0  0
 13 33  1  0  0  0  0
 14 18  1  0  0  0  0
 14 34  1  0  0  0  0
 15 19  1  0  0  0  0
 15 35  1  0  0  0  0
 16 20  1  0  0  0  0
 16 36  1  0  0  0  0
 17 19  2  0  0  0  0
 17 37  1  0  0  0  0
 18 20  2  0  0  0  0
 18 38  1  0  0  0  0
 19 39  1  0  0  0  0
 20 40  1  0  0  0  0
 21 23  1  0  0  0  0
 22 24  1  0  0  0  0
 23 25  2  0  0  0  0
 23 43  1  0  0  0  0
 24 26  2  0  0  0  0
 24 44  1  0  0  0  0
 25 27  1  0  0  0  0
 25 45  1  0  0  0  0
 26 28  1  0  0  0  0
 26 46  1  0  0  0  0
 29 31  1  0  0  0  0
 29 47  1  0  0  0  0
 29 48  1  0  0  0  0
 30 32  1  0  0  0  0
 30 49  1  0  0  0  0
 30 50  1  0  0  0  0
 31 51  1  0  0  0  0
 31 52  1  0  0  0  0
 31 53  1  0  0  0  0
 32 54  1  0  0  0  0
 32 55  1  0  0  0  0
 32 56  1  0  0  0  0
M  END
> <PUBCHEM_COMPOUND_CID>
5730500

> <PUBCHEM_CONFORMER_RMSD>
1.2

> <PUBCHEM_CONFORMER_DIVERSEORDER>
1
17
16
4
5
13
12
3
9
8
7
15
6
14
10
2
11

> <PUBCHEM_MMFF94_PARTIAL_CHARGES>
42
1 -0.57
11 0.12
12 0.12
13 -0.15
14 -0.15
15 -0.15
16 -0.15
17 -0.15
18 -0.15
19 -0.15
2 -0.57
20 -0.15
21 0.62
22 0.62
23 -0.14
24 -0.14
25 -0.14
26 -0.14
27 0.71
28 0.71
29 0.28
3 -0.43
30 0.28
33 0.15
34 0.15
35 0.15
36 0.15
37 0.15
38 0.15
39 0.15
4 -0.43
40 0.15
41 0.37
42 0.37
43 0.15
44 0.15
45 0.15
46 0.15
5 -0.57
6 -0.57
7 -0.55
8 -0.55

> <PUBCHEM_EFFECTIVE_ROTOR_COUNT>
13

> <PUBCHEM_PHARMACOPHORE_FEATURES>
8
1 1 acceptor
1 2 acceptor
1 5 acceptor
1 6 acceptor
1 7 donor
1 8 donor
6 10 12 14 16 18 20 rings
6 9 11 13 15 17 19 rings

> <PUBCHEM_HEAVY_ATOM_COUNT>
32

> <PUBCHEM_ATOM_DEF_STEREO_COUNT>
0

> <PUBCHEM_ATOM_UDEF_STEREO_COUNT>
0

> <PUBCHEM_BOND_DEF_STEREO_COUNT>
2

> <PUBCHEM_BOND_UDEF_STEREO_COUNT>
0

> <PUBCHEM_ISOTOPIC_ATOM_COUNT>
0

> <PUBCHEM_COMPONENT_COUNT>
1

> <PUBCHEM_CACTVS_TAUTO_COUNT>
3

> <PUBCHEM_CONFORMER_ID>
005770C400000001

> <PUBCHEM_MMFF94_ENERGY>
89.8956

> <PUBCHEM_FEATURE_SELFOVERLAP>
40.598

> <PUBCHEM_SHAPE_FINGERPRINT>
10675989 125 18264210201424577824
10904742 38 18340766043755765008
11582403 64 18410577279397421447
11607047 74 18117550731252822619
11725454 13 18266765560820628227
11954058 11 10701250913707582500
12156800 1 17270558616783181231
12422481 6 15647323105064744294
13726171 33 18343867711002900099
15513586 35 17186176794916176424
15803439 3 17489869366601675188
16114785 44 18264766752208361358
16120349 189 18411416258598991036
17899979 129 18129668478540499145
21033648 29 18186810188003561252
21304303 282 18198602514457048958
22149856 69 16230589728337210521
23559900 14 15505502491352728355
376196 1 18411145705476018371
4112364 45 18261663767122574265
4408954 64 11026080102137304413
44426701 194 17987258697929957465
57527358 35 18410565193359775318
58260988 114 10882217844521706316
59025328 239 16692758345869229319
5951187 136 18194965141108139761
59521099 67 17544469752838079841
6677587 24 18055051187294664245

> <PUBCHEM_SHAPE_MULTIPOLES>
613.37
15.22
7.79
3.44
0.01
5.08
0
44.21
0
0.01
0
0
-5.54
2.22

> <PUBCHEM_SHAPE_SELFOVERLAP>
1286.463

> <PUBCHEM_SHAPE_VOLUME>
343.3

> <PUBCHEM_COORDINATE_TYPE>
2
5
10

$$$$
