2976511
  -OEChem-01171809183D

 44 46  0     1  0  0  0  0  0999 V2000
   -7.2279    0.3545   -0.8736 O   0  0  0  0  0  0  0  0  0  0  0  0
   -5.4235   -1.3271   -0.2295 O   0  0  0  0  0  0  0  0  0  0  0  0
    2.5662   -1.8757    0.6606 O   0  0  0  0  0  0  0  0  0  0  0  0
    8.1476    0.9394   -0.4966 O   0  0  0  0  0  0  0  0  0  0  0  0
    7.4357   -1.2107   -0.6884 O   0  0  0  0  0  0  0  0  0  0  0  0
   -3.6658    0.2210   -0.4553 N   0  0  0  0  0  0  0  0  0  0  0  0
    1.1258   -0.1094    0.0828 N   0  0  0  0  0  0  0  0  0  0  0  0
   -5.9142    2.0255    0.1892 C   0  0  0  0  0  0  0  0  0  0  0  0
   -5.9112    0.9121   -0.8408 C   0  0  1  0  0  0  0  0  0  0  0  0
   -7.0344    1.6130    1.1139 C   0  0  0  0  0  0  0  0  0  0  0  0
   -8.0126    0.9721    0.1556 C   0  0  0  0  0  0  0  0  0  0  0  0
   -4.9874   -0.2065   -0.4728 C   0  0  0  0  0  0  0  0  0  0  0  0
   -2.5162   -0.5471   -0.1539 C   0  0  0  0  0  0  0  0  0  0  0  0
   -1.2699    0.0561   -0.1859 C   0  0  0  0  0  0  0  0  0  0  0  0
   -0.1372   -0.7016    0.1115 C   0  0  0  0  0  0  0  0  0  0  0  0
   -2.6621   -1.8865    0.1674 C   0  0  0  0  0  0  0  0  0  0  0  0
   -0.2668   -2.0519    0.4368 C   0  0  0  0  0  0  0  0  0  0  0  0
   -1.5294   -2.6442    0.4648 C   0  0  0  0  0  0  0  0  0  0  0  0
    3.5404    0.1990    0.2638 C   0  0  0  0  0  0  0  0  0  0  0  0
    2.3649   -0.7068    0.3493 C   0  0  0  0  0  0  0  0  0  0  0  0
    4.7719   -0.3363   -0.0502 C   0  0  0  0  0  0  0  0  0  0  0  0
    3.3608    1.5451    0.5035 C   0  0  0  0  0  0  0  0  0  0  0  0
    5.8749    0.5139   -0.1282 C   0  0  0  0  0  0  0  0  0  0  0  0
    4.4640    2.3952    0.4255 C   0  0  0  0  0  0  0  0  0  0  0  0
    5.7210    1.8796    0.1097 C   0  0  0  0  0  0  0  0  0  0  0  0
    7.1853   -0.0227   -0.4593 C   0  0  0  0  0  0  0  0  0  0  0  0
   -4.9717    2.1808    0.7210 H   0  0  0  0  0  0  0  0  0  0  0  0
   -6.1813    2.9713   -0.2983 H   0  0  0  0  0  0  0  0  0  0  0  0
   -5.6505    1.2758   -1.8405 H   0  0  0  0  0  0  0  0  0  0  0  0
   -7.4690    2.4443    1.6751 H   0  0  0  0  0  0  0  0  0  0  0  0
   -6.6687    0.8679    1.8303 H   0  0  0  0  0  0  0  0  0  0  0  0
   -8.6460    0.2223    0.6373 H   0  0  0  0  0  0  0  0  0  0  0  0
   -8.6549    1.7230   -0.3171 H   0  0  0  0  0  0  0  0  0  0  0  0
   -3.4809    1.1922   -0.6972 H   0  0  0  0  0  0  0  0  0  0  0  0
   -1.1729    1.1091   -0.4397 H   0  0  0  0  0  0  0  0  0  0  0  0
   -3.6026   -2.4155    0.2097 H   0  0  0  0  0  0  0  0  0  0  0  0
    0.5599   -2.7045    0.6787 H   0  0  0  0  0  0  0  0  0  0  0  0
   -1.6305   -3.6958    0.7182 H   0  0  0  0  0  0  0  0  0  0  0  0
    1.1141    0.8637   -0.2090 H   0  0  0  0  0  0  0  0  0  0  0  0
    4.8872   -1.3997   -0.2412 H   0  0  0  0  0  0  0  0  0  0  0  0
    2.4115    1.9830    0.7931 H   0  0  0  0  0  0  0  0  0  0  0  0
    4.3461    3.4573    0.6203 H   0  0  0  0  0  0  0  0  0  0  0  0
    6.5526    2.5769    0.0617 H   0  0  0  0  0  0  0  0  0  0  0  0
    9.0271    0.5674   -0.7212 H   0  0  0  0  0  0  0  0  0  0  0  0
  1  9  1  0  0  0  0
  1 11  1  0  0  0  0
  2 12  2  0  0  0  0
  3 20  2  0  0  0  0
  4 26  1  0  0  0  0
  4 44  1  0  0  0  0
  5 26  2  0  0  0  0
  6 12  1  0  0  0  0
  6 13  1  0  0  0  0
  6 34  1  0  0  0  0
  7 15  1  0  0  0  0
  7 20  1  0  0  0  0
  7 39  1  0  0  0  0
  8  9  1  0  0  0  0
  8 10  1  0  0  0  0
  8 27  1  0  0  0  0
  8 28  1  0  0  0  0
  9 12  1  0  0  0  0
  9 29  1  0  0  0  0
 10 11  1  0  0  0  0
 10 30  1  0  0  0  0
 10 31  1  0  0  0  0
 11 32  1  0  0  0  0
 11 33  1  0  0  0  0
 13 14  1  0  0  0  0
 13 16  2  0  0  0  0
 14 15  2  0  0  0  0
 14 35  1  0  0  0  0
 15 17  1  0  0  0  0
 16 18  1  0  0  0  0
 16 36  1  0  0  0  0
 17 18  2  0  0  0  0
 17 37  1  0  0  0  0
 18 38  1  0  0  0  0
 19 20  1  0  0  0  0
 19 21  2  0  0  0  0
 19 22  1  0  0  0  0
 21 23  1  0  0  0  0
 21 40  1  0  0  0  0
 22 24  2  0  0  0  0
 22 41  1  0  0  0  0
 23 25  2  0  0  0  0
 23 26  1  0  0  0  0
 24 25  1  0  0  0  0
 24 42  1  0  0  0  0
 25 43  1  0  0  0  0
M  END
> <PUBCHEM_COMPOUND_CID>
2976511

> <PUBCHEM_CONFORMER_RMSD>
0.8

> <PUBCHEM_CONFORMER_DIVERSEORDER>
2
131
274
49
178
7
184
106
47
4
138
175
110
116
25
255
163
237
154
9
58
162
253
169
144
121
30
31
273
158
260
155
270
198
151
141
19
71
126
147
221
24
77
214
244
165
161
134
124
261
91
194
42
222
208
215
125
69
248
56
10
127
247
1
277
196
102
90
120
20
44
241
39
64
174
122
259
200
172
89
150
72
12
149
262
86
264
130
216
272
117
21
70
29
171
223
284
156
249
167
230
267
111
128
250
190
176
22
123
143
193
153
6
199
68
246
146
285
202
27
28
276
26
243
129
50
235
271
114
204
233
240
185
82
100
67
231
38
220
258
234
197
266
207
279
236
164
238
18
119
181
263
177
34
3
159
23
242
140
269
115
157
101
142
183
113
281
81
268
104
209
179
245
97
170
96
224
98
60
239
99
251
43
145
36
205
282
80
210
252
135
189
133
108
212
109
265
211
37
283
275
203
136
87
168
35
52
112
229
227
218
280
74
160
95
84
118
219
256
201
137
94
132
57
195
226
192
63
232
93
225
5
88
217
15
65
59
254
53
66
186
152
182
180
54
61
73
278
148
257
40
48
85
187
103
139
17
62
213
228
173
76
79
11
78
188
32
16
55
107
166
83
51
191
92
13
45
41
33
75
105
14
46
206
8

> <PUBCHEM_MMFF94_PARTIAL_CHARGES>
35
1 -0.56
11 0.28
12 0.57
13 0.12
14 -0.15
15 0.12
16 -0.15
17 -0.15
18 -0.15
19 0.09
2 -0.57
20 0.54
21 -0.15
22 -0.15
23 0.09
24 -0.15
25 -0.15
26 0.63
3 -0.57
34 0.37
35 0.15
36 0.15
37 0.15
38 0.15
39 0.37
4 -0.65
40 0.15
41 0.15
42 0.15
43 0.15
44 0.5
5 -0.57
6 -0.55
7 -0.55
9 0.34

> <PUBCHEM_EFFECTIVE_ROTOR_COUNT>
8

> <PUBCHEM_PHARMACOPHORE_FEATURES>
11
1 1 acceptor
1 2 acceptor
1 3 acceptor
1 4 acceptor
1 5 acceptor
1 6 donor
1 7 donor
3 4 5 26 anion
5 1 8 9 10 11 rings
6 13 14 15 16 17 18 rings
6 19 21 22 23 24 25 rings

> <PUBCHEM_HEAVY_ATOM_COUNT>
26

> <PUBCHEM_ATOM_DEF_STEREO_COUNT>
0

> <PUBCHEM_ATOM_UDEF_STEREO_COUNT>
1

> <PUBCHEM_BOND_DEF_STEREO_COUNT>
0

> <PUBCHEM_BOND_UDEF_STEREO_COUNT>
0

> <PUBCHEM_ISOTOPIC_ATOM_COUNT>
0

> <PUBCHEM_COMPONENT_COUNT>
1

> <PUBCHEM_CACTVS_TAUTO_COUNT>
4

> <PUBCHEM_CONFORMER_ID>
002D6AFF00000002

> <PUBCHEM_MMFF94_ENERGY>
81.6647

> <PUBCHEM_FEATURE_SELFOVERLAP>
55.895

> <PUBCHEM_SHAPE_FINGERPRINT>
10 15 17676205754609206425
10411042 1 17759806241018588531
106641 1 12612757925830639244
10670039 82 17060342881885012225
10674148 151 18260264162541624288
10835480 77 18270676606033871840
11408170 132 18337962281511754828
11410812 94 14907627739931493322
12082328 90 17989483044212063087
13177829 20 13190344573418903492
13533116 47 17313935338900170378
13914758 101 17275110500543156560
13968360 50 16487259846228674606
14251764 18 18113613491587642747
14257110 125 18410011031562439081
14394314 77 18340773629470103553
14556957 393 15266793216360941057
14933364 13 18410573989757810765
15064981 194 18265350570985601476
15183329 4 18343019977887855073
15357212 105 16952556807852959660
15690457 1 8142080953545455929
1577012 14 18334005095137360699
15778101 99 18408886265295295819
1754911 235 18341322341658686061
18006028 8 9799688203801445235
18335252 114 18343577439263591972
190975 80 7853571301429304356
19611394 137 17969515981929370403
20281389 69 18114176415676243181
20721686 124 18131071494127414678
21033648 29 18264479754199029640
21095123 145 16515979133075177987
21585482 111 18192150400649302149
21623969 137 11891324344416624800
21774942 28 17632305514522875896
221357 26 18343018892094844960
22224240 67 12901549048396347768
23559900 14 18340482378814205440
2838139 119 18272929432117556029
29717793 49 17704076196708942388
335352 9 18410575098102005492
3545911 37 18261108590991392998
4073 2 18114747139272908122
4340502 62 15936407819105259195
445580 204 18060424582113018953
5104073 3 17968368035143319506
5385378 56 18113896022883968722
5758199 1 18259704489010076011
59682541 35 17023190435601202321
59682541 52 16988846068852368430
59755656 215 18409167697649121414
59755656 520 18334288782090930591
9953998 17 13840269187291526789

> <PUBCHEM_SHAPE_MULTIPOLES>
495.76
24.59
2.34
0.81
1.86
0.28
0.02
-12.68
-3.3
0.33
0.52
0.47
-0.07
-0.05

> <PUBCHEM_SHAPE_SELFOVERLAP>
1075.67

> <PUBCHEM_SHAPE_VOLUME>
270.6

> <PUBCHEM_COORDINATE_TYPE>
2
5
10

$$$$
