44142149
  -OEChem-01171810113D

 38 42  0     0  0  0  0  0  0999 V2000
    3.4833   -1.9862   -1.3640 S   0  0  0  0  0  0  0  0  0  0  0  0
    0.5040    1.2291    1.7144 S   0  0  0  0  0  0  0  0  0  0  0  0
    4.3994    0.3676   -0.5162 N   0  0  0  0  0  0  0  0  0  0  0  0
    2.9836    1.7598    0.8752 N   0  0  0  0  0  0  0  0  0  0  0  0
   -1.6987    2.5732    0.6664 N   0  0  0  0  0  0  0  0  0  0  0  0
   -0.1003    2.3310   -0.7791 N   0  0  0  0  0  0  0  0  0  0  0  0
   -2.1493    3.1484   -0.4572 N   0  0  0  0  0  0  0  0  0  0  0  0
   -1.1675    2.9975   -1.3377 N   0  0  0  0  0  0  0  0  0  0  0  0
   -0.0322   -1.7177    0.3777 C   0  0  0  0  0  0  0  0  0  0  0  0
    1.3073   -1.4745   -0.0997 C   0  0  0  0  0  0  0  0  0  0  0  0
   -1.1717   -1.3237   -0.3425 C   0  0  0  0  0  0  0  0  0  0  0  0
    2.1559   -0.3443    0.1215 C   0  0  0  0  0  0  0  0  0  0  0  0
   -2.4548   -1.5962    0.1890 C   0  0  0  0  0  0  0  0  0  0  0  0
   -0.1558   -2.3710    1.6042 C   0  0  0  0  0  0  0  0  0  0  0  0
    3.3759   -0.5087   -0.5216 C   0  0  0  0  0  0  0  0  0  0  0  0
    1.9033   -2.4357   -0.8867 C   0  0  0  0  0  0  0  0  0  0  0  0
   -1.0660   -0.6652   -1.5785 C   0  0  0  0  0  0  0  0  0  0  0  0
   -2.5605   -2.2546    1.4250 C   0  0  0  0  0  0  0  0  0  0  0  0
    1.9900    0.8464    0.8363 C   0  0  0  0  0  0  0  0  0  0  0  0
   -1.4176   -2.6389    2.1268 C   0  0  0  0  0  0  0  0  0  0  0  0
   -3.5943   -1.2021   -0.5311 C   0  0  0  0  0  0  0  0  0  0  0  0
   -2.2089   -0.2809   -2.2803 C   0  0  0  0  0  0  0  0  0  0  0  0
   -3.4706   -0.5489   -1.7576 C   0  0  0  0  0  0  0  0  0  0  0  0
    4.1147    1.4674    0.2039 C   0  0  0  0  0  0  0  0  0  0  0  0
   -0.4504    2.0782    0.4610 C   0  0  0  0  0  0  0  0  0  0  0  0
   -2.5188    2.5500    1.8511 C   0  0  0  0  0  0  0  0  0  0  0  0
    0.7214   -2.6786    2.1691 H   0  0  0  0  0  0  0  0  0  0  0  0
    1.4969   -3.3843   -1.2120 H   0  0  0  0  0  0  0  0  0  0  0  0
   -0.1052   -0.4333   -2.0307 H   0  0  0  0  0  0  0  0  0  0  0  0
   -3.5365   -2.4738    1.8528 H   0  0  0  0  0  0  0  0  0  0  0  0
   -1.5133   -3.1469    3.0820 H   0  0  0  0  0  0  0  0  0  0  0  0
   -4.5905   -1.4005   -0.1413 H   0  0  0  0  0  0  0  0  0  0  0  0
   -2.1136    0.2290   -3.2345 H   0  0  0  0  0  0  0  0  0  0  0  0
   -4.3598   -0.2484   -2.3040 H   0  0  0  0  0  0  0  0  0  0  0  0
    4.8969    2.2169    0.2506 H   0  0  0  0  0  0  0  0  0  0  0  0
   -1.9929    3.0807    2.6483 H   0  0  0  0  0  0  0  0  0  0  0  0
   -3.4721    3.0440    1.6454 H   0  0  0  0  0  0  0  0  0  0  0  0
   -2.6967    1.5084    2.1293 H   0  0  0  0  0  0  0  0  0  0  0  0
  1 15  1  0  0  0  0
  1 16  1  0  0  0  0
  2 19  1  0  0  0  0
  2 25  1  0  0  0  0
  3 15  1  0  0  0  0
  3 24  2  0  0  0  0
  4 19  2  0  0  0  0
  4 24  1  0  0  0  0
  5  7  1  0  0  0  0
  5 25  1  0  0  0  0
  5 26  1  0  0  0  0
  6  8  1  0  0  0  0
  6 25  2  0  0  0  0
  7  8  2  0  0  0  0
  9 10  1  0  0  0  0
  9 11  1  0  0  0  0
  9 14  2  0  0  0  0
 10 12  1  0  0  0  0
 10 16  2  0  0  0  0
 11 13  1  0  0  0  0
 11 17  2  0  0  0  0
 12 15  2  0  0  0  0
 12 19  1  0  0  0  0
 13 18  1  0  0  0  0
 13 21  2  0  0  0  0
 14 20  1  0  0  0  0
 14 27  1  0  0  0  0
 16 28  1  0  0  0  0
 17 22  1  0  0  0  0
 17 29  1  0  0  0  0
 18 20  2  0  0  0  0
 18 30  1  0  0  0  0
 20 31  1  0  0  0  0
 21 23  1  0  0  0  0
 21 32  1  0  0  0  0
 22 23  2  0  0  0  0
 22 33  1  0  0  0  0
 23 34  1  0  0  0  0
 24 35  1  0  0  0  0
 26 36  1  0  0  0  0
 26 37  1  0  0  0  0
 26 38  1  0  0  0  0
M  END
> <PUBCHEM_COMPOUND_CID>
44142149

> <PUBCHEM_CONFORMER_RMSD>
0.6

> <PUBCHEM_CONFORMER_DIVERSEORDER>
1
29
50
49
45
47
2
22
48
23
54
52
30
16
36
38
17
31
13
4
39
28
41
19
21
46
32
27
51
37
3
34
8
11
33
25
44
53
7
12
40
42
24
26
20
6
18
5
43
35
15
14
9
10

> <PUBCHEM_MMFF94_PARTIAL_CHARGES>
31
1 -0.08
10 -0.05
14 -0.15
15 0.3
16 -0.11
17 -0.15
18 -0.15
19 0.41
2 -0.16
20 -0.15
21 -0.15
22 -0.15
23 -0.15
24 0.47
25 0.24
26 0.26
27 0.15
28 0.15
29 0.15
3 -0.57
30 0.15
31 0.15
32 0.15
33 0.15
34 0.15
35 0.15
4 -0.62
5 0.31
6 -0.34
7 -0.42
9 0.05

> <PUBCHEM_EFFECTIVE_ROTOR_COUNT>
3

> <PUBCHEM_PHARMACOPHORE_FEATURES>
8
1 4 acceptor
3 3 4 24 cation
3 5 6 25 cation
5 1 10 12 15 16 rings
5 5 6 7 8 25 rings
6 11 13 17 21 22 23 rings
6 3 4 12 15 19 24 rings
6 9 11 13 14 18 20 rings

> <PUBCHEM_HEAVY_ATOM_COUNT>
26

> <PUBCHEM_ATOM_DEF_STEREO_COUNT>
0

> <PUBCHEM_ATOM_UDEF_STEREO_COUNT>
0

> <PUBCHEM_BOND_DEF_STEREO_COUNT>
0

> <PUBCHEM_BOND_UDEF_STEREO_COUNT>
0

> <PUBCHEM_ISOTOPIC_ATOM_COUNT>
0

> <PUBCHEM_COMPONENT_COUNT>
1

> <PUBCHEM_CACTVS_TAUTO_COUNT>
1

> <PUBCHEM_CONFORMER_ID>
02A18E4500000001

> <PUBCHEM_MMFF94_ENERGY>
66.3224

> <PUBCHEM_FEATURE_SELFOVERLAP>
40.705

> <PUBCHEM_SHAPE_FINGERPRINT>
10165383 225 16318956862825870201
104564 63 18343866627626902888
1100329 8 17688020917045020010
11112662 9 17484256162706366257
12156800 1 17545380380230770533
12236239 1 16486427592962097354
12422481 6 17700165186625441643
12788726 201 18337379504765337881
13140716 1 17766268057594254808
13544592 271 18122331634705037650
13911987 19 18051695744051952540
14251745 187 18341322357794056408
14955137 171 16969165098520516632
16945 1 17988352792838873194
17357779 13 18343020046717971328
18219364 16 18053662765748307362
19930381 70 17768801314762039751
20465049 17 17619634575099489669
20510252 161 17967530203077799631
20600515 1 17604423140861391582
20691752 17 18188204299980423813
20905425 154 17403393829707842477
21236236 1 18342458128363894044
23419403 2 17827642774643862593
23557571 272 18041848431872300214
23558518 356 18337110073077001748
23559900 14 17894907447848355446
2748010 2 17835229422145148032
3380486 145 18121226638431009074
35225 105 17907042602421140199
469060 322 16733566995243895995
57527452 28 15100919436163725821
6438718 38 18059862701368739163
70251023 43 18129934594487371719
81228 2 18409168813597047184

> <PUBCHEM_SHAPE_MULTIPOLES>
512.88
6.17
3.87
1.99
4.16
2.09
0.06
-0.33
-1.55
-1.52
0.84
-1.46
-0.42
0.97

> <PUBCHEM_SHAPE_SELFOVERLAP>
1133.768

> <PUBCHEM_SHAPE_VOLUME>
277.1

> <PUBCHEM_COORDINATE_TYPE>
2
5
10

$$$$
