16437205
  -OEChem-01171810053D

 54 56  0     1  0  0  0  0  0999 V2000
   -4.6270   -3.5360   -0.0060 Cl  0  0  0  0  0  0  0  0  0  0  0  0
    4.2384   -1.3185    0.2271 S   0  0  0  0  0  0  0  0  0  0  0  0
   -5.8851    2.4563    0.1321 S   0  0  0  0  0  0  0  0  0  0  0  0
    4.6727   -1.8317    1.5057 O   0  0  0  0  0  0  0  0  0  0  0  0
    4.5860   -1.9826   -1.0077 O   0  0  0  0  0  0  0  0  0  0  0  0
   -2.3835   -1.9128   -1.4860 O   0  0  0  0  0  0  0  0  0  0  0  0
   -6.5123    2.7686    1.4157 O   0  0  0  0  0  0  0  0  0  0  0  0
   -4.7124    3.2247   -0.2867 O   0  0  0  0  0  0  0  0  0  0  0  0
    4.6959    0.3252    0.1109 N   0  0  1  0  0  0  0  0  0  0  0  0
   -1.6591   -0.7127    0.4017 N   0  0  0  0  0  0  0  0  0  0  0  0
   -4.2420    0.4385   -0.1769 N   0  0  0  0  0  0  0  0  0  0  0  0
   -6.5419   -0.0730    0.3297 N   0  0  0  0  0  0  0  0  0  0  0  0
    6.0990    0.6743    0.5095 C   0  0  2  0  0  0  0  0  0  0  0  0
    6.2068    2.1903    0.7178 C   0  0  0  0  0  0  0  0  0  0  0  0
    5.6960    2.9906   -0.4774 C   0  0  0  0  0  0  0  0  0  0  0  0
    4.1851    1.0644   -1.0779 C   0  0  0  0  0  0  0  0  0  0  0  0
    4.2770    2.5662   -0.8386 C   0  0  0  0  0  0  0  0  0  0  0  0
    7.1263    0.1433   -0.4883 C   0  0  0  0  0  0  0  0  0  0  0  0
    8.5428    0.3938   -0.0090 C   0  0  0  0  0  0  0  0  0  0  0  0
    2.4845   -1.1385    0.2789 C   0  0  0  0  0  0  0  0  0  0  0  0
    1.7106   -1.7321   -0.7059 C   0  0  0  0  0  0  0  0  0  0  0  0
    1.9066   -0.4059    1.3039 C   0  0  0  0  0  0  0  0  0  0  0  0
    0.3237   -1.5897   -0.6646 C   0  0  0  0  0  0  0  0  0  0  0  0
    0.5196   -0.2635    1.3452 C   0  0  0  0  0  0  0  0  0  0  0  0
   -0.2718   -0.8554    0.3609 C   0  0  0  0  0  0  0  0  0  0  0  0
   -2.6063   -1.2304   -0.4918 C   0  0  0  0  0  0  0  0  0  0  0  0
   -4.0202   -0.8800   -0.1954 C   0  0  0  0  0  0  0  0  0  0  0  0
   -4.9501   -1.8531    0.0265 C   0  0  0  0  0  0  0  0  0  0  0  0
   -5.5195    0.7702    0.0908 C   0  0  0  0  0  0  0  0  0  0  0  0
   -6.2205   -1.3829    0.2897 C   0  0  0  0  0  0  0  0  0  0  0  0
   -7.1193    2.6924   -1.1339 C   0  0  0  0  0  0  0  0  0  0  0  0
    6.2880    0.2127    1.4876 H   0  0  0  0  0  0  0  0  0  0  0  0
    5.5914    2.4589    1.5880 H   0  0  0  0  0  0  0  0  0  0  0  0
    7.2240    2.5020    0.9720 H   0  0  0  0  0  0  0  0  0  0  0  0
    5.7089    4.0597   -0.2367 H   0  0  0  0  0  0  0  0  0  0  0  0
    6.3594    2.8515   -1.3385 H   0  0  0  0  0  0  0  0  0  0  0  0
    4.7598    0.7833   -1.9669 H   0  0  0  0  0  0  0  0  0  0  0  0
    3.1384    0.8248   -1.2789 H   0  0  0  0  0  0  0  0  0  0  0  0
    3.9468    3.1051   -1.7337 H   0  0  0  0  0  0  0  0  0  0  0  0
    3.5975    2.8482   -0.0244 H   0  0  0  0  0  0  0  0  0  0  0  0
    7.0018   -0.9383   -0.6101 H   0  0  0  0  0  0  0  0  0  0  0  0
    6.9978    0.5804   -1.4839 H   0  0  0  0  0  0  0  0  0  0  0  0
    9.2497   -0.1522   -0.6430 H   0  0  0  0  0  0  0  0  0  0  0  0
    8.6868    0.0505    1.0203 H   0  0  0  0  0  0  0  0  0  0  0  0
    8.8155    1.4512   -0.0691 H   0  0  0  0  0  0  0  0  0  0  0  0
    2.1507   -2.3100   -1.5126 H   0  0  0  0  0  0  0  0  0  0  0  0
    2.5116    0.0588    2.0771 H   0  0  0  0  0  0  0  0  0  0  0  0
   -0.2195   -2.0777   -1.4614 H   0  0  0  0  0  0  0  0  0  0  0  0
    0.0690    0.3114    2.1502 H   0  0  0  0  0  0  0  0  0  0  0  0
   -2.0189   -0.1598    1.1771 H   0  0  0  0  0  0  0  0  0  0  0  0
   -7.0492   -2.0571    0.4830 H   0  0  0  0  0  0  0  0  0  0  0  0
   -7.3736    3.7542   -1.1643 H   0  0  0  0  0  0  0  0  0  0  0  0
   -8.0045    2.1052   -0.8832 H   0  0  0  0  0  0  0  0  0  0  0  0
   -6.7034    2.3802   -2.0938 H   0  0  0  0  0  0  0  0  0  0  0  0
  1 28  1  0  0  0  0
  2  4  2  0  0  0  0
  2  5  2  0  0  0  0
  2  9  1  0  0  0  0
  2 20  1  0  0  0  0
  3  7  2  0  0  0  0
  3  8  2  0  0  0  0
  3 29  1  0  0  0  0
  3 31  1  0  0  0  0
  6 26  2  0  0  0  0
  9 13  1  0  0  0  0
  9 16  1  0  0  0  0
 10 25  1  0  0  0  0
 10 26  1  0  0  0  0
 10 50  1  0  0  0  0
 11 27  2  0  0  0  0
 11 29  1  0  0  0  0
 12 29  2  0  0  0  0
 12 30  1  0  0  0  0
 13 14  1  0  0  0  0
 13 18  1  0  0  0  0
 13 32  1  0  0  0  0
 14 15  1  0  0  0  0
 14 33  1  0  0  0  0
 14 34  1  0  0  0  0
 15 17  1  0  0  0  0
 15 35  1  0  0  0  0
 15 36  1  0  0  0  0
 16 17  1  0  0  0  0
 16 37  1  0  0  0  0
 16 38  1  0  0  0  0
 17 39  1  0  0  0  0
 17 40  1  0  0  0  0
 18 19  1  0  0  0  0
 18 41  1  0  0  0  0
 18 42  1  0  0  0  0
 19 43  1  0  0  0  0
 19 44  1  0  0  0  0
 19 45  1  0  0  0  0
 20 21  2  0  0  0  0
 20 22  1  0  0  0  0
 21 23  1  0  0  0  0
 21 46  1  0  0  0  0
 22 24  2  0  0  0  0
 22 47  1  0  0  0  0
 23 25  2  0  0  0  0
 23 48  1  0  0  0  0
 24 25  1  0  0  0  0
 24 49  1  0  0  0  0
 26 27  1  0  0  0  0
 27 28  1  0  0  0  0
 28 30  2  0  0  0  0
 30 51  1  0  0  0  0
 31 52  1  0  0  0  0
 31 53  1  0  0  0  0
 31 54  1  0  0  0  0
M  END
> <PUBCHEM_COMPOUND_CID>
16437205

> <PUBCHEM_CONFORMER_RMSD>
1

> <PUBCHEM_CONFORMER_DIVERSEORDER>
4
19
79
110
142
84
92
100
25
95
91
99
51
130
116
39
125
128
33
73
138
18
77
112
89
135
41
55
132
48
15
139
86
136
30
57
5
63
90
93
72
133
123
143
3
28
114
124
106
104
9
42
58
62
101
43
81
97
105
74
109
35
120
47
6
117
83
80
131
122
87
32
65
121
53
129
23
141
60
85
52
29
49
38
27
20
40
61
127
98
36
56
34
8
96
94
50
68
88
66
113
111
107
108
31
145
64
137
71
102
26
44
10
69
134
54
103
24
11
76
78
70
119
13
37
21
118
14
7
126
75
140
45
16
82
67
144
2
12
46
17
59
22
1
115

> <PUBCHEM_MMFF94_PARTIAL_CHARGES>
32
1 -0.18
10 -0.55
11 -0.62
12 -0.62
13 0.36
16 0.36
2 1.45
20 -0.01
21 -0.15
22 -0.15
23 -0.15
24 -0.15
25 0.12
26 0.54
27 0.4
28 0.18
29 0.61
3 1.2
30 0.16
31 0.11
4 -0.65
46 0.15
47 0.15
48 0.15
49 0.15
5 -0.65
50 0.37
51 0.15
6 -0.57
7 -0.65
8 -0.65
9 -0.85

> <PUBCHEM_EFFECTIVE_ROTOR_COUNT>
8.2

> <PUBCHEM_PHARMACOPHORE_FEATURES>
12
1 10 donor
1 11 acceptor
1 19 hydrophobe
1 4 acceptor
1 5 acceptor
1 6 acceptor
1 7 acceptor
1 8 acceptor
3 11 12 29 cation
6 11 12 27 28 29 30 rings
6 20 21 22 23 24 25 rings
6 9 13 14 15 16 17 rings

> <PUBCHEM_HEAVY_ATOM_COUNT>
31

> <PUBCHEM_ATOM_DEF_STEREO_COUNT>
0

> <PUBCHEM_ATOM_UDEF_STEREO_COUNT>
1

> <PUBCHEM_BOND_DEF_STEREO_COUNT>
0

> <PUBCHEM_BOND_UDEF_STEREO_COUNT>
0

> <PUBCHEM_ISOTOPIC_ATOM_COUNT>
0

> <PUBCHEM_COMPONENT_COUNT>
1

> <PUBCHEM_CACTVS_TAUTO_COUNT>
2

> <PUBCHEM_CONFORMER_ID>
00FACFD500000004

> <PUBCHEM_MMFF94_ENERGY>
66.6943

> <PUBCHEM_FEATURE_SELFOVERLAP>
60.937

> <PUBCHEM_SHAPE_FINGERPRINT>
10 15 18334862689111981499
10066227 112 18341610395702334657
10554248 39 18059003969971422023
10595046 47 18335980977561841411
10673678 19 18343587373712481212
10835480 77 18341894056664502831
11456790 92 18114175333882523128
11646440 116 15719109163017999054
11991303 11 17275097371002590599
12236239 1 18341612672351740046
13167372 99 18408602569925715264
13533116 47 17313371319848266330
13690498 29 17487609956454484095
13911987 19 17132113520831644855
14211702 104 8430317965136849017
14849402 71 17822015362886203812
14856354 85 18339082721966687039
14933364 13 18411139147081926538
15183329 4 18411136943716250425
15419008 145 18187915154788669792
15604295 49 18201150066504824792
1577012 14 18335134267619028131
16989713 51 17416958625141242839
16994733 274 18333729139388752744
17844677 252 18408327678817637571
19304144 158 18201154472681379150
19611394 137 17971203753636980379
20058555 10 18410855469109253117
20715895 44 18412827980416221636
21298829 104 18337391643081621772
21424621 283 18186520990380136763
21585482 111 18261954055066955380
21792961 116 17846503620881775882
22122407 14 18335430105035273400
23569914 2 17760596587124024613
2838139 119 18337953493095562892
335507 130 18340490061999677015
3418910 222 18043264628866547629
34797466 226 18059585705832188391
3663271 9 18113896057111786491
4073 2 18042126612429890074
4098825 35 18410856551435165314
4144715 1 18335712645522744691
465052 167 11169903988461727082
5104073 3 18040715870275853659
6328613 192 18413106139493758529
99344 41 18411136935748652054

> <PUBCHEM_SHAPE_MULTIPOLES>
598.26
23.98
3.67
1.12
3.54
1.8
0.09
13.61
-0.06
-4.59
-0.44
0.22
0.04
-0.59

> <PUBCHEM_SHAPE_SELFOVERLAP>
1229.629

> <PUBCHEM_SHAPE_VOLUME>
345.2

> <PUBCHEM_COORDINATE_TYPE>
2
5
10

$$$$
