2227937
  -OEChem-01171809193D

 47 49  0     0  0  0  0  0  0999 V2000
   -6.0902    2.8464    0.5761 O   0  0  0  0  0  0  0  0  0  0  0  0
    2.0198   -0.2389   -1.3269 O   0  0  0  0  0  0  0  0  0  0  0  0
   -0.6242   -2.4236    1.5163 O   0  0  0  0  0  0  0  0  0  0  0  0
   -5.1646    0.2808   -0.2381 N   0  0  0  0  0  0  0  0  0  0  0  0
   -1.5406   -2.0909   -0.5886 N   0  0  0  0  0  0  0  0  0  0  0  0
    0.7585   -0.8195   -1.2730 N   0  0  0  0  0  0  0  0  0  0  0  0
   -4.1498   -0.6169   -0.7858 C   0  0  0  0  0  0  0  0  0  0  0  0
   -4.6890    0.9120    1.0007 C   0  0  0  0  0  0  0  0  0  0  0  0
   -5.5338    1.3112   -1.2186 C   0  0  0  0  0  0  0  0  0  0  0  0
   -3.8488   -1.7424    0.2053 C   0  0  0  0  0  0  0  0  0  0  0  0
   -5.7598    1.8523    1.5466 C   0  0  0  0  0  0  0  0  0  0  0  0
   -6.5839    2.2431   -0.6206 C   0  0  0  0  0  0  0  0  0  0  0  0
   -2.8056   -2.7210   -0.3265 C   0  0  0  0  0  0  0  0  0  0  0  0
   -0.5382   -1.9925    0.3694 C   0  0  0  0  0  0  0  0  0  0  0  0
    0.7010   -1.2887   -0.0502 C   0  0  0  0  0  0  0  0  0  0  0  0
    2.6381   -0.3985   -0.1288 C   0  0  0  0  0  0  0  0  0  0  0  0
    1.8133   -1.0766    0.7291 C   0  0  0  0  0  0  0  0  0  0  0  0
    3.9583    0.1537   -0.0329 C   0  0  0  0  0  0  0  0  0  0  0  0
    4.6843    0.0444    1.1578 C   0  0  0  0  0  0  0  0  0  0  0  0
    4.5311    0.8062   -1.1298 C   0  0  0  0  0  0  0  0  0  0  0  0
    6.5339    1.2306    0.1531 C   0  0  0  0  0  0  0  0  0  0  0  0
    5.9684    0.5813    1.2505 C   0  0  0  0  0  0  0  0  0  0  0  0
    5.8153    1.3430   -1.0371 C   0  0  0  0  0  0  0  0  0  0  0  0
    7.9065    1.8047    0.2521 C   0  0  0  0  0  0  0  0  0  0  0  0
   -3.2349   -0.0635   -1.0325 H   0  0  0  0  0  0  0  0  0  0  0  0
   -4.5195   -1.0649   -1.7167 H   0  0  0  0  0  0  0  0  0  0  0  0
   -4.5011    0.1867    1.7958 H   0  0  0  0  0  0  0  0  0  0  0  0
   -3.7647    1.4747    0.8161 H   0  0  0  0  0  0  0  0  0  0  0  0
   -4.6503    1.8956   -1.5072 H   0  0  0  0  0  0  0  0  0  0  0  0
   -5.9445    0.8472   -2.1226 H   0  0  0  0  0  0  0  0  0  0  0  0
   -4.7689   -2.2941    0.4340 H   0  0  0  0  0  0  0  0  0  0  0  0
   -3.4522   -1.3598    1.1502 H   0  0  0  0  0  0  0  0  0  0  0  0
   -6.6672    1.3086    1.8371 H   0  0  0  0  0  0  0  0  0  0  0  0
   -5.3847    2.3690    2.4359 H   0  0  0  0  0  0  0  0  0  0  0  0
   -7.5194    1.7128   -0.4041 H   0  0  0  0  0  0  0  0  0  0  0  0
   -6.8149    3.0466   -1.3272 H   0  0  0  0  0  0  0  0  0  0  0  0
   -2.6604   -3.5323    0.3953 H   0  0  0  0  0  0  0  0  0  0  0  0
   -3.1472   -3.1685   -1.2660 H   0  0  0  0  0  0  0  0  0  0  0  0
   -1.3841   -1.6962   -1.5116 H   0  0  0  0  0  0  0  0  0  0  0  0
    2.0072   -1.3617    1.7526 H   0  0  0  0  0  0  0  0  0  0  0  0
    4.2712   -0.4561    2.0300 H   0  0  0  0  0  0  0  0  0  0  0  0
    4.0036    0.9139   -2.0745 H   0  0  0  0  0  0  0  0  0  0  0  0
    6.5192    0.4859    2.1826 H   0  0  0  0  0  0  0  0  0  0  0  0
    6.2461    1.8451   -1.8993 H   0  0  0  0  0  0  0  0  0  0  0  0
    8.6484    1.0588   -0.0500 H   0  0  0  0  0  0  0  0  0  0  0  0
    8.1280    2.1254    1.2758 H   0  0  0  0  0  0  0  0  0  0  0  0
    8.0134    2.6861   -0.3895 H   0  0  0  0  0  0  0  0  0  0  0  0
  1 11  1  0  0  0  0
  1 12  1  0  0  0  0
  2  6  1  0  0  0  0
  2 16  1  0  0  0  0
  3 14  2  0  0  0  0
  4  7  1  0  0  0  0
  4  8  1  0  0  0  0
  4  9  1  0  0  0  0
  5 13  1  0  0  0  0
  5 14  1  0  0  0  0
  5 39  1  0  0  0  0
  6 15  2  0  0  0  0
  7 10  1  0  0  0  0
  7 25  1  0  0  0  0
  7 26  1  0  0  0  0
  8 11  1  0  0  0  0
  8 27  1  0  0  0  0
  8 28  1  0  0  0  0
  9 12  1  0  0  0  0
  9 29  1  0  0  0  0
  9 30  1  0  0  0  0
 10 13  1  0  0  0  0
 10 31  1  0  0  0  0
 10 32  1  0  0  0  0
 11 33  1  0  0  0  0
 11 34  1  0  0  0  0
 12 35  1  0  0  0  0
 12 36  1  0  0  0  0
 13 37  1  0  0  0  0
 13 38  1  0  0  0  0
 14 15  1  0  0  0  0
 15 17  1  0  0  0  0
 16 17  2  0  0  0  0
 16 18  1  0  0  0  0
 17 40  1  0  0  0  0
 18 19  2  0  0  0  0
 18 20  1  0  0  0  0
 19 22  1  0  0  0  0
 19 41  1  0  0  0  0
 20 23  2  0  0  0  0
 20 42  1  0  0  0  0
 21 22  2  0  0  0  0
 21 23  1  0  0  0  0
 21 24  1  0  0  0  0
 22 43  1  0  0  0  0
 23 44  1  0  0  0  0
 24 45  1  0  0  0  0
 24 46  1  0  0  0  0
 24 47  1  0  0  0  0
M  END
> <PUBCHEM_COMPOUND_CID>
2227937

> <PUBCHEM_CONFORMER_RMSD>
0.8

> <PUBCHEM_CONFORMER_DIVERSEORDER>
1
61
97
21
107
45
76
105
52
38
66
62
26
10
47
50
31
81
33
40
72
106
3
96
70
95
30
100
74
73
102
79
104
18
86
46
93
22
53
60
49
98
24
90
88
108
6
71
16
84
109
83
4
12
78
41
37
80
103
82
35
34
36
23
67
94
85
89
42
44
57
69
68
13
58
11
5
65
29
7
64
101
48
32
77
87
91
75
56
19
20
55
14
17
9
92
15
8
39
43
25
63
2
54
28
27
51
99
59

> <PUBCHEM_MMFF94_PARTIAL_CHARGES>
29
1 -0.56
11 0.28
12 0.28
13 0.3
14 0.72
15 0.2
16 0.09
17 -0.15
18 0.05
19 -0.15
2 -0.02
20 -0.15
21 -0.14
22 -0.15
23 -0.15
24 0.14
3 -0.57
39 0.37
4 -0.81
40 0.15
41 0.15
42 0.15
43 0.15
44 0.15
5 -0.73
6 -0.41
7 0.27
8 0.27
9 0.27

> <PUBCHEM_EFFECTIVE_ROTOR_COUNT>
8.2

> <PUBCHEM_PHARMACOPHORE_FEATURES>
8
1 1 acceptor
1 3 acceptor
1 4 cation
1 5 donor
1 6 acceptor
5 2 6 15 16 17 rings
6 1 4 8 9 11 12 rings
6 18 19 20 21 22 23 rings

> <PUBCHEM_HEAVY_ATOM_COUNT>
24

> <PUBCHEM_ATOM_DEF_STEREO_COUNT>
0

> <PUBCHEM_ATOM_UDEF_STEREO_COUNT>
0

> <PUBCHEM_BOND_DEF_STEREO_COUNT>
0

> <PUBCHEM_BOND_UDEF_STEREO_COUNT>
0

> <PUBCHEM_ISOTOPIC_ATOM_COUNT>
0

> <PUBCHEM_COMPONENT_COUNT>
1

> <PUBCHEM_CACTVS_TAUTO_COUNT>
2

> <PUBCHEM_CONFORMER_ID>
0021FEE100000001

> <PUBCHEM_MMFF94_ENERGY>
39.2476

> <PUBCHEM_FEATURE_SELFOVERLAP>
40.597

> <PUBCHEM_SHAPE_FINGERPRINT>
10 15 17821733827726871537
105312 117 17988925595663796839
10906281 52 17749680687897395630
11135609 201 18271252621704478315
11181472 205 18411142438351104316
11475781 23 18202007625233087116
11578821 258 18052253188665772600
12895837 130 18272088335834473437
13167372 99 18333728048814789828
13782708 43 10665221566821827036
14123256 34 9511455641463939629
14211702 104 8790620224994094168
14251764 30 8286200543566774432
14344974 204 11891336456298941816
14598715 104 17916573380181351288
14765038 42 18129391419248949329
14767858 380 13183024042534448372
14919807 6 18270134439785490012
14931854 50 17560232519439112721
14950920 106 15213314036280696181
15188451 53 13262692456539935433
15238133 3 18334016129398584476
155225 5 18271247106107614345
15803439 3 16486966276919327847
17780758 139 12901541326583057663
18769570 83 18408885165646277728
20281389 69 18410575101895910147
20621476 66 18334858333456032340
20982279 24 14491293256646467232
21401589 2 18336557032335916851
21424621 283 18410573989536459842
21623969 137 14273727461269855842
21781051 124 12901821676600259544
229767 8 10661804302306856397
23389318 12 11599718498655434464
23522609 53 17313962934333871292
23569914 152 16410159720051353604
249057 25 17604997090152425959
270888 7 18339642223218955829
2748736 6 18411132503147477145
2838139 119 18201994464746409957
312425 54 13695860386207857133
328310 18 17489596658154121723
397830 11 11963675573063953326
437795 171 17686057189574315685
4487111 67 18125440800587212673
484985 159 8935003651684798611
5104073 3 16662047157292655192
54039377 194 11095879415419277741
543368 44 18271805684537987257
5470011 282 13326560887278154353
5718773 13 8069730885515289225
59682541 52 16988286361266940462
6327066 14 18410569549331183381
6328613 192 18262799691694445788
636775 72 18193835071295052568
636775 8 11603088437549757496
6376802 90 18201446921094849302
6431902 208 9727635003583847333
6712543 237 15357988828715398113
7226269 152 18411136952290276489
7808743 9 18411134723930120003
7970288 3 9294990363856966453
8863177 126 11025802015467484558
999808 66 12540686029435616840

> <PUBCHEM_SHAPE_MULTIPOLES>
461.36
21.32
2.83
1.34
6.58
0.3
-0.11
-20.69
-1.35
-4.71
-0.32
-0.18
-0.22
-0.78

> <PUBCHEM_SHAPE_SELFOVERLAP>
972.847

> <PUBCHEM_SHAPE_VOLUME>
259.6

> <PUBCHEM_COORDINATE_TYPE>
2
5
10

$$$$
