2768758
  -OEChem-01171809473D

 32 33  0     1  0  0  0  0  0999 V2000
   -4.7528    0.5055    1.0410 Cl  0  0  0  0  0  0  0  0  0  0  0  0
    0.9895    1.9952   -1.0895 S   0  0  1  0  0  0  0  0  0  0  0  0
    3.2818    1.5661    0.9559 S   0  0  0  0  0  0  0  0  0  0  0  0
    0.7914   -0.9534   -1.8253 O   0  0  0  0  0  0  0  0  0  0  0  0
    1.1847    3.4501   -0.6957 O   0  0  0  0  0  0  0  0  0  0  0  0
    0.8976   -2.4665   -0.0732 N   0  0  0  0  0  0  0  0  0  0  0  0
    3.0171   -0.9240    0.8695 N   0  0  0  0  0  0  0  0  0  0  0  0
    3.7336    0.0288    1.4445 N   0  0  0  0  0  0  0  0  0  0  0  0
    0.0434   -3.4788   -0.6825 C   0  0  0  0  0  0  0  0  0  0  0  0
   -1.4163   -3.2362   -0.3070 C   0  0  0  0  0  0  0  0  0  0  0  0
    2.1004   -0.3667    0.0296 C   0  0  0  0  0  0  0  0  0  0  0  0
    2.0548    0.9805   -0.0908 C   0  0  0  0  0  0  0  0  0  0  0  0
    1.1951   -1.2814   -0.7127 C   0  0  0  0  0  0  0  0  0  0  0  0
   -1.6135   -3.2719    1.2006 C   0  0  0  0  0  0  0  0  0  0  0  0
   -0.6626    1.5677   -0.4764 C   0  0  0  0  0  0  0  0  0  0  0  0
   -0.9687    1.7885    0.8559 C   0  0  0  0  0  0  0  0  0  0  0  0
   -1.5900    1.0270   -1.3510 C   0  0  0  0  0  0  0  0  0  0  0  0
   -2.2394    1.4589    1.3272 C   0  0  0  0  0  0  0  0  0  0  0  0
   -2.8607    0.6974   -0.8796 C   0  0  0  0  0  0  0  0  0  0  0  0
   -3.1854    0.9132    0.4595 C   0  0  0  0  0  0  0  0  0  0  0  0
    0.1637   -3.4502   -1.7704 H   0  0  0  0  0  0  0  0  0  0  0  0
    0.3843   -4.4543   -0.3212 H   0  0  0  0  0  0  0  0  0  0  0  0
   -1.7527   -2.2675   -0.6924 H   0  0  0  0  0  0  0  0  0  0  0  0
   -2.0397   -4.0072   -0.7733 H   0  0  0  0  0  0  0  0  0  0  0  0
    1.2840   -2.6538    0.8476 H   0  0  0  0  0  0  0  0  0  0  0  0
   -1.2535   -4.2148    1.6245 H   0  0  0  0  0  0  0  0  0  0  0  0
   -1.0945   -2.4465    1.6980 H   0  0  0  0  0  0  0  0  0  0  0  0
   -2.6783   -3.1802    1.4392 H   0  0  0  0  0  0  0  0  0  0  0  0
   -0.2453    2.2154    1.5445 H   0  0  0  0  0  0  0  0  0  0  0  0
   -1.3505    0.8575   -2.3969 H   0  0  0  0  0  0  0  0  0  0  0  0
   -2.4786    1.6329    2.3732 H   0  0  0  0  0  0  0  0  0  0  0  0
   -3.5875    0.2725   -1.5673 H   0  0  0  0  0  0  0  0  0  0  0  0
  1 20  1  0  0  0  0
  2  5  2  0  0  0  0
  2 12  1  0  0  0  0
  2 15  1  0  0  0  0
  3  8  1  0  0  0  0
  3 12  1  0  0  0  0
  4 13  2  0  0  0  0
  6  9  1  0  0  0  0
  6 13  1  0  0  0  0
  6 25  1  0  0  0  0
  7  8  2  0  0  0  0
  7 11  1  0  0  0  0
  9 10  1  0  0  0  0
  9 21  1  0  0  0  0
  9 22  1  0  0  0  0
 10 14  1  0  0  0  0
 10 23  1  0  0  0  0
 10 24  1  0  0  0  0
 11 12  2  0  0  0  0
 11 13  1  0  0  0  0
 14 26  1  0  0  0  0
 14 27  1  0  0  0  0
 14 28  1  0  0  0  0
 15 16  2  0  0  0  0
 15 17  1  0  0  0  0
 16 18  1  0  0  0  0
 16 29  1  0  0  0  0
 17 19  2  0  0  0  0
 17 30  1  0  0  0  0
 18 20  2  0  0  0  0
 18 31  1  0  0  0  0
 19 20  1  0  0  0  0
 19 32  1  0  0  0  0
M  END
> <PUBCHEM_COMPOUND_CID>
2768758

> <PUBCHEM_CONFORMER_RMSD>
0.8

> <PUBCHEM_CONFORMER_DIVERSEORDER>
1
29
48
36
10
113
43
111
88
72
94
64
11
102
6
101
37
18
53
112
78
7
115
5
75
70
27
85
55
69
114
9
57
91
95
54
81
42
35
118
106
17
33
60
73
96
34
3
68
46
67
4
92
26
107
76
45
56
83
84
52
2
63
110
100
108
39
116
16
117
93
15
41
90
82
103
8
22
32
109
25
44
97
19
38
59
24
28
23
30
105
99
62
86
12
89
13
47
87
104
14
119
80
98
40
49
31
71
58
74
51
61
20
65
50
21
79
77
66

> <PUBCHEM_MMFF94_PARTIAL_CHARGES>
23
1 -0.18
11 0.14
12 0.05
13 0.72
15 0.06
16 -0.15
17 -0.15
18 -0.15
19 -0.15
2 0.43
20 0.18
25 0.37
29 0.15
3 0.18
30 0.15
31 0.15
32 0.15
4 -0.57
5 -0.5
6 -0.73
7 -0.23
8 -0.22
9 0.3

> <PUBCHEM_EFFECTIVE_ROTOR_COUNT>
6

> <PUBCHEM_PHARMACOPHORE_FEATURES>
6
1 14 hydrophobe
1 4 acceptor
1 5 acceptor
1 6 donor
5 3 7 8 11 12 rings
6 15 16 17 18 19 20 rings

> <PUBCHEM_HEAVY_ATOM_COUNT>
20

> <PUBCHEM_ATOM_DEF_STEREO_COUNT>
0

> <PUBCHEM_ATOM_UDEF_STEREO_COUNT>
1

> <PUBCHEM_BOND_DEF_STEREO_COUNT>
0

> <PUBCHEM_BOND_UDEF_STEREO_COUNT>
0

> <PUBCHEM_ISOTOPIC_ATOM_COUNT>
0

> <PUBCHEM_COMPONENT_COUNT>
1

> <PUBCHEM_CACTVS_TAUTO_COUNT>
2

> <PUBCHEM_CONFORMER_ID>
002A3F7600000001

> <PUBCHEM_MMFF94_ENERGY>
33.8098

> <PUBCHEM_FEATURE_SELFOVERLAP>
30.446

> <PUBCHEM_SHAPE_FINGERPRINT>
10064457 181 18272370888346796080
104564 63 17690295119265358471
10759866 29 17681836546063523004
11086676 242 17759809534197207530
11370993 70 18412824655879413369
12035758 1 18271240496648506026
12156800 1 13085719101728147907
12788726 201 16536244540824669588
13140716 1 18338515377554119040
14178342 30 18123477081303658017
14787075 74 17917421069122902353
15209289 33 18057328284322952838
15295992 7 17273960489270066258
15422964 175 18120101576269103317
16945 1 17987786402759085660
20905425 154 17475243869034667815
21041028 32 17474384059721604838
23558518 356 17182233946066049532
2748010 2 17975691693011670989
35225 105 17261246801410176074
427121 178 17989492908976390530
4340502 62 18343306959877627025
5282274 181 18337685207894742563
6438718 38 17844810493360595119
6443956 14 17974868176652482405
7226269 152 16248006489603225724
81228 2 18122879144747044806

> <PUBCHEM_SHAPE_MULTIPOLES>
394.48
5.82
4.18
1.47
2
3.8
-0.04
-2.13
2.95
0.69
-0.34
0
-0.15
-0.06

> <PUBCHEM_SHAPE_SELFOVERLAP>
789.359

> <PUBCHEM_SHAPE_VOLUME>
233.4

> <PUBCHEM_COORDINATE_TYPE>
2
5
10

$$$$
