3789195
  -OEChem-01171809263D

 44 46  0     1  0  0  0  0  0999 V2000
    4.8947   -1.9885   -0.6756 Cl  0  0  0  0  0  0  0  0  0  0  0  0
   -3.8157    1.3378    0.9787 O   0  0  0  0  0  0  0  0  0  0  0  0
   -4.6751   -0.8890   -0.4428 O   0  0  0  0  0  0  0  0  0  0  0  0
    3.1980   -0.9223    1.9509 O   0  0  0  0  0  0  0  0  0  0  0  0
    1.7338   -1.2161    0.1660 N   0  0  0  0  0  0  0  0  0  0  0  0
    0.8711   -0.0810    0.5759 C   0  0  2  0  0  0  0  0  0  0  0  0
   -0.6085   -0.3090    0.2844 C   0  0  0  0  0  0  0  0  0  0  0  0
    1.3324   -1.9268   -1.0539 C   0  0  0  0  0  0  0  0  0  0  0  0
   -0.0753   -2.4856   -0.8990 C   0  0  0  0  0  0  0  0  0  0  0  0
   -1.0496   -1.4357   -0.4346 C   0  0  0  0  0  0  0  0  0  0  0  0
    1.4108    1.2364    0.0238 C   0  0  0  0  0  0  0  0  0  0  0  0
   -1.5591    0.6124    0.7578 C   0  0  0  0  0  0  0  0  0  0  0  0
   -2.4209   -1.6201   -0.6652 C   0  0  0  0  0  0  0  0  0  0  0  0
    2.8674   -1.5250    0.9262 C   0  0  0  0  0  0  0  0  0  0  0  0
   -2.9191    0.4249    0.5118 C   0  0  0  0  0  0  0  0  0  0  0  0
   -3.3495   -0.6902   -0.2004 C   0  0  0  0  0  0  0  0  0  0  0  0
    2.3192    1.9751    0.7728 C   0  0  0  0  0  0  0  0  0  0  0  0
    0.9884    1.6841   -1.2225 C   0  0  0  0  0  0  0  0  0  0  0  0
    3.7190   -2.6712    0.4421 C   0  0  0  0  0  0  0  0  0  0  0  0
    2.8122    3.1786    0.2686 C   0  0  0  0  0  0  0  0  0  0  0  0
    1.4814    2.8875   -1.7268 C   0  0  0  0  0  0  0  0  0  0  0  0
    2.3933    3.6348   -0.9813 C   0  0  0  0  0  0  0  0  0  0  0  0
   -4.3431    1.1185    2.2856 C   0  0  0  0  0  0  0  0  0  0  0  0
   -5.2058   -0.3297   -1.6426 C   0  0  0  0  0  0  0  0  0  0  0  0
    0.9353   -0.0269    1.6725 H   0  0  0  0  0  0  0  0  0  0  0  0
    2.0120   -2.7251   -1.3457 H   0  0  0  0  0  0  0  0  0  0  0  0
    1.3618   -1.1969   -1.8721 H   0  0  0  0  0  0  0  0  0  0  0  0
   -0.0721   -3.2984   -0.1622 H   0  0  0  0  0  0  0  0  0  0  0  0
   -0.3988   -2.9023   -1.8600 H   0  0  0  0  0  0  0  0  0  0  0  0
   -1.2361    1.4827    1.3253 H   0  0  0  0  0  0  0  0  0  0  0  0
   -2.7658   -2.4981   -1.2072 H   0  0  0  0  0  0  0  0  0  0  0  0
    2.6474    1.6417    1.7524 H   0  0  0  0  0  0  0  0  0  0  0  0
    0.2903    1.1175   -1.8314 H   0  0  0  0  0  0  0  0  0  0  0  0
    3.1696   -3.5032    0.0030 H   0  0  0  0  0  0  0  0  0  0  0  0
    4.2687   -3.0772    1.2979 H   0  0  0  0  0  0  0  0  0  0  0  0
    3.5204    3.7618    0.8500 H   0  0  0  0  0  0  0  0  0  0  0  0
    1.1577    3.2415   -2.7012 H   0  0  0  0  0  0  0  0  0  0  0  0
    2.7773    4.5717   -1.3740 H   0  0  0  0  0  0  0  0  0  0  0  0
   -4.8774    0.1642    2.3307 H   0  0  0  0  0  0  0  0  0  0  0  0
   -5.0472    1.9243    2.5106 H   0  0  0  0  0  0  0  0  0  0  0  0
   -3.5412    1.1360    3.0305 H   0  0  0  0  0  0  0  0  0  0  0  0
   -5.0909    0.7589   -1.6442 H   0  0  0  0  0  0  0  0  0  0  0  0
   -6.2717   -0.5688   -1.6898 H   0  0  0  0  0  0  0  0  0  0  0  0
   -4.7108   -0.7613   -2.5183 H   0  0  0  0  0  0  0  0  0  0  0  0
  1 19  1  0  0  0  0
  2 15  1  0  0  0  0
  2 23  1  0  0  0  0
  3 16  1  0  0  0  0
  3 24  1  0  0  0  0
  4 14  2  0  0  0  0
  5  6  1  0  0  0  0
  5  8  1  0  0  0  0
  5 14  1  0  0  0  0
  6  7  1  0  0  0  0
  6 11  1  0  0  0  0
  6 25  1  0  0  0  0
  7 10  1  0  0  0  0
  7 12  2  0  0  0  0
  8  9  1  0  0  0  0
  8 26  1  0  0  0  0
  8 27  1  0  0  0  0
  9 10  1  0  0  0  0
  9 28  1  0  0  0  0
  9 29  1  0  0  0  0
 10 13  2  0  0  0  0
 11 17  2  0  0  0  0
 11 18  1  0  0  0  0
 12 15  1  0  0  0  0
 12 30  1  0  0  0  0
 13 16  1  0  0  0  0
 13 31  1  0  0  0  0
 14 19  1  0  0  0  0
 15 16  2  0  0  0  0
 17 20  1  0  0  0  0
 17 32  1  0  0  0  0
 18 21  2  0  0  0  0
 18 33  1  0  0  0  0
 19 34  1  0  0  0  0
 19 35  1  0  0  0  0
 20 22  2  0  0  0  0
 20 36  1  0  0  0  0
 21 22  1  0  0  0  0
 21 37  1  0  0  0  0
 22 38  1  0  0  0  0
 23 39  1  0  0  0  0
 23 40  1  0  0  0  0
 23 41  1  0  0  0  0
 24 42  1  0  0  0  0
 24 43  1  0  0  0  0
 24 44  1  0  0  0  0
M  END
> <PUBCHEM_COMPOUND_CID>
3789195

> <PUBCHEM_CONFORMER_RMSD>
0.8

> <PUBCHEM_CONFORMER_DIVERSEORDER>
5
7
17
3
10
9
11
8
6
12
14
4
16
13
1
2
15

> <PUBCHEM_MMFF94_PARTIAL_CHARGES>
31
1 -0.29
10 -0.14
11 -0.14
12 -0.15
13 -0.15
14 0.57
15 0.08
16 0.08
17 -0.15
18 -0.15
19 0.35
2 -0.36
20 -0.15
21 -0.15
22 -0.15
23 0.28
24 0.28
3 -0.36
30 0.15
31 0.15
32 0.15
33 0.15
36 0.15
37 0.15
38 0.15
4 -0.57
5 -0.66
6 0.59
7 -0.14
8 0.3
9 0.14

> <PUBCHEM_EFFECTIVE_ROTOR_COUNT>
5.8

> <PUBCHEM_PHARMACOPHORE_FEATURES>
6
1 2 acceptor
1 3 acceptor
1 4 acceptor
6 11 17 18 20 21 22 rings
6 5 6 7 8 9 10 rings
6 7 10 12 13 15 16 rings

> <PUBCHEM_HEAVY_ATOM_COUNT>
24

> <PUBCHEM_ATOM_DEF_STEREO_COUNT>
0

> <PUBCHEM_ATOM_UDEF_STEREO_COUNT>
1

> <PUBCHEM_BOND_DEF_STEREO_COUNT>
0

> <PUBCHEM_BOND_UDEF_STEREO_COUNT>
0

> <PUBCHEM_ISOTOPIC_ATOM_COUNT>
0

> <PUBCHEM_COMPONENT_COUNT>
1

> <PUBCHEM_CACTVS_TAUTO_COUNT>
1

> <PUBCHEM_CONFORMER_ID>
0039D18B00000005

> <PUBCHEM_MMFF94_ENERGY>
88.1078

> <PUBCHEM_FEATURE_SELFOVERLAP>
30.473

> <PUBCHEM_SHAPE_FINGERPRINT>
10382601 240 18114176501702462688
10764073 3 16194254080692711294
11640471 11 18122064466275121341
12166972 35 18342447124272455879
12553582 1 18188771626500420690
12644460 14 18261683644009550576
12788726 201 17754175289426025474
13009979 54 18201728323008564475
13134695 92 18114181891363776964
13140716 1 18341061756743402907
133893 2 18261973919221522932
13583140 156 17821726144004297979
13590594 115 18263088712417135472
14181834 199 18411422812560296228
14739800 52 17559945687973539864
14955137 171 18124623923296767762
15475509 8 17914642487249067462
15664445 248 18270979951194868814
1601671 61 18269846315508242710
16945 1 18200309892631413890
17349148 13 18201992214653357207
17492 89 18338793537143995015
17980427 23 18059852822775133917
1813 80 18335416808280540474
18222031 100 18339913819201524242
20600515 1 18200878362150924254
20671657 1 18337961189476360876
20715895 44 18265314154934196037
20739085 24 18339931402897536314
21029758 27 18190754037443580370
21033648 29 17699839631798024545
21524375 3 18048603908274549084
22149856 69 18059580256785292595
22182313 1 18116686596327418028
2255824 54 18335140916397350202
22849341 161 18195549016115730432
22907989 373 17760367696069085862
23366157 5 18261114114340389142
23419403 2 17751050605843218300
23559900 14 18340477950112670595
25147074 1 18202572782799587905
2748010 2 17477213725925668781
312423 11 18342465871820657267
3380486 145 17905611003911546305
350125 39 18342181055359214753
352729 6 17180810074428570994
3633792 109 18340751698885976869
4409770 3 17469308250233352182
474 4 18043527433040056504
5895379 119 17345213132826661033
7364860 26 18340204193450172840
7615 1 18272936033561281401
81228 2 17398974686095905912
90316 7 18047738313767016074
9981440 41 17761203715183808192

> <PUBCHEM_SHAPE_MULTIPOLES>
473.19
8.69
3.84
1.6
7.21
2.32
-0.26
-2.07
-0.5
-5.25
1.11
0.77
0.48
-1.76

> <PUBCHEM_SHAPE_SELFOVERLAP>
1003.925

> <PUBCHEM_SHAPE_VOLUME>
265.2

> <PUBCHEM_COORDINATE_TYPE>
2
5
10

$$$$
