3146836
  -OEChem-01171809203D

 48 51  0     1  0  0  0  0  0999 V2000
    5.3860    0.7426    1.5547 S   0  0  0  0  0  0  0  0  0  0  0  0
   -1.6105    1.5772    1.5499 S   0  0  0  0  0  0  0  0  0  0  0  0
    0.7136    1.9344   -1.9541 O   0  0  0  0  0  0  0  0  0  0  0  0
   -4.0981   -0.7144    0.3675 O   0  0  0  0  0  0  0  0  0  0  0  0
   -3.8062   -1.6987   -1.7074 O   0  0  0  0  0  0  0  0  0  0  0  0
    0.0557   -2.0595    0.5111 N   0  0  0  0  0  0  0  0  0  0  0  0
    3.0755    0.1383    0.1118 C   0  0  2  0  0  0  0  0  0  0  0  0
    2.3386   -1.2030    0.2303 C   0  0  0  0  0  0  0  0  0  0  0  0
    0.3060   -0.0124   -0.6567 C   0  0  0  0  0  0  0  0  0  0  0  0
    0.8556   -1.0547    0.0020 C   0  0  0  0  0  0  0  0  0  0  0  0
   -1.2161    0.1220   -0.8023 C   0  0  1  0  0  0  0  0  0  0  0  0
    2.6917    0.8401   -1.1907 C   0  0  0  0  0  0  0  0  0  0  0  0
    1.1913    1.0099   -1.2975 C   0  0  0  0  0  0  0  0  0  0  0  0
   -1.9566   -1.1428   -0.3337 C   0  0  0  0  0  0  0  0  0  0  0  0
   -1.3130   -2.1411    0.3137 C   0  0  0  0  0  0  0  0  0  0  0  0
    4.5809   -0.0230    0.2547 C   0  0  0  0  0  0  0  0  0  0  0  0
   -1.7618    1.3939   -0.1388 C   0  0  0  0  0  0  0  0  0  0  0  0
   -1.9622   -3.3842    0.8592 C   0  0  0  0  0  0  0  0  0  0  0  0
   -3.3883   -1.2303   -0.6647 C   0  0  0  0  0  0  0  0  0  0  0  0
    5.4424   -0.7308   -0.5492 C   0  0  0  0  0  0  0  0  0  0  0  0
   -2.3846    2.4557   -0.7369 C   0  0  0  0  0  0  0  0  0  0  0  0
    6.7887   -0.6445   -0.0910 C   0  0  0  0  0  0  0  0  0  0  0  0
    6.9002    0.1266    1.0451 C   0  0  0  0  0  0  0  0  0  0  0  0
   -2.7503    3.4520    0.2136 C   0  0  0  0  0  0  0  0  0  0  0  0
   -2.3882    3.1017    1.4957 C   0  0  0  0  0  0  0  0  0  0  0  0
   -5.5189   -0.7294    0.1942 C   0  0  0  0  0  0  0  0  0  0  0  0
   -6.1714   -0.1256    1.4196 C   0  0  0  0  0  0  0  0  0  0  0  0
    2.7158    0.7729    0.9370 H   0  0  0  0  0  0  0  0  0  0  0  0
    2.7315   -1.9340   -0.4882 H   0  0  0  0  0  0  0  0  0  0  0  0
    2.5212   -1.6157    1.2316 H   0  0  0  0  0  0  0  0  0  0  0  0
   -1.4132    0.2031   -1.8825 H   0  0  0  0  0  0  0  0  0  0  0  0
    3.1525    1.8348   -1.2236 H   0  0  0  0  0  0  0  0  0  0  0  0
    3.0320    0.2804   -2.0699 H   0  0  0  0  0  0  0  0  0  0  0  0
    0.5088   -2.8254    0.9964 H   0  0  0  0  0  0  0  0  0  0  0  0
   -3.0429   -3.4116    0.6943 H   0  0  0  0  0  0  0  0  0  0  0  0
   -1.7935   -3.4548    1.9391 H   0  0  0  0  0  0  0  0  0  0  0  0
   -1.5335   -4.2734    0.3845 H   0  0  0  0  0  0  0  0  0  0  0  0
    5.1318   -1.2859   -1.4251 H   0  0  0  0  0  0  0  0  0  0  0  0
   -2.5744    2.5260   -1.8001 H   0  0  0  0  0  0  0  0  0  0  0  0
    7.6325   -1.1235   -0.5702 H   0  0  0  0  0  0  0  0  0  0  0  0
    7.7984    0.3577    1.6001 H   0  0  0  0  0  0  0  0  0  0  0  0
   -3.2538    4.3783   -0.0304 H   0  0  0  0  0  0  0  0  0  0  0  0
   -2.5434    3.6680    2.4032 H   0  0  0  0  0  0  0  0  0  0  0  0
   -5.8601   -1.7625    0.0639 H   0  0  0  0  0  0  0  0  0  0  0  0
   -5.7844   -0.1436   -0.6930 H   0  0  0  0  0  0  0  0  0  0  0  0
   -5.8245    0.9016    1.5734 H   0  0  0  0  0  0  0  0  0  0  0  0
   -5.9003   -0.6901    2.3178 H   0  0  0  0  0  0  0  0  0  0  0  0
   -7.2604   -0.1201    1.3206 H   0  0  0  0  0  0  0  0  0  0  0  0
  1 16  1  0  0  0  0
  1 23  1  0  0  0  0
  2 17  1  0  0  0  0
  2 25  1  0  0  0  0
  3 13  2  0  0  0  0
  4 19  1  0  0  0  0
  4 26  1  0  0  0  0
  5 19  2  0  0  0  0
  6 10  1  0  0  0  0
  6 15  1  0  0  0  0
  6 34  1  0  0  0  0
  7  8  1  0  0  0  0
  7 12  1  0  0  0  0
  7 16  1  0  0  0  0
  7 28  1  0  0  0  0
  8 10  1  0  0  0  0
  8 29  1  0  0  0  0
  8 30  1  0  0  0  0
  9 10  2  0  0  0  0
  9 11  1  0  0  0  0
  9 13  1  0  0  0  0
 11 14  1  0  0  0  0
 11 17  1  0  0  0  0
 11 31  1  0  0  0  0
 12 13  1  0  0  0  0
 12 32  1  0  0  0  0
 12 33  1  0  0  0  0
 14 15  2  0  0  0  0
 14 19  1  0  0  0  0
 15 18  1  0  0  0  0
 16 20  2  0  0  0  0
 17 21  2  0  0  0  0
 18 35  1  0  0  0  0
 18 36  1  0  0  0  0
 18 37  1  0  0  0  0
 20 22  1  0  0  0  0
 20 38  1  0  0  0  0
 21 24  1  0  0  0  0
 21 39  1  0  0  0  0
 22 23  2  0  0  0  0
 22 40  1  0  0  0  0
 23 41  1  0  0  0  0
 24 25  2  0  0  0  0
 24 42  1  0  0  0  0
 25 43  1  0  0  0  0
 26 27  1  0  0  0  0
 26 44  1  0  0  0  0
 26 45  1  0  0  0  0
 27 46  1  0  0  0  0
 27 47  1  0  0  0  0
 27 48  1  0  0  0  0
M  END
> <PUBCHEM_COMPOUND_CID>
3146836

> <PUBCHEM_CONFORMER_RMSD>
0.8

> <PUBCHEM_CONFORMER_DIVERSEORDER>
6
95
103
82
2
61
56
89
9
23
86
92
5
102
42
33
73
69
74
60
105
1
85
24
31
49
43
99
65
64
51
83
70
78
28
41
90
101
7
75
72
35
18
30
93
19
13
80
96
14
8
11
81
76
87
27
10
47
36
21
106
46
29
91
67
100
15
40
32
55
63
77
25
12
48
34
71
54
16
22
17
50
59
94
53
37
3
39
79
58
52
62
98
26
4
44
97
45
68
57
66
20
84
88
38
104

> <PUBCHEM_MMFF94_PARTIAL_CHARGES>
33
1 -0.08
10 -0.04
11 0.46
12 0.06
13 0.49
14 -0.12
15 -0.04
16 -0.14
17 -0.14
18 0.14
19 0.71
2 -0.08
20 -0.15
21 -0.15
22 -0.15
23 -0.11
24 -0.15
25 -0.11
26 0.28
3 -0.57
34 0.4
38 0.15
39 0.15
4 -0.43
40 0.15
41 0.15
42 0.15
43 0.15
5 -0.57
6 -0.6
7 0.18
8 0.14
9 -0.12

> <PUBCHEM_EFFECTIVE_ROTOR_COUNT>
6

> <PUBCHEM_PHARMACOPHORE_FEATURES>
8
1 3 acceptor
1 5 acceptor
1 6 cation
1 6 donor
5 1 16 20 22 23 rings
5 2 17 21 24 25 rings
6 6 9 10 11 14 15 rings
6 7 8 9 10 12 13 rings

> <PUBCHEM_HEAVY_ATOM_COUNT>
27

> <PUBCHEM_ATOM_DEF_STEREO_COUNT>
0

> <PUBCHEM_ATOM_UDEF_STEREO_COUNT>
2

> <PUBCHEM_BOND_DEF_STEREO_COUNT>
0

> <PUBCHEM_BOND_UDEF_STEREO_COUNT>
0

> <PUBCHEM_ISOTOPIC_ATOM_COUNT>
0

> <PUBCHEM_COMPONENT_COUNT>
1

> <PUBCHEM_CACTVS_TAUTO_COUNT>
13

> <PUBCHEM_CONFORMER_ID>
0030045400000006

> <PUBCHEM_MMFF94_ENERGY>
42.8748

> <PUBCHEM_FEATURE_SELFOVERLAP>
40.615

> <PUBCHEM_SHAPE_FINGERPRINT>
1100329 8 18116156743207285075
11315181 36 18114178662450313754
11578080 2 16414377596715333229
11646440 116 18339932614363274051
12166972 35 17530968041732292317
12390115 104 18269845215759303128
12788726 201 18269014088370075693
13009979 54 18188500206110325174
13073987 5 18339073797219298602
13140716 1 18118690052320599971
13583140 156 17274813628725881428
14068700 675 18337945800492605445
14142880 1 18262796259772749469
14178342 30 18337115544712544780
14341114 176 18412543241254018032
15042514 8 18263648531529477427
15131766 46 15767785771330272040
15209294 21 18339077073999744264
15420108 30 17974568000776345712
17349148 13 18261109703440670534
17844677 252 18201718475440059456
18603816 31 13912590702405634128
20642791 105 18334858277944022989
20775438 99 16684817106327415967
21033648 29 17560503076629510554
21236236 1 18411134706528522900
21267235 1 18040157314527539414
23402539 116 18342171202393398007
23557571 272 18273219681728062260
23559900 14 18264764549101063612
25147074 1 18041576801092520844
283562 15 18410849933143958155
335352 9 18186800322273895639
350125 39 18409733949699436461
392239 28 18272939314642437697
469060 322 18335434447700851505
5104073 3 18265325124117009962
59755656 215 18412266103872743966
7226269 152 18411696608425501849

> <PUBCHEM_SHAPE_MULTIPOLES>
540.76
13.61
3.13
1.47
16.64
0.95
-0.02
-1.6
4.34
-4.39
0.59
-0.17
0.53
-0.27

> <PUBCHEM_SHAPE_SELFOVERLAP>
1144.086

> <PUBCHEM_SHAPE_VOLUME>
305

> <PUBCHEM_COORDINATE_TYPE>
2
5
10

$$$$
