2985637
  -OEChem-01171810063D

 61 65  0     0  0  0  0  0  0999 V2000
    7.1336    1.7454    1.3337 O   0  0  0  0  0  0  0  0  0  0  0  0
   -8.7831    0.8725   -1.4490 O   0  0  0  0  0  0  0  0  0  0  0  0
   -9.4560   -1.2945    0.3290 O   0  0  0  0  0  0  0  0  0  0  0  0
   -3.9644    1.7702   -0.3592 O   0  0  0  0  0  0  0  0  0  0  0  0
    2.3367    0.3400    0.4654 N   0  0  0  0  0  0  0  0  0  0  0  0
    5.2083    0.7097    0.5119 N   0  0  0  0  0  0  0  0  0  0  0  0
   -3.1987   -0.3358    0.3365 N   0  0  0  0  0  0  0  0  0  0  0  0
    3.2408   -0.7883    0.2275 C   0  0  0  0  0  0  0  0  0  0  0  0
    2.9264    1.6493    0.7580 C   0  0  0  0  0  0  0  0  0  0  0  0
    4.5750   -0.3027   -0.3391 C   0  0  0  0  0  0  0  0  0  0  0  0
    4.3174    1.4889    1.3666 C   0  0  0  0  0  0  0  0  0  0  0  0
    0.9546    0.1709    0.4327 C   0  0  0  0  0  0  0  0  0  0  0  0
    6.5868    0.9317    0.5904 C   0  0  0  0  0  0  0  0  0  0  0  0
    0.3936   -1.0590    0.7772 C   0  0  0  0  0  0  0  0  0  0  0  0
    0.1309    1.2318    0.0556 C   0  0  0  0  0  0  0  0  0  0  0  0
    7.4683    0.1407   -0.2834 C   0  0  0  0  0  0  0  0  0  0  0  0
   -0.9908   -1.2279    0.7452 C   0  0  0  0  0  0  0  0  0  0  0  0
   -1.2535    1.0628    0.0234 C   0  0  0  0  0  0  0  0  0  0  0  0
   -1.7929   -0.1644    0.3689 C   0  0  0  0  0  0  0  0  0  0  0  0
    7.9861   -1.0823    0.1368 C   0  0  0  0  0  0  0  0  0  0  0  0
    7.7807    0.6383   -1.5467 C   0  0  0  0  0  0  0  0  0  0  0  0
    8.8206   -1.8114   -0.7103 C   0  0  0  0  0  0  0  0  0  0  0  0
    7.6659   -1.6366    1.4870 C   0  0  0  0  0  0  0  0  0  0  0  0
    8.6147   -0.0909   -2.3943 C   0  0  0  0  0  0  0  0  0  0  0  0
    9.1349   -1.3158   -1.9759 C   0  0  0  0  0  0  0  0  0  0  0  0
   -4.1842    0.5987   -0.0114 C   0  0  0  0  0  0  0  0  0  0  0  0
   -5.5592    0.1342    0.0774 C   0  0  0  0  0  0  0  0  0  0  0  0
   -7.8594    0.2567   -0.6456 C   0  0  0  0  0  0  0  0  0  0  0  0
   -8.1877   -0.7860    0.2243 C   0  0  0  0  0  0  0  0  0  0  0  0
   -6.5417    0.7072   -0.7304 C   0  0  0  0  0  0  0  0  0  0  0  0
   -5.8926   -0.8887    0.9659 C   0  0  0  0  0  0  0  0  0  0  0  0
  -10.1228    0.5840   -1.0397 C   0  0  0  0  0  0  0  0  0  0  0  0
  -10.2814   -0.8997   -0.7703 C   0  0  0  0  0  0  0  0  0  0  0  0
   -7.2073   -1.3490    1.0417 C   0  0  0  0  0  0  0  0  0  0  0  0
    3.4092   -1.3232    1.1703 H   0  0  0  0  0  0  0  0  0  0  0  0
    2.8085   -1.4937   -0.4926 H   0  0  0  0  0  0  0  0  0  0  0  0
    2.9903    2.2332   -0.1682 H   0  0  0  0  0  0  0  0  0  0  0  0
    2.3087    2.2071    1.4725 H   0  0  0  0  0  0  0  0  0  0  0  0
    4.4203    0.1672   -1.3182 H   0  0  0  0  0  0  0  0  0  0  0  0
    5.2401   -1.1566   -0.4884 H   0  0  0  0  0  0  0  0  0  0  0  0
    4.2565    0.9600    2.3260 H   0  0  0  0  0  0  0  0  0  0  0  0
    4.7590    2.4717    1.5644 H   0  0  0  0  0  0  0  0  0  0  0  0
    1.0050   -1.9008    1.0903 H   0  0  0  0  0  0  0  0  0  0  0  0
    0.5375    2.1973   -0.2332 H   0  0  0  0  0  0  0  0  0  0  0  0
   -1.4176   -2.1887    1.0192 H   0  0  0  0  0  0  0  0  0  0  0  0
   -1.8216    1.9286   -0.2818 H   0  0  0  0  0  0  0  0  0  0  0  0
    7.3809    1.5914   -1.8830 H   0  0  0  0  0  0  0  0  0  0  0  0
    9.2340   -2.7677   -0.4009 H   0  0  0  0  0  0  0  0  0  0  0  0
   -3.4933   -1.2812    0.5650 H   0  0  0  0  0  0  0  0  0  0  0  0
    8.1956   -2.5768    1.6763 H   0  0  0  0  0  0  0  0  0  0  0  0
    6.5947   -1.8430    1.5764 H   0  0  0  0  0  0  0  0  0  0  0  0
    7.9659   -0.9350    2.2723 H   0  0  0  0  0  0  0  0  0  0  0  0
    8.8592    0.2948   -3.3796 H   0  0  0  0  0  0  0  0  0  0  0  0
    9.7843   -1.8837   -2.6358 H   0  0  0  0  0  0  0  0  0  0  0  0
   -6.2950    1.5060   -1.4259 H   0  0  0  0  0  0  0  0  0  0  0  0
   -5.1707   -1.3351    1.6433 H   0  0  0  0  0  0  0  0  0  0  0  0
  -10.7922    0.8974   -1.8469 H   0  0  0  0  0  0  0  0  0  0  0  0
  -10.3543    1.1834   -0.1505 H   0  0  0  0  0  0  0  0  0  0  0  0
  -10.0091   -1.5010   -1.6465 H   0  0  0  0  0  0  0  0  0  0  0  0
  -11.3186   -1.1295   -0.5070 H   0  0  0  0  0  0  0  0  0  0  0  0
   -7.4588   -2.1463    1.7359 H   0  0  0  0  0  0  0  0  0  0  0  0
  1 13  2  0  0  0  0
  2 28  1  0  0  0  0
  2 32  1  0  0  0  0
  3 29  1  0  0  0  0
  3 33  1  0  0  0  0
  4 26  2  0  0  0  0
  5  8  1  0  0  0  0
  5  9  1  0  0  0  0
  5 12  1  0  0  0  0
  6 10  1  0  0  0  0
  6 11  1  0  0  0  0
  6 13  1  0  0  0  0
  7 19  1  0  0  0  0
  7 26  1  0  0  0  0
  7 49  1  0  0  0  0
  8 10  1  0  0  0  0
  8 35  1  0  0  0  0
  8 36  1  0  0  0  0
  9 11  1  0  0  0  0
  9 37  1  0  0  0  0
  9 38  1  0  0  0  0
 10 39  1  0  0  0  0
 10 40  1  0  0  0  0
 11 41  1  0  0  0  0
 11 42  1  0  0  0  0
 12 14  2  0  0  0  0
 12 15  1  0  0  0  0
 13 16  1  0  0  0  0
 14 17  1  0  0  0  0
 14 43  1  0  0  0  0
 15 18  2  0  0  0  0
 15 44  1  0  0  0  0
 16 20  1  0  0  0  0
 16 21  2  0  0  0  0
 17 19  2  0  0  0  0
 17 45  1  0  0  0  0
 18 19  1  0  0  0  0
 18 46  1  0  0  0  0
 20 22  2  0  0  0  0
 20 23  1  0  0  0  0
 21 24  1  0  0  0  0
 21 47  1  0  0  0  0
 22 25  1  0  0  0  0
 22 48  1  0  0  0  0
 23 50  1  0  0  0  0
 23 51  1  0  0  0  0
 23 52  1  0  0  0  0
 24 25  2  0  0  0  0
 24 53  1  0  0  0  0
 25 54  1  0  0  0  0
 26 27  1  0  0  0  0
 27 30  2  0  0  0  0
 27 31  1  0  0  0  0
 28 29  2  0  0  0  0
 28 30  1  0  0  0  0
 29 34  1  0  0  0  0
 30 55  1  0  0  0  0
 31 34  2  0  0  0  0
 31 56  1  0  0  0  0
 32 33  1  0  0  0  0
 32 57  1  0  0  0  0
 32 58  1  0  0  0  0
 33 59  1  0  0  0  0
 33 60  1  0  0  0  0
 34 61  1  0  0  0  0
M  END
> <PUBCHEM_COMPOUND_CID>
2985637

> <PUBCHEM_CONFORMER_RMSD>
1

> <PUBCHEM_CONFORMER_DIVERSEORDER>
1
16
19
26
7
20
25
23
21
13
4
15
32
10
22
34
8
33
24
14
27
9
18
6
31
2
11
29
28
3
17
30
5
12

> <PUBCHEM_MMFF94_PARTIAL_CHARGES>
46
1 -0.57
10 0.3
11 0.3
12 0.1
13 0.54
14 -0.15
15 -0.15
16 0.09
17 -0.15
18 -0.15
19 0.12
2 -0.36
20 -0.14
21 -0.15
22 -0.15
23 0.14
24 -0.15
25 -0.15
26 0.54
27 0.09
28 0.08
29 0.08
3 -0.36
30 -0.15
31 -0.15
32 0.28
33 0.28
34 -0.15
4 -0.57
43 0.15
44 0.15
45 0.15
46 0.15
47 0.15
48 0.15
49 0.37
5 -0.84
53 0.15
54 0.15
55 0.15
56 0.15
6 -0.66
61 0.15
7 -0.55
8 0.37
9 0.37

> <PUBCHEM_EFFECTIVE_ROTOR_COUNT>
8

> <PUBCHEM_PHARMACOPHORE_FEATURES>
11
1 1 acceptor
1 2 acceptor
1 3 acceptor
1 4 acceptor
1 5 cation
1 7 donor
6 12 14 15 17 18 19 rings
6 16 20 21 22 24 25 rings
6 2 3 28 29 32 33 rings
6 27 28 29 30 31 34 rings
6 5 6 8 9 10 11 rings

> <PUBCHEM_HEAVY_ATOM_COUNT>
34

> <PUBCHEM_ATOM_DEF_STEREO_COUNT>
0

> <PUBCHEM_ATOM_UDEF_STEREO_COUNT>
0

> <PUBCHEM_BOND_DEF_STEREO_COUNT>
0

> <PUBCHEM_BOND_UDEF_STEREO_COUNT>
0

> <PUBCHEM_ISOTOPIC_ATOM_COUNT>
0

> <PUBCHEM_COMPONENT_COUNT>
1

> <PUBCHEM_CACTVS_TAUTO_COUNT>
2

> <PUBCHEM_CONFORMER_ID>
002D8EA500000001

> <PUBCHEM_MMFF94_ENERGY>
127.9675

> <PUBCHEM_FEATURE_SELFOVERLAP>
55.865

> <PUBCHEM_SHAPE_FINGERPRINT>
10168742 298 18334587827731604342
10533779 47 10159706810595595252
10666366 153 18412827971647036524
11061554 47 15357693102430148366
11135609 127 17749680701425895932
11135926 11 13973964260131063469
11181472 205 16153978037543225404
11211813 74 14345799362134114110
11315181 36 14851607687749295049
11408170 108 16271657685518258038
11607047 141 9655310203310825532
11638347 137 14908184132139791838
12089408 11 15430031067891385553
12522641 33 16515402949900555714
13150687 139 18343018900136406775
14150022 121 9439135242994747771
14202775 3 17917432064498325719
14428016 248 15502375621658259053
14617042 71 13046240402821016030
14937079 2 18339360867837471032
150020 25 18409167727418409011
15065858 18 18342451565595804585
15198563 99 18339925918077755821
15247644 1 16773795905512389215
15461852 350 17749393685002103035
15510794 2 18410855469499201443
15773216 30 17895470307222875410
15840311 113 16515689961991768462
15980000 95 14923943449027505727
1754908 1 13758070809757356030
1754911 235 16515688852924893511
17686467 74 15140967292323023645
20105231 36 18412547630700337219
2026 5 17130719275911244094
21095086 128 17346881156695987287
21362267 313 11959468768023314366
21792961 116 18272089379769800929
21895431 317 17131276753770654406
22149856 69 11386369245238013528
232437 2 18131351917026157311
23576562 1 16806743951852640839
249057 3 17989486350550851455
3178227 256 10015860981778225066
335352 9 18260831505175729831
4017518 198 18202845466443533407
4625314 4 18342173418886334937
5028188 123 17603872251223817531
5758199 1 13118002201885982008
59520757 100 18114750451046744850
6081469 158 18413670206027945924
6691757 9 15574721279754688521
67123 10 17676206874910017703
9663363 56 18273776048403772306
9937071 3 16128658552339982423

> <PUBCHEM_SHAPE_MULTIPOLES>
661.28
40.96
1.63
1.45
30.33
0
-0.52
10.09
-15.9
-1.43
0.31
-2.89
0.05
2.12

> <PUBCHEM_SHAPE_SELFOVERLAP>
1449.473

> <PUBCHEM_SHAPE_VOLUME>
355

> <PUBCHEM_COORDINATE_TYPE>
2
5
10

$$$$
