2418645
  -OEChem-01171809493D

 43 45  0     0  0  0  0  0  0999 V2000
   -5.8911    2.2474    1.3498 Cl  0  0  0  0  0  0  0  0  0  0  0  0
   -7.5329    0.8237   -1.1135 Cl  0  0  0  0  0  0  0  0  0  0  0  0
   -1.6200    0.3591   -1.2299 O   0  0  0  0  0  0  0  0  0  0  0  0
   -3.3316    0.8952    1.7361 O   0  0  0  0  0  0  0  0  0  0  0  0
    2.8865   -0.8491    0.5437 N   0  0  0  0  0  0  0  0  0  0  0  0
    0.1415   -0.8169   -0.2761 N   0  0  0  0  0  0  0  0  0  0  0  0
   -3.4701   -0.7207    0.0799 N   0  0  0  0  0  0  0  0  0  0  0  0
   -4.1922   -1.2888   -0.9472 N   0  0  0  0  0  0  0  0  0  0  0  0
    2.3399    0.3033   -0.1874 C   0  0  0  0  0  0  0  0  0  0  0  0
    1.8501   -1.4605    1.3887 C   0  0  0  0  0  0  0  0  0  0  0  0
    1.1595   -0.1200   -1.0610 C   0  0  0  0  0  0  0  0  0  0  0  0
    0.6553   -1.9147    0.5482 C   0  0  0  0  0  0  0  0  0  0  0  0
    4.0364   -0.4460    1.3521 C   0  0  0  0  0  0  0  0  0  0  0  0
   -1.2049   -0.4964   -0.4439 C   0  0  0  0  0  0  0  0  0  0  0  0
    5.1433    0.1261    0.5069 C   0  0  0  0  0  0  0  0  0  0  0  0
   -2.1902   -1.2574    0.4070 C   0  0  0  0  0  0  0  0  0  0  0  0
    6.1209   -0.7178   -0.0014 C   0  0  0  0  0  0  0  0  0  0  0  0
    5.1709    1.4894    0.2484 C   0  0  0  0  0  0  0  0  0  0  0  0
    7.1468   -0.1877   -0.7841 C   0  0  0  0  0  0  0  0  0  0  0  0
    6.1966    2.0195   -0.5343 C   0  0  0  0  0  0  0  0  0  0  0  0
   -3.9609    0.3739    0.8145 C   0  0  0  0  0  0  0  0  0  0  0  0
    7.1845    1.1808   -1.0504 C   0  0  0  0  0  0  0  0  0  0  0  0
   -5.3029    0.9046    0.4396 C   0  0  0  0  0  0  0  0  0  0  0  0
   -5.3478   -0.7903   -1.2296 C   0  0  0  0  0  0  0  0  0  0  0  0
   -5.9874    0.3431   -0.5561 C   0  0  0  0  0  0  0  0  0  0  0  0
    3.0625    0.7273   -0.8890 H   0  0  0  0  0  0  0  0  0  0  0  0
    2.0203    1.0933    0.5050 H   0  0  0  0  0  0  0  0  0  0  0  0
    1.5085   -0.7506    2.1538 H   0  0  0  0  0  0  0  0  0  0  0  0
    2.2582   -2.3354    1.9087 H   0  0  0  0  0  0  0  0  0  0  0  0
    0.7311    0.7581   -1.5555 H   0  0  0  0  0  0  0  0  0  0  0  0
    1.4889   -0.8100   -1.8479 H   0  0  0  0  0  0  0  0  0  0  0  0
    0.9539   -2.7164   -0.1386 H   0  0  0  0  0  0  0  0  0  0  0  0
   -0.1142   -2.3246    1.2052 H   0  0  0  0  0  0  0  0  0  0  0  0
    4.4302   -1.3137    1.8985 H   0  0  0  0  0  0  0  0  0  0  0  0
    3.7490    0.2827    2.1233 H   0  0  0  0  0  0  0  0  0  0  0  0
   -1.9652   -1.1089    1.4671 H   0  0  0  0  0  0  0  0  0  0  0  0
   -2.1667   -2.3231    0.1598 H   0  0  0  0  0  0  0  0  0  0  0  0
    6.1001   -1.7855    0.1982 H   0  0  0  0  0  0  0  0  0  0  0  0
    4.4181    2.1581    0.6561 H   0  0  0  0  0  0  0  0  0  0  0  0
    7.9158   -0.8406   -1.1863 H   0  0  0  0  0  0  0  0  0  0  0  0
    6.2281    3.0856   -0.7389 H   0  0  0  0  0  0  0  0  0  0  0  0
    7.9835    1.5937   -1.6591 H   0  0  0  0  0  0  0  0  0  0  0  0
   -5.9197   -1.2499   -2.0527 H   0  0  0  0  0  0  0  0  0  0  0  0
  1 23  1  0  0  0  0
  2 25  1  0  0  0  0
  3 14  2  0  0  0  0
  4 21  2  0  0  0  0
  5  9  1  0  0  0  0
  5 10  1  0  0  0  0
  5 13  1  0  0  0  0
  6 11  1  0  0  0  0
  6 12  1  0  0  0  0
  6 14  1  0  0  0  0
  7  8  1  0  0  0  0
  7 16  1  0  0  0  0
  7 21  1  0  0  0  0
  8 24  2  0  0  0  0
  9 11  1  0  0  0  0
  9 26  1  0  0  0  0
  9 27  1  0  0  0  0
 10 12  1  0  0  0  0
 10 28  1  0  0  0  0
 10 29  1  0  0  0  0
 11 30  1  0  0  0  0
 11 31  1  0  0  0  0
 12 32  1  0  0  0  0
 12 33  1  0  0  0  0
 13 15  1  0  0  0  0
 13 34  1  0  0  0  0
 13 35  1  0  0  0  0
 14 16  1  0  0  0  0
 15 17  2  0  0  0  0
 15 18  1  0  0  0  0
 16 36  1  0  0  0  0
 16 37  1  0  0  0  0
 17 19  1  0  0  0  0
 17 38  1  0  0  0  0
 18 20  2  0  0  0  0
 18 39  1  0  0  0  0
 19 22  2  0  0  0  0
 19 40  1  0  0  0  0
 20 22  1  0  0  0  0
 20 41  1  0  0  0  0
 21 23  1  0  0  0  0
 22 42  1  0  0  0  0
 23 25  2  0  0  0  0
 24 25  1  0  0  0  0
 24 43  1  0  0  0  0
M  END
> <PUBCHEM_COMPOUND_CID>
2418645

> <PUBCHEM_CONFORMER_RMSD>
0.8

> <PUBCHEM_CONFORMER_DIVERSEORDER>
1
108
262
157
218
89
7
253
119
78
90
226
70
43
248
151
3
192
246
21
245
195
150
2
126
199
188
243
201
249
136
230
255
162
158
183
128
115
189
68
240
83
81
111
110
236
8
53
275
259
44
221
31
239
176
191
220
117
179
250
51
181
99
80
225
219
182
211
35
104
257
98
58
72
133
36
184
205
39
260
233
216
76
254
132
282
175
91
242
268
147
22
263
130
252
234
274
165
50
244
11
168
40
267
200
124
60
197
223
93
103
57
106
270
153
204
38
105
269
235
122
28
13
94
71
121
127
212
279
64
142
213
125
273
123
173
74
137
63
208
164
138
146
149
222
177
141
159
277
42
154
86
280
227
66
203
135
209
190
214
24
19
163
29
180
238
174
140
85
118
77
102
194
271
54
266
231
75
97
25
171
276
167
210
185
30
241
139
131
172
88
155
258
47
45
6
49
26
207
206
56
20
96
166
27
178
169
69
170
229
100
144
116
48
120
129
256
65
41
12
156
73
46
264
148
198
112
87
33
34
82
237
62
113
202
281
272
278
101
9
160
14
265
55
67
114
79
134
143
15
247
5
251
23
4
18
232
84
196
193
52
16
224
61
17
187
92
161
217
107
228
145
261
32
37
215
95
109
10
186
152
59

> <PUBCHEM_MMFF94_PARTIAL_CHARGES>
31
1 -0.14
10 0.27
11 0.3
12 0.3
13 0.41
14 0.57
15 -0.14
16 0.36
17 -0.15
18 -0.15
19 -0.15
2 -0.14
20 -0.15
21 0.62
22 -0.15
23 0.15
24 0.38
25 0.15
3 -0.57
38 0.15
39 0.15
4 -0.57
40 0.15
41 0.15
42 0.15
43 0.06
5 -0.81
6 -0.66
7 -0.3
8 -0.51
9 0.27

> <PUBCHEM_EFFECTIVE_ROTOR_COUNT>
6.2

> <PUBCHEM_PHARMACOPHORE_FEATURES>
7
1 3 acceptor
1 4 acceptor
1 5 cation
1 8 acceptor
6 15 17 18 19 20 22 rings
6 5 6 9 10 11 12 rings
6 7 8 21 23 24 25 rings

> <PUBCHEM_HEAVY_ATOM_COUNT>
25

> <PUBCHEM_ATOM_DEF_STEREO_COUNT>
0

> <PUBCHEM_ATOM_UDEF_STEREO_COUNT>
0

> <PUBCHEM_BOND_DEF_STEREO_COUNT>
0

> <PUBCHEM_BOND_UDEF_STEREO_COUNT>
0

> <PUBCHEM_ISOTOPIC_ATOM_COUNT>
0

> <PUBCHEM_COMPONENT_COUNT>
1

> <PUBCHEM_CACTVS_TAUTO_COUNT>
1

> <PUBCHEM_CONFORMER_ID>
0024E7D500000001

> <PUBCHEM_MMFF94_ENERGY>
65.9679

> <PUBCHEM_FEATURE_SELFOVERLAP>
35.523

> <PUBCHEM_SHAPE_FINGERPRINT>
10 15 16298385759935859037
10591671 39 17346877866856592021
10638233 991 18412544340507280256
106641 1 17603873317140111131
10670039 82 17275109392383858480
10753850 27 11095885969043485818
10906281 52 18260277338499312378
11089746 13 18413106173405006344
11315181 36 18411702106352879949
11991303 11 16056308539696160540
12166972 35 14764627542714677834
12236239 1 18412260648952755606
12516196 113 8502657008851026278
12596602 18 18186523223794526082
13533116 47 16588290650032823242
13631057 29 18190739924751680595
13668630 136 12823299000544020108
13685833 64 11024108759055131814
13782708 43 14836115615172056886
14251752 14 16845855680965901758
14251764 18 17095240337320930951
14840074 17 17967529090728444342
15021287 119 10231753418508028043
15183329 4 17274830147117224282
15348495 7 15430326883468725476
15461852 350 18343016727610546583
15716309 27 8718828691099397085
1577012 14 18343302552434027384
17093844 174 14345792752221571709
17780758 139 12829490355379171549
19489759 90 17775283868063426963
2026 5 13830142663108111748
20567600 247 9295282824800753729
21130935 74 16660358139564690075
21150785 3 17561362885531070821
21267235 1 12247679396253145431
22061861 79 14333410056015970880
22224240 67 17022902367206114338
23035841 295 10303810999734530461
23081809 10 18412256242543306154
23198884 109 18060139859724099154
23559900 14 17560505318380873251
2838139 119 18131915957447968113
3383291 50 12535627189131601284
394071 54 17821733845059747980
397830 11 14852183886927816276
4073 2 18041000673810377986
4340502 62 13767921322083477296
445580 37 17988927764774878129
504579 68 18060128834806658527
5104073 3 17822285855805261458
5283156 175 10375875177725130007
5364581 5 14997145720289231428
5758199 1 18114181942850721338
59682541 52 17418377983003916078
59755656 215 16056883524569437534
59755656 520 18272081712694638751
6328613 192 18336831982735162300
7226269 152 15791726387242351445

> <PUBCHEM_SHAPE_MULTIPOLES>
486.57
22.23
1.76
1.36
4.12
0.37
0.19
10.58
-4.42
0.18
0.36
-0.98
0.14
-1.91

> <PUBCHEM_SHAPE_SELFOVERLAP>
1013.035

> <PUBCHEM_SHAPE_VOLUME>
275.7

> <PUBCHEM_COORDINATE_TYPE>
2
5
10

$$$$
