1867183
  -OEChem-01171809533D

 39 41  0     0  0  0  0  0  0999 V2000
   -1.9284   -2.1317    1.3507 S   0  0  0  0  0  0  0  0  0  0  0  0
    1.1333    1.8827    0.2030 O   0  0  0  0  0  0  0  0  0  0  0  0
    0.0221    0.2620    1.5171 O   0  0  0  0  0  0  0  0  0  0  0  0
    2.4364   -2.7461   -1.0557 O   0  0  0  0  0  0  0  0  0  0  0  0
    1.6053   -0.9039    0.1923 N   0  0  0  0  0  0  0  0  0  0  0  0
   -2.7507   -0.8602   -0.8487 N   0  0  0  0  0  0  0  0  0  0  0  0
   -3.2986    0.1585    1.2655 N   0  0  0  0  0  0  0  0  0  0  0  0
    2.6731    0.0461    0.0886 C   0  0  0  0  0  0  0  0  0  0  0  0
    0.4134   -0.6911    0.8630 C   0  0  0  0  0  0  0  0  0  0  0  0
   -0.3734   -1.9268    0.6958 C   0  0  0  0  0  0  0  0  0  0  0  0
    1.6136   -2.1695   -0.3628 C   0  0  0  0  0  0  0  0  0  0  0  0
    2.4097    1.4157    0.0974 C   0  0  0  0  0  0  0  0  0  0  0  0
    0.3318   -2.8014   -0.0131 C   0  0  0  0  0  0  0  0  0  0  0  0
    3.9864   -0.4111   -0.0212 C   0  0  0  0  0  0  0  0  0  0  0  0
    3.4598    2.3284   -0.0035 C   0  0  0  0  0  0  0  0  0  0  0  0
    5.0363    0.5017   -0.1221 C   0  0  0  0  0  0  0  0  0  0  0  0
    4.7731    1.8714   -0.1134 C   0  0  0  0  0  0  0  0  0  0  0  0
   -2.7441   -0.8058    0.5003 C   0  0  0  0  0  0  0  0  0  0  0  0
   -3.3800    0.1632   -1.4627 C   0  0  0  0  0  0  0  0  0  0  0  0
   -3.9111    1.1506    0.5865 C   0  0  0  0  0  0  0  0  0  0  0  0
   -3.9837    1.2061   -0.7905 C   0  0  0  0  0  0  0  0  0  0  0  0
   -3.4070    0.1358   -2.9540 C   0  0  0  0  0  0  0  0  0  0  0  0
   -4.5353    2.2340    1.4000 C   0  0  0  0  0  0  0  0  0  0  0  0
    0.4180    2.0915   -1.0126 C   0  0  0  0  0  0  0  0  0  0  0  0
    0.0495   -3.7979   -0.3111 H   0  0  0  0  0  0  0  0  0  0  0  0
    4.2338   -1.4678    0.0000 H   0  0  0  0  0  0  0  0  0  0  0  0
    3.2624    3.3969    0.0038 H   0  0  0  0  0  0  0  0  0  0  0  0
    6.0597    0.1465   -0.2002 H   0  0  0  0  0  0  0  0  0  0  0  0
    5.5908    2.5821   -0.1901 H   0  0  0  0  0  0  0  0  0  0  0  0
   -4.4821    2.0156   -1.3097 H   0  0  0  0  0  0  0  0  0  0  0  0
   -2.9060    1.0205   -3.3597 H   0  0  0  0  0  0  0  0  0  0  0  0
   -2.8923   -0.7502   -3.3403 H   0  0  0  0  0  0  0  0  0  0  0  0
   -4.4397    0.1111   -3.3163 H   0  0  0  0  0  0  0  0  0  0  0  0
   -4.3968    2.0515    2.4708 H   0  0  0  0  0  0  0  0  0  0  0  0
   -4.0797    3.2001    1.1608 H   0  0  0  0  0  0  0  0  0  0  0  0
   -5.6109    2.2867    1.2032 H   0  0  0  0  0  0  0  0  0  0  0  0
    0.3689    1.1712   -1.6033 H   0  0  0  0  0  0  0  0  0  0  0  0
    0.8887    2.8871   -1.5985 H   0  0  0  0  0  0  0  0  0  0  0  0
   -0.6010    2.3989   -0.7615 H   0  0  0  0  0  0  0  0  0  0  0  0
  1 10  1  0  0  0  0
  1 18  1  0  0  0  0
  2 12  1  0  0  0  0
  2 24  1  0  0  0  0
  3  9  2  0  0  0  0
  4 11  2  0  0  0  0
  5  8  1  0  0  0  0
  5  9  1  0  0  0  0
  5 11  1  0  0  0  0
  6 18  1  0  0  0  0
  6 19  2  0  0  0  0
  7 18  2  0  0  0  0
  7 20  1  0  0  0  0
  8 12  1  0  0  0  0
  8 14  2  0  0  0  0
  9 10  1  0  0  0  0
 10 13  2  0  0  0  0
 11 13  1  0  0  0  0
 12 15  2  0  0  0  0
 13 25  1  0  0  0  0
 14 16  1  0  0  0  0
 14 26  1  0  0  0  0
 15 17  1  0  0  0  0
 15 27  1  0  0  0  0
 16 17  2  0  0  0  0
 16 28  1  0  0  0  0
 17 29  1  0  0  0  0
 19 21  1  0  0  0  0
 19 22  1  0  0  0  0
 20 21  2  0  0  0  0
 20 23  1  0  0  0  0
 21 30  1  0  0  0  0
 22 31  1  0  0  0  0
 22 32  1  0  0  0  0
 22 33  1  0  0  0  0
 23 34  1  0  0  0  0
 23 35  1  0  0  0  0
 23 36  1  0  0  0  0
 24 37  1  0  0  0  0
 24 38  1  0  0  0  0
 24 39  1  0  0  0  0
M  END
> <PUBCHEM_COMPOUND_CID>
1867183

> <PUBCHEM_CONFORMER_RMSD>
0.8

> <PUBCHEM_CONFORMER_DIVERSEORDER>
1
29
38
65
25
64
58
42
67
43
61
33
19
4
48
57
35
39
45
63
49
36
5
55
20
37
60
52
22
32
56
59
51
24
66
62
21
54
10
50
9
40
28
30
44
15
17
53
26
12
14
41
3
13
27
2
46
34
6
47
23
7
31
16
11
18
8

> <PUBCHEM_MMFF94_PARTIAL_CHARGES>
30
1 -0.2
10 0.12
11 0.62
12 0.08
13 -0.14
14 -0.15
15 -0.15
16 -0.15
17 -0.15
18 0.72
19 0.17
2 -0.36
20 0.17
21 -0.15
22 0.14
23 0.14
24 0.28
25 0.15
26 0.15
27 0.15
28 0.15
29 0.15
3 -0.57
30 0.15
4 -0.57
5 -0.24
6 -0.62
7 -0.62
8 0.12
9 0.62

> <PUBCHEM_EFFECTIVE_ROTOR_COUNT>
4.2

> <PUBCHEM_PHARMACOPHORE_FEATURES>
8
1 2 acceptor
1 3 acceptor
1 4 acceptor
1 6 acceptor
3 6 7 18 cation
5 5 9 10 11 13 rings
6 6 7 18 19 20 21 rings
6 8 12 14 15 16 17 rings

> <PUBCHEM_HEAVY_ATOM_COUNT>
24

> <PUBCHEM_ATOM_DEF_STEREO_COUNT>
0

> <PUBCHEM_ATOM_UDEF_STEREO_COUNT>
0

> <PUBCHEM_BOND_DEF_STEREO_COUNT>
0

> <PUBCHEM_BOND_UDEF_STEREO_COUNT>
0

> <PUBCHEM_ISOTOPIC_ATOM_COUNT>
0

> <PUBCHEM_COMPONENT_COUNT>
1

> <PUBCHEM_CACTVS_TAUTO_COUNT>
1

> <PUBCHEM_CONFORMER_ID>
001C7DAF00000001

> <PUBCHEM_MMFF94_ENERGY>
80.5027

> <PUBCHEM_FEATURE_SELFOVERLAP>
40.636

> <PUBCHEM_SHAPE_FINGERPRINT>
10165383 225 17462030690444368179
10675989 125 16235570441609177005
1100329 8 17255114546036783360
11370993 70 18340770437422107288
12156800 1 16613118494144840525
12422481 6 18116690986179510200
12633257 1 18187353312287360370
12788726 201 16557636201268020985
13402501 40 18113893871105054565
13464514 151 18411140212307630138
13583140 156 17530958133253491370
14251751 93 18266173022916184330
14713325 29 18191597551624680043
15163728 17 18190483699491116132
1601671 61 18335144211170035532
18219364 16 18040432166622156725
21033648 144 18261664982651280756
21033648 29 17095793348092243301
21864079 5 18190736428325898465
22122407 14 17762634893420382873
22182313 1 18267328545560802554
22182937 141 18335145336182318723
22393880 68 16917056772219544288
22907989 373 17906448088626661583
23402539 116 18202283615373205552
23559900 14 18341336604992264210
238 59 17900782112246141589
25 1 18410012126188587322
350125 39 18192159410898929619
474 4 18410854326626164947
5104073 3 18187925140397235960
633830 44 18343026579473953142
7288768 16 18187093827912587745

> <PUBCHEM_SHAPE_MULTIPOLES>
465.21
9.45
3.06
1.61
1.75
0.88
0.87
-5.94
0.55
0.84
-0.18
-2.51
-0.13
0.16

> <PUBCHEM_SHAPE_SELFOVERLAP>
1003.102

> <PUBCHEM_SHAPE_VOLUME>
257.7

> <PUBCHEM_COORDINATE_TYPE>
2
5
10

$$$$
