658028
  -OEChem-01171809153D

 44 46  0     0  0  0  0  0  0999 V2000
   -1.4625    0.2535   -1.0637 S   0  0  0  0  0  0  0  0  0  0  0  0
   -7.8655    0.3097    0.1424 F   0  0  0  0  0  0  0  0  0  0  0  0
    0.5232   -1.5259   -0.5157 N   0  0  0  0  0  0  0  0  0  0  0  0
    1.8979   -3.4110   -0.1130 N   0  0  0  0  0  0  0  0  0  0  0  0
    0.5506    3.2746   -0.6861 N   0  0  0  0  0  0  0  0  0  0  0  0
    5.1112   -2.1837    0.6202 N   0  0  0  0  0  0  0  0  0  0  0  0
    2.6175    0.3685   -0.0782 C   0  0  0  0  0  0  0  0  0  0  0  0
    2.9410    1.0297    1.3006 C   0  0  0  0  0  0  0  0  0  0  0  0
    3.5461    0.9363   -1.1999 C   0  0  0  0  0  0  0  0  0  0  0  0
    4.4275    1.1882    1.6267 C   0  0  0  0  0  0  0  0  0  0  0  0
    5.0198    1.0973   -0.8216 C   0  0  0  0  0  0  0  0  0  0  0  0
    5.1908    1.8513    0.4892 C   0  0  0  0  0  0  0  0  0  0  0  0
    1.1421    0.7557   -0.4499 C   0  0  0  0  0  0  0  0  0  0  0  0
    2.7947   -1.1841    0.0225 C   0  0  0  0  0  0  0  0  0  0  0  0
    0.1943   -0.1953   -0.6447 C   0  0  0  0  0  0  0  0  0  0  0  0
    1.7618   -2.0436   -0.1962 C   0  0  0  0  0  0  0  0  0  0  0  0
    0.8147    2.1500   -0.5805 C   0  0  0  0  0  0  0  0  0  0  0  0
    4.0748   -1.7364    0.3527 C   0  0  0  0  0  0  0  0  0  0  0  0
   -2.3050   -0.4824    0.3459 C   0  0  0  0  0  0  0  0  0  0  0  0
   -3.7930   -0.2705    0.2914 C   0  0  0  0  0  0  0  0  0  0  0  0
   -4.5951   -1.2068   -0.3470 C   0  0  0  0  0  0  0  0  0  0  0  0
   -4.3457    0.8589    0.8807 C   0  0  0  0  0  0  0  0  0  0  0  0
   -5.9752   -1.0103   -0.3974 C   0  0  0  0  0  0  0  0  0  0  0  0
   -5.7258    1.0556    0.8305 C   0  0  0  0  0  0  0  0  0  0  0  0
   -6.5406    0.1208    0.1915 C   0  0  0  0  0  0  0  0  0  0  0  0
    2.4561    0.4679    2.1106 H   0  0  0  0  0  0  0  0  0  0  0  0
    2.5123    2.0387    1.3501 H   0  0  0  0  0  0  0  0  0  0  0  0
    3.2043    1.9317   -1.5109 H   0  0  0  0  0  0  0  0  0  0  0  0
    3.4755    0.3105   -2.1001 H   0  0  0  0  0  0  0  0  0  0  0  0
    4.8823    0.2281    1.8805 H   0  0  0  0  0  0  0  0  0  0  0  0
    4.5263    1.8056    2.5282 H   0  0  0  0  0  0  0  0  0  0  0  0
    5.5298    1.6515   -1.6193 H   0  0  0  0  0  0  0  0  0  0  0  0
    5.5242    0.1296   -0.7717 H   0  0  0  0  0  0  0  0  0  0  0  0
    4.8383    2.8829    0.3655 H   0  0  0  0  0  0  0  0  0  0  0  0
    6.2550    1.9093    0.7445 H   0  0  0  0  0  0  0  0  0  0  0  0
   -0.2144   -2.1973   -0.6938 H   0  0  0  0  0  0  0  0  0  0  0  0
    1.0866   -3.9907   -0.2873 H   0  0  0  0  0  0  0  0  0  0  0  0
    2.7845   -3.8394    0.1182 H   0  0  0  0  0  0  0  0  0  0  0  0
   -1.9063   -0.0551    1.2742 H   0  0  0  0  0  0  0  0  0  0  0  0
   -2.1011   -1.5585    0.3930 H   0  0  0  0  0  0  0  0  0  0  0  0
   -4.1657   -2.0910   -0.8099 H   0  0  0  0  0  0  0  0  0  0  0  0
   -3.7206    1.5939    1.3801 H   0  0  0  0  0  0  0  0  0  0  0  0
   -6.6097   -1.7374   -0.8953 H   0  0  0  0  0  0  0  0  0  0  0  0
   -6.1662    1.9363    1.2884 H   0  0  0  0  0  0  0  0  0  0  0  0
  1 15  1  0  0  0  0
  1 19  1  0  0  0  0
  2 25  1  0  0  0  0
  3 15  1  0  0  0  0
  3 16  1  0  0  0  0
  3 36  1  0  0  0  0
  4 16  1  0  0  0  0
  4 37  1  0  0  0  0
  4 38  1  0  0  0  0
  5 17  3  0  0  0  0
  6 18  3  0  0  0  0
  7  8  1  0  0  0  0
  7  9  1  0  0  0  0
  7 13  1  0  0  0  0
  7 14  1  0  0  0  0
  8 10  1  0  0  0  0
  8 26  1  0  0  0  0
  8 27  1  0  0  0  0
  9 11  1  0  0  0  0
  9 28  1  0  0  0  0
  9 29  1  0  0  0  0
 10 12  1  0  0  0  0
 10 30  1  0  0  0  0
 10 31  1  0  0  0  0
 11 12  1  0  0  0  0
 11 32  1  0  0  0  0
 11 33  1  0  0  0  0
 12 34  1  0  0  0  0
 12 35  1  0  0  0  0
 13 15  2  0  0  0  0
 13 17  1  0  0  0  0
 14 16  2  0  0  0  0
 14 18  1  0  0  0  0
 19 20  1  0  0  0  0
 19 39  1  0  0  0  0
 19 40  1  0  0  0  0
 20 21  2  0  0  0  0
 20 22  1  0  0  0  0
 21 23  1  0  0  0  0
 21 41  1  0  0  0  0
 22 24  2  0  0  0  0
 22 42  1  0  0  0  0
 23 25  2  0  0  0  0
 23 43  1  0  0  0  0
 24 25  1  0  0  0  0
 24 44  1  0  0  0  0
M  END
> <PUBCHEM_COMPOUND_CID>
658028

> <PUBCHEM_CONFORMER_RMSD>
0.8

> <PUBCHEM_CONFORMER_DIVERSEORDER>
1
10
11
12
7
9
13
2
8
6
5
3
4

> <PUBCHEM_MMFF94_PARTIAL_CHARGES>
27
1 -0.33
13 -0.07
14 -0.07
15 0.2
16 0.2
17 0.49
18 0.49
19 0.37
2 -0.19
20 -0.14
21 -0.15
22 -0.15
23 -0.15
24 -0.15
25 0.19
3 -0.6
36 0.4
37 0.4
38 0.4
4 -0.9
41 0.15
42 0.15
43 0.15
44 0.15
5 -0.56
6 -0.56
7 0.28

> <PUBCHEM_EFFECTIVE_ROTOR_COUNT>
4.2

> <PUBCHEM_PHARMACOPHORE_FEATURES>
9
1 3 cation
1 3 donor
1 4 cation
1 4 donor
1 5 acceptor
1 6 acceptor
6 20 21 22 23 24 25 rings
6 3 7 13 14 15 16 rings
6 7 8 9 10 11 12 rings

> <PUBCHEM_HEAVY_ATOM_COUNT>
25

> <PUBCHEM_ATOM_DEF_STEREO_COUNT>
0

> <PUBCHEM_ATOM_UDEF_STEREO_COUNT>
0

> <PUBCHEM_BOND_DEF_STEREO_COUNT>
0

> <PUBCHEM_BOND_UDEF_STEREO_COUNT>
0

> <PUBCHEM_ISOTOPIC_ATOM_COUNT>
0

> <PUBCHEM_COMPONENT_COUNT>
1

> <PUBCHEM_CACTVS_TAUTO_COUNT>
3

> <PUBCHEM_CONFORMER_ID>
000A0A6C00000001

> <PUBCHEM_MMFF94_ENERGY>
63.2031

> <PUBCHEM_FEATURE_SELFOVERLAP>
45.744

> <PUBCHEM_SHAPE_FINGERPRINT>
10165383 225 18339360868665204008
10411042 1 17979074878213453478
10595046 47 18272369763914755179
10670039 82 15338852944712596091
10688039 33 17822009779064956069
10906281 52 18114478832539079117
12107183 9 17622173365070856091
12166972 35 18272654567227668897
12236239 1 18060419127530666615
12516196 113 18407760352614275637
12596602 18 17775566468173707419
12633257 1 17895190060436959521
13140716 1 17977376463486732424
13533116 47 18271527507531787531
14170010 4 18335423482686014165
14341114 176 18412268333234485771
14528608 73 18059857289852422919
14790565 3 18047479104085735060
14863182 85 18334299777454777718
15475509 35 16878771709460003210
15475509 84 17914896435421981056
1601671 61 18335142037579045340
1813 80 17095245804492539621
20511986 3 18271794719301630487
20739085 24 18408888421437060604
21033648 29 17845363517617767136
21065198 48 18201162066394509539
21859007 373 17678161725882100613
22224240 67 18340480179458945736
23559900 14 18337951303126433193
300161 21 18413106169806228455
34797466 226 16774086193402962485
350125 39 18339079290482229484
3545911 37 18342462556348426237
4073 2 18260835929688962067
4340502 62 18342452673528431888
5104073 3 18264759982960264064
513532 50 18131081437023319766
67856867 119 18270118058548314765
70251023 43 18194406589386307354
9971528 1 18408041805825823997

> <PUBCHEM_SHAPE_MULTIPOLES>
491.14
15.93
2.65
1.11
26.16
0.72
0.13
-1.28
3.2
-3.29
-0.13
-0.75
-0.39
-0.58

> <PUBCHEM_SHAPE_SELFOVERLAP>
1034.661

> <PUBCHEM_SHAPE_VOLUME>
277.1

> <PUBCHEM_COORDINATE_TYPE>
2
5
10

$$$$
