49789464
  -OEChem-01171810193D

 46 49  0     0  0  0  0  0  0999 V2000
    0.7867    1.4050    0.7464 O   0  0  0  0  0  0  0  0  0  0  0  0
   -0.6443   -2.4342    0.2938 O   0  0  0  0  0  0  0  0  0  0  0  0
   -7.4950    1.8370   -0.3699 O   0  0  0  0  0  0  0  0  0  0  0  0
    6.2094   -0.4121    0.2846 N   0  0  0  0  0  0  0  0  0  0  0  0
   -1.2517   -0.2031   -0.1056 N   0  0  0  0  0  0  0  0  0  0  0  0
    7.4208    0.1132    0.0339 N   0  0  0  0  0  0  0  0  0  0  0  0
   -6.8480   -0.3939    0.0346 N   0  0  0  0  0  0  0  0  0  0  0  0
    3.8122   -0.1847   -0.2828 C   0  0  0  0  0  0  0  0  0  0  0  0
    2.8751    0.7550    0.1814 C   0  0  0  0  0  0  0  0  0  0  0  0
    1.5419    0.3704    0.2814 C   0  0  0  0  0  0  0  0  0  0  0  0
    1.0670   -0.8968   -0.0515 C   0  0  0  0  0  0  0  0  0  0  0  0
    5.1935    0.1982   -0.3907 C   0  0  0  0  0  0  0  0  0  0  0  0
    3.3643   -1.4678   -0.6254 C   0  0  0  0  0  0  0  0  0  0  0  0
    2.0158   -1.8150   -0.5113 C   0  0  0  0  0  0  0  0  0  0  0  0
    2.9203    2.1066    0.6138 C   0  0  0  0  0  0  0  0  0  0  0  0
   -0.3338   -1.2508    0.0695 C   0  0  0  0  0  0  0  0  0  0  0  0
    5.7812    1.1921   -1.1346 C   0  0  0  0  0  0  0  0  0  0  0  0
    1.6302    2.4514    0.9445 C   0  0  0  0  0  0  0  0  0  0  0  0
    7.1529    1.0927   -0.8338 C   0  0  0  0  0  0  0  0  0  0  0  0
    6.1043   -1.5236    1.2024 C   0  0  0  0  0  0  0  0  0  0  0  0
   -2.6670   -0.2512   -0.0688 C   0  0  0  0  0  0  0  0  0  0  0  0
   -3.3181   -1.4620    0.1672 C   0  0  0  0  0  0  0  0  0  0  0  0
   -3.4096    0.9123   -0.2702 C   0  0  0  0  0  0  0  0  0  0  0  0
   -5.4542   -0.3459    0.0000 C   0  0  0  0  0  0  0  0  0  0  0  0
   -4.7116   -1.5094    0.2016 C   0  0  0  0  0  0  0  0  0  0  0  0
   -4.8032    0.8649   -0.2359 C   0  0  0  0  0  0  0  0  0  0  0  0
   -7.7547    0.6596   -0.1436 C   0  0  0  0  0  0  0  0  0  0  0  0
   -9.1843    0.1921   -0.0309 C   0  0  0  0  0  0  0  0  0  0  0  0
    4.0632   -2.2141   -0.9980 H   0  0  0  0  0  0  0  0  0  0  0  0
    1.7147   -2.8212   -0.7955 H   0  0  0  0  0  0  0  0  0  0  0  0
    3.7823    2.7550    0.6818 H   0  0  0  0  0  0  0  0  0  0  0  0
    5.2949    1.8899   -1.8013 H   0  0  0  0  0  0  0  0  0  0  0  0
    1.1717    3.3555    1.3173 H   0  0  0  0  0  0  0  0  0  0  0  0
   -0.8755    0.7214   -0.3029 H   0  0  0  0  0  0  0  0  0  0  0  0
    7.9682    1.6931   -1.2109 H   0  0  0  0  0  0  0  0  0  0  0  0
    5.2240   -1.3906    1.8356 H   0  0  0  0  0  0  0  0  0  0  0  0
    6.9962   -1.5510    1.8349 H   0  0  0  0  0  0  0  0  0  0  0  0
    6.0348   -2.4450    0.6197 H   0  0  0  0  0  0  0  0  0  0  0  0
   -2.8132   -2.4032    0.3319 H   0  0  0  0  0  0  0  0  0  0  0  0
   -2.9135    1.8618   -0.4549 H   0  0  0  0  0  0  0  0  0  0  0  0
   -5.2070   -2.4594    0.3864 H   0  0  0  0  0  0  0  0  0  0  0  0
   -5.3093    1.8059   -0.4003 H   0  0  0  0  0  0  0  0  0  0  0  0
   -7.2466   -1.3135    0.2123 H   0  0  0  0  0  0  0  0  0  0  0  0
   -9.8624    1.0425   -0.1437 H   0  0  0  0  0  0  0  0  0  0  0  0
   -9.3965   -0.5389   -0.8161 H   0  0  0  0  0  0  0  0  0  0  0  0
   -9.3494   -0.2650    0.9488 H   0  0  0  0  0  0  0  0  0  0  0  0
  1 10  1  0  0  0  0
  1 18  1  0  0  0  0
  2 16  2  0  0  0  0
  3 27  2  0  0  0  0
  4  6  1  0  0  0  0
  4 12  1  0  0  0  0
  4 20  1  0  0  0  0
  5 16  1  0  0  0  0
  5 21  1  0  0  0  0
  5 34  1  0  0  0  0
  6 19  2  0  0  0  0
  7 24  1  0  0  0  0
  7 27  1  0  0  0  0
  7 43  1  0  0  0  0
  8  9  2  0  0  0  0
  8 12  1  0  0  0  0
  8 13  1  0  0  0  0
  9 10  1  0  0  0  0
  9 15  1  0  0  0  0
 10 11  2  0  0  0  0
 11 14  1  0  0  0  0
 11 16  1  0  0  0  0
 12 17  2  0  0  0  0
 13 14  2  0  0  0  0
 13 29  1  0  0  0  0
 14 30  1  0  0  0  0
 15 18  2  0  0  0  0
 15 31  1  0  0  0  0
 17 19  1  0  0  0  0
 17 32  1  0  0  0  0
 18 33  1  0  0  0  0
 19 35  1  0  0  0  0
 20 36  1  0  0  0  0
 20 37  1  0  0  0  0
 20 38  1  0  0  0  0
 21 22  2  0  0  0  0
 21 23  1  0  0  0  0
 22 25  1  0  0  0  0
 22 39  1  0  0  0  0
 23 26  2  0  0  0  0
 23 40  1  0  0  0  0
 24 25  2  0  0  0  0
 24 26  1  0  0  0  0
 25 41  1  0  0  0  0
 26 42  1  0  0  0  0
 27 28  1  0  0  0  0
 28 44  1  0  0  0  0
 28 45  1  0  0  0  0
 28 46  1  0  0  0  0
M  END
> <PUBCHEM_COMPOUND_CID>
49789464

> <PUBCHEM_CONFORMER_RMSD>
0.8

> <PUBCHEM_CONFORMER_DIVERSEORDER>
1
16
24
5
26
27
10
21
3
18
12
14
8
28
25
7
13
2
23
11
22
6
4
17
15
19
20
9

> <PUBCHEM_MMFF94_PARTIAL_CHARGES>
39
1 -0.28
10 0.14
11 0.09
12 -0.2
13 -0.15
14 -0.15
15 -0.15
16 0.54
17 -0.15
18 -0.01
19 0.14
2 -0.57
20 0.26
21 0.12
22 -0.15
23 -0.15
24 0.12
25 -0.15
26 -0.15
27 0.57
28 0.06
29 0.15
3 -0.57
30 0.15
31 0.15
32 0.15
33 0.15
34 0.37
35 0.15
39 0.15
4 0.31
40 0.15
41 0.15
42 0.15
43 0.37
5 -0.55
6 -0.71
7 -0.55
8 0.05

> <PUBCHEM_EFFECTIVE_ROTOR_COUNT>
6

> <PUBCHEM_PHARMACOPHORE_FEATURES>
10
1 1 acceptor
1 2 acceptor
1 3 acceptor
1 5 donor
1 6 acceptor
1 7 donor
5 1 9 10 15 18 rings
5 4 6 12 17 19 rings
6 21 22 23 24 25 26 rings
6 8 9 10 11 13 14 rings

> <PUBCHEM_HEAVY_ATOM_COUNT>
28

> <PUBCHEM_ATOM_DEF_STEREO_COUNT>
0

> <PUBCHEM_ATOM_UDEF_STEREO_COUNT>
0

> <PUBCHEM_BOND_DEF_STEREO_COUNT>
0

> <PUBCHEM_BOND_UDEF_STEREO_COUNT>
0

> <PUBCHEM_ISOTOPIC_ATOM_COUNT>
0

> <PUBCHEM_COMPONENT_COUNT>
1

> <PUBCHEM_CACTVS_TAUTO_COUNT>
4

> <PUBCHEM_CONFORMER_ID>
02F7BA1800000001

> <PUBCHEM_MMFF94_ENERGY>
76.1583

> <PUBCHEM_FEATURE_SELFOVERLAP>
50.85

> <PUBCHEM_SHAPE_FINGERPRINT>
10 15 18040157314511520203
10162869 55 18130496510202227583
10165383 225 18260268555201294238
10299344 5 18186801383172449995
10411042 1 17981610356285064734
10673678 19 18117855493552950228
10906281 52 18199488644046353218
11646440 116 17775291585982450042
11719270 70 18272086072355586038
12664476 115 18409164403884387629
12788726 201 18272938185608942008
12838862 33 18200579354605651176
13402501 40 18410575101848235877
14118638 360 17059784316971776043
14170010 4 18059855073607061408
14251764 18 18409166606389668463
14251764 46 18410855460977507422
14933364 13 18409450293570007221
15183329 4 18343306967650033528
15439362 3 18050850219695705592
15840311 113 17531252785886127172
15849732 13 16487255482278273804
16087824 20 18412827967025515168
16120349 18 18040715891618541852
16989713 51 17773310343925159311
18608769 82 18261395576970352627
19611394 137 17823432663908267529
21033648 29 18336538438578408481
21792934 111 18272362076176445024
21792961 116 18411984616189940158
221357 26 18272933804325756433
22224240 67 11891334274613166724
23559900 14 18340482369923921745
23576562 1 18198062692801751357
24893992 56 18410009966669422115
249057 3 17632574981282119087
3004659 81 18410571807651057425
3178227 256 18337965561858816979
335352 9 18342176691113422493
335507 130 18131632327447389823
3411729 13 17773020081613704784
350125 39 18409729564785539301
3545911 37 18411699894286538341
4072396 5 18343577435559474682
4073 2 17968101957624630955
4098825 35 18041275483134669949
4340502 62 16732702749124329610
59755656 215 18413109450723327765
59755656 520 17749103422454317955
9663363 56 17917992781305498976

> <PUBCHEM_SHAPE_MULTIPOLES>
538.69
23.5
2.08
0.84
27.93
0.12
-0.03
4.92
2.44
-0.74
-0.3
-0.98
0.09
-0.11

> <PUBCHEM_SHAPE_SELFOVERLAP>
1195.249

> <PUBCHEM_SHAPE_VOLUME>
290.4

> <PUBCHEM_COORDINATE_TYPE>
2
5
10

$$$$
