2210633
  -OEChem-01171809313D

 51 54  0     0  0  0  0  0  0999 V2000
   -1.9876    2.9452    0.1307 S   0  0  0  0  0  0  0  0  0  0  0  0
    6.1961   -0.9750   -1.3491 O   0  0  0  0  0  0  0  0  0  0  0  0
    4.1584   -1.4854   -2.2382 O   0  0  0  0  0  0  0  0  0  0  0  0
   -3.7880   -1.3663    0.0290 O   0  0  0  0  0  0  0  0  0  0  0  0
   -1.4906    0.2164   -0.0087 N   0  0  0  0  0  0  0  0  0  0  0  0
   -3.7357    0.9756    0.0941 N   0  0  0  0  0  0  0  0  0  0  0  0
    4.1476   -0.2137   -0.2272 C   0  0  0  0  0  0  0  0  0  0  0  0
    2.6781   -0.1012   -0.1709 C   0  0  0  0  0  0  0  0  0  0  0  0
    6.3334    0.2905    0.7178 C   0  0  0  0  0  0  0  0  0  0  0  0
    4.8816    0.3607    0.7381 C   0  0  0  0  0  0  0  0  0  0  0  0
    6.9583   -0.3754   -0.3296 C   0  0  0  0  0  0  0  0  0  0  0  0
    2.0365    0.9705   -0.7906 C   0  0  0  0  0  0  0  0  0  0  0  0
    1.9317   -1.0672    0.5032 C   0  0  0  0  0  0  0  0  0  0  0  0
   -0.1006    0.1109   -0.0620 C   0  0  0  0  0  0  0  0  0  0  0  0
   -5.8455   -0.2542    0.0908 C   0  0  0  0  0  0  0  0  0  0  0  0
   -7.8903    0.8679   -0.4283 C   0  0  0  0  0  0  0  0  0  0  0  0
   -7.9233   -1.2993    0.6391 C   0  0  0  0  0  0  0  0  0  0  0  0
    4.8041   -0.9374   -1.3505 C   0  0  0  0  0  0  0  0  0  0  0  0
    0.6467    1.0766   -0.7361 C   0  0  0  0  0  0  0  0  0  0  0  0
    0.5419   -0.9611    0.5575 C   0  0  0  0  0  0  0  0  0  0  0  0
   -6.5286   -1.3253    0.6294 C   0  0  0  0  0  0  0  0  0  0  0  0
   -6.4957    0.8419   -0.4381 C   0  0  0  0  0  0  0  0  0  0  0  0
   -8.6040   -0.2028    0.1101 C   0  0  0  0  0  0  0  0  0  0  0  0
    7.1222    0.8726    1.7131 C   0  0  0  0  0  0  0  0  0  0  0  0
    8.3457   -0.4770   -0.4113 C   0  0  0  0  0  0  0  0  0  0  0  0
   -4.3609   -0.2820    0.0807 C   0  0  0  0  0  0  0  0  0  0  0  0
    8.5153    0.7793    1.6454 C   0  0  0  0  0  0  0  0  0  0  0  0
    9.1255    0.1057    0.5851 C   0  0  0  0  0  0  0  0  0  0  0  0
   -8.6182    2.0405   -0.9938 C   0  0  0  0  0  0  0  0  0  0  0  0
   -8.6867   -2.4432    1.2162 C   0  0  0  0  0  0  0  0  0  0  0  0
   -2.3672    1.3122    0.0543 C   0  0  0  0  0  0  0  0  0  0  0  0
    4.4162    0.8967    1.5606 H   0  0  0  0  0  0  0  0  0  0  0  0
    2.6049    1.7228   -1.3323 H   0  0  0  0  0  0  0  0  0  0  0  0
    2.4182   -1.9087    0.9905 H   0  0  0  0  0  0  0  0  0  0  0  0
    0.1887    1.8898   -1.2873 H   0  0  0  0  0  0  0  0  0  0  0  0
   -0.0280   -1.7206    1.0868 H   0  0  0  0  0  0  0  0  0  0  0  0
   -6.0015   -2.1777    1.0491 H   0  0  0  0  0  0  0  0  0  0  0  0
   -5.9719    1.6705   -0.9040 H   0  0  0  0  0  0  0  0  0  0  0  0
   -9.6913   -0.1830    0.1181 H   0  0  0  0  0  0  0  0  0  0  0  0
    6.6671    1.4020    2.5466 H   0  0  0  0  0  0  0  0  0  0  0  0
    8.8181   -1.0013   -1.2363 H   0  0  0  0  0  0  0  0  0  0  0  0
   -1.9387   -0.6643    0.2323 H   0  0  0  0  0  0  0  0  0  0  0  0
    9.1259    1.2329    2.4210 H   0  0  0  0  0  0  0  0  0  0  0  0
   10.2083    0.0365    0.5380 H   0  0  0  0  0  0  0  0  0  0  0  0
   -8.0717    2.9705   -0.8036 H   0  0  0  0  0  0  0  0  0  0  0  0
   -8.7433    1.9194   -2.0743 H   0  0  0  0  0  0  0  0  0  0  0  0
   -9.6081    2.1525   -0.5384 H   0  0  0  0  0  0  0  0  0  0  0  0
   -8.8611   -2.2779    2.2840 H   0  0  0  0  0  0  0  0  0  0  0  0
   -9.6542   -2.5649    0.7172 H   0  0  0  0  0  0  0  0  0  0  0  0
   -8.1419   -3.3852    1.0911 H   0  0  0  0  0  0  0  0  0  0  0  0
   -4.3293    1.7939    0.1898 H   0  0  0  0  0  0  0  0  0  0  0  0
  1 31  2  0  0  0  0
  2 11  1  0  0  0  0
  2 18  1  0  0  0  0
  3 18  2  0  0  0  0
  4 26  2  0  0  0  0
  5 14  1  0  0  0  0
  5 31  1  0  0  0  0
  5 42  1  0  0  0  0
  6 26  1  0  0  0  0
  6 31  1  0  0  0  0
  6 51  1  0  0  0  0
  7  8  1  0  0  0  0
  7 10  2  0  0  0  0
  7 18  1  0  0  0  0
  8 12  2  0  0  0  0
  8 13  1  0  0  0  0
  9 10  1  0  0  0  0
  9 11  1  0  0  0  0
  9 24  2  0  0  0  0
 10 32  1  0  0  0  0
 11 25  2  0  0  0  0
 12 19  1  0  0  0  0
 12 33  1  0  0  0  0
 13 20  2  0  0  0  0
 13 34  1  0  0  0  0
 14 19  2  0  0  0  0
 14 20  1  0  0  0  0
 15 21  2  0  0  0  0
 15 22  1  0  0  0  0
 15 26  1  0  0  0  0
 16 22  2  0  0  0  0
 16 23  1  0  0  0  0
 16 29  1  0  0  0  0
 17 21  1  0  0  0  0
 17 23  2  0  0  0  0
 17 30  1  0  0  0  0
 19 35  1  0  0  0  0
 20 36  1  0  0  0  0
 21 37  1  0  0  0  0
 22 38  1  0  0  0  0
 23 39  1  0  0  0  0
 24 27  1  0  0  0  0
 24 40  1  0  0  0  0
 25 28  1  0  0  0  0
 25 41  1  0  0  0  0
 27 28  2  0  0  0  0
 27 43  1  0  0  0  0
 28 44  1  0  0  0  0
 29 45  1  0  0  0  0
 29 46  1  0  0  0  0
 29 47  1  0  0  0  0
 30 48  1  0  0  0  0
 30 49  1  0  0  0  0
 30 50  1  0  0  0  0
M  END
> <PUBCHEM_COMPOUND_CID>
2210633

> <PUBCHEM_CONFORMER_RMSD>
0.8

> <PUBCHEM_CONFORMER_DIVERSEORDER>
2
18
5
23
7
19
14
20
10
25
3
12
13
6
16
9
17
8
22
4
1
21
15
24
11

> <PUBCHEM_MMFF94_PARTIAL_CHARGES>
45
1 -0.38
10 -0.18
11 0.08
12 -0.15
13 -0.15
14 0.12
15 0.09
16 -0.14
17 -0.14
18 0.71
19 -0.15
2 -0.23
20 -0.15
21 -0.15
22 -0.15
23 -0.15
24 -0.15
25 -0.15
26 0.54
27 -0.15
28 -0.15
29 0.14
3 -0.57
30 0.14
31 0.5
32 0.15
33 0.15
34 0.15
35 0.15
36 0.15
37 0.15
38 0.15
39 0.15
4 -0.57
40 0.15
41 0.15
42 0.37
43 0.15
44 0.15
5 -0.55
51 0.37
6 -0.49
7 -0.01
8 0.03
9 0.03

> <PUBCHEM_EFFECTIVE_ROTOR_COUNT>
6

> <PUBCHEM_PHARMACOPHORE_FEATURES>
9
1 1 acceptor
1 3 acceptor
1 4 acceptor
1 5 donor
1 6 donor
6 15 16 17 21 22 23 rings
6 2 7 9 10 11 18 rings
6 8 12 13 14 19 20 rings
6 9 11 24 25 27 28 rings

> <PUBCHEM_HEAVY_ATOM_COUNT>
31

> <PUBCHEM_ATOM_DEF_STEREO_COUNT>
0

> <PUBCHEM_ATOM_UDEF_STEREO_COUNT>
0

> <PUBCHEM_BOND_DEF_STEREO_COUNT>
0

> <PUBCHEM_BOND_UDEF_STEREO_COUNT>
0

> <PUBCHEM_ISOTOPIC_ATOM_COUNT>
0

> <PUBCHEM_COMPONENT_COUNT>
1

> <PUBCHEM_CACTVS_TAUTO_COUNT>
5

> <PUBCHEM_CONFORMER_ID>
0021BB4900000002

> <PUBCHEM_MMFF94_ENERGY>
116.9196

> <PUBCHEM_FEATURE_SELFOVERLAP>
45.736

> <PUBCHEM_SHAPE_FINGERPRINT>
10 15 18130784564641430814
10050765 1 18048314448963736427
10162869 55 16298385794522756314
10299344 5 16660082213574935427
10391435 84 18272087218969065219
11135926 11 18113889468975105127
11315181 36 17560801027327608577
11408170 108 15936959731852586352
12089408 11 17167864166561198710
12838862 33 18336251389161207431
13811026 1 18410011052742266305
14068700 675 17822014220314419349
14118638 360 17703231715595971984
14150022 121 16845300402178130193
14251764 18 16153706518210769584
14251764 46 18410854360621808786
150020 25 18272652324647519772
15065858 18 18409444787052714082
15131766 46 15142961883662359670
15183329 4 14129052634581495521
15247644 1 16515684459627473195
15328684 2 16951390045031845697
15392192 104 14620796016043978309
15419008 47 18201994421787078336
15419008 91 18337938052852450165
15461852 350 17967817132578262124
15510794 2 18343021082274887079
15840311 113 14117791445591374082
15849732 13 18344146994797229853
16120349 18 16845565431603308992
18335252 98 18131635573709065150
19315958 150 17632864135365469414
21130935 74 18267023860854988242
21267235 1 18408891750226631765
21362267 313 17750224825698706536
22002106 203 18198058291505498095
22224240 67 17131832075233825287
232437 2 17967532380567897954
23569917 315 17968097478612434922
3004659 81 18113058251253453029
3092352 35 14333406753123135596
335507 130 17775283868011011044
3383291 50 18336834182133406563
3418910 222 18343591745995775976
4339292 15 18188769570255915179
5219985 9 16732700549510256629
5719381 82 18040721411706942115
58902169 19 15575003913660587335
59682541 35 18272649069363055104
6126387 218 18202565060680914081
6201320 215 15719938126582896013
67123 10 18186521020856071568
9663363 56 18342173372290599617

> <PUBCHEM_SHAPE_MULTIPOLES>
614.24
34.24
1.9
1.26
9.84
0.53
0.15
-4.71
-5.65
4.47
-0.12
-2.38
-0.2
3.1

> <PUBCHEM_SHAPE_SELFOVERLAP>
1336.857

> <PUBCHEM_SHAPE_VOLUME>
337

> <PUBCHEM_COORDINATE_TYPE>
2
5
10

$$$$
