51360614
  -OEChem-01171810203D

 38 41  0     0  0  0  0  0  0999 V2000
   -4.8348   -3.0812   -0.6913 Cl  0  0  0  0  0  0  0  0  0  0  0  0
    4.3784   -1.5434   -1.2178 F   0  0  0  0  0  0  0  0  0  0  0  0
    2.4865   -1.9635   -2.2037 F   0  0  0  0  0  0  0  0  0  0  0  0
    2.9974    0.0748   -1.6671 F   0  0  0  0  0  0  0  0  0  0  0  0
    1.5200    2.0896   -0.2777 O   0  0  0  0  0  0  0  0  0  0  0  0
   -2.2084   -0.1387   -0.2950 N   0  0  0  0  0  0  0  0  0  0  0  0
   -2.1885    2.0159    0.3052 N   0  0  0  0  0  0  0  0  0  0  0  0
   -0.9057    0.2787   -0.3901 C   0  0  0  0  0  0  0  0  0  0  0  0
    0.2007   -0.6017   -0.8167 C   0  0  0  0  0  0  0  0  0  0  0  0
   -0.9208    1.6021   -0.0170 C   0  0  0  0  0  0  0  0  0  0  0  0
    1.0682   -1.1186    0.3212 C   0  0  0  0  0  0  0  0  0  0  0  0
   -2.9529    0.9569    0.1331 C   0  0  0  0  0  0  0  0  0  0  0  0
    2.4186   -1.4045    0.1212 C   0  0  0  0  0  0  0  0  0  0  0  0
   -2.7585   -1.3913   -0.5563 C   0  0  0  0  0  0  0  0  0  0  0  0
    0.2571    2.4806    0.0374 C   0  0  0  0  0  0  0  0  0  0  0  0
    0.4945   -1.3056    1.5787 C   0  0  0  0  0  0  0  0  0  0  0  0
   -4.3543    0.7604    0.3066 C   0  0  0  0  0  0  0  0  0  0  0  0
   -4.0802   -1.5662   -0.3899 C   0  0  0  0  0  0  0  0  0  0  0  0
    3.1954   -1.8775    1.1788 C   0  0  0  0  0  0  0  0  0  0  0  0
   -4.8970   -0.4473    0.0567 C   0  0  0  0  0  0  0  0  0  0  0  0
    3.0552   -1.2122   -1.2160 C   0  0  0  0  0  0  0  0  0  0  0  0
    1.2712   -1.7787    2.6364 C   0  0  0  0  0  0  0  0  0  0  0  0
    0.2400    3.8044    0.4109 C   0  0  0  0  0  0  0  0  0  0  0  0
    2.6217   -2.0646    2.4365 C   0  0  0  0  0  0  0  0  0  0  0  0
    1.5783    4.2558    0.3193 C   0  0  0  0  0  0  0  0  0  0  0  0
    2.3178    3.1756   -0.1034 C   0  0  0  0  0  0  0  0  0  0  0  0
    0.7931   -0.0315   -1.5378 H   0  0  0  0  0  0  0  0  0  0  0  0
   -0.1544   -1.4715   -1.3797 H   0  0  0  0  0  0  0  0  0  0  0  0
   -2.1048   -2.1909   -0.8805 H   0  0  0  0  0  0  0  0  0  0  0  0
   -0.5551   -1.1136    1.7761 H   0  0  0  0  0  0  0  0  0  0  0  0
   -4.9700    1.5888    0.6391 H   0  0  0  0  0  0  0  0  0  0  0  0
    4.2491   -2.1070    1.0470 H   0  0  0  0  0  0  0  0  0  0  0  0
   -5.9636   -0.5996    0.1879 H   0  0  0  0  0  0  0  0  0  0  0  0
    0.8239   -1.9284    3.6148 H   0  0  0  0  0  0  0  0  0  0  0  0
   -0.6215    4.3836    0.7134 H   0  0  0  0  0  0  0  0  0  0  0  0
    3.2261   -2.4337    3.2600 H   0  0  0  0  0  0  0  0  0  0  0  0
    1.9568    5.2445    0.5346 H   0  0  0  0  0  0  0  0  0  0  0  0
    3.3659    3.0237   -0.3163 H   0  0  0  0  0  0  0  0  0  0  0  0
  1 18  1  0  0  0  0
  2 21  1  0  0  0  0
  3 21  1  0  0  0  0
  4 21  1  0  0  0  0
  5 15  1  0  0  0  0
  5 26  1  0  0  0  0
  6  8  1  0  0  0  0
  6 12  1  0  0  0  0
  6 14  1  0  0  0  0
  7 10  1  0  0  0  0
  7 12  2  0  0  0  0
  8  9  1  0  0  0  0
  8 10  2  0  0  0  0
  9 11  1  0  0  0  0
  9 27  1  0  0  0  0
  9 28  1  0  0  0  0
 10 15  1  0  0  0  0
 11 13  1  0  0  0  0
 11 16  2  0  0  0  0
 12 17  1  0  0  0  0
 13 19  2  0  0  0  0
 13 21  1  0  0  0  0
 14 18  2  0  0  0  0
 14 29  1  0  0  0  0
 15 23  2  0  0  0  0
 16 22  1  0  0  0  0
 16 30  1  0  0  0  0
 17 20  2  0  0  0  0
 17 31  1  0  0  0  0
 18 20  1  0  0  0  0
 19 24  1  0  0  0  0
 19 32  1  0  0  0  0
 20 33  1  0  0  0  0
 22 24  2  0  0  0  0
 22 34  1  0  0  0  0
 23 25  1  0  0  0  0
 23 35  1  0  0  0  0
 24 36  1  0  0  0  0
 25 26  2  0  0  0  0
 25 37  1  0  0  0  0
 26 38  1  0  0  0  0
M  END
> <PUBCHEM_COMPOUND_CID>
51360614

> <PUBCHEM_CONFORMER_RMSD>
0.8

> <PUBCHEM_CONFORMER_DIVERSEORDER>
1
17
16
12
18
27
19
26
20
8
5
24
10
23
9
22
6
15
4
14
13
2
11
21
25
7
3

> <PUBCHEM_MMFF94_PARTIAL_CHARGES>
36
1 -0.14
10 0.23
11 -0.14
12 0.14
13 -0.14
14 -0.18
15 0.14
16 -0.15
17 -0.11
18 0.14
19 -0.15
2 -0.34
20 -0.15
21 1.16
22 -0.15
23 -0.15
24 -0.15
25 -0.15
26 -0.01
29 0.15
3 -0.34
30 0.15
31 0.15
32 0.15
33 0.15
34 0.15
35 0.15
36 0.15
37 0.15
38 0.15
4 -0.34
5 -0.28
6 0.33
7 -0.57
8 -0.33
9 0.32

> <PUBCHEM_EFFECTIVE_ROTOR_COUNT>
4

> <PUBCHEM_PHARMACOPHORE_FEATURES>
6
1 5 acceptor
3 6 7 12 cation
5 5 15 23 25 26 rings
5 6 7 8 10 12 rings
6 11 13 16 19 22 24 rings
6 6 12 14 17 18 20 rings

> <PUBCHEM_HEAVY_ATOM_COUNT>
26

> <PUBCHEM_ATOM_DEF_STEREO_COUNT>
0

> <PUBCHEM_ATOM_UDEF_STEREO_COUNT>
0

> <PUBCHEM_BOND_DEF_STEREO_COUNT>
0

> <PUBCHEM_BOND_UDEF_STEREO_COUNT>
0

> <PUBCHEM_ISOTOPIC_ATOM_COUNT>
0

> <PUBCHEM_COMPONENT_COUNT>
1

> <PUBCHEM_CACTVS_TAUTO_COUNT>
1

> <PUBCHEM_CONFORMER_ID>
030FB36600000001

> <PUBCHEM_MMFF94_ENERGY>
45.7202

> <PUBCHEM_FEATURE_SELFOVERLAP>
30.563

> <PUBCHEM_SHAPE_FINGERPRINT>
10165383 225 16403398728468192224
10369192 42 17058337454675654786
107951 10 17393037757440932384
1100329 8 18410854314115997881
11578080 2 17604966200963722829
12156800 1 13628532843973965152
12553582 1 18338514123882636747
12596599 1 18271810086235699547
12788726 201 18046636607094161272
13009979 54 17536863395769498770
13140716 1 18268419157741924489
133893 2 17977909640093621613
14022347 108 18196379113187982187
14787075 74 18260271867259343772
14790565 3 17477504005328166225
15375462 189 18041563525232076731
15475509 35 17604163579656859459
15664445 248 18341334409498837902
17909252 39 17981630443108207671
1813 80 18271237240503502483
18222031 100 18200583718835775575
19319366 153 17461451217582552089
20028762 73 16683170068052489555
20567600 347 17904476659961895133
20600515 1 18199169707937775145
20642791 35 18411143498037154937
20691752 17 17822006549280762033
20905425 154 18411129238835312032
21421861 104 18336542824220065721
23366157 5 18188488098692937509
23419403 2 17756748403578145979
23557571 272 17984974900145211458
23559900 14 18273494581151910951
23598288 3 17755584837098358409
238 59 18120666978495707392
238918 7 17325499194261996003
3411729 13 18266735964585678257
352729 6 16966315701036039321
392239 28 18116131304543006480
43471831 8 17976528731030830081
57527358 35 15398869950055297939
59755656 215 18051131694476217957
6138700 20 18339082717750723916
621550 5 17273706360165713478
6287921 2 17916290800875448250
70251023 43 18339932605620566171
7364860 26 18270684289176242445
81228 2 17839731570026417913
90316 7 18049428254485559337
9841814 1 18335976523870166155
9981440 41 17477485769139172544

> <PUBCHEM_SHAPE_MULTIPOLES>
499.29
7.92
4.54
1.67
9.09
4.56
-0.41
-5.15
1.53
-2.94
-0.8
-2.02
-1.7
-0.87

> <PUBCHEM_SHAPE_SELFOVERLAP>
1108.441

> <PUBCHEM_SHAPE_VOLUME>
269

> <PUBCHEM_COORDINATE_TYPE>
2
5
10

$$$$
