1314336
  -OEChem-01171809243D

 44 45  0     0  0  0  0  0  0999 V2000
   -3.5176   -1.7187   -0.0570 S   0  0  0  0  0  0  0  0  0  0  0  0
   -0.6695    3.8531    1.4693 S   0  0  0  0  0  0  0  0  0  0  0  0
    2.3755   -1.9018    0.0674 O   0  0  0  0  0  0  0  0  0  0  0  0
   -3.9892   -2.7699    0.8249 O   0  0  0  0  0  0  0  0  0  0  0  0
   -3.9313   -1.7047   -1.4470 O   0  0  0  0  0  0  0  0  0  0  0  0
    5.0748    0.3358   -0.6368 O   0  0  0  0  0  0  0  0  0  0  0  0
    4.7851   -1.2152    1.0481 O   0  0  0  0  0  0  0  0  0  0  0  0
   -3.8398   -0.1905    0.6700 N   0  0  0  0  0  0  0  0  0  0  0  0
   -1.7490   -1.7736   -0.0202 C   0  0  0  0  0  0  0  0  0  0  0  0
   -3.2001    0.9715    0.1412 C   0  0  0  0  0  0  0  0  0  0  0  0
   -1.1150   -2.3194    1.0813 C   0  0  0  0  0  0  0  0  0  0  0  0
   -1.0362   -1.2693   -1.0930 C   0  0  0  0  0  0  0  0  0  0  0  0
    1.0154   -1.8586    0.0389 C   0  0  0  0  0  0  0  0  0  0  0  0
    0.2790   -2.3622    1.1111 C   0  0  0  0  0  0  0  0  0  0  0  0
    0.3577   -1.3121   -1.0632 C   0  0  0  0  0  0  0  0  0  0  0  0
   -2.3623    1.7379    0.9514 C   0  0  0  0  0  0  0  0  0  0  0  0
   -3.4131    1.3393   -1.1873 C   0  0  0  0  0  0  0  0  0  0  0  0
   -1.7375    2.8722    0.4331 C   0  0  0  0  0  0  0  0  0  0  0  0
   -2.7885    2.4737   -1.7056 C   0  0  0  0  0  0  0  0  0  0  0  0
   -1.9507    3.2402   -0.8954 C   0  0  0  0  0  0  0  0  0  0  0  0
    3.0726   -0.8730   -0.6333 C   0  0  0  0  0  0  0  0  0  0  0  0
    4.3947   -0.6315    0.0461 C   0  0  0  0  0  0  0  0  0  0  0  0
    6.3600    0.6759   -0.1066 C   0  0  0  0  0  0  0  0  0  0  0  0
    0.6052    2.6468    1.9322 C   0  0  0  0  0  0  0  0  0  0  0  0
    6.9797    1.7542   -0.9697 C   0  0  0  0  0  0  0  0  0  0  0  0
   -3.9529   -0.1949    1.6922 H   0  0  0  0  0  0  0  0  0  0  0  0
   -1.6696   -2.7085    1.9294 H   0  0  0  0  0  0  0  0  0  0  0  0
   -1.5270   -0.8519   -1.9662 H   0  0  0  0  0  0  0  0  0  0  0  0
    0.7860   -2.7871    1.9731 H   0  0  0  0  0  0  0  0  0  0  0  0
    0.8930   -0.9350   -1.9296 H   0  0  0  0  0  0  0  0  0  0  0  0
   -2.2077    1.4443    1.9875 H   0  0  0  0  0  0  0  0  0  0  0  0
   -4.0824    0.7780   -1.8318 H   0  0  0  0  0  0  0  0  0  0  0  0
   -2.9594    2.7638   -2.7381 H   0  0  0  0  0  0  0  0  0  0  0  0
   -1.4739    4.1218   -1.3166 H   0  0  0  0  0  0  0  0  0  0  0  0
    2.5274    0.0785   -0.6035 H   0  0  0  0  0  0  0  0  0  0  0  0
    3.2575   -1.2004   -1.6615 H   0  0  0  0  0  0  0  0  0  0  0  0
    6.2461    1.0430    0.9195 H   0  0  0  0  0  0  0  0  0  0  0  0
    7.0016   -0.2124   -0.1062 H   0  0  0  0  0  0  0  0  0  0  0  0
    0.1813    1.8539    2.5539 H   0  0  0  0  0  0  0  0  0  0  0  0
    1.0546    2.2057    1.0382 H   0  0  0  0  0  0  0  0  0  0  0  0
    1.3876    3.1537    2.5030 H   0  0  0  0  0  0  0  0  0  0  0  0
    6.3404    2.6428   -0.9945 H   0  0  0  0  0  0  0  0  0  0  0  0
    7.0833    1.4082   -2.0035 H   0  0  0  0  0  0  0  0  0  0  0  0
    7.9658    2.0389   -0.5922 H   0  0  0  0  0  0  0  0  0  0  0  0
  1  4  2  0  0  0  0
  1  5  2  0  0  0  0
  1  8  1  0  0  0  0
  1  9  1  0  0  0  0
  2 18  1  0  0  0  0
  2 24  1  0  0  0  0
  3 13  1  0  0  0  0
  3 21  1  0  0  0  0
  6 22  1  0  0  0  0
  6 23  1  0  0  0  0
  7 22  2  0  0  0  0
  8 10  1  0  0  0  0
  8 26  1  0  0  0  0
  9 11  2  0  0  0  0
  9 12  1  0  0  0  0
 10 16  2  0  0  0  0
 10 17  1  0  0  0  0
 11 14  1  0  0  0  0
 11 27  1  0  0  0  0
 12 15  2  0  0  0  0
 12 28  1  0  0  0  0
 13 14  2  0  0  0  0
 13 15  1  0  0  0  0
 14 29  1  0  0  0  0
 15 30  1  0  0  0  0
 16 18  1  0  0  0  0
 16 31  1  0  0  0  0
 17 19  2  0  0  0  0
 17 32  1  0  0  0  0
 18 20  2  0  0  0  0
 19 20  1  0  0  0  0
 19 33  1  0  0  0  0
 20 34  1  0  0  0  0
 21 22  1  0  0  0  0
 21 35  1  0  0  0  0
 21 36  1  0  0  0  0
 23 25  1  0  0  0  0
 23 37  1  0  0  0  0
 23 38  1  0  0  0  0
 24 39  1  0  0  0  0
 24 40  1  0  0  0  0
 24 41  1  0  0  0  0
 25 42  1  0  0  0  0
 25 43  1  0  0  0  0
 25 44  1  0  0  0  0
M  END
> <PUBCHEM_COMPOUND_CID>
1314336

> <PUBCHEM_CONFORMER_RMSD>
1

> <PUBCHEM_CONFORMER_DIVERSEORDER>
2
153
27
154
105
91
30
21
144
48
96
103
94
59
139
97
35
108
74
98
114
9
50
73
165
58
83
131
145
45
40
161
156
62
138
34
141
111
160
168
41
130
61
164
104
8
162
13
123
95
49
116
110
126
82
72
150
77
23
122
69
113
47
151
14
134
133
88
143
117
148
38
70
84
100
159
56
158
31
33
137
119
46
89
115
167
52
129
152
39
147
42
174
18
37
66
172
92
7
79
85
101
118
68
142
6
135
78
55
157
146
36
90
51
29
128
4
87
32
11
1
60
44
99
10
17
19
124
71
65
125
81
170
53
22
25
132
43
109
54
127
64
63
80
86
20
93
112
120
5
12
171
24
57
136
28
3
173
75
76
169
67
149
102
15
155
26
121
107
163
140
106
166
16

> <PUBCHEM_MMFF94_PARTIAL_CHARGES>
33
1 1.45
10 0.2
11 -0.15
12 -0.15
13 0.08
14 -0.15
15 -0.15
16 -0.15
17 -0.15
18 0.1
19 -0.15
2 -0.33
20 -0.15
21 0.34
22 0.66
23 0.28
24 0.23
26 0.42
27 0.15
28 0.15
29 0.15
3 -0.36
30 0.15
31 0.15
32 0.15
33 0.15
34 0.15
4 -0.65
5 -0.65
6 -0.43
7 -0.57
8 -0.76
9 -0.01

> <PUBCHEM_EFFECTIVE_ROTOR_COUNT>
9

> <PUBCHEM_PHARMACOPHORE_FEATURES>
8
1 24 hydrophobe
1 3 acceptor
1 4 acceptor
1 5 acceptor
1 7 acceptor
1 8 donor
6 10 16 17 18 19 20 rings
6 9 11 12 13 14 15 rings

> <PUBCHEM_HEAVY_ATOM_COUNT>
25

> <PUBCHEM_ATOM_DEF_STEREO_COUNT>
0

> <PUBCHEM_ATOM_UDEF_STEREO_COUNT>
0

> <PUBCHEM_BOND_DEF_STEREO_COUNT>
0

> <PUBCHEM_BOND_UDEF_STEREO_COUNT>
0

> <PUBCHEM_ISOTOPIC_ATOM_COUNT>
0

> <PUBCHEM_COMPONENT_COUNT>
1

> <PUBCHEM_CACTVS_TAUTO_COUNT>
1

> <PUBCHEM_CONFORMER_ID>
00140E2000000002

> <PUBCHEM_MMFF94_ENERGY>
56.5581

> <PUBCHEM_FEATURE_SELFOVERLAP>
40.622

> <PUBCHEM_SHAPE_FINGERPRINT>
10670039 82 18411146853197313164
12107183 9 17754441366966098666
12156800 1 16591914696034422237
12596602 18 17458060486962987370
12788726 201 18410574007275290498
13402501 40 18271524303370068976
13994607 96 18342450405205659357
14251757 5 18409450332161416144
14251764 38 18125161533391249450
14251764 75 17907866102213512817
14363568 33 17908149020193142640
14787075 74 18410008831932684495
14931854 50 18269546165724066524
17492 54 18124570043602050229
20510252 161 18192995920642256051
20765182 40 18412255143558926528
21049683 271 18120097448821388475
21521721 280 17975691694151822925
22956985 138 16890344403817498795
283562 15 18261109686382750539
3117164 225 17753599149469951618
469060 322 18042148525563478681
57527585 21 17630880496072120909

> <PUBCHEM_SHAPE_MULTIPOLES>
487.86
11.34
4.63
1.53
25.94
2.99
0.05
1.77
-3.04
-3.43
1.26
-0.61
0.78
-0.01

> <PUBCHEM_SHAPE_SELFOVERLAP>
991.214

> <PUBCHEM_SHAPE_VOLUME>
284.7

> <PUBCHEM_COORDINATE_TYPE>
2
5
10

$$$$
