2426240
  -OEChem-01171809373D

 35 36  0     0  0  0  0  0  0999 V2000
    1.4131   -0.3794   -3.0381 Cl  0  0  0  0  0  0  0  0  0  0  0  0
   -2.3483    3.1206    1.2700 S   0  0  0  0  0  0  0  0  0  0  0  0
    5.4021   -2.0425   -0.1296 F   0  0  0  0  0  0  0  0  0  0  0  0
    5.9907   -0.2711    0.9746 F   0  0  0  0  0  0  0  0  0  0  0  0
    4.6787   -1.7386    1.8985 F   0  0  0  0  0  0  0  0  0  0  0  0
   -1.9675    0.8130   -0.2351 N   0  0  0  0  0  0  0  0  0  0  0  0
    0.3973    1.7122   -1.1260 N   0  0  0  0  0  0  0  0  0  0  0  0
   -0.3075    2.4776   -0.2376 N   0  0  0  0  0  0  0  0  0  0  0  0
    2.0332    1.3255    0.5364 N   0  0  0  0  0  0  0  0  0  0  0  0
   -3.1204    0.0474   -0.0588 C   0  0  0  0  0  0  0  0  0  0  0  0
   -5.4256   -1.4838    0.2937 C   0  0  0  0  0  0  0  0  0  0  0  0
    3.7281   -0.3665    0.2052 C   0  0  0  0  0  0  0  0  0  0  0  0
    1.5227    1.0060   -0.6825 C   0  0  0  0  0  0  0  0  0  0  0  0
   -3.5738   -0.7775   -1.0880 C   0  0  0  0  0  0  0  0  0  0  0  0
   -3.8196    0.1069    1.1467 C   0  0  0  0  0  0  0  0  0  0  0  0
   -4.7264   -1.5431   -0.9118 C   0  0  0  0  0  0  0  0  0  0  0  0
   -4.9722   -0.6587    1.3229 C   0  0  0  0  0  0  0  0  0  0  0  0
    3.1874   -0.6753   -1.0381 C   0  0  0  0  0  0  0  0  0  0  0  0
    2.0705    0.0153   -1.4951 C   0  0  0  0  0  0  0  0  0  0  0  0
    3.1194    0.6331    0.9470 C   0  0  0  0  0  0  0  0  0  0  0  0
   -1.5465    2.0677    0.2402 C   0  0  0  0  0  0  0  0  0  0  0  0
    4.9222   -1.0865    0.7226 C   0  0  0  0  0  0  0  0  0  0  0  0
   -6.6575   -2.3023    0.4829 C   0  0  0  0  0  0  0  0  0  0  0  0
   -3.0389   -0.8332   -2.0327 H   0  0  0  0  0  0  0  0  0  0  0  0
   -3.4728    0.6808    1.9976 H   0  0  0  0  0  0  0  0  0  0  0  0
   -5.0686   -2.1833   -1.7206 H   0  0  0  0  0  0  0  0  0  0  0  0
   -5.4999   -0.6164    2.2722 H   0  0  0  0  0  0  0  0  0  0  0  0
    3.6352   -1.4533   -1.6514 H   0  0  0  0  0  0  0  0  0  0  0  0
   -1.3954    0.4908   -1.0135 H   0  0  0  0  0  0  0  0  0  0  0  0
    0.2647    1.8942   -2.1125 H   0  0  0  0  0  0  0  0  0  0  0  0
    3.4965    0.9176    1.9244 H   0  0  0  0  0  0  0  0  0  0  0  0
   -7.3637   -1.8036    1.1555 H   0  0  0  0  0  0  0  0  0  0  0  0
   -7.1779   -2.4593   -0.4681 H   0  0  0  0  0  0  0  0  0  0  0  0
   -6.3989   -3.2780    0.9061 H   0  0  0  0  0  0  0  0  0  0  0  0
    0.1139    3.3656    0.0121 H   0  0  0  0  0  0  0  0  0  0  0  0
  1 19  1  0  0  0  0
  2 21  2  0  0  0  0
  3 22  1  0  0  0  0
  4 22  1  0  0  0  0
  5 22  1  0  0  0  0
  6 10  1  0  0  0  0
  6 21  1  0  0  0  0
  6 29  1  0  0  0  0
  7  8  1  0  0  0  0
  7 13  1  0  0  0  0
  7 30  1  0  0  0  0
  8 21  1  0  0  0  0
  8 35  1  0  0  0  0
  9 13  1  0  0  0  0
  9 20  2  0  0  0  0
 10 14  2  0  0  0  0
 10 15  1  0  0  0  0
 11 16  2  0  0  0  0
 11 17  1  0  0  0  0
 11 23  1  0  0  0  0
 12 18  2  0  0  0  0
 12 20  1  0  0  0  0
 12 22  1  0  0  0  0
 13 19  2  0  0  0  0
 14 16  1  0  0  0  0
 14 24  1  0  0  0  0
 15 17  2  0  0  0  0
 15 25  1  0  0  0  0
 16 26  1  0  0  0  0
 17 27  1  0  0  0  0
 18 19  1  0  0  0  0
 18 28  1  0  0  0  0
 20 31  1  0  0  0  0
 23 32  1  0  0  0  0
 23 33  1  0  0  0  0
 23 34  1  0  0  0  0
M  END
> <PUBCHEM_COMPOUND_CID>
2426240

> <PUBCHEM_CONFORMER_RMSD>
0.8

> <PUBCHEM_CONFORMER_DIVERSEORDER>
1
62
94
83
112
6
88
95
103
116
43
107
127
77
40
66
87
81
78
105
115
63
32
46
31
42
114
99
68
18
41
37
113
91
67
27
117
5
124
50
45
129
26
73
4
109
84
39
106
3
16
8
36
58
79
110
57
44
98
34
25
7
86
19
123
89
121
14
10
55
12
82
76
20
104
93
65
13
120
15
74
51
56
54
72
59
49
96
33
64
60
22
70
47
53
118
122
29
52
21
17
23
71
125
111
38
119
24
101
90
48
85
28
30
108
100
128
126
75
97
9
92
102
61
80
69
11
35
2

> <PUBCHEM_MMFF94_PARTIAL_CHARGES>
32
1 -0.18
10 0.12
11 -0.14
12 -0.14
13 0.41
14 -0.15
15 -0.15
16 -0.15
17 -0.15
18 -0.15
19 0.18
2 -0.38
20 0.16
21 0.5
22 1.16
23 0.14
24 0.15
25 0.15
26 0.15
27 0.15
28 0.15
29 0.37
3 -0.34
30 0.4
31 0.15
35 0.37
4 -0.34
5 -0.34
6 -0.55
7 -0.52
8 -0.41
9 -0.62

> <PUBCHEM_EFFECTIVE_ROTOR_COUNT>
6

> <PUBCHEM_PHARMACOPHORE_FEATURES>
7
1 2 acceptor
1 6 donor
1 7 donor
1 8 donor
1 9 acceptor
6 10 11 14 15 16 17 rings
6 9 12 13 18 19 20 rings

> <PUBCHEM_HEAVY_ATOM_COUNT>
23

> <PUBCHEM_ATOM_DEF_STEREO_COUNT>
0

> <PUBCHEM_ATOM_UDEF_STEREO_COUNT>
0

> <PUBCHEM_BOND_DEF_STEREO_COUNT>
0

> <PUBCHEM_BOND_UDEF_STEREO_COUNT>
0

> <PUBCHEM_ISOTOPIC_ATOM_COUNT>
0

> <PUBCHEM_COMPONENT_COUNT>
1

> <PUBCHEM_CACTVS_TAUTO_COUNT>
6

> <PUBCHEM_CONFORMER_ID>
0025058000000001

> <PUBCHEM_MMFF94_ENERGY>
73.2437

> <PUBCHEM_FEATURE_SELFOVERLAP>
37.13

> <PUBCHEM_SHAPE_FINGERPRINT>
10447042 23 18260265282573241326
10753850 27 18186799201635057971
12166972 35 17748828544320091823
12363563 72 18336273417885256501
12553582 1 17988373675476431437
12633257 1 16845567664527178401
12892183 10 16128112065571017545
12895836 83 9367342630983858679
12895837 130 10735291269485643042
13828863 39 14764335093811370544
14178342 30 18199197178395788309
1420 369 18335421261607634467
14251764 38 9653560909552832514
14341114 328 15698000790211355617
14528608 73 11026063734317404299
14848178 5 17894907404291592418
15183329 4 14490181709438229199
15342168 16 9727367805384033129
17349148 13 17968105200224237987
17913733 40 15697994090247198574
1813 80 18337403733298301461
193927 3 18113905961189845313
19784866 240 17821732727977821557
1979834 28 17202782487249274095
20028762 73 18413389860237971583
21315759 148 17988358153738650514
21315764 119 16878214330147826519
21756936 100 12679166224677340148
221357 26 14345788370848826783
22393880 68 13695879159219809880
23389318 12 16515687694682221770
23559900 14 14707495857921062159
25222932 49 17905335383002036999
270888 7 10663817477124291427
2838139 119 8862943870495933434
3004659 81 17312818307794649691
3009799 131 13406794428927600876
3472631 163 9511460026572529003
351380 3 18335138704462870987
44062 13 18040710330253247453
46194498 28 13769084634653947312
463206 1 18188209913650892907
465052 167 18343866628175340798
474 4 9150911451174625885
5104073 3 18129935668829861472
5252454 2 9295012315101967777
59682541 52 13840250494733856258
7064713 232 16630526275747089031
7808743 9 9871744681010466321
7970288 3 18335421296400545931

> <PUBCHEM_SHAPE_MULTIPOLES>
437.3
14.46
2.65
1.83
2.75
1.9
0.82
-11.99
-7.07
2.04
-0.42
-1.51
-0.61
-0.61

> <PUBCHEM_SHAPE_SELFOVERLAP>
908.19

> <PUBCHEM_SHAPE_VOLUME>
254.6

> <PUBCHEM_COORDINATE_TYPE>
2
5
10

$$$$
