9633426
  -OEChem-01171809573D

 31 32  0     0  0  0  0  0  0999 V2000
   -2.1348    2.6827    1.2100 Cl  0  0  0  0  0  0  0  0  0  0  0  0
    0.4822   -0.1197   -0.0257 O   0  0  0  0  0  0  0  0  0  0  0  0
    0.0073    1.9074   -1.0222 O   0  0  0  0  0  0  0  0  0  0  0  0
   -6.1358   -1.8198   -0.4628 O   0  5  0  0  0  0  0  0  0  0  0  0
   -6.5410   -0.0612    0.7871 O   0  0  0  0  0  0  0  0  0  0  0  0
   -5.7601   -0.7632    0.1003 N   0  3  0  0  0  0  0  0  0  0  0  0
    4.8750   -1.3213    0.6000 N   0  0  0  0  0  0  0  0  0  0  0  0
    1.8144    0.2773   -0.2088 N   0  0  0  0  0  0  0  0  0  0  0  0
    2.2421   -1.8262    0.8241 N   0  0  0  0  0  0  0  0  0  0  0  0
   -1.7554    0.4617   -0.3277 C   0  0  0  0  0  0  0  0  0  0  0  0
   -4.4093   -0.3496   -0.0437 C   0  0  0  0  0  0  0  0  0  0  0  0
   -2.6413    1.2270    0.4309 C   0  0  0  0  0  0  0  0  0  0  0  0
   -2.1965   -0.7092   -0.9442 C   0  0  0  0  0  0  0  0  0  0  0  0
   -3.9682    0.8214    0.5727 C   0  0  0  0  0  0  0  0  0  0  0  0
   -3.5235   -1.1148   -0.8023 C   0  0  0  0  0  0  0  0  0  0  0  0
   -0.3603    0.8462   -0.5042 C   0  0  0  0  0  0  0  0  0  0  0  0
    4.0944   -0.3531    0.1207 C   0  0  0  0  0  0  0  0  0  0  0  0
    2.6285   -0.6363    0.2439 C   0  0  0  0  0  0  0  0  0  0  0  0
    4.4862    0.8225   -0.4476 C   0  0  0  0  0  0  0  0  0  0  0  0
    5.8574    1.0357   -0.5373 C   0  0  0  0  0  0  0  0  0  0  0  0
    6.7379    0.0716   -0.0590 C   0  0  0  0  0  0  0  0  0  0  0  0
    6.2009   -1.0791    0.4957 C   0  0  0  0  0  0  0  0  0  0  0  0
   -1.5198   -1.3147   -1.5422 H   0  0  0  0  0  0  0  0  0  0  0  0
   -4.6438    1.4318    1.1684 H   0  0  0  0  0  0  0  0  0  0  0  0
   -3.8320   -2.0319   -1.2976 H   0  0  0  0  0  0  0  0  0  0  0  0
    3.8077    1.5787   -0.8227 H   0  0  0  0  0  0  0  0  0  0  0  0
    6.2395    1.9512   -0.9790 H   0  0  0  0  0  0  0  0  0  0  0  0
    7.8104    0.2164   -0.1184 H   0  0  0  0  0  0  0  0  0  0  0  0
    6.8451   -1.8616    0.8832 H   0  0  0  0  0  0  0  0  0  0  0  0
    1.2607   -2.0599    0.9292 H   0  0  0  0  0  0  0  0  0  0  0  0
    2.9190   -2.5027    1.1611 H   0  0  0  0  0  0  0  0  0  0  0  0
  1 12  1  0  0  0  0
  2  8  1  0  0  0  0
  2 16  1  0  0  0  0
  3 16  2  0  0  0  0
  4  6  1  0  0  0  0
  5  6  2  0  0  0  0
  6 11  1  0  0  0  0
  7 17  1  0  0  0  0
  7 22  2  0  0  0  0
  8 18  2  0  0  0  0
  9 18  1  0  0  0  0
  9 30  1  0  0  0  0
  9 31  1  0  0  0  0
 10 12  2  0  0  0  0
 10 13  1  0  0  0  0
 10 16  1  0  0  0  0
 11 14  2  0  0  0  0
 11 15  1  0  0  0  0
 12 14  1  0  0  0  0
 13 15  2  0  0  0  0
 13 23  1  0  0  0  0
 14 24  1  0  0  0  0
 15 25  1  0  0  0  0
 17 18  1  0  0  0  0
 17 19  2  0  0  0  0
 19 20  1  0  0  0  0
 19 26  1  0  0  0  0
 20 21  2  0  0  0  0
 20 27  1  0  0  0  0
 21 22  1  0  0  0  0
 21 28  1  0  0  0  0
 22 29  1  0  0  0  0
M  CHG  2   4  -1   6   1
M  END
> <PUBCHEM_COMPOUND_CID>
9633426

> <PUBCHEM_CONFORMER_RMSD>
0.8

> <PUBCHEM_CONFORMER_DIVERSEORDER>
1
24
90
78
94
32
79
11
87
68
81
29
7
84
20
33
53
27
50
91
52
41
56
46
39
55
19
88
49
28
98
21
73
17
38
85
76
2
59
45
96
57
97
48
58
12
16
62
89
43
36
6
92
18
25
3
47
61
44
9
80
65
70
4
66
31
23
35
34
99
13
71
95
37
8
93
15
26
5
63
72
22
30
77
86
60
42
74
67
14
75
10
54
40
69
51
64
83
82

> <PUBCHEM_MMFF94_PARTIAL_CHARGES>
31
1 -0.18
10 0.09
11 0.13
12 0.18
13 -0.15
14 -0.15
15 -0.15
16 0.63
17 0.4
18 0.41
19 -0.15
2 -0.09
20 -0.15
21 -0.15
22 0.16
23 0.15
24 0.15
25 0.15
26 0.15
27 0.15
28 0.15
29 0.15
3 -0.57
30 0.4
31 0.4
4 -0.52
5 -0.52
6 0.91
7 -0.62
8 -0.51
9 -0.85

> <PUBCHEM_EFFECTIVE_ROTOR_COUNT>
5

> <PUBCHEM_PHARMACOPHORE_FEATURES>
9
1 3 acceptor
1 4 acceptor
1 4 anion
1 5 acceptor
1 7 acceptor
1 9 donor
3 8 9 18 cation
6 10 11 12 13 14 15 rings
6 7 17 19 20 21 22 rings

> <PUBCHEM_HEAVY_ATOM_COUNT>
22

> <PUBCHEM_ATOM_DEF_STEREO_COUNT>
0

> <PUBCHEM_ATOM_UDEF_STEREO_COUNT>
0

> <PUBCHEM_BOND_DEF_STEREO_COUNT>
1

> <PUBCHEM_BOND_UDEF_STEREO_COUNT>
0

> <PUBCHEM_ISOTOPIC_ATOM_COUNT>
0

> <PUBCHEM_COMPONENT_COUNT>
1

> <PUBCHEM_CACTVS_TAUTO_COUNT>
2

> <PUBCHEM_CONFORMER_ID>
0092FE9200000001

> <PUBCHEM_MMFF94_ENERGY>
69.4156

> <PUBCHEM_FEATURE_SELFOVERLAP>
45.753

> <PUBCHEM_SHAPE_FINGERPRINT>
10299344 5 18412265046962382374
10595046 47 18411138022449114152
10968037 39 18408603677969248943
11315181 36 18411983568149633905
11524674 6 15913608389057563367
12107183 9 17548137732213052954
12166972 35 18186522128847514260
12236239 1 18409168805059639157
12516196 113 18408039628034876772
12596602 18 18409167696973784312
12916748 109 18060703875488643436
13073987 5 18200871778345354738
13288520 33 18341894104457535253
13533116 47 16298655098131492624
13668630 136 17022905648634994402
13685833 64 17894353289175335779
14123256 10 18333452058516552052
1420 363 17749392563799354362
14341114 176 18059853991365337472
14849402 71 18270676589276269008
15716309 27 18409449180487889659
15927050 60 17551228901823157916
17492 89 18045211645090242354
17834072 33 18411699889791221388
17844677 252 18131638863912723824
18006028 8 18201716271900238509
1813 80 18041572355384228956
19377110 9 18336256865270942594
200 152 18187362121017416317
20028762 73 18335134255494561186
21065198 48 18338235955782662024
21267235 1 18410016541346174886
2297311 6 17703517639758205781
23035841 295 18411136948137798710
23522609 53 18196963090975081841
23559900 14 18115868675835693673
29717793 49 10881397622090885760
335352 9 18272085012273513397
34797466 226 17274830190151806476
351380 3 18410569604564728447
4325135 7 18410013239175681374
4463277 17 18334575741698244965
5104073 3 18270109099151200762
57724786 102 13901609879657813082
59682541 35 18114460167386684160
999808 66 17531257205539772235

> <PUBCHEM_SHAPE_MULTIPOLES>
411.22
17.42
1.87
0.93
7.72
0.71
0
-4.96
1.46
-1.24
0.32
-0.13
0.14
-1.58

> <PUBCHEM_SHAPE_SELFOVERLAP>
877.76

> <PUBCHEM_SHAPE_VOLUME>
228

> <PUBCHEM_COORDINATE_TYPE>
2
5
10

$$$$
