657553
  -OEChem-01171809153D

 46 49  0     0  0  0  0  0  0999 V2000
    3.1650   -0.6623   -2.8397 O   0  0  0  0  0  0  0  0  0  0  0  0
    5.6674    0.2876    0.9309 O   0  0  0  0  0  0  0  0  0  0  0  0
   -1.2951   -0.0011    0.0448 N   0  0  0  0  0  0  0  0  0  0  0  0
    0.7269   -0.2608   -1.0967 N   0  0  0  0  0  0  0  0  0  0  0  0
    3.3406    0.3214    1.1702 N   0  0  0  0  0  0  0  0  0  0  0  0
    0.8777    0.2703    1.0655 N   0  0  0  0  0  0  0  0  0  0  0  0
    4.3903   -0.1820   -0.9276 N   0  0  0  0  0  0  0  0  0  0  0  0
    0.0562    0.0173    0.0671 C   0  0  0  0  0  0  0  0  0  0  0  0
   -2.0645   -0.8714   -0.8649 C   0  0  0  0  0  0  0  0  0  0  0  0
   -2.1180    0.8421    0.9324 C   0  0  0  0  0  0  0  0  0  0  0  0
    2.0596   -0.1785   -0.8156 C   0  0  0  0  0  0  0  0  0  0  0  0
    2.1246    0.1480    0.5148 C   0  0  0  0  0  0  0  0  0  0  0  0
   -2.1821   -2.2748   -0.3325 C   0  0  0  0  0  0  0  0  0  0  0  0
   -2.2569    2.2448    0.4033 C   0  0  0  0  0  0  0  0  0  0  0  0
    3.2020   -0.3705   -1.6486 C   0  0  0  0  0  0  0  0  0  0  0  0
    4.5423    0.1552    0.4410 C   0  0  0  0  0  0  0  0  0  0  0  0
    3.3696    0.6683    2.5840 C   0  0  0  0  0  0  0  0  0  0  0  0
   -1.2155   -3.2144   -0.6632 C   0  0  0  0  0  0  0  0  0  0  0  0
   -1.3284    3.2088    0.7706 C   0  0  0  0  0  0  0  0  0  0  0  0
   -3.2552   -2.6092    0.4818 C   0  0  0  0  0  0  0  0  0  0  0  0
   -3.3112    2.5542   -0.4448 C   0  0  0  0  0  0  0  0  0  0  0  0
   -1.3243   -4.5145   -0.1699 C   0  0  0  0  0  0  0  0  0  0  0  0
   -1.4568    4.5083    0.2803 C   0  0  0  0  0  0  0  0  0  0  0  0
   -3.3638   -3.9094    0.9752 C   0  0  0  0  0  0  0  0  0  0  0  0
   -3.4395    3.8537   -0.9351 C   0  0  0  0  0  0  0  0  0  0  0  0
   -2.3983   -4.8620    0.6493 C   0  0  0  0  0  0  0  0  0  0  0  0
   -2.5122    4.8308   -0.5726 C   0  0  0  0  0  0  0  0  0  0  0  0
   -1.6453   -0.8864   -1.8779 H   0  0  0  0  0  0  0  0  0  0  0  0
   -3.0738   -0.4663   -1.0189 H   0  0  0  0  0  0  0  0  0  0  0  0
   -1.6734    0.8664    1.9367 H   0  0  0  0  0  0  0  0  0  0  0  0
   -3.1136    0.4062    1.0855 H   0  0  0  0  0  0  0  0  0  0  0  0
    0.3292   -0.4654   -2.0027 H   0  0  0  0  0  0  0  0  0  0  0  0
    5.2528   -0.3014   -1.4519 H   0  0  0  0  0  0  0  0  0  0  0  0
    2.8678   -0.1195    3.1540 H   0  0  0  0  0  0  0  0  0  0  0  0
    2.8461    1.6185    2.7279 H   0  0  0  0  0  0  0  0  0  0  0  0
    4.3951    0.7704    2.9483 H   0  0  0  0  0  0  0  0  0  0  0  0
   -0.3777   -2.9606   -1.3056 H   0  0  0  0  0  0  0  0  0  0  0  0
   -0.5029    2.9701    1.4351 H   0  0  0  0  0  0  0  0  0  0  0  0
   -4.0152   -1.8778    0.7407 H   0  0  0  0  0  0  0  0  0  0  0  0
   -4.0412    1.8031   -0.7322 H   0  0  0  0  0  0  0  0  0  0  0  0
   -0.5736   -5.2568   -0.4248 H   0  0  0  0  0  0  0  0  0  0  0  0
   -0.7350    5.2690    0.5627 H   0  0  0  0  0  0  0  0  0  0  0  0
   -4.2005   -4.1803    1.6125 H   0  0  0  0  0  0  0  0  0  0  0  0
   -4.2617    4.1051   -1.5987 H   0  0  0  0  0  0  0  0  0  0  0  0
   -2.4833   -5.8744    1.0330 H   0  0  0  0  0  0  0  0  0  0  0  0
   -2.6123    5.8426   -0.9543 H   0  0  0  0  0  0  0  0  0  0  0  0
  1 15  2  0  0  0  0
  2 16  2  0  0  0  0
  3  8  1  0  0  0  0
  3  9  1  0  0  0  0
  3 10  1  0  0  0  0
  4  8  1  0  0  0  0
  4 11  1  0  0  0  0
  4 32  1  0  0  0  0
  5 12  1  0  0  0  0
  5 16  1  0  0  0  0
  5 17  1  0  0  0  0
  6  8  2  0  0  0  0
  6 12  1  0  0  0  0
  7 15  1  0  0  0  0
  7 16  1  0  0  0  0
  7 33  1  0  0  0  0
  9 13  1  0  0  0  0
  9 28  1  0  0  0  0
  9 29  1  0  0  0  0
 10 14  1  0  0  0  0
 10 30  1  0  0  0  0
 10 31  1  0  0  0  0
 11 12  2  0  0  0  0
 11 15  1  0  0  0  0
 13 18  2  0  0  0  0
 13 20  1  0  0  0  0
 14 19  2  0  0  0  0
 14 21  1  0  0  0  0
 17 34  1  0  0  0  0
 17 35  1  0  0  0  0
 17 36  1  0  0  0  0
 18 22  1  0  0  0  0
 18 37  1  0  0  0  0
 19 23  1  0  0  0  0
 19 38  1  0  0  0  0
 20 24  2  0  0  0  0
 20 39  1  0  0  0  0
 21 25  2  0  0  0  0
 21 40  1  0  0  0  0
 22 26  2  0  0  0  0
 22 41  1  0  0  0  0
 23 27  2  0  0  0  0
 23 42  1  0  0  0  0
 24 26  1  0  0  0  0
 24 43  1  0  0  0  0
 25 27  1  0  0  0  0
 25 44  1  0  0  0  0
 26 45  1  0  0  0  0
 27 46  1  0  0  0  0
M  END
> <PUBCHEM_COMPOUND_CID>
657553

> <PUBCHEM_CONFORMER_RMSD>
0.8

> <PUBCHEM_CONFORMER_DIVERSEORDER>
1
20
62
42
37
28
40
46
50
18
39
22
19
41
57
34
61
31
24
12
23
58
2
48
13
35
4
36
45
54
43
56
52
11
53
8
6
21
30
64
33
44
47
38
7
16
59
15
27
49
60
32
14
65
9
25
26
17
55
29
5
3
51
63
10

> <PUBCHEM_MMFF94_PARTIAL_CHARGES>
39
1 -0.57
10 0.51
11 -0.24
12 0.29
13 -0.14
14 -0.14
15 0.71
16 0.69
17 0.3
18 -0.15
19 -0.15
2 -0.57
20 -0.15
21 -0.15
22 -0.15
23 -0.15
24 -0.15
25 -0.15
26 -0.15
27 -0.15
3 -0.82
32 0.27
33 0.37
37 0.15
38 0.15
39 0.15
4 0.03
40 0.15
41 0.15
42 0.15
43 0.15
44 0.15
45 0.15
46 0.15
5 -0.42
6 -0.57
7 -0.49
8 0.27
9 0.51

> <PUBCHEM_EFFECTIVE_ROTOR_COUNT>
5

> <PUBCHEM_PHARMACOPHORE_FEATURES>
9
1 1 acceptor
1 2 acceptor
1 4 donor
1 7 donor
4 3 4 6 8 cation
5 4 6 8 11 12 rings
6 13 18 20 22 24 26 rings
6 14 19 21 23 25 27 rings
6 5 7 11 12 15 16 rings

> <PUBCHEM_HEAVY_ATOM_COUNT>
27

> <PUBCHEM_ATOM_DEF_STEREO_COUNT>
0

> <PUBCHEM_ATOM_UDEF_STEREO_COUNT>
0

> <PUBCHEM_BOND_DEF_STEREO_COUNT>
0

> <PUBCHEM_BOND_UDEF_STEREO_COUNT>
0

> <PUBCHEM_ISOTOPIC_ATOM_COUNT>
0

> <PUBCHEM_COMPONENT_COUNT>
1

> <PUBCHEM_CACTVS_TAUTO_COUNT>
8

> <PUBCHEM_CONFORMER_ID>
000A089100000001

> <PUBCHEM_MMFF94_ENERGY>
68.6382

> <PUBCHEM_FEATURE_SELFOVERLAP>
45.788

> <PUBCHEM_SHAPE_FINGERPRINT>
10074138 170 18122308390837956480
11049842 53 18046643200296625222
11582403 64 16766421398829243752
11763715 3 18044952404741952324
12160290 23 18273498961844570275
12553582 1 18052544562296499071
12788726 201 18115885146460189298
13955234 65 17329997893817419633
14178342 30 18408604760396297406
15219462 58 18124563540789474690
15439362 3 17182502798012161221
15463212 79 18195234534400064061
15664445 248 17403198365319161292
17980427 26 17548115745827513661
1813 80 17980493569733853819
19315092 285 16738003606303625616
20101258 96 18266182927042054616
20600515 1 18198348553451546107
20739085 24 17551516973431233378
21033648 29 18197491831730177728
21133410 221 17412136111312732000
21304303 282 18121469437342471589
21796203 349 17396736501186793930
22182313 1 17560812026343149948
22956985 138 17110991098701874850
23366157 5 17183063545106009641
23557571 272 18343578555749444844
4015057 19 16844162338844107236
4409770 3 18335693949756354231
508180 173 14944485216605659965
57124632 79 17689707563560791097
79837 15 18265340508146440851
81228 2 18272375321227747027
84936 182 17478607915091370521
9841814 1 17615128115055925259
9981440 41 18047754797962489033

> <PUBCHEM_SHAPE_MULTIPOLES>
519
8.05
7.12
1.64
11.68
0.22
0.17
-0.55
-0.63
-13.45
-0.25
2.06
0.03
1.78

> <PUBCHEM_SHAPE_SELFOVERLAP>
1138.386

> <PUBCHEM_SHAPE_VOLUME>
278.3

> <PUBCHEM_COORDINATE_TYPE>
2
5
10

$$$$
