3535755
  -OEChem-01171809383D

 55 58  0     1  0  0  0  0  0999 V2000
   -1.3988    0.8263    1.9972 O   0  0  0  0  0  0  0  0  0  0  0  0
   -0.2838    0.2804   -2.4288 O   0  0  0  0  0  0  0  0  0  0  0  0
    0.9464   -1.4150    1.0946 O   0  0  0  0  0  0  0  0  0  0  0  0
   -2.3163    0.2294   -1.2932 N   0  0  0  0  0  0  0  0  0  0  0  0
   -0.4615    0.6090   -0.1226 N   0  0  0  0  0  0  0  0  0  0  0  0
    4.8889   -1.6973   -0.3173 N   0  0  0  0  0  0  0  0  0  0  0  0
   -2.8180    0.3697    0.0585 C   0  0  2  0  0  0  0  0  0  0  0  0
   -4.9081   -1.1908    0.1504 C   0  0  0  0  0  0  0  0  0  0  0  0
   -3.4488   -0.9234    0.5975 C   0  0  0  0  0  0  0  0  0  0  0  0
   -5.1421    1.3285   -0.3518 C   0  0  1  0  0  0  0  0  0  0  0  0
   -3.7357    1.5863    0.2039 C   0  0  0  0  0  0  0  0  0  0  0  0
   -5.7638    0.0867    0.3057 C   0  0  0  0  0  0  0  0  0  0  0  0
   -1.4912    0.6330    0.7908 C   0  0  0  0  0  0  0  0  0  0  0  0
   -5.4991   -2.2942    1.0546 C   0  0  0  0  0  0  0  0  0  0  0  0
   -4.9715   -1.7118   -1.2978 C   0  0  0  0  0  0  0  0  0  0  0  0
   -6.0341    2.5512   -0.1298 C   0  0  0  0  0  0  0  0  0  0  0  0
   -0.9325    0.3644   -1.3939 C   0  0  0  0  0  0  0  0  0  0  0  0
    0.9348    0.8103    0.2107 C   0  0  0  0  0  0  0  0  0  0  0  0
    1.5920   -0.5205    0.5462 C   0  0  0  0  0  0  0  0  0  0  0  0
    3.0179   -0.7088    0.2256 C   0  0  0  0  0  0  0  0  0  0  0  0
    4.0030    0.2862    0.1904 C   0  0  0  0  0  0  0  0  0  0  0  0
    3.5575   -1.9129   -0.0830 C   0  0  0  0  0  0  0  0  0  0  0  0
    5.1893   -0.3633   -0.1576 C   0  0  0  0  0  0  0  0  0  0  0  0
    4.0319    1.6770    0.4147 C   0  0  0  0  0  0  0  0  0  0  0  0
    2.9794   -3.2672   -0.1886 C   0  0  0  0  0  0  0  0  0  0  0  0
    6.4079    0.3113   -0.2932 C   0  0  0  0  0  0  0  0  0  0  0  0
    5.2437    2.3648    0.2827 C   0  0  0  0  0  0  0  0  0  0  0  0
    6.4123    1.6904   -0.0658 C   0  0  0  0  0  0  0  0  0  0  0  0
   -2.8171   -1.7868    0.3457 H   0  0  0  0  0  0  0  0  0  0  0  0
   -3.4388   -0.8681    1.6958 H   0  0  0  0  0  0  0  0  0  0  0  0
   -5.0730    1.1699   -1.4343 H   0  0  0  0  0  0  0  0  0  0  0  0
   -3.2950    2.4582   -0.2982 H   0  0  0  0  0  0  0  0  0  0  0  0
   -3.8161    1.8580    1.2656 H   0  0  0  0  0  0  0  0  0  0  0  0
   -5.9101    0.2935    1.3752 H   0  0  0  0  0  0  0  0  0  0  0  0
   -6.7651   -0.0854   -0.1107 H   0  0  0  0  0  0  0  0  0  0  0  0
   -2.9028    0.0700   -2.1048 H   0  0  0  0  0  0  0  0  0  0  0  0
   -6.5365   -2.5180    0.7810 H   0  0  0  0  0  0  0  0  0  0  0  0
   -4.9227   -3.2227    0.9723 H   0  0  0  0  0  0  0  0  0  0  0  0
   -5.4942   -1.9921    2.1079 H   0  0  0  0  0  0  0  0  0  0  0  0
   -4.6790   -0.9614   -2.0338 H   0  0  0  0  0  0  0  0  0  0  0  0
   -4.3197   -2.5825   -1.4318 H   0  0  0  0  0  0  0  0  0  0  0  0
   -5.9909   -2.0223   -1.5560 H   0  0  0  0  0  0  0  0  0  0  0  0
   -5.6087    3.4351   -0.6167 H   0  0  0  0  0  0  0  0  0  0  0  0
   -7.0314    2.3850   -0.5504 H   0  0  0  0  0  0  0  0  0  0  0  0
   -6.1488    2.7741    0.9364 H   0  0  0  0  0  0  0  0  0  0  0  0
    1.4207    1.2615   -0.6589 H   0  0  0  0  0  0  0  0  0  0  0  0
    1.0079    1.4661    1.0831 H   0  0  0  0  0  0  0  0  0  0  0  0
    5.5590   -2.4106   -0.5706 H   0  0  0  0  0  0  0  0  0  0  0  0
    3.1479    2.2349    0.7032 H   0  0  0  0  0  0  0  0  0  0  0  0
    2.7277   -3.6544    0.8039 H   0  0  0  0  0  0  0  0  0  0  0  0
    2.0679   -3.2539   -0.7951 H   0  0  0  0  0  0  0  0  0  0  0  0
    3.6757   -3.9712   -0.6566 H   0  0  0  0  0  0  0  0  0  0  0  0
    7.3182   -0.2129   -0.5643 H   0  0  0  0  0  0  0  0  0  0  0  0
    5.2731    3.4370    0.4581 H   0  0  0  0  0  0  0  0  0  0  0  0
    7.3427    2.2443   -0.1619 H   0  0  0  0  0  0  0  0  0  0  0  0
  1 13  2  0  0  0  0
  2 17  2  0  0  0  0
  3 19  2  0  0  0  0
  4  7  1  0  0  0  0
  4 17  1  0  0  0  0
  4 36  1  0  0  0  0
  5 13  1  0  0  0  0
  5 17  1  0  0  0  0
  5 18  1  0  0  0  0
  6 22  1  0  0  0  0
  6 23  1  0  0  0  0
  6 48  1  0  0  0  0
  7  9  1  0  0  0  0
  7 11  1  0  0  0  0
  7 13  1  0  0  0  0
  8  9  1  0  0  0  0
  8 12  1  0  0  0  0
  8 14  1  0  0  0  0
  8 15  1  0  0  0  0
  9 29  1  0  0  0  0
  9 30  1  0  0  0  0
 10 11  1  0  0  0  0
 10 12  1  0  0  0  0
 10 16  1  0  0  0  0
 10 31  1  0  0  0  0
 11 32  1  0  0  0  0
 11 33  1  0  0  0  0
 12 34  1  0  0  0  0
 12 35  1  0  0  0  0
 14 37  1  0  0  0  0
 14 38  1  0  0  0  0
 14 39  1  0  0  0  0
 15 40  1  0  0  0  0
 15 41  1  0  0  0  0
 15 42  1  0  0  0  0
 16 43  1  0  0  0  0
 16 44  1  0  0  0  0
 16 45  1  0  0  0  0
 18 19  1  0  0  0  0
 18 46  1  0  0  0  0
 18 47  1  0  0  0  0
 19 20  1  0  0  0  0
 20 21  1  0  0  0  0
 20 22  2  0  0  0  0
 21 23  1  0  0  0  0
 21 24  2  0  0  0  0
 22 25  1  0  0  0  0
 23 26  2  0  0  0  0
 24 27  1  0  0  0  0
 24 49  1  0  0  0  0
 25 50  1  0  0  0  0
 25 51  1  0  0  0  0
 25 52  1  0  0  0  0
 26 28  1  0  0  0  0
 26 53  1  0  0  0  0
 27 28  2  0  0  0  0
 27 54  1  0  0  0  0
 28 55  1  0  0  0  0
M  END
> <PUBCHEM_COMPOUND_CID>
3535755

> <PUBCHEM_CONFORMER_RMSD>
0.8

> <PUBCHEM_CONFORMER_DIVERSEORDER>
3
158
34
33
149
178
274
18
182
201
325
23
267
30
299
195
252
331
377
53
355
187
21
164
190
147
276
152
309
113
294
300
96
161
308
32
132
264
324
313
242
26
17
277
292
47
261
197
224
236
137
119
335
196
372
176
290
5
38
223
10
198
143
24
188
51
314
367
339
55
7
189
311
104
307
378
368
219
122
95
366
317
191
220
46
229
117
364
271
91
330
50
140
260
41
156
285
70
124
246
204
199
173
87
302
360
231
279
60
59
85
103
75
304
2
340
375
165
230
301
116
89
181
118
184
369
102
211
126
237
329
351
336
64
207
262
167
82
146
183
358
233
106
287
172
343
48
105
342
210
253
125
127
215
77
123
20
130
42
171
153
356
31
72
322
162
373
234
141
221
270
269
321
256
212
194
282
326
265
257
209
144
291
295
160
29
109
243
238
83
136
193
200
186
259
338
281
14
135
333
93
341
232
350
258
268
129
61
227
134
28
157
128
205
175
69
168
328
218
318
241
327
217
145
206
286
112
225
19
344
71
208
273
115
170
334
62
352
9
226
98
174
99
185
139
73
354
371
163
15
203
280
315
254
310
245
289
228
312
133
235
275
114
37
57
216
44
27
323
94
255
249
363
288
88
56
81
4
154
63
214
296
110
120
284
131
22
108
80
49
155
374
332
347
39
74
357
142
192
148
361
179
345
248
305
36
76
6
240
337
365
35
150
320
40
166
52
180
370
303
97
65
239
177
43
349
121
67
222
297
272
306
353
100
251
263
169
319
68
346
151
13
250
293
138
84
159
376
1
348
316
78
86
58
11
101
107
266
247
12
213
45
283
362
278
298
244
8
90
202
111
359
66
25
16
92
79
54

> <PUBCHEM_MMFF94_PARTIAL_CHARGES>
25
1 -0.57
13 0.57
17 0.69
18 0.36
19 0.6
2 -0.57
20 -0.09
22 -0.33
23 -0.15
24 -0.15
25 0.18
26 -0.15
27 -0.15
28 -0.15
3 -0.57
36 0.37
4 -0.73
48 0.27
49 0.15
5 -0.42
53 0.15
54 0.15
55 0.15
6 0.03
7 0.36

> <PUBCHEM_EFFECTIVE_ROTOR_COUNT>
4.4

> <PUBCHEM_PHARMACOPHORE_FEATURES>
11
1 1 acceptor
1 2 acceptor
1 3 acceptor
1 4 donor
1 6 cation
1 6 donor
3 8 14 15 hydrophobe
5 4 5 7 13 17 rings
5 6 20 21 22 23 rings
6 21 23 24 26 27 28 rings
6 7 8 9 10 11 12 rings

> <PUBCHEM_HEAVY_ATOM_COUNT>
28

> <PUBCHEM_ATOM_DEF_STEREO_COUNT>
0

> <PUBCHEM_ATOM_UDEF_STEREO_COUNT>
2

> <PUBCHEM_BOND_DEF_STEREO_COUNT>
0

> <PUBCHEM_BOND_UDEF_STEREO_COUNT>
0

> <PUBCHEM_ISOTOPIC_ATOM_COUNT>
0

> <PUBCHEM_COMPONENT_COUNT>
1

> <PUBCHEM_CACTVS_TAUTO_COUNT>
16

> <PUBCHEM_CONFORMER_ID>
0035F38B00000003

> <PUBCHEM_MMFF94_ENERGY>
65.7677

> <PUBCHEM_FEATURE_SELFOVERLAP>
55.918

> <PUBCHEM_SHAPE_FINGERPRINT>
10066227 112 18337667521531186661
10462674 296 17191782096394231999
10595046 47 18413670205632021200
10835480 77 18409726236223035421
11135609 187 18340768269023435312
11719270 70 18341888572788117298
12107183 9 17550393938162069504
12236239 1 18060138743301763920
12467345 10 18341613736933592533
12516196 113 18261111889457873485
12596602 18 18202285818342989348
12730499 353 18410578405543438338
12788726 201 17132121203836956906
13583140 156 18201433705664354393
13690498 29 18129370653213584559
13782708 43 17822007550435858546
14341114 176 18412268311432855009
14461889 52 18336543923715856554
14528608 73 18410856573046995896
14856354 85 16486701380658796679
14933364 13 18411421704369420193
15183329 4 18341048528133757585
15537594 2 17561360695076949542
15840311 113 18189623731470699525
16993438 75 18118127093588250162
17349148 13 15068624868126517206
17834072 33 18341892991343535344
17844677 252 18341056232951509057
1813 80 16805609140152390349
19319366 153 17989480823730249622
20511986 3 18187918457206550407
23559900 14 18411694396538970025
23569914 2 17689098631451213268
23569943 247 17097483198727653371
239999 70 18272656706284912486
24771293 8 17894633694980185652
34797466 226 18130796654446939533
3633792 109 18187070764412740935
4073 2 18187652413646531539
4325135 7 18410292549172487070
5104073 3 18333730191280784835
6328613 192 18340486660818303185
6913067 236 16732976548677769262

> <PUBCHEM_SHAPE_MULTIPOLES>
543.68
17.23
2.63
1.21
2.43
0.84
0.31
-3.06
0.05
0.22
-0.13
-0.92
0.06
0.56

> <PUBCHEM_SHAPE_SELFOVERLAP>
1183.834

> <PUBCHEM_SHAPE_VOLUME>
298.7

> <PUBCHEM_COORDINATE_TYPE>
2
5
10

$$$$
