24892604
  -OEChem-01171810073D

 50 52  0     1  0  0  0  0  0999 V2000
   -4.4754    3.0282   -0.3394 S   0  0  0  0  0  0  0  0  0  0  0  0
   -1.4673    2.5245   -0.8000 S   0  0  0  0  0  0  0  0  0  0  0  0
   -2.6055   -1.9029    0.7610 O   0  0  0  0  0  0  0  0  0  0  0  0
   -5.4563    0.4513   -1.7775 O   0  0  0  0  0  0  0  0  0  0  0  0
    6.8337    0.1156   -0.9463 O   0  0  0  0  0  0  0  0  0  0  0  0
    1.1864   -0.3087    1.8189 O   0  0  0  0  0  0  0  0  0  0  0  0
   -5.1121   -0.5815    0.2773 N   0  0  0  0  0  0  0  0  0  0  0  0
    0.6235    1.2074    0.1034 N   0  0  0  0  0  0  0  0  0  0  0  0
   -2.8005    1.4169    1.0871 N   0  0  0  0  0  0  0  0  0  0  0  0
   -1.5068    0.9422    1.2149 N   0  0  0  0  0  0  0  0  0  0  0  0
   -3.3344   -2.0772   -0.4658 C   0  0  1  0  0  0  0  0  0  0  0  0
   -2.9695   -3.4581   -0.9824 C   0  0  0  0  0  0  0  0  0  0  0  0
   -1.5357   -3.5785   -0.5308 C   0  0  0  0  0  0  0  0  0  0  0  0
   -1.5760   -2.9014    0.8228 C   0  0  0  0  0  0  0  0  0  0  0  0
   -4.8188   -1.8985   -0.2126 C   0  0  0  0  0  0  0  0  0  0  0  0
   -5.4095    0.4964   -0.5493 C   0  0  0  0  0  0  0  0  0  0  0  0
   -5.6627    1.7783    0.2086 C   0  0  0  0  0  0  0  0  0  0  0  0
   -2.9165    2.2506    0.0756 C   0  0  0  0  0  0  0  0  0  0  0  0
    2.9030    0.3035    0.3732 C   0  0  0  0  0  0  0  0  0  0  0  0
    5.5451    0.1775   -0.5132 C   0  0  0  0  0  0  0  0  0  0  0  0
    3.6693   -0.8347    0.6241 C   0  0  0  0  0  0  0  0  0  0  0  0
    3.4577    1.3788   -0.3210 C   0  0  0  0  0  0  0  0  0  0  0  0
    4.9903   -0.8978    0.1808 C   0  0  0  0  0  0  0  0  0  0  0  0
    4.7788    1.3157   -0.7644 C   0  0  0  0  0  0  0  0  0  0  0  0
    1.4952    0.3707    0.8458 C   0  0  0  0  0  0  0  0  0  0  0  0
   -0.7108    1.4408    0.2933 C   0  0  0  0  0  0  0  0  0  0  0  0
    7.7414   -0.6693   -0.1742 C   0  0  0  0  0  0  0  0  0  0  0  0
    9.1333   -0.0896   -0.3098 C   0  0  0  0  0  0  0  0  0  0  0  0
   -2.9702   -1.3094   -1.1606 H   0  0  0  0  0  0  0  0  0  0  0  0
   -3.0938   -3.5536   -2.0646 H   0  0  0  0  0  0  0  0  0  0  0  0
   -3.5745   -4.2332   -0.4965 H   0  0  0  0  0  0  0  0  0  0  0  0
   -1.1735   -4.6086   -0.4823 H   0  0  0  0  0  0  0  0  0  0  0  0
   -0.8834   -3.0168   -1.2101 H   0  0  0  0  0  0  0  0  0  0  0  0
   -1.8475   -3.6098    1.6124 H   0  0  0  0  0  0  0  0  0  0  0  0
   -0.6237   -2.4336    1.0859 H   0  0  0  0  0  0  0  0  0  0  0  0
   -5.1658   -2.5965    0.5572 H   0  0  0  0  0  0  0  0  0  0  0  0
   -5.3900   -2.0788   -1.1295 H   0  0  0  0  0  0  0  0  0  0  0  0
   -5.0827   -0.4408    1.2827 H   0  0  0  0  0  0  0  0  0  0  0  0
   -5.5882    1.6410    1.2912 H   0  0  0  0  0  0  0  0  0  0  0  0
   -6.6785    2.1165   -0.0177 H   0  0  0  0  0  0  0  0  0  0  0  0
    3.2521   -1.6876    1.1531 H   0  0  0  0  0  0  0  0  0  0  0  0
    2.9088    2.2965   -0.5084 H   0  0  0  0  0  0  0  0  0  0  0  0
    5.5427   -1.8132    0.3714 H   0  0  0  0  0  0  0  0  0  0  0  0
    5.2085    2.1589   -1.2983 H   0  0  0  0  0  0  0  0  0  0  0  0
    0.9957    1.6904   -0.7088 H   0  0  0  0  0  0  0  0  0  0  0  0
    7.4841   -0.6599    0.8924 H   0  0  0  0  0  0  0  0  0  0  0  0
    7.7315   -1.7001   -0.5452 H   0  0  0  0  0  0  0  0  0  0  0  0
    9.4433   -0.0729   -1.3599 H   0  0  0  0  0  0  0  0  0  0  0  0
    9.1560    0.9463    0.0447 H   0  0  0  0  0  0  0  0  0  0  0  0
    9.8588   -0.6745    0.2625 H   0  0  0  0  0  0  0  0  0  0  0  0
  1 17  1  0  0  0  0
  1 18  1  0  0  0  0
  2 18  1  0  0  0  0
  2 26  1  0  0  0  0
  3 11  1  0  0  0  0
  3 14  1  0  0  0  0
  4 16  2  0  0  0  0
  5 20  1  0  0  0  0
  5 27  1  0  0  0  0
  6 25  2  0  0  0  0
  7 15  1  0  0  0  0
  7 16  1  0  0  0  0
  7 38  1  0  0  0  0
  8 25  1  0  0  0  0
  8 26  1  0  0  0  0
  8 45  1  0  0  0  0
  9 10  1  0  0  0  0
  9 18  2  0  0  0  0
 10 26  2  0  0  0  0
 11 12  1  0  0  0  0
 11 15  1  0  0  0  0
 11 29  1  0  0  0  0
 12 13  1  0  0  0  0
 12 30  1  0  0  0  0
 12 31  1  0  0  0  0
 13 14  1  0  0  0  0
 13 32  1  0  0  0  0
 13 33  1  0  0  0  0
 14 34  1  0  0  0  0
 14 35  1  0  0  0  0
 15 36  1  0  0  0  0
 15 37  1  0  0  0  0
 16 17  1  0  0  0  0
 17 39  1  0  0  0  0
 17 40  1  0  0  0  0
 19 21  2  0  0  0  0
 19 22  1  0  0  0  0
 19 25  1  0  0  0  0
 20 23  2  0  0  0  0
 20 24  1  0  0  0  0
 21 23  1  0  0  0  0
 21 41  1  0  0  0  0
 22 24  2  0  0  0  0
 22 42  1  0  0  0  0
 23 43  1  0  0  0  0
 24 44  1  0  0  0  0
 27 28  1  0  0  0  0
 27 46  1  0  0  0  0
 27 47  1  0  0  0  0
 28 48  1  0  0  0  0
 28 49  1  0  0  0  0
 28 50  1  0  0  0  0
M  END
> <PUBCHEM_COMPOUND_CID>
24892604

> <PUBCHEM_CONFORMER_RMSD>
1.2

> <PUBCHEM_CONFORMER_DIVERSEORDER>
1
37
65
7
60
4
41
38
17
43
23
47
54
59
61
16
29
10
51
57
19
21
2
50
36
18
53
14
15
26
31
6
64
30
63
9
55
62
11
42
25
40
27
56
33
5
52
13
39
46
8
48
28
3
24
35
49
20
44
34
32
58
12
22
45

> <PUBCHEM_MMFF94_PARTIAL_CHARGES>
31
1 -0.29
10 -0.34
11 0.28
14 0.28
15 0.3
16 0.57
17 0.29
18 0.43
19 0.09
2 -0.08
20 0.08
21 -0.15
22 -0.15
23 -0.15
24 -0.15
25 0.54
26 0.44
27 0.28
3 -0.56
38 0.37
4 -0.57
41 0.15
42 0.15
43 0.15
44 0.15
45 0.37
5 -0.36
6 -0.57
7 -0.73
8 -0.49
9 -0.34

> <PUBCHEM_EFFECTIVE_ROTOR_COUNT>
12

> <PUBCHEM_PHARMACOPHORE_FEATURES>
10
1 3 acceptor
1 4 acceptor
1 5 acceptor
1 6 acceptor
1 7 donor
1 8 donor
1 9 acceptor
5 2 9 10 18 26 rings
5 3 11 12 13 14 rings
6 19 20 21 22 23 24 rings

> <PUBCHEM_HEAVY_ATOM_COUNT>
28

> <PUBCHEM_ATOM_DEF_STEREO_COUNT>
0

> <PUBCHEM_ATOM_UDEF_STEREO_COUNT>
1

> <PUBCHEM_BOND_DEF_STEREO_COUNT>
0

> <PUBCHEM_BOND_UDEF_STEREO_COUNT>
0

> <PUBCHEM_ISOTOPIC_ATOM_COUNT>
0

> <PUBCHEM_COMPONENT_COUNT>
1

> <PUBCHEM_CACTVS_TAUTO_COUNT>
6

> <PUBCHEM_CONFORMER_ID>
017BD4BC00000001

> <PUBCHEM_MMFF94_ENERGY>
57.6466

> <PUBCHEM_FEATURE_SELFOVERLAP>
50.749

> <PUBCHEM_SHAPE_FINGERPRINT>
10554248 39 16443351949723992486
10577160 183 17967802809574285346
10670039 82 18409442596798910063
10674148 151 17346315978039791649
11014199 57 17761208122010624987
11200772 71 18262525913050898300
11315181 36 17489870423137528408
11524674 6 17489867129002659623
12498461 61 18262509292688493098
12643181 29 18413386544828453038
12788726 201 18409724041330814745
13761468 95 18041548136364411693
13941206 138 18114457890711528835
13947920 75 18335417967689322674
14251740 79 18412826906500298643
14251757 5 18337109085329664147
14279260 333 17894630353484950034
14289585 56 17168416091122822380
14840074 17 18040435456646629693
14930077 153 17749395900799215684
14931854 50 18265031661976318455
15183329 4 18408318882529274219
15297060 5 18271810082183234457
16719943 64 18410571786524549123
19958102 18 18411134693179742015
20771845 165 17755863013957671205
21236236 1 18412266142173514826
23559900 14 18200304558324718041
249057 3 18408324384577851636
25147074 1 17895464848629645322
395649 100 18408603695581842734
397830 11 17988633160737258992
4325135 7 18260831471085445724
445580 160 18343586252509901886
5085150 59 18201994400923995454
5265222 85 18412267271760534621
559249 180 18409731759249855976
58902169 19 17967540077924707468
59521270 166 18261392187487126868
6437827 68 18340767052829979550
70251023 43 17258493873946224499
9862886 166 18273215305108869258

> <PUBCHEM_SHAPE_MULTIPOLES>
540.52
19.29
3.73
1.12
38.53
2.42
-0.06
-1.24
4.91
-7.04
0.66
-0.41
0.06
-0.59

> <PUBCHEM_SHAPE_SELFOVERLAP>
1102.268

> <PUBCHEM_SHAPE_VOLUME>
313.8

> <PUBCHEM_COORDINATE_TYPE>
2
5
10

$$$$
