118982
  -OEChem-01171809153D

 30 31  0     0  0  0  0  0  0999 V2000
    0.2392    1.1938    1.7102 S   0  0  0  0  0  0  0  0  0  0  0  0
   -1.3989    2.3452   -0.4638 O   0  0  0  0  0  0  0  0  0  0  0  0
   -1.1414    0.5155    0.9499 N   0  0  0  0  0  0  0  0  0  0  0  0
   -2.3930   -1.9648   -0.6658 C   0  0  0  0  0  0  0  0  0  0  0  0
   -1.3489   -1.9076    0.4475 C   0  0  0  0  0  0  0  0  0  0  0  0
   -2.4656   -0.7094   -1.5317 C   0  0  0  0  0  0  0  0  0  0  0  0
   -1.5940   -0.7836    1.4508 C   0  0  0  0  0  0  0  0  0  0  0  0
   -2.9091    0.5327   -0.7665 C   0  0  0  0  0  0  0  0  0  0  0  0
   -1.7466    1.2248   -0.0814 C   0  0  0  0  0  0  0  0  0  0  0  0
    1.4827    0.4834    0.6540 C   0  0  0  0  0  0  0  0  0  0  0  0
    1.9019    1.1641   -0.4909 C   0  0  0  0  0  0  0  0  0  0  0  0
    2.0429   -0.7567    0.9678 C   0  0  0  0  0  0  0  0  0  0  0  0
    2.8771    0.6073   -1.3182 C   0  0  0  0  0  0  0  0  0  0  0  0
    3.0182   -1.3133    0.1405 C   0  0  0  0  0  0  0  0  0  0  0  0
    3.4355   -0.6314   -1.0025 C   0  0  0  0  0  0  0  0  0  0  0  0
   -3.3800   -2.1656   -0.2307 H   0  0  0  0  0  0  0  0  0  0  0  0
   -2.1621   -2.8204   -1.3124 H   0  0  0  0  0  0  0  0  0  0  0  0
   -1.3860   -2.8632    0.9850 H   0  0  0  0  0  0  0  0  0  0  0  0
   -0.3521   -1.8343    0.0031 H   0  0  0  0  0  0  0  0  0  0  0  0
   -3.1919   -0.8988   -2.3318 H   0  0  0  0  0  0  0  0  0  0  0  0
   -1.4969   -0.5379   -2.0169 H   0  0  0  0  0  0  0  0  0  0  0  0
   -2.6592   -0.7103    1.6976 H   0  0  0  0  0  0  0  0  0  0  0  0
   -1.0727   -1.0188    2.3869 H   0  0  0  0  0  0  0  0  0  0  0  0
   -3.7024    0.3159   -0.0440 H   0  0  0  0  0  0  0  0  0  0  0  0
   -3.3302    1.2510   -1.4815 H   0  0  0  0  0  0  0  0  0  0  0  0
    1.4821    2.1320   -0.7533 H   0  0  0  0  0  0  0  0  0  0  0  0
    1.7321   -1.3034    1.8549 H   0  0  0  0  0  0  0  0  0  0  0  0
    3.2024    1.1384   -2.2081 H   0  0  0  0  0  0  0  0  0  0  0  0
    3.4528   -2.2779    0.3863 H   0  0  0  0  0  0  0  0  0  0  0  0
    4.1948   -1.0648   -1.6466 H   0  0  0  0  0  0  0  0  0  0  0  0
  1  3  1  0  0  0  0
  1 10  1  0  0  0  0
  2  9  2  0  0  0  0
  3  7  1  0  0  0  0
  3  9  1  0  0  0  0
  4  5  1  0  0  0  0
  4  6  1  0  0  0  0
  4 16  1  0  0  0  0
  4 17  1  0  0  0  0
  5  7  1  0  0  0  0
  5 18  1  0  0  0  0
  5 19  1  0  0  0  0
  6  8  1  0  0  0  0
  6 20  1  0  0  0  0
  6 21  1  0  0  0  0
  7 22  1  0  0  0  0
  7 23  1  0  0  0  0
  8  9  1  0  0  0  0
  8 24  1  0  0  0  0
  8 25  1  0  0  0  0
 10 11  2  0  0  0  0
 10 12  1  0  0  0  0
 11 13  1  0  0  0  0
 11 26  1  0  0  0  0
 12 14  2  0  0  0  0
 12 27  1  0  0  0  0
 13 15  2  0  0  0  0
 13 28  1  0  0  0  0
 14 15  1  0  0  0  0
 14 29  1  0  0  0  0
 15 30  1  0  0  0  0
M  END
> <PUBCHEM_COMPOUND_CID>
118982

> <PUBCHEM_CONFORMER_RMSD>
0.6

> <PUBCHEM_CONFORMER_DIVERSEORDER>
1
5
23
2
6
18
15
19
3
17
4
20
10
24
9
7
16
13
14
22
12
11
21
8

> <PUBCHEM_MMFF94_PARTIAL_CHARGES>
17
1 -0.09
10 0.1
11 -0.15
12 -0.15
13 -0.15
14 -0.15
15 -0.15
2 -0.57
26 0.15
27 0.15
28 0.15
29 0.15
3 -0.37
30 0.15
7 0.3
8 0.06
9 0.57

> <PUBCHEM_EFFECTIVE_ROTOR_COUNT>
3.2

> <PUBCHEM_PHARMACOPHORE_FEATURES>
3
1 2 acceptor
6 10 11 12 13 14 15 rings
7 3 4 5 6 7 8 9 rings

> <PUBCHEM_HEAVY_ATOM_COUNT>
15

> <PUBCHEM_ATOM_DEF_STEREO_COUNT>
0

> <PUBCHEM_ATOM_UDEF_STEREO_COUNT>
0

> <PUBCHEM_BOND_DEF_STEREO_COUNT>
0

> <PUBCHEM_BOND_UDEF_STEREO_COUNT>
0

> <PUBCHEM_ISOTOPIC_ATOM_COUNT>
0

> <PUBCHEM_COMPONENT_COUNT>
1

> <PUBCHEM_CACTVS_TAUTO_COUNT>
1

> <PUBCHEM_CONFORMER_ID>
0001D0C600000001

> <PUBCHEM_MMFF94_ENERGY>
30.3641

> <PUBCHEM_FEATURE_SELFOVERLAP>
15.223

> <PUBCHEM_SHAPE_FINGERPRINT>
11127187 94 18343867714406486231
11471102 22 14045732687126561150
12202030 40 17489866067976912154
12251169 10 10375869684198175286
12696612 119 10952051177875933514
128993 33 12613037149970466134
13299463 15 18263372549699056072
13693222 15 13038896720859548070
13693222 7 14056992849698627490
13764800 53 12251904767582453135
14787075 74 10513717703282605024
15775835 57 15502372313874109718
16945 1 18336257959928368481
17492 54 15806095169744122166
17834072 14 18057862762911801994
18981168 100 12973879278252006194
19766037 51 17987806344033641734
19868273 293 18114737144804362493
20361792 2 17275389832252084768
20645476 183 17531518785647322355
20653085 51 16370994183814394023
21731516 1 17274832405663425298
22802520 49 18410008879277421763
23419403 2 13954584718982638033
23557571 272 18265319797550200865
23559900 14 17986939770901494610
25 1 15936974024786269656
27216 239 12108082118392967638
2748010 2 16748755927536238384
549884 4 17022896835441113604

> <PUBCHEM_SHAPE_MULTIPOLES>
301.69
5.34
2.04
1.59
2.12
0.01
-0.17
1.58
2.18
-0.92
0.02
-0.05
-0.1
-0.08

> <PUBCHEM_SHAPE_SELFOVERLAP>
609.461

> <PUBCHEM_SHAPE_VOLUME>
175.3

> <PUBCHEM_COORDINATE_TYPE>
2
5
10

$$$$
