120053
  -OEChem-01171809593D

 30 32  0     0  0  0  0  0  0999 V2000
    0.5640    3.7138    2.0873 Cl  0  0  0  0  0  0  0  0  0  0  0  0
    1.3958   -2.2490    2.1797 O   0  0  0  0  0  0  0  0  0  0  0  0
   -1.2721    2.8543   -0.0314 O   0  0  0  0  0  0  0  0  0  0  0  0
   -0.1433    0.7950   -0.0579 N   0  0  0  0  0  0  0  0  0  0  0  0
   -0.5993   -1.9094    1.1305 N   0  0  0  0  0  0  0  0  0  0  0  0
   -2.3492    0.6290   -0.9413 N   0  0  0  0  0  0  0  0  0  0  0  0
    1.0736    0.1382   -0.4038 C   0  0  0  0  0  0  0  0  0  0  0  0
    1.4949   -1.0533    0.1871 C   0  0  0  0  0  0  0  0  0  0  0  0
   -1.3364    0.0220   -0.2578 C   0  0  0  0  0  0  0  0  0  0  0  0
   -1.5115   -1.2490    0.2922 C   0  0  0  0  0  0  0  0  0  0  0  0
    0.7572   -1.7379    1.2598 C   0  0  0  0  0  0  0  0  0  0  0  0
    1.8861    0.7054   -1.4073 C   0  0  0  0  0  0  0  0  0  0  0  0
    2.7167   -1.6389   -0.1936 C   0  0  0  0  0  0  0  0  0  0  0  0
   -0.2394    2.1915    0.1054 C   0  0  0  0  0  0  0  0  0  0  0  0
   -2.7548   -1.8809    0.1267 C   0  0  0  0  0  0  0  0  0  0  0  0
    3.0922    0.1169   -1.7899 C   0  0  0  0  0  0  0  0  0  0  0  0
    3.5104   -1.0559   -1.1782 C   0  0  0  0  0  0  0  0  0  0  0  0
   -3.7721   -1.2745   -0.5933 C   0  0  0  0  0  0  0  0  0  0  0  0
    1.0069    2.9063    0.5903 C   0  0  0  0  0  0  0  0  0  0  0  0
   -3.5197   -0.0236   -1.1047 C   0  0  0  0  0  0  0  0  0  0  0  0
   -0.9947   -2.6434    1.7140 H   0  0  0  0  0  0  0  0  0  0  0  0
    1.5779    1.6161   -1.9176 H   0  0  0  0  0  0  0  0  0  0  0  0
    3.0609   -2.5627    0.2666 H   0  0  0  0  0  0  0  0  0  0  0  0
   -2.9388   -2.8604    0.5638 H   0  0  0  0  0  0  0  0  0  0  0  0
    3.6988    0.5752   -2.5652 H   0  0  0  0  0  0  0  0  0  0  0  0
    4.4482   -1.5198   -1.4684 H   0  0  0  0  0  0  0  0  0  0  0  0
   -4.7297   -1.7610   -0.7340 H   0  0  0  0  0  0  0  0  0  0  0  0
    1.3171    3.6487   -0.1496 H   0  0  0  0  0  0  0  0  0  0  0  0
    1.8396    2.2446    0.8251 H   0  0  0  0  0  0  0  0  0  0  0  0
   -4.2735    0.5133   -1.6702 H   0  0  0  0  0  0  0  0  0  0  0  0
  1 19  1  0  0  0  0
  2 11  2  0  0  0  0
  3 14  2  0  0  0  0
  4  7  1  0  0  0  0
  4  9  1  0  0  0  0
  4 14  1  0  0  0  0
  5 10  1  0  0  0  0
  5 11  1  0  0  0  0
  5 21  1  0  0  0  0
  6  9  1  0  0  0  0
  6 20  2  0  0  0  0
  7  8  1  0  0  0  0
  7 12  2  0  0  0  0
  8 11  1  0  0  0  0
  8 13  2  0  0  0  0
  9 10  2  0  0  0  0
 10 15  1  0  0  0  0
 12 16  1  0  0  0  0
 12 22  1  0  0  0  0
 13 17  1  0  0  0  0
 13 23  1  0  0  0  0
 14 19  1  0  0  0  0
 15 18  2  0  0  0  0
 15 24  1  0  0  0  0
 16 17  2  0  0  0  0
 16 25  1  0  0  0  0
 17 26  1  0  0  0  0
 18 20  1  0  0  0  0
 18 27  1  0  0  0  0
 19 28  1  0  0  0  0
 19 29  1  0  0  0  0
 20 30  1  0  0  0  0
M  END
> <PUBCHEM_COMPOUND_CID>
120053

> <PUBCHEM_CONFORMER_RMSD>
0.6

> <PUBCHEM_CONFORMER_DIVERSEORDER>
1
7
9
6
5
8
10
2
4
3

> <PUBCHEM_MMFF94_PARTIAL_CHARGES>
28
1 -0.29
10 0.12
11 0.54
12 -0.15
13 -0.15
14 0.57
15 -0.15
16 -0.15
17 -0.15
18 -0.15
19 0.35
2 -0.57
20 0.16
21 0.37
22 0.15
23 0.15
24 0.15
25 0.15
26 0.15
27 0.15
3 -0.57
30 0.15
4 -0.29
5 -0.55
6 -0.62
7 0.12
8 0.09
9 0.43

> <PUBCHEM_EFFECTIVE_ROTOR_COUNT>
2.4

> <PUBCHEM_PHARMACOPHORE_FEATURES>
7
1 2 acceptor
1 3 acceptor
1 5 donor
1 6 acceptor
6 6 9 10 15 18 20 rings
6 7 8 12 13 16 17 rings
7 4 5 7 8 9 10 11 rings

> <PUBCHEM_HEAVY_ATOM_COUNT>
20

> <PUBCHEM_ATOM_DEF_STEREO_COUNT>
0

> <PUBCHEM_ATOM_UDEF_STEREO_COUNT>
0

> <PUBCHEM_BOND_DEF_STEREO_COUNT>
0

> <PUBCHEM_BOND_UDEF_STEREO_COUNT>
0

> <PUBCHEM_ISOTOPIC_ATOM_COUNT>
0

> <PUBCHEM_COMPONENT_COUNT>
1

> <PUBCHEM_CACTVS_TAUTO_COUNT>
2

> <PUBCHEM_CONFORMER_ID>
0001D4F500000001

> <PUBCHEM_MMFF94_ENERGY>
104.3467

> <PUBCHEM_FEATURE_SELFOVERLAP>
35.555

> <PUBCHEM_SHAPE_FINGERPRINT>
10764073 3 15805438349207181057
11578080 2 17680674117840227484
12035758 1 17762065741048356488
12035759 4 17970350304358183550
12553582 1 18340201895706077063
12716301 132 17247516293407238104
12788726 201 18125724478675514369
13009979 54 17757538673292614186
13294875 104 17970609995239507602
14617773 55 18193009127223313286
14787075 74 18264199378612451708
14817 1 12326254920900552056
15852999 172 17545311338515481697
16752209 62 18123179109505003189
16945 1 17748827384415203463
20600515 1 17988342815735346555
20645477 70 18126270081825844007
22112679 90 18269838614478783419
22182313 1 17756419727671188963
23419403 2 17404616714097168216
23526113 38 18190750923254641614
23557571 272 18058725776634230062
23559900 14 18334584585827003676
2748010 2 16821105978872306462
3323516 105 18191310575074398719
352729 6 17545872734017574981
353137 74 18114753637420860846
394222 165 16660362597698544642
4663303 62 18055636376245351505
5262128 65 18130518525365797111
7364860 26 18127969921884607221
81228 2 18055931904323763440
84936 31 17130421500652461424

> <PUBCHEM_SHAPE_MULTIPOLES>
386.78
5.05
3.6
1.66
2.52
4.15
-0.52
-2.86
2.75
-1.15
-2.32
-0.87
-0.08
0.53

> <PUBCHEM_SHAPE_SELFOVERLAP>
843.699

> <PUBCHEM_SHAPE_VOLUME>
208.1

> <PUBCHEM_COORDINATE_TYPE>
2
5
10

$$$$
