2460154
  -OEChem-01171809253D

 41 42  0     0  0  0  0  0  0999 V2000
   -0.2613    1.0992    0.1893 O   0  0  0  0  0  0  0  0  0  0  0  0
    2.1720    2.1516    0.8273 O   0  0  0  0  0  0  0  0  0  0  0  0
   -6.7307    0.8239   -0.5852 O   0  0  0  0  0  0  0  0  0  0  0  0
   -5.3829   -1.0196    0.0010 N   0  0  0  0  0  0  0  0  0  0  0  0
    3.3635    0.2063    0.2435 C   0  0  0  0  0  0  0  0  0  0  0  0
    4.4579    0.8424   -0.3424 C   0  0  0  0  0  0  0  0  0  0  0  0
    5.6808   -1.2410   -0.3195 C   0  0  0  0  0  0  0  0  0  0  0  0
    5.6165    0.1188   -0.6239 C   0  0  0  0  0  0  0  0  0  0  0  0
    3.4277   -1.1534    0.5477 C   0  0  0  0  0  0  0  0  0  0  0  0
    2.1407    0.9375    0.5467 C   0  0  0  0  0  0  0  0  0  0  0  0
    4.5864   -1.8771    0.2662 C   0  0  0  0  0  0  0  0  0  0  0  0
    0.7905    0.2116    0.5210 C   0  0  0  0  0  0  0  0  0  0  0  0
    4.4145    2.2968   -0.6813 C   0  0  0  0  0  0  0  0  0  0  0  0
    6.9194   -2.0156   -0.6199 C   0  0  0  0  0  0  0  0  0  0  0  0
   -1.5292    0.5742    0.1424 C   0  0  0  0  0  0  0  0  0  0  0  0
   -4.0947   -0.4861    0.0486 C   0  0  0  0  0  0  0  0  0  0  0  0
   -2.6001    1.3984   -0.1779 C   0  0  0  0  0  0  0  0  0  0  0  0
   -1.7242   -0.7732    0.4166 C   0  0  0  0  0  0  0  0  0  0  0  0
   -3.8883    0.8659   -0.2250 C   0  0  0  0  0  0  0  0  0  0  0  0
   -3.0126   -1.3056    0.3694 C   0  0  0  0  0  0  0  0  0  0  0  0
   -6.5821   -0.3599   -0.2999 C   0  0  0  0  0  0  0  0  0  0  0  0
   -7.7639   -1.2951   -0.2445 C   0  0  0  0  0  0  0  0  0  0  0  0
    6.4725    0.6096   -1.0813 H   0  0  0  0  0  0  0  0  0  0  0  0
    2.5991   -1.6751    1.0183 H   0  0  0  0  0  0  0  0  0  0  0  0
    4.6248   -2.9357    0.5094 H   0  0  0  0  0  0  0  0  0  0  0  0
    0.6487   -0.2024    1.5269 H   0  0  0  0  0  0  0  0  0  0  0  0
    0.8542   -0.5738   -0.2416 H   0  0  0  0  0  0  0  0  0  0  0  0
    5.2729    2.5834   -1.3004 H   0  0  0  0  0  0  0  0  0  0  0  0
    3.5244    2.5444   -1.2691 H   0  0  0  0  0  0  0  0  0  0  0  0
    4.4588    2.9103    0.2239 H   0  0  0  0  0  0  0  0  0  0  0  0
    7.8113   -1.3887   -0.5138 H   0  0  0  0  0  0  0  0  0  0  0  0
    7.0372   -2.8587    0.0693 H   0  0  0  0  0  0  0  0  0  0  0  0
    6.8813   -2.4028   -1.6429 H   0  0  0  0  0  0  0  0  0  0  0  0
   -2.4418    2.4518   -0.3912 H   0  0  0  0  0  0  0  0  0  0  0  0
   -0.9308   -1.4664    0.6726 H   0  0  0  0  0  0  0  0  0  0  0  0
   -4.6751    1.5620   -0.4802 H   0  0  0  0  0  0  0  0  0  0  0  0
   -3.1597   -2.3611    0.5847 H   0  0  0  0  0  0  0  0  0  0  0  0
   -5.4497   -2.0130    0.2131 H   0  0  0  0  0  0  0  0  0  0  0  0
   -7.6438   -2.0865   -0.9897 H   0  0  0  0  0  0  0  0  0  0  0  0
   -8.6837   -0.7432   -0.4569 H   0  0  0  0  0  0  0  0  0  0  0  0
   -7.8394   -1.7393    0.7520 H   0  0  0  0  0  0  0  0  0  0  0  0
  1 12  1  0  0  0  0
  1 15  1  0  0  0  0
  2 10  2  0  0  0  0
  3 21  2  0  0  0  0
  4 16  1  0  0  0  0
  4 21  1  0  0  0  0
  4 38  1  0  0  0  0
  5  6  2  0  0  0  0
  5  9  1  0  0  0  0
  5 10  1  0  0  0  0
  6  8  1  0  0  0  0
  6 13  1  0  0  0  0
  7  8  2  0  0  0  0
  7 11  1  0  0  0  0
  7 14  1  0  0  0  0
  8 23  1  0  0  0  0
  9 11  2  0  0  0  0
  9 24  1  0  0  0  0
 10 12  1  0  0  0  0
 11 25  1  0  0  0  0
 12 26  1  0  0  0  0
 12 27  1  0  0  0  0
 13 28  1  0  0  0  0
 13 29  1  0  0  0  0
 13 30  1  0  0  0  0
 14 31  1  0  0  0  0
 14 32  1  0  0  0  0
 14 33  1  0  0  0  0
 15 17  2  0  0  0  0
 15 18  1  0  0  0  0
 16 19  2  0  0  0  0
 16 20  1  0  0  0  0
 17 19  1  0  0  0  0
 17 34  1  0  0  0  0
 18 20  2  0  0  0  0
 18 35  1  0  0  0  0
 19 36  1  0  0  0  0
 20 37  1  0  0  0  0
 21 22  1  0  0  0  0
 22 39  1  0  0  0  0
 22 40  1  0  0  0  0
 22 41  1  0  0  0  0
M  END
> <PUBCHEM_COMPOUND_CID>
2460154

> <PUBCHEM_CONFORMER_RMSD>
0.8

> <PUBCHEM_CONFORMER_DIVERSEORDER>
20
63
112
66
79
86
100
82
39
55
37
102
101
28
83
113
25
4
98
45
110
120
119
35
99
51
64
87
81
50
68
118
23
75
104
62
78
96
65
105
22
26
16
49
48
117
5
61
90
29
44
116
114
13
42
6
2
36
21
91
93
47
88
18
14
111
31
32
89
59
19
95
92
11
74
41
9
38
10
94
1
33
40
24
60
106
17
54
73
3
30
8
27
84
76
108
53
58
115
103
43
109
77
34
52
67
57
12
71
80
107
15
7
97
85
70
69
72
56
46

> <PUBCHEM_MMFF94_PARTIAL_CHARGES>
30
1 -0.36
10 0.42
11 -0.15
12 0.34
13 0.14
14 0.14
15 0.08
16 0.12
17 -0.15
18 -0.15
19 -0.15
2 -0.57
20 -0.15
21 0.57
22 0.06
23 0.15
24 0.15
25 0.15
3 -0.57
34 0.15
35 0.15
36 0.15
37 0.15
38 0.37
4 -0.55
5 0.09
6 -0.14
7 -0.14
8 -0.15
9 -0.15

> <PUBCHEM_EFFECTIVE_ROTOR_COUNT>
6

> <PUBCHEM_PHARMACOPHORE_FEATURES>
6
1 1 acceptor
1 2 acceptor
1 3 acceptor
1 4 donor
6 15 16 17 18 19 20 rings
6 5 6 7 8 9 11 rings

> <PUBCHEM_HEAVY_ATOM_COUNT>
22

> <PUBCHEM_ATOM_DEF_STEREO_COUNT>
0

> <PUBCHEM_ATOM_UDEF_STEREO_COUNT>
0

> <PUBCHEM_BOND_DEF_STEREO_COUNT>
0

> <PUBCHEM_BOND_UDEF_STEREO_COUNT>
0

> <PUBCHEM_ISOTOPIC_ATOM_COUNT>
0

> <PUBCHEM_COMPONENT_COUNT>
1

> <PUBCHEM_CACTVS_TAUTO_COUNT>
4

> <PUBCHEM_CONFORMER_ID>
002589FA00000014

> <PUBCHEM_MMFF94_ENERGY>
74.1149

> <PUBCHEM_FEATURE_SELFOVERLAP>
30.452

> <PUBCHEM_SHAPE_FINGERPRINT>
10299344 5 18342744013865712403
11524674 6 16558749040543280727
12166972 35 18410294735617432345
125118 31 8718559319689316359
12516196 113 18131348622153336200
12616971 3 15841543102844243361
13073987 5 18130787850065176568
13533116 47 18342737454928743473
13668630 136 18131354085562837230
13685833 64 18272651242405601010
14251764 18 18131072636118287000
14347332 77 18336541621080693585
14933364 13 18260830410692357325
15048467 5 10953458527142566159
15183329 4 18408603630692797937
17844677 252 18409174294160192924
18681886 176 18412823569838327778
20645477 70 18411703171467956470
21150785 3 16442785726361796527
21267235 1 18412548695224043979
221357 26 18408039606807986128
2215653 11 18410007749980714471
22956985 138 16913714115739072870
23522609 53 17985014645857913681
23559900 14 18338512062161464289
28498 318 18342737399906168559
29717793 49 18413110554603827924
3004659 81 18333731304231149842
3014965 18 18411134731981990871
3411729 13 16199290170803362392
34797466 226 17603587468984938028
351380 3 18131068221187429134
4073 2 17823141279556028258
4214541 1 18336829697643755744
46194498 28 17822012034286484580
465052 167 18131635594978037254
59682541 35 10087632733311331567
59755656 215 18261110755734453779
6138700 20 18411136914252898435
6327066 14 17608666238887865404
6438161 24 18261385625446966010

> <PUBCHEM_SHAPE_MULTIPOLES>
430.16
20.43
2.05
0.78
17.5
0.24
0
-8.58
5.1
-2.49
0.08
-0.36
0.05
0.2

> <PUBCHEM_SHAPE_SELFOVERLAP>
912.616

> <PUBCHEM_SHAPE_VOLUME>
240.6

> <PUBCHEM_COORDINATE_TYPE>
2
5
10

$$$$
