44825950
  -OEChem-01171810143D

 59 60  0     1  0  0  0  0  0999 V2000
   -0.4480    2.1042    0.7910 O   0  0  0  0  0  0  0  0  0  0  0  0
    1.2729    3.7160   -0.7727 O   0  0  0  0  0  0  0  0  0  0  0  0
   -3.0221   -1.3395   -0.6142 O   0  0  0  0  0  0  0  0  0  0  0  0
   -2.3295    2.5871    1.9293 O   0  0  0  0  0  0  0  0  0  0  0  0
   -2.7488   -1.5774    1.6673 O   0  0  0  0  0  0  0  0  0  0  0  0
    0.2868    1.5395   -0.3340 C   0  0  1  0  0  0  0  0  0  0  0  0
   -1.8976    0.7239   -1.2463 C   0  0  1  0  0  0  0  0  0  0  0  0
   -0.5956    1.4612   -1.5790 C   0  0  0  0  0  0  0  0  0  0  0  0
    1.6044    2.3420   -0.5040 C   0  0  2  0  0  0  0  0  0  0  0  0
   -1.7287   -0.7244   -0.7078 C   0  0  2  0  0  0  0  0  0  0  0  0
    2.4402    2.3794    0.8048 C   0  0  0  0  0  0  0  0  0  0  0  0
   -2.5828    1.5864   -0.2147 C   0  0  0  0  0  0  0  0  0  0  0  0
    2.4363    1.8463   -1.6935 C   0  0  0  0  0  0  0  0  0  0  0  0
   -0.8727   -1.6491   -1.5965 C   0  0  0  0  0  0  0  0  0  0  0  0
    2.8464    1.0420    1.4521 C   0  0  0  0  0  0  0  0  0  0  0  0
   -1.7993    2.1279    0.9229 C   0  0  0  0  0  0  0  0  0  0  0  0
    0.0111   -2.5575   -0.7525 C   0  0  0  0  0  0  0  0  0  0  0  0
   -3.8765    1.9320   -0.2989 C   0  0  0  0  0  0  0  0  0  0  0  0
    3.8955    0.2792    0.6938 C   0  0  0  0  0  0  0  0  0  0  0  0
    1.3342   -2.3097   -0.6749 C   0  0  0  0  0  0  0  0  0  0  0  0
    4.0069   -1.0548    0.5281 C   0  0  0  0  0  0  0  0  0  0  0  0
    2.3732   -3.0238    0.1427 C   0  0  0  0  0  0  0  0  0  0  0  0
    3.0862   -2.0934    1.1411 C   0  0  0  0  0  0  0  0  0  0  0  0
   -0.7044   -3.6776   -0.0500 C   0  0  0  0  0  0  0  0  0  0  0  0
   -3.3984   -1.7146    0.6395 C   0  0  0  0  0  0  0  0  0  0  0  0
    5.1706   -1.6070   -0.2577 C   0  0  0  0  0  0  0  0  0  0  0  0
   -4.7601   -2.3382    0.5844 C   0  0  0  0  0  0  0  0  0  0  0  0
    0.5638    0.5248   -0.0383 H   0  0  0  0  0  0  0  0  0  0  0  0
   -2.5117    0.6846   -2.1562 H   0  0  0  0  0  0  0  0  0  0  0  0
   -0.0714    0.9770   -2.4068 H   0  0  0  0  0  0  0  0  0  0  0  0
   -0.8366    2.4755   -1.9264 H   0  0  0  0  0  0  0  0  0  0  0  0
   -1.2549   -0.6579    0.2791 H   0  0  0  0  0  0  0  0  0  0  0  0
    1.8773    2.9510    1.5565 H   0  0  0  0  0  0  0  0  0  0  0  0
    3.3425    2.9848    0.6355 H   0  0  0  0  0  0  0  0  0  0  0  0
    3.4190    2.3312   -1.7142 H   0  0  0  0  0  0  0  0  0  0  0  0
    2.5824    0.7640   -1.6749 H   0  0  0  0  0  0  0  0  0  0  0  0
    1.9582    2.1091   -2.6440 H   0  0  0  0  0  0  0  0  0  0  0  0
   -1.5062   -2.2704   -2.2429 H   0  0  0  0  0  0  0  0  0  0  0  0
   -0.2384   -1.0777   -2.2786 H   0  0  0  0  0  0  0  0  0  0  0  0
    3.2754    1.2765    2.4351 H   0  0  0  0  0  0  0  0  0  0  0  0
    1.9553    0.4413    1.6466 H   0  0  0  0  0  0  0  0  0  0  0  0
    2.1020    4.2051   -0.9116 H   0  0  0  0  0  0  0  0  0  0  0  0
   -4.3611    2.5698    0.4326 H   0  0  0  0  0  0  0  0  0  0  0  0
   -4.4929    1.5771   -1.1189 H   0  0  0  0  0  0  0  0  0  0  0  0
    4.6657    0.9071    0.2464 H   0  0  0  0  0  0  0  0  0  0  0  0
    1.7246   -1.4782   -1.2592 H   0  0  0  0  0  0  0  0  0  0  0  0
    1.9205   -3.8393    0.7167 H   0  0  0  0  0  0  0  0  0  0  0  0
    3.0949   -3.4936   -0.5345 H   0  0  0  0  0  0  0  0  0  0  0  0
    3.6989   -2.7191    1.8042 H   0  0  0  0  0  0  0  0  0  0  0  0
    2.3374   -1.6343    1.7949 H   0  0  0  0  0  0  0  0  0  0  0  0
   -1.5817   -4.0043   -0.6178 H   0  0  0  0  0  0  0  0  0  0  0  0
   -0.0644   -4.5586    0.0580 H   0  0  0  0  0  0  0  0  0  0  0  0
   -1.0250   -3.3662    0.9466 H   0  0  0  0  0  0  0  0  0  0  0  0
    4.8227   -2.0759   -1.1831 H   0  0  0  0  0  0  0  0  0  0  0  0
    5.8919   -0.8309   -0.5358 H   0  0  0  0  0  0  0  0  0  0  0  0
    5.7095   -2.3544    0.3338 H   0  0  0  0  0  0  0  0  0  0  0  0
   -4.7342   -3.2287   -0.0487 H   0  0  0  0  0  0  0  0  0  0  0  0
   -5.0635   -2.6357    1.5922 H   0  0  0  0  0  0  0  0  0  0  0  0
   -5.4842   -1.6140    0.2025 H   0  0  0  0  0  0  0  0  0  0  0  0
  1  6  1  0  0  0  0
  1 16  1  0  0  0  0
  2  9  1  0  0  0  0
  2 42  1  0  0  0  0
  3 10  1  0  0  0  0
  3 25  1  0  0  0  0
  4 16  2  0  0  0  0
  5 25  2  0  0  0  0
  6  8  1  0  0  0  0
  6  9  1  0  0  0  0
  6 28  1  0  0  0  0
  7  8  1  0  0  0  0
  7 10  1  0  0  0  0
  7 12  1  0  0  0  0
  7 29  1  0  0  0  0
  8 30  1  0  0  0  0
  8 31  1  0  0  0  0
  9 11  1  0  0  0  0
  9 13  1  0  0  0  0
 10 14  1  0  0  0  0
 10 32  1  0  0  0  0
 11 15  1  0  0  0  0
 11 33  1  0  0  0  0
 11 34  1  0  0  0  0
 12 16  1  0  0  0  0
 12 18  2  0  0  0  0
 13 35  1  0  0  0  0
 13 36  1  0  0  0  0
 13 37  1  0  0  0  0
 14 17  1  0  0  0  0
 14 38  1  0  0  0  0
 14 39  1  0  0  0  0
 15 19  1  0  0  0  0
 15 40  1  0  0  0  0
 15 41  1  0  0  0  0
 17 20  2  0  0  0  0
 17 24  1  0  0  0  0
 18 43  1  0  0  0  0
 18 44  1  0  0  0  0
 19 21  2  0  0  0  0
 19 45  1  0  0  0  0
 20 22  1  0  0  0  0
 20 46  1  0  0  0  0
 21 23  1  0  0  0  0
 21 26  1  0  0  0  0
 22 23  1  0  0  0  0
 22 47  1  0  0  0  0
 22 48  1  0  0  0  0
 23 49  1  0  0  0  0
 23 50  1  0  0  0  0
 24 51  1  0  0  0  0
 24 52  1  0  0  0  0
 24 53  1  0  0  0  0
 25 27  1  0  0  0  0
 26 54  1  0  0  0  0
 26 55  1  0  0  0  0
 26 56  1  0  0  0  0
 27 57  1  0  0  0  0
 27 58  1  0  0  0  0
 27 59  1  0  0  0  0
M  END
> <PUBCHEM_COMPOUND_CID>
44825950

> <PUBCHEM_CONFORMER_RMSD>
0.8

> <PUBCHEM_CONFORMER_DIVERSEORDER>
1
5
11
12
9
6
3
4
8
10
2
7

> <PUBCHEM_MMFF94_PARTIAL_CHARGES>
29
1 -0.43
10 0.28
12 -0.12
14 0.14
15 0.14
16 0.71
17 -0.28
18 -0.3
19 -0.29
2 -0.68
20 -0.29
21 -0.28
22 0.14
23 0.14
24 0.14
25 0.66
26 0.14
27 0.06
3 -0.43
4 -0.57
42 0.4
43 0.15
44 0.15
45 0.15
46 0.15
5 -0.57
6 0.28
7 0.14
9 0.28

> <PUBCHEM_EFFECTIVE_ROTOR_COUNT>
3.8

> <PUBCHEM_PHARMACOPHORE_FEATURES>
5
1 2 acceptor
1 2 donor
1 4 acceptor
1 5 acceptor
6 1 6 7 8 12 16 rings

> <PUBCHEM_HEAVY_ATOM_COUNT>
27

> <PUBCHEM_ATOM_DEF_STEREO_COUNT>
4

> <PUBCHEM_ATOM_UDEF_STEREO_COUNT>
0

> <PUBCHEM_BOND_DEF_STEREO_COUNT>
2

> <PUBCHEM_BOND_UDEF_STEREO_COUNT>
0

> <PUBCHEM_ISOTOPIC_ATOM_COUNT>
0

> <PUBCHEM_COMPONENT_COUNT>
1

> <PUBCHEM_CACTVS_TAUTO_COUNT>
1

> <PUBCHEM_CONFORMER_ID>
02ABFD5E00000001

> <PUBCHEM_MMFF94_ENERGY>
66.7365

> <PUBCHEM_FEATURE_SELFOVERLAP>
25.373

> <PUBCHEM_SHAPE_FINGERPRINT>
10708813 3 18271519785064278472
11513181 2 17631442372294132134
11578080 2 13757516553245107177
12156800 1 16239074869077103886
12422481 6 18337124414600323905
12539773 59 16984033355506067897
12553582 1 18122889955306192936
12633257 1 17832983849902667250
12788726 201 17986691452270838801
13122387 1 17762610694993757422
13140716 1 18339921506854847797
13402501 40 18267578001524400190
14022347 108 17767994251752662997
19930381 70 17474382479184027091
20642791 178 18261686886926409932
21421861 104 18193301734971481403
23419403 2 17968924392860310279
23559900 14 18337100237712968993
3052486 1 18338527352651077182
338550 245 18336265733819278165
350125 39 18410298029297445327
35225 105 18125740112155680456
469060 322 17167578272279905686
5081480 168 16556807178122202126
5282274 181 18197790894412497960

> <PUBCHEM_SHAPE_MULTIPOLES>
526.3
7.71
4.77
1.53
1.74
0.5
-0.04
2.99
-2.07
-0.19
-0.07
-0.18
-0.46
-0.08

> <PUBCHEM_SHAPE_SELFOVERLAP>
1068.358

> <PUBCHEM_SHAPE_VOLUME>
303.9

> <PUBCHEM_COORDINATE_TYPE>
2
5
10

$$$$
