1358228
  -OEChem-01171809463D

 47 49  0     0  0  0  0  0  0999 V2000
    2.0380    2.9209    0.4058 S   0  0  0  0  0  0  0  0  0  0  0  0
   -0.4851   -3.2242    1.5622 O   0  0  0  0  0  0  0  0  0  0  0  0
    2.1595    0.1543    0.2021 N   0  0  0  0  0  0  0  0  0  0  0  0
   -1.7730    0.0098    1.4572 N   0  0  0  0  0  0  0  0  0  0  0  0
    0.1386    1.1977    1.0023 N   0  0  0  0  0  0  0  0  0  0  0  0
    1.5239   -1.1065    0.2335 C   0  0  0  0  0  0  0  0  0  0  0  0
    0.2264   -1.2109    0.5888 C   0  0  0  0  0  0  0  0  0  0  0  0
   -2.4602    1.1869    1.8767 C   0  0  0  0  0  0  0  0  0  0  0  0
   -0.4659    0.0429    1.0224 C   0  0  0  0  0  0  0  0  0  0  0  0
   -3.0271    1.9454    0.6776 C   0  0  0  0  0  0  0  0  0  0  0  0
    3.5254    0.2750   -0.2305 C   0  0  0  0  0  0  0  0  0  0  0  0
   -3.9744    1.1155   -0.1543 C   0  0  0  0  0  0  0  0  0  0  0  0
    1.4336    1.3287    0.5524 C   0  0  0  0  0  0  0  0  0  0  0  0
    2.3733   -2.3263   -0.0788 C   0  0  0  0  0  0  0  0  0  0  0  0
   -0.4739   -2.5071    0.5645 C   0  0  0  0  0  0  0  0  0  0  0  0
    3.7943    0.4923   -1.5713 C   0  0  0  0  0  0  0  0  0  0  0  0
    4.5425    0.1726    0.7035 C   0  0  0  0  0  0  0  0  0  0  0  0
   -3.4750    0.3637   -1.2063 C   0  0  0  0  0  0  0  0  0  0  0  0
   -5.3269    1.1200    0.1482 C   0  0  0  0  0  0  0  0  0  0  0  0
   -1.1701   -2.9037   -0.7082 C   0  0  0  0  0  0  0  0  0  0  0  0
    5.1194    0.6104   -1.9906 C   0  0  0  0  0  0  0  0  0  0  0  0
    5.8676    0.2908    0.2842 C   0  0  0  0  0  0  0  0  0  0  0  0
   -4.3505   -0.4030   -1.9754 C   0  0  0  0  0  0  0  0  0  0  0  0
   -6.2025    0.3533   -0.6207 C   0  0  0  0  0  0  0  0  0  0  0  0
    6.1561    0.5096   -1.0629 C   0  0  0  0  0  0  0  0  0  0  0  0
   -5.7141   -0.4082   -1.6825 C   0  0  0  0  0  0  0  0  0  0  0  0
   -1.8201    1.8441    2.4770 H   0  0  0  0  0  0  0  0  0  0  0  0
   -3.2842    0.8889    2.5368 H   0  0  0  0  0  0  0  0  0  0  0  0
   -3.5479    2.8435    1.0342 H   0  0  0  0  0  0  0  0  0  0  0  0
   -2.2167    2.3165    0.0371 H   0  0  0  0  0  0  0  0  0  0  0  0
   -2.2874   -0.8660    1.4765 H   0  0  0  0  0  0  0  0  0  0  0  0
    2.7585   -2.2764   -1.1026 H   0  0  0  0  0  0  0  0  0  0  0  0
    1.8258   -3.2696   -0.0009 H   0  0  0  0  0  0  0  0  0  0  0  0
    3.2142   -2.4021    0.6182 H   0  0  0  0  0  0  0  0  0  0  0  0
    2.9933    0.5694   -2.3011 H   0  0  0  0  0  0  0  0  0  0  0  0
    4.3264    0.0024    1.7545 H   0  0  0  0  0  0  0  0  0  0  0  0
   -2.4161    0.3638   -1.4481 H   0  0  0  0  0  0  0  0  0  0  0  0
   -5.7164    1.7080    0.9743 H   0  0  0  0  0  0  0  0  0  0  0  0
   -1.0207   -2.1519   -1.4883 H   0  0  0  0  0  0  0  0  0  0  0  0
   -2.2420   -2.9994   -0.5170 H   0  0  0  0  0  0  0  0  0  0  0  0
   -0.7628   -3.8550   -1.0605 H   0  0  0  0  0  0  0  0  0  0  0  0
    5.3440    0.7803   -3.0396 H   0  0  0  0  0  0  0  0  0  0  0  0
    6.6748    0.2125    1.0066 H   0  0  0  0  0  0  0  0  0  0  0  0
   -3.9700   -0.9955   -2.8022 H   0  0  0  0  0  0  0  0  0  0  0  0
   -7.2643    0.3486   -0.3924 H   0  0  0  0  0  0  0  0  0  0  0  0
    7.1879    0.6015   -1.3893 H   0  0  0  0  0  0  0  0  0  0  0  0
   -6.3958   -1.0053   -2.2812 H   0  0  0  0  0  0  0  0  0  0  0  0
  1 13  2  0  0  0  0
  2 15  2  0  0  0  0
  3  6  1  0  0  0  0
  3 11  1  0  0  0  0
  3 13  1  0  0  0  0
  4  8  1  0  0  0  0
  4  9  1  0  0  0  0
  4 31  1  0  0  0  0
  5  9  2  0  0  0  0
  5 13  1  0  0  0  0
  6  7  2  0  0  0  0
  6 14  1  0  0  0  0
  7  9  1  0  0  0  0
  7 15  1  0  0  0  0
  8 10  1  0  0  0  0
  8 27  1  0  0  0  0
  8 28  1  0  0  0  0
 10 12  1  0  0  0  0
 10 29  1  0  0  0  0
 10 30  1  0  0  0  0
 11 16  2  0  0  0  0
 11 17  1  0  0  0  0
 12 18  2  0  0  0  0
 12 19  1  0  0  0  0
 14 32  1  0  0  0  0
 14 33  1  0  0  0  0
 14 34  1  0  0  0  0
 15 20  1  0  0  0  0
 16 21  1  0  0  0  0
 16 35  1  0  0  0  0
 17 22  2  0  0  0  0
 17 36  1  0  0  0  0
 18 23  1  0  0  0  0
 18 37  1  0  0  0  0
 19 24  2  0  0  0  0
 19 38  1  0  0  0  0
 20 39  1  0  0  0  0
 20 40  1  0  0  0  0
 20 41  1  0  0  0  0
 21 25  2  0  0  0  0
 21 42  1  0  0  0  0
 22 25  1  0  0  0  0
 22 43  1  0  0  0  0
 23 26  2  0  0  0  0
 23 44  1  0  0  0  0
 24 26  1  0  0  0  0
 24 45  1  0  0  0  0
 25 46  1  0  0  0  0
 26 47  1  0  0  0  0
M  END
> <PUBCHEM_COMPOUND_CID>
1358228

> <PUBCHEM_CONFORMER_RMSD>
0.8

> <PUBCHEM_CONFORMER_DIVERSEORDER>
1
22
14
16
27
11
12
28
29
5
17
26
19
24
15
23
8
25
10
13
4
20
9
21
2
6
18
3
7

> <PUBCHEM_MMFF94_PARTIAL_CHARGES>
37
1 -0.38
10 0.14
11 0.12
12 -0.14
13 0.65
14 0.14
15 0.49
16 -0.15
17 -0.15
18 -0.15
19 -0.15
2 -0.57
20 0.06
21 -0.15
22 -0.15
23 -0.15
24 -0.15
25 -0.15
26 -0.15
3 -0.29
31 0.4
35 0.15
36 0.15
37 0.15
38 0.15
4 -0.82
42 0.15
43 0.15
44 0.15
45 0.15
46 0.15
47 0.15
5 -0.66
6 -0.03
7 0.03
8 0.37
9 0.49

> <PUBCHEM_EFFECTIVE_ROTOR_COUNT>
6

> <PUBCHEM_PHARMACOPHORE_FEATURES>
7
1 1 acceptor
1 2 acceptor
1 4 donor
3 4 5 9 cation
6 11 16 17 21 22 25 rings
6 12 18 19 23 24 26 rings
6 3 5 6 7 9 13 rings

> <PUBCHEM_HEAVY_ATOM_COUNT>
26

> <PUBCHEM_ATOM_DEF_STEREO_COUNT>
0

> <PUBCHEM_ATOM_UDEF_STEREO_COUNT>
0

> <PUBCHEM_BOND_DEF_STEREO_COUNT>
0

> <PUBCHEM_BOND_UDEF_STEREO_COUNT>
0

> <PUBCHEM_ISOTOPIC_ATOM_COUNT>
0

> <PUBCHEM_COMPONENT_COUNT>
1

> <PUBCHEM_CACTVS_TAUTO_COUNT>
19

> <PUBCHEM_CONFORMER_ID>
0014B99400000001

> <PUBCHEM_MMFF94_ENERGY>
104.3891

> <PUBCHEM_FEATURE_SELFOVERLAP>
35.522

> <PUBCHEM_SHAPE_FINGERPRINT>
105312 117 18113626689436567911
10674148 151 16702306724478257635
11089746 13 14273455898676983977
11370993 144 14273730755262007600
11578080 2 17899132991250824468
11796584 16 15123512488680184117
11991303 11 17676492795305143419
12236239 1 17917710167350143217
12760667 363 12535633751709480709
12788726 201 17560803174283651777
13103583 49 9871462149656599437
13140716 1 18125459720112330240
13257819 101 16805317786603478279
13383661 66 15338569352285601150
13402501 40 16153423948207576357
13540713 4 18052261988292931488
13583140 156 16733277823395777160
13911987 19 18186814581470164605
14251764 30 14333116503796874613
14767858 380 18412259541188530663
14931854 50 18271794714901116807
15183329 4 18272086101987100062
15209294 21 13190340179514768416
15537594 2 18201719523216679897
17349148 13 18272367564326919664
173720 79 18187915175725066098
17492 54 18409168800711774819
21033648 29 14996286967522890204
21033650 10 17914363228444319852
21344244 181 17561372780899000599
22182313 1 18055104075411332122
22393880 68 18059848429293226121
23559900 14 18129934719120206656
23569914 2 15723305070977795476
23569917 315 18408888399857989546
23569943 247 17414737379556089342
23576562 1 18116161154075648676
25223398 141 17822862021194093603
2637199 183 18272363179445119111
2838139 119 17385720296677190853
3004659 81 17775559845545568637
33382 64 15123514691971870604
3759504 43 17895202129063284362
465052 167 11743835880869111332
484989 97 18266181828058057979
6009941 240 13758088372369090227

> <PUBCHEM_SHAPE_MULTIPOLES>
518.1
13.73
2.7
1.7
1.14
1.45
-0.41
-4.08
-7.59
0.23
0.91
0.47
0.1
-0.89

> <PUBCHEM_SHAPE_SELFOVERLAP>
1099.23

> <PUBCHEM_SHAPE_VOLUME>
290.5

> <PUBCHEM_COORDINATE_TYPE>
2
5
10

$$$$
