1548765
  -OEChem-01171809423D

 49 53  0     0  0  0  0  0  0999 V2000
    6.2847   -1.5429   -0.3571 O   0  0  0  0  0  0  0  0  0  0  0  0
    4.0824    2.5067    0.2726 O   0  0  0  0  0  0  0  0  0  0  0  0
   -0.1737   -3.6697   -0.0732 O   0  0  0  0  0  0  0  0  0  0  0  0
    4.7911    0.2682   -0.0405 N   0  0  0  0  0  0  0  0  0  0  0  0
   -4.2826    1.2300   -0.4972 N   0  0  0  0  0  0  0  0  0  0  0  0
   -1.3006   -1.6093    0.0350 N   0  0  0  0  0  0  0  0  0  0  0  0
   -2.3826    0.9161    0.6128 N   0  0  0  0  0  0  0  0  0  0  0  0
    7.0923    0.6687    0.0459 C   0  0  0  0  0  0  0  0  0  0  0  0
    6.3748    1.9839   -0.1481 C   0  0  0  0  0  0  0  0  0  0  0  0
    6.0226   -0.3665   -0.1454 C   0  0  0  0  0  0  0  0  0  0  0  0
    4.9266    1.6475    0.0571 C   0  0  0  0  0  0  0  0  0  0  0  0
    3.5330   -0.4171   -0.0335 C   0  0  0  0  0  0  0  0  0  0  0  0
   -3.6807   -1.0914    0.0405 C   0  0  0  0  0  0  0  0  0  0  0  0
    3.4461   -1.7113    0.4795 C   0  0  0  0  0  0  0  0  0  0  0  0
    2.3950    0.2101   -0.5402 C   0  0  0  0  0  0  0  0  0  0  0  0
   -3.4244    0.3284    0.0682 C   0  0  0  0  0  0  0  0  0  0  0  0
    1.1117   -1.7352   -0.0208 C   0  0  0  0  0  0  0  0  0  0  0  0
   -2.6377   -2.0197    0.0240 C   0  0  0  0  0  0  0  0  0  0  0  0
   -3.7597    2.4830   -0.3049 C   0  0  0  0  0  0  0  0  0  0  0  0
    2.2209   -2.3783    0.4859 C   0  0  0  0  0  0  0  0  0  0  0  0
    1.1698   -0.4566   -0.5337 C   0  0  0  0  0  0  0  0  0  0  0  0
   -2.5741    2.2604    0.3901 C   0  0  0  0  0  0  0  0  0  0  0  0
   -0.1948   -2.4453   -0.0134 C   0  0  0  0  0  0  0  0  0  0  0  0
   -5.0046   -1.5354    0.0293 C   0  0  0  0  0  0  0  0  0  0  0  0
   -2.9174   -3.3860   -0.0035 C   0  0  0  0  0  0  0  0  0  0  0  0
   -4.2083    3.7534   -0.6681 C   0  0  0  0  0  0  0  0  0  0  0  0
   -1.7761    3.3586    0.7526 C   0  0  0  0  0  0  0  0  0  0  0  0
   -5.2842   -2.9016    0.0017 C   0  0  0  0  0  0  0  0  0  0  0  0
   -4.2408   -3.8270   -0.0146 C   0  0  0  0  0  0  0  0  0  0  0  0
   -3.4016    4.8350   -0.2995 C   0  0  0  0  0  0  0  0  0  0  0  0
   -2.2068    4.6433    0.3982 C   0  0  0  0  0  0  0  0  0  0  0  0
    7.4932    0.5761    1.0605 H   0  0  0  0  0  0  0  0  0  0  0  0
    7.8996    0.5369   -0.6792 H   0  0  0  0  0  0  0  0  0  0  0  0
    6.5058    2.3663   -1.1655 H   0  0  0  0  0  0  0  0  0  0  0  0
    6.7080    2.7370    0.5708 H   0  0  0  0  0  0  0  0  0  0  0  0
    4.3028   -2.2183    0.9126 H   0  0  0  0  0  0  0  0  0  0  0  0
    2.4333    1.1997   -0.9852 H   0  0  0  0  0  0  0  0  0  0  0  0
    2.1674   -3.3803    0.9011 H   0  0  0  0  0  0  0  0  0  0  0  0
    0.3246    0.0515   -0.9859 H   0  0  0  0  0  0  0  0  0  0  0  0
   -5.1428    1.0248   -0.9881 H   0  0  0  0  0  0  0  0  0  0  0  0
   -1.1557   -0.6098    0.1229 H   0  0  0  0  0  0  0  0  0  0  0  0
   -5.8447   -0.8459    0.0575 H   0  0  0  0  0  0  0  0  0  0  0  0
   -2.1899   -4.1819   -0.0081 H   0  0  0  0  0  0  0  0  0  0  0  0
   -5.1361    3.8995   -1.2095 H   0  0  0  0  0  0  0  0  0  0  0  0
   -0.8458    3.2199    1.2940 H   0  0  0  0  0  0  0  0  0  0  0  0
   -6.3145   -3.2456   -0.0028 H   0  0  0  0  0  0  0  0  0  0  0  0
   -4.4607   -4.8906   -0.0330 H   0  0  0  0  0  0  0  0  0  0  0  0
   -3.7112    5.8438   -0.5614 H   0  0  0  0  0  0  0  0  0  0  0  0
   -1.6010    5.5037    0.6708 H   0  0  0  0  0  0  0  0  0  0  0  0
  1 10  2  0  0  0  0
  2 11  2  0  0  0  0
  3 23  2  0  0  0  0
  4 10  1  0  0  0  0
  4 11  1  0  0  0  0
  4 12  1  0  0  0  0
  5 16  1  0  0  0  0
  5 19  1  0  0  0  0
  5 40  1  0  0  0  0
  6 18  1  0  0  0  0
  6 23  1  0  0  0  0
  6 41  1  0  0  0  0
  7 16  2  0  0  0  0
  7 22  1  0  0  0  0
  8  9  1  0  0  0  0
  8 10  1  0  0  0  0
  8 32  1  0  0  0  0
  8 33  1  0  0  0  0
  9 11  1  0  0  0  0
  9 34  1  0  0  0  0
  9 35  1  0  0  0  0
 12 14  2  0  0  0  0
 12 15  1  0  0  0  0
 13 16  1  0  0  0  0
 13 18  1  0  0  0  0
 13 24  2  0  0  0  0
 14 20  1  0  0  0  0
 14 36  1  0  0  0  0
 15 21  2  0  0  0  0
 15 37  1  0  0  0  0
 17 20  2  0  0  0  0
 17 21  1  0  0  0  0
 17 23  1  0  0  0  0
 18 25  2  0  0  0  0
 19 22  1  0  0  0  0
 19 26  2  0  0  0  0
 20 38  1  0  0  0  0
 21 39  1  0  0  0  0
 22 27  2  0  0  0  0
 24 28  1  0  0  0  0
 24 42  1  0  0  0  0
 25 29  1  0  0  0  0
 25 43  1  0  0  0  0
 26 30  1  0  0  0  0
 26 44  1  0  0  0  0
 27 31  1  0  0  0  0
 27 45  1  0  0  0  0
 28 29  2  0  0  0  0
 28 46  1  0  0  0  0
 29 47  1  0  0  0  0
 30 31  2  0  0  0  0
 30 48  1  0  0  0  0
 31 49  1  0  0  0  0
M  END
> <PUBCHEM_COMPOUND_CID>
1548765

> <PUBCHEM_CONFORMER_RMSD>
0.8

> <PUBCHEM_CONFORMER_DIVERSEORDER>
2
6
7
5
10
4
1
8
9
3
11

> <PUBCHEM_MMFF94_PARTIAL_CHARGES>
45
1 -0.57
10 0.57
11 0.57
12 0.12
13 0.05
14 -0.15
15 -0.15
16 0.13
17 0.09
18 0.12
19 -0.15
2 -0.57
20 -0.15
21 -0.15
22 0.23
23 0.54
24 -0.15
25 -0.15
26 -0.15
27 -0.15
28 -0.15
29 -0.15
3 -0.57
30 -0.15
31 -0.15
36 0.15
37 0.15
38 0.15
39 0.15
4 -0.24
40 0.27
41 0.37
42 0.15
43 0.15
44 0.15
45 0.15
46 0.15
47 0.15
48 0.15
49 0.15
5 0.03
6 -0.55
7 -0.57
8 0.06
9 0.06

> <PUBCHEM_EFFECTIVE_ROTOR_COUNT>
5.6

> <PUBCHEM_PHARMACOPHORE_FEATURES>
11
1 1 acceptor
1 2 acceptor
1 3 acceptor
1 5 donor
1 6 donor
3 5 7 16 cation
5 4 8 9 10 11 rings
5 5 7 16 19 22 rings
6 12 14 15 17 20 21 rings
6 13 18 24 25 28 29 rings
6 19 22 26 27 30 31 rings

> <PUBCHEM_HEAVY_ATOM_COUNT>
31

> <PUBCHEM_ATOM_DEF_STEREO_COUNT>
0

> <PUBCHEM_ATOM_UDEF_STEREO_COUNT>
0

> <PUBCHEM_BOND_DEF_STEREO_COUNT>
0

> <PUBCHEM_BOND_UDEF_STEREO_COUNT>
0

> <PUBCHEM_ISOTOPIC_ATOM_COUNT>
0

> <PUBCHEM_COMPONENT_COUNT>
1

> <PUBCHEM_CACTVS_TAUTO_COUNT>
12

> <PUBCHEM_CONFORMER_ID>
0017A1DD00000002

> <PUBCHEM_MMFF94_ENERGY>
96.7401

> <PUBCHEM_FEATURE_SELFOVERLAP>
55.93

> <PUBCHEM_SHAPE_FINGERPRINT>
10050765 1 18338234856751867906
100830 39 18410855469435690060
10411042 1 18122344842431605871
10439779 11 18266168436487010256
10670039 82 18411134766731957048
10937287 8 17978229353622980657
10951579 204 18338536174983674988
11059845 2 17904453261554918282
11135609 187 18047743811985317549
12107183 9 17901938643907997962
12166972 35 17823415087878699182
12788726 201 18333724737189842187
13560911 43 18335416936855168960
13561361 72 18196922482364980880
138480 1 15960897993816567067
13974486 27 18126012809033011660
14251764 75 17909837531136534105
14394314 77 18410860984495321889
14415360 78 17757825628884958621
14790565 3 18409169901020331950
14932702 115 18201717315092534664
15289351 153 18339068368865816400
15320467 1 18266458698592891808
15328684 2 17896019028539910608
15400415 2 17978228253732733540
15419008 145 18335404791589937200
15419008 42 17915463783981167334
15419008 47 17987518276508810288
155225 5 18411138009179785400
15961568 22 18340773765821425118
16087824 20 18410575073313311847
16992787 43 18339355268265428733
16993438 75 18335990787535918153
17844677 252 18410580600087318022
18336668 15 18041841856435158303
19309040 13 17272858602336191949
19611394 137 17755310307353850219
20587220 46 14896295379196961727
20771845 165 18200892754671204254
21033650 10 18190488028771281662
21236236 1 18411701006187494734
21279426 13 18270687455279140366
21315763 129 18411419527569951014
21315764 268 18270116945829771952
21796203 349 17757589556471224971
21927370 108 18193010424779145995
22956985 138 16962398699737372219
23516275 100 17908133635937812512
283562 15 18334855031001345299
392239 28 18339370763346382881
4144715 1 18335991891728225730
4197921 191 18188211013531018828
469060 322 18267603440874132075
550186 7 18272941530702780534
550186 72 18410012182176539213
5951187 136 17121705319934857357
6036956 94 18261960738473956885
6523845 18 17477522749192030565
653340 110 18410569591553264944
6608658 132 18270951466418088167
6700243 42 17769973299467587631
7288768 16 17968664796182591851
7808743 9 18338514140640402697
9980921 221 18267047023924690212
9981440 41 18262525797097369915

> <PUBCHEM_SHAPE_MULTIPOLES>
600.43
15.53
6.38
0.71
24.54
4.71
0.01
2.19
-0.91
-10.68
0.15
-0.09
0.17
0.21

> <PUBCHEM_SHAPE_SELFOVERLAP>
1352.815

> <PUBCHEM_SHAPE_VOLUME>
315.7

> <PUBCHEM_COORDINATE_TYPE>
2
5
10

$$$$
