843346
  -OEChem-01171809333D

 26 27  0     0  0  0  0  0  0999 V2000
    2.5445    3.0927    1.1005 Cl  0  0  0  0  0  0  0  0  0  0  0  0
    2.6053    2.5959   -1.7828 Cl  0  0  0  0  0  0  0  0  0  0  0  0
    2.2172   -3.1178    0.6742 S   0  0  0  0  0  0  0  0  0  0  0  0
    0.5495    0.9559   -0.0584 N   0  0  0  0  0  0  0  0  0  0  0  0
    0.2138   -1.3872    0.3357 N   0  0  0  0  0  0  0  0  0  0  0  0
    2.4388   -0.4950    0.2306 N   0  0  0  0  0  0  0  0  0  0  0  0
   -1.6403    0.0580    0.0469 C   0  0  0  0  0  0  0  0  0  0  0  0
   -0.2079   -0.1356    0.1122 C   0  0  0  0  0  0  0  0  0  0  0  0
   -2.1982    1.2750    0.4383 C   0  0  0  0  0  0  0  0  0  0  0  0
   -2.4633   -0.9723   -0.4076 C   0  0  0  0  0  0  0  0  0  0  0  0
    1.8657    0.6998    0.0135 C   0  0  0  0  0  0  0  0  0  0  0  0
   -3.5792    1.4618    0.3752 C   0  0  0  0  0  0  0  0  0  0  0  0
   -3.8442   -0.7857   -0.4708 C   0  0  0  0  0  0  0  0  0  0  0  0
    1.5517   -1.4916    0.3822 C   0  0  0  0  0  0  0  0  0  0  0  0
   -4.4020    0.4314   -0.0793 C   0  0  0  0  0  0  0  0  0  0  0  0
    2.7848    1.8597   -0.1670 C   0  0  0  0  0  0  0  0  0  0  0  0
    1.5640   -4.0450   -0.7432 C   0  0  0  0  0  0  0  0  0  0  0  0
   -1.5847    2.0939    0.8061 H   0  0  0  0  0  0  0  0  0  0  0  0
   -2.0583   -1.9290   -0.7291 H   0  0  0  0  0  0  0  0  0  0  0  0
   -4.0142    2.4085    0.6819 H   0  0  0  0  0  0  0  0  0  0  0  0
   -4.4852   -1.5870   -0.8268 H   0  0  0  0  0  0  0  0  0  0  0  0
   -5.4773    0.5767   -0.1285 H   0  0  0  0  0  0  0  0  0  0  0  0
    3.8267    1.5349   -0.0890 H   0  0  0  0  0  0  0  0  0  0  0  0
    1.9413   -5.0701   -0.7083 H   0  0  0  0  0  0  0  0  0  0  0  0
    1.8875   -3.5823   -1.6794 H   0  0  0  0  0  0  0  0  0  0  0  0
    0.4715   -4.0722   -0.7107 H   0  0  0  0  0  0  0  0  0  0  0  0
  1 16  1  0  0  0  0
  2 16  1  0  0  0  0
  3 14  1  0  0  0  0
  3 17  1  0  0  0  0
  4  8  2  0  0  0  0
  4 11  1  0  0  0  0
  5  8  1  0  0  0  0
  5 14  2  0  0  0  0
  6 11  2  0  0  0  0
  6 14  1  0  0  0  0
  7  8  1  0  0  0  0
  7  9  2  0  0  0  0
  7 10  1  0  0  0  0
  9 12  1  0  0  0  0
  9 18  1  0  0  0  0
 10 13  2  0  0  0  0
 10 19  1  0  0  0  0
 11 16  1  0  0  0  0
 12 15  2  0  0  0  0
 12 20  1  0  0  0  0
 13 15  1  0  0  0  0
 13 21  1  0  0  0  0
 15 22  1  0  0  0  0
 16 23  1  0  0  0  0
 17 24  1  0  0  0  0
 17 25  1  0  0  0  0
 17 26  1  0  0  0  0
M  END
> <PUBCHEM_COMPOUND_CID>
843346

> <PUBCHEM_CONFORMER_RMSD>
0.6

> <PUBCHEM_CONFORMER_DIVERSEORDER>
1
21
11
6
25
12
26
2
17
27
5
3
15
9
8
22
24
18
19
10
23
7
16
13
20
4
14

> <PUBCHEM_MMFF94_PARTIAL_CHARGES>
21
1 -0.29
10 -0.15
11 0.48
12 -0.15
13 -0.15
14 0.72
15 -0.15
16 0.72
17 0.23
18 0.15
19 0.15
2 -0.29
20 0.15
21 0.15
22 0.15
3 -0.33
4 -0.62
5 -0.62
6 -0.62
8 0.62
9 -0.15

> <PUBCHEM_EFFECTIVE_ROTOR_COUNT>
3

> <PUBCHEM_PHARMACOPHORE_FEATURES>
6
1 17 hydrophobe
3 4 5 8 cation
3 4 6 11 cation
3 5 6 14 cation
6 4 5 6 8 11 14 rings
6 7 9 10 12 13 15 rings

> <PUBCHEM_HEAVY_ATOM_COUNT>
17

> <PUBCHEM_ATOM_DEF_STEREO_COUNT>
0

> <PUBCHEM_ATOM_UDEF_STEREO_COUNT>
0

> <PUBCHEM_BOND_DEF_STEREO_COUNT>
0

> <PUBCHEM_BOND_UDEF_STEREO_COUNT>
0

> <PUBCHEM_ISOTOPIC_ATOM_COUNT>
0

> <PUBCHEM_COMPONENT_COUNT>
1

> <PUBCHEM_CACTVS_TAUTO_COUNT>
1

> <PUBCHEM_CONFORMER_ID>
000CDE5200000001

> <PUBCHEM_MMFF94_ENERGY>
38.2382

> <PUBCHEM_FEATURE_SELFOVERLAP>
33.23

> <PUBCHEM_SHAPE_FINGERPRINT>
10616163 171 18341328976740177207
116883 192 17477485305197951038
12173636 292 18195525024433657173
12553582 1 17832140524473873043
13140716 1 18336258058981843218
14250199 8 18335702698362136547
15442244 35 18124313805298990153
16945 1 18338230466550739442
17492 89 18340484470458926039
1813 80 17976266733419745726
18186145 218 18334575763120437933
20510252 161 17764594608743071769
20559304 39 18340484469724826232
20600515 1 17552918425686734560
20645477 70 18335975386020713863
20671657 1 18413108346584403706
20871998 22 17907856206719307642
21501502 16 18341328916683643465
21524375 3 18189611829572405552
221490 88 18335991891284789363
2255824 54 18408045100129089070
22849341 161 17695371190793953187
22854114 111 18410854382302770025
23366157 5 18186522072680200842
23463225 33 18269551642123541527
23558518 356 17829602117888161274
23559900 14 18341039723466410579
2748010 2 18118699943788401802
3060560 45 18335142016325501886
3091708 16 9402389551139416930
312423 11 18271253725046829539
314173 41 18120942698306542323
352729 6 18192434293021855962
394222 165 17969214710952890448
4175511 71 17978518528906347459
458136 41 18263663877235966913
474 4 18114183094028849477
5104073 3 18408886231362520905
57096353 35 18269832180960769581
6138700 20 18337963290654683950
6992083 37 17623580739416248139
7097593 13 18268710498437472179
7364860 26 18412260601908471522
81228 2 17255409223922290834
84936 182 18343300400671749712
9709674 26 18409168779844321059
9981440 41 18194109939872973913

> <PUBCHEM_SHAPE_MULTIPOLES>
342.5
6.73
4.2
1.03
7.31
2.9
-0.27
-2.47
-0.37
-5.67
-0.27
-0.76
-0.53
-0.69

> <PUBCHEM_SHAPE_SELFOVERLAP>
693.722

> <PUBCHEM_SHAPE_VOLUME>
201.6

> <PUBCHEM_COORDINATE_TYPE>
2
5
10

$$$$
