6510725
  -OEChem-01171809343D

 36 37  0     0  0  0  0  0  0999 V2000
   -1.2086    1.8694    2.3247 Cl  0  0  0  0  0  0  0  0  0  0  0  0
   -5.6165    0.2135   -0.2694 Cl  0  0  0  0  0  0  0  0  0  0  0  0
    0.6397   -1.1462    1.4466 O   0  0  0  0  0  0  0  0  0  0  0  0
    2.6238    0.8434   -0.1754 N   0  0  0  0  0  0  0  0  0  0  0  0
    3.1052    2.0318   -0.4919 N   0  0  0  0  0  0  0  0  0  0  0  0
    4.7436    0.5003   -0.0413 N   0  0  0  0  0  0  0  0  0  0  0  0
    0.2086   -3.2497   -0.4175 C   0  0  0  0  0  0  0  0  0  0  0  0
    0.5987   -1.8379   -0.8827 C   0  0  0  0  0  0  0  0  0  0  0  0
    1.2386   -3.8285    0.5548 C   0  0  0  0  0  0  0  0  0  0  0  0
   -1.1682   -3.2180    0.2494 C   0  0  0  0  0  0  0  0  0  0  0  0
    0.7832   -0.8508    0.2626 C   0  0  0  0  0  0  0  0  0  0  0  0
    1.2373    0.5330   -0.1165 C   0  0  0  0  0  0  0  0  0  0  0  0
    0.2319    1.3989   -0.3724 C   0  0  0  0  0  0  0  0  0  0  0  0
   -1.2104    1.1172   -0.3055 C   0  0  0  0  0  0  0  0  0  0  0  0
   -1.9370    1.3010    0.8630 C   0  0  0  0  0  0  0  0  0  0  0  0
   -1.8250    0.6582   -1.4634 C   0  0  0  0  0  0  0  0  0  0  0  0
    3.5684   -0.0694    0.0923 C   0  0  0  0  0  0  0  0  0  0  0  0
   -3.3034    1.0206    0.8746 C   0  0  0  0  0  0  0  0  0  0  0  0
   -3.1912    0.3780   -1.4517 C   0  0  0  0  0  0  0  0  0  0  0  0
   -3.9305    0.5591   -0.2828 C   0  0  0  0  0  0  0  0  0  0  0  0
    4.4118    1.7762   -0.3974 C   0  0  0  0  0  0  0  0  0  0  0  0
    0.1576   -3.8956   -1.3027 H   0  0  0  0  0  0  0  0  0  0  0  0
   -0.1570   -1.4654   -1.5770 H   0  0  0  0  0  0  0  0  0  0  0  0
    1.5472   -1.8972   -1.4300 H   0  0  0  0  0  0  0  0  0  0  0  0
    1.0676   -4.9054    0.6690 H   0  0  0  0  0  0  0  0  0  0  0  0
    2.2561   -3.7009    0.1706 H   0  0  0  0  0  0  0  0  0  0  0  0
    1.1910   -3.4030    1.5598 H   0  0  0  0  0  0  0  0  0  0  0  0
   -1.5042   -4.2402    0.4583 H   0  0  0  0  0  0  0  0  0  0  0  0
   -1.1849   -2.6775    1.1990 H   0  0  0  0  0  0  0  0  0  0  0  0
   -1.9108   -2.7611   -0.4136 H   0  0  0  0  0  0  0  0  0  0  0  0
    0.4594    2.4252   -0.6540 H   0  0  0  0  0  0  0  0  0  0  0  0
   -1.2669    0.5226   -2.3864 H   0  0  0  0  0  0  0  0  0  0  0  0
    3.4062   -1.1013    0.3736 H   0  0  0  0  0  0  0  0  0  0  0  0
   -3.8823    1.1608    1.7851 H   0  0  0  0  0  0  0  0  0  0  0  0
   -3.6670    0.0211   -2.3615 H   0  0  0  0  0  0  0  0  0  0  0  0
    5.1453    2.5438   -0.5940 H   0  0  0  0  0  0  0  0  0  0  0  0
  1 15  1  0  0  0  0
  2 20  1  0  0  0  0
  3 11  2  0  0  0  0
  4  5  1  0  0  0  0
  4 12  1  0  0  0  0
  4 17  1  0  0  0  0
  5 21  2  0  0  0  0
  6 17  2  0  0  0  0
  6 21  1  0  0  0  0
  7  8  1  0  0  0  0
  7  9  1  0  0  0  0
  7 10  1  0  0  0  0
  7 22  1  0  0  0  0
  8 11  1  0  0  0  0
  8 23  1  0  0  0  0
  8 24  1  0  0  0  0
  9 25  1  0  0  0  0
  9 26  1  0  0  0  0
  9 27  1  0  0  0  0
 10 28  1  0  0  0  0
 10 29  1  0  0  0  0
 10 30  1  0  0  0  0
 11 12  1  0  0  0  0
 12 13  2  0  0  0  0
 13 14  1  0  0  0  0
 13 31  1  0  0  0  0
 14 15  2  0  0  0  0
 14 16  1  0  0  0  0
 15 18  1  0  0  0  0
 16 19  2  0  0  0  0
 16 32  1  0  0  0  0
 17 33  1  0  0  0  0
 18 20  2  0  0  0  0
 18 34  1  0  0  0  0
 19 20  1  0  0  0  0
 19 35  1  0  0  0  0
 21 36  1  0  0  0  0
M  END
> <PUBCHEM_COMPOUND_CID>
6510725

> <PUBCHEM_CONFORMER_RMSD>
0.8

> <PUBCHEM_CONFORMER_DIVERSEORDER>
1
16
20
13
4
15
11
12
19
9
7
5
18
14
17
6
10
2
3
8

> <PUBCHEM_MMFF94_PARTIAL_CHARGES>
24
1 -0.18
11 0.49
12 -0.02
13 -0.18
14 0.03
15 0.18
16 -0.15
17 0.04
18 -0.15
19 -0.15
2 -0.18
20 0.18
21 0.37
3 -0.57
31 0.15
32 0.15
33 0.15
34 0.15
35 0.15
36 0.15
4 0.6
5 -0.71
6 -0.57
8 0.06

> <PUBCHEM_EFFECTIVE_ROTOR_COUNT>
5

> <PUBCHEM_PHARMACOPHORE_FEATURES>
6
1 3 acceptor
3 4 6 17 cation
3 5 6 21 cation
3 7 9 10 hydrophobe
5 4 5 6 17 21 rings
6 14 15 16 18 19 20 rings

> <PUBCHEM_HEAVY_ATOM_COUNT>
21

> <PUBCHEM_ATOM_DEF_STEREO_COUNT>
0

> <PUBCHEM_ATOM_UDEF_STEREO_COUNT>
0

> <PUBCHEM_BOND_DEF_STEREO_COUNT>
1

> <PUBCHEM_BOND_UDEF_STEREO_COUNT>
0

> <PUBCHEM_ISOTOPIC_ATOM_COUNT>
0

> <PUBCHEM_COMPONENT_COUNT>
1

> <PUBCHEM_CACTVS_TAUTO_COUNT>
2

> <PUBCHEM_CONFORMER_ID>
0063588500000001

> <PUBCHEM_MMFF94_ENERGY>
54.4039

> <PUBCHEM_FEATURE_SELFOVERLAP>
33.239

> <PUBCHEM_SHAPE_FINGERPRINT>
10090160 65 18410572881761776021
10906281 52 17168444670289332069
11421498 54 18060143102967779169
11578080 2 16809544137412144430
12236239 1 18131070428811558597
12592029 89 18261950760915930162
12788726 201 17904758131118808154
13009979 54 17556573245092411098
13052359 8 18264771137090519242
13083527 12 18045486522174013250
13583140 156 17385726932575742760
13911987 19 18261401082274908228
14787075 74 18202281450741102973
15209289 33 18202844378739776241
15309172 13 18408045108655817596
16752209 62 18193546998878985194
17138139 8 17841401990588353407
18915476 22 18117263775591549437
20344682 1 17821725044334395245
204376 136 18335423490790593772
20510252 161 18124316266368251490
20645477 70 18116420454620915007
20775438 99 15970425935548806510
21033650 10 17201111186884519552
21054139 6 18341884243144234303
21421861 104 17983589511452460793
21521721 280 18269279130912480593
21524375 3 18343582936747488070
22224240 67 18411979204568102761
23402539 116 18060415828848460452
23419403 2 16913126189964982699
23557571 272 17910969255403619164
23559900 14 17977090267913260309
23566358 27 17983310235145791807
266924 1 17986956245868592609
33824 294 18336266747737670871
352729 6 18341059613486156494
4340502 62 18410302406591747797
458136 41 18410296873925050671
474 4 18411987927246033648
474229 33 18408886273784724247
59755656 520 18409447024851897470
633830 44 18200887192345196428
6669772 16 18410015421235995470
69090 78 18335700576680031836
81228 2 17684363241364850456
8272917 22 18267304232009045701

> <PUBCHEM_SHAPE_MULTIPOLES>
415.1
7.95
3.51
1.36
1.32
4.82
0.47
-4.49
-1.43
-1.94
0.67
0.87
-0.5
-0.79

> <PUBCHEM_SHAPE_SELFOVERLAP>
860.478

> <PUBCHEM_SHAPE_VOLUME>
240.2

> <PUBCHEM_COORDINATE_TYPE>
2
5
10

$$$$
