888424
  -OEChem-01171809433D

 40 41  0     0  0  0  0  0  0999 V2000
   -0.8631   -1.6106    2.3294 O   0  0  0  0  0  0  0  0  0  0  0  0
    2.9471    1.6727    0.9551 O   0  0  0  0  0  0  0  0  0  0  0  0
    3.5476   -0.0344   -0.5497 N   0  0  0  0  0  0  0  0  0  0  0  0
   -2.0110   -0.3771    0.7071 C   0  0  0  0  0  0  0  0  0  0  0  0
   -3.1087    0.8797   -1.0400 C   0  0  0  0  0  0  0  0  0  0  0  0
   -4.1775    1.1388   -0.1821 C   0  0  0  0  0  0  0  0  0  0  0  0
    0.2916   -1.4765    0.2997 C   0  0  0  0  0  0  0  0  0  0  0  0
   -2.0254    0.1217   -0.5954 C   0  0  0  0  0  0  0  0  0  0  0  0
   -0.8812   -1.1662    1.1719 C   0  0  0  0  0  0  0  0  0  0  0  0
   -3.0799   -0.1180    1.5651 C   0  0  0  0  0  0  0  0  0  0  0  0
   -4.1632    0.6399    1.1205 C   0  0  0  0  0  0  0  0  0  0  0  0
    2.4515   -0.8971   -0.5193 C   0  0  0  0  0  0  0  0  0  0  0  0
    1.3565   -0.6063    0.2945 C   0  0  0  0  0  0  0  0  0  0  0  0
    0.2588   -2.6210   -0.4624 C   0  0  0  0  0  0  0  0  0  0  0  0
   -3.1026    1.4028   -2.4387 C   0  0  0  0  0  0  0  0  0  0  0  0
   -5.3483    1.9474   -0.6354 C   0  0  0  0  0  0  0  0  0  0  0  0
    2.4500   -2.0499   -1.3047 C   0  0  0  0  0  0  0  0  0  0  0  0
    1.3536   -2.9118   -1.2761 C   0  0  0  0  0  0  0  0  0  0  0  0
    3.7315    1.1616    0.1628 C   0  0  0  0  0  0  0  0  0  0  0  0
    5.0757    1.7949   -0.1641 C   0  0  0  0  0  0  0  0  0  0  0  0
    5.2971    3.1097    0.5619 C   0  0  0  0  0  0  0  0  0  0  0  0
   -1.2056   -0.0655   -1.2828 H   0  0  0  0  0  0  0  0  0  0  0  0
   -3.0931   -0.4948    2.5844 H   0  0  0  0  0  0  0  0  0  0  0  0
   -4.9877    0.8324    1.8018 H   0  0  0  0  0  0  0  0  0  0  0  0
    1.2894    0.2664    0.9279 H   0  0  0  0  0  0  0  0  0  0  0  0
   -0.5924   -3.2946   -0.4428 H   0  0  0  0  0  0  0  0  0  0  0  0
   -3.1429    2.4969   -2.4413 H   0  0  0  0  0  0  0  0  0  0  0  0
   -2.1944    1.1127   -2.9787 H   0  0  0  0  0  0  0  0  0  0  0  0
   -3.9531    1.0057   -3.0024 H   0  0  0  0  0  0  0  0  0  0  0  0
   -5.0329    2.9557   -0.9223 H   0  0  0  0  0  0  0  0  0  0  0  0
   -5.8446    1.4655   -1.4840 H   0  0  0  0  0  0  0  0  0  0  0  0
   -6.0973    2.0567    0.1569 H   0  0  0  0  0  0  0  0  0  0  0  0
    3.2960   -2.2890   -1.9440 H   0  0  0  0  0  0  0  0  0  0  0  0
    1.3523   -3.8094   -1.8877 H   0  0  0  0  0  0  0  0  0  0  0  0
    4.3044   -0.3172   -1.1690 H   0  0  0  0  0  0  0  0  0  0  0  0
    5.8665    1.0869    0.1084 H   0  0  0  0  0  0  0  0  0  0  0  0
    5.1271    1.9613   -1.2461 H   0  0  0  0  0  0  0  0  0  0  0  0
    4.5248    3.8396    0.2975 H   0  0  0  0  0  0  0  0  0  0  0  0
    6.2715    3.5317    0.2977 H   0  0  0  0  0  0  0  0  0  0  0  0
    5.2683    2.9691    1.6475 H   0  0  0  0  0  0  0  0  0  0  0  0
  1  9  2  0  0  0  0
  2 19  2  0  0  0  0
  3 12  1  0  0  0  0
  3 19  1  0  0  0  0
  3 35  1  0  0  0  0
  4  8  2  0  0  0  0
  4  9  1  0  0  0  0
  4 10  1  0  0  0  0
  5  6  2  0  0  0  0
  5  8  1  0  0  0  0
  5 15  1  0  0  0  0
  6 11  1  0  0  0  0
  6 16  1  0  0  0  0
  7  9  1  0  0  0  0
  7 13  2  0  0  0  0
  7 14  1  0  0  0  0
  8 22  1  0  0  0  0
 10 11  2  0  0  0  0
 10 23  1  0  0  0  0
 11 24  1  0  0  0  0
 12 13  1  0  0  0  0
 12 17  2  0  0  0  0
 13 25  1  0  0  0  0
 14 18  2  0  0  0  0
 14 26  1  0  0  0  0
 15 27  1  0  0  0  0
 15 28  1  0  0  0  0
 15 29  1  0  0  0  0
 16 30  1  0  0  0  0
 16 31  1  0  0  0  0
 16 32  1  0  0  0  0
 17 18  1  0  0  0  0
 17 33  1  0  0  0  0
 18 34  1  0  0  0  0
 19 20  1  0  0  0  0
 20 21  1  0  0  0  0
 20 36  1  0  0  0  0
 20 37  1  0  0  0  0
 21 38  1  0  0  0  0
 21 39  1  0  0  0  0
 21 40  1  0  0  0  0
M  END
> <PUBCHEM_COMPOUND_CID>
888424

> <PUBCHEM_CONFORMER_RMSD>
0.8

> <PUBCHEM_CONFORMER_DIVERSEORDER>
3
47
15
33
12
31
44
7
21
13
51
41
18
49
50
11
8
36
28
48
19
4
38
20
27
34
30
42
10
23
6
9
37
40
22
39
32
29
26
25
45
16
46
5
17
24
35
1
43
14
2

> <PUBCHEM_MMFF94_PARTIAL_CHARGES>
28
1 -0.57
10 -0.15
11 -0.15
12 0.12
13 -0.15
14 -0.15
15 0.14
16 0.14
17 -0.15
18 -0.15
19 0.57
2 -0.57
20 0.06
22 0.15
23 0.15
24 0.15
25 0.15
26 0.15
3 -0.55
33 0.15
34 0.15
35 0.37
4 0.09
5 -0.14
6 -0.14
7 0.09
8 -0.15
9 0.4

> <PUBCHEM_EFFECTIVE_ROTOR_COUNT>
5

> <PUBCHEM_PHARMACOPHORE_FEATURES>
6
1 1 acceptor
1 2 acceptor
1 21 hydrophobe
1 3 donor
6 4 5 6 8 10 11 rings
6 7 12 13 14 17 18 rings

> <PUBCHEM_HEAVY_ATOM_COUNT>
21

> <PUBCHEM_ATOM_DEF_STEREO_COUNT>
0

> <PUBCHEM_ATOM_UDEF_STEREO_COUNT>
0

> <PUBCHEM_BOND_DEF_STEREO_COUNT>
0

> <PUBCHEM_BOND_UDEF_STEREO_COUNT>
0

> <PUBCHEM_ISOTOPIC_ATOM_COUNT>
0

> <PUBCHEM_COMPONENT_COUNT>
1

> <PUBCHEM_CACTVS_TAUTO_COUNT>
2

> <PUBCHEM_CONFORMER_ID>
000D8E6800000003

> <PUBCHEM_MMFF94_ENERGY>
66.8188

> <PUBCHEM_FEATURE_SELFOVERLAP>
30.446

> <PUBCHEM_SHAPE_FINGERPRINT>
10319926 262 17385444306552707906
105312 117 18198626717161608316
11112241 14 18411132550508500037
11725454 13 18333446556057200418
12403259 415 18335152985144584698
12633257 1 16805607009611409956
12730499 353 18340215111215192139
12769317 202 18272931613792189512
12892183 10 16732696164643623912
13103583 49 12180119822316106453
13134695 92 17906169555987944046
13402501 40 18260828198077980964
13947920 24 18121756560586786071
14251740 79 12175086353048546012
14251764 30 13685731826821288621
14251764 38 18264482889071955528
14848178 96 18273497896803808248
14957384 54 18192422186004953256
15061688 2 18409729582018116962
15342816 4 14332546870473777367
1768 210 17558538360556406152
1813 80 16912576060753236542
18186145 218 17971207945097760139
193927 3 9222962469411940792
21033648 29 17894919511598651804
21401589 2 18261388996220768289
21591340 35 16019964968940716572
21639500 275 18201442437079750530
23557571 272 17750821911973165883
23559900 14 17459766821171363391
23598291 2 16915673475139008339
27216 239 18190745434502721914
2838139 119 18411129264789582788
329604 57 9871478629931443136
341906 21 16805612425760114973
34797466 226 18271807853454144165
474 4 18272932708850262890
574716 61 17489586744742114813
6327066 14 18339637962195167196
633830 44 17774459208330094262
7399639 24 18335715956989996339
7471813 234 17415562013165566274
7808743 9 17314534649772380286
9862522 239 18190458453589161868

> <PUBCHEM_SHAPE_MULTIPOLES>
415.45
10.55
3.12
1.72
2.31
0.24
0.07
-11.82
0.74
3.81
0.55
-1.59
0.22
2.22

> <PUBCHEM_SHAPE_SELFOVERLAP>
885.554

> <PUBCHEM_SHAPE_VOLUME>
231.5

> <PUBCHEM_COORDINATE_TYPE>
2
5
10

$$$$
