9583470
  -OEChem-01171809553D

 48 49  0     0  0  0  0  0  0999 V2000
    7.7948   -2.0749   -0.0071 Cl  0  0  0  0  0  0  0  0  0  0  0  0
    0.6514   -0.6753    0.0028 O   0  0  0  0  0  0  0  0  0  0  0  0
    1.7235    1.3529    0.0031 O   0  0  0  0  0  0  0  0  0  0  0  0
   -5.0409    0.0921   -0.0010 N   0  0  0  0  0  0  0  0  0  0  0  0
   -4.6704    1.3621   -0.0015 N   0  0  0  0  0  0  0  0  0  0  0  0
   -0.4949    0.1317    0.0017 N   0  0  0  0  0  0  0  0  0  0  0  0
    2.8862   -0.6773    0.0048 N   0  0  0  0  0  0  0  0  0  0  0  0
   -6.5011   -0.1993   -0.0015 C   0  0  0  0  0  0  0  0  0  0  0  0
   -4.0670   -0.8252    0.0002 C   0  0  0  0  0  0  0  0  0  0  0  0
   -6.8705   -1.0134    1.2583 C   0  0  0  0  0  0  0  0  0  0  0  0
   -6.8723   -1.0034   -1.2675 C   0  0  0  0  0  0  0  0  0  0  0  0
   -7.3946    1.0657    0.0034 C   0  0  0  0  0  0  0  0  0  0  0  0
   -2.9070   -0.0898   -0.0001 C   0  0  0  0  0  0  0  0  0  0  0  0
   -3.3395    1.2499   -0.0009 C   0  0  0  0  0  0  0  0  0  0  0  0
   -4.2991   -2.2829    0.0015 C   0  0  0  0  0  0  0  0  0  0  0  0
   -2.5095    2.4677   -0.0016 C   0  0  0  0  0  0  0  0  0  0  0  0
   -1.5752   -0.6173    0.0008 C   0  0  0  0  0  0  0  0  0  0  0  0
    4.2428   -0.2805    0.0051 C   0  0  0  0  0  0  0  0  0  0  0  0
    6.9021    0.4996   -0.0024 C   0  0  0  0  0  0  0  0  0  0  0  0
    5.2345   -1.2485    0.0018 C   0  0  0  0  0  0  0  0  0  0  0  0
    4.5544    1.0699    0.0046 C   0  0  0  0  0  0  0  0  0  0  0  0
    6.5729   -0.8558   -0.0019 C   0  0  0  0  0  0  0  0  0  0  0  0
    5.8929    1.4624    0.0009 C   0  0  0  0  0  0  0  0  0  0  0  0
    1.7630    0.1279    0.0037 C   0  0  0  0  0  0  0  0  0  0  0  0
    8.3235    0.9615   -0.0072 C   0  0  0  0  0  0  0  0  0  0  0  0
   -7.9431   -0.9301    1.4743 H   0  0  0  0  0  0  0  0  0  0  0  0
   -6.6915   -2.0848    1.1544 H   0  0  0  0  0  0  0  0  0  0  0  0
   -6.3347   -0.6527    2.1437 H   0  0  0  0  0  0  0  0  0  0  0  0
   -6.6969   -2.0761   -1.1717 H   0  0  0  0  0  0  0  0  0  0  0  0
   -7.9445   -0.9153   -1.4837 H   0  0  0  0  0  0  0  0  0  0  0  0
   -6.3346   -0.6379   -2.1498 H   0  0  0  0  0  0  0  0  0  0  0  0
   -8.4606    0.8098    0.0037 H   0  0  0  0  0  0  0  0  0  0  0  0
   -7.2056    1.6815    0.8907 H   0  0  0  0  0  0  0  0  0  0  0  0
   -7.2074    1.6873   -0.8802 H   0  0  0  0  0  0  0  0  0  0  0  0
   -4.8123   -2.6356   -0.8918 H   0  0  0  0  0  0  0  0  0  0  0  0
   -4.7903   -2.6342    0.9082 H   0  0  0  0  0  0  0  0  0  0  0  0
   -3.3418   -2.8166   -0.0106 H   0  0  0  0  0  0  0  0  0  0  0  0
   -1.8715    2.5023    0.8874 H   0  0  0  0  0  0  0  0  0  0  0  0
   -1.8708    2.5008   -0.8902 H   0  0  0  0  0  0  0  0  0  0  0  0
   -3.1223    3.3758   -0.0027 H   0  0  0  0  0  0  0  0  0  0  0  0
   -1.4558   -1.7143    0.0014 H   0  0  0  0  0  0  0  0  0  0  0  0
    4.9723   -2.3039    0.0013 H   0  0  0  0  0  0  0  0  0  0  0  0
    3.8308    1.8718    0.0070 H   0  0  0  0  0  0  0  0  0  0  0  0
    6.1317    2.5229    0.0004 H   0  0  0  0  0  0  0  0  0  0  0  0
    2.7184   -1.6806    0.0044 H   0  0  0  0  0  0  0  0  0  0  0  0
    8.8479    0.6022    0.8844 H   0  0  0  0  0  0  0  0  0  0  0  0
    8.8409    0.6049   -0.9040 H   0  0  0  0  0  0  0  0  0  0  0  0
    8.3975    2.0547   -0.0057 H   0  0  0  0  0  0  0  0  0  0  0  0
  1 22  1  0  0  0  0
  2  6  1  0  0  0  0
  2 24  1  0  0  0  0
  3 24  2  0  0  0  0
  4  5  1  0  0  0  0
  4  8  1  0  0  0  0
  4  9  1  0  0  0  0
  5 14  2  0  0  0  0
  6 17  2  0  0  0  0
  7 18  1  0  0  0  0
  7 24  1  0  0  0  0
  7 45  1  0  0  0  0
  8 10  1  0  0  0  0
  8 11  1  0  0  0  0
  8 12  1  0  0  0  0
  9 13  2  0  0  0  0
  9 15  1  0  0  0  0
 10 26  1  0  0  0  0
 10 27  1  0  0  0  0
 10 28  1  0  0  0  0
 11 29  1  0  0  0  0
 11 30  1  0  0  0  0
 11 31  1  0  0  0  0
 12 32  1  0  0  0  0
 12 33  1  0  0  0  0
 12 34  1  0  0  0  0
 13 14  1  0  0  0  0
 13 17  1  0  0  0  0
 14 16  1  0  0  0  0
 15 35  1  0  0  0  0
 15 36  1  0  0  0  0
 15 37  1  0  0  0  0
 16 38  1  0  0  0  0
 16 39  1  0  0  0  0
 16 40  1  0  0  0  0
 17 41  1  0  0  0  0
 18 20  2  0  0  0  0
 18 21  1  0  0  0  0
 19 22  2  0  0  0  0
 19 23  1  0  0  0  0
 19 25  1  0  0  0  0
 20 22  1  0  0  0  0
 20 42  1  0  0  0  0
 21 23  2  0  0  0  0
 21 43  1  0  0  0  0
 23 44  1  0  0  0  0
 25 46  1  0  0  0  0
 25 47  1  0  0  0  0
 25 48  1  0  0  0  0
M  END
> <PUBCHEM_COMPOUND_CID>
9583470

> <PUBCHEM_CONFORMER_RMSD>
0.8

> <PUBCHEM_CONFORMER_DIVERSEORDER>
1
130
221
198
33
162
169
24
216
6
146
203
163
11
151
70
98
153
139
176
164
155
165
89
58
214
107
184
96
127
167
38
168
147
118
211
150
135
72
85
195
7
40
224
82
159
8
181
201
173
225
207
19
200
219
116
212
126
160
196
67
154
47
90
121
4
171
192
140
119
109
205
92
220
69
144
128
189
149
145
93
156
2
63
177
81
14
210
204
117
191
71
91
188
84
108
102
3
10
161
226
73
206
88
5
120
60
64
115
170
217
175
44
194
185
209
36
97
179
74
172
183
39
222
157
32
76
215
187
125
193
131
18
15
99
182
101
86
186
103
178
62
61
152
16
34
105
158
106
132
134
65
138
55
87
42
228
78
190
28
213
148
80
45
22
122
83
199
174
100
75
95
110
51
223
9
113
136
124
52
123
77
143
23
218
227
54
53
180
20
48
197
137
142
79
29
166
94
57
26
202
59
114
49
56
12
111
17
27
46
112
35
21
129
104
68
133
25
50
13
41
66
31
141
43
30
208
37

> <PUBCHEM_MMFF94_PARTIAL_CHARGES>
27
1 -0.18
13 -0.09
14 0.11
15 0.18
16 0.18
17 0.48
18 0.12
19 -0.14
2 -0.09
20 -0.15
21 -0.15
22 0.18
23 -0.15
24 0.78
25 0.14
3 -0.57
4 0.31
41 0.06
42 0.15
43 0.15
44 0.15
45 0.37
5 -0.71
6 -0.51
7 -0.55
8 0.26
9 -0.33

> <PUBCHEM_EFFECTIVE_ROTOR_COUNT>
6

> <PUBCHEM_PHARMACOPHORE_FEATURES>
7
1 3 acceptor
1 5 acceptor
1 6 acceptor
1 7 donor
4 8 10 11 12 hydrophobe
5 4 5 9 13 14 rings
6 18 19 20 21 22 23 rings

> <PUBCHEM_HEAVY_ATOM_COUNT>
25

> <PUBCHEM_ATOM_DEF_STEREO_COUNT>
0

> <PUBCHEM_ATOM_UDEF_STEREO_COUNT>
0

> <PUBCHEM_BOND_DEF_STEREO_COUNT>
1

> <PUBCHEM_BOND_UDEF_STEREO_COUNT>
0

> <PUBCHEM_ISOTOPIC_ATOM_COUNT>
0

> <PUBCHEM_COMPONENT_COUNT>
1

> <PUBCHEM_CACTVS_TAUTO_COUNT>
2

> <PUBCHEM_CONFORMER_ID>
00923B6E00000001

> <PUBCHEM_MMFF94_ENERGY>
65.3338

> <PUBCHEM_FEATURE_SELFOVERLAP>
35.538

> <PUBCHEM_SHAPE_FINGERPRINT>
10050765 1 18050286972776519691
10299344 5 18201720656280982954
10411042 1 18050567645908681695
10595046 47 18410292480679675312
10968037 39 18410009949399498575
11315181 36 17918276463684150161
11524674 6 16415478276949072959
11719270 70 17989205924338017318
12091667 2 18342176674898826151
12166972 35 18409731780968214584
12516196 113 18131349713539337392
13073987 5 18337390444468592064
13533116 47 17168133495549797130
13885169 127 18409448059796824485
14251764 18 18413671314102829068
14251764 46 18411136939426226530
14933364 13 18410575085064122520
15183329 4 18409728448231257602
15419008 47 17703784817300920888
15461852 350 17489302010591842093
15716309 27 18343581836940682006
17844677 252 18411424994862884624
20281389 69 18407758127757912668
21150785 3 18131633400497785408
21267235 1 18408327678616930689
21315763 28 18411418380713131282
22224240 67 15936408966183234896
23035841 295 18342739615513356691
232437 2 18413107273992813511
23536379 177 18410856551645928146
23559900 14 18338229492147376241
23569943 247 17243288323960626354
335352 9 18411975868038111493
34797466 226 17561089124885790516
3545911 37 18410573985373062201
4073 2 18041566931299904946
4325135 7 18410856572888902972
4339292 15 15769478934060127749
54039377 194 17986663970125747967
59755656 215 18409167688495158471
59755656 520 17022901276870159275
8209 1 18411136944148487716
999808 66 18113911485272182107

> <PUBCHEM_SHAPE_MULTIPOLES>
484.7
27.34
1.96
0.73
16.11
0.06
0
-3.63
-0.05
0.15
0
-0.91
-0.14
0

> <PUBCHEM_SHAPE_SELFOVERLAP>
1008.162

> <PUBCHEM_SHAPE_VOLUME>
279.8

> <PUBCHEM_COORDINATE_TYPE>
2
5
10

$$$$
