6893970
  -OEChem-01171809513D

 19 19  0     0  0  0  0  0  0999 V2000
   -2.5433    1.4851   -0.0214 S   0  0  0  0  0  0  0  0  0  0  0  0
    2.5001    1.0529   -1.1172 O   0  0  0  0  0  0  0  0  0  0  0  0
    2.5831   -1.8493   -0.0165 O   0  0  0  0  0  0  0  0  0  0  0  0
   -1.4400   -0.8525    0.0103 N   0  0  0  0  0  0  0  0  0  0  0  0
    1.2080   -1.6013   -0.0041 N   0  0  0  0  0  0  0  0  0  0  0  0
    2.4752    1.0533    1.2129 N   0  0  0  0  0  0  0  0  0  0  0  0
   -0.4576    0.0961   -0.0130 C   0  0  0  0  0  0  0  0  0  0  0  0
   -2.5978   -0.2297    0.0082 C   0  0  0  0  0  0  0  0  0  0  0  0
    0.9463   -0.3291   -0.0156 C   0  0  0  0  0  0  0  0  0  0  0  0
   -0.8302    1.4062   -0.0326 C   0  0  0  0  0  0  0  0  0  0  0  0
   -3.9124   -0.9073    0.0294 C   0  0  0  0  0  0  0  0  0  0  0  0
    2.0686    0.6756   -0.0403 C   0  0  0  0  0  0  0  0  0  0  0  0
   -0.2299    2.3047   -0.0528 H   0  0  0  0  0  0  0  0  0  0  0  0
   -4.4987   -0.6558   -0.8604 H   0  0  0  0  0  0  0  0  0  0  0  0
   -3.7838   -1.9945    0.0470 H   0  0  0  0  0  0  0  0  0  0  0  0
   -4.4857   -0.6254    0.9184 H   0  0  0  0  0  0  0  0  0  0  0  0
    3.2236    1.7267    1.3390 H   0  0  0  0  0  0  0  0  0  0  0  0
    2.0501    0.6811    2.0561 H   0  0  0  0  0  0  0  0  0  0  0  0
    2.6063   -2.8210   -0.0055 H   0  0  0  0  0  0  0  0  0  0  0  0
  1  8  1  0  0  0  0
  1 10  1  0  0  0  0
  2 12  2  0  0  0  0
  3  5  1  0  0  0  0
  3 19  1  0  0  0  0
  4  7  1  0  0  0  0
  4  8  2  0  0  0  0
  5  9  2  0  0  0  0
  6 12  1  0  0  0  0
  6 17  1  0  0  0  0
  6 18  1  0  0  0  0
  7  9  1  0  0  0  0
  7 10  2  0  0  0  0
  8 11  1  0  0  0  0
  9 12  1  0  0  0  0
 10 13  1  0  0  0  0
 11 14  1  0  0  0  0
 11 15  1  0  0  0  0
 11 16  1  0  0  0  0
M  END
> <PUBCHEM_COMPOUND_CID>
6893970

> <PUBCHEM_CONFORMER_RMSD>
0.6

> <PUBCHEM_CONFORMER_DIVERSEORDER>
1
14
4
11
13
12
8
6
9
2
10
5
7
3

> <PUBCHEM_MMFF94_PARTIAL_CHARGES>
16
1 -0.08
10 -0.11
11 0.18
12 0.63
13 0.15
17 0.37
18 0.37
19 0.4
2 -0.57
3 -0.34
4 -0.57
5 -0.51
6 -0.8
7 0.14
8 0.2
9 0.54

> <PUBCHEM_EFFECTIVE_ROTOR_COUNT>
2

> <PUBCHEM_PHARMACOPHORE_FEATURES>
6
1 2 acceptor
1 3 anion
1 4 acceptor
1 5 acceptor
1 6 donor
5 1 4 7 8 10 rings

> <PUBCHEM_HEAVY_ATOM_COUNT>
12

> <PUBCHEM_ATOM_DEF_STEREO_COUNT>
0

> <PUBCHEM_ATOM_UDEF_STEREO_COUNT>
0

> <PUBCHEM_BOND_DEF_STEREO_COUNT>
1

> <PUBCHEM_BOND_UDEF_STEREO_COUNT>
0

> <PUBCHEM_ISOTOPIC_ATOM_COUNT>
0

> <PUBCHEM_COMPONENT_COUNT>
1

> <PUBCHEM_CACTVS_TAUTO_COUNT>
4

> <PUBCHEM_CONFORMER_ID>
0069319200000001

> <PUBCHEM_MMFF94_ENERGY>
15.752

> <PUBCHEM_FEATURE_SELFOVERLAP>
30.451

> <PUBCHEM_SHAPE_FINGERPRINT>
10857977 72 18337947999832384849
12897270 3 18410859896935036141
12932764 1 17989486337992951597
13380535 21 18339656542043854233
14325111 11 18410293584296515549
15219456 202 18341041935121139417
15775835 57 18130787910030577192
16945 1 18338797939442450421
18186145 218 17821723893446364991
19973954 147 18337673005708181045
20201158 50 18334294318408769883
20645477 70 18411978032158641055
20653091 64 18262237699354805042
21501502 16 18339085882523779857
21501925 9 18336253570493170282
23552423 10 18260831440972870379
2748010 2 18337952290446541861
3248919 1 18040152929001712361
369184 2 18343579616827581785
5084963 1 18335140830323729472
581208 293 18339076098577762567
7364860 26 18272930484294768662
8030462 33 18413389826067227845

> <PUBCHEM_SHAPE_MULTIPOLES>
224.12
5.34
1.74
0.77
1.94
0.19
0.03
0.64
0.06
-0.29
0
-0.41
-0.21
0.05

> <PUBCHEM_SHAPE_SELFOVERLAP>
451.322

> <PUBCHEM_SHAPE_VOLUME>
133.1

> <PUBCHEM_COORDINATE_TYPE>
2
5
10

$$$$
