2155952
  -OEChem-01171809483D

 46 49  0     0  0  0  0  0  0999 V2000
   -0.7610   -3.6521    1.4083 S   0  0  0  0  0  0  0  0  0  0  0  0
   -1.5276   -1.4814   -3.1267 O   0  0  0  0  0  0  0  0  0  0  0  0
    2.1598   -3.0943    0.5892 O   0  0  0  0  0  0  0  0  0  0  0  0
    3.5358    3.3491    0.1437 O   0  0  0  0  0  0  0  0  0  0  0  0
   -2.5407    0.8963   -1.6729 N   0  0  0  0  0  0  0  0  0  0  0  0
   -1.2110   -2.4784   -1.0188 N   0  0  0  0  0  0  0  0  0  0  0  0
   -1.7340   -1.2619    1.0218 N   0  0  0  0  0  0  0  0  0  0  0  0
    1.7189   -0.9217    1.3813 N   0  0  0  0  0  0  0  0  0  0  0  0
   -2.0724   -0.2926   -1.1842 C   0  0  0  0  0  0  0  0  0  0  0  0
   -2.1378   -0.2248    0.1801 C   0  0  0  0  0  0  0  0  0  0  0  0
   -2.6566    1.0300    0.5650 C   0  0  0  0  0  0  0  0  0  0  0  0
   -2.9047    1.7227   -0.6265 C   0  0  0  0  0  0  0  0  0  0  0  0
   -1.5914   -1.4361   -1.9016 C   0  0  0  0  0  0  0  0  0  0  0  0
   -1.2927   -2.3149    0.3907 C   0  0  0  0  0  0  0  0  0  0  0  0
   -2.9442    1.6599    1.7915 C   0  0  0  0  0  0  0  0  0  0  0  0
   -3.4297    3.0197   -0.6454 C   0  0  0  0  0  0  0  0  0  0  0  0
   -3.4690    2.9572    1.7841 C   0  0  0  0  0  0  0  0  0  0  0  0
   -3.7073    3.6244    0.5840 C   0  0  0  0  0  0  0  0  0  0  0  0
   -0.7247   -3.7467   -1.5695 C   0  0  0  0  0  0  0  0  0  0  0  0
    0.5435   -2.7997    2.3140 C   0  0  0  0  0  0  0  0  0  0  0  0
    1.5768   -2.3027    1.3254 C   0  0  0  0  0  0  0  0  0  0  0  0
    2.5874   -0.1532    0.6018 C   0  0  0  0  0  0  0  0  0  0  0  0
    2.6276    1.2306    0.7640 C   0  0  0  0  0  0  0  0  0  0  0  0
    3.4123   -0.7723   -0.3359 C   0  0  0  0  0  0  0  0  0  0  0  0
    3.4953    1.9974   -0.0136 C   0  0  0  0  0  0  0  0  0  0  0  0
    4.2799   -0.0056   -1.1135 C   0  0  0  0  0  0  0  0  0  0  0  0
    4.3214    1.3794   -0.9523 C   0  0  0  0  0  0  0  0  0  0  0  0
    4.4460    4.0718   -0.6839 C   0  0  0  0  0  0  0  0  0  0  0  0
   -2.6118    1.1384   -2.6518 H   0  0  0  0  0  0  0  0  0  0  0  0
   -2.7634    1.1524    2.7347 H   0  0  0  0  0  0  0  0  0  0  0  0
   -3.6156    3.5414   -1.5783 H   0  0  0  0  0  0  0  0  0  0  0  0
   -3.6931    3.4492    2.7269 H   0  0  0  0  0  0  0  0  0  0  0  0
   -4.1155    4.6317    0.6028 H   0  0  0  0  0  0  0  0  0  0  0  0
   -0.7495   -3.7338   -2.6625 H   0  0  0  0  0  0  0  0  0  0  0  0
   -1.3597   -4.5663   -1.2202 H   0  0  0  0  0  0  0  0  0  0  0  0
    0.3076   -3.9140   -1.2509 H   0  0  0  0  0  0  0  0  0  0  0  0
    1.0342   -3.5047    2.9924 H   0  0  0  0  0  0  0  0  0  0  0  0
    0.1209   -1.9963    2.9240 H   0  0  0  0  0  0  0  0  0  0  0  0
    1.1470   -0.4042    2.0445 H   0  0  0  0  0  0  0  0  0  0  0  0
    1.9859    1.7196    1.4933 H   0  0  0  0  0  0  0  0  0  0  0  0
    3.4490   -1.8338   -0.5290 H   0  0  0  0  0  0  0  0  0  0  0  0
    4.9236   -0.4864   -1.8447 H   0  0  0  0  0  0  0  0  0  0  0  0
    5.0182    1.9140   -1.5887 H   0  0  0  0  0  0  0  0  0  0  0  0
    4.1889    3.9757   -1.7442 H   0  0  0  0  0  0  0  0  0  0  0  0
    5.4848    3.7898   -0.4814 H   0  0  0  0  0  0  0  0  0  0  0  0
    4.3463    5.1311   -0.4256 H   0  0  0  0  0  0  0  0  0  0  0  0
  1 14  1  0  0  0  0
  1 20  1  0  0  0  0
  2 13  2  0  0  0  0
  3 21  2  0  0  0  0
  4 25  1  0  0  0  0
  4 28  1  0  0  0  0
  5  9  1  0  0  0  0
  5 12  1  0  0  0  0
  5 29  1  0  0  0  0
  6 13  1  0  0  0  0
  6 14  1  0  0  0  0
  6 19  1  0  0  0  0
  7 10  1  0  0  0  0
  7 14  2  0  0  0  0
  8 21  1  0  0  0  0
  8 22  1  0  0  0  0
  8 39  1  0  0  0  0
  9 10  2  0  0  0  0
  9 13  1  0  0  0  0
 10 11  1  0  0  0  0
 11 12  1  0  0  0  0
 11 15  2  0  0  0  0
 12 16  2  0  0  0  0
 15 17  1  0  0  0  0
 15 30  1  0  0  0  0
 16 18  1  0  0  0  0
 16 31  1  0  0  0  0
 17 18  2  0  0  0  0
 17 32  1  0  0  0  0
 18 33  1  0  0  0  0
 19 34  1  0  0  0  0
 19 35  1  0  0  0  0
 19 36  1  0  0  0  0
 20 21  1  0  0  0  0
 20 37  1  0  0  0  0
 20 38  1  0  0  0  0
 22 23  2  0  0  0  0
 22 24  1  0  0  0  0
 23 25  1  0  0  0  0
 23 40  1  0  0  0  0
 24 26  2  0  0  0  0
 24 41  1  0  0  0  0
 25 27  2  0  0  0  0
 26 27  1  0  0  0  0
 26 42  1  0  0  0  0
 27 43  1  0  0  0  0
 28 44  1  0  0  0  0
 28 45  1  0  0  0  0
 28 46  1  0  0  0  0
M  END
> <PUBCHEM_COMPOUND_CID>
2155952

> <PUBCHEM_CONFORMER_RMSD>
0.8

> <PUBCHEM_CONFORMER_DIVERSEORDER>
1
40
159
155
198
57
113
59
276
52
5
187
259
185
128
107
154
123
270
229
74
202
180
4
221
252
171
220
75
17
225
275
196
62
272
87
190
77
114
219
23
215
32
136
183
95
203
99
208
105
47
204
121
250
117
93
2
49
126
120
238
178
260
27
45
6
85
3
174
207
34
235
205
211
86
127
66
9
11
156
247
273
8
162
148
33
106
278
197
181
163
35
223
233
232
58
72
257
240
177
71
141
68
122
151
191
227
92
135
145
192
88
36
170
89
91
79
125
96
64
172
237
245
84
131
137
139
244
14
104
194
81
37
251
217
15
277
271
253
264
67
212
65
130
78
19
226
29
56
239
109
119
201
18
153
248
230
144
269
97
16
118
263
53
101
103
61
10
48
111
222
228
267
51
210
133
129
246
265
138
218
69
7
214
28
39
255
266
73
186
158
12
42
50
182
26
193
94
98
234
44
13
38
236
46
241
216
188
112
54
25
165
134
152
179
231
22
213
90
41
199
206
254
150
102
146
157
63
261
268
60
70
115
195
110
168
209
108
143
176
124
167
224
189
21
169
161
83
184
175
116
249
164
242
82
76
100
173
142
160
166
258
256
80
31
149
20
243
132
147
55
140
200
30
262
24
43
274

> <PUBCHEM_MMFF94_PARTIAL_CHARGES>
37
1 -0.37
10 0.12
12 -0.15
13 0.71
14 0.65
15 -0.15
16 -0.15
17 -0.15
18 -0.15
19 0.3
2 -0.57
20 0.29
21 0.57
22 0.12
23 -0.15
24 -0.15
25 0.08
26 -0.15
27 -0.15
28 0.28
29 0.27
3 -0.57
30 0.15
31 0.15
32 0.15
33 0.15
39 0.37
4 -0.36
40 0.15
41 0.15
42 0.15
43 0.15
5 0.03
6 -0.42
7 -0.57
8 -0.55
9 -0.24

> <PUBCHEM_EFFECTIVE_ROTOR_COUNT>
6

> <PUBCHEM_PHARMACOPHORE_FEATURES>
10
1 2 acceptor
1 3 acceptor
1 4 acceptor
1 5 cation
1 5 donor
1 8 donor
5 5 9 10 11 12 rings
6 11 12 15 16 17 18 rings
6 22 23 24 25 26 27 rings
6 6 7 9 10 13 14 rings

> <PUBCHEM_HEAVY_ATOM_COUNT>
28

> <PUBCHEM_ATOM_DEF_STEREO_COUNT>
0

> <PUBCHEM_ATOM_UDEF_STEREO_COUNT>
0

> <PUBCHEM_BOND_DEF_STEREO_COUNT>
0

> <PUBCHEM_BOND_UDEF_STEREO_COUNT>
0

> <PUBCHEM_ISOTOPIC_ATOM_COUNT>
0

> <PUBCHEM_COMPONENT_COUNT>
1

> <PUBCHEM_CACTVS_TAUTO_COUNT>
4

> <PUBCHEM_CONFORMER_ID>
0020E5B000000001

> <PUBCHEM_MMFF94_ENERGY>
82.7625

> <PUBCHEM_FEATURE_SELFOVERLAP>
50.952

> <PUBCHEM_SHAPE_FINGERPRINT>
10006869 2 18334574694059203811
10165383 225 17315663715075907362
10483366 6 7808951956023321731
11607047 403 17698204826176455627
11640471 11 17983830334194728875
12156800 1 16959917968869305091
12173636 292 18261957452406476858
12633257 1 17463409417674401379
12788726 201 18122613109845096811
128993 33 18260265231149918318
13583140 156 17682683913921829089
13965767 371 16616970109189324675
14123250 116 18338794623469085696
151778 21 18117005385700427680
15664445 248 16835114770770427583
17921350 177 18123187892666001916
20465049 17 18123768468832324262
20764821 26 16823630466455618008
21315764 21 17273438079228102196
21860390 5 17618500978658530135
21864079 5 18335134319454249144
22907989 373 18059283370636976157
35225 105 18052290489168191589
469060 322 15938094632971832314
474 4 17838047105696729579
5048184 11 18409449176362097792
5081480 168 16692177778064603607
5252454 2 17967541151207354524
7288768 16 17895480340028153144

> <PUBCHEM_SHAPE_MULTIPOLES>
542.54
8.09
5.77
2.15
5.64
0.43
-0.6
10.73
-0.55
0.18
0.84
-1.28
-1.42
-2.01

> <PUBCHEM_SHAPE_SELFOVERLAP>
1181.55

> <PUBCHEM_SHAPE_VOLUME>
298.5

> <PUBCHEM_COORDINATE_TYPE>
2
5
10

$$$$
