16194072
  -OEChem-01171809463D

 47 50  0     0  0  0  0  0  0999 V2000
    4.8034    0.4848   -0.5907 O   0  0  0  0  0  0  0  0  0  0  0  0
   -5.5212    0.3534   -0.5525 O   0  0  0  0  0  0  0  0  0  0  0  0
   -0.8311    0.9334   -1.0171 O   0  0  0  0  0  0  0  0  0  0  0  0
   -2.7859   -3.1946    0.3656 O   0  0  0  0  0  0  0  0  0  0  0  0
    5.1363    2.7420   -0.2316 O   0  0  0  0  0  0  0  0  0  0  0  0
    1.0544    1.1413    0.9344 N   0  0  0  0  0  0  0  0  0  0  0  0
   -2.2918   -0.3608    0.2360 N   0  0  0  0  0  0  0  0  0  0  0  0
    1.0307    2.4572    1.2257 N   0  0  0  0  0  0  0  0  0  0  0  0
    2.2401    0.7269    0.4078 C   0  0  0  0  0  0  0  0  0  0  0  0
   -0.1433    0.3837    1.2118 C   0  0  0  0  0  0  0  0  0  0  0  0
   -1.1053    0.3537    0.0372 C   0  0  0  0  0  0  0  0  0  0  0  0
    2.6555   -0.5832   -0.0257 C   0  0  0  0  0  0  0  0  0  0  0  0
    3.0427    1.8398    0.3495 C   0  0  0  0  0  0  0  0  0  0  0  0
   -2.6569   -1.0645    1.4632 C   0  0  0  0  0  0  0  0  0  0  0  0
   -3.2716   -0.4407   -0.8403 C   0  0  0  0  0  0  0  0  0  0  0  0
    3.9637   -0.6708   -0.5276 C   0  0  0  0  0  0  0  0  0  0  0  0
    2.2492    2.8780    0.8657 C   0  0  0  0  0  0  0  0  0  0  0  0
   -2.1731   -2.5030    1.4462 C   0  0  0  0  0  0  0  0  0  0  0  0
   -4.2333    0.7029   -0.7290 C   0  0  0  0  0  0  0  0  0  0  0  0
    4.3900    1.7726   -0.1627 C   0  0  0  0  0  0  0  0  0  0  0  0
    1.8647   -1.7287    0.0220 C   0  0  0  0  0  0  0  0  0  0  0  0
    4.4923   -1.8757   -0.9803 C   0  0  0  0  0  0  0  0  0  0  0  0
    2.3877   -2.9442   -0.4308 C   0  0  0  0  0  0  0  0  0  0  0  0
    3.6937   -3.0170   -0.9290 C   0  0  0  0  0  0  0  0  0  0  0  0
   -4.0600    2.0469   -0.7721 C   0  0  0  0  0  0  0  0  0  0  0  0
   -5.3548    2.5943   -0.6080 C   0  0  0  0  0  0  0  0  0  0  0  0
   -6.2084    1.5235   -0.4784 C   0  0  0  0  0  0  0  0  0  0  0  0
   -2.3674   -4.5514    0.3107 C   0  0  0  0  0  0  0  0  0  0  0  0
    0.1037   -0.5821    1.6415 H   0  0  0  0  0  0  0  0  0  0  0  0
   -0.6539    0.9283    2.0188 H   0  0  0  0  0  0  0  0  0  0  0  0
   -3.7475   -1.0301    1.5709 H   0  0  0  0  0  0  0  0  0  0  0  0
   -2.2353   -0.5495    2.3302 H   0  0  0  0  0  0  0  0  0  0  0  0
   -2.7600   -0.3758   -1.8075 H   0  0  0  0  0  0  0  0  0  0  0  0
   -3.8030   -1.3955   -0.8193 H   0  0  0  0  0  0  0  0  0  0  0  0
    2.4995    3.9210    0.9968 H   0  0  0  0  0  0  0  0  0  0  0  0
   -1.0861   -2.5519    1.3374 H   0  0  0  0  0  0  0  0  0  0  0  0
   -2.4492   -2.9877    2.3898 H   0  0  0  0  0  0  0  0  0  0  0  0
    0.8372   -1.7536    0.3380 H   0  0  0  0  0  0  0  0  0  0  0  0
    5.5046   -1.9328   -1.3673 H   0  0  0  0  0  0  0  0  0  0  0  0
    1.7709   -3.8388   -0.4075 H   0  0  0  0  0  0  0  0  0  0  0  0
   -3.1344    2.5875   -0.9052 H   0  0  0  0  0  0  0  0  0  0  0  0
    4.0849   -3.9679   -1.2798 H   0  0  0  0  0  0  0  0  0  0  0  0
   -5.6314    3.6384   -0.5872 H   0  0  0  0  0  0  0  0  0  0  0  0
   -7.2751    1.4306   -0.3351 H   0  0  0  0  0  0  0  0  0  0  0  0
   -1.2861   -4.6129    0.1538 H   0  0  0  0  0  0  0  0  0  0  0  0
   -2.6461   -5.0768    1.2293 H   0  0  0  0  0  0  0  0  0  0  0  0
   -2.8699   -5.0324   -0.5327 H   0  0  0  0  0  0  0  0  0  0  0  0
  1 16  1  0  0  0  0
  1 20  1  0  0  0  0
  2 19  1  0  0  0  0
  2 27  1  0  0  0  0
  3 11  2  0  0  0  0
  4 18  1  0  0  0  0
  4 28  1  0  0  0  0
  5 20  2  0  0  0  0
  6  8  1  0  0  0  0
  6  9  1  0  0  0  0
  6 10  1  0  0  0  0
  7 11  1  0  0  0  0
  7 14  1  0  0  0  0
  7 15  1  0  0  0  0
  8 17  2  0  0  0  0
  9 12  1  0  0  0  0
  9 13  2  0  0  0  0
 10 11  1  0  0  0  0
 10 29  1  0  0  0  0
 10 30  1  0  0  0  0
 12 16  1  0  0  0  0
 12 21  2  0  0  0  0
 13 17  1  0  0  0  0
 13 20  1  0  0  0  0
 14 18  1  0  0  0  0
 14 31  1  0  0  0  0
 14 32  1  0  0  0  0
 15 19  1  0  0  0  0
 15 33  1  0  0  0  0
 15 34  1  0  0  0  0
 16 22  2  0  0  0  0
 17 35  1  0  0  0  0
 18 36  1  0  0  0  0
 18 37  1  0  0  0  0
 19 25  2  0  0  0  0
 21 23  1  0  0  0  0
 21 38  1  0  0  0  0
 22 24  1  0  0  0  0
 22 39  1  0  0  0  0
 23 24  2  0  0  0  0
 23 40  1  0  0  0  0
 24 42  1  0  0  0  0
 25 26  1  0  0  0  0
 25 41  1  0  0  0  0
 26 27  2  0  0  0  0
 26 43  1  0  0  0  0
 27 44  1  0  0  0  0
 28 45  1  0  0  0  0
 28 46  1  0  0  0  0
 28 47  1  0  0  0  0
M  END
> <PUBCHEM_COMPOUND_CID>
16194072

> <PUBCHEM_CONFORMER_RMSD>
1

> <PUBCHEM_CONFORMER_DIVERSEORDER>
3
241
301
196
99
168
335
309
332
86
52
123
250
302
105
209
249
299
180
77
283
234
235
94
53
120
79
64
185
223
226
114
225
243
285
175
320
135
294
319
4
227
213
191
271
321
254
186
148
125
56
110
158
326
187
1
8
18
266
256
264
274
333
108
336
21
323
289
157
136
248
311
88
29
242
153
304
118
293
314
176
198
62
188
131
78
166
258
59
97
327
280
261
231
260
201
278
54
259
26
329
2
71
90
106
281
211
276
328
63
170
214
7
273
134
152
132
290
39
312
287
81
28
12
60
224
298
95
163
182
238
303
317
32
197
202
22
200
177
73
57
116
252
164
296
85
240
107
181
305
228
119
159
40
117
205
307
14
65
310
179
275
25
139
103
208
172
19
113
229
267
48
222
83
87
318
61
193
169
162
232
5
49
30
156
127
270
16
11
313
51
192
207
91
44
277
174
128
237
263
13
68
265
89
203
236
286
165
149
23
171
291
76
221
325
288
124
220
46
300
42
151
142
101
173
147
155
34
334
121
316
195
230
115
9
70
31
74
282
247
58
239
38
137
104
33
96
55
122
190
216
215
133
20
183
129
268
36
306
112
141
233
204
324
297
322
160
109
253
330
217
43
100
161
66
92
315
150
111
50
24
69
255
178
72
47
212
67
84
272
37
75
126
102
80
41
251
210
138
145
206
35
98
17
262
269
143
167
146
246
130
257
279
199
15
284
292
244
144
219
295
189
45
140
10
154
27
93
331
245
6
194
308
184
218
82

> <PUBCHEM_MMFF94_PARTIAL_CHARGES>
36
1 -0.23
10 0.32
11 0.57
12 0.05
13 -0.09
14 0.3
15 0.48
16 0.08
17 0.14
18 0.28
19 -0.04
2 -0.28
20 0.81
21 -0.15
22 -0.15
23 -0.15
24 -0.15
25 -0.15
26 -0.15
27 -0.01
28 0.28
3 -0.57
35 0.15
38 0.15
39 0.15
4 -0.56
40 0.15
41 0.15
42 0.15
43 0.15
44 0.15
5 -0.57
6 0.31
7 -0.66
8 -0.71
9 -0.2

> <PUBCHEM_EFFECTIVE_ROTOR_COUNT>
8

> <PUBCHEM_PHARMACOPHORE_FEATURES>
9
1 2 acceptor
1 3 acceptor
1 4 acceptor
1 5 acceptor
1 8 acceptor
5 2 19 25 26 27 rings
5 6 8 9 13 17 rings
6 1 9 12 13 16 20 rings
6 12 16 21 22 23 24 rings

> <PUBCHEM_HEAVY_ATOM_COUNT>
28

> <PUBCHEM_ATOM_DEF_STEREO_COUNT>
0

> <PUBCHEM_ATOM_UDEF_STEREO_COUNT>
0

> <PUBCHEM_BOND_DEF_STEREO_COUNT>
0

> <PUBCHEM_BOND_UDEF_STEREO_COUNT>
0

> <PUBCHEM_ISOTOPIC_ATOM_COUNT>
0

> <PUBCHEM_COMPONENT_COUNT>
1

> <PUBCHEM_CACTVS_TAUTO_COUNT>
1

> <PUBCHEM_CONFORMER_ID>
00F71A1800000003

> <PUBCHEM_MMFF94_ENERGY>
67.2622

> <PUBCHEM_FEATURE_SELFOVERLAP>
45.789

> <PUBCHEM_SHAPE_FINGERPRINT>
10675989 125 18122622756357877097
11578080 2 18261968421673725996
11621639 148 16535388025460489441
11621639 254 17328033573344979036
12553582 1 18126865810663797258
12730499 353 18410857680663547528
12788726 201 17981043020483205786
13135754 10 16951430843727037203
13533116 47 18201997703537158833
13544592 145 18335702698135244343
13583140 156 18129102397476122397
13944108 23 17397535417213312189
14790565 3 18193558861826596113
15183329 4 18272088232650113789
17349148 13 15770055025790917781
17980427 23 16951408913328631044
18608769 82 18262804090020356611
20645477 70 18059858342035027820
20775438 99 18127661960040391663
20832881 197 18123184607010296923
21033648 29 18336536162853020105
21279426 13 18195524797033051173
221357 26 18268703927391249621
22393880 68 18338800117138731470
23557571 272 17968943139996222881
23559900 14 18413384332677423296
27425 322 17167866404091525261
3004659 81 18265052440685055158
3729539 64 18120656829804900707
3882209 13 17253700586837445218
4015057 19 18342730828152531397
4073 2 18335701688627993169
495365 180 18130772495287749672
543358 83 18342738460056494584
59682541 52 18271230626633909229
633830 44 18264754490456409797
7399639 24 17693085684229994145
9709674 26 18411415154850073479

> <PUBCHEM_SHAPE_MULTIPOLES>
531.94
12.37
4.52
1.16
8.28
3.59
0.23
-5.41
-4.46
-0.5
0.49
0.32
0.12
2.5

> <PUBCHEM_SHAPE_SELFOVERLAP>
1159.721

> <PUBCHEM_SHAPE_VOLUME>
291.1

> <PUBCHEM_COORDINATE_TYPE>
2
5
10

$$$$
