854968
  -OEChem-01171810023D

 30 32  0     0  0  0  0  0  0999 V2000
   -0.3451   -0.0080   -0.0021 O   0  0  0  0  0  0  0  0  0  0  0  0
    0.3027   -2.1747   -0.0007 N   0  0  0  0  0  0  0  0  0  0  0  0
    5.8600    1.3025    0.0026 N   0  0  0  0  0  0  0  0  0  0  0  0
    1.9922   -0.3490   -0.0018 C   0  0  0  0  0  0  0  0  0  0  0  0
   -1.4553   -0.7895   -0.0010 C   0  0  0  0  0  0  0  0  0  0  0  0
    0.6711   -0.9137   -0.0019 C   0  0  0  0  0  0  0  0  0  0  0  0
   -2.7185   -0.0930    0.0003 C   0  0  0  0  0  0  0  0  0  0  0  0
    2.1644    1.0380   -0.0018 C   0  0  0  0  0  0  0  0  0  0  0  0
    3.1134   -1.1838    0.0000 C   0  0  0  0  0  0  0  0  0  0  0  0
   -1.0665   -2.0985   -0.0004 C   0  0  0  0  0  0  0  0  0  0  0  0
   -3.9121   -0.8149    0.0029 C   0  0  0  0  0  0  0  0  0  0  0  0
   -2.7470    1.3016   -0.0018 C   0  0  0  0  0  0  0  0  0  0  0  0
    4.5631    0.7489    0.0016 C   0  0  0  0  0  0  0  0  0  0  0  0
    3.4471    1.5858   -0.0003 C   0  0  0  0  0  0  0  0  0  0  0  0
    4.3962   -0.6360    0.0017 C   0  0  0  0  0  0  0  0  0  0  0  0
   -5.1341   -0.1422    0.0031 C   0  0  0  0  0  0  0  0  0  0  0  0
   -3.9690    1.9742   -0.0014 C   0  0  0  0  0  0  0  0  0  0  0  0
   -5.1626    1.2521    0.0010 C   0  0  0  0  0  0  0  0  0  0  0  0
    1.3207    1.7238   -0.0029 H   0  0  0  0  0  0  0  0  0  0  0  0
    3.0083   -2.2662    0.0004 H   0  0  0  0  0  0  0  0  0  0  0  0
   -1.6766   -2.9899    0.0008 H   0  0  0  0  0  0  0  0  0  0  0  0
   -3.9202   -1.9018    0.0045 H   0  0  0  0  0  0  0  0  0  0  0  0
   -1.8380    1.8978   -0.0039 H   0  0  0  0  0  0  0  0  0  0  0  0
    3.5646    2.6665   -0.0005 H   0  0  0  0  0  0  0  0  0  0  0  0
    5.2580   -1.2986    0.0031 H   0  0  0  0  0  0  0  0  0  0  0  0
   -6.0636   -0.7040    0.0050 H   0  0  0  0  0  0  0  0  0  0  0  0
   -3.9919    3.0601   -0.0031 H   0  0  0  0  0  0  0  0  0  0  0  0
   -6.1140    1.7758    0.0013 H   0  0  0  0  0  0  0  0  0  0  0  0
    6.6693    0.6961    0.0049 H   0  0  0  0  0  0  0  0  0  0  0  0
    5.9819    2.3064    0.0035 H   0  0  0  0  0  0  0  0  0  0  0  0
  1  5  1  0  0  0  0
  1  6  1  0  0  0  0
  2  6  2  0  0  0  0
  2 10  1  0  0  0  0
  3 13  1  0  0  0  0
  3 29  1  0  0  0  0
  3 30  1  0  0  0  0
  4  6  1  0  0  0  0
  4  8  2  0  0  0  0
  4  9  1  0  0  0  0
  5  7  1  0  0  0  0
  5 10  2  0  0  0  0
  7 11  2  0  0  0  0
  7 12  1  0  0  0  0
  8 14  1  0  0  0  0
  8 19  1  0  0  0  0
  9 15  2  0  0  0  0
  9 20  1  0  0  0  0
 10 21  1  0  0  0  0
 11 16  1  0  0  0  0
 11 22  1  0  0  0  0
 12 17  2  0  0  0  0
 12 23  1  0  0  0  0
 13 14  2  0  0  0  0
 13 15  1  0  0  0  0
 14 24  1  0  0  0  0
 15 25  1  0  0  0  0
 16 18  2  0  0  0  0
 16 26  1  0  0  0  0
 17 18  1  0  0  0  0
 17 27  1  0  0  0  0
 18 28  1  0  0  0  0
M  END
> <PUBCHEM_COMPOUND_CID>
854968

> <PUBCHEM_CONFORMER_RMSD>
0.6

> <PUBCHEM_CONFORMER_DIVERSEORDER>
1
2

> <PUBCHEM_MMFF94_PARTIAL_CHARGES>
30
1 -0.28
10 0.08
11 -0.15
12 -0.15
13 0.1
14 -0.15
15 -0.15
16 -0.15
17 -0.15
18 -0.15
19 0.15
2 -0.57
20 0.15
21 0.15
22 0.15
23 0.15
24 0.15
25 0.15
26 0.15
27 0.15
28 0.15
29 0.4
3 -0.9
30 0.4
4 0.05
5 0.09
6 0.43
7 0.05
8 -0.15
9 -0.15

> <PUBCHEM_EFFECTIVE_ROTOR_COUNT>
2

> <PUBCHEM_PHARMACOPHORE_FEATURES>
5
1 3 cation
1 3 donor
5 1 2 5 6 10 rings
6 4 8 9 13 14 15 rings
6 7 11 12 16 17 18 rings

> <PUBCHEM_HEAVY_ATOM_COUNT>
18

> <PUBCHEM_ATOM_DEF_STEREO_COUNT>
0

> <PUBCHEM_ATOM_UDEF_STEREO_COUNT>
0

> <PUBCHEM_BOND_DEF_STEREO_COUNT>
0

> <PUBCHEM_BOND_UDEF_STEREO_COUNT>
0

> <PUBCHEM_ISOTOPIC_ATOM_COUNT>
0

> <PUBCHEM_COMPONENT_COUNT>
1

> <PUBCHEM_CACTVS_TAUTO_COUNT>
2

> <PUBCHEM_CONFORMER_ID>
000D0BB800000001

> <PUBCHEM_MMFF94_ENERGY>
50.5104

> <PUBCHEM_FEATURE_SELFOVERLAP>
25.373

> <PUBCHEM_SHAPE_FINGERPRINT>
10411042 1 17474107601135742946
12107183 9 17687741640785272441
12390115 104 18200047157140594641
12403259 415 18115306670458274341
12507557 5 17748829631231621797
12596602 18 17022622004583936753
12633257 1 15574721312884934545
12916748 109 18411142432684123379
13081056 2 18411139117117161405
13583140 156 16877936170473866091
13785724 45 17761206614593558306
14251764 18 18261105284509932602
14252887 29 12829488112947346322
14341114 176 18334864896086835403
15188451 53 15502669260124874705
15196674 1 18410855438669292485
15880784 105 13190352282727372925
20281389 69 18333447664754978280
20645477 56 18410855498782867462
20645477 70 17203342074369968230
21267235 1 18410582776960334887
212847 35 18411697678004396440
21524375 3 18410575080574190727
21652331 79 18408322172732789725
22950370 63 9295285058146376083
23227448 37 18342455988831890607
23402539 116 18272644671036917133
23402655 69 18201718448820734798
23558518 356 17609778956747921050
23559900 14 18201157646768296982
245318 6 17099200923964817124
26918003 58 10737280255649037023
2916195 48 18272363213509386856
293599 30 18411139143113714464
3004659 81 18336550426728936614
335352 9 18410856543436113718
351380 180 18410573989604842893
351380 3 9871749087420526508
3545911 37 18413110580320838488
4214541 1 18410573993773060225
4325135 7 18272929453871792295
474 4 18040157339664126013
474229 33 18410576219257625275
495365 180 17346587613188313730
5104073 3 18335140860451837443
542803 24 17346883342480965065
59755656 520 17967530194371931242
633830 44 18341328890423677967
69090 78 18413386561702432087
77779 3 18410575076247341063
83771 10 9079113358327544535

> <PUBCHEM_SHAPE_MULTIPOLES>
354.6
12.16
2.03
0.6
1.49
0.15
0
-5.72
-0.01
-0.23
0
-0.03
0
0

> <PUBCHEM_SHAPE_SELFOVERLAP>
789.074

> <PUBCHEM_SHAPE_VOLUME>
190.7

> <PUBCHEM_COORDINATE_TYPE>
2
5
10

$$$$
