781047
  -OEChem-01171809183D

 32 33  0     0  0  0  0  0  0999 V2000
    2.5619    0.8974   -0.0024 O   0  0  0  0  0  0  0  0  0  0  0  0
    1.1458   -2.2875   -0.0084 O   0  0  0  0  0  0  0  0  0  0  0  0
   -5.8043    0.8635    0.0133 O   0  0  0  0  0  0  0  0  0  0  0  0
   -4.2667    2.5373   -0.0158 O   0  0  0  0  0  0  0  0  0  0  0  0
    0.1234   -0.1703   -0.0238 N   0  0  0  0  0  0  0  0  0  0  0  0
    4.6563    0.0823    0.0058 C   0  0  0  0  0  0  0  0  0  0  0  0
    3.8819    1.2191    0.0076 C   0  0  0  0  0  0  0  0  0  0  0  0
    2.5500   -0.4331   -0.0103 C   0  0  0  0  0  0  0  0  0  0  0  0
    3.7541   -1.0080   -0.0062 C   0  0  0  0  0  0  0  0  0  0  0  0
    1.2035   -1.0627   -0.0223 C   0  0  0  0  0  0  0  0  0  0  0  0
   -1.2391   -0.4709   -0.0103 C   0  0  0  0  0  0  0  0  0  0  0  0
    6.1289    0.0091    0.0158 C   0  0  0  0  0  0  0  0  0  0  0  0
    4.1967    2.6554    0.0181 C   0  0  0  0  0  0  0  0  0  0  0  0
   -2.1809    0.5580   -0.0128 C   0  0  0  0  0  0  0  0  0  0  0  0
   -1.6594   -1.8009    0.0074 C   0  0  0  0  0  0  0  0  0  0  0  0
   -3.5429    0.2570    0.0025 C   0  0  0  0  0  0  0  0  0  0  0  0
   -3.0213   -2.1019    0.0225 C   0  0  0  0  0  0  0  0  0  0  0  0
   -3.9630   -1.0730    0.0202 C   0  0  0  0  0  0  0  0  0  0  0  0
   -4.5251    1.3292   -0.0008 C   0  0  0  0  0  0  0  0  0  0  0  0
    3.9930   -2.0620   -0.0107 H   0  0  0  0  0  0  0  0  0  0  0  0
    6.5366    0.5347    0.8855 H   0  0  0  0  0  0  0  0  0  0  0  0
    6.4771   -1.0281    0.0579 H   0  0  0  0  0  0  0  0  0  0  0  0
    6.5437    0.4661   -0.8886 H   0  0  0  0  0  0  0  0  0  0  0  0
    0.3514    0.8218   -0.0321 H   0  0  0  0  0  0  0  0  0  0  0  0
    3.9445    3.0936    0.9886 H   0  0  0  0  0  0  0  0  0  0  0  0
    5.2597    2.8342   -0.1693 H   0  0  0  0  0  0  0  0  0  0  0  0
    3.6269    3.1814   -0.7544 H   0  0  0  0  0  0  0  0  0  0  0  0
   -1.8469    1.5933   -0.0265 H   0  0  0  0  0  0  0  0  0  0  0  0
   -0.9937   -2.6523    0.0104 H   0  0  0  0  0  0  0  0  0  0  0  0
   -3.3492   -3.1375    0.0362 H   0  0  0  0  0  0  0  0  0  0  0  0
   -5.0128   -1.3524    0.0324 H   0  0  0  0  0  0  0  0  0  0  0  0
   -6.4587    1.5944    0.0102 H   0  0  0  0  0  0  0  0  0  0  0  0
  1  7  1  0  0  0  0
  1  8  1  0  0  0  0
  2 10  2  0  0  0  0
  3 19  1  0  0  0  0
  3 32  1  0  0  0  0
  4 19  2  0  0  0  0
  5 10  1  0  0  0  0
  5 11  1  0  0  0  0
  5 24  1  0  0  0  0
  6  7  2  0  0  0  0
  6  9  1  0  0  0  0
  6 12  1  0  0  0  0
  7 13  1  0  0  0  0
  8  9  2  0  0  0  0
  8 10  1  0  0  0  0
  9 20  1  0  0  0  0
 11 14  1  0  0  0  0
 11 15  2  0  0  0  0
 12 21  1  0  0  0  0
 12 22  1  0  0  0  0
 12 23  1  0  0  0  0
 13 25  1  0  0  0  0
 13 26  1  0  0  0  0
 13 27  1  0  0  0  0
 14 16  2  0  0  0  0
 14 28  1  0  0  0  0
 15 17  1  0  0  0  0
 15 29  1  0  0  0  0
 16 18  1  0  0  0  0
 16 19  1  0  0  0  0
 17 18  2  0  0  0  0
 17 30  1  0  0  0  0
 18 31  1  0  0  0  0
M  END
> <PUBCHEM_COMPOUND_CID>
781047

> <PUBCHEM_CONFORMER_RMSD>
0.6

> <PUBCHEM_CONFORMER_DIVERSEORDER>
1
18
17
30
11
20
9
12
21
10
24
4
16
26
19
14
13
22
23
8
6
15
2
27
25
28
29
5
3
7

> <PUBCHEM_MMFF94_PARTIAL_CHARGES>
26
1 -0.28
10 0.71
11 0.12
12 0.18
13 0.18
14 -0.15
15 -0.15
16 0.09
17 -0.15
18 -0.15
19 0.63
2 -0.57
20 0.15
24 0.37
28 0.15
29 0.15
3 -0.65
30 0.15
31 0.15
32 0.5
4 -0.57
5 -0.55
6 -0.18
7 -0.04
8 0.05
9 -0.15

> <PUBCHEM_EFFECTIVE_ROTOR_COUNT>
4

> <PUBCHEM_PHARMACOPHORE_FEATURES>
8
1 1 acceptor
1 2 acceptor
1 3 acceptor
1 4 acceptor
1 5 donor
3 3 4 19 anion
5 1 6 7 8 9 rings
6 11 14 15 16 17 18 rings

> <PUBCHEM_HEAVY_ATOM_COUNT>
19

> <PUBCHEM_ATOM_DEF_STEREO_COUNT>
0

> <PUBCHEM_ATOM_UDEF_STEREO_COUNT>
0

> <PUBCHEM_BOND_DEF_STEREO_COUNT>
0

> <PUBCHEM_BOND_UDEF_STEREO_COUNT>
0

> <PUBCHEM_ISOTOPIC_ATOM_COUNT>
0

> <PUBCHEM_COMPONENT_COUNT>
1

> <PUBCHEM_CACTVS_TAUTO_COUNT>
2

> <PUBCHEM_CONFORMER_ID>
000BEAF700000001

> <PUBCHEM_MMFF94_ENERGY>
44.9872

> <PUBCHEM_FEATURE_SELFOVERLAP>
40.655

> <PUBCHEM_SHAPE_FINGERPRINT>
10014705 185 18409165524184477965
10411042 1 17762056940851108363
11089746 13 18411693288294540876
11405975 8 18335135401833331266
11595378 159 16733252461429498477
12107183 9 17975406919653155466
12403259 118 18340758343020918482
12403259 415 18201719617463341704
12596602 18 13695875813603732332
13167823 11 18409163346478381538
13785724 45 17905604407570644258
14252887 29 12829484818987018114
14528608 73 18412823611775033925
15196674 1 18338799021774234976
15239154 128 18410294726420251649
17834072 32 18411420617710604005
17844677 252 18337680818353698392
17959699 21 18411982459557500256
20281389 69 18261109655948291908
20645477 56 18335141969028048751
20645477 70 17060065778879157678
21065198 57 18409730685872379650
21267235 1 18337680805247685619
21315763 129 18411980295115217198
21709351 56 18412257354986873814
23227448 37 18411981390532390005
23402539 116 18343858935656844070
23402655 69 18413670231950490150
23559900 14 18271807865817176574
245318 6 16666285864327600084
2916195 48 18129934706720218088
335352 9 18410856547620096862
351380 180 18411135853337531898
3545911 37 18412265021181775715
4073 2 18041002894925330154
4214541 1 18410574002331320320
465052 167 11386361531144408328
474 4 17821734956812621060
5104073 3 18334574667803375882
542803 24 17530685424626648246
54446538 1 18410853295675680212
59755656 215 18341619153573317766
59755656 520 17240483610830366019
6328613 192 18187654656563881068
633830 44 18409725201383817782
77779 3 18410575123608142790
90127 26 18335994154747975802
9709674 26 18412269436424759991

> <PUBCHEM_SHAPE_MULTIPOLES>
362.55
13.28
2.37
0.59
2.84
0.66
0
5.67
0.08
-0.87
0.01
0.03
-0.01
0.04

> <PUBCHEM_SHAPE_SELFOVERLAP>
783.639

> <PUBCHEM_SHAPE_VOLUME>
200.8

> <PUBCHEM_COORDINATE_TYPE>
2
5
10

$$$$
