16187443
  -OEChem-01171809413D

 47 51  0     0  0  0  0  0  0999 V2000
    1.8382   -2.3894   -1.8208 S   0  0  0  0  0  0  0  0  0  0  0  0
   -0.4441   -1.2947   -0.6365 N   0  0  0  0  0  0  0  0  0  0  0  0
   -0.8939   -2.9585    0.7456 N   0  0  0  0  0  0  0  0  0  0  0  0
    0.2568   -3.3415    0.1007 N   0  0  0  0  0  0  0  0  0  0  0  0
   -4.2698   -0.8687    2.2351 N   0  0  0  0  0  0  0  0  0  0  0  0
    4.8998    3.4872    2.1923 N   0  0  0  0  0  0  0  0  0  0  0  0
   -1.3505   -1.7218    0.3316 C   0  0  0  0  0  0  0  0  0  0  0  0
   -2.4275   -1.1056    0.8396 C   0  0  0  0  0  0  0  0  0  0  0  0
   -3.0293    0.1750    0.5194 C   0  0  0  0  0  0  0  0  0  0  0  0
    0.4917   -2.3295   -0.7179 C   0  0  0  0  0  0  0  0  0  0  0  0
   -0.4721   -0.0866   -1.3705 C   0  0  0  0  0  0  0  0  0  0  0  0
   -4.1319    0.2628    1.3893 C   0  0  0  0  0  0  0  0  0  0  0  0
   -3.2822   -1.6578    1.9141 C   0  0  0  0  0  0  0  0  0  0  0  0
   -2.7261    1.1771   -0.3818 C   0  0  0  0  0  0  0  0  0  0  0  0
   -4.9573    1.3748    1.3657 C   0  0  0  0  0  0  0  0  0  0  0  0
    0.1765    1.0449   -0.8759 C   0  0  0  0  0  0  0  0  0  0  0  0
   -1.1475   -0.0262   -2.5894 C   0  0  0  0  0  0  0  0  0  0  0  0
    3.1861   -2.5524   -0.6298 C   0  0  0  0  0  0  0  0  0  0  0  0
   -3.5579    2.2988   -0.4063 C   0  0  0  0  0  0  0  0  0  0  0  0
   -4.6626    2.3971    0.4587 C   0  0  0  0  0  0  0  0  0  0  0  0
    3.5606   -1.2330   -0.0128 C   0  0  0  0  0  0  0  0  0  0  0  0
    0.1499    2.2368   -1.6001 C   0  0  0  0  0  0  0  0  0  0  0  0
   -1.1742    1.1655   -3.3138 C   0  0  0  0  0  0  0  0  0  0  0  0
   -0.5256    2.2970   -2.8191 C   0  0  0  0  0  0  0  0  0  0  0  0
    2.9313   -0.8064    1.1566 C   0  0  0  0  0  0  0  0  0  0  0  0
    4.5365   -0.4355   -0.6106 C   0  0  0  0  0  0  0  0  0  0  0  0
    3.2780    0.4177    1.7284 C   0  0  0  0  0  0  0  0  0  0  0  0
    4.8830    0.7886   -0.0388 C   0  0  0  0  0  0  0  0  0  0  0  0
    4.2539    1.2152    1.1307 C   0  0  0  0  0  0  0  0  0  0  0  0
    4.6103    2.4690    1.7166 C   0  0  0  0  0  0  0  0  0  0  0  0
   -1.3369   -3.5168    1.4610 H   0  0  0  0  0  0  0  0  0  0  0  0
   -3.0804   -2.6336    2.3741 H   0  0  0  0  0  0  0  0  0  0  0  0
   -2.0218    1.2873   -1.1151 H   0  0  0  0  0  0  0  0  0  0  0  0
   -5.8111    1.4565    2.0296 H   0  0  0  0  0  0  0  0  0  0  0  0
    0.6984    1.0142    0.0758 H   0  0  0  0  0  0  0  0  0  0  0  0
   -1.6558   -0.9019   -2.9851 H   0  0  0  0  0  0  0  0  0  0  0  0
    4.0531   -2.9645   -1.1596 H   0  0  0  0  0  0  0  0  0  0  0  0
    2.9425   -3.2869    0.1462 H   0  0  0  0  0  0  0  0  0  0  0  0
   -3.3628    3.1070   -1.1075 H   0  0  0  0  0  0  0  0  0  0  0  0
   -5.2962    3.2793    0.4184 H   0  0  0  0  0  0  0  0  0  0  0  0
    0.6527    3.1183   -1.2135 H   0  0  0  0  0  0  0  0  0  0  0  0
   -1.7008    1.2128   -4.2623 H   0  0  0  0  0  0  0  0  0  0  0  0
   -0.5478    3.2254   -3.3822 H   0  0  0  0  0  0  0  0  0  0  0  0
    2.1729   -1.4185    1.6368 H   0  0  0  0  0  0  0  0  0  0  0  0
    5.0334   -0.7554   -1.5227 H   0  0  0  0  0  0  0  0  0  0  0  0
    2.7787    0.7363    2.6402 H   0  0  0  0  0  0  0  0  0  0  0  0
    5.6454    1.3994   -0.5168 H   0  0  0  0  0  0  0  0  0  0  0  0
  1 10  1  0  0  0  0
  1 18  1  0  0  0  0
  2  7  1  0  0  0  0
  2 10  1  0  0  0  0
  2 11  1  0  0  0  0
  3  4  1  0  0  0  0
  3  7  1  0  0  0  0
  3 31  1  0  0  0  0
  4 10  2  0  0  0  0
  5 12  1  0  0  0  0
  5 13  2  0  0  0  0
  6 30  3  0  0  0  0
  7  8  2  0  0  0  0
  8  9  1  0  0  0  0
  8 13  1  0  0  0  0
  9 12  1  0  0  0  0
  9 14  2  0  0  0  0
 11 16  2  0  0  0  0
 11 17  1  0  0  0  0
 12 15  2  0  0  0  0
 13 32  1  0  0  0  0
 14 19  1  0  0  0  0
 14 33  1  0  0  0  0
 15 20  1  0  0  0  0
 15 34  1  0  0  0  0
 16 22  1  0  0  0  0
 16 35  1  0  0  0  0
 17 23  2  0  0  0  0
 17 36  1  0  0  0  0
 18 21  1  0  0  0  0
 18 37  1  0  0  0  0
 18 38  1  0  0  0  0
 19 20  2  0  0  0  0
 19 39  1  0  0  0  0
 20 40  1  0  0  0  0
 21 25  2  0  0  0  0
 21 26  1  0  0  0  0
 22 24  2  0  0  0  0
 22 41  1  0  0  0  0
 23 24  1  0  0  0  0
 23 42  1  0  0  0  0
 24 43  1  0  0  0  0
 25 27  1  0  0  0  0
 25 44  1  0  0  0  0
 26 28  2  0  0  0  0
 26 45  1  0  0  0  0
 27 29  2  0  0  0  0
 27 46  1  0  0  0  0
 28 29  1  0  0  0  0
 28 47  1  0  0  0  0
 29 30  1  0  0  0  0
M  END
> <PUBCHEM_COMPOUND_CID>
16187443

> <PUBCHEM_CONFORMER_RMSD>
0.8

> <PUBCHEM_CONFORMER_DIVERSEORDER>
1
6
15
13
10
12
3
14
5
11
4
17
16
7
2
9
8

> <PUBCHEM_MMFF94_PARTIAL_CHARGES>
45
1 -0.37
10 0.64
11 0.1
12 0.18
13 0.38
14 -0.15
15 -0.15
16 -0.15
17 -0.15
18 0.37
19 -0.15
2 -0.25
20 -0.15
21 -0.14
22 -0.15
23 -0.15
24 -0.15
25 -0.15
26 -0.15
27 -0.15
28 -0.15
29 0.07
3 -0.46
30 0.48
31 0.4
32 0.06
33 0.15
34 0.15
35 0.15
36 0.15
39 0.15
4 -0.49
40 0.15
41 0.15
42 0.15
43 0.15
44 0.15
45 0.15
46 0.15
47 0.15
5 -0.63
6 -0.56
7 0.2
8 -0.01
9 0.03

> <PUBCHEM_EFFECTIVE_ROTOR_COUNT>
4.4

> <PUBCHEM_PHARMACOPHORE_FEATURES>
9
1 3 donor
1 5 acceptor
1 6 acceptor
3 2 4 10 cation
5 2 3 4 7 10 rings
5 5 8 9 12 13 rings
6 11 16 17 22 23 24 rings
6 21 25 26 27 28 29 rings
6 9 12 14 15 19 20 rings

> <PUBCHEM_HEAVY_ATOM_COUNT>
30

> <PUBCHEM_ATOM_DEF_STEREO_COUNT>
0

> <PUBCHEM_ATOM_UDEF_STEREO_COUNT>
0

> <PUBCHEM_BOND_DEF_STEREO_COUNT>
1

> <PUBCHEM_BOND_UDEF_STEREO_COUNT>
0

> <PUBCHEM_ISOTOPIC_ATOM_COUNT>
0

> <PUBCHEM_COMPONENT_COUNT>
1

> <PUBCHEM_CACTVS_TAUTO_COUNT>
3

> <PUBCHEM_CONFORMER_ID>
00F7003300000001

> <PUBCHEM_MMFF94_ENERGY>
164.3175

> <PUBCHEM_FEATURE_SELFOVERLAP>
45.77

> <PUBCHEM_SHAPE_FINGERPRINT>
10165383 225 18337124358618497494
10305334 12 15821861092876968385
10369192 42 18194686093521681060
11112241 14 18343292661494116225
11578080 2 18128833971142671155
11595378 159 16805891684338697182
12422481 6 18187359965513851200
13034934 17 18261104145420719013
13402501 40 18264496074710841742
13583140 156 17632856442941631831
14081887 123 17679591038793696687
144659 39 18044063857871576912
14508693 111 16734413683078585050
14932701 244 15765795659478684866
15163728 17 15338023925888313323
15274700 34 17898287462666688067
15629462 23 16471499145782386718
161222 619 18337656556115813356
17980427 23 18261402156896965647
1813 80 15936422142763259925
19315092 285 14057297444384182946
20101258 96 13722958288329439189
20775438 99 8285047078708500648
21033648 29 18412270518792792835
21033650 10 12319470899813507170
21330990 113 17970075443641242525
21475661 188 18200594683338617160
21860390 5 17344923918577118238
22122407 14 17702392745301154665
23559900 14 17899718772517025311
345986 75 14996286907223951493
392239 28 18195819470311698643
469060 322 17679845279404012434
5252454 2 18410289233937918894
56638632 10 17772185568471170041
57724786 102 17489323965842420488
6034566 193 17845363522092490996

> <PUBCHEM_SHAPE_MULTIPOLES>
596.33
10.19
3.69
2.74
2.91
0.17
1.4
-6.06
-7.55
1.81
-0.37
-0.49
-1.32
3.25

> <PUBCHEM_SHAPE_SELFOVERLAP>
1321.613

> <PUBCHEM_SHAPE_VOLUME>
318.5

> <PUBCHEM_COORDINATE_TYPE>
2
5
10

$$$$
