5382674
  -OEChem-01171809533D

 30 31  0     0  0  0  0  0  0999 V2000
   -0.0001   -2.2875   -0.3712 O   0  0  0  0  0  0  0  0  0  0  0  0
    4.9822    1.8562   -0.1346 N   0  0  0  0  0  0  0  0  0  0  0  0
   -4.9821    1.8563   -0.1342 N   0  0  0  0  0  0  0  0  0  0  0  0
    3.7389   -0.1922   -0.0232 C   0  0  0  0  0  0  0  0  0  0  0  0
   -3.7388   -0.1923   -0.0232 C   0  0  0  0  0  0  0  0  0  0  0  0
    2.4411   -0.8805   -0.1400 C   0  0  0  0  0  0  0  0  0  0  0  0
   -2.4412   -0.8806   -0.1404 C   0  0  0  0  0  0  0  0  0  0  0  0
    4.8775   -0.9043    0.2913 C   0  0  0  0  0  0  0  0  0  0  0  0
   -4.8776   -0.9044    0.2909 C   0  0  0  0  0  0  0  0  0  0  0  0
    1.2477   -0.2741   -0.0588 C   0  0  0  0  0  0  0  0  0  0  0  0
   -1.2479   -0.2742   -0.0589 C   0  0  0  0  0  0  0  0  0  0  0  0
   -0.0001   -1.0774   -0.1829 C   0  0  0  0  0  0  0  0  0  0  0  0
    3.8245    1.1643   -0.2263 C   0  0  0  0  0  0  0  0  0  0  0  0
   -3.8244    1.1644   -0.2263 C   0  0  0  0  0  0  0  0  0  0  0  0
    6.0877   -0.2275    0.3946 C   0  0  0  0  0  0  0  0  0  0  0  0
   -6.0878   -0.2274    0.3944 C   0  0  0  0  0  0  0  0  0  0  0  0
    6.0867    1.1405    0.1742 C   0  0  0  0  0  0  0  0  0  0  0  0
   -6.0865    1.1405    0.1746 C   0  0  0  0  0  0  0  0  0  0  0  0
    2.5004   -1.9561   -0.2898 H   0  0  0  0  0  0  0  0  0  0  0  0
   -2.5004   -1.9562   -0.2905 H   0  0  0  0  0  0  0  0  0  0  0  0
    4.8511   -1.9771    0.4607 H   0  0  0  0  0  0  0  0  0  0  0  0
   -4.8513   -1.9772    0.4599 H   0  0  0  0  0  0  0  0  0  0  0  0
    1.1405    0.7900    0.1152 H   0  0  0  0  0  0  0  0  0  0  0  0
   -1.1408    0.7899    0.1155 H   0  0  0  0  0  0  0  0  0  0  0  0
    2.9781    1.7863   -0.4954 H   0  0  0  0  0  0  0  0  0  0  0  0
   -2.9780    1.7863   -0.4955 H   0  0  0  0  0  0  0  0  0  0  0  0
    7.0030   -0.7539    0.6403 H   0  0  0  0  0  0  0  0  0  0  0  0
   -7.0031   -0.7538    0.6399 H   0  0  0  0  0  0  0  0  0  0  0  0
    7.0047    1.7147    0.2428 H   0  0  0  0  0  0  0  0  0  0  0  0
   -7.0045    1.7149    0.2436 H   0  0  0  0  0  0  0  0  0  0  0  0
  1 12  2  0  0  0  0
  2 13  1  0  0  0  0
  2 17  2  0  0  0  0
  3 14  1  0  0  0  0
  3 18  2  0  0  0  0
  4  6  1  0  0  0  0
  4  8  1  0  0  0  0
  4 13  2  0  0  0  0
  5  7  1  0  0  0  0
  5  9  1  0  0  0  0
  5 14  2  0  0  0  0
  6 10  2  0  0  0  0
  6 19  1  0  0  0  0
  7 11  2  0  0  0  0
  7 20  1  0  0  0  0
  8 15  2  0  0  0  0
  8 21  1  0  0  0  0
  9 16  2  0  0  0  0
  9 22  1  0  0  0  0
 10 12  1  0  0  0  0
 10 23  1  0  0  0  0
 11 12  1  0  0  0  0
 11 24  1  0  0  0  0
 13 25  1  0  0  0  0
 14 26  1  0  0  0  0
 15 17  1  0  0  0  0
 15 27  1  0  0  0  0
 16 18  1  0  0  0  0
 16 28  1  0  0  0  0
 17 29  1  0  0  0  0
 18 30  1  0  0  0  0
M  END
> <PUBCHEM_COMPOUND_CID>
5382674

> <PUBCHEM_CONFORMER_RMSD>
0.6

> <PUBCHEM_CONFORMER_DIVERSEORDER>
1
42
20
41
8
38
3
25
40
7
6
24
39
5
31
17
2
30
21
4
32
35
19
10
26
15
36
33
11
18
27
16
34
12
13
28
37
9
22
14
29
23

> <PUBCHEM_MMFF94_PARTIAL_CHARGES>
30
1 -0.57
10 -0.14
11 -0.14
12 0.54
13 0.16
14 0.16
15 -0.15
16 -0.15
17 0.16
18 0.16
19 0.15
2 -0.62
20 0.15
21 0.15
22 0.15
23 0.15
24 0.15
25 0.15
26 0.15
27 0.15
28 0.15
29 0.15
3 -0.62
30 0.15
4 0.03
5 0.03
6 -0.18
7 -0.18
8 -0.15
9 -0.15

> <PUBCHEM_EFFECTIVE_ROTOR_COUNT>
4

> <PUBCHEM_PHARMACOPHORE_FEATURES>
5
1 1 acceptor
1 2 acceptor
1 3 acceptor
6 2 4 8 13 15 17 rings
6 3 5 9 14 16 18 rings

> <PUBCHEM_HEAVY_ATOM_COUNT>
18

> <PUBCHEM_ATOM_DEF_STEREO_COUNT>
0

> <PUBCHEM_ATOM_UDEF_STEREO_COUNT>
0

> <PUBCHEM_BOND_DEF_STEREO_COUNT>
2

> <PUBCHEM_BOND_UDEF_STEREO_COUNT>
0

> <PUBCHEM_ISOTOPIC_ATOM_COUNT>
0

> <PUBCHEM_COMPONENT_COUNT>
1

> <PUBCHEM_CACTVS_TAUTO_COUNT>
1

> <PUBCHEM_CONFORMER_ID>
0052221200000001

> <PUBCHEM_MMFF94_ENERGY>
52.6498

> <PUBCHEM_FEATURE_SELFOVERLAP>
25.373

> <PUBCHEM_SHAPE_FINGERPRINT>
10 15 18260272962307062931
10354089 29 18040715875008202498
11315181 36 17458349663106066643
117890 112 18413669123806599696
12107183 9 17614274468524436923
12236239 1 18408321090358729234
12596602 18 17749107802856268689
12916748 109 18343308050145127222
13167372 99 18411418376117782640
13288520 33 9007055769270236739
13533116 47 16702026323386211750
13631057 29 18059286686990733631
13668630 136 10737282433413994032
13685833 64 9295282855186836557
13740256 8 8934992677167774271
13785724 45 17834109741768766426
1420 363 11818995171085451770
14251732 16 18335140929598730779
14251764 18 18187079577390277944
14933364 13 18410295808714905064
15048467 5 18413951689172312056
15188451 53 15647348497729018179
15348495 7 17458915940915506632
19489759 90 17385724695071549257
20157964 124 18343586213823807342
20281389 69 18335419062568710512
20374829 77 9655579603978412327
21150785 3 15410887479292825997
21236236 1 18341893060686290471
212847 35 18343299284544202688
21315763 28 18410009940013271291
21315764 268 18333726914384975956
22224240 67 18113900468591708403
22956985 138 12975538394539491152
23035841 295 9871752390471462109
23198884 109 15267064744340962431
23272321 79 18410575106596909871
23402539 116 18201712972552926726
23536379 177 18408040701860908706
23559900 14 9078818664043143711
246663 6 14562525151526037322
2767999 5 18060699489630734688
2838139 119 18271799125136515325
2916195 48 18411697703278237017
293599 30 18343020003731511534
300161 21 17775560957857559438
351380 3 10737289056053032729
3545911 37 18342459239932307134
4073 2 17895481431356327018
42788 4 18409167714074590411
4325135 7 18273210924616832703
4340502 62 17313104146453307178
465052 167 11386368132329495232
5104073 3 18188216377850402003
542803 24 18410854369275196318
54446538 1 18408039619476584157
59682541 35 18334868242784231515
59682541 52 16199882661167090972
59755656 520 18113333132717425378
9996256 80 18341610451642619047

> <PUBCHEM_SHAPE_MULTIPOLES>
354.6
18.34
1.7
0.65
0
0.21
0.01
6.72
2.3
0
-0.13
0
-0.02
0

> <PUBCHEM_SHAPE_SELFOVERLAP>
756.169

> <PUBCHEM_SHAPE_VOLUME>
195.4

> <PUBCHEM_COORDINATE_TYPE>
2
5
10

$$$$
