5721594
  -OEChem-01171809293D

 41 43  0     0  0  0  0  0  0999 V2000
    4.7911   -1.2571   -1.3379 F   0  0  0  0  0  0  0  0  0  0  0  0
   -1.1494   -2.9758    0.2530 O   0  0  0  0  0  0  0  0  0  0  0  0
   -0.0211   -0.9875   -2.2880 O   0  0  0  0  0  0  0  0  0  0  0  0
   -3.0694   -1.9203    0.9153 N   0  0  0  0  0  0  0  0  0  0  0  0
   -3.7408    2.8620   -0.0029 C   0  0  0  0  0  0  0  0  0  0  0  0
   -2.9686    2.6885   -1.2931 C   0  0  0  0  0  0  0  0  0  0  0  0
   -4.4158    1.5485    0.3645 C   0  0  0  0  0  0  0  0  0  0  0  0
   -1.8550    1.6672   -1.0973 C   0  0  0  0  0  0  0  0  0  0  0  0
   -3.5238    0.3252    0.3303 C   0  0  0  0  0  0  0  0  0  0  0  0
   -2.2438    0.3719   -0.4040 C   0  0  0  0  0  0  0  0  0  0  0  0
   -3.8905   -0.8170    0.9546 C   0  0  0  0  0  0  0  0  0  0  0  0
   -1.4355   -0.7147   -0.4277 C   0  0  0  0  0  0  0  0  0  0  0  0
   -1.8575   -1.9709    0.2682 C   0  0  0  0  0  0  0  0  0  0  0  0
   -5.1744   -1.0378    1.7058 C   0  0  0  0  0  0  0  0  0  0  0  0
   -0.1267   -0.6833   -1.1083 C   0  0  0  0  0  0  0  0  0  0  0  0
    1.0065   -0.2598   -0.2483 C   0  0  0  0  0  0  0  0  0  0  0  0
    2.2438   -0.2073   -0.7627 C   0  0  0  0  0  0  0  0  0  0  0  0
    3.4482    0.1878   -0.0107 C   0  0  0  0  0  0  0  0  0  0  0  0
    4.6740   -0.3657   -0.3430 C   0  0  0  0  0  0  0  0  0  0  0  0
    3.3279    1.1089    1.0176 C   0  0  0  0  0  0  0  0  0  0  0  0
    5.8105    0.0123    0.3721 C   0  0  0  0  0  0  0  0  0  0  0  0
    4.4645    1.4866    1.7326 C   0  0  0  0  0  0  0  0  0  0  0  0
    5.7057    0.9383    1.4100 C   0  0  0  0  0  0  0  0  0  0  0  0
   -4.4981    3.6453   -0.1201 H   0  0  0  0  0  0  0  0  0  0  0  0
   -3.0684    3.1820    0.8028 H   0  0  0  0  0  0  0  0  0  0  0  0
   -2.5376    3.6465   -1.6054 H   0  0  0  0  0  0  0  0  0  0  0  0
   -3.6410    2.3626   -2.0966 H   0  0  0  0  0  0  0  0  0  0  0  0
   -5.2488    1.3804   -0.3313 H   0  0  0  0  0  0  0  0  0  0  0  0
   -4.8500    1.6784    1.3631 H   0  0  0  0  0  0  0  0  0  0  0  0
   -1.0658    2.1410   -0.4975 H   0  0  0  0  0  0  0  0  0  0  0  0
   -1.4213    1.4569   -2.0825 H   0  0  0  0  0  0  0  0  0  0  0  0
   -3.3845   -2.7580    1.3967 H   0  0  0  0  0  0  0  0  0  0  0  0
   -5.6504   -1.9702    1.3809 H   0  0  0  0  0  0  0  0  0  0  0  0
   -5.9106   -0.2450    1.5523 H   0  0  0  0  0  0  0  0  0  0  0  0
   -4.9742   -1.1121    2.7798 H   0  0  0  0  0  0  0  0  0  0  0  0
    0.7909   -0.0192    0.7870 H   0  0  0  0  0  0  0  0  0  0  0  0
    2.4187   -0.4848   -1.7996 H   0  0  0  0  0  0  0  0  0  0  0  0
    2.3803    1.5688    1.2830 H   0  0  0  0  0  0  0  0  0  0  0  0
    6.7770   -0.4145    0.1206 H   0  0  0  0  0  0  0  0  0  0  0  0
    4.3840    2.2109    2.5380 H   0  0  0  0  0  0  0  0  0  0  0  0
    6.5908    1.2332    1.9660 H   0  0  0  0  0  0  0  0  0  0  0  0
  1 19  1  0  0  0  0
  2 13  2  0  0  0  0
  3 15  2  0  0  0  0
  4 11  1  0  0  0  0
  4 13  1  0  0  0  0
  4 32  1  0  0  0  0
  5  6  1  0  0  0  0
  5  7  1  0  0  0  0
  5 24  1  0  0  0  0
  5 25  1  0  0  0  0
  6  8  1  0  0  0  0
  6 26  1  0  0  0  0
  6 27  1  0  0  0  0
  7  9  1  0  0  0  0
  7 28  1  0  0  0  0
  7 29  1  0  0  0  0
  8 10  1  0  0  0  0
  8 30  1  0  0  0  0
  8 31  1  0  0  0  0
  9 10  1  0  0  0  0
  9 11  2  0  0  0  0
 10 12  2  0  0  0  0
 11 14  1  0  0  0  0
 12 13  1  0  0  0  0
 12 15  1  0  0  0  0
 14 33  1  0  0  0  0
 14 34  1  0  0  0  0
 14 35  1  0  0  0  0
 15 16  1  0  0  0  0
 16 17  2  0  0  0  0
 16 36  1  0  0  0  0
 17 18  1  0  0  0  0
 17 37  1  0  0  0  0
 18 19  1  0  0  0  0
 18 20  2  0  0  0  0
 19 21  2  0  0  0  0
 20 22  1  0  0  0  0
 20 38  1  0  0  0  0
 21 23  1  0  0  0  0
 21 39  1  0  0  0  0
 22 23  2  0  0  0  0
 22 40  1  0  0  0  0
 23 41  1  0  0  0  0
M  END
> <PUBCHEM_COMPOUND_CID>
5721594

> <PUBCHEM_CONFORMER_RMSD>
0.6

> <PUBCHEM_CONFORMER_DIVERSEORDER>
1
73
30
62
74
78
27
13
5
39
79
17
60
75
22
18
57
11
20
26
77
67
28
68
2
12
50
23
69
72
70
29
38
14
24
6
54
58
16
34
3
71
15
63
19
35
56
48
66
8
76
21
43
55
31
4
64
25
49
61
7
40
41
44
37
32
9
65
42
46
51
59
33
10
47
45
52
36
53

> <PUBCHEM_MMFF94_PARTIAL_CHARGES>
28
1 -0.19
10 -0.14
11 -0.03
12 0.03
13 0.62
14 0.14
15 0.54
16 -0.14
17 -0.18
18 0.03
19 0.19
2 -0.57
20 -0.15
21 -0.15
22 -0.15
23 -0.15
3 -0.57
32 0.37
36 0.15
37 0.15
38 0.15
39 0.15
4 -0.54
40 0.15
41 0.15
7 0.14
8 0.14
9 -0.14

> <PUBCHEM_EFFECTIVE_ROTOR_COUNT>
3.8

> <PUBCHEM_PHARMACOPHORE_FEATURES>
7
1 12 anion
1 2 acceptor
1 3 acceptor
1 4 donor
6 18 19 20 21 22 23 rings
6 4 9 10 11 12 13 rings
6 5 6 7 8 9 10 rings

> <PUBCHEM_HEAVY_ATOM_COUNT>
23

> <PUBCHEM_ATOM_DEF_STEREO_COUNT>
0

> <PUBCHEM_ATOM_UDEF_STEREO_COUNT>
0

> <PUBCHEM_BOND_DEF_STEREO_COUNT>
1

> <PUBCHEM_BOND_UDEF_STEREO_COUNT>
0

> <PUBCHEM_ISOTOPIC_ATOM_COUNT>
0

> <PUBCHEM_COMPONENT_COUNT>
1

> <PUBCHEM_CACTVS_TAUTO_COUNT>
13

> <PUBCHEM_CONFORMER_ID>
00574DFA00000001

> <PUBCHEM_MMFF94_ENERGY>
62.3385

> <PUBCHEM_FEATURE_SELFOVERLAP>
35.542

> <PUBCHEM_SHAPE_FINGERPRINT>
10 15 18409725201557845776
10319926 262 18334853879875873786
11370993 144 18201722821282162252
11595378 159 17894340077666100952
12236239 1 16732989742680003199
12403259 415 18272657826817208636
12507560 40 18342458140773918982
12596602 18 17023188270383862144
12633257 1 18268721661036440705
12892183 10 18260546701620782170
13103583 49 15864363402143415933
13402501 40 18201152178837280849
13583140 156 18340759382297580470
13675066 3 18342455954767388676
14341114 176 18410013264987904032
14420673 8 17825665543859062642
15042514 8 18189909788971864675
16988056 13 11659494388001471378
17780758 139 17676761054555863346
17844677 252 18334298686601870296
1813 80 16008754593518482766
19377110 9 16877661305816217228
20645477 56 18272368689576604934
20645477 70 17203612567252271022
21033648 144 16558451102761757984
21033648 29 18130493185312322232
21792961 116 18130517332535942502
23402539 116 18410292554005791103
23559900 14 18192448380477826590
27216 239 18201714076691960837
314194 84 14273460288344505192
497634 4 16702012140971254973
5104073 3 18262798454374327170
5265222 85 18263383498505130726
57724786 102 17346607408582064688
5924683 9 18128812139012359759
602551 16 18186521016677122986
90127 26 18343862221591655356
9981440 41 18261393279109887883
9995097 60 18272370845972116294

> <PUBCHEM_SHAPE_MULTIPOLES>
449.34
13
2.56
1.56
13.98
0.48
-0.08
2.8
5.59
-3.57
-0.06
0.34
0
2.48

> <PUBCHEM_SHAPE_SELFOVERLAP>
972.507

> <PUBCHEM_SHAPE_VOLUME>
247

> <PUBCHEM_COORDINATE_TYPE>
2
5
10

$$$$
