301935
  -OEChem-01171809533D

 76 83  0     1  0  0  0  0  0999 V2000
   -1.2287   -0.4610    0.8001 O   0  0  0  0  0  0  0  0  0  0  0  0
   -1.4256   -2.5512   -1.1179 O   0  0  0  0  0  0  0  0  0  0  0  0
   -3.7883   -3.0316   -2.3598 O   0  0  0  0  0  0  0  0  0  0  0  0
    2.5329    3.2482   -0.6268 O   0  0  0  0  0  0  0  0  0  0  0  0
    4.6506    2.7533   -2.2531 O   0  0  0  0  0  0  0  0  0  0  0  0
   -4.6923    1.6726    1.9378 N   0  0  1  0  0  0  0  0  0  0  0  0
    4.4299   -2.7974    1.5209 N   0  0  0  0  0  0  0  0  0  0  0  0
   -3.4174    1.3729    1.2381 C   0  0  1  0  0  0  0  0  0  0  0  0
   -3.5083    0.1299    0.3579 C   0  0  0  0  0  0  0  0  0  0  0  0
   -4.7393   -0.1880   -0.2565 C   0  0  0  0  0  0  0  0  0  0  0  0
   -5.8171    1.7629    1.0003 C   0  0  0  0  0  0  0  0  0  0  0  0
   -6.0147    0.5186    0.1326 C   0  0  0  0  0  0  0  0  0  0  0  0
   -3.0178    2.6203    0.3935 C   0  0  0  0  0  0  0  0  0  0  0  0
   -2.3958   -0.6943    0.1075 C   0  0  0  0  0  0  0  0  0  0  0  0
    3.2998   -1.9911    2.0250 C   0  0  2  0  0  0  0  0  0  0  0  0
    2.0452   -2.0855    1.1609 C   0  0  0  0  0  0  0  0  0  0  0  0
    1.9299   -3.1140    0.2019 C   0  0  0  0  0  0  0  0  0  0  0  0
   -2.4897   -1.7425   -0.8115 C   0  0  0  0  0  0  0  0  0  0  0  0
    3.0645   -4.0773   -0.0327 C   0  0  0  0  0  0  0  0  0  0  0  0
   -4.8167   -1.2523   -1.1668 C   0  0  0  0  0  0  0  0  0  0  0  0
    4.0111   -4.1457    1.1593 C   0  0  0  0  0  0  0  0  0  0  0  0
   -4.9582    0.7484    3.0393 C   0  0  0  0  0  0  0  0  0  0  0  0
   -0.2055   -1.3508    0.5840 C   0  0  0  0  0  0  0  0  0  0  0  0
    3.8193   -0.5554    2.2955 C   0  0  0  0  0  0  0  0  0  0  0  0
   -0.2979   -2.3586   -0.3666 C   0  0  0  0  0  0  0  0  0  0  0  0
    0.9512   -1.2231    1.3570 C   0  0  0  0  0  0  0  0  0  0  0  0
   -3.6904   -2.0130   -1.4612 C   0  0  0  0  0  0  0  0  0  0  0  0
   -1.5401    2.7672    0.1189 C   0  0  0  0  0  0  0  0  0  0  0  0
    0.7655   -3.2331   -0.5686 C   0  0  0  0  0  0  0  0  0  0  0  0
    4.0504    0.3122    1.0781 C   0  0  0  0  0  0  0  0  0  0  0  0
   -0.7273    3.4680    1.0222 C   0  0  0  0  0  0  0  0  0  0  0  0
   -0.9674    2.2375   -1.0466 C   0  0  0  0  0  0  0  0  0  0  0  0
    3.1708    1.3695    0.8055 C   0  0  0  0  0  0  0  0  0  0  0  0
    5.1362    0.1017    0.2197 C   0  0  0  0  0  0  0  0  0  0  0  0
    0.6315    3.6415    0.7649 C   0  0  0  0  0  0  0  0  0  0  0  0
    0.3977    2.3829   -1.2945 C   0  0  0  0  0  0  0  0  0  0  0  0
    1.1917    3.0730   -0.3786 C   0  0  0  0  0  0  0  0  0  0  0  0
    3.3511    2.1798   -0.3206 C   0  0  0  0  0  0  0  0  0  0  0  0
    5.3290    0.9228   -0.8939 C   0  0  0  0  0  0  0  0  0  0  0  0
    4.4404    1.9629   -1.1635 C   0  0  0  0  0  0  0  0  0  0  0  0
   -3.5073   -2.7224   -3.7236 C   0  0  0  0  0  0  0  0  0  0  0  0
    4.0471    2.3420   -3.4782 C   0  0  0  0  0  0  0  0  0  0  0  0
   -2.6515    1.2213    2.0099 H   0  0  0  0  0  0  0  0  0  0  0  0
   -5.6681    2.6306    0.3457 H   0  0  0  0  0  0  0  0  0  0  0  0
   -6.7472    1.9881    1.5380 H   0  0  0  0  0  0  0  0  0  0  0  0
   -6.5687    0.8005   -0.7710 H   0  0  0  0  0  0  0  0  0  0  0  0
   -6.6324   -0.2003    0.6864 H   0  0  0  0  0  0  0  0  0  0  0  0
   -3.3321    3.5344    0.9185 H   0  0  0  0  0  0  0  0  0  0  0  0
   -3.5548    2.6411   -0.5648 H   0  0  0  0  0  0  0  0  0  0  0  0
    3.0232   -2.4146    3.0015 H   0  0  0  0  0  0  0  0  0  0  0  0
    2.6694   -5.0818   -0.2254 H   0  0  0  0  0  0  0  0  0  0  0  0
    3.6108   -3.7555   -0.9285 H   0  0  0  0  0  0  0  0  0  0  0  0
   -5.7675   -1.4946   -1.6367 H   0  0  0  0  0  0  0  0  0  0  0  0
    3.5373   -4.6450    2.0138 H   0  0  0  0  0  0  0  0  0  0  0  0
    4.8904   -4.7397    0.8868 H   0  0  0  0  0  0  0  0  0  0  0  0
    5.1545   -2.8447    2.2369 H   0  0  0  0  0  0  0  0  0  0  0  0
   -5.0812   -0.2899    2.7145 H   0  0  0  0  0  0  0  0  0  0  0  0
   -5.8658    1.0464    3.5760 H   0  0  0  0  0  0  0  0  0  0  0  0
   -4.1426    0.7815    3.7702 H   0  0  0  0  0  0  0  0  0  0  0  0
    4.7557   -0.5960    2.8701 H   0  0  0  0  0  0  0  0  0  0  0  0
    3.1162   -0.0468    2.9691 H   0  0  0  0  0  0  0  0  0  0  0  0
    0.9893   -0.4513    2.1211 H   0  0  0  0  0  0  0  0  0  0  0  0
    0.6846   -4.0203   -1.3147 H   0  0  0  0  0  0  0  0  0  0  0  0
   -1.1538    3.8959    1.9262 H   0  0  0  0  0  0  0  0  0  0  0  0
   -1.5821    1.7062   -1.7687 H   0  0  0  0  0  0  0  0  0  0  0  0
    2.3507    1.5566    1.4929 H   0  0  0  0  0  0  0  0  0  0  0  0
    5.8509   -0.6929    0.4143 H   0  0  0  0  0  0  0  0  0  0  0  0
    1.2476    4.1979    1.4654 H   0  0  0  0  0  0  0  0  0  0  0  0
    0.8274    1.9614   -2.1981 H   0  0  0  0  0  0  0  0  0  0  0  0
    6.1810    0.7469   -1.5455 H   0  0  0  0  0  0  0  0  0  0  0  0
   -3.6207   -3.6366   -4.3126 H   0  0  0  0  0  0  0  0  0  0  0  0
   -2.4802   -2.3603   -3.8336 H   0  0  0  0  0  0  0  0  0  0  0  0
   -4.2119   -1.9738   -4.0993 H   0  0  0  0  0  0  0  0  0  0  0  0
    4.3894    1.3411   -3.7601 H   0  0  0  0  0  0  0  0  0  0  0  0
    4.3461    3.0459   -4.2597 H   0  0  0  0  0  0  0  0  0  0  0  0
    2.9568    2.3566   -3.3951 H   0  0  0  0  0  0  0  0  0  0  0  0
  1 14  1  0  0  0  0
  1 23  1  0  0  0  0
  2 18  1  0  0  0  0
  2 25  1  0  0  0  0
  3 27  1  0  0  0  0
  3 41  1  0  0  0  0
  4 37  1  0  0  0  0
  4 38  1  0  0  0  0
  5 40  1  0  0  0  0
  5 42  1  0  0  0  0
  6  8  1  0  0  0  0
  6 11  1  0  0  0  0
  6 22  1  0  0  0  0
  7 15  1  0  0  0  0
  7 21  1  0  0  0  0
  7 56  1  0  0  0  0
  8  9  1  0  0  0  0
  8 13  1  0  0  0  0
  8 43  1  0  0  0  0
  9 10  1  0  0  0  0
  9 14  2  0  0  0  0
 10 12  1  0  0  0  0
 10 20  2  0  0  0  0
 11 12  1  0  0  0  0
 11 44  1  0  0  0  0
 11 45  1  0  0  0  0
 12 46  1  0  0  0  0
 12 47  1  0  0  0  0
 13 28  1  0  0  0  0
 13 48  1  0  0  0  0
 13 49  1  0  0  0  0
 14 18  1  0  0  0  0
 15 16  1  0  0  0  0
 15 24  1  0  0  0  0
 15 50  1  0  0  0  0
 16 17  1  0  0  0  0
 16 26  2  0  0  0  0
 17 19  1  0  0  0  0
 17 29  2  0  0  0  0
 18 27  2  0  0  0  0
 19 21  1  0  0  0  0
 19 51  1  0  0  0  0
 19 52  1  0  0  0  0
 20 27  1  0  0  0  0
 20 53  1  0  0  0  0
 21 54  1  0  0  0  0
 21 55  1  0  0  0  0
 22 57  1  0  0  0  0
 22 58  1  0  0  0  0
 22 59  1  0  0  0  0
 23 25  2  0  0  0  0
 23 26  1  0  0  0  0
 24 30  1  0  0  0  0
 24 60  1  0  0  0  0
 24 61  1  0  0  0  0
 25 29  1  0  0  0  0
 26 62  1  0  0  0  0
 28 31  2  0  0  0  0
 28 32  1  0  0  0  0
 29 63  1  0  0  0  0
 30 33  2  0  0  0  0
 30 34  1  0  0  0  0
 31 35  1  0  0  0  0
 31 64  1  0  0  0  0
 32 36  2  0  0  0  0
 32 65  1  0  0  0  0
 33 38  1  0  0  0  0
 33 66  1  0  0  0  0
 34 39  2  0  0  0  0
 34 67  1  0  0  0  0
 35 37  2  0  0  0  0
 35 68  1  0  0  0  0
 36 37  1  0  0  0  0
 36 69  1  0  0  0  0
 38 40  2  0  0  0  0
 39 40  1  0  0  0  0
 39 70  1  0  0  0  0
 41 71  1  0  0  0  0
 41 72  1  0  0  0  0
 41 73  1  0  0  0  0
 42 74  1  0  0  0  0
 42 75  1  0  0  0  0
 42 76  1  0  0  0  0
M  END
> <PUBCHEM_COMPOUND_CID>
301935

> <PUBCHEM_CONFORMER_RMSD>
0.8

> <PUBCHEM_CONFORMER_DIVERSEORDER>
1
7
4
16
18
3
10
12
8
9
6
15
19
14
11
13
17
2
5

> <PUBCHEM_MMFF94_PARTIAL_CHARGES>
53
1 -0.17
10 -0.14
11 0.27
12 0.14
13 0.14
14 0.08
15 0.41
16 -0.14
17 -0.14
18 0.08
19 0.14
2 -0.17
20 -0.15
21 0.27
22 0.27
23 0.08
24 0.14
25 0.08
26 -0.15
27 0.08
28 -0.14
29 -0.15
3 -0.36
30 -0.14
31 -0.15
32 -0.15
33 -0.15
34 -0.15
35 -0.15
36 -0.15
37 0.08
38 0.08
39 -0.15
4 -0.17
40 0.08
41 0.28
42 0.28
5 -0.36
53 0.15
56 0.36
6 -0.81
62 0.15
63 0.15
64 0.15
65 0.15
66 0.15
67 0.15
68 0.15
69 0.15
7 -0.9
70 0.15
8 0.41
9 -0.14

> <PUBCHEM_EFFECTIVE_ROTOR_COUNT>
4.2

> <PUBCHEM_PHARMACOPHORE_FEATURES>
15
1 1 acceptor
1 2 acceptor
1 3 acceptor
1 4 acceptor
1 5 acceptor
1 6 cation
1 7 cation
1 7 donor
6 1 2 14 18 23 25 rings
6 16 17 23 25 26 29 rings
6 28 31 32 35 36 37 rings
6 30 33 34 38 39 40 rings
6 6 8 9 10 11 12 rings
6 7 15 16 17 19 21 rings
6 9 10 14 18 20 27 rings

> <PUBCHEM_HEAVY_ATOM_COUNT>
42

> <PUBCHEM_ATOM_DEF_STEREO_COUNT>
0

> <PUBCHEM_ATOM_UDEF_STEREO_COUNT>
2

> <PUBCHEM_BOND_DEF_STEREO_COUNT>
0

> <PUBCHEM_BOND_UDEF_STEREO_COUNT>
0

> <PUBCHEM_ISOTOPIC_ATOM_COUNT>
0

> <PUBCHEM_COMPONENT_COUNT>
1

> <PUBCHEM_CACTVS_TAUTO_COUNT>
1

> <PUBCHEM_CONFORMER_ID>
00049B6F00000001

> <PUBCHEM_MMFF94_ENERGY>
161.0892

> <PUBCHEM_FEATURE_SELFOVERLAP>
76.257

> <PUBCHEM_SHAPE_FINGERPRINT>
10675989 125 18334864969677000652
10928967 22 18341897419523883161
11135926 11 17677615427285082068
11285246 1 17694504049834696079
11399939 17 16116308550106675097
11513181 2 18342174419640576430
12107698 1 18044937870409326938
12422481 6 18192717748226572673
12788726 201 18341067266923595824
14117953 113 17981879745075390325
14394314 77 18412824698640150361
14705955 166 13912592879764025444
14840074 17 18335147496535407745
15001296 14 18336260266368530640
15021287 119 18190451658867088354
15297060 5 17846508031855101538
15351339 4 17474647920884759043
17627616 140 18408609166504819788
19319366 153 17967818301447774216
20737093 15 17329658239715418045
20764821 26 18340199674917737606
21857420 4 15256593244627487806
21927370 108 17607235469127208666
25019877 29 16915642698105193855
437795 70 18129405781550314260
45266715 3 17477459367869299925
463206 1 18337672017744520457
46939830 39 14676308927689832329
474144 1 18334572456132685504
5265222 85 18045243757996745300
581034 39 17917710163223967863
6287921 2 18055074254972646706
6700243 42 16915663802925828327

> <PUBCHEM_SHAPE_MULTIPOLES>
825.03
12.34
5.67
2.58
4.49
1.18
-1.45
-0.75
0.75
-3.93
-1.34
0.46
0.36
-6.2

> <PUBCHEM_SHAPE_SELFOVERLAP>
1852.911

> <PUBCHEM_SHAPE_VOLUME>
431.6

> <PUBCHEM_COORDINATE_TYPE>
2
5
10

$$$$
