1479777
  -OEChem-01171809483D

 30 32  0     0  0  0  0  0  0999 V2000
    2.4913    1.4468    1.4788 S   0  0  0  0  0  0  0  0  0  0  0  0
    4.4114   -0.7208    0.6748 S   0  0  0  0  0  0  0  0  0  0  0  0
   -0.2418   -1.4335   -0.5624 O   0  0  0  0  0  0  0  0  0  0  0  0
   -1.4710    2.5344   -0.5202 O   0  0  0  0  0  0  0  0  0  0  0  0
    0.1800    0.8605   -0.5633 N   0  0  0  0  0  0  0  0  0  0  0  0
    1.1902    1.8302   -1.0081 C   0  0  0  0  0  0  0  0  0  0  0  0
    1.8734    2.5354    0.1598 C   0  0  0  0  0  0  0  0  0  0  0  0
    1.9702   -0.7954   -0.1685 C   0  0  0  0  0  0  0  0  0  0  0  0
    0.5514   -0.5028   -0.4202 C   0  0  0  0  0  0  0  0  0  0  0  0
    2.8444   -0.0324    0.5934 C   0  0  0  0  0  0  0  0  0  0  0  0
   -1.1363    1.3563   -0.3990 C   0  0  0  0  0  0  0  0  0  0  0  0
   -2.2019    0.3965   -0.0504 C   0  0  0  0  0  0  0  0  0  0  0  0
    2.6255   -1.9808   -0.6509 C   0  0  0  0  0  0  0  0  0  0  0  0
    3.9481   -2.0531   -0.2811 C   0  0  0  0  0  0  0  0  0  0  0  0
   -2.4852    0.1322    1.2868 C   0  0  0  0  0  0  0  0  0  0  0  0
   -2.9183   -0.2392   -1.0608 C   0  0  0  0  0  0  0  0  0  0  0  0
   -3.4926   -0.7747    1.6160 C   0  0  0  0  0  0  0  0  0  0  0  0
   -3.9258   -1.1459   -0.7316 C   0  0  0  0  0  0  0  0  0  0  0  0
   -4.2130   -1.4138    0.6069 C   0  0  0  0  0  0  0  0  0  0  0  0
    0.7102    2.5857   -1.6421 H   0  0  0  0  0  0  0  0  0  0  0  0
    1.9282    1.3321   -1.6483 H   0  0  0  0  0  0  0  0  0  0  0  0
    2.7115    3.1309   -0.2174 H   0  0  0  0  0  0  0  0  0  0  0  0
    1.1722    3.2328    0.6309 H   0  0  0  0  0  0  0  0  0  0  0  0
    2.1456   -2.7411   -1.2547 H   0  0  0  0  0  0  0  0  0  0  0  0
    4.6582   -2.8312   -0.5226 H   0  0  0  0  0  0  0  0  0  0  0  0
   -1.9288    0.6247    2.0799 H   0  0  0  0  0  0  0  0  0  0  0  0
   -2.7019   -0.0371   -2.1065 H   0  0  0  0  0  0  0  0  0  0  0  0
   -3.7159   -0.9835    2.6581 H   0  0  0  0  0  0  0  0  0  0  0  0
   -4.4865   -1.6437   -1.5174 H   0  0  0  0  0  0  0  0  0  0  0  0
   -4.9972   -2.1200    0.8632 H   0  0  0  0  0  0  0  0  0  0  0  0
  1  7  1  0  0  0  0
  1 10  1  0  0  0  0
  2 10  1  0  0  0  0
  2 14  1  0  0  0  0
  3  9  2  0  0  0  0
  4 11  2  0  0  0  0
  5  6  1  0  0  0  0
  5  9  1  0  0  0  0
  5 11  1  0  0  0  0
  6  7  1  0  0  0  0
  6 20  1  0  0  0  0
  6 21  1  0  0  0  0
  7 22  1  0  0  0  0
  7 23  1  0  0  0  0
  8  9  1  0  0  0  0
  8 10  2  0  0  0  0
  8 13  1  0  0  0  0
 11 12  1  0  0  0  0
 12 15  2  0  0  0  0
 12 16  1  0  0  0  0
 13 14  2  0  0  0  0
 13 24  1  0  0  0  0
 14 25  1  0  0  0  0
 15 17  1  0  0  0  0
 15 26  1  0  0  0  0
 16 18  2  0  0  0  0
 16 27  1  0  0  0  0
 17 19  2  0  0  0  0
 17 28  1  0  0  0  0
 18 19  1  0  0  0  0
 18 29  1  0  0  0  0
 19 30  1  0  0  0  0
M  END
> <PUBCHEM_COMPOUND_CID>
1479777

> <PUBCHEM_CONFORMER_RMSD>
0.6

> <PUBCHEM_CONFORMER_DIVERSEORDER>
2
9
11
7
19
21
10
13
14
5
20
22
3
4
6
8
1
12
18
16
15
17

> <PUBCHEM_MMFF94_PARTIAL_CHARGES>
26
1 -0.29
10 0.1
11 0.54
12 0.09
13 -0.15
14 -0.11
15 -0.15
16 -0.15
17 -0.15
18 -0.15
19 -0.15
2 -0.08
24 0.15
25 0.15
26 0.15
27 0.15
28 0.15
29 0.15
3 -0.57
30 0.15
4 -0.57
5 -0.42
6 0.3
7 0.23
8 -0.09
9 0.72

> <PUBCHEM_EFFECTIVE_ROTOR_COUNT>
2.8

> <PUBCHEM_PHARMACOPHORE_FEATURES>
5
1 3 acceptor
1 4 acceptor
5 2 8 10 13 14 rings
6 12 15 16 17 18 19 rings
7 1 5 6 7 8 9 10 rings

> <PUBCHEM_HEAVY_ATOM_COUNT>
19

> <PUBCHEM_ATOM_DEF_STEREO_COUNT>
0

> <PUBCHEM_ATOM_UDEF_STEREO_COUNT>
0

> <PUBCHEM_BOND_DEF_STEREO_COUNT>
0

> <PUBCHEM_BOND_UDEF_STEREO_COUNT>
0

> <PUBCHEM_ISOTOPIC_ATOM_COUNT>
0

> <PUBCHEM_COMPONENT_COUNT>
1

> <PUBCHEM_CACTVS_TAUTO_COUNT>
1

> <PUBCHEM_CONFORMER_ID>
0016946100000002

> <PUBCHEM_MMFF94_ENERGY>
58.7191

> <PUBCHEM_FEATURE_SELFOVERLAP>
25.397

> <PUBCHEM_SHAPE_FINGERPRINT>
10366900 7 18334297569636021490
11471102 22 18411700997475948488
11543360 7 15213312931904557558
11578080 2 17559363995320960409
12251169 10 18060701697249407239
12363563 72 18114186328012291563
12553582 1 18337969925329344127
12633257 1 17489594450092869787
12707595 3 17894353288811475323
12892183 10 17274815823222132730
13140716 1 18196086874997023050
13224815 77 18340772632213633829
13296908 3 18114179765618618323
13533116 47 18200878491205606723
13544653 18 18410856521333353990
13583140 156 14691993718347039910
13693222 15 18343017800518569337
14223421 5 18411694379021256464
14251764 30 17487917622426543998
14341114 328 16773802553578177299
14787075 74 18261399962021010170
14790565 3 17688874563286403724
15527383 91 18341342114791252625
16752209 62 16877936131724377483
16945 1 18412260674954596636
17357779 13 18335406950781762445
17834072 14 18261382373818761629
1813 80 18199485297992633958
18785283 64 18270952570746688776
200 152 17988349417463791255
20645477 70 18261945371006241455
20671657 53 17458062672616011405
23557571 272 16805876416067791541
23559900 14 17603301583039572470
23590187 214 18202278143104809391
2748010 2 18267851801415619708
31174 14 18343298206011831608
3286 77 17775562074221781723
3737641 26 17700711566574559310
5104073 3 18268701707119615306
7364860 26 18340768260163961812
81228 2 18042685005639216357
9709674 26 18188204407502143221

> <PUBCHEM_SHAPE_MULTIPOLES>
381.99
8.04
2.47
1.27
1.72
0.9
-0.37
-4.58
-1.82
-1.51
0.4
0.51
0.11
0.7

> <PUBCHEM_SHAPE_SELFOVERLAP>
806.283

> <PUBCHEM_SHAPE_VOLUME>
213.4

> <PUBCHEM_COORDINATE_TYPE>
2
5
10

$$$$
