5075478
  -OEChem-01171810053D

 52 54  0     1  0  0  0  0  0999 V2000
   -1.5285   -1.4683    0.1391 S   0  0  2  0  0  0  0  0  0  0  0  0
    2.9223   -1.9017   -0.9635 O   0  0  0  0  0  0  0  0  0  0  0  0
   -1.6910   -1.9161   -1.2818 O   0  0  0  0  0  0  0  0  0  0  0  0
   -4.8677   -2.0926   -0.1863 O   0  0  0  0  0  0  0  0  0  0  0  0
    1.8626   -1.0594    0.8483 N   0  0  0  0  0  0  0  0  0  0  0  0
   -4.5269   -0.5517    1.5184 N   0  0  0  0  0  0  0  0  0  0  0  0
    1.1249   -2.0523    0.2811 C   0  0  0  0  0  0  0  0  0  0  0  0
   -0.1888   -2.4400    0.8688 C   0  0  0  0  0  0  0  0  0  0  0  0
    1.7462   -2.5716   -0.8112 C   0  0  0  0  0  0  0  0  0  0  0  0
    2.9187   -1.0136    0.0680 C   0  0  0  0  0  0  0  0  0  0  0  0
    4.0723   -0.1608    0.1449 C   0  0  0  0  0  0  0  0  0  0  0  0
    6.3164    1.4993    0.2951 C   0  0  0  0  0  0  0  0  0  0  0  0
   -2.8549   -2.2422    1.1042 C   0  0  0  0  0  0  0  0  0  0  0  0
    4.1764    0.7903    1.1639 C   0  0  0  0  0  0  0  0  0  0  0  0
    5.0970   -0.2769   -0.7985 C   0  0  0  0  0  0  0  0  0  0  0  0
    7.5135    2.3847    0.3754 C   0  0  0  0  0  0  0  0  0  0  0  0
    5.2961    1.6187    1.2387 C   0  0  0  0  0  0  0  0  0  0  0  0
    6.2168    0.5514   -0.7235 C   0  0  0  0  0  0  0  0  0  0  0  0
    1.4443   -3.6219   -1.7896 C   0  0  0  0  0  0  0  0  0  0  0  0
   -5.7488    0.1970    1.3334 C   0  0  0  0  0  0  0  0  0  0  0  0
   -4.1890   -1.6421    0.7349 C   0  0  0  0  0  0  0  0  0  0  0  0
   -5.5711    1.3327    0.3676 C   0  0  0  0  0  0  0  0  0  0  0  0
    7.3324    3.6792   -0.4134 C   0  0  0  0  0  0  0  0  0  0  0  0
   -5.1820    2.5813    0.8383 C   0  0  0  0  0  0  0  0  0  0  0  0
   -5.7978    1.1245   -0.9878 C   0  0  0  0  0  0  0  0  0  0  0  0
   -5.0173    3.6366   -0.0588 C   0  0  0  0  0  0  0  0  0  0  0  0
   -5.6331    2.1796   -1.8852 C   0  0  0  0  0  0  0  0  0  0  0  0
   -5.2429    3.4357   -1.4205 C   0  0  0  0  0  0  0  0  0  0  0  0
   -0.3888   -3.5040    0.7065 H   0  0  0  0  0  0  0  0  0  0  0  0
   -0.1790   -2.2561    1.9483 H   0  0  0  0  0  0  0  0  0  0  0  0
   -2.8780   -3.3165    0.8969 H   0  0  0  0  0  0  0  0  0  0  0  0
   -2.6510   -2.0980    2.1697 H   0  0  0  0  0  0  0  0  0  0  0  0
    3.3936    0.9023    1.9105 H   0  0  0  0  0  0  0  0  0  0  0  0
    5.0568   -1.0022   -1.6073 H   0  0  0  0  0  0  0  0  0  0  0  0
    7.7320    2.6249    1.4235 H   0  0  0  0  0  0  0  0  0  0  0  0
    8.3982    1.8529    0.0036 H   0  0  0  0  0  0  0  0  0  0  0  0
    5.3611    2.3545    2.0359 H   0  0  0  0  0  0  0  0  0  0  0  0
    7.0044    0.4501   -1.4657 H   0  0  0  0  0  0  0  0  0  0  0  0
    2.2760   -4.3291   -1.8651 H   0  0  0  0  0  0  0  0  0  0  0  0
    1.2749   -3.1851   -2.7785 H   0  0  0  0  0  0  0  0  0  0  0  0
    0.5487   -4.1851   -1.5111 H   0  0  0  0  0  0  0  0  0  0  0  0
   -6.5420   -0.4773    0.9888 H   0  0  0  0  0  0  0  0  0  0  0  0
   -6.0568    0.5716    2.3163 H   0  0  0  0  0  0  0  0  0  0  0  0
   -3.8840   -0.2364    2.2389 H   0  0  0  0  0  0  0  0  0  0  0  0
    7.1568    3.4748   -1.4749 H   0  0  0  0  0  0  0  0  0  0  0  0
    8.2296    4.3007   -0.3303 H   0  0  0  0  0  0  0  0  0  0  0  0
    6.4818    4.2571   -0.0363 H   0  0  0  0  0  0  0  0  0  0  0  0
   -5.0018    2.7486    1.8966 H   0  0  0  0  0  0  0  0  0  0  0  0
   -6.1052    0.1525   -1.3626 H   0  0  0  0  0  0  0  0  0  0  0  0
   -4.7130    4.6145    0.3027 H   0  0  0  0  0  0  0  0  0  0  0  0
   -5.8093    2.0236   -2.9454 H   0  0  0  0  0  0  0  0  0  0  0  0
   -5.1147    4.2573   -2.1191 H   0  0  0  0  0  0  0  0  0  0  0  0
  1  3  2  0  0  0  0
  1  8  1  0  0  0  0
  1 13  1  0  0  0  0
  2  9  1  0  0  0  0
  2 10  1  0  0  0  0
  4 21  2  0  0  0  0
  5  7  1  0  0  0  0
  5 10  2  0  0  0  0
  6 20  1  0  0  0  0
  6 21  1  0  0  0  0
  6 44  1  0  0  0  0
  7  8  1  0  0  0  0
  7  9  2  0  0  0  0
  8 29  1  0  0  0  0
  8 30  1  0  0  0  0
  9 19  1  0  0  0  0
 10 11  1  0  0  0  0
 11 14  2  0  0  0  0
 11 15  1  0  0  0  0
 12 16  1  0  0  0  0
 12 17  2  0  0  0  0
 12 18  1  0  0  0  0
 13 21  1  0  0  0  0
 13 31  1  0  0  0  0
 13 32  1  0  0  0  0
 14 17  1  0  0  0  0
 14 33  1  0  0  0  0
 15 18  2  0  0  0  0
 15 34  1  0  0  0  0
 16 23  1  0  0  0  0
 16 35  1  0  0  0  0
 16 36  1  0  0  0  0
 17 37  1  0  0  0  0
 18 38  1  0  0  0  0
 19 39  1  0  0  0  0
 19 40  1  0  0  0  0
 19 41  1  0  0  0  0
 20 22  1  0  0  0  0
 20 42  1  0  0  0  0
 20 43  1  0  0  0  0
 22 24  2  0  0  0  0
 22 25  1  0  0  0  0
 23 45  1  0  0  0  0
 23 46  1  0  0  0  0
 23 47  1  0  0  0  0
 24 26  1  0  0  0  0
 24 48  1  0  0  0  0
 25 27  2  0  0  0  0
 25 49  1  0  0  0  0
 26 28  2  0  0  0  0
 26 50  1  0  0  0  0
 27 28  1  0  0  0  0
 27 51  1  0  0  0  0
 28 52  1  0  0  0  0
M  END
> <PUBCHEM_COMPOUND_CID>
5075478

> <PUBCHEM_CONFORMER_RMSD>
1

> <PUBCHEM_CONFORMER_DIVERSEORDER>
2
31
194
185
56
46
95
193
103
58
43
151
84
77
71
226
41
129
69
139
97
215
65
94
128
81
91
76
29
50
90
174
203
1
59
110
16
126
98
132
119
57
166
117
30
144
131
38
171
150
212
154
3
67
228
23
102
184
74
122
113
17
9
196
149
175
87
28
108
223
118
163
133
101
4
85
13
167
78
104
206
147
22
114
39
72
176
202
33
159
188
6
105
86
165
73
5
35
96
224
8
130
187
21
116
19
80
15
172
169
218
27
162
7
135
89
92
198
143
37
210
180
24
45
214
47
12
62
217
10
44
137
168
123
138
14
36
25
120
205
178
48
164
18
93
156
173
222
112
100
145
191
186
192
11
170
68
40
55
124
106
42
99
146
199
34
211
148
61
219
53
201
79
20
157
183
54
134
190
207
121
66
52
32
181
213
221
209
200
140
177
26
160
88
63
83
216
75
189
141
51
158
142
60
225
115
179
49
182
82
64
125
152
111
127
227
208
109
153
70
195
204
197
161
136
220
155
107

> <PUBCHEM_MMFF94_PARTIAL_CHARGES>
37
1 0.11
10 0.43
11 0.05
12 -0.14
13 0.25
14 -0.15
15 -0.15
16 0.14
17 -0.15
18 -0.15
19 0.18
2 -0.28
20 0.44
21 0.57
22 -0.14
24 -0.15
25 -0.15
26 -0.15
27 -0.15
28 -0.15
3 -0.5
33 0.15
34 0.15
37 0.15
38 0.15
4 -0.57
44 0.37
48 0.15
49 0.15
5 -0.57
50 0.15
51 0.15
52 0.15
6 -0.73
7 0.05
8 0.37
9 -0.04

> <PUBCHEM_EFFECTIVE_ROTOR_COUNT>
9

> <PUBCHEM_PHARMACOPHORE_FEATURES>
7
1 23 hydrophobe
1 3 acceptor
1 4 acceptor
1 6 donor
5 2 5 7 9 10 rings
6 11 12 14 15 17 18 rings
6 22 24 25 26 27 28 rings

> <PUBCHEM_HEAVY_ATOM_COUNT>
28

> <PUBCHEM_ATOM_DEF_STEREO_COUNT>
0

> <PUBCHEM_ATOM_UDEF_STEREO_COUNT>
1

> <PUBCHEM_BOND_DEF_STEREO_COUNT>
0

> <PUBCHEM_BOND_UDEF_STEREO_COUNT>
0

> <PUBCHEM_ISOTOPIC_ATOM_COUNT>
0

> <PUBCHEM_COMPONENT_COUNT>
1

> <PUBCHEM_CACTVS_TAUTO_COUNT>
2

> <PUBCHEM_CONFORMER_ID>
004D721600000002

> <PUBCHEM_MMFF94_ENERGY>
44.4292

> <PUBCHEM_FEATURE_SELFOVERLAP>
35.522

> <PUBCHEM_SHAPE_FINGERPRINT>
10554248 39 17417820491753689030
10883706 163 18041558151996524173
10883706 89 17824243931369491378
11135609 201 18334293171958788571
11720765 8 17690564087161348407
12013929 29 17770512940955733681
12655364 74 17976825612272127300
12857493 111 17981047410699710094
13257819 101 18342741814452593263
13690498 29 16772378737808339471
14294032 229 18268987751951824636
14428016 30 18334576858247713484
14647877 103 18040157309984652604
14951699 99 18187651275469407901
15183329 4 15626226823050326236
15575132 122 18342458174796073194
15684393 108 13110669597289503169
1768 210 18263071142655025941
20058555 10 18409729551748020345
21033648 144 18343306955451199979
21307412 95 10735880530951668595
21388113 180 18341328882223847367
21424621 283 18259987110911977074
21792965 326 18265032803820402293
21968339 14 17916858007247422746
22122407 14 17677625326873293888
22956985 138 17033340264257016859
23516275 100 18335133159766633469
23569914 2 17909224162124253272
2748736 6 18335975394019837169
2838139 119 18341607088308673303
3418910 222 17684101552938605463
3525247 154 18272365373704845144
3610482 184 16414641433158178417
3862424 121 12462708746351168381
3918712 181 18260820463517101037
393628 179 18270948159288105800
437795 83 18341325682394246789
44249763 50 18129648807489543811
636775 72 18337110197921652168
6636798 310 15069486963238356417
999808 66 9007060166578276385

> <PUBCHEM_SHAPE_MULTIPOLES>
552.51
21.92
4.89
1.51
10.75
1.68
-0.3
25.97
-0.08
-1.38
-1.48
-1.27
-0.13
2.87

> <PUBCHEM_SHAPE_SELFOVERLAP>
1160.385

> <PUBCHEM_SHAPE_VOLUME>
313.2

> <PUBCHEM_COORDINATE_TYPE>
2
5
10

$$$$
