4409404
  -OEChem-01171809503D

 46 48  0     0  0  0  0  0  0999 V2000
   -5.6944   -0.8180   -0.6935 O   0  0  0  0  0  0  0  0  0  0  0  0
    2.3591    0.3952   -0.6876 O   0  0  0  0  0  0  0  0  0  0  0  0
    0.1990    1.7087    0.1072 O   0  0  0  0  0  0  0  0  0  0  0  0
    3.3849    2.4475   -0.1867 O   0  5  0  0  0  0  0  0  0  0  0  0
    5.5064    2.6597    0.3360 O   0  0  0  0  0  0  0  0  0  0  0  0
   -3.3472   -0.3542    0.9274 N   0  0  0  0  0  0  0  0  0  0  0  0
    5.9139    0.0083    0.0930 N   0  0  0  0  0  0  0  0  0  0  0  0
    4.5188    1.9651    0.0167 N   0  3  0  0  0  0  0  0  0  0  0  0
   -2.3496    0.5645    0.7307 C   0  0  0  0  0  0  0  0  0  0  0  0
   -2.8726   -1.6118    0.6600 C   0  0  0  0  0  0  0  0  0  0  0  0
   -1.2540   -0.1329    0.3404 C   0  0  0  0  0  0  0  0  0  0  0  0
   -4.6967   -0.0443    1.3510 C   0  0  0  0  0  0  0  0  0  0  0  0
   -1.5516   -1.4940    0.2879 C   0  0  0  0  0  0  0  0  0  0  0  0
   -2.5668    2.0124    0.9428 C   0  0  0  0  0  0  0  0  0  0  0  0
   -3.7177   -2.8179    0.7815 C   0  0  0  0  0  0  0  0  0  0  0  0
    0.0435    0.4892    0.0271 C   0  0  0  0  0  0  0  0  0  0  0  0
   -5.5874    0.2093    0.1663 C   0  0  0  0  0  0  0  0  0  0  0  0
    1.2050   -0.3948   -0.4005 C   0  0  0  0  0  0  0  0  0  0  0  0
   -6.3127    1.2874   -0.2078 C   0  0  0  0  0  0  0  0  0  0  0  0
   -6.9385    0.9076   -1.4191 C   0  0  0  0  0  0  0  0  0  0  0  0
   -6.5307   -0.3814   -1.6716 C   0  0  0  0  0  0  0  0  0  0  0  0
    3.5721   -0.1803   -0.4774 C   0  0  0  0  0  0  0  0  0  0  0  0
    4.6945    0.5506   -0.1223 C   0  0  0  0  0  0  0  0  0  0  0  0
    3.7103   -1.5565   -0.6203 C   0  0  0  0  0  0  0  0  0  0  0  0
    6.0098   -1.3321   -0.0554 C   0  0  0  0  0  0  0  0  0  0  0  0
    4.9491   -2.1511   -0.4071 C   0  0  0  0  0  0  0  0  0  0  0  0
    7.3535   -1.9363    0.1813 C   0  0  0  0  0  0  0  0  0  0  0  0
   -4.6752    0.8128    2.0312 H   0  0  0  0  0  0  0  0  0  0  0  0
   -5.0900   -0.8799    1.9381 H   0  0  0  0  0  0  0  0  0  0  0  0
   -0.9034   -2.3153    0.0150 H   0  0  0  0  0  0  0  0  0  0  0  0
   -2.0771    2.6014    0.1609 H   0  0  0  0  0  0  0  0  0  0  0  0
   -2.1549    2.3183    1.9100 H   0  0  0  0  0  0  0  0  0  0  0  0
   -3.6157    2.3143    0.9133 H   0  0  0  0  0  0  0  0  0  0  0  0
   -4.1692   -2.8975    1.7750 H   0  0  0  0  0  0  0  0  0  0  0  0
   -3.1126   -3.7204    0.6380 H   0  0  0  0  0  0  0  0  0  0  0  0
   -4.5060   -2.8433    0.0264 H   0  0  0  0  0  0  0  0  0  0  0  0
    0.9154   -0.9398   -1.3054 H   0  0  0  0  0  0  0  0  0  0  0  0
    1.3883   -1.0832    0.4342 H   0  0  0  0  0  0  0  0  0  0  0  0
   -6.3955    2.2336    0.3071 H   0  0  0  0  0  0  0  0  0  0  0  0
   -7.6034    1.4994   -2.0315 H   0  0  0  0  0  0  0  0  0  0  0  0
   -6.7344   -1.0889   -2.4622 H   0  0  0  0  0  0  0  0  0  0  0  0
    2.8890   -2.1984   -0.9239 H   0  0  0  0  0  0  0  0  0  0  0  0
    5.0712   -3.2229   -0.5216 H   0  0  0  0  0  0  0  0  0  0  0  0
    7.7087   -2.4409   -0.7228 H   0  0  0  0  0  0  0  0  0  0  0  0
    7.3063   -2.6606    1.0007 H   0  0  0  0  0  0  0  0  0  0  0  0
    8.0877   -1.1697    0.4504 H   0  0  0  0  0  0  0  0  0  0  0  0
  1 17  1  0  0  0  0
  1 21  1  0  0  0  0
  2 18  1  0  0  0  0
  2 22  1  0  0  0  0
  3 16  2  0  0  0  0
  4  8  1  0  0  0  0
  5  8  2  0  0  0  0
  6  9  1  0  0  0  0
  6 10  1  0  0  0  0
  6 12  1  0  0  0  0
  7 23  1  0  0  0  0
  7 25  2  0  0  0  0
  8 23  1  0  0  0  0
  9 11  2  0  0  0  0
  9 14  1  0  0  0  0
 10 13  2  0  0  0  0
 10 15  1  0  0  0  0
 11 13  1  0  0  0  0
 11 16  1  0  0  0  0
 12 17  1  0  0  0  0
 12 28  1  0  0  0  0
 12 29  1  0  0  0  0
 13 30  1  0  0  0  0
 14 31  1  0  0  0  0
 14 32  1  0  0  0  0
 14 33  1  0  0  0  0
 15 34  1  0  0  0  0
 15 35  1  0  0  0  0
 15 36  1  0  0  0  0
 16 18  1  0  0  0  0
 17 19  2  0  0  0  0
 18 37  1  0  0  0  0
 18 38  1  0  0  0  0
 19 20  1  0  0  0  0
 19 39  1  0  0  0  0
 20 21  2  0  0  0  0
 20 40  1  0  0  0  0
 21 41  1  0  0  0  0
 22 23  2  0  0  0  0
 22 24  1  0  0  0  0
 24 26  2  0  0  0  0
 24 42  1  0  0  0  0
 25 26  1  0  0  0  0
 25 27  1  0  0  0  0
 26 43  1  0  0  0  0
 27 44  1  0  0  0  0
 27 45  1  0  0  0  0
 27 46  1  0  0  0  0
M  CHG  2   4  -1   8   1
M  END
> <PUBCHEM_COMPOUND_CID>
4409404

> <PUBCHEM_CONFORMER_RMSD>
1

> <PUBCHEM_CONFORMER_DIVERSEORDER>
2
233
258
34
332
136
20
255
306
59
106
157
171
278
95
246
134
11
168
241
179
170
303
323
178
164
195
302
191
280
267
231
3
277
58
322
88
229
131
44
75
333
316
98
66
114
160
28
348
113
353
288
330
216
211
270
282
345
272
261
357
352
354
72
103
275
220
68
222
325
340
153
14
46
1
92
269
230
69
169
73
328
314
31
29
228
305
283
313
291
271
49
33
266
137
248
155
221
327
286
60
115
335
5
76
125
318
102
39
90
197
321
235
320
262
108
78
347
344
188
213
87
337
23
240
351
175
117
53
82
109
205
94
55
299
193
256
273
326
203
52
172
141
10
116
162
250
132
309
148
50
324
43
85
239
312
146
350
22
281
18
65
196
150
89
173
144
184
126
101
217
120
105
223
243
6
238
77
107
295
133
149
294
154
12
48
268
336
254
64
215
70
158
176
244
227
349
4
96
122
234
202
7
189
156
214
293
212
242
118
81
264
181
27
200
224
298
135
310
112
204
91
208
42
236
123
19
249
225
100
21
342
129
30
121
319
263
192
159
251
8
128
174
45
182
201
247
198
15
99
300
56
301
308
279
54
284
194
145
74
315
86
47
209
274
9
226
180
187
147
25
346
139
285
343
143
36
130
38
185
140
297
67
51
61
311
24
289
358
259
93
165
317
124
17
218
257
253
151
71
219
304
331
97
110
127
152
338
16
260
37
206
199
32
41
290
13
167
62
245
359
237
329
307
83
341
142
339
80
84
104
119
163
35
111
292
26
356
186
252
166
210
79
287
334
190
63
161
40
265
296
207
177
57
355
276
138
232
183

> <PUBCHEM_MMFF94_PARTIAL_CHARGES>
33
1 -0.28
10 -0.33
11 -0.09
12 0.44
13 -0.15
14 0.18
15 0.18
16 0.6
17 -0.04
18 0.34
19 -0.15
2 -0.36
20 -0.15
21 -0.01
22 0.08
23 0.44
24 -0.15
25 0.17
26 -0.15
27 0.14
3 -0.57
30 0.15
39 0.15
4 -0.52
40 0.15
41 0.15
42 0.15
43 0.15
5 -0.52
6 0.05
7 -0.62
8 0.91
9 -0.33

> <PUBCHEM_EFFECTIVE_ROTOR_COUNT>
7

> <PUBCHEM_PHARMACOPHORE_FEATURES>
11
1 1 acceptor
1 2 acceptor
1 3 acceptor
1 4 acceptor
1 4 anion
1 5 acceptor
1 6 cation
1 7 acceptor
5 1 17 19 20 21 rings
5 6 9 10 11 13 rings
6 7 22 23 24 25 26 rings

> <PUBCHEM_HEAVY_ATOM_COUNT>
27

> <PUBCHEM_ATOM_DEF_STEREO_COUNT>
0

> <PUBCHEM_ATOM_UDEF_STEREO_COUNT>
0

> <PUBCHEM_BOND_DEF_STEREO_COUNT>
0

> <PUBCHEM_BOND_UDEF_STEREO_COUNT>
0

> <PUBCHEM_ISOTOPIC_ATOM_COUNT>
0

> <PUBCHEM_COMPONENT_COUNT>
1

> <PUBCHEM_CACTVS_TAUTO_COUNT>
2

> <PUBCHEM_CONFORMER_ID>
0043483C00000002

> <PUBCHEM_MMFF94_ENERGY>
62.5578

> <PUBCHEM_FEATURE_SELFOVERLAP>
55.962

> <PUBCHEM_SHAPE_FINGERPRINT>
10835480 77 18337106877436977044
11089746 13 18409730642721973783
11315181 36 18334867107768211162
11724838 91 17775280556923132358
11796584 16 17967253117678926914
12107183 9 17908435653957903648
12788726 201 14129051487434675757
13533116 47 18272651242690502568
13878862 14 18340472448660575772
13914758 101 18262234422173464617
14251758 9 17167863067133915133
15183329 4 18114456782593517967
15361156 5 17895488015224336038
15419008 47 17748824094439061965
15461852 350 17132113541921151596
17857418 61 18343586226418279498
19958102 18 18187923946238078111
20028762 73 18059575750599578694
20511986 3 18271235122942356750
21236236 1 18341335475220640993
21279426 13 18335142003134891299
21859007 373 17822279150675899693
22224240 67 17346591951258822038
23081809 10 17561091306122236249
23198884 109 18408318892073776791
23402539 116 18272371945663085525
23559900 14 18339640148153919721
249057 25 17846789481299463312
2747138 104 12031785920521377279
2838139 119 18409449151140510917
3004659 81 18260548918345821610
3009799 131 18408882919721195205
34797466 226 13686295820340836480
3633792 109 18337948996539038937
4015057 19 18343020038603167801
4073 2 18041286577367459938
4258327 124 14548156836284268986
504579 68 18341623637376652844
5104073 3 18269571557670635666
5283173 99 18408600349544103077
559249 180 18260832605173356099
59682541 35 11743541211821407007
59755656 215 17967531229527380706

> <PUBCHEM_SHAPE_MULTIPOLES>
511.36
20.48
2.51
1.06
4.35
0.23
-0.14
-1.79
-4.43
2.29
0.39
-1.9
-0.07
0.68

> <PUBCHEM_SHAPE_SELFOVERLAP>
1110.244

> <PUBCHEM_SHAPE_VOLUME>
281.1

> <PUBCHEM_COORDINATE_TYPE>
2
5
10

$$$$
