4230544
  -OEChem-01171810073D

 54 56  0     0  0  0  0  0  0999 V2000
   -9.2128   -0.2832    1.0653 Cl  0  0  0  0  0  0  0  0  0  0  0  0
    1.4201    1.4564   -0.1216 S   0  0  0  0  0  0  0  0  0  0  0  0
    0.7240   -2.9421   -0.5237 O   0  0  0  0  0  0  0  0  0  0  0  0
    2.4857   -3.2161    0.9176 O   0  0  0  0  0  0  0  0  0  0  0  0
   -1.2884    1.7789   -0.5489 O   0  0  0  0  0  0  0  0  0  0  0  0
   -3.7915    0.8919   -0.8590 O   0  0  0  0  0  0  0  0  0  0  0  0
    5.4911    1.3459    0.5345 N   0  0  0  0  0  0  0  0  0  0  0  0
   -0.4314   -0.4014   -0.2491 N   0  0  0  0  0  0  0  0  0  0  0  0
    5.6779   -0.0378    0.0337 C   0  0  0  0  0  0  0  0  0  0  0  0
    4.1889    2.0159    0.2524 C   0  0  0  0  0  0  0  0  0  0  0  0
    4.5358   -0.9656    0.5243 C   0  0  0  0  0  0  0  0  0  0  0  0
    3.0486    1.0177    0.1629 C   0  0  0  0  0  0  0  0  0  0  0  0
    3.1957   -0.3517    0.2820 C   0  0  0  0  0  0  0  0  0  0  0  0
    5.8085   -0.0894   -1.4994 C   0  0  0  0  0  0  0  0  0  0  0  0
    7.0089   -0.5448    0.6272 C   0  0  0  0  0  0  0  0  0  0  0  0
    4.3273    2.8500   -1.0338 C   0  0  0  0  0  0  0  0  0  0  0  0
    3.9455    2.9903    1.4289 C   0  0  0  0  0  0  0  0  0  0  0  0
    1.9540   -1.0392    0.1513 C   0  0  0  0  0  0  0  0  0  0  0  0
    0.9065   -0.1739   -0.0708 C   0  0  0  0  0  0  0  0  0  0  0  0
    1.7729   -2.4670    0.2336 C   0  0  0  0  0  0  0  0  0  0  0  0
   -1.4312    0.5632   -0.4727 C   0  0  0  0  0  0  0  0  0  0  0  0
   -2.7973   -0.0821   -0.6221 C   0  0  0  0  0  0  0  0  0  0  0  0
    0.4878   -4.3542   -0.4881 C   0  0  0  0  0  0  0  0  0  0  0  0
   -5.0604    0.6164   -0.4069 C   0  0  0  0  0  0  0  0  0  0  0  0
   -5.4899   -0.7014   -0.3362 C   0  0  0  0  0  0  0  0  0  0  0  0
   -5.8932    1.6609   -0.0301 C   0  0  0  0  0  0  0  0  0  0  0  0
   -6.7781   -0.9804    0.1204 C   0  0  0  0  0  0  0  0  0  0  0  0
   -7.1813    1.3818    0.4266 C   0  0  0  0  0  0  0  0  0  0  0  0
   -7.6238    0.0612    0.5018 C   0  0  0  0  0  0  0  0  0  0  0  0
    4.6128   -1.9369    0.0208 H   0  0  0  0  0  0  0  0  0  0  0  0
    4.6322   -1.1497    1.6027 H   0  0  0  0  0  0  0  0  0  0  0  0
    6.2678    1.9390    0.2446 H   0  0  0  0  0  0  0  0  0  0  0  0
    6.1381   -1.0826   -1.8275 H   0  0  0  0  0  0  0  0  0  0  0  0
    6.5489    0.6334   -1.8611 H   0  0  0  0  0  0  0  0  0  0  0  0
    4.8619    0.1076   -2.0103 H   0  0  0  0  0  0  0  0  0  0  0  0
    7.8568    0.0617    0.2872 H   0  0  0  0  0  0  0  0  0  0  0  0
    7.2029   -1.5823    0.3314 H   0  0  0  0  0  0  0  0  0  0  0  0
    6.9957   -0.5128    1.7233 H   0  0  0  0  0  0  0  0  0  0  0  0
    3.4541    3.4964   -1.1845 H   0  0  0  0  0  0  0  0  0  0  0  0
    4.4167    2.2343   -1.9325 H   0  0  0  0  0  0  0  0  0  0  0  0
    5.2020    3.5104   -0.9927 H   0  0  0  0  0  0  0  0  0  0  0  0
    3.8263    2.4494    2.3760 H   0  0  0  0  0  0  0  0  0  0  0  0
    3.0425    3.5937    1.2804 H   0  0  0  0  0  0  0  0  0  0  0  0
    4.7831    3.6886    1.5475 H   0  0  0  0  0  0  0  0  0  0  0  0
   -0.7190   -1.3763   -0.2133 H   0  0  0  0  0  0  0  0  0  0  0  0
   -2.9745   -0.6328    0.3116 H   0  0  0  0  0  0  0  0  0  0  0  0
   -2.7598   -0.7795   -1.4670 H   0  0  0  0  0  0  0  0  0  0  0  0
   -0.3685   -4.5716   -1.1320 H   0  0  0  0  0  0  0  0  0  0  0  0
    1.3610   -4.8922   -0.8685 H   0  0  0  0  0  0  0  0  0  0  0  0
    0.2510   -4.6710    0.5319 H   0  0  0  0  0  0  0  0  0  0  0  0
   -4.8722   -1.5371   -0.6501 H   0  0  0  0  0  0  0  0  0  0  0  0
   -5.5516    2.6903   -0.0878 H   0  0  0  0  0  0  0  0  0  0  0  0
   -7.1120   -2.0138    0.1681 H   0  0  0  0  0  0  0  0  0  0  0  0
   -7.8293    2.2036    0.7204 H   0  0  0  0  0  0  0  0  0  0  0  0
  1 29  1  0  0  0  0
  2 12  1  0  0  0  0
  2 19  1  0  0  0  0
  3 20  1  0  0  0  0
  3 23  1  0  0  0  0
  4 20  2  0  0  0  0
  5 21  2  0  0  0  0
  6 22  1  0  0  0  0
  6 24  1  0  0  0  0
  7  9  1  0  0  0  0
  7 10  1  0  0  0  0
  7 32  1  0  0  0  0
  8 19  1  0  0  0  0
  8 21  1  0  0  0  0
  8 45  1  0  0  0  0
  9 11  1  0  0  0  0
  9 14  1  0  0  0  0
  9 15  1  0  0  0  0
 10 12  1  0  0  0  0
 10 16  1  0  0  0  0
 10 17  1  0  0  0  0
 11 13  1  0  0  0  0
 11 30  1  0  0  0  0
 11 31  1  0  0  0  0
 12 13  2  0  0  0  0
 13 18  1  0  0  0  0
 14 33  1  0  0  0  0
 14 34  1  0  0  0  0
 14 35  1  0  0  0  0
 15 36  1  0  0  0  0
 15 37  1  0  0  0  0
 15 38  1  0  0  0  0
 16 39  1  0  0  0  0
 16 40  1  0  0  0  0
 16 41  1  0  0  0  0
 17 42  1  0  0  0  0
 17 43  1  0  0  0  0
 17 44  1  0  0  0  0
 18 19  2  0  0  0  0
 18 20  1  0  0  0  0
 21 22  1  0  0  0  0
 22 46  1  0  0  0  0
 22 47  1  0  0  0  0
 23 48  1  0  0  0  0
 23 49  1  0  0  0  0
 23 50  1  0  0  0  0
 24 25  2  0  0  0  0
 24 26  1  0  0  0  0
 25 27  1  0  0  0  0
 25 51  1  0  0  0  0
 26 28  2  0  0  0  0
 26 52  1  0  0  0  0
 27 29  2  0  0  0  0
 27 53  1  0  0  0  0
 28 29  1  0  0  0  0
 28 54  1  0  0  0  0
M  END
> <PUBCHEM_COMPOUND_CID>
4230544

> <PUBCHEM_CONFORMER_RMSD>
1

> <PUBCHEM_CONFORMER_DIVERSEORDER>
1
70
22
51
54
55
59
66
27
46
65
47
68
48
33
7
69
53
45
58
60
13
19
42
43
39
62
57
52
56
5
71
9
31
23
30
10
61
29
35
75
4
40
37
14
44
72
50
15
26
28
32
25
24
21
3
11
64
74
36
34
38
18
8
20
6
41
73
16
49
63
67
2
17
12

> <PUBCHEM_MMFF94_PARTIAL_CHARGES>
31
1 -0.18
10 0.45
11 0.18
12 -0.14
13 -0.18
18 -0.09
19 0.1
2 -0.08
20 0.81
21 0.57
22 0.34
23 0.28
24 0.08
25 -0.15
26 -0.15
27 -0.15
28 -0.15
29 0.18
3 -0.43
32 0.36
4 -0.57
45 0.37
5 -0.57
51 0.15
52 0.15
53 0.15
54 0.15
6 -0.36
7 -0.9
8 -0.49
9 0.27

> <PUBCHEM_EFFECTIVE_ROTOR_COUNT>
7.8

> <PUBCHEM_PHARMACOPHORE_FEATURES>
11
1 4 acceptor
1 5 acceptor
1 6 acceptor
1 7 cation
1 7 donor
1 8 donor
3 10 16 17 hydrophobe
3 9 14 15 hydrophobe
5 2 12 13 18 19 rings
6 24 25 26 27 28 29 rings
6 7 9 10 11 12 13 rings

> <PUBCHEM_HEAVY_ATOM_COUNT>
29

> <PUBCHEM_ATOM_DEF_STEREO_COUNT>
0

> <PUBCHEM_ATOM_UDEF_STEREO_COUNT>
0

> <PUBCHEM_BOND_DEF_STEREO_COUNT>
0

> <PUBCHEM_BOND_UDEF_STEREO_COUNT>
0

> <PUBCHEM_ISOTOPIC_ATOM_COUNT>
0

> <PUBCHEM_COMPONENT_COUNT>
1

> <PUBCHEM_CACTVS_TAUTO_COUNT>
4

> <PUBCHEM_CONFORMER_ID>
00408D9000000001

> <PUBCHEM_MMFF94_ENERGY>
78.3154

> <PUBCHEM_FEATURE_SELFOVERLAP>
55.882

> <PUBCHEM_SHAPE_FINGERPRINT>
10165383 225 18261115197384402180
10258939 38 17604141532841226429
10299344 5 18409731772773249789
10411042 1 17906732502137228914
10835480 77 18263354795164630277
11135609 127 14548721954953666536
11135926 11 18338786849995616063
11421498 54 17703510982569304387
11578080 2 17343764166376144834
11719270 70 18411134727618627227
11796584 16 14045733855194415668
12166972 35 18113339721171078868
12596602 18 17917993914870689385
12730499 353 18408603651766811546
12788726 201 17131554934422351105
13692114 37 18335979865049540522
14251764 18 18342740741644140205
146900 427 18343016705523559113
14790565 3 18266738158975921303
14849402 71 18339924938787970913
14933364 13 18413389843637733769
15142383 8 13758356669948059250
15927050 60 17762061338353917812
16990366 60 17904201429768750971
16992610 120 18190192355350291116
20028762 73 18202283580992277446
20105231 36 18343591715344851495
20465049 17 18341336617697506366
20771845 171 17531540793672144470
21033648 29 18268420416573381520
21049683 271 18190185577569910318
21197605 99 18335704992081161275
21267235 1 18410293584439109396
21344244 181 17917441891267487070
21521721 280 18341893034525518608
21623969 137 18335143077245831067
21781051 124 18187940482010230698
22224240 67 18413101771095351859
22899556 105 17838353882796560094
22956985 138 17389647602368319306
239999 70 18200879478351941295
255183 451 17984426231133058702
3178227 256 18408881824541497250
335352 9 18410855474168345158
350125 39 18410289203572486932
3663271 9 18341899568109636433
4073 2 18187369878519754507
4093350 32 17346881109335907070
4340502 62 18411699889364083750
5758199 1 18413387656966214537
58260988 647 16772690810537904390
9658208 31 18199183074118508706

> <PUBCHEM_SHAPE_MULTIPOLES>
569.09
22.49
3.39
1
43.87
2.74
-0.01
-5.52
4.49
-3.85
0.07
-0.54
-0.21
0.09

> <PUBCHEM_SHAPE_SELFOVERLAP>
1188.26

> <PUBCHEM_SHAPE_VOLUME>
326.7

> <PUBCHEM_COORDINATE_TYPE>
2
5
10

$$$$
