16188750
  -OEChem-01171809413D

 60 62  0     1  0  0  0  0  0999 V2000
   -3.1144   -1.5243   -0.1521 O   0  0  0  0  0  0  0  0  0  0  0  0
   -3.5604    2.4571    1.6401 O   0  0  0  0  0  0  0  0  0  0  0  0
    0.5694    1.8164   -0.4586 N   0  0  0  0  0  0  0  0  0  0  0  0
    4.4647   -0.3466   -0.4521 N   0  0  0  0  0  0  0  0  0  0  0  0
    3.8819   -0.5159   -1.6513 N   0  0  0  0  0  0  0  0  0  0  0  0
   -2.2900    1.2180    0.0407 C   0  0  0  0  0  0  0  0  0  0  0  0
   -1.7976    2.5209   -0.6242 C   0  0  0  0  0  0  0  0  0  0  0  0
   -1.2133    0.1281   -0.1449 C   0  0  0  0  0  0  0  0  0  0  0  0
   -3.5965    0.7639   -0.6341 C   0  0  0  0  0  0  0  0  0  0  0  0
   -0.3772    2.9086   -0.2015 C   0  0  0  0  0  0  0  0  0  0  0  0
    0.1876    0.5956    0.2619 C   0  0  0  0  0  0  0  0  0  0  0  0
   -4.1206   -0.5171    0.0000 C   0  0  1  0  0  0  0  0  0  0  0  0
   -2.5808    1.4466    1.5363 C   0  0  0  0  0  0  0  0  0  0  0  0
   -5.4232   -0.9681   -0.6649 C   0  0  0  0  0  0  0  0  0  0  0  0
    1.9282    2.2203   -0.0985 C   0  0  0  0  0  0  0  0  0  0  0  0
   -5.8789   -2.3101   -0.1000 C   0  0  0  0  0  0  0  0  0  0  0  0
   -4.7435   -3.3261   -0.1522 C   0  0  0  0  0  0  0  0  0  0  0  0
   -3.4791   -2.7540    0.4744 C   0  0  0  0  0  0  0  0  0  0  0  0
    2.8791    1.1242   -0.4569 C   0  0  0  0  0  0  0  0  0  0  0  0
    3.8931    0.6335    0.3050 C   0  0  0  0  0  0  0  0  0  0  0  0
    2.9056    0.3954   -1.6452 C   0  0  0  0  0  0  0  0  0  0  0  0
    4.3743    0.9857    1.6543 C   0  0  0  0  0  0  0  0  0  0  0  0
    5.5894   -1.1779   -0.0910 C   0  0  0  0  0  0  0  0  0  0  0  0
    5.1531   -2.4592    0.6162 C   0  0  0  0  0  0  0  0  0  0  0  0
    6.3493   -3.3152    0.9985 C   0  0  0  0  0  0  0  0  0  0  0  0
   -1.8029    2.3917   -1.7158 H   0  0  0  0  0  0  0  0  0  0  0  0
   -2.4778    3.3567   -0.4210 H   0  0  0  0  0  0  0  0  0  0  0  0
   -1.3614   -0.7149    0.5330 H   0  0  0  0  0  0  0  0  0  0  0  0
   -1.1824   -0.2286   -1.1823 H   0  0  0  0  0  0  0  0  0  0  0  0
   -4.3607    1.5493   -0.5822 H   0  0  0  0  0  0  0  0  0  0  0  0
   -3.4044    0.5887   -1.7016 H   0  0  0  0  0  0  0  0  0  0  0  0
   -0.0839    3.7907   -0.7845 H   0  0  0  0  0  0  0  0  0  0  0  0
   -0.3620    3.2075    0.8538 H   0  0  0  0  0  0  0  0  0  0  0  0
    0.8562   -0.2451    0.0484 H   0  0  0  0  0  0  0  0  0  0  0  0
    0.2314    0.7573    1.3471 H   0  0  0  0  0  0  0  0  0  0  0  0
   -4.3381   -0.3795    1.0634 H   0  0  0  0  0  0  0  0  0  0  0  0
   -1.6897    1.8064    2.0602 H   0  0  0  0  0  0  0  0  0  0  0  0
   -2.9014    0.5537    2.0775 H   0  0  0  0  0  0  0  0  0  0  0  0
   -6.2089   -0.2170   -0.5263 H   0  0  0  0  0  0  0  0  0  0  0  0
   -5.2652   -1.0848   -1.7447 H   0  0  0  0  0  0  0  0  0  0  0  0
    1.9903    2.4744    0.9658 H   0  0  0  0  0  0  0  0  0  0  0  0
    2.2178    3.1145   -0.6651 H   0  0  0  0  0  0  0  0  0  0  0  0
   -6.2028   -2.1776    0.9396 H   0  0  0  0  0  0  0  0  0  0  0  0
   -6.7429   -2.6814   -0.6619 H   0  0  0  0  0  0  0  0  0  0  0  0
   -4.5433   -3.5726   -1.2022 H   0  0  0  0  0  0  0  0  0  0  0  0
   -5.0361   -4.2511    0.3554 H   0  0  0  0  0  0  0  0  0  0  0  0
   -2.6482   -3.4541    0.3418 H   0  0  0  0  0  0  0  0  0  0  0  0
   -3.6051   -2.5910    1.5512 H   0  0  0  0  0  0  0  0  0  0  0  0
   -3.7225    2.6061    2.5871 H   0  0  0  0  0  0  0  0  0  0  0  0
    2.2687    0.4764   -2.5146 H   0  0  0  0  0  0  0  0  0  0  0  0
    3.7395    1.7361    2.1335 H   0  0  0  0  0  0  0  0  0  0  0  0
    5.3872    1.3989    1.6080 H   0  0  0  0  0  0  0  0  0  0  0  0
    4.3874    0.1093    2.3098 H   0  0  0  0  0  0  0  0  0  0  0  0
    6.2659   -0.5910    0.5391 H   0  0  0  0  0  0  0  0  0  0  0  0
    6.1358   -1.4131   -1.0125 H   0  0  0  0  0  0  0  0  0  0  0  0
    4.5784   -2.2199    1.5185 H   0  0  0  0  0  0  0  0  0  0  0  0
    4.4874   -3.0383   -0.0352 H   0  0  0  0  0  0  0  0  0  0  0  0
    7.0150   -2.7763    1.6803 H   0  0  0  0  0  0  0  0  0  0  0  0
    6.0166   -4.2291    1.5005 H   0  0  0  0  0  0  0  0  0  0  0  0
    6.9241   -3.6040    0.1128 H   0  0  0  0  0  0  0  0  0  0  0  0
  1 12  1  0  0  0  0
  1 18  1  0  0  0  0
  2 13  1  0  0  0  0
  2 49  1  0  0  0  0
  3 10  1  0  0  0  0
  3 11  1  0  0  0  0
  3 15  1  0  0  0  0
  4  5  1  0  0  0  0
  4 20  1  0  0  0  0
  4 23  1  0  0  0  0
  5 21  2  0  0  0  0
  6  7  1  0  0  0  0
  6  8  1  0  0  0  0
  6  9  1  0  0  0  0
  6 13  1  0  0  0  0
  7 10  1  0  0  0  0
  7 26  1  0  0  0  0
  7 27  1  0  0  0  0
  8 11  1  0  0  0  0
  8 28  1  0  0  0  0
  8 29  1  0  0  0  0
  9 12  1  0  0  0  0
  9 30  1  0  0  0  0
  9 31  1  0  0  0  0
 10 32  1  0  0  0  0
 10 33  1  0  0  0  0
 11 34  1  0  0  0  0
 11 35  1  0  0  0  0
 12 14  1  0  0  0  0
 12 36  1  0  0  0  0
 13 37  1  0  0  0  0
 13 38  1  0  0  0  0
 14 16  1  0  0  0  0
 14 39  1  0  0  0  0
 14 40  1  0  0  0  0
 15 19  1  0  0  0  0
 15 41  1  0  0  0  0
 15 42  1  0  0  0  0
 16 17  1  0  0  0  0
 16 43  1  0  0  0  0
 16 44  1  0  0  0  0
 17 18  1  0  0  0  0
 17 45  1  0  0  0  0
 17 46  1  0  0  0  0
 18 47  1  0  0  0  0
 18 48  1  0  0  0  0
 19 20  2  0  0  0  0
 19 21  1  0  0  0  0
 20 22  1  0  0  0  0
 21 50  1  0  0  0  0
 22 51  1  0  0  0  0
 22 52  1  0  0  0  0
 22 53  1  0  0  0  0
 23 24  1  0  0  0  0
 23 54  1  0  0  0  0
 23 55  1  0  0  0  0
 24 25  1  0  0  0  0
 24 56  1  0  0  0  0
 24 57  1  0  0  0  0
 25 58  1  0  0  0  0
 25 59  1  0  0  0  0
 25 60  1  0  0  0  0
M  END
> <PUBCHEM_COMPOUND_CID>
16188750

> <PUBCHEM_CONFORMER_RMSD>
1

> <PUBCHEM_CONFORMER_DIVERSEORDER>
1
77
149
30
72
145
127
92
89
20
148
50
125
33
88
63
104
34
97
46
130
32
120
55
154
108
152
133
61
78
107
19
146
4
80
29
82
49
137
110
56
31
59
118
96
126
64
98
153
136
9
158
134
132
5
140
13
42
93
87
73
157
113
74
54
142
101
40
124
90
102
10
111
155
35
22
44
60
6
47
14
85
150
7
143
43
68
2
18
45
131
81
69
26
28
48
105
65
119
94
91
53
11
139
114
156
115
21
16
99
83
144
141
122
23
79
71
38
112
37
62
8
100
123
86
25
58
27
51
84
138
75
66
41
109
15
129
106
36
95
12
3
103
116
76
121
57
52
117
67
70
135
39
128
17
147
151
24

> <PUBCHEM_MMFF94_PARTIAL_CHARGES>
18
1 -0.56
10 0.27
11 0.27
12 0.28
13 0.28
15 0.45
18 0.28
19 -0.18
2 -0.68
20 -0.33
21 0.14
22 0.18
23 0.26
3 -0.81
4 0.31
49 0.4
5 -0.71
50 0.15

> <PUBCHEM_EFFECTIVE_ROTOR_COUNT>
9.4

> <PUBCHEM_PHARMACOPHORE_FEATURES>
9
1 1 acceptor
1 2 acceptor
1 2 donor
1 25 hydrophobe
1 3 cation
1 5 acceptor
5 4 5 19 20 21 rings
6 1 12 14 16 17 18 rings
6 3 6 7 8 10 11 rings

> <PUBCHEM_HEAVY_ATOM_COUNT>
25

> <PUBCHEM_ATOM_DEF_STEREO_COUNT>
0

> <PUBCHEM_ATOM_UDEF_STEREO_COUNT>
1

> <PUBCHEM_BOND_DEF_STEREO_COUNT>
0

> <PUBCHEM_BOND_UDEF_STEREO_COUNT>
0

> <PUBCHEM_ISOTOPIC_ATOM_COUNT>
0

> <PUBCHEM_COMPONENT_COUNT>
1

> <PUBCHEM_CACTVS_TAUTO_COUNT>
1

> <PUBCHEM_CONFORMER_ID>
00F7054E00000001

> <PUBCHEM_MMFF94_ENERGY>
51.9569

> <PUBCHEM_FEATURE_SELFOVERLAP>
45.671

> <PUBCHEM_SHAPE_FINGERPRINT>
10042902 136 18262236608855364610
10693767 8 18195514025561333199
11036077 4 18201162031866239337
11135609 99 18411130326195397550
11796584 16 18048875200732587798
12422481 6 17489874846932621407
12760667 363 18343303712766494959
12916754 54 18410013260176400669
13533116 47 18339922726810319344
13885169 86 9583523152507903903
14211702 104 18411420605105933094
14251751 18 18339637850694588786
14347332 77 18410009944725099871
14848178 5 18410007784102965679
14866123 147 18339929221550080601
15188451 53 18273207586572538567
15250474 111 18335141947516769590
15352361 1 18338800121280425879
15510800 12 18130510730248620950
15728490 83 18260839189189585227
17492 89 18337388348065472702
17857418 61 18409167692884882862
17959699 21 8430327826260129492
193927 3 18201452418667954437
1979834 28 17345772904688854655
20403669 9 18341620360021252047
21033648 29 15985105158913425888
21033650 10 16443615801558390413
21315764 119 17676196979754053623
21864079 5 10087641498580128268
23559900 14 18267294504008457257
25122255 55 18410859849806823750
270888 7 9727632808617993870
3004659 81 17968656132975001956
312425 54 18202003205031355328
316301 35 18410569574963979754
3680242 22 18410301341039496979
439807 62 18260831514219903751
44062 13 18261107452893638205
463206 1 18261399897285583090
5104073 3 18059857251187421816
559249 180 18337389336356408693
56633871 153 18337680693678457721
5718773 13 18337102381149653966
7288768 16 12175621789225003013
76465 3 18408885118491386204
7970288 3 18408318870024518186
960060 61 17240765128972617828

> <PUBCHEM_SHAPE_MULTIPOLES>
487.81
14.98
3.95
1.25
6.89
2.02
-0.15
15.69
-1.15
-1.05
-0.73
0.74
-0.37
-1.38

> <PUBCHEM_SHAPE_SELFOVERLAP>
1002.984

> <PUBCHEM_SHAPE_VOLUME>
281.4

> <PUBCHEM_COORDINATE_TYPE>
2
5
10

$$$$
