6214317
  -OEChem-01171809383D

 40 41  0     0  0  0  0  0  0999 V2000
   -4.9688    0.1051   -0.3918 O   0  0  0  0  0  0  0  0  0  0  0  0
   -2.9567   -1.6791   -1.0896 O   0  0  0  0  0  0  0  0  0  0  0  0
    3.0648    2.6087   -0.0535 O   0  0  0  0  0  0  0  0  0  0  0  0
   -7.5585   -1.6924    0.8715 N   0  0  0  0  0  0  0  0  0  0  0  0
   -1.0090    1.2779   -0.2409 C   0  0  0  0  0  0  0  0  0  0  0  0
    3.9470    0.4371    0.0462 C   0  0  0  0  0  0  0  0  0  0  0  0
   -2.6509   -0.4119   -0.6941 C   0  0  0  0  0  0  0  0  0  0  0  0
   -1.3155   -0.0122   -0.6421 C   0  0  0  0  0  0  0  0  0  0  0  0
   -3.6612    0.4839   -0.3443 C   0  0  0  0  0  0  0  0  0  0  0  0
   -2.0008    2.1793    0.1097 C   0  0  0  0  0  0  0  0  0  0  0  0
    6.0517   -1.3847    0.2322 C   0  0  0  0  0  0  0  0  0  0  0  0
    0.4018    1.6999   -0.1851 C   0  0  0  0  0  0  0  0  0  0  0  0
   -3.3362    1.7794    0.0576 C   0  0  0  0  0  0  0  0  0  0  0  0
    3.8256   -0.8296   -0.5251 C   0  0  0  0  0  0  0  0  0  0  0  0
    5.1209    0.7928    0.7104 C   0  0  0  0  0  0  0  0  0  0  0  0
    2.8503    1.3871   -0.0522 C   0  0  0  0  0  0  0  0  0  0  0  0
    4.8779   -1.7404   -0.4321 C   0  0  0  0  0  0  0  0  0  0  0  0
    6.1732   -0.1180    0.8034 C   0  0  0  0  0  0  0  0  0  0  0  0
    1.4448    0.8592   -0.1209 C   0  0  0  0  0  0  0  0  0  0  0  0
    7.1768   -2.3586    0.3321 C   0  0  0  0  0  0  0  0  0  0  0  0
   -5.7052    0.1634    0.8282 C   0  0  0  0  0  0  0  0  0  0  0  0
   -3.0332   -2.6752   -0.0717 C   0  0  0  0  0  0  0  0  0  0  0  0
   -6.7386   -0.8717    0.8519 C   0  0  0  0  0  0  0  0  0  0  0  0
   -0.5594   -0.7302   -0.9454 H   0  0  0  0  0  0  0  0  0  0  0  0
   -1.7634    3.1920    0.4245 H   0  0  0  0  0  0  0  0  0  0  0  0
    0.5660    2.7746   -0.2070 H   0  0  0  0  0  0  0  0  0  0  0  0
   -4.1128    2.4906    0.3255 H   0  0  0  0  0  0  0  0  0  0  0  0
    2.9458   -1.1354   -1.0831 H   0  0  0  0  0  0  0  0  0  0  0  0
    5.2332    1.7737    1.1652 H   0  0  0  0  0  0  0  0  0  0  0  0
    4.7755   -2.7210   -0.8896 H   0  0  0  0  0  0  0  0  0  0  0  0
    7.0831    0.1712    1.3227 H   0  0  0  0  0  0  0  0  0  0  0  0
    1.3054   -0.2111   -0.0425 H   0  0  0  0  0  0  0  0  0  0  0  0
    7.7477   -2.2095    1.2550 H   0  0  0  0  0  0  0  0  0  0  0  0
    6.8070   -3.3894    0.3476 H   0  0  0  0  0  0  0  0  0  0  0  0
    7.8521   -2.2411   -0.5212 H   0  0  0  0  0  0  0  0  0  0  0  0
   -6.1688    1.1530    0.9077 H   0  0  0  0  0  0  0  0  0  0  0  0
   -5.0412    0.0260    1.6912 H   0  0  0  0  0  0  0  0  0  0  0  0
   -3.7912   -2.4130    0.6727 H   0  0  0  0  0  0  0  0  0  0  0  0
   -2.0598   -2.8012    0.4128 H   0  0  0  0  0  0  0  0  0  0  0  0
   -3.3160   -3.6221   -0.5397 H   0  0  0  0  0  0  0  0  0  0  0  0
  1  9  1  0  0  0  0
  1 21  1  0  0  0  0
  2  7  1  0  0  0  0
  2 22  1  0  0  0  0
  3 16  2  0  0  0  0
  4 23  3  0  0  0  0
  5  8  2  0  0  0  0
  5 10  1  0  0  0  0
  5 12  1  0  0  0  0
  6 14  2  0  0  0  0
  6 15  1  0  0  0  0
  6 16  1  0  0  0  0
  7  8  1  0  0  0  0
  7  9  2  0  0  0  0
  8 24  1  0  0  0  0
  9 13  1  0  0  0  0
 10 13  2  0  0  0  0
 10 25  1  0  0  0  0
 11 17  2  0  0  0  0
 11 18  1  0  0  0  0
 11 20  1  0  0  0  0
 12 19  2  0  0  0  0
 12 26  1  0  0  0  0
 13 27  1  0  0  0  0
 14 17  1  0  0  0  0
 14 28  1  0  0  0  0
 15 18  2  0  0  0  0
 15 29  1  0  0  0  0
 16 19  1  0  0  0  0
 17 30  1  0  0  0  0
 18 31  1  0  0  0  0
 19 32  1  0  0  0  0
 20 33  1  0  0  0  0
 20 34  1  0  0  0  0
 20 35  1  0  0  0  0
 21 23  1  0  0  0  0
 21 36  1  0  0  0  0
 21 37  1  0  0  0  0
 22 38  1  0  0  0  0
 22 39  1  0  0  0  0
 22 40  1  0  0  0  0
M  END
> <PUBCHEM_COMPOUND_CID>
6214317

> <PUBCHEM_CONFORMER_RMSD>
0.8

> <PUBCHEM_CONFORMER_DIVERSEORDER>
1
41
91
63
52
54
59
82
100
36
70
46
13
83
93
15
65
90
56
7
64
88
11
3
53
4
57
99
95
85
45
25
2
34
43
78
87
80
97
79
42
10
32
86
61
60
39
68
101
74
62
17
33
12
23
96
8
81
31
49
38
27
26
89
30
77
58
24
75
22
5
98
84
67
6
16
21
28
76
55
29
71
48
50
18
66
44
14
47
20
35
92
19
72
9
40
51
37
73
69
94

> <PUBCHEM_MMFF94_PARTIAL_CHARGES>
32
1 -0.36
10 -0.15
11 -0.14
12 -0.18
13 -0.15
14 -0.15
15 -0.15
16 0.47
17 -0.15
18 -0.15
19 -0.14
2 -0.36
20 0.14
21 0.48
22 0.28
23 0.36
24 0.15
25 0.15
26 0.15
27 0.15
28 0.15
29 0.15
3 -0.57
30 0.15
31 0.15
32 0.15
4 -0.56
5 0.03
6 0.09
7 0.08
8 -0.15
9 0.08

> <PUBCHEM_EFFECTIVE_ROTOR_COUNT>
6

> <PUBCHEM_PHARMACOPHORE_FEATURES>
6
1 1 acceptor
1 2 acceptor
1 3 acceptor
1 4 acceptor
6 5 7 8 9 10 13 rings
6 6 11 14 15 17 18 rings

> <PUBCHEM_HEAVY_ATOM_COUNT>
23

> <PUBCHEM_ATOM_DEF_STEREO_COUNT>
0

> <PUBCHEM_ATOM_UDEF_STEREO_COUNT>
0

> <PUBCHEM_BOND_DEF_STEREO_COUNT>
1

> <PUBCHEM_BOND_UDEF_STEREO_COUNT>
0

> <PUBCHEM_ISOTOPIC_ATOM_COUNT>
0

> <PUBCHEM_COMPONENT_COUNT>
1

> <PUBCHEM_CACTVS_TAUTO_COUNT>
1

> <PUBCHEM_CONFORMER_ID>
005ED2AD00000001

> <PUBCHEM_MMFF94_ENERGY>
84.816

> <PUBCHEM_FEATURE_SELFOVERLAP>
30.453

> <PUBCHEM_SHAPE_FINGERPRINT>
11524674 6 17132109130620747006
12760667 363 18413666920504188279
13533116 47 18410576231551780992
13551218 46 18342460335555019815
13668630 136 17821728321103921146
13685833 64 18408042905289920576
13862211 1 18341612659756508029
14251764 18 17988643025496292101
14341114 176 18341894087061570156
14420673 8 18410013208457237103
14528608 73 7997963579415518888
14866123 147 18340486789894337655
16994733 274 12966866611104078099
17492 89 18265893738588968734
17857418 61 18342170068643162668
1813 80 17676490519267629020
1979834 28 17418098689775568662
21150785 3 16153433848470825836
21267235 1 18409733949841588428
21304303 64 11023834964224284467
21365058 113 16877950468478524397
21424621 283 12607140499840008639
21682296 61 18334582347880029691
21792934 111 18272083895139437553
23522609 53 18121534377296615901
23559900 14 18341036514952156824
3004659 81 18259984839222274220
3383291 50 18408604773234162219
351380 3 18187080620814084472
4073 2 18334574694359039338
4214541 1 18342171120994916308
465052 167 18411984646286457372
5104073 3 18059574762329169889
559249 180 18337950073906079757
56633871 153 18340769329684314381
59682541 52 12035719882984299688
9709674 26 18336263556771888880
999808 66 18041289802681963123

> <PUBCHEM_SHAPE_MULTIPOLES>
450.74
19.59
2.63
0.87
0.33
0.4
-0.04
12.79
-5.95
0.36
0
-0.39
0.16
0.44

> <PUBCHEM_SHAPE_SELFOVERLAP>
955.463

> <PUBCHEM_SHAPE_VOLUME>
250.1

> <PUBCHEM_COORDINATE_TYPE>
2
5
10

$$$$
