1511023
  -OEChem-01171809433D

 32 33  0     0  0  0  0  0  0999 V2000
   -3.0509   -0.8957    1.5012 S   0  0  0  0  0  0  0  0  0  0  0  0
    0.5789    2.5594    0.7131 O   0  0  0  0  0  0  0  0  0  0  0  0
   -0.5610    1.1405   -0.7236 N   0  0  0  0  0  0  0  0  0  0  0  0
   -2.7937    1.5545    0.2584 C   0  0  0  0  0  0  0  0  0  0  0  0
   -1.7701    1.9274   -0.8118 C   0  0  0  0  0  0  0  0  0  0  0  0
   -3.2444    0.1172    0.1528 C   0  0  0  0  0  0  0  0  0  0  0  0
    1.7017    0.6250    0.0090 C   0  0  0  0  0  0  0  0  0  0  0  0
    0.5496    1.5120    0.0430 C   0  0  0  0  0  0  0  0  0  0  0  0
   -3.8058   -0.4960   -0.9219 C   0  0  0  0  0  0  0  0  0  0  0  0
    3.9105   -1.0779   -0.0528 C   0  0  0  0  0  0  0  0  0  0  0  0
    2.9800    1.1323    0.2414 C   0  0  0  0  0  0  0  0  0  0  0  0
    1.5277   -0.7337   -0.2544 C   0  0  0  0  0  0  0  0  0  0  0  0
    4.0844    0.2809    0.2105 C   0  0  0  0  0  0  0  0  0  0  0  0
    2.6321   -1.5851   -0.2852 C   0  0  0  0  0  0  0  0  0  0  0  0
   -4.0955   -1.8618   -0.6379 C   0  0  0  0  0  0  0  0  0  0  0  0
   -3.7354   -2.2113    0.6450 C   0  0  0  0  0  0  0  0  0  0  0  0
    5.0919   -1.9876   -0.0868 C   0  0  0  0  0  0  0  0  0  0  0  0
   -2.3716    1.7615    1.2501 H   0  0  0  0  0  0  0  0  0  0  0  0
   -3.6739    2.2011    0.1518 H   0  0  0  0  0  0  0  0  0  0  0  0
   -2.1773    1.7798   -1.8181 H   0  0  0  0  0  0  0  0  0  0  0  0
   -1.5102    2.9872   -0.7138 H   0  0  0  0  0  0  0  0  0  0  0  0
   -0.5252    0.3085   -1.3026 H   0  0  0  0  0  0  0  0  0  0  0  0
   -4.0102   -0.0131   -1.8686 H   0  0  0  0  0  0  0  0  0  0  0  0
    3.1375    2.1885    0.4446 H   0  0  0  0  0  0  0  0  0  0  0  0
    0.5479   -1.1764   -0.4081 H   0  0  0  0  0  0  0  0  0  0  0  0
    5.0754    0.6876    0.3939 H   0  0  0  0  0  0  0  0  0  0  0  0
    2.4832   -2.6435   -0.4826 H   0  0  0  0  0  0  0  0  0  0  0  0
   -4.5458   -2.5528   -1.3387 H   0  0  0  0  0  0  0  0  0  0  0  0
   -3.8416   -3.1762    1.1204 H   0  0  0  0  0  0  0  0  0  0  0  0
    4.9280   -2.8230   -0.7761 H   0  0  0  0  0  0  0  0  0  0  0  0
    5.9874   -1.4593   -0.4314 H   0  0  0  0  0  0  0  0  0  0  0  0
    5.2847   -2.3904    0.9125 H   0  0  0  0  0  0  0  0  0  0  0  0
  1  6  1  0  0  0  0
  1 16  1  0  0  0  0
  2  8  2  0  0  0  0
  3  5  1  0  0  0  0
  3  8  1  0  0  0  0
  3 22  1  0  0  0  0
  4  5  1  0  0  0  0
  4  6  1  0  0  0  0
  4 18  1  0  0  0  0
  4 19  1  0  0  0  0
  5 20  1  0  0  0  0
  5 21  1  0  0  0  0
  6  9  2  0  0  0  0
  7  8  1  0  0  0  0
  7 11  2  0  0  0  0
  7 12  1  0  0  0  0
  9 15  1  0  0  0  0
  9 23  1  0  0  0  0
 10 13  2  0  0  0  0
 10 14  1  0  0  0  0
 10 17  1  0  0  0  0
 11 13  1  0  0  0  0
 11 24  1  0  0  0  0
 12 14  2  0  0  0  0
 12 25  1  0  0  0  0
 13 26  1  0  0  0  0
 14 27  1  0  0  0  0
 15 16  2  0  0  0  0
 15 28  1  0  0  0  0
 16 29  1  0  0  0  0
 17 30  1  0  0  0  0
 17 31  1  0  0  0  0
 17 32  1  0  0  0  0
M  END
> <PUBCHEM_COMPOUND_CID>
1511023

> <PUBCHEM_CONFORMER_RMSD>
0.6

> <PUBCHEM_CONFORMER_DIVERSEORDER>
1
31
46
11
45
19
35
3
43
15
34
27
17
22
6
5
42
13
47
24
14
10
23
20
12
26
29
30
21
39
44
38
41
33
25
32
2
16
40
4
9
7
18
36
37
28
8

> <PUBCHEM_MMFF94_PARTIAL_CHARGES>
25
1 -0.08
10 -0.14
11 -0.15
12 -0.15
13 -0.15
14 -0.15
15 -0.15
16 -0.11
17 0.14
2 -0.57
22 0.37
23 0.15
24 0.15
25 0.15
26 0.15
27 0.15
28 0.15
29 0.15
3 -0.73
4 0.18
5 0.3
6 -0.14
7 0.09
8 0.54
9 -0.15

> <PUBCHEM_EFFECTIVE_ROTOR_COUNT>
5

> <PUBCHEM_PHARMACOPHORE_FEATURES>
4
1 2 acceptor
1 3 donor
5 1 6 9 15 16 rings
6 7 10 11 12 13 14 rings

> <PUBCHEM_HEAVY_ATOM_COUNT>
17

> <PUBCHEM_ATOM_DEF_STEREO_COUNT>
0

> <PUBCHEM_ATOM_UDEF_STEREO_COUNT>
0

> <PUBCHEM_BOND_DEF_STEREO_COUNT>
0

> <PUBCHEM_BOND_UDEF_STEREO_COUNT>
0

> <PUBCHEM_ISOTOPIC_ATOM_COUNT>
0

> <PUBCHEM_COMPONENT_COUNT>
1

> <PUBCHEM_CACTVS_TAUTO_COUNT>
2

> <PUBCHEM_CONFORMER_ID>
00170E6F00000001

> <PUBCHEM_MMFF94_ENERGY>
31.2258

> <PUBCHEM_FEATURE_SELFOVERLAP>
20.297

> <PUBCHEM_SHAPE_FINGERPRINT>
10616163 171 18339080380549666343
10968037 57 18342181072497321143
11046707 91 18410012109029563678
11552529 35 17918270952634889351
117890 22 18341338837657482623
12006461 19 18410574015443270425
12363563 72 18334300902546142267
12506688 2 18413672413287591208
12596599 1 17916885567999787391
12596602 18 16128646487887798914
12633257 1 18129957710290690203
13103583 49 17703806807195177131
13544653 18 18410859875370528760
13583140 156 15123504757623149123
13740256 8 18340769252533314366
14251731 5 18410296925559642747
14251745 187 18334571369347522539
14787075 74 18336265747326841024
15196674 1 18411136943710728814
15352361 1 18410291441049968511
15880784 105 17847056705237042602
17357779 13 18261663874512528815
17834074 16 18409728460799401206
18186145 218 14129356090852778116
18915474 69 18187651310071759004
19141452 34 18411141303777936377
200 152 18059848498328616373
20261772 1 17988921214617657198
20281475 54 18409454703921483301
20403669 9 18411703179604658895
20645477 70 18190732240653332301
21079973 296 18335419050058030264
21673915 165 18340766035096621798
21864079 5 9655314609070979607
221490 88 18409451388612607276
23402539 116 16371294303581727612
23403322 49 18335419084497117163
23559900 14 18409157818575935664
27216 239 11167945779685374383
2871803 45 18259977184799372271
4921388 177 16515693264431215635
5104073 3 18342734079659131056
5486654 36 18337403668620136377
8809292 202 18335143037963325961
9709674 26 18334575793269332033

> <PUBCHEM_SHAPE_MULTIPOLES>
342.85
10.06
2.62
0.98
3.47
0.2
0.14
-6.73
-0.08
-0.5
0.07
-0.9
-0.1
0.55

> <PUBCHEM_SHAPE_SELFOVERLAP>
709.814

> <PUBCHEM_SHAPE_VOLUME>
196.9

> <PUBCHEM_COORDINATE_TYPE>
2
5
10

$$$$
