44202097
  -OEChem-01171810113D

 58 59  0     0  0  0  0  0  0999 V2000
    2.2479    1.1914    0.0184 O   0  0  0  0  0  0  0  0  0  0  0  0
   -3.1296   -2.0023    1.7093 O   0  0  0  0  0  0  0  0  0  0  0  0
    0.7048    1.6569    1.6388 O   0  0  0  0  0  0  0  0  0  0  0  0
    0.3003   -0.0843    0.1476 N   0  0  0  0  0  0  0  0  0  0  0  0
   -2.0983    0.3368    0.0254 C   0  0  0  0  0  0  0  0  0  0  0  0
   -1.6353    1.7926   -0.2096 C   0  0  0  0  0  0  0  0  0  0  0  0
   -2.4286   -0.3343   -1.3272 C   0  0  0  0  0  0  0  0  0  0  0  0
   -0.9608   -0.4459    0.7079 C   0  0  0  0  0  0  0  0  0  0  0  0
   -2.5988    2.6044   -1.0753 C   0  0  0  0  0  0  0  0  0  0  0  0
   -3.3908    0.4809   -2.1912 C   0  0  0  0  0  0  0  0  0  0  0  0
   -2.8916    1.9065   -2.3987 C   0  0  0  0  0  0  0  0  0  0  0  0
   -3.3231    0.3025    0.9599 C   0  0  0  0  0  0  0  0  0  0  0  0
   -3.7904   -1.1064    1.2021 C   0  0  0  0  0  0  0  0  0  0  0  0
    0.7705   -0.8690   -1.0067 C   0  0  0  0  0  0  0  0  0  0  0  0
    1.0651    0.9805    0.6771 C   0  0  0  0  0  0  0  0  0  0  0  0
    2.0551   -1.5878   -0.7116 C   0  0  0  0  0  0  0  0  0  0  0  0
   -5.1470   -1.3776    0.7837 C   0  0  0  0  0  0  0  0  0  0  0  0
    3.0641    2.2599    0.5124 C   0  0  0  0  0  0  0  0  0  0  0  0
    2.9632   -1.8428   -1.7393 C   0  0  0  0  0  0  0  0  0  0  0  0
    2.3406   -2.0006    0.5896 C   0  0  0  0  0  0  0  0  0  0  0  0
    3.4226    1.9647    1.9681 C   0  0  0  0  0  0  0  0  0  0  0  0
    4.3228    2.3141   -0.3507 C   0  0  0  0  0  0  0  0  0  0  0  0
    2.2779    3.5652    0.3988 C   0  0  0  0  0  0  0  0  0  0  0  0
    4.1569   -2.5106   -1.4656 C   0  0  0  0  0  0  0  0  0  0  0  0
    3.5342   -2.6684    0.8635 C   0  0  0  0  0  0  0  0  0  0  0  0
   -6.2739   -1.6029    0.4372 C   0  0  0  0  0  0  0  0  0  0  0  0
    4.4423   -2.9235   -0.1641 C   0  0  0  0  0  0  0  0  0  0  0  0
   -0.6943    1.8451   -0.7643 H   0  0  0  0  0  0  0  0  0  0  0  0
   -1.5066    2.3185    0.7429 H   0  0  0  0  0  0  0  0  0  0  0  0
   -2.8160   -1.3510   -1.2000 H   0  0  0  0  0  0  0  0  0  0  0  0
   -1.5275   -0.4322   -1.9361 H   0  0  0  0  0  0  0  0  0  0  0  0
   -1.0758   -1.5318    0.6284 H   0  0  0  0  0  0  0  0  0  0  0  0
   -0.9316   -0.2056    1.7782 H   0  0  0  0  0  0  0  0  0  0  0  0
   -2.1671    3.5928   -1.2734 H   0  0  0  0  0  0  0  0  0  0  0  0
   -3.5360    2.7805   -0.5354 H   0  0  0  0  0  0  0  0  0  0  0  0
   -4.3855    0.5017   -1.7322 H   0  0  0  0  0  0  0  0  0  0  0  0
   -3.5087   -0.0076   -3.1656 H   0  0  0  0  0  0  0  0  0  0  0  0
   -3.6371    2.4800   -2.9610 H   0  0  0  0  0  0  0  0  0  0  0  0
   -1.9800    1.8871   -3.0089 H   0  0  0  0  0  0  0  0  0  0  0  0
   -4.1501    0.8983    0.5590 H   0  0  0  0  0  0  0  0  0  0  0  0
   -3.0845    0.7410    1.9373 H   0  0  0  0  0  0  0  0  0  0  0  0
    0.9091   -0.1673   -1.8376 H   0  0  0  0  0  0  0  0  0  0  0  0
    0.0343   -1.6268   -1.2910 H   0  0  0  0  0  0  0  0  0  0  0  0
    2.7512   -1.5269   -2.7572 H   0  0  0  0  0  0  0  0  0  0  0  0
    1.6483   -1.8387    1.4107 H   0  0  0  0  0  0  0  0  0  0  0  0
    4.2672    2.5875    2.2868 H   0  0  0  0  0  0  0  0  0  0  0  0
    3.7137    0.9156    2.0958 H   0  0  0  0  0  0  0  0  0  0  0  0
    2.6239    2.1682    2.6856 H   0  0  0  0  0  0  0  0  0  0  0  0
    4.0646    2.4769   -1.4034 H   0  0  0  0  0  0  0  0  0  0  0  0
    4.8626    1.3609   -0.3088 H   0  0  0  0  0  0  0  0  0  0  0  0
    5.0023    3.1116   -0.0329 H   0  0  0  0  0  0  0  0  0  0  0  0
    2.9498    4.4260    0.4986 H   0  0  0  0  0  0  0  0  0  0  0  0
    1.5088    3.7030    1.1627 H   0  0  0  0  0  0  0  0  0  0  0  0
    1.7804    3.6389   -0.5754 H   0  0  0  0  0  0  0  0  0  0  0  0
    4.8639   -2.7095   -2.2656 H   0  0  0  0  0  0  0  0  0  0  0  0
    3.7547   -2.9938    1.8760 H   0  0  0  0  0  0  0  0  0  0  0  0
   -7.2736   -1.8024    0.1292 H   0  0  0  0  0  0  0  0  0  0  0  0
    5.3712   -3.4443    0.0491 H   0  0  0  0  0  0  0  0  0  0  0  0
  1 15  1  0  0  0  0
  1 18  1  0  0  0  0
  2 13  2  0  0  0  0
  3 15  2  0  0  0  0
  4  8  1  0  0  0  0
  4 14  1  0  0  0  0
  4 15  1  0  0  0  0
  5  6  1  0  0  0  0
  5  7  1  0  0  0  0
  5  8  1  0  0  0  0
  5 12  1  0  0  0  0
  6  9  1  0  0  0  0
  6 28  1  0  0  0  0
  6 29  1  0  0  0  0
  7 10  1  0  0  0  0
  7 30  1  0  0  0  0
  7 31  1  0  0  0  0
  8 32  1  0  0  0  0
  8 33  1  0  0  0  0
  9 11  1  0  0  0  0
  9 34  1  0  0  0  0
  9 35  1  0  0  0  0
 10 11  1  0  0  0  0
 10 36  1  0  0  0  0
 10 37  1  0  0  0  0
 11 38  1  0  0  0  0
 11 39  1  0  0  0  0
 12 13  1  0  0  0  0
 12 40  1  0  0  0  0
 12 41  1  0  0  0  0
 13 17  1  0  0  0  0
 14 16  1  0  0  0  0
 14 42  1  0  0  0  0
 14 43  1  0  0  0  0
 16 19  2  0  0  0  0
 16 20  1  0  0  0  0
 17 26  3  0  0  0  0
 18 21  1  0  0  0  0
 18 22  1  0  0  0  0
 18 23  1  0  0  0  0
 19 24  1  0  0  0  0
 19 44  1  0  0  0  0
 20 25  2  0  0  0  0
 20 45  1  0  0  0  0
 21 46  1  0  0  0  0
 21 47  1  0  0  0  0
 21 48  1  0  0  0  0
 22 49  1  0  0  0  0
 22 50  1  0  0  0  0
 22 51  1  0  0  0  0
 23 52  1  0  0  0  0
 23 53  1  0  0  0  0
 23 54  1  0  0  0  0
 24 27  2  0  0  0  0
 24 55  1  0  0  0  0
 25 27  1  0  0  0  0
 25 56  1  0  0  0  0
 26 57  1  0  0  0  0
 27 58  1  0  0  0  0
M  END
> <PUBCHEM_COMPOUND_CID>
44202097

> <PUBCHEM_CONFORMER_RMSD>
1

> <PUBCHEM_CONFORMER_DIVERSEORDER>
1
136
184
128
93
149
154
178
101
163
41
99
185
134
83
63
30
164
91
109
100
26
86
183
180
92
156
175
68
23
84
177
118
94
120
189
75
122
145
148
80
96
158
43
144
170
153
89
9
88
70
150
181
57
90
35
107
106
117
141
169
65
40
152
110
127
3
81
98
47
62
5
51
33
59
67
132
112
143
188
37
113
135
146
129
137
172
17
115
131
36
72
125
166
55
6
182
104
10
60
155
105
4
79
130
64
24
142
159
151
139
46
179
77
97
50
186
165
167
87
76
18
119
160
2
16
114
190
191
171
78
103
13
116
133
25
176
27
85
19
12
102
8
124
7
174
58
49
161
126
95
111
168
121
52
21
53
69
15
74
187
48
157
20
138
162
29
73
28
42
108
39
140
66
173
32
11
34
44
56
31
71
22
147
82
61
38
45
14
123
54

> <PUBCHEM_MMFF94_PARTIAL_CHARGES>
24
1 -0.43
12 0.06
13 0.61
14 0.44
15 0.78
16 -0.14
17 -0.1
18 0.28
19 -0.15
2 -0.57
20 -0.15
24 -0.15
25 -0.15
26 -0.18
27 -0.15
3 -0.57
4 -0.66
44 0.15
45 0.15
55 0.15
56 0.15
57 0.18
58 0.15
8 0.3

> <PUBCHEM_EFFECTIVE_ROTOR_COUNT>
10.2

> <PUBCHEM_PHARMACOPHORE_FEATURES>
6
1 2 acceptor
1 26 hydrophobe
1 3 acceptor
4 18 21 22 23 hydrophobe
6 16 19 20 24 25 27 rings
6 5 6 7 9 10 11 rings

> <PUBCHEM_HEAVY_ATOM_COUNT>
27

> <PUBCHEM_ATOM_DEF_STEREO_COUNT>
0

> <PUBCHEM_ATOM_UDEF_STEREO_COUNT>
0

> <PUBCHEM_BOND_DEF_STEREO_COUNT>
0

> <PUBCHEM_BOND_UDEF_STEREO_COUNT>
0

> <PUBCHEM_ISOTOPIC_ATOM_COUNT>
0

> <PUBCHEM_COMPONENT_COUNT>
1

> <PUBCHEM_CACTVS_TAUTO_COUNT>
2

> <PUBCHEM_CONFORMER_ID>
02A2787100000001

> <PUBCHEM_MMFF94_ENERGY>
77.4494

> <PUBCHEM_FEATURE_SELFOVERLAP>
30.446

> <PUBCHEM_SHAPE_FINGERPRINT>
10165383 225 18125450949536325704
10190108 129 17765720508830243295
10369192 42 18119251911648156420
11578080 2 18113622248815047684
11963148 33 18120930865534829811
12293681 4 17979355261624275549
12553582 1 18053105012884428314
12592029 89 18339928229175154704
12623949 98 18198924650321615767
12633257 1 18056221097831030691
12707595 3 18340491045557639822
12788726 201 17403168202185522456
12988421 55 17555987510791477648
13140716 1 18198625436559922760
13383665 225 17968110728290812629
133893 2 18343029874099296408
13533116 47 18272376408028877955
13540713 4 18335689521307877821
13583140 156 18262227820682572150
13681431 1 18200306611925330644
14910302 57 18186238433572735943
14955137 171 17702678635461929918
15664445 248 17532664627024211773
17357779 13 17484216588782475924
1813 80 17773608117822040526
20600515 1 17979350855520086298
20681677 76 18335695022886274661
20693207 138 18260552199463634231
22182313 1 18261103084895963317
23557571 272 17749386005431876733
23559900 14 18040437681128192951
23598288 3 17416981534232528961
469060 322 17906994516215194903
5104073 3 18200328675415080267
59755656 215 18337116781889576280
6049 1 18333732390430783205
621550 34 18263923413773170905
6669772 16 18127135389129685356
6913067 236 18119235397450579041
70251023 43 18271791394775683503
7399639 24 18264483069180870473
7495541 125 18336834099737294966
9658208 31 17605821531364633685
9709674 26 18336249176921045973

> <PUBCHEM_SHAPE_MULTIPOLES>
533.06
10.55
3.94
1.91
6.76
1.09
0.59
-5.56
-0.66
-4.67
-0.14
0.81
0.2
3.23

> <PUBCHEM_SHAPE_SELFOVERLAP>
1102.588

> <PUBCHEM_SHAPE_VOLUME>
301.4

> <PUBCHEM_COORDINATE_TYPE>
2
5
10

$$$$
