44142137
  -OEChem-01171810103D

 32 35  0     0  0  0  0  0  0999 V2000
    1.2947    2.9744   -1.8294 Cl  0  0  0  0  0  0  0  0  0  0  0  0
    3.7075    0.4357    1.4124 S   0  0  0  0  0  0  0  0  0  0  0  0
   -0.5952   -0.8393   -1.5121 S   0  0  0  0  0  0  0  0  0  0  0  0
    3.5793   -1.8507    0.0505 N   0  0  0  0  0  0  0  0  0  0  0  0
    1.5934   -2.3475   -1.2487 N   0  0  0  0  0  0  0  0  0  0  0  0
   -2.9963   -1.5454   -0.2900 N   0  0  0  0  0  0  0  0  0  0  0  0
   -1.2611   -2.1755    0.8478 N   0  0  0  0  0  0  0  0  0  0  0  0
   -3.4898   -2.1587    0.7947 N   0  0  0  0  0  0  0  0  0  0  0  0
   -2.4239   -2.5423    1.4868 N   0  0  0  0  0  0  0  0  0  0  0  0
    1.3620    0.9765    0.5170 C   0  0  0  0  0  0  0  0  0  0  0  0
    1.6994   -0.2998   -0.0337 C   0  0  0  0  0  0  0  0  0  0  0  0
    0.1613    1.7562    0.3449 C   0  0  0  0  0  0  0  0  0  0  0  0
    2.9612   -0.7013    0.3853 C   0  0  0  0  0  0  0  0  0  0  0  0
    1.0205   -1.1815   -0.8812 C   0  0  0  0  0  0  0  0  0  0  0  0
    2.3609    1.4864    1.3177 C   0  0  0  0  0  0  0  0  0  0  0  0
    0.0293    2.6870   -0.6856 C   0  0  0  0  0  0  0  0  0  0  0  0
   -0.8870    1.5574    1.2435 C   0  0  0  0  0  0  0  0  0  0  0  0
   -1.1506    3.4191   -0.8174 C   0  0  0  0  0  0  0  0  0  0  0  0
   -2.0671    2.2892    1.1114 C   0  0  0  0  0  0  0  0  0  0  0  0
   -1.6385   -1.5602   -0.2492 C   0  0  0  0  0  0  0  0  0  0  0  0
    2.8242   -2.6075   -0.7655 C   0  0  0  0  0  0  0  0  0  0  0  0
   -2.1989    3.2202    0.0811 C   0  0  0  0  0  0  0  0  0  0  0  0
   -3.8853   -0.9924   -1.2804 C   0  0  0  0  0  0  0  0  0  0  0  0
    2.3765    2.4243    1.8571 H   0  0  0  0  0  0  0  0  0  0  0  0
   -0.8040    0.8360    2.0533 H   0  0  0  0  0  0  0  0  0  0  0  0
   -1.2705    4.1480   -1.6149 H   0  0  0  0  0  0  0  0  0  0  0  0
   -2.8839    2.1330    1.8099 H   0  0  0  0  0  0  0  0  0  0  0  0
    3.2621   -3.5499   -1.0753 H   0  0  0  0  0  0  0  0  0  0  0  0
   -3.1181    3.7893   -0.0219 H   0  0  0  0  0  0  0  0  0  0  0  0
   -3.6942   -1.4892   -2.2347 H   0  0  0  0  0  0  0  0  0  0  0  0
   -4.9217   -1.1624   -0.9770 H   0  0  0  0  0  0  0  0  0  0  0  0
   -3.6954    0.0810   -1.3566 H   0  0  0  0  0  0  0  0  0  0  0  0
  1 16  1  0  0  0  0
  2 13  1  0  0  0  0
  2 15  1  0  0  0  0
  3 14  1  0  0  0  0
  3 20  1  0  0  0  0
  4 13  1  0  0  0  0
  4 21  2  0  0  0  0
  5 14  2  0  0  0  0
  5 21  1  0  0  0  0
  6  8  1  0  0  0  0
  6 20  1  0  0  0  0
  6 23  1  0  0  0  0
  7  9  1  0  0  0  0
  7 20  2  0  0  0  0
  8  9  2  0  0  0  0
 10 11  1  0  0  0  0
 10 12  1  0  0  0  0
 10 15  2  0  0  0  0
 11 13  2  0  0  0  0
 11 14  1  0  0  0  0
 12 16  1  0  0  0  0
 12 17  2  0  0  0  0
 15 24  1  0  0  0  0
 16 18  2  0  0  0  0
 17 19  1  0  0  0  0
 17 25  1  0  0  0  0
 18 22  1  0  0  0  0
 18 26  1  0  0  0  0
 19 22  2  0  0  0  0
 19 27  1  0  0  0  0
 21 28  1  0  0  0  0
 22 29  1  0  0  0  0
 23 30  1  0  0  0  0
 23 31  1  0  0  0  0
 23 32  1  0  0  0  0
M  END
> <PUBCHEM_COMPOUND_CID>
44142137

> <PUBCHEM_CONFORMER_RMSD>
0.6

> <PUBCHEM_CONFORMER_DIVERSEORDER>
1
11
31
48
6
23
44
22
30
47
20
43
36
37
46
29
19
27
2
49
15
45
33
32
28
35
13
38
17
34
39
40
41
18
3
4
26
25
14
21
42
12
24
16
5
8
7
10
9

> <PUBCHEM_MMFF94_PARTIAL_CHARGES>
27
1 -0.18
10 -0.05
12 0.05
13 0.3
14 0.41
15 -0.11
16 0.18
17 -0.15
18 -0.15
19 -0.15
2 -0.08
20 0.24
21 0.47
22 -0.15
23 0.26
24 0.15
25 0.15
26 0.15
27 0.15
28 0.15
29 0.15
3 -0.16
4 -0.57
5 -0.62
6 0.31
7 -0.34
8 -0.42

> <PUBCHEM_EFFECTIVE_ROTOR_COUNT>
3

> <PUBCHEM_PHARMACOPHORE_FEATURES>
7
1 5 acceptor
3 4 5 21 cation
3 6 7 20 cation
5 2 10 11 13 15 rings
5 6 7 8 9 20 rings
6 12 16 17 18 19 22 rings
6 4 5 11 13 14 21 rings

> <PUBCHEM_HEAVY_ATOM_COUNT>
23

> <PUBCHEM_ATOM_DEF_STEREO_COUNT>
0

> <PUBCHEM_ATOM_UDEF_STEREO_COUNT>
0

> <PUBCHEM_BOND_DEF_STEREO_COUNT>
0

> <PUBCHEM_BOND_UDEF_STEREO_COUNT>
0

> <PUBCHEM_ISOTOPIC_ATOM_COUNT>
0

> <PUBCHEM_COMPONENT_COUNT>
1

> <PUBCHEM_CACTVS_TAUTO_COUNT>
1

> <PUBCHEM_CONFORMER_ID>
02A18E3900000001

> <PUBCHEM_MMFF94_ENERGY>
51.2852

> <PUBCHEM_FEATURE_SELFOVERLAP>
35.603

> <PUBCHEM_SHAPE_FINGERPRINT>
10064457 181 17769108851357937313
10165383 225 16819409428531209629
104564 63 18343024423284572596
1100329 8 17185022874299608179
11244481 83 16954763582954241615
11578080 2 14996580528458346732
11680986 33 17987227829730480930
116883 192 18411415098894068949
12035759 4 18118420646365762244
12422481 6 18057626299677364731
12553582 1 18265627635231411345
12633257 1 17901106639933465843
12730499 353 17184468720793111149
13132413 78 17117745390020762728
13140716 1 17985249799938591882
13149001 5 17769381517767621630
13965767 371 17488763270820941947
14223421 5 18343293752320331288
14790565 3 17835803375557849328
14866123 147 17614553748794984434
14955137 171 17688875663092631800
16945 1 17986656264077834586
17093844 170 18338220579937268941
17357779 13 18271514347371846911
19591789 44 17545884828334315603
20600515 1 17677313004976921870
20642791 13 18340752776574731565
20691752 17 17975403621123617941
22182313 1 17988634161311631466
23419403 2 17201044068654508235
23558518 356 18339350851740971756
2748010 2 18059562539500987466
3052486 1 18189334568016647429
3380486 77 17679269010456137651
350125 39 18200300126783443352
394222 165 17173765447458315416
484985 159 16090873693923695946
5283268 108 18337685195125937403
81228 2 18336544919631108921
9981440 41 16622298587508366792

> <PUBCHEM_SHAPE_MULTIPOLES>
453.01
5.56
4.51
1.6
0.75
1.26
-0.15
-2.99
0.93
-2.51
-0.64
-0.01
0.25
0.79

> <PUBCHEM_SHAPE_SELFOVERLAP>
970.464

> <PUBCHEM_SHAPE_VOLUME>
253.3

> <PUBCHEM_COORDINATE_TYPE>
2
5
10

$$$$
