2931173
  -OEChem-01171809313D

 43 45  0     0  0  0  0  0  0999 V2000
    0.2746    3.5915    0.4054 S   0  0  0  0  0  0  0  0  0  0  0  0
   -1.5361   -0.3821   -0.3894 N   0  0  0  0  0  0  0  0  0  0  0  0
   -1.8762    1.6828    0.3594 N   0  0  0  0  0  0  0  0  0  0  0  0
    0.3923    0.9639    0.0419 N   0  0  0  0  0  0  0  0  0  0  0  0
    2.4733    2.1576    0.2097 N   0  0  0  0  0  0  0  0  0  0  0  0
   -0.8335   -1.5655   -0.8343 C   0  0  0  0  0  0  0  0  0  0  0  0
   -0.5202   -2.5159    0.3203 C   0  0  0  0  0  0  0  0  0  0  0  0
   -2.8977   -0.2433   -0.3044 C   0  0  0  0  0  0  0  0  0  0  0  0
   -0.9703    0.7941    0.0172 C   0  0  0  0  0  0  0  0  0  0  0  0
    0.2313   -3.7522   -0.1707 C   0  0  0  0  0  0  0  0  0  0  0  0
   -3.0846    1.0538    0.1654 C   0  0  0  0  0  0  0  0  0  0  0  0
   -3.9499   -1.1143   -0.5893 C   0  0  0  0  0  0  0  0  0  0  0  0
   -4.3920    1.5268    0.3690 C   0  0  0  0  0  0  0  0  0  0  0  0
    0.5819   -4.6840    0.9783 C   0  0  0  0  0  0  0  0  0  0  0  0
   -5.2444   -0.6270   -0.3812 C   0  0  0  0  0  0  0  0  0  0  0  0
   -5.4636    0.6697    0.0895 C   0  0  0  0  0  0  0  0  0  0  0  0
    1.1043    2.1395    0.2062 C   0  0  0  0  0  0  0  0  0  0  0  0
    3.3928    1.0880    0.0614 C   0  0  0  0  0  0  0  0  0  0  0  0
    4.5393    1.2833   -0.6880 C   0  0  0  0  0  0  0  0  0  0  0  0
    3.1213   -0.1244    0.6702 C   0  0  0  0  0  0  0  0  0  0  0  0
    5.4440    0.2316   -0.8337 C   0  0  0  0  0  0  0  0  0  0  0  0
    4.0261   -1.1760    0.5246 C   0  0  0  0  0  0  0  0  0  0  0  0
    5.1874   -0.9979   -0.2273 C   0  0  0  0  0  0  0  0  0  0  0  0
   -1.4633   -2.0675   -1.5782 H   0  0  0  0  0  0  0  0  0  0  0  0
    0.0734   -1.2644   -1.3683 H   0  0  0  0  0  0  0  0  0  0  0  0
   -1.4499   -2.8214    0.8164 H   0  0  0  0  0  0  0  0  0  0  0  0
    0.0816   -1.9957    1.0759 H   0  0  0  0  0  0  0  0  0  0  0  0
   -0.3803   -4.2937   -0.9016 H   0  0  0  0  0  0  0  0  0  0  0  0
    1.1539   -3.4491   -0.6795 H   0  0  0  0  0  0  0  0  0  0  0  0
   -3.7851   -2.1225   -0.9517 H   0  0  0  0  0  0  0  0  0  0  0  0
   -4.5728    2.5327    0.7343 H   0  0  0  0  0  0  0  0  0  0  0  0
    1.1171   -5.5623    0.6043 H   0  0  0  0  0  0  0  0  0  0  0  0
    1.2234   -4.1810    1.7090 H   0  0  0  0  0  0  0  0  0  0  0  0
   -0.3206   -5.0293    1.4927 H   0  0  0  0  0  0  0  0  0  0  0  0
    0.9278    0.1459   -0.2177 H   0  0  0  0  0  0  0  0  0  0  0  0
   -6.0955   -1.2708   -0.5890 H   0  0  0  0  0  0  0  0  0  0  0  0
   -6.4813    1.0199    0.2416 H   0  0  0  0  0  0  0  0  0  0  0  0
    2.8814    3.0840    0.1042 H   0  0  0  0  0  0  0  0  0  0  0  0
    4.7468    2.2374   -1.1644 H   0  0  0  0  0  0  0  0  0  0  0  0
    2.2609   -0.2791    1.3135 H   0  0  0  0  0  0  0  0  0  0  0  0
    6.3484    0.3703   -1.4187 H   0  0  0  0  0  0  0  0  0  0  0  0
    3.8330   -2.1295    1.0078 H   0  0  0  0  0  0  0  0  0  0  0  0
    5.8933   -1.8159   -0.3381 H   0  0  0  0  0  0  0  0  0  0  0  0
  1 17  2  0  0  0  0
  2  6  1  0  0  0  0
  2  8  1  0  0  0  0
  2  9  1  0  0  0  0
  3  9  2  0  0  0  0
  3 11  1  0  0  0  0
  4  9  1  0  0  0  0
  4 17  1  0  0  0  0
  4 35  1  0  0  0  0
  5 17  1  0  0  0  0
  5 18  1  0  0  0  0
  5 38  1  0  0  0  0
  6  7  1  0  0  0  0
  6 24  1  0  0  0  0
  6 25  1  0  0  0  0
  7 10  1  0  0  0  0
  7 26  1  0  0  0  0
  7 27  1  0  0  0  0
  8 11  1  0  0  0  0
  8 12  2  0  0  0  0
 10 14  1  0  0  0  0
 10 28  1  0  0  0  0
 10 29  1  0  0  0  0
 11 13  2  0  0  0  0
 12 15  1  0  0  0  0
 12 30  1  0  0  0  0
 13 16  1  0  0  0  0
 13 31  1  0  0  0  0
 14 32  1  0  0  0  0
 14 33  1  0  0  0  0
 14 34  1  0  0  0  0
 15 16  2  0  0  0  0
 15 36  1  0  0  0  0
 16 37  1  0  0  0  0
 18 19  2  0  0  0  0
 18 20  1  0  0  0  0
 19 21  1  0  0  0  0
 19 39  1  0  0  0  0
 20 22  2  0  0  0  0
 20 40  1  0  0  0  0
 21 23  2  0  0  0  0
 21 41  1  0  0  0  0
 22 23  1  0  0  0  0
 22 42  1  0  0  0  0
 23 43  1  0  0  0  0
M  END
> <PUBCHEM_COMPOUND_CID>
2931173

> <PUBCHEM_CONFORMER_RMSD>
0.8

> <PUBCHEM_CONFORMER_DIVERSEORDER>
1
14
15
13
21
6
19
3
12
16
8
18
10
4
17
11
20
9
7
5
2

> <PUBCHEM_MMFF94_PARTIAL_CHARGES>
31
1 -0.38
11 0.23
12 -0.15
13 -0.15
15 -0.15
16 -0.15
17 0.5
18 0.12
19 -0.15
2 0.05
20 -0.15
21 -0.15
22 -0.15
23 -0.15
3 -0.57
30 0.15
31 0.15
35 0.37
36 0.15
37 0.15
38 0.37
39 0.15
4 -0.49
40 0.15
41 0.15
42 0.15
43 0.15
5 -0.55
6 0.26
8 -0.15
9 0.25

> <PUBCHEM_EFFECTIVE_ROTOR_COUNT>
7

> <PUBCHEM_PHARMACOPHORE_FEATURES>
8
1 1 acceptor
1 14 hydrophobe
1 4 donor
1 5 donor
4 2 3 4 9 cation
5 2 3 8 9 11 rings
6 18 19 20 21 22 23 rings
6 8 11 12 13 15 16 rings

> <PUBCHEM_HEAVY_ATOM_COUNT>
23

> <PUBCHEM_ATOM_DEF_STEREO_COUNT>
0

> <PUBCHEM_ATOM_UDEF_STEREO_COUNT>
0

> <PUBCHEM_BOND_DEF_STEREO_COUNT>
0

> <PUBCHEM_BOND_UDEF_STEREO_COUNT>
0

> <PUBCHEM_ISOTOPIC_ATOM_COUNT>
0

> <PUBCHEM_COMPONENT_COUNT>
1

> <PUBCHEM_CACTVS_TAUTO_COUNT>
5

> <PUBCHEM_CONFORMER_ID>
002CB9E500000001

> <PUBCHEM_MMFF94_ENERGY>
65.6239

> <PUBCHEM_FEATURE_SELFOVERLAP>
40.733

> <PUBCHEM_SHAPE_FINGERPRINT>
1100329 8 18339356469595196234
12553582 1 18340475725762566940
12592029 89 18411139095869256531
12788726 201 17988375805622194864
12838862 33 18338778075619711000
13140716 1 18341618170094586513
13402501 40 18343587326489148254
14251757 5 18265910205920589836
14790565 3 18410580573716257393
15099037 51 18411701001860852965
15196674 1 18413670231518116244
15420108 30 17268936588382961513
17349148 13 17703794751380602749
17859628 97 18409448072449773802
1813 80 17749383784807775564
19319366 153 17749103405564242130
19591789 44 18410851088115393507
19930381 70 18265612091729410466
20028762 73 18201996685667203879
20832881 197 18060419114150094144
21267235 1 18341620325413632381
21421861 104 17975701584326394714
23402539 116 18130785659600141877
23559900 14 18129093592587944072
3004659 81 18335140882696955916
3178227 256 18338529620446238777
3298306 158 18337945701903555759
335352 9 18342175562434296781
3383291 50 18338514252489771106
3680242 22 18337110043091683674
5104073 3 18202003269624845265
5312544 6 18335136449658119402
59755656 215 18337388237066587133
6138700 20 18341335492099596062
9709674 26 17981602981213306636

> <PUBCHEM_SHAPE_MULTIPOLES>
457.25
11.3
4.33
0.83
0.88
4.03
0.01
-1.79
1.75
1.06
-1.22
0.24
0.22
-0.74

> <PUBCHEM_SHAPE_SELFOVERLAP>
967.94

> <PUBCHEM_SHAPE_VOLUME>
257.5

> <PUBCHEM_COORDINATE_TYPE>
2
5
10

$$$$
