6227965
  -OEChem-01171810003D

 38 40  0     0  0  0  0  0  0999 V2000
   -3.1923    0.2796   -0.7588 O   0  0  0  0  0  0  0  0  0  0  0  0
    3.5954   -2.2758   -1.5436 O   0  0  0  0  0  0  0  0  0  0  0  0
   -0.9567    0.1313   -2.0237 O   0  0  0  0  0  0  0  0  0  0  0  0
    4.0216   -0.4352   -0.1254 N   0  0  0  0  0  0  0  0  0  0  0  0
    1.8964    0.4186    0.0816 C   0  0  0  0  0  0  0  0  0  0  0  0
    1.8523   -0.7578   -0.7802 C   0  0  0  0  0  0  0  0  0  0  0  0
    3.2362    0.5694    0.4509 C   0  0  0  0  0  0  0  0  0  0  0  0
    3.2466   -1.3009   -0.9038 C   0  0  0  0  0  0  0  0  0  0  0  0
    0.9354    1.3014    0.5365 C   0  0  0  0  0  0  0  0  0  0  0  0
    0.7966   -1.3075   -1.3835 C   0  0  0  0  0  0  0  0  0  0  0  0
    3.6654    1.5906    1.2756 C   0  0  0  0  0  0  0  0  0  0  0  0
   -1.4207   -1.2094   -0.1280 C   0  0  0  0  0  0  0  0  0  0  0  0
   -0.5711   -0.7195   -1.2217 C   0  0  0  0  0  0  0  0  0  0  0  0
    1.3484    2.3436    1.3735 C   0  0  0  0  0  0  0  0  0  0  0  0
    2.7002    2.4868    1.7393 C   0  0  0  0  0  0  0  0  0  0  0  0
   -2.6950   -0.6908    0.0589 C   0  0  0  0  0  0  0  0  0  0  0  0
   -0.9222   -2.1971    0.7115 C   0  0  0  0  0  0  0  0  0  0  0  0
   -3.4856   -1.1687    1.1042 C   0  0  0  0  0  0  0  0  0  0  0  0
   -1.7128   -2.6747    1.7567 C   0  0  0  0  0  0  0  0  0  0  0  0
   -2.9944   -2.1606    1.9530 C   0  0  0  0  0  0  0  0  0  0  0  0
   -3.5566    1.5160   -0.1490 C   0  0  0  0  0  0  0  0  0  0  0  0
   -3.3128    2.6211   -1.1223 C   0  0  0  0  0  0  0  0  0  0  0  0
   -2.4743    3.6396   -0.9017 C   0  0  0  0  0  0  0  0  0  0  0  0
    5.0223   -0.5119    0.0131 H   0  0  0  0  0  0  0  0  0  0  0  0
   -0.1113    1.2428    0.2779 H   0  0  0  0  0  0  0  0  0  0  0  0
    0.8762   -2.1862   -2.0141 H   0  0  0  0  0  0  0  0  0  0  0  0
    4.7066    1.6997    1.5565 H   0  0  0  0  0  0  0  0  0  0  0  0
    0.6164    3.0559    1.7457 H   0  0  0  0  0  0  0  0  0  0  0  0
    2.9939    3.3060    2.3904 H   0  0  0  0  0  0  0  0  0  0  0  0
    0.0636   -2.6362    0.5999 H   0  0  0  0  0  0  0  0  0  0  0  0
   -4.4889   -0.7836    1.2648 H   0  0  0  0  0  0  0  0  0  0  0  0
   -1.3318   -3.4484    2.4171 H   0  0  0  0  0  0  0  0  0  0  0  0
   -3.6106   -2.5342    2.7656 H   0  0  0  0  0  0  0  0  0  0  0  0
   -4.6230    1.4842    0.1005 H   0  0  0  0  0  0  0  0  0  0  0  0
   -2.9907    1.6813    0.7772 H   0  0  0  0  0  0  0  0  0  0  0  0
   -3.8565    2.5880   -2.0627 H   0  0  0  0  0  0  0  0  0  0  0  0
   -2.3413    4.4135   -1.6497 H   0  0  0  0  0  0  0  0  0  0  0  0
   -1.9079    3.7195    0.0196 H   0  0  0  0  0  0  0  0  0  0  0  0
  1 16  1  0  0  0  0
  1 21  1  0  0  0  0
  2  8  2  0  0  0  0
  3 13  2  0  0  0  0
  4  7  1  0  0  0  0
  4  8  1  0  0  0  0
  4 24  1  0  0  0  0
  5  6  1  0  0  0  0
  5  7  1  0  0  0  0
  5  9  2  0  0  0  0
  6  8  1  0  0  0  0
  6 10  2  0  0  0  0
  7 11  2  0  0  0  0
  9 14  1  0  0  0  0
  9 25  1  0  0  0  0
 10 13  1  0  0  0  0
 10 26  1  0  0  0  0
 11 15  1  0  0  0  0
 11 27  1  0  0  0  0
 12 13  1  0  0  0  0
 12 16  1  0  0  0  0
 12 17  2  0  0  0  0
 14 15  2  0  0  0  0
 14 28  1  0  0  0  0
 15 29  1  0  0  0  0
 16 18  2  0  0  0  0
 17 19  1  0  0  0  0
 17 30  1  0  0  0  0
 18 20  1  0  0  0  0
 18 31  1  0  0  0  0
 19 20  2  0  0  0  0
 19 32  1  0  0  0  0
 20 33  1  0  0  0  0
 21 22  1  0  0  0  0
 21 34  1  0  0  0  0
 21 35  1  0  0  0  0
 22 23  2  0  0  0  0
 22 36  1  0  0  0  0
 23 37  1  0  0  0  0
 23 38  1  0  0  0  0
M  END
> <PUBCHEM_COMPOUND_CID>
6227965

> <PUBCHEM_CONFORMER_RMSD>
0.8

> <PUBCHEM_CONFORMER_DIVERSEORDER>
1
24
11
23
15
25
10
16
13
9
5
6
27
26
12
2
8
19
21
17
18
20
3
14
7
4
22

> <PUBCHEM_MMFF94_PARTIAL_CHARGES>
36
1 -0.36
10 -0.14
11 -0.15
12 0.09
13 0.47
14 -0.15
15 -0.15
16 0.08
17 -0.15
18 -0.15
19 -0.15
2 -0.57
20 -0.15
21 0.42
22 -0.29
23 -0.3
24 0.37
25 0.15
26 0.15
27 0.15
28 0.15
29 0.15
3 -0.57
30 0.15
31 0.15
32 0.15
33 0.15
36 0.15
37 0.15
38 0.15
4 -0.55
5 0.03
6 -0.01
7 0.12
8 0.62
9 -0.15

> <PUBCHEM_EFFECTIVE_ROTOR_COUNT>
5.2

> <PUBCHEM_PHARMACOPHORE_FEATURES>
8
1 1 acceptor
1 2 acceptor
1 23 hydrophobe
1 3 acceptor
1 4 donor
5 4 5 6 7 8 rings
6 12 16 17 18 19 20 rings
6 5 7 9 11 14 15 rings

> <PUBCHEM_HEAVY_ATOM_COUNT>
23

> <PUBCHEM_ATOM_DEF_STEREO_COUNT>
0

> <PUBCHEM_ATOM_UDEF_STEREO_COUNT>
0

> <PUBCHEM_BOND_DEF_STEREO_COUNT>
1

> <PUBCHEM_BOND_UDEF_STEREO_COUNT>
0

> <PUBCHEM_ISOTOPIC_ATOM_COUNT>
0

> <PUBCHEM_COMPONENT_COUNT>
1

> <PUBCHEM_CACTVS_TAUTO_COUNT>
5

> <PUBCHEM_CONFORMER_ID>
005F07FD00000001

> <PUBCHEM_MMFF94_ENERGY>
88.4897

> <PUBCHEM_FEATURE_SELFOVERLAP>
40.698

> <PUBCHEM_SHAPE_FINGERPRINT>
10165383 225 17682410147963509333
10366900 7 18265899235936130438
1100329 8 16897088232378593355
11221954 11 18341880879784200125
12403259 226 18341058492473734199
12596599 1 15213299741975225987
12633257 1 18045780349592348419
12788726 201 17315097655739789179
13083527 12 16896243309697134827
13294875 104 17831838176045124913
13402501 40 18413103948944698145
13464514 151 17979355253266020949
13583140 156 18343587343099766359
14251757 17 18199744756603098513
14363568 33 17761790854114179752
15295992 7 18342181029352047265
16752209 62 17023175102536690291
18219364 16 17988645254273030403
19049666 15 18409731746370514786
20600515 1 17315336262621324157
20681677 76 18272087223121510487
22112679 90 16153703271136652086
22182313 1 18202848751718304888
23175994 123 18058185950521473862
23559900 14 18261122914427932591
3187 122 18045490066039068441
35225 105 17677869345392509665
3524813 1 18267300928958038773
469060 322 17336162228026647335
57527295 17 18124311610370911471
6049 1 18339092573887732675
7226269 152 17979070488481595866
81228 2 18041271166808225119
84936 182 17686050596808805189
9862522 239 17769910674950487424

> <PUBCHEM_SHAPE_MULTIPOLES>
450.74
7.26
3.66
1.86
1.69
2.12
0.18
1
0.82
-2.14
0.45
0.03
-0.32
3.85

> <PUBCHEM_SHAPE_SELFOVERLAP>
988.353

> <PUBCHEM_SHAPE_VOLUME>
244.2

> <PUBCHEM_COORDINATE_TYPE>
2
5
10

$$$$
