6263696
  -OEChem-01171809403D

 47 48  0     0  0  0  0  0  0999 V2000
    3.2537   -0.6202    1.9536 S   0  0  0  0  0  0  0  0  0  0  0  0
   -0.8434    2.5577    1.4888 O   0  0  0  0  0  0  0  0  0  0  0  0
    4.9201   -0.1522   -0.1728 N   0  0  0  0  0  0  0  0  0  0  0  0
   -5.7994   -1.0688   -0.4245 C   0  0  0  0  0  0  0  0  0  0  0  0
   -4.5116   -0.3829   -0.1158 C   0  0  0  0  0  0  0  0  0  0  0  0
   -6.0938   -2.2074    0.6010 C   0  0  0  0  0  0  0  0  0  0  0  0
   -5.7718   -1.7116   -1.8459 C   0  0  0  0  0  0  0  0  0  0  0  0
   -7.0687   -0.1538   -0.4063 C   0  0  0  0  0  0  0  0  0  0  0  0
   -3.3198   -1.1076   -0.1067 C   0  0  0  0  0  0  0  0  0  0  0  0
   -4.4990    0.9836    0.1637 C   0  0  0  0  0  0  0  0  0  0  0  0
   -2.1154   -0.4658    0.1817 C   0  0  0  0  0  0  0  0  0  0  0  0
   -3.2946    1.6254    0.4521 C   0  0  0  0  0  0  0  0  0  0  0  0
   -2.1275    0.8877    0.4551 C   0  0  0  0  0  0  0  0  0  0  0  0
   -0.8471    1.5694    0.7632 C   0  0  0  0  0  0  0  0  0  0  0  0
    2.8039    1.1685   -0.1999 C   0  0  0  0  0  0  0  0  0  0  0  0
    0.3922    1.0296    0.1395 C   0  0  0  0  0  0  0  0  0  0  0  0
    3.6989    0.1379    0.4952 C   0  0  0  0  0  0  0  0  0  0  0  0
    1.5592    1.6283    0.3782 C   0  0  0  0  0  0  0  0  0  0  0  0
    5.9089   -1.0954    0.3738 C   0  0  0  0  0  0  0  0  0  0  0  0
    3.1951    1.6661   -1.3851 C   0  0  0  0  0  0  0  0  0  0  0  0
    5.2307    0.4089   -1.4016 C   0  0  0  0  0  0  0  0  0  0  0  0
    4.4223    1.2760   -2.0115 C   0  0  0  0  0  0  0  0  0  0  0  0
    5.5808   -2.4731   -0.0972 C   0  0  0  0  0  0  0  0  0  0  0  0
    5.3261   -3.5002    0.7215 C   0  0  0  0  0  0  0  0  0  0  0  0
   -5.3253   -2.9878    0.5779 H   0  0  0  0  0  0  0  0  0  0  0  0
   -6.1319   -1.8109    1.6224 H   0  0  0  0  0  0  0  0  0  0  0  0
   -7.0541   -2.6933    0.3925 H   0  0  0  0  0  0  0  0  0  0  0  0
   -4.9943   -2.4786   -1.9330 H   0  0  0  0  0  0  0  0  0  0  0  0
   -6.7277   -2.1919   -2.0850 H   0  0  0  0  0  0  0  0  0  0  0  0
   -5.5750   -0.9528   -2.6124 H   0  0  0  0  0  0  0  0  0  0  0  0
   -7.9729   -0.7283   -0.6420 H   0  0  0  0  0  0  0  0  0  0  0  0
   -7.2246    0.2975    0.5805 H   0  0  0  0  0  0  0  0  0  0  0  0
   -6.9964    0.6484   -1.1499 H   0  0  0  0  0  0  0  0  0  0  0  0
   -3.3022   -2.1740   -0.3128 H   0  0  0  0  0  0  0  0  0  0  0  0
   -5.3949    1.5946    0.1693 H   0  0  0  0  0  0  0  0  0  0  0  0
   -1.2168   -1.0726    0.2166 H   0  0  0  0  0  0  0  0  0  0  0  0
   -3.2996    2.6908    0.6632 H   0  0  0  0  0  0  0  0  0  0  0  0
    0.3373    0.1972   -0.5522 H   0  0  0  0  0  0  0  0  0  0  0  0
    1.6433    2.4671    1.0638 H   0  0  0  0  0  0  0  0  0  0  0  0
    6.9121   -0.8186    0.0256 H   0  0  0  0  0  0  0  0  0  0  0  0
    5.9445   -1.0273    1.4656 H   0  0  0  0  0  0  0  0  0  0  0  0
    2.5951    2.4003   -1.9162 H   0  0  0  0  0  0  0  0  0  0  0  0
    6.1675    0.1122   -1.8611 H   0  0  0  0  0  0  0  0  0  0  0  0
    4.6783    1.7052   -2.9730 H   0  0  0  0  0  0  0  0  0  0  0  0
    5.5624   -2.6525   -1.1695 H   0  0  0  0  0  0  0  0  0  0  0  0
    5.0997   -4.4805    0.3166 H   0  0  0  0  0  0  0  0  0  0  0  0
    5.3445   -3.3887    1.7997 H   0  0  0  0  0  0  0  0  0  0  0  0
  1 17  2  0  0  0  0
  2 14  2  0  0  0  0
  3 17  1  0  0  0  0
  3 19  1  0  0  0  0
  3 21  1  0  0  0  0
  4  5  1  0  0  0  0
  4  6  1  0  0  0  0
  4  7  1  0  0  0  0
  4  8  1  0  0  0  0
  5  9  2  0  0  0  0
  5 10  1  0  0  0  0
  6 25  1  0  0  0  0
  6 26  1  0  0  0  0
  6 27  1  0  0  0  0
  7 28  1  0  0  0  0
  7 29  1  0  0  0  0
  7 30  1  0  0  0  0
  8 31  1  0  0  0  0
  8 32  1  0  0  0  0
  8 33  1  0  0  0  0
  9 11  1  0  0  0  0
  9 34  1  0  0  0  0
 10 12  2  0  0  0  0
 10 35  1  0  0  0  0
 11 13  2  0  0  0  0
 11 36  1  0  0  0  0
 12 13  1  0  0  0  0
 12 37  1  0  0  0  0
 13 14  1  0  0  0  0
 14 16  1  0  0  0  0
 15 17  1  0  0  0  0
 15 18  1  0  0  0  0
 15 20  2  0  0  0  0
 16 18  2  0  0  0  0
 16 38  1  0  0  0  0
 18 39  1  0  0  0  0
 19 23  1  0  0  0  0
 19 40  1  0  0  0  0
 19 41  1  0  0  0  0
 20 22  1  0  0  0  0
 20 42  1  0  0  0  0
 21 22  2  0  0  0  0
 21 43  1  0  0  0  0
 22 44  1  0  0  0  0
 23 24  2  0  0  0  0
 23 45  1  0  0  0  0
 24 46  1  0  0  0  0
 24 47  1  0  0  0  0
M  END
> <PUBCHEM_COMPOUND_CID>
6263696

> <PUBCHEM_CONFORMER_RMSD>
0.8

> <PUBCHEM_CONFORMER_DIVERSEORDER>
2
37
5
26
13
8
19
34
31
1
11
4
9
41
18
28
10
45
23
25
32
29
22
38
6
17
42
20
12
3
27
46
47
30
14
43
35
7
16
15
21
44
36
24
39
40
33

> <PUBCHEM_MMFF94_PARTIAL_CHARGES>
33
1 -0.38
10 -0.15
11 -0.15
12 -0.15
13 0.09
14 0.47
15 0.01
16 -0.14
17 0.43
18 -0.15
19 0.44
2 -0.57
20 -0.15
21 -0.04
22 -0.15
23 -0.29
24 -0.3
3 -0.47
34 0.15
35 0.15
36 0.15
37 0.15
38 0.15
39 0.15
4 0.14
42 0.15
43 0.15
44 0.15
45 0.15
46 0.15
47 0.15
5 -0.14
9 -0.15

> <PUBCHEM_EFFECTIVE_ROTOR_COUNT>
6

> <PUBCHEM_PHARMACOPHORE_FEATURES>
6
1 1 acceptor
1 2 acceptor
1 24 hydrophobe
4 4 6 7 8 hydrophobe
6 3 15 17 20 21 22 rings
6 5 9 10 11 12 13 rings

> <PUBCHEM_HEAVY_ATOM_COUNT>
24

> <PUBCHEM_ATOM_DEF_STEREO_COUNT>
0

> <PUBCHEM_ATOM_UDEF_STEREO_COUNT>
0

> <PUBCHEM_BOND_DEF_STEREO_COUNT>
1

> <PUBCHEM_BOND_UDEF_STEREO_COUNT>
0

> <PUBCHEM_ISOTOPIC_ATOM_COUNT>
0

> <PUBCHEM_COMPONENT_COUNT>
1

> <PUBCHEM_CACTVS_TAUTO_COUNT>
1

> <PUBCHEM_CONFORMER_ID>
005F939000000002

> <PUBCHEM_MMFF94_ENERGY>
87.4768

> <PUBCHEM_FEATURE_SELFOVERLAP>
30.446

> <PUBCHEM_SHAPE_FINGERPRINT>
10595046 47 18408612474073385940
10622 236 18117831110712439194
10693767 8 17896034352814527794
11545043 162 17203611458449354953
11809386 21 18342178839209221065
12166972 35 18334859419903689716
12236239 1 18335141985686087680
12342043 65 15409516311342846612
12633257 1 15697701671872957418
12760667 363 18343581854727069739
13533116 47 18410573998569103088
13862211 1 18131348657219722319
13885169 86 9150881806493035102
14150023 79 18053661662533140736
14211702 104 18342747277645757774
14251740 57 17916312641428344286
14251752 14 18408602553036282517
14347332 77 18411418375806624173
146900 427 11383829360007334190
14849402 71 12031780354702937382
15119646 104 18411141303308418431
15183329 4 17821728333962611701
15188451 53 17918270935222710264
15348495 7 15267061497393243911
15475509 35 18059564755794303242
15519825 34 14404318703695314837
17857418 61 18342739623897491559
18222031 100 17775291607278392521
19958102 18 18260259768109858207
20028762 73 18338796690182805362
20645477 70 17676214554949885488
21033648 29 15195002687315322752
21315764 119 17822008714118281495
22061861 79 17821725048434001671
221357 26 16805317795214642204
23522609 53 18125192478642264849
23559900 14 18267016344688678457
2748736 6 10809333464947790583
2838139 119 13768474427592125749
29717793 49 18113618980286724228
3004659 81 18259981574292742408
312425 54 15051741906185135271
3472631 163 7925622319919937666
34797466 226 16515688896322874877
351380 3 18413107286038691985
397830 11 12247671721251966229
439807 62 18409451388723578475
46194498 28 17312821598035004766
465052 167 18271812353614343764
5104073 3 17632579344294230961
559249 180 18341329999015570969
59682541 52 16660351567784671962
60123966 16 16154003425759193814
7808743 9 7853559206817586920
7970288 3 18413386527474757314
86090 222 15625128410908143564
960060 61 17968098646431289324
96874 4 18338228268103211418

> <PUBCHEM_SHAPE_MULTIPOLES>
486.91
18.93
2.8
1.47
9.49
1.67
-0.29
12.63
-4.64
-2.55
0.36
-0.97
-0.22
-2.47

> <PUBCHEM_SHAPE_SELFOVERLAP>
1009.779

> <PUBCHEM_SHAPE_VOLUME>
281

> <PUBCHEM_COORDINATE_TYPE>
2
5
10

$$$$
