2353606
  -OEChem-01171810133D

 58 60  0     0  0  0  0  0  0999 V2000
    3.6928   -2.4568   -0.7135 O   0  0  0  0  0  0  0  0  0  0  0  0
   -6.2022    1.7645   -0.5220 O   0  0  0  0  0  0  0  0  0  0  0  0
   -9.0175    1.9424    0.0748 O   0  0  0  0  0  0  0  0  0  0  0  0
   -4.8913   -0.3204    0.1680 O   0  0  0  0  0  0  0  0  0  0  0  0
   -2.3859   -0.0522   -0.5011 O   0  0  0  0  0  0  0  0  0  0  0  0
   -6.7425   -1.3853    1.0624 O   0  0  0  0  0  0  0  0  0  0  0  0
   -1.7680   -2.1642    0.3422 N   0  0  0  0  0  0  0  0  0  0  0  0
    6.8701    2.1136    0.4679 C   0  0  0  0  0  0  0  0  0  0  0  0
    5.9808    3.3578    0.7758 C   0  0  0  0  0  0  0  0  0  0  0  0
    6.0105    0.8770    0.1478 C   0  0  0  0  0  0  0  0  0  0  0  0
    7.8732    2.4839   -0.6511 C   0  0  0  0  0  0  0  0  0  0  0  0
    7.7177    1.8055    1.7278 C   0  0  0  0  0  0  0  0  0  0  0  0
    5.0521    3.7902   -0.3552 C   0  0  0  0  0  0  0  0  0  0  0  0
    5.0633    0.4294    1.0687 C   0  0  0  0  0  0  0  0  0  0  0  0
    6.1787    0.2044   -1.0626 C   0  0  0  0  0  0  0  0  0  0  0  0
    4.2842   -0.6909    0.7793 C   0  0  0  0  0  0  0  0  0  0  0  0
    5.3997   -0.9159   -1.3521 C   0  0  0  0  0  0  0  0  0  0  0  0
    4.4525   -1.3635   -0.4311 C   0  0  0  0  0  0  0  0  0  0  0  0
    2.3354   -2.3833   -0.4492 C   0  0  0  0  0  0  0  0  0  0  0  0
    1.6130   -1.2494   -0.8207 C   0  0  0  0  0  0  0  0  0  0  0  0
    1.6901   -3.4442    0.1865 C   0  0  0  0  0  0  0  0  0  0  0  0
   -0.3999   -2.2370    0.0791 C   0  0  0  0  0  0  0  0  0  0  0  0
    0.2454   -1.1762   -0.5566 C   0  0  0  0  0  0  0  0  0  0  0  0
    0.3226   -3.3710    0.4506 C   0  0  0  0  0  0  0  0  0  0  0  0
   -7.0676    2.7059   -1.1709 C   0  0  0  0  0  0  0  0  0  0  0  0
   -2.6519   -1.1179    0.0467 C   0  0  0  0  0  0  0  0  0  0  0  0
   -8.2242    3.0893   -0.2591 C   0  0  0  0  0  0  0  0  0  0  0  0
   -4.0657   -1.4194    0.4940 C   0  0  0  0  0  0  0  0  0  0  0  0
   -6.9222    0.7722    0.1071 C   0  0  0  0  0  0  0  0  0  0  0  0
   -8.2353    0.8489    0.3576 C   0  0  0  0  0  0  0  0  0  0  0  0
   -6.2078   -0.4375    0.5092 C   0  0  0  0  0  0  0  0  0  0  0  0
    5.3669    3.1769    1.6671 H   0  0  0  0  0  0  0  0  0  0  0  0
    6.6256    4.2095    1.0307 H   0  0  0  0  0  0  0  0  0  0  0  0
    8.4443    3.3806   -0.3813 H   0  0  0  0  0  0  0  0  0  0  0  0
    7.3783    2.6961   -1.6048 H   0  0  0  0  0  0  0  0  0  0  0  0
    8.6032    1.6833   -0.8209 H   0  0  0  0  0  0  0  0  0  0  0  0
    8.3843    2.6419    1.9691 H   0  0  0  0  0  0  0  0  0  0  0  0
    8.3411    0.9158    1.5783 H   0  0  0  0  0  0  0  0  0  0  0  0
    7.0964    1.6257    2.6123 H   0  0  0  0  0  0  0  0  0  0  0  0
    4.3525    2.9968   -0.6334 H   0  0  0  0  0  0  0  0  0  0  0  0
    5.6118    4.0889   -1.2458 H   0  0  0  0  0  0  0  0  0  0  0  0
    4.4600    4.6546   -0.0362 H   0  0  0  0  0  0  0  0  0  0  0  0
    4.9158    0.9306    2.0207 H   0  0  0  0  0  0  0  0  0  0  0  0
    6.9004    0.5082   -1.8124 H   0  0  0  0  0  0  0  0  0  0  0  0
    3.5705   -1.0309    1.5250 H   0  0  0  0  0  0  0  0  0  0  0  0
    5.5346   -1.4364   -2.2964 H   0  0  0  0  0  0  0  0  0  0  0  0
    2.0871   -0.4189   -1.3373 H   0  0  0  0  0  0  0  0  0  0  0  0
    2.2482   -4.3297    0.4779 H   0  0  0  0  0  0  0  0  0  0  0  0
   -0.2470   -0.2695   -0.8791 H   0  0  0  0  0  0  0  0  0  0  0  0
   -0.1673   -4.2051    0.9465 H   0  0  0  0  0  0  0  0  0  0  0  0
   -2.1652   -2.9784    0.8067 H   0  0  0  0  0  0  0  0  0  0  0  0
   -7.4302    2.2554   -2.1033 H   0  0  0  0  0  0  0  0  0  0  0  0
   -6.4725    3.5881   -1.4264 H   0  0  0  0  0  0  0  0  0  0  0  0
   -7.8584    3.5351    0.6741 H   0  0  0  0  0  0  0  0  0  0  0  0
   -8.8765    3.8165   -0.7525 H   0  0  0  0  0  0  0  0  0  0  0  0
   -4.0648   -1.5826    1.5776 H   0  0  0  0  0  0  0  0  0  0  0  0
   -4.4138   -2.3202   -0.0239 H   0  0  0  0  0  0  0  0  0  0  0  0
   -8.8373    0.0689    0.8027 H   0  0  0  0  0  0  0  0  0  0  0  0
  1 18  1  0  0  0  0
  1 19  1  0  0  0  0
  2 25  1  0  0  0  0
  2 29  1  0  0  0  0
  3 27  1  0  0  0  0
  3 30  1  0  0  0  0
  4 28  1  0  0  0  0
  4 31  1  0  0  0  0
  5 26  2  0  0  0  0
  6 31  2  0  0  0  0
  7 22  1  0  0  0  0
  7 26  1  0  0  0  0
  7 51  1  0  0  0  0
  8  9  1  0  0  0  0
  8 10  1  0  0  0  0
  8 11  1  0  0  0  0
  8 12  1  0  0  0  0
  9 13  1  0  0  0  0
  9 32  1  0  0  0  0
  9 33  1  0  0  0  0
 10 14  2  0  0  0  0
 10 15  1  0  0  0  0
 11 34  1  0  0  0  0
 11 35  1  0  0  0  0
 11 36  1  0  0  0  0
 12 37  1  0  0  0  0
 12 38  1  0  0  0  0
 12 39  1  0  0  0  0
 13 40  1  0  0  0  0
 13 41  1  0  0  0  0
 13 42  1  0  0  0  0
 14 16  1  0  0  0  0
 14 43  1  0  0  0  0
 15 17  2  0  0  0  0
 15 44  1  0  0  0  0
 16 18  2  0  0  0  0
 16 45  1  0  0  0  0
 17 18  1  0  0  0  0
 17 46  1  0  0  0  0
 19 20  2  0  0  0  0
 19 21  1  0  0  0  0
 20 23  1  0  0  0  0
 20 47  1  0  0  0  0
 21 24  2  0  0  0  0
 21 48  1  0  0  0  0
 22 23  2  0  0  0  0
 22 24  1  0  0  0  0
 23 49  1  0  0  0  0
 24 50  1  0  0  0  0
 25 27  1  0  0  0  0
 25 52  1  0  0  0  0
 25 53  1  0  0  0  0
 26 28  1  0  0  0  0
 27 54  1  0  0  0  0
 27 55  1  0  0  0  0
 28 56  1  0  0  0  0
 28 57  1  0  0  0  0
 29 30  2  0  0  0  0
 29 31  1  0  0  0  0
 30 58  1  0  0  0  0
M  END
> <PUBCHEM_COMPOUND_CID>
2353606

> <PUBCHEM_CONFORMER_RMSD>
1.2

> <PUBCHEM_CONFORMER_DIVERSEORDER>
1
33
31
66
19
41
68
36
43
15
57
60
32
24
48
58
46
54
8
56
44
3
64
11
5
2
38
45
62
40
21
65
61
50
52
59
47
14
4
35
13
51
34
63
20
22
42
27
29
10
7
49
53
37
6
30
28
12
23
67
16
25
17
26
18
9
55
39

> <PUBCHEM_MMFF94_PARTIAL_CHARGES>
37
1 -0.17
10 -0.14
14 -0.15
15 -0.15
16 -0.15
17 -0.15
18 0.08
19 0.08
2 -0.36
20 -0.15
21 -0.15
22 0.12
23 -0.15
24 -0.15
25 0.28
26 0.57
27 0.28
28 0.34
29 0.09
3 -0.36
30 -0.07
31 0.71
4 -0.43
43 0.15
44 0.15
45 0.15
46 0.15
47 0.15
48 0.15
49 0.15
5 -0.57
50 0.15
51 0.37
58 0.15
6 -0.57
7 -0.55
8 0.14

> <PUBCHEM_EFFECTIVE_ROTOR_COUNT>
10.8

> <PUBCHEM_PHARMACOPHORE_FEATURES>
11
1 1 acceptor
1 13 hydrophobe
1 2 acceptor
1 3 acceptor
1 5 acceptor
1 6 acceptor
1 7 donor
3 8 11 12 hydrophobe
6 10 14 15 16 17 18 rings
6 19 20 21 22 23 24 rings
6 2 3 25 27 29 30 rings

> <PUBCHEM_HEAVY_ATOM_COUNT>
31

> <PUBCHEM_ATOM_DEF_STEREO_COUNT>
0

> <PUBCHEM_ATOM_UDEF_STEREO_COUNT>
0

> <PUBCHEM_BOND_DEF_STEREO_COUNT>
0

> <PUBCHEM_BOND_UDEF_STEREO_COUNT>
0

> <PUBCHEM_ISOTOPIC_ATOM_COUNT>
0

> <PUBCHEM_COMPONENT_COUNT>
1

> <PUBCHEM_CACTVS_TAUTO_COUNT>
2

> <PUBCHEM_CONFORMER_ID>
0023E9C600000001

> <PUBCHEM_MMFF94_ENERGY>
98.5667

> <PUBCHEM_FEATURE_SELFOVERLAP>
55.826

> <PUBCHEM_SHAPE_FINGERPRINT>
10006869 2 18340482275672193246
10280341 67 18201143456217268904
10673678 19 18341899584187465166
10835480 77 18410292485090693489
11211813 74 18341331094411813321
11409948 41 15984280522116004646
11411753 3 18265074524964896859
11476731 118 18411702050324139769
11578821 258 18341895152773421513
11828532 37 10519696821956176324
125118 31 18335423460620262620
12522641 24 17969216746862795698
12522641 68 18131071584332283590
12539747 72 18187084000643007331
12539765 74 18201726128091236527
12661589 4 10159706764057537916
12925494 130 18196089070010031184
13668630 136 9655577396465754263
13782708 43 9439402428292861403
13944108 23 18412545401812484968
14251757 52 18408319986367349232
14556957 393 16917080923142508009
14565420 104 18187644682890625746
14598715 104 18260543403739851309
14617042 71 18341618088669672873
14931854 50 17632584855200910410
15320295 198 18270405004564398136
15350500 55 18411697694640810064
15455200 100 12029303107567150212
15840311 113 18412548686639449671
16994733 274 18333168367036244683
17686467 74 18260551156889082443
19301679 30 10737279143585550854
19302320 297 18334292106981231912
20609170 84 17095792239954674724
20691028 202 18337952406537239796
20715895 44 18341051934691143474
21026386 69 17823135619291618029
21033648 29 18187085061452222030
21130935 74 18040719134842090587
21585482 111 18408886226414003308
23569943 247 9366532303435398916
24771293 8 18334573581171407511
33532 11 8574706897632930147
3504750 166 11602537637805822859
3711267 37 18059303072011153017
3918712 181 18413102853364047856
406291 66 8430598310668750113
4073 2 17895206467898579955
4169191 19 18342178865063485881
4403749 210 18410013265336797643
444735 82 18409452479170576693
5080951 261 16733262469742964027
5109719 28 18410020944009419979
6289498 60 18334294275058872465
636775 72 18335984191189142585
6898599 12 17988357178322801591
99344 41 18410292531850634705

> <PUBCHEM_SHAPE_MULTIPOLES>
597.77
29.98
4.6
1.09
41.4
1.32
-0.05
34.33
-1.99
-2.3
0.13
-1.31
0.21
2.81

> <PUBCHEM_SHAPE_SELFOVERLAP>
1268.367

> <PUBCHEM_SHAPE_VOLUME>
331.5

> <PUBCHEM_COORDINATE_TYPE>
2
5
10

$$$$
