44142143
  -OEChem-01171810113D

 29 32  0     0  0  0  0  0  0999 V2000
   -3.7860   -0.6441    1.1643 S   0  0  0  0  0  0  0  0  0  0  0  0
    0.7047    0.6242   -1.4842 S   0  0  0  0  0  0  0  0  0  0  0  0
    2.1319   -3.0265    0.3361 S   0  0  0  0  0  0  0  0  0  0  0  0
   -3.4852    1.7217   -0.0238 N   0  0  0  0  0  0  0  0  0  0  0  0
   -1.4196    2.2052   -1.1976 N   0  0  0  0  0  0  0  0  0  0  0  0
    3.0799    1.1318   -0.1217 N   0  0  0  0  0  0  0  0  0  0  0  0
    1.3261    1.7502    0.9941 N   0  0  0  0  0  0  0  0  0  0  0  0
    3.5527    1.6404    1.0248 N   0  0  0  0  0  0  0  0  0  0  0  0
    2.4757    2.0173    1.7030 N   0  0  0  0  0  0  0  0  0  0  0  0
   -1.6799    0.0863   -0.1378 C   0  0  0  0  0  0  0  0  0  0  0  0
   -1.4301   -1.2407    0.3341 C   0  0  0  0  0  0  0  0  0  0  0  0
   -0.2139   -2.0042    0.1074 C   0  0  0  0  0  0  0  0  0  0  0  0
   -2.9391    0.5217    0.2542 C   0  0  0  0  0  0  0  0  0  0  0  0
   -0.9209    0.9887   -0.8902 C   0  0  0  0  0  0  0  0  0  0  0  0
   -2.4884   -1.7531    1.0527 C   0  0  0  0  0  0  0  0  0  0  0  0
   -0.0414   -2.8546   -1.0227 C   0  0  0  0  0  0  0  0  0  0  0  0
    0.8922   -2.0044    0.9284 C   0  0  0  0  0  0  0  0  0  0  0  0
    1.7233    1.2026   -0.1315 C   0  0  0  0  0  0  0  0  0  0  0  0
    1.1898   -3.4722   -1.0225 C   0  0  0  0  0  0  0  0  0  0  0  0
   -2.6576    2.4936   -0.7503 C   0  0  0  0  0  0  0  0  0  0  0  0
    3.9857    0.6161   -1.1169 C   0  0  0  0  0  0  0  0  0  0  0  0
   -2.5694   -2.7249    1.5209 H   0  0  0  0  0  0  0  0  0  0  0  0
   -0.7770   -3.0117   -1.8022 H   0  0  0  0  0  0  0  0  0  0  0  0
    1.0387   -1.4565    1.8494 H   0  0  0  0  0  0  0  0  0  0  0  0
   -3.0349    3.4764   -1.0104 H   0  0  0  0  0  0  0  0  0  0  0  0
    1.5814   -4.1633   -1.7554 H   0  0  0  0  0  0  0  0  0  0  0  0
    3.9042    1.2369   -2.0123 H   0  0  0  0  0  0  0  0  0  0  0  0
    5.0088    0.6520   -0.7331 H   0  0  0  0  0  0  0  0  0  0  0  0
    3.7133   -0.4187   -1.3369 H   0  0  0  0  0  0  0  0  0  0  0  0
  1 13  1  0  0  0  0
  1 15  1  0  0  0  0
  2 14  1  0  0  0  0
  2 18  1  0  0  0  0
  3 17  1  0  0  0  0
  3 19  1  0  0  0  0
  4 13  1  0  0  0  0
  4 20  2  0  0  0  0
  5 14  2  0  0  0  0
  5 20  1  0  0  0  0
  6  8  1  0  0  0  0
  6 18  1  0  0  0  0
  6 21  1  0  0  0  0
  7  9  1  0  0  0  0
  7 18  2  0  0  0  0
  8  9  2  0  0  0  0
 10 11  1  0  0  0  0
 10 13  2  0  0  0  0
 10 14  1  0  0  0  0
 11 12  1  0  0  0  0
 11 15  2  0  0  0  0
 12 16  1  0  0  0  0
 12 17  2  0  0  0  0
 15 22  1  0  0  0  0
 16 19  2  0  0  0  0
 16 23  1  0  0  0  0
 17 24  1  0  0  0  0
 19 26  1  0  0  0  0
 20 25  1  0  0  0  0
 21 27  1  0  0  0  0
 21 28  1  0  0  0  0
 21 29  1  0  0  0  0
M  END
> <PUBCHEM_COMPOUND_CID>
44142143

> <PUBCHEM_CONFORMER_RMSD>
0.6

> <PUBCHEM_CONFORMER_DIVERSEORDER>
1
27
3
34
24
4
17
31
13
7
29
2
28
26
33
30
23
22
19
21
25
5
32
15
18
16
14
20
6
8
11
9
12
10

> <PUBCHEM_MMFF94_PARTIAL_CHARGES>
22
1 -0.08
13 0.3
14 0.41
15 -0.11
16 -0.15
17 -0.11
18 0.24
19 -0.11
2 -0.16
20 0.47
21 0.26
22 0.15
23 0.15
24 0.15
25 0.15
26 0.15
3 -0.08
4 -0.57
5 -0.62
6 0.31
7 -0.34
8 -0.42

> <PUBCHEM_EFFECTIVE_ROTOR_COUNT>
3

> <PUBCHEM_PHARMACOPHORE_FEATURES>
7
1 5 acceptor
3 4 5 20 cation
3 6 7 18 cation
5 1 10 11 13 15 rings
5 3 12 16 17 19 rings
5 6 7 8 9 18 rings
6 4 5 10 13 14 20 rings

> <PUBCHEM_HEAVY_ATOM_COUNT>
21

> <PUBCHEM_ATOM_DEF_STEREO_COUNT>
0

> <PUBCHEM_ATOM_UDEF_STEREO_COUNT>
0

> <PUBCHEM_BOND_DEF_STEREO_COUNT>
0

> <PUBCHEM_BOND_UDEF_STEREO_COUNT>
0

> <PUBCHEM_ISOTOPIC_ATOM_COUNT>
0

> <PUBCHEM_COMPONENT_COUNT>
1

> <PUBCHEM_CACTVS_TAUTO_COUNT>
1

> <PUBCHEM_CONFORMER_ID>
02A18E3F00000001

> <PUBCHEM_MMFF94_ENERGY>
38.8092

> <PUBCHEM_FEATURE_SELFOVERLAP>
35.603

> <PUBCHEM_SHAPE_FINGERPRINT>
10165383 225 18198922455086373192
10764073 3 12045230447726399901
1100329 8 17044304064941406984
11112241 14 17344030132168044338
11680986 33 18188779331993093453
12422481 6 18044912633867187610
12553582 1 17040358488918545406
12633257 1 17912075359394770800
13004483 165 17118861381664523350
13132413 78 16755216039460359333
13140716 1 17831321736856723361
13149001 5 17757826737107378527
14178342 30 18122651567568152787
14223421 5 18335708195830663187
16945 1 18115030830663135443
19049666 15 18267308638097046909
19591789 44 18410862074742203918
20691752 17 16806180843333549731
20905425 154 18335714801248011863
21524375 3 18340775947775918826
22182313 1 18041850511205637869
2334 1 18188505583773415559
23419403 2 17898832574792721911
23559900 14 18262243209444541653
238 59 18195216993594969309
2748010 2 18115036186772248791
350125 39 17901959543403326557
3524813 1 18341061795171209318
465052 167 17243876850417680619
4663303 62 18268996388609018479
495365 180 18199167517536212749
5265222 85 18264785423222274172
59755656 215 18334299773254820527
7364860 26 18269274552044559687
81228 2 17548126088251063058
84936 31 17845076373168661270
90525 40 18115027531722310788
9862522 239 18265592408067859754

> <PUBCHEM_SHAPE_MULTIPOLES>
413.83
5.85
3.97
1.4
0.33
2.03
0.08
-2.58
1.03
-1.76
-0.29
-0.45
-0.28
1.47

> <PUBCHEM_SHAPE_SELFOVERLAP>
879.519

> <PUBCHEM_SHAPE_VOLUME>
234.2

> <PUBCHEM_COORDINATE_TYPE>
2
5
10

$$$$
