854805
  -OEChem-01171809173D

 25 25  0     0  0  0  0  0  0999 V2000
   -1.6864    3.1031   -0.3774 Cl  0  0  0  0  0  0  0  0  0  0  0  0
    2.8927   -0.9350    0.1040 S   0  0  0  0  0  0  0  0  0  0  0  0
   -2.3061   -0.9038   -0.2587 O   0  0  0  0  0  0  0  0  0  0  0  0
    3.8499   -0.6741   -0.9704 O   0  0  0  0  0  0  0  0  0  0  0  0
    3.3749   -0.9758    1.4850 O   0  0  0  0  0  0  0  0  0  0  0  0
   -2.6484    0.6117    1.4398 O   0  0  0  0  0  0  0  0  0  0  0  0
    0.3685   -0.2573    0.2993 N   0  0  0  0  0  0  0  0  0  0  0  0
    1.9165    1.4342   -0.4418 N   0  0  0  0  0  0  0  0  0  0  0  0
    1.5949    0.1949   -0.0248 C   0  0  0  0  0  0  0  0  0  0  0  0
   -0.6221    0.6513    0.1839 C   0  0  0  0  0  0  0  0  0  0  0  0
    2.1537   -2.5263   -0.2175 C   0  0  0  0  0  0  0  0  0  0  0  0
   -0.4245    1.9523   -0.2318 C   0  0  0  0  0  0  0  0  0  0  0  0
    0.8784    2.2911   -0.5345 C   0  0  0  0  0  0  0  0  0  0  0  0
   -1.9422    0.1477    0.5363 C   0  0  0  0  0  0  0  0  0  0  0  0
   -3.5896   -1.4872   -0.0097 C   0  0  0  0  0  0  0  0  0  0  0  0
   -3.8103   -2.6266   -0.9816 C   0  0  0  0  0  0  0  0  0  0  0  0
    1.6829   -2.5060   -1.2023 H   0  0  0  0  0  0  0  0  0  0  0  0
    2.9495   -3.2745   -0.2033 H   0  0  0  0  0  0  0  0  0  0  0  0
    1.4241   -2.7512    0.5626 H   0  0  0  0  0  0  0  0  0  0  0  0
    1.1446    3.2882   -0.8713 H   0  0  0  0  0  0  0  0  0  0  0  0
   -3.6245   -1.8637    1.0185 H   0  0  0  0  0  0  0  0  0  0  0  0
   -4.3668   -0.7271   -0.1453 H   0  0  0  0  0  0  0  0  0  0  0  0
   -4.7842   -3.0966   -0.8189 H   0  0  0  0  0  0  0  0  0  0  0  0
   -3.7591   -2.2671   -2.0147 H   0  0  0  0  0  0  0  0  0  0  0  0
   -3.0283   -3.3850   -0.8701 H   0  0  0  0  0  0  0  0  0  0  0  0
  1 12  1  0  0  0  0
  2  4  2  0  0  0  0
  2  5  2  0  0  0  0
  2  9  1  0  0  0  0
  2 11  1  0  0  0  0
  3 14  1  0  0  0  0
  3 15  1  0  0  0  0
  6 14  2  0  0  0  0
  7  9  1  0  0  0  0
  7 10  2  0  0  0  0
  8  9  2  0  0  0  0
  8 13  1  0  0  0  0
 10 12  1  0  0  0  0
 10 14  1  0  0  0  0
 11 17  1  0  0  0  0
 11 18  1  0  0  0  0
 11 19  1  0  0  0  0
 12 13  2  0  0  0  0
 13 20  1  0  0  0  0
 15 16  1  0  0  0  0
 15 21  1  0  0  0  0
 15 22  1  0  0  0  0
 16 23  1  0  0  0  0
 16 24  1  0  0  0  0
 16 25  1  0  0  0  0
M  END
> <PUBCHEM_COMPOUND_CID>
854805

> <PUBCHEM_CONFORMER_RMSD>
0.6

> <PUBCHEM_CONFORMER_DIVERSEORDER>
1
27
42
12
35
13
18
39
50
30
22
44
28
47
31
11
3
37
15
4
14
49
33
23
32
5
46
26
41
17
38
9
2
10
48
24
29
36
20
25
19
40
6
45
34
21
7
43
8
16

> <PUBCHEM_MMFF94_PARTIAL_CHARGES>
16
1 -0.18
10 0.4
11 0.11
12 0.18
13 0.16
14 0.63
15 0.28
2 1.2
20 0.15
3 -0.43
4 -0.65
5 -0.65
6 -0.57
7 -0.62
8 -0.62
9 0.61

> <PUBCHEM_EFFECTIVE_ROTOR_COUNT>
4

> <PUBCHEM_PHARMACOPHORE_FEATURES>
6
1 4 acceptor
1 5 acceptor
1 6 acceptor
1 7 acceptor
3 7 8 9 cation
6 7 8 9 10 12 13 rings

> <PUBCHEM_HEAVY_ATOM_COUNT>
16

> <PUBCHEM_ATOM_DEF_STEREO_COUNT>
0

> <PUBCHEM_ATOM_UDEF_STEREO_COUNT>
0

> <PUBCHEM_BOND_DEF_STEREO_COUNT>
0

> <PUBCHEM_BOND_UDEF_STEREO_COUNT>
0

> <PUBCHEM_ISOTOPIC_ATOM_COUNT>
0

> <PUBCHEM_COMPONENT_COUNT>
1

> <PUBCHEM_CACTVS_TAUTO_COUNT>
1

> <PUBCHEM_CONFORMER_ID>
000D0B1500000001

> <PUBCHEM_MMFF94_ENERGY>
32.5892

> <PUBCHEM_FEATURE_SELFOVERLAP>
30.466

> <PUBCHEM_SHAPE_FINGERPRINT>
11322862 65 17831864551465501269
11578080 2 17988063591701749097
116883 192 18410567354223229861
11769659 78 18271243932220753163
11806522 49 18269837673965360918
12553582 1 18335428971116362763
13083527 12 18191281961970643856
13583140 156 15410898413947180779
13931106 250 18265877078484375341
14178342 30 18269264678041470506
14576447 43 17981324800650741543
15477762 27 18050002487507821599
15669948 3 18117000970663762880
16945 1 18267585710795563088
19141452 34 18199192793434301243
20291156 8 18342178920512984223
20645476 183 16303489525629849336
20645477 70 18119239817178239647
20671657 53 18263351637820082007
20871998 184 18121227475975511709
21452121 199 18264470948867271617
21501502 16 18261116236086323732
22112679 90 18270700747717598601
2255824 54 18120100729849127764
23388829 49 18408046216804761772
23402539 116 18114463366910465946
23419403 2 17537954334584483620
23557571 272 18198613338153689530
23559900 14 17979351959627809774
23598291 2 18199203934732330871
257057 1 18410567422758291265
2748010 2 18334292029154817052
603831 33 18113625556029334342
6338986 31 18409158913823796411
6992083 37 18270137737803368977
7364860 26 18198063792461064936
81228 2 18189334580653876601

> <PUBCHEM_SHAPE_MULTIPOLES>
301.55
6.26
3.32
0.99
0.41
0.82
-0.19
-5.39
0.31
1.79
0.96
-0.02
-0.14
-0.81

> <PUBCHEM_SHAPE_SELFOVERLAP>
598.21

> <PUBCHEM_SHAPE_VOLUME>
182

> <PUBCHEM_COORDINATE_TYPE>
2
5
10

$$$$
