991251
  -OEChem-01171809423D

 36 38  0     0  0  0  0  0  0999 V2000
    2.2175   -3.5539   -0.9910 Cl  0  0  0  0  0  0  0  0  0  0  0  0
    4.4632    1.9890    0.3293 S   0  0  0  0  0  0  0  0  0  0  0  0
    4.9386    1.9860    1.7121 O   0  0  0  0  0  0  0  0  0  0  0  0
    5.3800    2.4059   -0.7322 O   0  0  0  0  0  0  0  0  0  0  0  0
    0.4458   -2.1458    1.1854 O   0  0  0  0  0  0  0  0  0  0  0  0
   -0.2483   -0.3599   -0.1774 N   0  0  0  0  0  0  0  0  0  0  0  0
    2.5383    0.2110    0.3115 N   0  0  0  0  0  0  0  0  0  0  0  0
    4.6536   -0.4367   -0.6439 N   0  0  0  0  0  0  0  0  0  0  0  0
   -3.7916    0.6909   -0.4448 C   0  0  0  0  0  0  0  0  0  0  0  0
   -4.4064   -0.2365    0.4297 C   0  0  0  0  0  0  0  0  0  0  0  0
   -1.6284   -0.3190    0.0240 C   0  0  0  0  0  0  0  0  0  0  0  0
   -2.4015    0.6362   -0.6368 C   0  0  0  0  0  0  0  0  0  0  0  0
   -3.6130   -1.1916    1.0863 C   0  0  0  0  0  0  0  0  0  0  0  0
   -2.2331   -1.2313    0.8838 C   0  0  0  0  0  0  0  0  0  0  0  0
   -4.5853    1.6455   -1.1016 C   0  0  0  0  0  0  0  0  0  0  0  0
   -5.7965   -0.1822    0.6218 C   0  0  0  0  0  0  0  0  0  0  0  0
    2.0968   -1.0125    0.0017 C   0  0  0  0  0  0  0  0  0  0  0  0
    3.8202    0.4303   -0.0381 C   0  0  0  0  0  0  0  0  0  0  0  0
    0.6809   -1.2394    0.3935 C   0  0  0  0  0  0  0  0  0  0  0  0
   -5.9650    1.6853   -0.8987 C   0  0  0  0  0  0  0  0  0  0  0  0
   -6.5695    0.7733   -0.0385 C   0  0  0  0  0  0  0  0  0  0  0  0
    2.8192   -1.9949   -0.6098 C   0  0  0  0  0  0  0  0  0  0  0  0
    3.0662    3.0953    0.2500 C   0  0  0  0  0  0  0  0  0  0  0  0
    4.1184   -1.6450   -0.9164 C   0  0  0  0  0  0  0  0  0  0  0  0
   -1.9206    1.3463   -1.3080 H   0  0  0  0  0  0  0  0  0  0  0  0
   -4.0657   -1.9138    1.7627 H   0  0  0  0  0  0  0  0  0  0  0  0
   -1.7047   -1.9993    1.4306 H   0  0  0  0  0  0  0  0  0  0  0  0
    0.1213    0.3414   -0.8160 H   0  0  0  0  0  0  0  0  0  0  0  0
   -4.1344    2.3683   -1.7784 H   0  0  0  0  0  0  0  0  0  0  0  0
   -6.2902   -0.8852    1.2894 H   0  0  0  0  0  0  0  0  0  0  0  0
   -6.5674    2.4288   -1.4126 H   0  0  0  0  0  0  0  0  0  0  0  0
   -7.6436    0.8048    0.1189 H   0  0  0  0  0  0  0  0  0  0  0  0
    3.4311    4.1095    0.4278 H   0  0  0  0  0  0  0  0  0  0  0  0
    2.6191    3.0317   -0.7440 H   0  0  0  0  0  0  0  0  0  0  0  0
    2.3454    2.8242    1.0235 H   0  0  0  0  0  0  0  0  0  0  0  0
    4.7956   -2.3390   -1.4046 H   0  0  0  0  0  0  0  0  0  0  0  0
  1 22  1  0  0  0  0
  2  3  2  0  0  0  0
  2  4  2  0  0  0  0
  2 18  1  0  0  0  0
  2 23  1  0  0  0  0
  5 19  2  0  0  0  0
  6 11  1  0  0  0  0
  6 19  1  0  0  0  0
  6 28  1  0  0  0  0
  7 17  2  0  0  0  0
  7 18  1  0  0  0  0
  8 18  2  0  0  0  0
  8 24  1  0  0  0  0
  9 10  1  0  0  0  0
  9 12  1  0  0  0  0
  9 15  2  0  0  0  0
 10 13  1  0  0  0  0
 10 16  2  0  0  0  0
 11 12  2  0  0  0  0
 11 14  1  0  0  0  0
 12 25  1  0  0  0  0
 13 14  2  0  0  0  0
 13 26  1  0  0  0  0
 14 27  1  0  0  0  0
 15 20  1  0  0  0  0
 15 29  1  0  0  0  0
 16 21  1  0  0  0  0
 16 30  1  0  0  0  0
 17 19  1  0  0  0  0
 17 22  1  0  0  0  0
 20 21  2  0  0  0  0
 20 31  1  0  0  0  0
 21 32  1  0  0  0  0
 22 24  2  0  0  0  0
 23 33  1  0  0  0  0
 23 34  1  0  0  0  0
 23 35  1  0  0  0  0
 24 36  1  0  0  0  0
M  END
> <PUBCHEM_COMPOUND_CID>
991251

> <PUBCHEM_CONFORMER_RMSD>
0.8

> <PUBCHEM_CONFORMER_DIVERSEORDER>
1
31
2
23
18
8
28
19
26
6
7
16
30
22
15
3
5
27
32
29
25
17
21
24
14
4
13
20
10
9
11
12

> <PUBCHEM_MMFF94_PARTIAL_CHARGES>
31
1 -0.18
11 0.12
12 -0.15
13 -0.15
14 -0.15
15 -0.15
16 -0.15
17 0.4
18 0.61
19 0.54
2 1.2
20 -0.15
21 -0.15
22 0.18
23 0.11
24 0.16
25 0.15
26 0.15
27 0.15
28 0.37
29 0.15
3 -0.65
30 0.15
31 0.15
32 0.15
36 0.15
4 -0.65
5 -0.57
6 -0.55
7 -0.62
8 -0.62

> <PUBCHEM_EFFECTIVE_ROTOR_COUNT>
4

> <PUBCHEM_PHARMACOPHORE_FEATURES>
9
1 3 acceptor
1 4 acceptor
1 5 acceptor
1 6 donor
1 7 acceptor
3 7 8 18 cation
6 7 8 17 18 22 24 rings
6 9 10 11 12 13 14 rings
6 9 10 15 16 20 21 rings

> <PUBCHEM_HEAVY_ATOM_COUNT>
24

> <PUBCHEM_ATOM_DEF_STEREO_COUNT>
0

> <PUBCHEM_ATOM_UDEF_STEREO_COUNT>
0

> <PUBCHEM_BOND_DEF_STEREO_COUNT>
0

> <PUBCHEM_BOND_UDEF_STEREO_COUNT>
0

> <PUBCHEM_ISOTOPIC_ATOM_COUNT>
0

> <PUBCHEM_COMPONENT_COUNT>
1

> <PUBCHEM_CACTVS_TAUTO_COUNT>
2

> <PUBCHEM_CONFORMER_ID>
000F201300000001

> <PUBCHEM_MMFF94_ENERGY>
69.2525

> <PUBCHEM_FEATURE_SELFOVERLAP>
45.716

> <PUBCHEM_SHAPE_FINGERPRINT>
10 15 17749111131698762641
10319926 262 17894624872985049098
10411042 1 17908709424022858502
11112241 14 17914883456078440945
11595378 159 15647324204856252765
12236239 1 16271644495177935675
12403259 415 18261683626697955195
12633257 1 15068627110210234851
12730499 353 18411426102563669818
12769317 202 18342734148099285832
13402501 40 18333448755027955100
13533116 47 18272935990163260917
13955234 65 18341329981567345746
14170010 4 18201435849401602850
14461889 52 18334576892997751443
14528608 73 18411697677914803655
14739800 52 17895178983732309801
15081414 286 18410863161026395556
15961568 22 17895198830744971628
16079462 125 18114175320591334845
17844677 252 18270968925612665349
20157964 124 18342738503248604863
20554085 129 16660636342187985089
20645477 56 18187649085648165855
20645477 70 18129385899430126783
21033648 29 18259987093119989408
21452121 103 18335696144173438890
21475661 188 18262234529737713528
221357 26 18340770325684463756
22289505 5 18412265008840368372
23227448 37 18339360897764338495
23559900 14 18336266721620045195
239999 70 18338798909994744342
25122255 55 10519983790311823717
2747138 104 17750536090964143619
2916195 48 18259702298740142265
34797466 226 18342178835093445911
3545911 37 18334018263564833175
46194498 28 18200597986347965678
474 4 18341615962138063128
495365 180 18272085007329842386
5104073 3 17895194347204620801
53794403 172 17969512673908520132
9995097 60 18408606980651471373

> <PUBCHEM_SHAPE_MULTIPOLES>
467.08
15.38
3.16
1.11
11.57
0.06
0.11
-8.65
-1.19
-5.17
-0.35
-0.02
0.04
2.46

> <PUBCHEM_SHAPE_SELFOVERLAP>
1002.323

> <PUBCHEM_SHAPE_VOLUME>
259.2

> <PUBCHEM_COORDINATE_TYPE>
2
5
10

$$$$
