4094710
  -OEChem-01171810133D

 48 49  0     0  0  0  0  0  0999 V2000
    4.6028    0.3908   -1.1075 S   0  0  0  0  0  0  0  0  0  0  0  0
   -7.9055    0.8308    0.0639 F   0  0  0  0  0  0  0  0  0  0  0  0
   -7.2987   -1.2165   -0.3153 F   0  0  0  0  0  0  0  0  0  0  0  0
   -7.0577   -0.3641    1.6706 F   0  0  0  0  0  0  0  0  0  0  0  0
    5.8188   -0.2055   -1.6293 O   0  0  0  0  0  0  0  0  0  0  0  0
    3.7524    1.1669   -1.9913 O   0  0  0  0  0  0  0  0  0  0  0  0
   -0.2848    0.4958   -0.6312 O   0  0  0  0  0  0  0  0  0  0  0  0
    4.9762    1.3224    0.2949 N   0  0  0  0  0  0  0  0  0  0  0  0
    0.0820   -1.6476    0.2411 N   0  0  0  0  0  0  0  0  0  0  0  0
   -2.0693   -0.8151    0.1211 N   0  0  0  0  0  0  0  0  0  0  0  0
    3.8455    1.9002    1.0647 C   0  0  0  0  0  0  0  0  0  0  0  0
    6.0603    0.8321    1.1834 C   0  0  0  0  0  0  0  0  0  0  0  0
    3.6147   -0.9224   -0.4474 C   0  0  0  0  0  0  0  0  0  0  0  0
    2.2443   -0.7592   -0.3694 C   0  0  0  0  0  0  0  0  0  0  0  0
    4.2918    3.1762    1.7494 C   0  0  0  0  0  0  0  0  0  0  0  0
    7.3915    1.3906    0.7225 C   0  0  0  0  0  0  0  0  0  0  0  0
    4.2358   -2.0822   -0.0226 C   0  0  0  0  0  0  0  0  0  0  0  0
    1.4667   -1.7931    0.1523 C   0  0  0  0  0  0  0  0  0  0  0  0
    3.4582   -3.1160    0.4990 C   0  0  0  0  0  0  0  0  0  0  0  0
    2.0736   -2.9715    0.5866 C   0  0  0  0  0  0  0  0  0  0  0  0
   -0.7172   -0.5429   -0.1419 C   0  0  0  0  0  0  0  0  0  0  0  0
   -3.1872    0.0202   -0.1126 C   0  0  0  0  0  0  0  0  0  0  0  0
   -5.5550    0.3919   -0.0098 C   0  0  0  0  0  0  0  0  0  0  0  0
   -4.4534   -0.4325    0.2195 C   0  0  0  0  0  0  0  0  0  0  0  0
   -2.9916    1.2742   -0.6677 C   0  0  0  0  0  0  0  0  0  0  0  0
   -5.3750    1.6573   -0.5683 C   0  0  0  0  0  0  0  0  0  0  0  0
   -4.0932    2.0984   -0.8971 C   0  0  0  0  0  0  0  0  0  0  0  0
   -6.9258   -0.0791    0.3424 C   0  0  0  0  0  0  0  0  0  0  0  0
    3.0240    2.1507    0.3858 H   0  0  0  0  0  0  0  0  0  0  0  0
    3.4726    1.1793    1.8000 H   0  0  0  0  0  0  0  0  0  0  0  0
    5.8937    1.0915    2.2326 H   0  0  0  0  0  0  0  0  0  0  0  0
    6.0991   -0.2612    1.1646 H   0  0  0  0  0  0  0  0  0  0  0  0
    1.8304    0.1751   -0.7140 H   0  0  0  0  0  0  0  0  0  0  0  0
    5.0235    3.0029    2.5430 H   0  0  0  0  0  0  0  0  0  0  0  0
    4.7369    3.8729    1.0307 H   0  0  0  0  0  0  0  0  0  0  0  0
    3.4305    3.6722    2.2091 H   0  0  0  0  0  0  0  0  0  0  0  0
    7.6336    1.0879   -0.3000 H   0  0  0  0  0  0  0  0  0  0  0  0
    7.3849    2.4854    0.7514 H   0  0  0  0  0  0  0  0  0  0  0  0
    8.1962    1.0392    1.3759 H   0  0  0  0  0  0  0  0  0  0  0  0
    5.3112   -2.2153   -0.0819 H   0  0  0  0  0  0  0  0  0  0  0  0
    3.9308   -4.0335    0.8373 H   0  0  0  0  0  0  0  0  0  0  0  0
    1.4801   -3.7853    0.9956 H   0  0  0  0  0  0  0  0  0  0  0  0
   -0.4164   -2.4428    0.6329 H   0  0  0  0  0  0  0  0  0  0  0  0
   -2.2800   -1.7219    0.5303 H   0  0  0  0  0  0  0  0  0  0  0  0
   -4.5949   -1.4185    0.6550 H   0  0  0  0  0  0  0  0  0  0  0  0
   -2.0360    1.6896   -0.9497 H   0  0  0  0  0  0  0  0  0  0  0  0
   -6.2203    2.3139   -0.7544 H   0  0  0  0  0  0  0  0  0  0  0  0
   -3.9542    3.0842   -1.3317 H   0  0  0  0  0  0  0  0  0  0  0  0
  1  5  2  0  0  0  0
  1  6  2  0  0  0  0
  1  8  1  0  0  0  0
  1 13  1  0  0  0  0
  2 28  1  0  0  0  0
  3 28  1  0  0  0  0
  4 28  1  0  0  0  0
  7 21  2  0  0  0  0
  8 11  1  0  0  0  0
  8 12  1  0  0  0  0
  9 18  1  0  0  0  0
  9 21  1  0  0  0  0
  9 43  1  0  0  0  0
 10 21  1  0  0  0  0
 10 22  1  0  0  0  0
 10 44  1  0  0  0  0
 11 15  1  0  0  0  0
 11 29  1  0  0  0  0
 11 30  1  0  0  0  0
 12 16  1  0  0  0  0
 12 31  1  0  0  0  0
 12 32  1  0  0  0  0
 13 14  1  0  0  0  0
 13 17  2  0  0  0  0
 14 18  2  0  0  0  0
 14 33  1  0  0  0  0
 15 34  1  0  0  0  0
 15 35  1  0  0  0  0
 15 36  1  0  0  0  0
 16 37  1  0  0  0  0
 16 38  1  0  0  0  0
 16 39  1  0  0  0  0
 17 19  1  0  0  0  0
 17 40  1  0  0  0  0
 18 20  1  0  0  0  0
 19 20  2  0  0  0  0
 19 41  1  0  0  0  0
 20 42  1  0  0  0  0
 22 24  1  0  0  0  0
 22 25  2  0  0  0  0
 23 24  2  0  0  0  0
 23 26  1  0  0  0  0
 23 28  1  0  0  0  0
 24 45  1  0  0  0  0
 25 27  1  0  0  0  0
 25 46  1  0  0  0  0
 26 27  2  0  0  0  0
 26 47  1  0  0  0  0
 27 48  1  0  0  0  0
M  END
> <PUBCHEM_COMPOUND_CID>
4094710

> <PUBCHEM_CONFORMER_RMSD>
1

> <PUBCHEM_CONFORMER_DIVERSEORDER>
2
64
46
8
29
13
34
67
21
35
39
69
3
56
63
6
54
38
30
51
33
48
55
37
68
22
24
66
65
17
41
14
70
27
31
36
43
42
40
28
61
57
4
50
11
62
10
44
60
53
49
7
32
45
20
26
15
58
47
59
9
52
23
18
19
16
12
5
25
1

> <PUBCHEM_MMFF94_PARTIAL_CHARGES>
36
1 1.45
10 -0.55
11 0.36
12 0.36
13 -0.01
14 -0.15
17 -0.15
18 0.12
19 -0.15
2 -0.34
20 -0.15
21 0.69
22 0.12
23 -0.14
24 -0.15
25 -0.15
26 -0.15
27 -0.15
28 1.16
3 -0.34
33 0.15
4 -0.34
40 0.15
41 0.15
42 0.15
43 0.37
44 0.37
45 0.15
46 0.15
47 0.15
48 0.15
5 -0.65
6 -0.65
7 -0.57
8 -0.85
9 -0.55

> <PUBCHEM_EFFECTIVE_ROTOR_COUNT>
9

> <PUBCHEM_PHARMACOPHORE_FEATURES>
7
1 10 donor
1 5 acceptor
1 6 acceptor
1 7 acceptor
1 9 donor
6 13 14 17 18 19 20 rings
6 22 23 24 25 26 27 rings

> <PUBCHEM_HEAVY_ATOM_COUNT>
28

> <PUBCHEM_ATOM_DEF_STEREO_COUNT>
0

> <PUBCHEM_ATOM_UDEF_STEREO_COUNT>
0

> <PUBCHEM_BOND_DEF_STEREO_COUNT>
0

> <PUBCHEM_BOND_UDEF_STEREO_COUNT>
0

> <PUBCHEM_ISOTOPIC_ATOM_COUNT>
0

> <PUBCHEM_COMPONENT_COUNT>
1

> <PUBCHEM_CACTVS_TAUTO_COUNT>
3

> <PUBCHEM_CONFORMER_ID>
003E7AF600000002

> <PUBCHEM_MMFF94_ENERGY>
59.4252

> <PUBCHEM_FEATURE_SELFOVERLAP>
35.588

> <PUBCHEM_SHAPE_FINGERPRINT>
10 15 18114180856223924088
10165383 225 18333736840966260148
10595046 47 18261114020225850015
10638233 991 17917713487718533593
10835480 77 18262791866496180277
11476731 50 17843950671869941407
11724838 91 18186798106102146038
11796584 16 10447919564549005005
12616971 3 18129931291778437487
12730499 353 18410577271250163330
13073987 5 18336265631130550421
13533116 47 18336549317709716763
13692114 37 18261953067356430370
14461889 52 17968101944955805683
146900 427 18343304751605170819
14904525 67 16845288303054648089
15289351 153 18271235020954963744
17844677 252 18189342260371666047
18608769 82 18337109063801709979
21033648 29 17314222272600868581
21130935 74 18335707079704149819
21792934 111 18187639151420536765
22149856 69 18262255322064589257
23016692 55 10952052268976727690
23522609 53 18197244506644858281
23559900 14 17968944076215190798
23569914 2 17467017048369790365
24893992 56 18412260675081327266
34797466 226 17775289356646464367
4073 2 17458641015906789035
4093350 32 17060624390936552452
4325135 7 18261116257724411607
4340502 62 18335419071607102926
44317340 157 17775282798268306828
445580 126 18343575249109475962
5104073 3 18188491251272415985
5109719 28 18339366386738188104
5312625 73 18410573976909741155
53794403 172 18193276514803213292
54076057 127 18131079220499012574
9849439 229 18263082292258354788

> <PUBCHEM_SHAPE_MULTIPOLES>
525.7
21.36
2.94
1.26
26.35
0.52
-0.1
-7.48
2.88
-4.28
0.98
-1.36
-0.6
1.79

> <PUBCHEM_SHAPE_SELFOVERLAP>
1090.738

> <PUBCHEM_SHAPE_VOLUME>
303

> <PUBCHEM_COORDINATE_TYPE>
2
5
10

$$$$
