24687430
  -OEChem-01171810083D

 43 45  0     0  0  0  0  0  0999 V2000
   -7.1755    0.4622    0.3627 Cl  0  0  0  0  0  0  0  0  0  0  0  0
   -1.1164   -2.4321   -0.6544 S   0  0  0  0  0  0  0  0  0  0  0  0
    3.2536    1.8388   -0.7388 O   0  0  0  0  0  0  0  0  0  0  0  0
    5.1222    3.4345    0.7698 O   0  0  0  0  0  0  0  0  0  0  0  0
    1.5345   -0.8183    1.5735 O   0  0  0  0  0  0  0  0  0  0  0  0
    0.6817   -4.0642   -1.6601 O   0  0  0  0  0  0  0  0  0  0  0  0
    5.4629   -0.6539    0.5234 O   0  0  0  0  0  0  0  0  0  0  0  0
   -5.1364    1.5050   -2.3542 O   0  5  0  0  0  0  0  0  0  0  0  0
   -5.1084    3.0900   -0.8356 O   0  0  0  0  0  0  0  0  0  0  0  0
    1.3856   -2.5311   -0.0260 N   0  0  0  0  0  0  0  0  0  0  0  0
    3.5918   -0.7854   -0.8608 N   0  0  0  0  0  0  0  0  0  0  0  0
   -4.9498    1.8952   -1.1783 N   0  3  0  0  0  0  0  0  0  0  0  0
    2.7656   -2.9359   -0.0030 C   0  0  0  0  0  0  0  0  0  0  0  0
    3.5915   -2.2174   -1.0567 C   0  0  0  0  0  0  0  0  0  0  0  0
    0.8984   -1.4963    0.7783 C   0  0  0  0  0  0  0  0  0  0  0  0
   -0.5527   -1.3202    0.5280 C   0  0  0  0  0  0  0  0  0  0  0  0
    0.4728   -3.1548   -0.8706 C   0  0  0  0  0  0  0  0  0  0  0  0
   -1.2994   -0.4085    1.1530 C   0  0  0  0  0  0  0  0  0  0  0  0
    4.5306   -0.1244   -0.0850 C   0  0  0  0  0  0  0  0  0  0  0  0
   -2.7428   -0.1855    0.9480 C   0  0  0  0  0  0  0  0  0  0  0  0
    4.3239    1.3216   -0.0418 C   0  0  0  0  0  0  0  0  0  0  0  0
    2.9604    3.1801   -0.3250 C   0  0  0  0  0  0  0  0  0  0  0  0
    4.2386    3.9979   -0.2089 C   0  0  0  0  0  0  0  0  0  0  0  0
   -3.1784    0.7365   -0.0038 C   0  0  0  0  0  0  0  0  0  0  0  0
   -3.6725   -0.8965    1.7070 C   0  0  0  0  0  0  0  0  0  0  0  0
    5.1729    2.0646    0.6794 C   0  0  0  0  0  0  0  0  0  0  0  0
   -4.5438    0.9474   -0.1967 C   0  0  0  0  0  0  0  0  0  0  0  0
   -5.0377   -0.6856    1.5143 C   0  0  0  0  0  0  0  0  0  0  0  0
   -5.4733    0.2362    0.5623 C   0  0  0  0  0  0  0  0  0  0  0  0
    3.1764   -2.7359    0.9935 H   0  0  0  0  0  0  0  0  0  0  0  0
    2.8220   -4.0162   -0.1787 H   0  0  0  0  0  0  0  0  0  0  0  0
    3.1914   -2.4021   -2.0593 H   0  0  0  0  0  0  0  0  0  0  0  0
    4.6245   -2.5805   -1.0302 H   0  0  0  0  0  0  0  0  0  0  0  0
    2.8568   -0.2508   -1.3153 H   0  0  0  0  0  0  0  0  0  0  0  0
   -0.8515    0.2562    1.8884 H   0  0  0  0  0  0  0  0  0  0  0  0
    2.4288    3.1366    0.6337 H   0  0  0  0  0  0  0  0  0  0  0  0
    2.2893    3.6213   -1.0682 H   0  0  0  0  0  0  0  0  0  0  0  0
    4.7701    4.0353   -1.1679 H   0  0  0  0  0  0  0  0  0  0  0  0
    4.0106    5.0241    0.0957 H   0  0  0  0  0  0  0  0  0  0  0  0
   -2.4520    1.2912   -0.5953 H   0  0  0  0  0  0  0  0  0  0  0  0
   -3.3480   -1.6176    2.4532 H   0  0  0  0  0  0  0  0  0  0  0  0
    5.9907    1.6876    1.2778 H   0  0  0  0  0  0  0  0  0  0  0  0
   -5.7488   -1.2477    2.1143 H   0  0  0  0  0  0  0  0  0  0  0  0
  1 29  1  0  0  0  0
  2 16  1  0  0  0  0
  2 17  1  0  0  0  0
  3 21  1  0  0  0  0
  3 22  1  0  0  0  0
  4 23  1  0  0  0  0
  4 26  1  0  0  0  0
  5 15  2  0  0  0  0
  6 17  2  0  0  0  0
  7 19  2  0  0  0  0
  8 12  1  0  0  0  0
  9 12  2  0  0  0  0
 10 13  1  0  0  0  0
 10 15  1  0  0  0  0
 10 17  1  0  0  0  0
 11 14  1  0  0  0  0
 11 19  1  0  0  0  0
 11 34  1  0  0  0  0
 12 27  1  0  0  0  0
 13 14  1  0  0  0  0
 13 30  1  0  0  0  0
 13 31  1  0  0  0  0
 14 32  1  0  0  0  0
 14 33  1  0  0  0  0
 15 16  1  0  0  0  0
 16 18  2  0  0  0  0
 18 20  1  0  0  0  0
 18 35  1  0  0  0  0
 19 21  1  0  0  0  0
 20 24  2  0  0  0  0
 20 25  1  0  0  0  0
 21 26  2  0  0  0  0
 22 23  1  0  0  0  0
 22 36  1  0  0  0  0
 22 37  1  0  0  0  0
 23 38  1  0  0  0  0
 23 39  1  0  0  0  0
 24 27  1  0  0  0  0
 24 40  1  0  0  0  0
 25 28  2  0  0  0  0
 25 41  1  0  0  0  0
 26 42  1  0  0  0  0
 27 29  2  0  0  0  0
 28 29  1  0  0  0  0
 28 43  1  0  0  0  0
M  CHG  2   8  -1  12   1
M  END
> <PUBCHEM_COMPOUND_CID>
24687430

> <PUBCHEM_CONFORMER_RMSD>
1

> <PUBCHEM_CONFORMER_DIVERSEORDER>
1
65
22
5
86
12
20
93
104
58
78
23
40
6
76
44
99
56
48
79
88
52
60
84
41
43
36
50
74
57
30
45
91
92
13
42
62
7
32
97
75
101
72
10
66
96
33
73
51
16
100
28
83
87
14
98
94
17
24
47
9
4
102
95
54
90
37
71
85
8
31
3
69
38
27
34
29
82
63
89
77
64
35
55
81
39
21
26
59
68
70
15
19
53
49
46
67
80
11
61
103
25
2
18

> <PUBCHEM_MMFF94_PARTIAL_CHARGES>
35
1 -0.18
10 -0.42
11 -0.73
12 0.91
13 0.3
14 0.3
15 0.62
16 0.12
17 0.77
18 -0.18
19 0.62
2 -0.24
20 0.03
21 0.09
22 0.28
23 0.28
24 -0.15
25 -0.15
26 -0.07
27 0.13
28 -0.15
29 0.18
3 -0.36
34 0.37
35 0.15
4 -0.36
40 0.15
41 0.15
42 0.15
43 0.15
5 -0.57
6 -0.57
7 -0.57
8 -0.52
9 -0.52

> <PUBCHEM_EFFECTIVE_ROTOR_COUNT>
8.2

> <PUBCHEM_PHARMACOPHORE_FEATURES>
11
1 11 donor
1 3 acceptor
1 4 acceptor
1 5 acceptor
1 7 acceptor
1 8 acceptor
1 8 anion
1 9 acceptor
5 2 10 15 16 17 rings
6 20 24 25 27 28 29 rings
6 3 4 21 22 23 26 rings

> <PUBCHEM_HEAVY_ATOM_COUNT>
29

> <PUBCHEM_ATOM_DEF_STEREO_COUNT>
0

> <PUBCHEM_ATOM_UDEF_STEREO_COUNT>
0

> <PUBCHEM_BOND_DEF_STEREO_COUNT>
1

> <PUBCHEM_BOND_UDEF_STEREO_COUNT>
0

> <PUBCHEM_ISOTOPIC_ATOM_COUNT>
0

> <PUBCHEM_COMPONENT_COUNT>
1

> <PUBCHEM_CACTVS_TAUTO_COUNT>
2

> <PUBCHEM_CONFORMER_ID>
0178B34600000001

> <PUBCHEM_MMFF94_ENERGY>
60.5829

> <PUBCHEM_FEATURE_SELFOVERLAP>
55.908

> <PUBCHEM_SHAPE_FINGERPRINT>
10673678 19 18343871013226219099
10763959 59 18334863779711959958
12422481 6 17967246516203059180
12769317 202 18341610434478444480
12925494 130 18262799541502972277
13402501 40 18259703393577566396
13583140 156 18114758065569755482
14117953 113 18343589538750681452
14556957 393 17274543110184960929
14739800 52 17749660801723685297
15082195 135 18198336248486456313
15799311 1 15339121234630643095
20715895 44 18342460370072877466
21033648 144 18410020961115643771
21315763 129 18334014973403392339
21388113 180 18408601495836284036
21475661 188 18186521016524200528
21716022 299 14403524692902061926
23227448 37 18339085998282616766
23522609 53 17274282569115506923
23559900 14 17901101924212615323
23569914 2 17463647062441869461
2838139 119 18335412465609512335
328310 1195 18335141942841494069
3298306 158 18337113457284566193
34797466 226 18271813393539988431

> <PUBCHEM_SHAPE_MULTIPOLES>
546.5
15.58
4.71
1.43
10.83
0.78
0.22
13.24
-0.26
-6.21
1.83
1.46
-0.17
2.29

> <PUBCHEM_SHAPE_SELFOVERLAP>
1149.572

> <PUBCHEM_SHAPE_VOLUME>
310.7

> <PUBCHEM_COORDINATE_TYPE>
2
5
10

$$$$
