786063
  -OEChem-01171809393D

 42 43  0     0  0  0  0  0  0999 V2000
    4.1885   -0.7352    0.0876 O   0  0  0  0  0  0  0  0  0  0  0  0
   -4.5463   -3.1504    0.1796 O   0  5  0  0  0  0  0  0  0  0  0  0
   -2.4935   -3.6401   -0.4247 O   0  0  0  0  0  0  0  0  0  0  0  0
    2.2552    1.2027    1.9469 O   0  0  0  0  0  0  0  0  0  0  0  0
    3.4405   -0.4139   -2.0680 O   0  0  0  0  0  0  0  0  0  0  0  0
   -1.8080    2.5074   -0.0084 N   0  0  0  0  0  0  0  0  0  0  0  0
   -3.3740   -2.8062   -0.1040 N   0  3  0  0  0  0  0  0  0  0  0  0
   -1.3970    0.3388   -0.3322 C   0  0  0  0  0  0  0  0  0  0  0  0
   -2.3853    1.2580    0.0259 C   0  0  0  0  0  0  0  0  0  0  0  0
   -0.2315    1.0890   -0.5755 C   0  0  0  0  0  0  0  0  0  0  0  0
   -0.4926    2.4098   -0.3751 C   0  0  0  0  0  0  0  0  0  0  0  0
   -1.7281   -1.0303   -0.3761 C   0  0  0  0  0  0  0  0  0  0  0  0
   -3.6934    0.8754    0.3433 C   0  0  0  0  0  0  0  0  0  0  0  0
   -2.4939    3.7448    0.3028 C   0  0  0  0  0  0  0  0  0  0  0  0
    0.3723    3.6055   -0.4910 C   0  0  0  0  0  0  0  0  0  0  0  0
    1.0527    0.5737   -0.9716 C   0  0  0  0  0  0  0  0  0  0  0  0
   -3.0326   -1.4276   -0.0611 C   0  0  0  0  0  0  0  0  0  0  0  0
   -3.9985   -0.4877    0.2929 C   0  0  0  0  0  0  0  0  0  0  0  0
    2.0619    0.1607   -0.1798 C   0  0  0  0  0  0  0  0  0  0  0  0
    1.9275    0.2043    1.3085 C   0  0  0  0  0  0  0  0  0  0  0  0
    3.2892   -0.3473   -0.8569 C   0  0  0  0  0  0  0  0  0  0  0  0
    1.3649   -1.0150    1.9911 C   0  0  0  0  0  0  0  0  0  0  0  0
    5.4196   -1.2679   -0.4118 C   0  0  0  0  0  0  0  0  0  0  0  0
    6.3025   -1.6485    0.7576 C   0  0  0  0  0  0  0  0  0  0  0  0
   -0.9601   -1.7465   -0.6545 H   0  0  0  0  0  0  0  0  0  0  0  0
   -4.4557    1.5971    0.6157 H   0  0  0  0  0  0  0  0  0  0  0  0
   -1.8024    4.4374    0.7879 H   0  0  0  0  0  0  0  0  0  0  0  0
   -2.8689    4.1676   -0.6325 H   0  0  0  0  0  0  0  0  0  0  0  0
   -3.3191    3.5505    0.9912 H   0  0  0  0  0  0  0  0  0  0  0  0
    0.5882    4.0222    0.4983 H   0  0  0  0  0  0  0  0  0  0  0  0
    1.3305    3.3675   -0.9638 H   0  0  0  0  0  0  0  0  0  0  0  0
   -0.1026    4.3805   -1.1018 H   0  0  0  0  0  0  0  0  0  0  0  0
    1.1810    0.5250   -2.0519 H   0  0  0  0  0  0  0  0  0  0  0  0
   -5.0171   -0.7800    0.5393 H   0  0  0  0  0  0  0  0  0  0  0  0
    0.4132   -0.7576    2.4631 H   0  0  0  0  0  0  0  0  0  0  0  0
    2.0768   -1.3656    2.7430 H   0  0  0  0  0  0  0  0  0  0  0  0
    1.1955   -1.8226    1.2736 H   0  0  0  0  0  0  0  0  0  0  0  0
    5.2128   -2.1534   -1.0231 H   0  0  0  0  0  0  0  0  0  0  0  0
    5.9226   -0.5118   -1.0248 H   0  0  0  0  0  0  0  0  0  0  0  0
    7.2543   -2.0608    0.4113 H   0  0  0  0  0  0  0  0  0  0  0  0
    6.5031   -0.7764    1.3886 H   0  0  0  0  0  0  0  0  0  0  0  0
    5.8047   -2.3906    1.3905 H   0  0  0  0  0  0  0  0  0  0  0  0
  1 21  1  0  0  0  0
  1 23  1  0  0  0  0
  2  7  1  0  0  0  0
  3  7  2  0  0  0  0
  4 20  2  0  0  0  0
  5 21  2  0  0  0  0
  6  9  1  0  0  0  0
  6 11  1  0  0  0  0
  6 14  1  0  0  0  0
  7 17  1  0  0  0  0
  8  9  2  0  0  0  0
  8 10  1  0  0  0  0
  8 12  1  0  0  0  0
  9 13  1  0  0  0  0
 10 11  2  0  0  0  0
 10 16  1  0  0  0  0
 11 15  1  0  0  0  0
 12 17  2  0  0  0  0
 12 25  1  0  0  0  0
 13 18  2  0  0  0  0
 13 26  1  0  0  0  0
 14 27  1  0  0  0  0
 14 28  1  0  0  0  0
 14 29  1  0  0  0  0
 15 30  1  0  0  0  0
 15 31  1  0  0  0  0
 15 32  1  0  0  0  0
 16 19  2  0  0  0  0
 16 33  1  0  0  0  0
 17 18  1  0  0  0  0
 18 34  1  0  0  0  0
 19 20  1  0  0  0  0
 19 21  1  0  0  0  0
 20 22  1  0  0  0  0
 22 35  1  0  0  0  0
 22 36  1  0  0  0  0
 22 37  1  0  0  0  0
 23 24  1  0  0  0  0
 23 38  1  0  0  0  0
 23 39  1  0  0  0  0
 24 40  1  0  0  0  0
 24 41  1  0  0  0  0
 24 42  1  0  0  0  0
M  CHG  2   2  -1   7   1
M  END
> <PUBCHEM_COMPOUND_CID>
786063

> <PUBCHEM_CONFORMER_RMSD>
0.8

> <PUBCHEM_CONFORMER_DIVERSEORDER>
1
14
3
10
12
16
2
4
5
6
7
17
9
11
8
15
13

> <PUBCHEM_MMFF94_PARTIAL_CHARGES>
26
1 -0.43
10 -0.05
11 -0.33
12 -0.15
13 -0.15
14 0.26
15 0.18
16 -0.1
17 0.13
18 -0.15
19 0.03
2 -0.52
20 0.49
21 0.71
22 0.06
23 0.28
25 0.15
26 0.15
3 -0.52
33 0.15
34 0.15
4 -0.57
5 -0.57
6 0.05
7 0.91
9 -0.15

> <PUBCHEM_EFFECTIVE_ROTOR_COUNT>
6

> <PUBCHEM_PHARMACOPHORE_FEATURES>
9
1 19 anion
1 2 acceptor
1 2 anion
1 3 acceptor
1 4 acceptor
1 5 acceptor
1 6 cation
5 6 8 9 10 11 rings
6 8 9 12 13 17 18 rings

> <PUBCHEM_HEAVY_ATOM_COUNT>
24

> <PUBCHEM_ATOM_DEF_STEREO_COUNT>
0

> <PUBCHEM_ATOM_UDEF_STEREO_COUNT>
0

> <PUBCHEM_BOND_DEF_STEREO_COUNT>
1

> <PUBCHEM_BOND_UDEF_STEREO_COUNT>
0

> <PUBCHEM_ISOTOPIC_ATOM_COUNT>
0

> <PUBCHEM_COMPONENT_COUNT>
1

> <PUBCHEM_CACTVS_TAUTO_COUNT>
2

> <PUBCHEM_CONFORMER_ID>
000BFE8F00000001

> <PUBCHEM_MMFF94_ENERGY>
61.798

> <PUBCHEM_FEATURE_SELFOVERLAP>
45.846

> <PUBCHEM_SHAPE_FINGERPRINT>
10319926 262 18197481949811561818
10369192 42 17342074238384904512
10411042 1 18338518667873990831
12236239 1 17676497090303567916
12403259 327 15410069520099300511
12523318 42 18341043030691318906
12553582 1 18334006225029991451
12633257 1 17775297057480823067
13140716 1 18341902947769135777
13911987 19 14563682928374611110
14787075 74 17971191675835788188
14844126 61 18408604734225411379
15042514 8 18410581682387103327
15230672 131 17688877437194583334
16752209 62 18262510404208965149
16945 1 18410008823939193165
17349148 13 17095523955660155706
17492 89 18049724324109840123
17804303 29 18272093781473157373
19784866 135 18411699876706067394
20600515 1 18272103655635165373
20645477 70 17832419075215872879
20775438 99 17255391051594953987
21421861 104 17903641031815674345
23184049 29 18266455589352541485
23366157 5 17973171913204198261
23402539 116 17968098565174784540
23557571 272 18201158737758276132
23559900 14 18340480148988232949
335352 9 18410295818270184781
4409770 3 18116144472813047909
5104073 3 18272939357317277816
602551 16 18340769248011532658
6034566 193 11424657009437955310
70251023 43 18189621720924318947
7970288 3 18264771137096579963

> <PUBCHEM_SHAPE_MULTIPOLES>
454.6
9.75
3.94
1.28
12.81
0.35
0.32
-7.44
0.48
-5.54
-0.18
1.4
-0.02
-0.4

> <PUBCHEM_SHAPE_SELFOVERLAP>
970.15

> <PUBCHEM_SHAPE_VOLUME>
256.2

> <PUBCHEM_COORDINATE_TYPE>
2
5
10

$$$$
