2388850
  -OEChem-01171809373D

 46 47  0     0  0  0  0  0  0999 V2000
   -4.3917   -2.6264   -0.1010 F   0  0  0  0  0  0  0  0  0  0  0  0
   -2.3805   -1.9860   -0.6003 F   0  0  0  0  0  0  0  0  0  0  0  0
   -3.0056   -2.0733    1.4806 F   0  0  0  0  0  0  0  0  0  0  0  0
    0.8605    0.0680    1.8920 O   0  0  0  0  0  0  0  0  0  0  0  0
    1.8105    0.2176   -0.2359 N   0  0  0  0  0  0  0  0  0  0  0  0
   -0.8520    0.8341   -2.5047 N   0  0  0  0  0  0  0  0  0  0  0  0
    3.1876    0.0122    0.0337 C   0  0  0  0  0  0  0  0  0  0  0  0
    3.9947    1.1036    0.3115 C   0  0  0  0  0  0  0  0  0  0  0  0
    3.6983   -1.2754    0.0131 C   0  0  0  0  0  0  0  0  0  0  0  0
    3.4575    2.4979    0.3370 C   0  0  0  0  0  0  0  0  0  0  0  0
    2.8395   -2.4619   -0.2846 C   0  0  0  0  0  0  0  0  0  0  0  0
    5.3493    0.9017    0.5760 C   0  0  0  0  0  0  0  0  0  0  0  0
    5.0529   -1.4774    0.2777 C   0  0  0  0  0  0  0  0  0  0  0  0
    5.8784   -0.3888    0.5591 C   0  0  0  0  0  0  0  0  0  0  0  0
    3.5387    3.1732   -1.0283 C   0  0  0  0  0  0  0  0  0  0  0  0
    2.7965   -2.7843   -1.7748 C   0  0  0  0  0  0  0  0  0  0  0  0
    0.7630    0.2337    0.6785 C   0  0  0  0  0  0  0  0  0  0  0  0
   -3.0446    0.7603    0.4756 C   0  0  0  0  0  0  0  0  0  0  0  0
   -0.5900    0.4815    0.0463 C   0  0  0  0  0  0  0  0  0  0  0  0
   -3.8951   -0.3016    0.1678 C   0  0  0  0  0  0  0  0  0  0  0  0
   -1.6622    0.5317    0.8752 C   0  0  0  0  0  0  0  0  0  0  0  0
   -3.5129    2.0722    0.4041 C   0  0  0  0  0  0  0  0  0  0  0  0
   -5.2138   -0.0514   -0.2118 C   0  0  0  0  0  0  0  0  0  0  0  0
   -3.4277   -1.7201    0.2331 C   0  0  0  0  0  0  0  0  0  0  0  0
   -4.8317    2.3223    0.0244 C   0  0  0  0  0  0  0  0  0  0  0  0
   -5.6821    1.2606   -0.2835 C   0  0  0  0  0  0  0  0  0  0  0  0
   -0.7374    0.6759   -1.3608 C   0  0  0  0  0  0  0  0  0  0  0  0
    2.4258    2.5254    0.7040 H   0  0  0  0  0  0  0  0  0  0  0  0
    4.0261    3.0961    1.0613 H   0  0  0  0  0  0  0  0  0  0  0  0
    3.2245   -3.3371    0.2552 H   0  0  0  0  0  0  0  0  0  0  0  0
    1.8211   -2.3276    0.0957 H   0  0  0  0  0  0  0  0  0  0  0  0
    6.0056    1.7402    0.7945 H   0  0  0  0  0  0  0  0  0  0  0  0
    5.4801   -2.4767    0.2658 H   0  0  0  0  0  0  0  0  0  0  0  0
    1.6152    0.3672   -1.2221 H   0  0  0  0  0  0  0  0  0  0  0  0
    6.9333   -0.5460    0.7638 H   0  0  0  0  0  0  0  0  0  0  0  0
    4.5725    3.2219   -1.3867 H   0  0  0  0  0  0  0  0  0  0  0  0
    3.1525    4.1956   -0.9671 H   0  0  0  0  0  0  0  0  0  0  0  0
    2.9486    2.6319   -1.7754 H   0  0  0  0  0  0  0  0  0  0  0  0
    2.3775   -1.9517   -2.3499 H   0  0  0  0  0  0  0  0  0  0  0  0
    2.1730   -3.6664   -1.9520 H   0  0  0  0  0  0  0  0  0  0  0  0
    3.7983   -2.9928   -2.1654 H   0  0  0  0  0  0  0  0  0  0  0  0
   -1.5436    0.3902    1.9474 H   0  0  0  0  0  0  0  0  0  0  0  0
   -2.8640    2.9120    0.6413 H   0  0  0  0  0  0  0  0  0  0  0  0
   -5.8945   -0.8621   -0.4564 H   0  0  0  0  0  0  0  0  0  0  0  0
   -5.1964    3.3438   -0.0314 H   0  0  0  0  0  0  0  0  0  0  0  0
   -6.7088    1.4556   -0.5792 H   0  0  0  0  0  0  0  0  0  0  0  0
  1 24  1  0  0  0  0
  2 24  1  0  0  0  0
  3 24  1  0  0  0  0
  4 17  2  0  0  0  0
  5  7  1  0  0  0  0
  5 17  1  0  0  0  0
  5 34  1  0  0  0  0
  6 27  3  0  0  0  0
  7  8  2  0  0  0  0
  7  9  1  0  0  0  0
  8 10  1  0  0  0  0
  8 12  1  0  0  0  0
  9 11  1  0  0  0  0
  9 13  2  0  0  0  0
 10 15  1  0  0  0  0
 10 28  1  0  0  0  0
 10 29  1  0  0  0  0
 11 16  1  0  0  0  0
 11 30  1  0  0  0  0
 11 31  1  0  0  0  0
 12 14  2  0  0  0  0
 12 32  1  0  0  0  0
 13 14  1  0  0  0  0
 13 33  1  0  0  0  0
 14 35  1  0  0  0  0
 15 36  1  0  0  0  0
 15 37  1  0  0  0  0
 15 38  1  0  0  0  0
 16 39  1  0  0  0  0
 16 40  1  0  0  0  0
 16 41  1  0  0  0  0
 17 19  1  0  0  0  0
 18 20  1  0  0  0  0
 18 21  1  0  0  0  0
 18 22  2  0  0  0  0
 19 21  2  0  0  0  0
 19 27  1  0  0  0  0
 20 23  2  0  0  0  0
 20 24  1  0  0  0  0
 21 42  1  0  0  0  0
 22 25  1  0  0  0  0
 22 43  1  0  0  0  0
 23 26  1  0  0  0  0
 23 44  1  0  0  0  0
 25 26  2  0  0  0  0
 25 45  1  0  0  0  0
 26 46  1  0  0  0  0
M  END
> <PUBCHEM_COMPOUND_CID>
2388850

> <PUBCHEM_CONFORMER_RMSD>
0.8

> <PUBCHEM_CONFORMER_DIVERSEORDER>
1
19
15
23
16
17
12
10
11
21
22
24
13
9
18
5
20
7
14
4
8
3
6
2

> <PUBCHEM_MMFF94_PARTIAL_CHARGES>
34
1 -0.34
10 0.14
11 0.14
12 -0.15
13 -0.15
14 -0.15
17 0.62
18 0.03
19 0.08
2 -0.34
20 -0.14
21 -0.18
22 -0.15
23 -0.15
24 1.16
25 -0.15
26 -0.15
27 0.49
3 -0.34
32 0.15
33 0.15
34 0.37
35 0.15
4 -0.57
42 0.15
43 0.15
44 0.15
45 0.15
46 0.15
5 -0.55
6 -0.56
7 0.12
8 -0.14
9 -0.14

> <PUBCHEM_EFFECTIVE_ROTOR_COUNT>
7

> <PUBCHEM_PHARMACOPHORE_FEATURES>
7
1 15 hydrophobe
1 16 hydrophobe
1 4 acceptor
1 5 donor
1 6 acceptor
6 18 20 22 23 25 26 rings
6 7 8 9 12 13 14 rings

> <PUBCHEM_HEAVY_ATOM_COUNT>
27

> <PUBCHEM_ATOM_DEF_STEREO_COUNT>
0

> <PUBCHEM_ATOM_UDEF_STEREO_COUNT>
0

> <PUBCHEM_BOND_DEF_STEREO_COUNT>
1

> <PUBCHEM_BOND_UDEF_STEREO_COUNT>
0

> <PUBCHEM_ISOTOPIC_ATOM_COUNT>
0

> <PUBCHEM_COMPONENT_COUNT>
1

> <PUBCHEM_CACTVS_TAUTO_COUNT>
2

> <PUBCHEM_CONFORMER_ID>
0024737200000001

> <PUBCHEM_MMFF94_ENERGY>
85.8002

> <PUBCHEM_FEATURE_SELFOVERLAP>
35.52

> <PUBCHEM_SHAPE_FINGERPRINT>
10595046 47 18337390560053095760
10835480 77 18343576330766631304
11370993 70 18413389813040219239
11405975 8 18408324384472103464
12107183 9 17550392834392469185
12236239 1 18040154020234778409
12467345 10 18412262830753956977
12596602 18 15410600510763176610
13167823 11 18410009961693725858
13583140 156 17846492660177626817
14341114 176 18411985732523163192
15361156 5 18186813469453222254
15788980 27 18333453148742075640
15848702 151 18335139778151999364
17349148 13 14707202219275039936
17844677 252 18409737265540815713
1813 80 17167870737776792157
18681886 176 18272086150112688944
19141452 34 18260268529721556079
21709351 56 18409445903949952516
21859007 373 17678730138601782621
23559900 14 18342451534681870249
23569914 2 17546951565020762040
249057 3 18409166576013933928
3004659 81 18340768152678808450
338550 245 18340768238789267870
34797466 226 18130239253649800197
3493558 16 18341621364727757065
3633792 109 18263070060344535349
4015057 19 18341883122115896361
404807 14 17120590406659859231
4073 2 18187087282292842146
4214541 1 18410855447459804305
460360 51 18127996151165624633
5104073 3 18410576209981603592
5283173 99 18337950100034781257
59755656 215 18338237064232442326
633830 44 17458626752277895496
67856867 119 18337952393663433160
9709674 26 18341620273847813415

> <PUBCHEM_SHAPE_MULTIPOLES>
517.99
13.7
3.06
1.31
1.78
0.32
-0.49
-1.14
1.21
-0.91
-0.73
-0.18
0.09
0.51

> <PUBCHEM_SHAPE_SELFOVERLAP>
1103.949

> <PUBCHEM_SHAPE_VOLUME>
288.2

> <PUBCHEM_COORDINATE_TYPE>
2
5
10

$$$$
