20959060
  -OEChem-01171810033D

 46 49  0     0  0  0  0  0  0999 V2000
   -3.1450   -2.0016   -0.5001 S   0  0  0  0  0  0  0  0  0  0  0  0
    3.3089   -0.2232   -0.5832 O   0  0  0  0  0  0  0  0  0  0  0  0
   -3.4869   -3.2425    0.1852 O   0  0  0  0  0  0  0  0  0  0  0  0
   -3.4366   -1.8821   -1.9234 O   0  0  0  0  0  0  0  0  0  0  0  0
    4.8424   -0.8306    0.9642 N   0  0  0  0  0  0  0  0  0  0  0  0
   -3.8850   -0.6992    0.3512 N   0  0  0  0  0  0  0  0  0  0  0  0
    5.6871    0.6189   -0.8867 C   0  0  0  0  0  0  0  0  0  0  0  0
    5.4593    2.0742   -1.1727 C   0  0  0  0  0  0  0  0  0  0  0  0
    6.4629    1.6613   -0.1364 C   0  0  0  0  0  0  0  0  0  0  0  0
    4.5955   -0.1669   -0.1424 C   0  0  0  0  0  0  0  0  0  0  0  0
    2.6881   -1.0032    0.3450 C   0  0  0  0  0  0  0  0  0  0  0  0
    3.6220   -1.3698    1.2818 C   0  0  0  0  0  0  0  0  0  0  0  0
    1.2810   -1.2457    0.1406 C   0  0  0  0  0  0  0  0  0  0  0  0
    0.6307   -0.6900   -0.9613 C   0  0  0  0  0  0  0  0  0  0  0  0
    0.5696   -2.0327    1.0463 C   0  0  0  0  0  0  0  0  0  0  0  0
   -1.4419   -1.7085   -0.2519 C   0  0  0  0  0  0  0  0  0  0  0  0
   -0.7306   -0.9214   -1.1575 C   0  0  0  0  0  0  0  0  0  0  0  0
   -0.7919   -2.2640    0.8502 C   0  0  0  0  0  0  0  0  0  0  0  0
   -3.4459    0.6382    0.0566 C   0  0  0  0  0  0  0  0  0  0  0  0
   -2.7549    1.3914    1.0057 C   0  0  0  0  0  0  0  0  0  0  0  0
   -2.3382    2.6868    0.6992 C   0  0  0  0  0  0  0  0  0  0  0  0
   -3.7202    1.1803   -1.1989 C   0  0  0  0  0  0  0  0  0  0  0  0
   -2.4587    0.8115    2.3531 C   0  0  0  0  0  0  0  0  0  0  0  0
   -2.6125    3.2290   -0.5563 C   0  0  0  0  0  0  0  0  0  0  0  0
   -3.3035    2.4759   -1.5054 C   0  0  0  0  0  0  0  0  0  0  0  0
   -1.5955    3.5139    1.6969 C   0  0  0  0  0  0  0  0  0  0  0  0
    6.2234    0.0469   -1.6352 H   0  0  0  0  0  0  0  0  0  0  0  0
    4.5441    2.5401   -0.8278 H   0  0  0  0  0  0  0  0  0  0  0  0
    5.8350    2.4690   -2.1089 H   0  0  0  0  0  0  0  0  0  0  0  0
    7.5127    1.7788   -0.3768 H   0  0  0  0  0  0  0  0  0  0  0  0
    6.2197    1.8533    0.9016 H   0  0  0  0  0  0  0  0  0  0  0  0
    3.4929   -1.9841    2.1608 H   0  0  0  0  0  0  0  0  0  0  0  0
    1.1521   -0.0715   -1.6873 H   0  0  0  0  0  0  0  0  0  0  0  0
    1.0502   -2.4758    1.9147 H   0  0  0  0  0  0  0  0  0  0  0  0
   -1.2142   -0.4811   -2.0248 H   0  0  0  0  0  0  0  0  0  0  0  0
   -1.3274   -2.8736    1.5724 H   0  0  0  0  0  0  0  0  0  0  0  0
   -4.1778   -0.8788    1.3193 H   0  0  0  0  0  0  0  0  0  0  0  0
   -4.2729    0.6178   -1.9459 H   0  0  0  0  0  0  0  0  0  0  0  0
   -1.4541    1.0842    2.6932 H   0  0  0  0  0  0  0  0  0  0  0  0
   -2.4740   -0.2808    2.3739 H   0  0  0  0  0  0  0  0  0  0  0  0
   -3.1897    1.1742    3.0832 H   0  0  0  0  0  0  0  0  0  0  0  0
   -2.2944    4.2362   -0.8118 H   0  0  0  0  0  0  0  0  0  0  0  0
   -3.5202    2.8992   -2.4818 H   0  0  0  0  0  0  0  0  0  0  0  0
   -1.4885    4.5512    1.3603 H   0  0  0  0  0  0  0  0  0  0  0  0
   -0.5879    3.1143    1.8515 H   0  0  0  0  0  0  0  0  0  0  0  0
   -2.1278    3.5477    2.6533 H   0  0  0  0  0  0  0  0  0  0  0  0
  1  3  2  0  0  0  0
  1  4  2  0  0  0  0
  1  6  1  0  0  0  0
  1 16  1  0  0  0  0
  2 10  1  0  0  0  0
  2 11  1  0  0  0  0
  5 10  2  0  0  0  0
  5 12  1  0  0  0  0
  6 19  1  0  0  0  0
  6 37  1  0  0  0  0
  7  8  1  0  0  0  0
  7  9  1  0  0  0  0
  7 10  1  0  0  0  0
  7 27  1  0  0  0  0
  8  9  1  0  0  0  0
  8 28  1  0  0  0  0
  8 29  1  0  0  0  0
  9 30  1  0  0  0  0
  9 31  1  0  0  0  0
 11 12  2  0  0  0  0
 11 13  1  0  0  0  0
 12 32  1  0  0  0  0
 13 14  2  0  0  0  0
 13 15  1  0  0  0  0
 14 17  1  0  0  0  0
 14 33  1  0  0  0  0
 15 18  2  0  0  0  0
 15 34  1  0  0  0  0
 16 17  2  0  0  0  0
 16 18  1  0  0  0  0
 17 35  1  0  0  0  0
 18 36  1  0  0  0  0
 19 20  1  0  0  0  0
 19 22  2  0  0  0  0
 20 21  2  0  0  0  0
 20 23  1  0  0  0  0
 21 24  1  0  0  0  0
 21 26  1  0  0  0  0
 22 25  1  0  0  0  0
 22 38  1  0  0  0  0
 23 39  1  0  0  0  0
 23 40  1  0  0  0  0
 23 41  1  0  0  0  0
 24 25  2  0  0  0  0
 24 42  1  0  0  0  0
 25 43  1  0  0  0  0
 26 44  1  0  0  0  0
 26 45  1  0  0  0  0
 26 46  1  0  0  0  0
M  END
> <PUBCHEM_COMPOUND_CID>
20959060

> <PUBCHEM_CONFORMER_RMSD>
0.8

> <PUBCHEM_CONFORMER_DIVERSEORDER>
1
34
60
52
58
38
10
63
4
64
42
55
8
20
12
22
44
16
51
53
9
2
36
43
35
62
13
33
5
61
59
11
54
3
65
46
19
30
57
49
14
15
47
50
56
27
32
66
29
26
37
24
18
6
25
17
41
7
40
23
28
48
21
31
39
45

> <PUBCHEM_MMFF94_PARTIAL_CHARGES>
40
1 1.45
10 0.39
11 0.09
12 0.08
13 0.05
14 -0.15
15 -0.15
16 -0.01
17 -0.15
18 -0.15
19 0.2
2 -0.28
20 -0.14
21 -0.14
22 -0.15
23 0.14
24 -0.15
25 -0.15
26 0.14
27 0.1
28 0.1
29 0.1
3 -0.65
30 0.1
31 0.1
32 0.15
33 0.15
34 0.15
35 0.15
36 0.15
37 0.42
38 0.15
4 -0.65
42 0.15
43 0.15
5 -0.57
6 -0.76
7 -0.01
8 -0.2
9 -0.2

> <PUBCHEM_EFFECTIVE_ROTOR_COUNT>
5.6

> <PUBCHEM_PHARMACOPHORE_FEATURES>
6
1 3 acceptor
1 4 acceptor
1 6 donor
5 2 5 10 11 12 rings
6 13 14 15 16 17 18 rings
6 19 20 21 22 24 25 rings

> <PUBCHEM_HEAVY_ATOM_COUNT>
26

> <PUBCHEM_ATOM_DEF_STEREO_COUNT>
0

> <PUBCHEM_ATOM_UDEF_STEREO_COUNT>
0

> <PUBCHEM_BOND_DEF_STEREO_COUNT>
0

> <PUBCHEM_BOND_UDEF_STEREO_COUNT>
0

> <PUBCHEM_ISOTOPIC_ATOM_COUNT>
0

> <PUBCHEM_COMPONENT_COUNT>
1

> <PUBCHEM_CACTVS_TAUTO_COUNT>
1

> <PUBCHEM_CONFORMER_ID>
013FCF5400000001

> <PUBCHEM_MMFF94_ENERGY>
55.9281

> <PUBCHEM_FEATURE_SELFOVERLAP>
30.466

> <PUBCHEM_SHAPE_FINGERPRINT>
10670039 82 18339646737219119012
10871710 139 18409167701617073429
10937287 8 17624422978388056593
11477941 20 17916854854662390844
11578080 2 17129617620139686246
11640471 11 18047744898162662811
12107183 9 17900810558010234778
12596602 18 17676205792567762242
12655364 131 16734361899454034368
12788726 201 18338792415977793114
13583140 156 17677341497958723096
13994607 96 18273209768796045253
14251764 30 11885943395283871149
14251764 75 17981333283217250969
14674994 50 14097739947719012177
14713325 29 18202293506218976455
14739800 52 18338782525496019808
15021287 119 18043527219077831730
15163728 17 18059305253321379782
15183329 4 18202011984946704518
16994733 274 16082189829029785735
17492 54 18197474274610051837
17844677 252 18408328774519698862
21033650 10 18268736985986109526
21049683 271 18118680161775983943
22907989 373 18200866293218618797
22956985 138 16893713333125137315
283562 15 18334574685326856811
2838139 119 17389366135875586893
341906 21 18341601599857076786
3459 110 14491056980997457438
469060 322 18263382381449188619
484985 159 10303812056133409609
5104073 3 17530674425532064258
5364581 5 11170777082241246494
550186 7 18272938236563338030
6299153 45 18188199885545230858
7237137 82 18201437021062342534
7808743 9 18410856529791465440

> <PUBCHEM_SHAPE_MULTIPOLES>
511.35
11.95
3.88
1.65
21.71
1.64
0.31
5.26
-2.41
-3.77
0.35
-1.05
0.5
-1.62

> <PUBCHEM_SHAPE_SELFOVERLAP>
1098.97

> <PUBCHEM_SHAPE_VOLUME>
284.9

> <PUBCHEM_COORDINATE_TYPE>
2
5
10

$$$$
