2444453
  -OEChem-01171809493D

 30 32  0     0  0  0  0  0  0999 V2000
    1.3060   -1.6857    0.0256 S   0  0  0  0  0  0  0  0  0  0  0  0
   -1.7078    1.8538    0.0141 O   0  0  0  0  0  0  0  0  0  0  0  0
    1.0837    0.8839    0.0045 N   0  0  0  0  0  0  0  0  0  0  0  0
   -0.9631   -0.3824    0.0286 N   0  0  0  0  0  0  0  0  0  0  0  0
   -3.4952   -1.1305   -0.0055 N   0  0  0  0  0  0  0  0  0  0  0  0
    2.7623   -0.7629    0.0083 C   0  0  0  0  0  0  0  0  0  0  0  0
    2.4412    0.5980   -0.0017 C   0  0  0  0  0  0  0  0  0  0  0  0
    5.1130   -0.2560   -0.0112 C   0  0  0  0  0  0  0  0  0  0  0  0
    4.0931   -1.2107    0.0039 C   0  0  0  0  0  0  0  0  0  0  0  0
    3.4910    1.5418   -0.0167 C   0  0  0  0  0  0  0  0  0  0  0  0
    4.8182    1.1029   -0.0214 C   0  0  0  0  0  0  0  0  0  0  0  0
    0.3987   -0.2357    0.0185 C   0  0  0  0  0  0  0  0  0  0  0  0
    6.5372   -0.7033   -0.0164 C   0  0  0  0  0  0  0  0  0  0  0  0
   -1.9191    0.6461    0.0259 C   0  0  0  0  0  0  0  0  0  0  0  0
   -3.3367    0.1973    0.0073 C   0  0  0  0  0  0  0  0  0  0  0  0
   -4.3307    1.1381    0.0035 C   0  0  0  0  0  0  0  0  0  0  0  0
   -5.6379    0.6644   -0.0150 C   0  0  0  0  0  0  0  0  0  0  0  0
   -5.8749   -0.7057   -0.0289 C   0  0  0  0  0  0  0  0  0  0  0  0
   -4.7791   -1.5535   -0.0236 C   0  0  0  0  0  0  0  0  0  0  0  0
    4.3195   -2.2731    0.0138 H   0  0  0  0  0  0  0  0  0  0  0  0
    3.2719    2.6057   -0.0242 H   0  0  0  0  0  0  0  0  0  0  0  0
    5.6160    1.8416   -0.0311 H   0  0  0  0  0  0  0  0  0  0  0  0
    7.1731    0.0081   -0.5543 H   0  0  0  0  0  0  0  0  0  0  0  0
    6.9051   -0.7963    1.0103 H   0  0  0  0  0  0  0  0  0  0  0  0
    6.6464   -1.6713   -0.5172 H   0  0  0  0  0  0  0  0  0  0  0  0
   -1.2932   -1.3441    0.0346 H   0  0  0  0  0  0  0  0  0  0  0  0
   -4.1467    2.2059    0.0145 H   0  0  0  0  0  0  0  0  0  0  0  0
   -6.4706    1.3614   -0.0186 H   0  0  0  0  0  0  0  0  0  0  0  0
   -6.8855   -1.0974   -0.0434 H   0  0  0  0  0  0  0  0  0  0  0  0
   -4.9101   -2.6306   -0.0339 H   0  0  0  0  0  0  0  0  0  0  0  0
  1  6  1  0  0  0  0
  1 12  1  0  0  0  0
  2 14  2  0  0  0  0
  3  7  1  0  0  0  0
  3 12  2  0  0  0  0
  4 12  1  0  0  0  0
  4 14  1  0  0  0  0
  4 26  1  0  0  0  0
  5 15  1  0  0  0  0
  5 19  2  0  0  0  0
  6  7  2  0  0  0  0
  6  9  1  0  0  0  0
  7 10  1  0  0  0  0
  8  9  2  0  0  0  0
  8 11  1  0  0  0  0
  8 13  1  0  0  0  0
  9 20  1  0  0  0  0
 10 11  2  0  0  0  0
 10 21  1  0  0  0  0
 11 22  1  0  0  0  0
 13 23  1  0  0  0  0
 13 24  1  0  0  0  0
 13 25  1  0  0  0  0
 14 15  1  0  0  0  0
 15 16  2  0  0  0  0
 16 17  1  0  0  0  0
 16 27  1  0  0  0  0
 17 18  2  0  0  0  0
 17 28  1  0  0  0  0
 18 19  1  0  0  0  0
 18 29  1  0  0  0  0
 19 30  1  0  0  0  0
M  END
> <PUBCHEM_COMPOUND_CID>
2444453

> <PUBCHEM_CONFORMER_RMSD>
0.6

> <PUBCHEM_CONFORMER_DIVERSEORDER>
1
5
7
6
8
2
4
3

> <PUBCHEM_MMFF94_PARTIAL_CHARGES>
27
1 -0.08
10 -0.15
11 -0.15
12 0.44
13 0.14
14 0.54
15 0.4
16 -0.15
17 -0.15
18 -0.15
19 0.16
2 -0.57
20 0.15
21 0.15
22 0.15
26 0.37
27 0.15
28 0.15
29 0.15
3 -0.57
30 0.15
4 -0.49
5 -0.62
6 0.04
7 0.23
8 -0.14
9 -0.15

> <PUBCHEM_EFFECTIVE_ROTOR_COUNT>
3

> <PUBCHEM_PHARMACOPHORE_FEATURES>
6
1 2 acceptor
1 4 donor
1 5 acceptor
5 1 3 6 7 12 rings
6 5 15 16 17 18 19 rings
6 6 7 8 9 10 11 rings

> <PUBCHEM_HEAVY_ATOM_COUNT>
19

> <PUBCHEM_ATOM_DEF_STEREO_COUNT>
0

> <PUBCHEM_ATOM_UDEF_STEREO_COUNT>
0

> <PUBCHEM_BOND_DEF_STEREO_COUNT>
0

> <PUBCHEM_BOND_UDEF_STEREO_COUNT>
0

> <PUBCHEM_ISOTOPIC_ATOM_COUNT>
0

> <PUBCHEM_COMPONENT_COUNT>
1

> <PUBCHEM_CACTVS_TAUTO_COUNT>
3

> <PUBCHEM_CONFORMER_ID>
00254CA500000001

> <PUBCHEM_MMFF94_ENERGY>
43.5902

> <PUBCHEM_FEATURE_SELFOVERLAP>
30.517

> <PUBCHEM_SHAPE_FINGERPRINT>
10 15 18339912819154347656
10366900 7 16225766311504516328
10595046 47 18410856576999123777
10968037 39 18409730664755999039
11287383 113 18410575101864073186
11315181 36 18202004335103528457
11524674 6 16774077384303979983
12091667 2 17458347420748094117
12107183 9 17617658761241349169
12166972 35 18040720277097194948
12236239 1 18202565085490270980
12403259 415 18334284371280784996
12516196 113 18060698403463107161
13167823 11 18410571786355321771
13288520 33 18411982464442940781
13533116 47 17023173886880922642
13862211 1 18411134753282825478
1420 363 18335144202041978915
14341114 176 18409453587103028461
14528608 73 18410294743615854340
15196674 1 18410574002347151073
15788980 27 18259988179910173993
17834072 33 18411136952284748142
17844677 252 18411706486587136217
18681886 176 18340763827736269250
19489759 90 16805321085460010837
200 152 18272931622445050649
20645477 70 18340770351670766142
21267235 1 18411144635991913615
21709351 56 18333725827641634093
220451 1 16660361480537529835
23035841 295 18408886235193309195
23402539 116 18408881841272862935
23536379 177 18411419501040219290
23557571 272 17530963540606650597
23559900 14 18411411847957526817
239999 70 18272093777700644254
26918003 58 18409449189436299579
29717793 49 17917998256855889324
300161 21 18260542308422801375
3004659 81 18334294266985245840
34797466 226 17489596700603050172
350125 39 18411136931190129084
351380 180 18408041818768605336
3545911 37 18409449172119273757
4073 2 18041003985055765075
4214541 1 18410855439186419553
42788 4 18410575088958046214
4325135 7 18411418414687910487
465052 167 18343023272898066774
474229 33 18412545422459328199
5104073 3 18410856555608567315
5283173 99 18114453458368472301
542803 24 17168146736564698293
59755656 215 18410015403649788254
59755656 520 17385721417553268571
67856867 119 18262521510366911661
7495541 125 17846776355615421968
77779 3 18411419501330330413
9999458 23 17967252023042086014

> <PUBCHEM_SHAPE_MULTIPOLES>
374.05
15.59
1.66
0.6
2.51
0.01
0
-1.49
0.18
0.07
0
-0.03
-0.01
-0.03

> <PUBCHEM_SHAPE_SELFOVERLAP>
810.179

> <PUBCHEM_SHAPE_VOLUME>
206.4

> <PUBCHEM_COORDINATE_TYPE>
2
5
10

$$$$
