16194224
  -OEChem-01171809463D

 41 43  0     0  0  0  0  0  0999 V2000
    1.9287    0.1000   -0.0657 S   0  0  0  0  0  0  0  0  0  0  0  0
   -5.7890   -0.3429    2.0781 F   0  0  0  0  0  0  0  0  0  0  0  0
   -1.1104    2.8977   -1.5780 O   0  0  0  0  0  0  0  0  0  0  0  0
    2.7318    3.2638    1.4700 O   0  0  0  0  0  0  0  0  0  0  0  0
    4.2445    2.3043    0.0036 O   0  0  0  0  0  0  0  0  0  0  0  0
   -0.4854    0.6674   -1.2196 N   0  0  0  0  0  0  0  0  0  0  0  0
    0.1680   -1.6025   -0.8507 N   0  0  0  0  0  0  0  0  0  0  0  0
   -1.7470    0.2010   -1.8035 C   0  0  0  0  0  0  0  0  0  0  0  0
   -2.8251    0.0557   -0.7688 C   0  0  0  0  0  0  0  0  0  0  0  0
    0.4004   -0.3319   -0.7745 C   0  0  0  0  0  0  0  0  0  0  0  0
   -0.3017    2.0614   -1.1698 C   0  0  0  0  0  0  0  0  0  0  0  0
   -3.6617    1.1332   -0.4772 C   0  0  0  0  0  0  0  0  0  0  0  0
   -2.9897   -1.1565   -0.0985 C   0  0  0  0  0  0  0  0  0  0  0  0
    0.9592    2.5732   -0.5842 C   0  0  0  0  0  0  0  0  0  0  0  0
    1.9311    1.8007   -0.1049 C   0  0  0  0  0  0  0  0  0  0  0  0
   -4.6628    0.9986    0.4844 C   0  0  0  0  0  0  0  0  0  0  0  0
   -3.9910   -1.2911    0.8633 C   0  0  0  0  0  0  0  0  0  0  0  0
   -4.8274   -0.2134    1.1549 C   0  0  0  0  0  0  0  0  0  0  0  0
    1.1808   -2.4356   -0.3498 C   0  0  0  0  0  0  0  0  0  0  0  0
    3.1168    2.4688    0.4402 C   0  0  0  0  0  0  0  0  0  0  0  0
    1.1677   -2.8203    0.9909 C   0  0  0  0  0  0  0  0  0  0  0  0
    2.2005   -2.8782   -1.1924 C   0  0  0  0  0  0  0  0  0  0  0  0
    2.1743   -3.6474    1.4891 C   0  0  0  0  0  0  0  0  0  0  0  0
    3.2072   -3.7054   -0.6941 C   0  0  0  0  0  0  0  0  0  0  0  0
    3.1940   -4.0899    0.6466 C   0  0  0  0  0  0  0  0  0  0  0  0
    3.7861    3.9895    2.1105 C   0  0  0  0  0  0  0  0  0  0  0  0
   -1.5969   -0.7532   -2.3238 H   0  0  0  0  0  0  0  0  0  0  0  0
   -2.0755    0.9032   -2.5805 H   0  0  0  0  0  0  0  0  0  0  0  0
   -3.5552    2.0814   -0.9957 H   0  0  0  0  0  0  0  0  0  0  0  0
   -2.3633   -2.0142   -0.3217 H   0  0  0  0  0  0  0  0  0  0  0  0
    1.0527    3.6569   -0.5748 H   0  0  0  0  0  0  0  0  0  0  0  0
   -5.3157    1.8365    0.7102 H   0  0  0  0  0  0  0  0  0  0  0  0
   -4.1224   -2.2358    1.3826 H   0  0  0  0  0  0  0  0  0  0  0  0
    0.3751   -2.4848    1.6551 H   0  0  0  0  0  0  0  0  0  0  0  0
    2.2183   -2.5881   -2.2399 H   0  0  0  0  0  0  0  0  0  0  0  0
    2.1635   -3.9476    2.5328 H   0  0  0  0  0  0  0  0  0  0  0  0
    4.0007   -4.0506   -1.3503 H   0  0  0  0  0  0  0  0  0  0  0  0
    3.9776   -4.7342    1.0345 H   0  0  0  0  0  0  0  0  0  0  0  0
    3.3483    4.5856    2.9156 H   0  0  0  0  0  0  0  0  0  0  0  0
    4.2695    4.6636    1.3969 H   0  0  0  0  0  0  0  0  0  0  0  0
    4.5147    3.2966    2.5423 H   0  0  0  0  0  0  0  0  0  0  0  0
  1 10  1  0  0  0  0
  1 15  1  0  0  0  0
  2 18  1  0  0  0  0
  3 11  2  0  0  0  0
  4 20  1  0  0  0  0
  4 26  1  0  0  0  0
  5 20  2  0  0  0  0
  6  8  1  0  0  0  0
  6 10  1  0  0  0  0
  6 11  1  0  0  0  0
  7 10  2  0  0  0  0
  7 19  1  0  0  0  0
  8  9  1  0  0  0  0
  8 27  1  0  0  0  0
  8 28  1  0  0  0  0
  9 12  2  0  0  0  0
  9 13  1  0  0  0  0
 11 14  1  0  0  0  0
 12 16  1  0  0  0  0
 12 29  1  0  0  0  0
 13 17  2  0  0  0  0
 13 30  1  0  0  0  0
 14 15  2  0  0  0  0
 14 31  1  0  0  0  0
 15 20  1  0  0  0  0
 16 18  2  0  0  0  0
 16 32  1  0  0  0  0
 17 18  1  0  0  0  0
 17 33  1  0  0  0  0
 19 21  2  0  0  0  0
 19 22  1  0  0  0  0
 21 23  1  0  0  0  0
 21 34  1  0  0  0  0
 22 24  2  0  0  0  0
 22 35  1  0  0  0  0
 23 25  2  0  0  0  0
 23 36  1  0  0  0  0
 24 25  1  0  0  0  0
 24 37  1  0  0  0  0
 25 38  1  0  0  0  0
 26 39  1  0  0  0  0
 26 40  1  0  0  0  0
 26 41  1  0  0  0  0
M  END
> <PUBCHEM_COMPOUND_CID>
16194224

> <PUBCHEM_CONFORMER_RMSD>
0.8

> <PUBCHEM_CONFORMER_DIVERSEORDER>
1
12
14
15
17
3
6
8
13
10
11
16
7
5
9
2
4

> <PUBCHEM_MMFF94_PARTIAL_CHARGES>
36
1 -0.24
10 0.65
11 0.62
12 -0.15
13 -0.15
14 -0.14
15 0.12
16 -0.15
17 -0.15
18 0.19
19 0.18
2 -0.19
20 0.71
21 -0.15
22 -0.15
23 -0.15
24 -0.15
25 -0.15
26 0.28
29 0.15
3 -0.57
30 0.15
31 0.15
32 0.15
33 0.15
34 0.15
35 0.15
36 0.15
37 0.15
38 0.15
4 -0.43
5 -0.57
6 -0.42
7 -0.63
8 0.44
9 -0.14

> <PUBCHEM_EFFECTIVE_ROTOR_COUNT>
5

> <PUBCHEM_PHARMACOPHORE_FEATURES>
5
1 3 acceptor
1 5 acceptor
6 1 6 10 11 14 15 rings
6 19 21 22 23 24 25 rings
6 9 12 13 16 17 18 rings

> <PUBCHEM_HEAVY_ATOM_COUNT>
26

> <PUBCHEM_ATOM_DEF_STEREO_COUNT>
0

> <PUBCHEM_ATOM_UDEF_STEREO_COUNT>
0

> <PUBCHEM_BOND_DEF_STEREO_COUNT>
0

> <PUBCHEM_BOND_UDEF_STEREO_COUNT>
0

> <PUBCHEM_ISOTOPIC_ATOM_COUNT>
0

> <PUBCHEM_COMPONENT_COUNT>
1

> <PUBCHEM_CACTVS_TAUTO_COUNT>
1

> <PUBCHEM_CONFORMER_ID>
00F71AB000000001

> <PUBCHEM_MMFF94_ENERGY>
88.3089

> <PUBCHEM_FEATURE_SELFOVERLAP>
25.373

> <PUBCHEM_SHAPE_FINGERPRINT>
10074138 170 17402580427316239392
10382601 240 18412546530491838279
10794284 68 17265861284783005728
11070050 100 18200593738477591080
114674 6 18041007249732167411
11578080 2 17314782997471022252
12156800 1 15576433317488898514
12160290 23 10155262619277200582
12293681 160 16606569776835380340
12422481 6 18192123019815169376
12549972 3 17970055652859671645
12553582 1 18120650228319081807
12788726 201 16969685703800139182
12839892 36 17974853071062371131
13140716 1 18266727155770875118
133893 2 18125124265358973822
13533116 47 18409175398799815603
13540713 4 18113893815724082541
14178342 30 18120664779915686991
14363568 33 18340477882015198930
14444916 359 18338795732689421896
14790565 3 18118694450499493644
15420108 30 18200871876360073471
15475509 84 17982746181444330977
15775530 1 18045198475887089437
18785283 64 18334858333693461038
19591789 44 18264480849299496038
20028762 73 17834962249410332335
20739085 24 18261392286524659884
21033648 29 17983860274306729040
21120745 212 17622744016006237846
21731228 192 18122620827780027748
21796203 349 18196953083769711074
22182313 1 17895186689320097319
22956985 138 18041268907682502834
23559900 14 17895480207258427445
238918 7 18047766076340918898
283562 15 17623271085191393551
3411729 13 18341902886995658239
3418910 222 17976544902538189510
3421961 26 18334868169063171283
458136 41 18410015480774252012
5171179 24 18194664995998303365
5265222 85 18262806302145194932
58807428 26 18266451203795234884
6371380 46 17756143385285911917
79837 15 17905887333538905922
81228 2 16902414284299894140

> <PUBCHEM_SHAPE_MULTIPOLES>
504.07
8.84
5.78
1.69
10.75
0.37
-0.4
-0.65
-4.76
-10.59
-2.01
0.33
0.48
2.2

> <PUBCHEM_SHAPE_SELFOVERLAP>
1081.036

> <PUBCHEM_SHAPE_VOLUME>
280

> <PUBCHEM_COORDINATE_TYPE>
2
5
10

$$$$
