6279050
  -OEChem-01171809373D

 44 45  0     0  0  0  0  0  0999 V2000
   -5.2545    0.0433   -2.4568 Cl  0  0  0  0  0  0  0  0  0  0  0  0
    4.9703   -0.2276    1.8025 O   0  0  0  0  0  0  0  0  0  0  0  0
   -4.0119    1.7731   -0.1992 O   0  0  0  0  0  0  0  0  0  0  0  0
    5.5261   -0.8241   -0.3590 N   0  0  0  0  0  0  0  0  0  0  0  0
   -2.2788    0.2772    0.3355 N   0  0  0  0  0  0  0  0  0  0  0  0
    2.8216    0.1591   -2.4526 N   0  0  0  0  0  0  0  0  0  0  0  0
    6.8180   -1.3911   -0.0415 C   0  0  0  0  0  0  0  0  0  0  0  0
    7.7839   -1.1902   -1.2020 C   0  0  0  0  0  0  0  0  0  0  0  0
    6.6817   -2.8664    0.3143 C   0  0  0  0  0  0  0  0  0  0  0  0
    1.2199    1.3643    0.6670 C   0  0  0  0  0  0  0  0  0  0  0  0
   -1.1461    1.0920    0.3587 C   0  0  0  0  0  0  0  0  0  0  0  0
    0.1031    0.5428    0.6475 C   0  0  0  0  0  0  0  0  0  0  0  0
    4.6926   -0.2791    0.6053 C   0  0  0  0  0  0  0  0  0  0  0  0
    2.5379    0.7861    0.9716 C   0  0  0  0  0  0  0  0  0  0  0  0
    3.3923    0.2646    0.0698 C   0  0  0  0  0  0  0  0  0  0  0  0
    1.1174    2.7220    0.4045 C   0  0  0  0  0  0  0  0  0  0  0  0
   -1.2636    2.4562    0.0928 C   0  0  0  0  0  0  0  0  0  0  0  0
   -0.1318    3.2713    0.1157 C   0  0  0  0  0  0  0  0  0  0  0  0
   -4.6007   -0.4507    0.1459 C   0  0  0  0  0  0  0  0  0  0  0  0
   -3.6029    0.6483    0.0674 C   0  0  0  0  0  0  0  0  0  0  0  0
   -5.3790   -0.7814   -0.9445 C   0  0  0  0  0  0  0  0  0  0  0  0
   -4.7078   -1.1163    1.3520 C   0  0  0  0  0  0  0  0  0  0  0  0
   -6.3028   -1.8197   -0.8258 C   0  0  0  0  0  0  0  0  0  0  0  0
   -5.6314   -2.1548    1.4706 C   0  0  0  0  0  0  0  0  0  0  0  0
   -6.4289   -2.5065    0.3817 C   0  0  0  0  0  0  0  0  0  0  0  0
    3.0755    0.2076   -1.3212 C   0  0  0  0  0  0  0  0  0  0  0  0
    7.2175   -0.8631    0.8328 H   0  0  0  0  0  0  0  0  0  0  0  0
    5.2216   -0.8850   -1.3252 H   0  0  0  0  0  0  0  0  0  0  0  0
    8.7764   -1.5833   -0.9582 H   0  0  0  0  0  0  0  0  0  0  0  0
    7.4298   -1.6955   -2.1075 H   0  0  0  0  0  0  0  0  0  0  0  0
    7.8898   -0.1258   -1.4388 H   0  0  0  0  0  0  0  0  0  0  0  0
    6.0122   -3.0030    1.1704 H   0  0  0  0  0  0  0  0  0  0  0  0
    7.6538   -3.2979    0.5742 H   0  0  0  0  0  0  0  0  0  0  0  0
    6.2662   -3.4392   -0.5223 H   0  0  0  0  0  0  0  0  0  0  0  0
    0.1960   -0.5209    0.8559 H   0  0  0  0  0  0  0  0  0  0  0  0
    2.7838    0.8190    2.0307 H   0  0  0  0  0  0  0  0  0  0  0  0
    1.9915    3.3678    0.4196 H   0  0  0  0  0  0  0  0  0  0  0  0
   -2.1934    2.9561   -0.1390 H   0  0  0  0  0  0  0  0  0  0  0  0
   -2.1084   -0.7061    0.5367 H   0  0  0  0  0  0  0  0  0  0  0  0
   -0.2219    4.3338   -0.0912 H   0  0  0  0  0  0  0  0  0  0  0  0
   -4.0980   -0.8482    2.2100 H   0  0  0  0  0  0  0  0  0  0  0  0
   -6.9320   -2.1063   -1.6647 H   0  0  0  0  0  0  0  0  0  0  0  0
   -5.7308   -2.6885    2.4113 H   0  0  0  0  0  0  0  0  0  0  0  0
   -7.1483   -3.3149    0.4743 H   0  0  0  0  0  0  0  0  0  0  0  0
  1 21  1  0  0  0  0
  2 13  2  0  0  0  0
  3 20  2  0  0  0  0
  4  7  1  0  0  0  0
  4 13  1  0  0  0  0
  4 28  1  0  0  0  0
  5 11  1  0  0  0  0
  5 20  1  0  0  0  0
  5 39  1  0  0  0  0
  6 26  3  0  0  0  0
  7  8  1  0  0  0  0
  7  9  1  0  0  0  0
  7 27  1  0  0  0  0
  8 29  1  0  0  0  0
  8 30  1  0  0  0  0
  8 31  1  0  0  0  0
  9 32  1  0  0  0  0
  9 33  1  0  0  0  0
  9 34  1  0  0  0  0
 10 12  2  0  0  0  0
 10 14  1  0  0  0  0
 10 16  1  0  0  0  0
 11 12  1  0  0  0  0
 11 17  2  0  0  0  0
 12 35  1  0  0  0  0
 13 15  1  0  0  0  0
 14 15  2  0  0  0  0
 14 36  1  0  0  0  0
 15 26  1  0  0  0  0
 16 18  2  0  0  0  0
 16 37  1  0  0  0  0
 17 18  1  0  0  0  0
 17 38  1  0  0  0  0
 18 40  1  0  0  0  0
 19 20  1  0  0  0  0
 19 21  1  0  0  0  0
 19 22  2  0  0  0  0
 21 23  2  0  0  0  0
 22 24  1  0  0  0  0
 22 41  1  0  0  0  0
 23 25  1  0  0  0  0
 23 42  1  0  0  0  0
 24 25  2  0  0  0  0
 24 43  1  0  0  0  0
 25 44  1  0  0  0  0
M  END
> <PUBCHEM_COMPOUND_CID>
6279050

> <PUBCHEM_CONFORMER_RMSD>
0.8

> <PUBCHEM_CONFORMER_DIVERSEORDER>
1
59
33
193
97
62
118
150
187
84
63
15
176
163
78
93
192
159
138
203
178
68
41
12
43
172
77
173
120
134
86
48
191
124
80
188
35
155
26
83
101
179
121
167
151
54
28
156
144
94
114
145
184
32
185
171
186
117
175
64
85
17
66
164
199
61
27
194
19
44
116
90
195
177
60
113
158
104
50
135
131
169
42
143
190
13
31
20
148
136
105
182
196
126
157
142
197
53
23
57
162
95
200
122
160
14
89
137
88
183
82
152
39
166
38
107
198
128
16
110
165
204
47
168
202
4
56
103
67
141
25
76
153
161
74
133
132
37
81
100
174
106
140
127
125
147
99
51
3
189
129
55
79
149
115
45
91
154
46
5
18
181
112
87
2
109
29
201
98
73
123
170
92
21
70
146
6
119
40
69
180
139
24
8
130
52
49
58
102
34
96
30
7
71
36
72
65
22
10
9
75
108
111
11

> <PUBCHEM_MMFF94_PARTIAL_CHARGES>
35
1 -0.18
10 0.03
11 0.12
12 -0.15
13 0.62
14 -0.18
15 0.08
16 -0.15
17 -0.15
18 -0.15
19 0.09
2 -0.57
20 0.54
21 0.18
22 -0.15
23 -0.15
24 -0.15
25 -0.15
26 0.49
28 0.37
3 -0.57
35 0.15
36 0.15
37 0.15
38 0.15
39 0.37
4 -0.73
40 0.15
41 0.15
42 0.15
43 0.15
44 0.15
5 -0.55
6 -0.56
7 0.3

> <PUBCHEM_EFFECTIVE_ROTOR_COUNT>
7

> <PUBCHEM_PHARMACOPHORE_FEATURES>
8
1 2 acceptor
1 3 acceptor
1 4 donor
1 5 donor
1 6 acceptor
3 7 8 9 hydrophobe
6 10 11 12 16 17 18 rings
6 19 21 22 23 24 25 rings

> <PUBCHEM_HEAVY_ATOM_COUNT>
26

> <PUBCHEM_ATOM_DEF_STEREO_COUNT>
0

> <PUBCHEM_ATOM_UDEF_STEREO_COUNT>
0

> <PUBCHEM_BOND_DEF_STEREO_COUNT>
1

> <PUBCHEM_BOND_UDEF_STEREO_COUNT>
0

> <PUBCHEM_ISOTOPIC_ATOM_COUNT>
0

> <PUBCHEM_COMPONENT_COUNT>
1

> <PUBCHEM_CACTVS_TAUTO_COUNT>
4

> <PUBCHEM_CONFORMER_ID>
005FCF8A00000001

> <PUBCHEM_MMFF94_ENERGY>
72.5048

> <PUBCHEM_FEATURE_SELFOVERLAP>
40.596

> <PUBCHEM_SHAPE_FINGERPRINT>
10 15 11240001174515352375
11497681 19 18262524668439199950
12166972 35 18040158430960463476
12403259 118 12391505425634673505
12760667 363 18413109459292170051
13673619 4 18060419106198391656
13690498 29 18113334220045089141
13782708 43 17988640745243301682
13862211 1 18413670218501222170
14123256 34 18413392042317812258
14251764 30 18410856568293294130
14849402 71 15051152615403166010
14931854 50 17748820808957605915
15183329 4 16298099882712738910
15510800 12 18272374169997469287
15519825 34 15122927608903331079
16992610 120 17604138231081599319
1813 80 18201449107391042029
193927 3 18342746260313216145
2026 5 18411132537587064299
20281389 69 9871752403192872593
21033650 10 16732977584123817909
21267235 1 18410295830685588067
21307412 95 18041835247140619243
21585483 132 17679573438678251450
21682296 61 18413671331441103427
23522609 53 18053418549397242177
23559900 14 17897434215905501857
270888 7 8935002559644721520
2748736 6 8790884060349982250
2838139 119 13551186693168719942
3004659 81 17894911849693331706
312425 54 15410905054209357039
3627633 1 18339924805586209512
3918712 181 8862399591188198431
4340502 62 14476962290085973102
439807 62 18334863831204237575
465052 167 18131914854310850484
5104073 3 15697455311984843634
543368 44 11530474528960977011
5470011 282 17821734944344736774
5718773 13 18339921520499905314
59682541 52 14779536864900560858
636775 8 18342469102163890182
7808743 9 9439394718625851680
7970288 3 18411417327866505907
9689198 14 11239995681452829222
999808 66 18343867714259046431

> <PUBCHEM_SHAPE_MULTIPOLES>
510.26
20.65
3
1.62
12.62
0.78
-0.84
-21.69
-3.07
-0.4
0.59
-0.71
-0.32
1.1

> <PUBCHEM_SHAPE_SELFOVERLAP>
1072.731

> <PUBCHEM_SHAPE_VOLUME>
286.1

> <PUBCHEM_COORDINATE_TYPE>
2
5
10

$$$$
