3751995
  -OEChem-01171810003D

 61 64  0     1  0  0  0  0  0999 V2000
    5.6418    1.0429   -0.8204 O   0  0  0  0  0  0  0  0  0  0  0  0
    1.0826    2.3449    0.0503 O   0  0  0  0  0  0  0  0  0  0  0  0
   -1.0606    2.9533    0.4830 O   0  0  0  0  0  0  0  0  0  0  0  0
   -4.5918    0.0087    2.1509 O   0  0  0  0  0  0  0  0  0  0  0  0
   -6.0145   -2.5047   -1.5782 O   0  0  0  0  0  0  0  0  0  0  0  0
   -8.0749   -2.5284   -0.6479 O   0  0  0  0  0  0  0  0  0  0  0  0
   -5.0878   -0.6075   -0.0322 N   0  0  0  0  0  0  0  0  0  0  0  0
    5.4446   -1.0877   -0.0913 C   0  0  0  0  0  0  0  0  0  0  0  0
    5.9170   -2.4612    0.2263 C   0  0  0  0  0  0  0  0  0  0  0  0
    6.2820   -0.1323   -0.6215 C   0  0  0  0  0  0  0  0  0  0  0  0
    7.2601   -2.7555   -0.4775 C   0  0  0  0  0  0  0  0  0  0  0  0
    7.7040   -0.2812   -0.9957 C   0  0  0  0  0  0  0  0  0  0  0  0
    8.2547   -1.5791   -0.3696 C   0  0  0  0  0  0  0  0  0  0  0  0
    4.1833   -0.4575    0.0606 C   0  0  0  0  0  0  0  0  0  0  0  0
    4.3565    0.8459   -0.4005 C   0  0  0  0  0  0  0  0  0  0  0  0
    3.3453    1.7988   -0.4184 C   0  0  0  0  0  0  0  0  0  0  0  0
    2.9118   -0.8397    0.5381 C   0  0  0  0  0  0  0  0  0  0  0  0
    1.8469    0.0851    0.5371 C   0  0  0  0  0  0  0  0  0  0  0  0
    2.1003    1.3724    0.0644 C   0  0  0  0  0  0  0  0  0  0  0  0
    0.4871   -0.2430    1.0207 C   0  0  0  0  0  0  0  0  0  0  0  0
   -0.4658    0.7133    1.0326 C   0  0  0  0  0  0  0  0  0  0  0  0
    3.5595    3.1863   -0.9194 C   0  0  0  0  0  0  0  0  0  0  0  0
   -1.8662    0.5284    1.5595 C   0  0  0  0  0  0  0  0  0  0  0  0
   -0.1949    2.0840    0.5137 C   0  0  0  0  0  0  0  0  0  0  0  0
    0.2441   -1.6650    1.4643 C   0  0  0  0  0  0  0  0  0  0  0  0
   -2.8312    0.0483    0.4853 C   0  0  0  0  0  0  0  0  0  0  0  0
   -6.4855   -0.9037    0.1810 C   0  0  1  0  0  0  0  0  0  0  0  0
   -4.2510   -0.1711    0.9851 C   0  0  0  0  0  0  0  0  0  0  0  0
   -7.3575    0.3337   -0.0611 C   0  0  0  0  0  0  0  0  0  0  0  0
   -7.2756    0.8358   -1.5054 C   0  0  0  0  0  0  0  0  0  0  0  0
   -6.9467   -2.0505   -0.7063 C   0  0  0  0  0  0  0  0  0  0  0  0
   -8.1177    2.0862   -1.7072 C   0  0  0  0  0  0  0  0  0  0  0  0
    6.0502   -2.5477    1.3114 H   0  0  0  0  0  0  0  0  0  0  0  0
    5.1729   -3.2063   -0.0757 H   0  0  0  0  0  0  0  0  0  0  0  0
    7.0753   -2.9641   -1.5393 H   0  0  0  0  0  0  0  0  0  0  0  0
    7.7050   -3.6598   -0.0470 H   0  0  0  0  0  0  0  0  0  0  0  0
    8.2935    0.5777   -0.6589 H   0  0  0  0  0  0  0  0  0  0  0  0
    7.7844   -0.3374   -2.0873 H   0  0  0  0  0  0  0  0  0  0  0  0
    9.2016   -1.8440   -0.8536 H   0  0  0  0  0  0  0  0  0  0  0  0
    8.4767   -1.4040    0.6912 H   0  0  0  0  0  0  0  0  0  0  0  0
    2.7844   -1.8551    0.9010 H   0  0  0  0  0  0  0  0  0  0  0  0
    4.5883    3.3444   -1.2584 H   0  0  0  0  0  0  0  0  0  0  0  0
    2.8973    3.3914   -1.7669 H   0  0  0  0  0  0  0  0  0  0  0  0
    3.3581    3.9130   -0.1255 H   0  0  0  0  0  0  0  0  0  0  0  0
   -2.2386    1.4610    2.0033 H   0  0  0  0  0  0  0  0  0  0  0  0
   -1.8693   -0.1714    2.4043 H   0  0  0  0  0  0  0  0  0  0  0  0
    0.8403   -1.8979    2.3532 H   0  0  0  0  0  0  0  0  0  0  0  0
   -0.7985   -1.8737    1.7150 H   0  0  0  0  0  0  0  0  0  0  0  0
    0.5046   -2.3689    0.6657 H   0  0  0  0  0  0  0  0  0  0  0  0
   -2.8761    0.7794   -0.3321 H   0  0  0  0  0  0  0  0  0  0  0  0
   -2.4804   -0.8990    0.0568 H   0  0  0  0  0  0  0  0  0  0  0  0
   -6.6043   -1.2388    1.2184 H   0  0  0  0  0  0  0  0  0  0  0  0
   -7.0471    1.1365    0.6196 H   0  0  0  0  0  0  0  0  0  0  0  0
   -8.4023    0.0992    0.1787 H   0  0  0  0  0  0  0  0  0  0  0  0
   -4.7106   -0.7182   -0.9694 H   0  0  0  0  0  0  0  0  0  0  0  0
   -6.2387    1.0692   -1.7722 H   0  0  0  0  0  0  0  0  0  0  0  0
   -7.6247    0.0653   -2.2016 H   0  0  0  0  0  0  0  0  0  0  0  0
   -7.7757    2.8985   -1.0579 H   0  0  0  0  0  0  0  0  0  0  0  0
   -9.1715    1.8891   -1.4861 H   0  0  0  0  0  0  0  0  0  0  0  0
   -8.0465    2.4280   -2.7446 H   0  0  0  0  0  0  0  0  0  0  0  0
   -6.3567   -3.2391   -2.1312 H   0  0  0  0  0  0  0  0  0  0  0  0
  1 10  1  0  0  0  0
  1 15  1  0  0  0  0
  2 19  1  0  0  0  0
  2 24  1  0  0  0  0
  3 24  2  0  0  0  0
  4 28  2  0  0  0  0
  5 31  1  0  0  0  0
  5 61  1  0  0  0  0
  6 31  2  0  0  0  0
  7 27  1  0  0  0  0
  7 28  1  0  0  0  0
  7 55  1  0  0  0  0
  8  9  1  0  0  0  0
  8 10  2  0  0  0  0
  8 14  1  0  0  0  0
  9 11  1  0  0  0  0
  9 33  1  0  0  0  0
  9 34  1  0  0  0  0
 10 12  1  0  0  0  0
 11 13  1  0  0  0  0
 11 35  1  0  0  0  0
 11 36  1  0  0  0  0
 12 13  1  0  0  0  0
 12 37  1  0  0  0  0
 12 38  1  0  0  0  0
 13 39  1  0  0  0  0
 13 40  1  0  0  0  0
 14 15  2  0  0  0  0
 14 17  1  0  0  0  0
 15 16  1  0  0  0  0
 16 19  2  0  0  0  0
 16 22  1  0  0  0  0
 17 18  2  0  0  0  0
 17 41  1  0  0  0  0
 18 19  1  0  0  0  0
 18 20  1  0  0  0  0
 20 21  2  0  0  0  0
 20 25  1  0  0  0  0
 21 23  1  0  0  0  0
 21 24  1  0  0  0  0
 22 42  1  0  0  0  0
 22 43  1  0  0  0  0
 22 44  1  0  0  0  0
 23 26  1  0  0  0  0
 23 45  1  0  0  0  0
 23 46  1  0  0  0  0
 25 47  1  0  0  0  0
 25 48  1  0  0  0  0
 25 49  1  0  0  0  0
 26 28  1  0  0  0  0
 26 50  1  0  0  0  0
 26 51  1  0  0  0  0
 27 29  1  0  0  0  0
 27 31  1  0  0  0  0
 27 52  1  0  0  0  0
 29 30  1  0  0  0  0
 29 53  1  0  0  0  0
 29 54  1  0  0  0  0
 30 32  1  0  0  0  0
 30 56  1  0  0  0  0
 30 57  1  0  0  0  0
 32 58  1  0  0  0  0
 32 59  1  0  0  0  0
 32 60  1  0  0  0  0
M  END
> <PUBCHEM_COMPOUND_CID>
3751995

> <PUBCHEM_CONFORMER_RMSD>
1

> <PUBCHEM_CONFORMER_DIVERSEORDER>
2
65
90
57
15
12
112
60
38
105
111
117
37
41
69
82
91
67
109
52
21
10
61
101
66
71
53
16
104
18
68
43
107
34
46
93
99
86
31
33
92
44
72
29
64
113
89
110
106
87
48
13
79
88
6
40
59
5
32
28
83
45
74
51
35
19
85
49
4
84
11
77
63
36
26
75
7
114
102
39
23
30
1
50
116
80
100
17
78
95
27
9
97
62
8
115
76
56
22
14
81
58
25
103
73
47
20
98
24
96
55
54
42
3
70
94
108

> <PUBCHEM_MMFF94_PARTIAL_CHARGES>
29
1 -0.28
10 -0.04
12 0.18
15 0.14
16 -0.14
17 -0.15
18 0.03
19 0.08
2 -0.23
20 -0.17
21 -0.12
22 0.14
23 0.14
24 0.71
25 0.14
26 0.06
27 0.36
28 0.57
3 -0.57
31 0.66
4 -0.57
41 0.15
5 -0.65
55 0.37
6 -0.57
61 0.5
7 -0.73
8 -0.18
9 0.18

> <PUBCHEM_EFFECTIVE_ROTOR_COUNT>
8.8

> <PUBCHEM_PHARMACOPHORE_FEATURES>
12
1 1 acceptor
1 3 acceptor
1 32 hydrophobe
1 4 acceptor
1 5 acceptor
1 6 acceptor
1 7 donor
3 5 6 31 anion
5 1 8 10 14 15 rings
6 14 15 16 17 18 19 rings
6 2 18 19 20 21 24 rings
6 8 9 10 11 12 13 rings

> <PUBCHEM_HEAVY_ATOM_COUNT>
32

> <PUBCHEM_ATOM_DEF_STEREO_COUNT>
0

> <PUBCHEM_ATOM_UDEF_STEREO_COUNT>
1

> <PUBCHEM_BOND_DEF_STEREO_COUNT>
0

> <PUBCHEM_BOND_UDEF_STEREO_COUNT>
0

> <PUBCHEM_ISOTOPIC_ATOM_COUNT>
0

> <PUBCHEM_COMPONENT_COUNT>
1

> <PUBCHEM_CACTVS_TAUTO_COUNT>
2

> <PUBCHEM_CONFORMER_ID>
0039403B00000002

> <PUBCHEM_MMFF94_ENERGY>
62.9622

> <PUBCHEM_FEATURE_SELFOVERLAP>
61.18

> <PUBCHEM_SHAPE_FINGERPRINT>
10 15 11455884754573756224
106641 1 11167932563585720677
10693767 8 18411416232723633538
11135926 11 18059860537475881503
11386260 185 17749672999325817876
11408170 132 18040440979953785852
12082328 90 18113619006758349183
12539765 74 12540695903586666336
13811026 1 18335140912413366184
14068700 675 18201725041717484152
14340393 91 18408881815904758913
14931854 50 17967816024471366762
15064981 113 18057868171093578373
15064986 266 18113901581626522211
15183329 4 18113900442040754241
15198563 99 17458911422984783324
15320294 125 17489867172363705207
16126227 98 8502362330585522441
18603816 31 16773500132773795949
19301676 85 18334583416958895058
20028762 73 18272655623710651526
20105231 36 18262523706493438187
21130935 74 17916310429810232650
21267235 1 18263099751516320666
21521239 73 18409167735729087178
21781055 127 11097851918353161500
221357 26 18186522094735376996
22224240 67 11600003236858068132
22956985 138 16985494645752711150
23522609 53 17912682164864301385
23559900 14 18261684778619771952
23576562 1 17532659129824755967
249057 25 18130523984317255608
3004659 81 18334573563944032761
335352 9 18261965120014889622
3383291 50 15841551899158799567
3633792 109 17821734918770027036
3711267 37 13118005487156506910
397830 11 10807939275830165777
4098825 35 18186796955488598557
4169191 19 8790612477052330051
4353968 344 18265616486055447606
4403749 210 10087641486555400857
474113 269 17676759861505099530
4756088 132 17327459125849209514
54039377 194 18343022190033668814
5718773 13 18342740702335345738
5758199 1 9079115548860871592
59682541 35 11455882564013860886
96874 4 18201718465832396631
9689198 14 11530481116728451395
9953998 17 11887954359538372511

> <PUBCHEM_SHAPE_MULTIPOLES>
618.35
26.73
3.01
1.38
22.23
0.52
-0.11
-13.88
13.8
-0.36
0.84
2.08
0
-0.29

> <PUBCHEM_SHAPE_SELFOVERLAP>
1329.506

> <PUBCHEM_SHAPE_VOLUME>
341.8

> <PUBCHEM_COORDINATE_TYPE>
2
5
10

$$$$
