1489036
  -OEChem-01171809273D

 38 40  0     0  0  0  0  0  0999 V2000
   -0.4255    0.7115   -1.7394 S   0  0  0  0  0  0  0  0  0  0  0  0
    2.1902    0.8913   -1.4582 O   0  0  0  0  0  0  0  0  0  0  0  0
   -3.4946    2.0356   -1.0049 O   0  0  0  0  0  0  0  0  0  0  0  0
   -1.1957    2.0333    1.8265 N   0  0  0  0  0  0  0  0  0  0  0  0
    2.6135    2.2259    2.0525 N   0  0  0  0  0  0  0  0  0  0  0  0
   -1.3570    1.1854   -0.4123 C   0  0  0  0  0  0  0  0  0  0  0  0
   -0.6565    1.6079    0.6572 C   0  0  0  0  0  0  0  0  0  0  0  0
    1.0074    1.0770   -0.8762 C   0  0  0  0  0  0  0  0  0  0  0  0
    0.7419    1.5470    0.3911 C   0  0  0  0  0  0  0  0  0  0  0  0
   -2.8257    1.0902   -0.5546 C   0  0  0  0  0  0  0  0  0  0  0  0
   -3.5394   -0.1228   -0.1885 C   0  0  0  0  0  0  0  0  0  0  0  0
    3.0976    0.0031   -0.8713 C   0  0  0  0  0  0  0  0  0  0  0  0
    3.5422   -2.1032    0.1511 C   0  0  0  0  0  0  0  0  0  0  0  0
    2.6370   -1.2175   -0.4336 C   0  0  0  0  0  0  0  0  0  0  0  0
    4.4145    0.3865   -0.7563 C   0  0  0  0  0  0  0  0  0  0  0  0
   -2.8402   -1.2165    0.3220 C   0  0  0  0  0  0  0  0  0  0  0  0
   -4.9233   -0.1927   -0.3482 C   0  0  0  0  0  0  0  0  0  0  0  0
    4.8837   -1.7439    0.2820 C   0  0  0  0  0  0  0  0  0  0  0  0
    5.3199   -0.4992   -0.1716 C   0  0  0  0  0  0  0  0  0  0  0  0
    3.0763   -3.4341    0.6360 C   0  0  0  0  0  0  0  0  0  0  0  0
   -3.5248   -2.3802    0.6728 C   0  0  0  0  0  0  0  0  0  0  0  0
   -5.6080   -1.3562    0.0026 C   0  0  0  0  0  0  0  0  0  0  0  0
   -4.9087   -2.4499    0.5131 C   0  0  0  0  0  0  0  0  0  0  0  0
    1.7751    1.9218    1.3081 C   0  0  0  0  0  0  0  0  0  0  0  0
    1.5992   -1.5158   -0.5471 H   0  0  0  0  0  0  0  0  0  0  0  0
    4.7523    1.3556   -1.1092 H   0  0  0  0  0  0  0  0  0  0  0  0
    5.5993   -2.4255    0.7341 H   0  0  0  0  0  0  0  0  0  0  0  0
   -1.7646   -1.2094    0.4684 H   0  0  0  0  0  0  0  0  0  0  0  0
   -5.4954    0.6425   -0.7432 H   0  0  0  0  0  0  0  0  0  0  0  0
    6.3643   -0.2193   -0.0699 H   0  0  0  0  0  0  0  0  0  0  0  0
   -2.1979    2.0646    1.9884 H   0  0  0  0  0  0  0  0  0  0  0  0
   -0.6308    2.3444    2.6112 H   0  0  0  0  0  0  0  0  0  0  0  0
    3.1060   -4.1628   -0.1801 H   0  0  0  0  0  0  0  0  0  0  0  0
    3.7042   -3.8008    1.4552 H   0  0  0  0  0  0  0  0  0  0  0  0
    2.0519   -3.3762    1.0195 H   0  0  0  0  0  0  0  0  0  0  0  0
   -2.9810   -3.2317    1.0713 H   0  0  0  0  0  0  0  0  0  0  0  0
   -6.6856   -1.4111   -0.1215 H   0  0  0  0  0  0  0  0  0  0  0  0
   -5.4419   -3.3558    0.7864 H   0  0  0  0  0  0  0  0  0  0  0  0
  1  6  1  0  0  0  0
  1  8  1  0  0  0  0
  2  8  1  0  0  0  0
  2 12  1  0  0  0  0
  3 10  2  0  0  0  0
  4  7  1  0  0  0  0
  4 31  1  0  0  0  0
  4 32  1  0  0  0  0
  5 24  3  0  0  0  0
  6  7  2  0  0  0  0
  6 10  1  0  0  0  0
  7  9  1  0  0  0  0
  8  9  2  0  0  0  0
  9 24  1  0  0  0  0
 10 11  1  0  0  0  0
 11 16  2  0  0  0  0
 11 17  1  0  0  0  0
 12 14  1  0  0  0  0
 12 15  2  0  0  0  0
 13 14  2  0  0  0  0
 13 18  1  0  0  0  0
 13 20  1  0  0  0  0
 14 25  1  0  0  0  0
 15 19  1  0  0  0  0
 15 26  1  0  0  0  0
 16 21  1  0  0  0  0
 16 28  1  0  0  0  0
 17 22  2  0  0  0  0
 17 29  1  0  0  0  0
 18 19  2  0  0  0  0
 18 27  1  0  0  0  0
 19 30  1  0  0  0  0
 20 33  1  0  0  0  0
 20 34  1  0  0  0  0
 20 35  1  0  0  0  0
 21 23  2  0  0  0  0
 21 36  1  0  0  0  0
 22 23  1  0  0  0  0
 22 37  1  0  0  0  0
 23 38  1  0  0  0  0
M  END
> <PUBCHEM_COMPOUND_CID>
1489036

> <PUBCHEM_CONFORMER_RMSD>
0.8

> <PUBCHEM_CONFORMER_DIVERSEORDER>
1
16
26
19
14
24
3
22
13
5
12
23
20
2
15
25
6
4
11
21
18
17
8
7
10
9

> <PUBCHEM_MMFF94_PARTIAL_CHARGES>
35
1 -0.08
10 0.57
11 0.09
12 0.08
13 -0.14
14 -0.15
15 -0.15
16 -0.15
17 -0.15
18 -0.15
19 -0.15
2 -0.15
20 0.14
21 -0.15
22 -0.15
23 -0.15
24 0.54
25 0.15
26 0.15
27 0.15
28 0.15
29 0.15
3 -0.57
30 0.15
31 0.4
32 0.4
36 0.15
37 0.15
38 0.15
4 -0.88
5 -0.56
6 -0.05
7 0.08
8 0.1
9 0.02

> <PUBCHEM_EFFECTIVE_ROTOR_COUNT>
4

> <PUBCHEM_PHARMACOPHORE_FEATURES>
8
1 2 acceptor
1 3 acceptor
1 4 cation
1 4 donor
1 5 acceptor
5 1 6 7 8 9 rings
6 11 16 17 21 22 23 rings
6 12 13 14 15 18 19 rings

> <PUBCHEM_HEAVY_ATOM_COUNT>
24

> <PUBCHEM_ATOM_DEF_STEREO_COUNT>
0

> <PUBCHEM_ATOM_UDEF_STEREO_COUNT>
0

> <PUBCHEM_BOND_DEF_STEREO_COUNT>
0

> <PUBCHEM_BOND_UDEF_STEREO_COUNT>
0

> <PUBCHEM_ISOTOPIC_ATOM_COUNT>
0

> <PUBCHEM_COMPONENT_COUNT>
1

> <PUBCHEM_CACTVS_TAUTO_COUNT>
3

> <PUBCHEM_CONFORMER_ID>
0016B88C00000001

> <PUBCHEM_MMFF94_ENERGY>
71.9443

> <PUBCHEM_FEATURE_SELFOVERLAP>
40.597

> <PUBCHEM_SHAPE_FINGERPRINT>
10074138 170 17483393019902765552
11135609 12 17605011371482797723
11796584 16 18336544898103505686
12506688 2 18411983533520688302
12553582 1 17632573834088254812
12596602 18 17346601919028531659
12633257 1 17489315243170082415
12644460 14 17131552863837176792
12788726 201 17988937642703800057
12824470 246 18339085895334945720
13103583 49 17917167056151264827
13140716 1 17202753942437662836
13383661 66 17909871835051207990
13402501 40 18408044034766729275
13544653 18 18408330985868362135
13583140 156 18272076210630366821
13631057 29 18410579491758701062
14251751 18 18334574654834174555
14910302 57 18260535728459285069
15163728 17 10447641465553498424
15352361 1 18334579044459783631
15475509 35 18341049709202180723
17857418 61 18408041818895498311
17909252 39 18410858788749552683
19141452 34 18042126449236625789
20403669 9 18411989065655259399
20626108 58 18040426664753245938
20775530 9 18262797346188991826
21033648 29 15194998267830716362
21756936 100 10303228215590351404
23559900 14 18335134340939810565
3004659 81 18040152915995757582
316301 35 18338232785907361163
329604 57 18409171017300229298
33382 64 18334583455459346067
376196 1 15188841948173141433
392239 28 17844503648692393098
437795 51 18059014029507658152
439807 62 18041284348343080843
46194498 28 16950567747967466511
463206 1 18266463289939350587
5104073 3 18131351899282156624
633830 44 15430615951894901076
6433294 58 18408886243530679210
6823239 73 18339349842465615722
7495541 125 18271807955779043380

> <PUBCHEM_SHAPE_MULTIPOLES>
476.06
11.7
3.18
1.39
3.44
1.72
0.26
8.19
-0.3
-0.34
1.2
-0.5
-0.96
0.74

> <PUBCHEM_SHAPE_SELFOVERLAP>
1036.354

> <PUBCHEM_SHAPE_VOLUME>
260.3

> <PUBCHEM_COORDINATE_TYPE>
2
5
10

$$$$
