9583715
  -OEChem-01171809553D

 44 46  0     0  0  0  0  0  0999 V2000
   -1.5667    0.9694   -0.0676 O   0  0  0  0  0  0  0  0  0  0  0  0
   -6.0515   -0.1218    0.0166 N   0  0  0  0  0  0  0  0  0  0  0  0
   -0.3012    0.3689   -0.0218 N   0  0  0  0  0  0  0  0  0  0  0  0
    0.4264    2.6306   -0.1956 N   0  0  0  0  0  0  0  0  0  0  0  0
   -6.0236    1.2200   -0.0865 N   0  0  0  0  0  0  0  0  0  0  0  0
   -4.5295   -1.9993    0.1605 N   0  0  0  0  0  0  0  0  0  0  0  0
   -2.1998   -1.2783    0.1046 N   0  0  0  0  0  0  0  0  0  0  0  0
    6.0909   -0.6390    0.0364 C   0  0  0  0  0  0  0  0  0  0  0  0
    4.6402   -0.1301    0.0020 C   0  0  0  0  0  0  0  0  0  0  0  0
    6.5773   -0.9190   -1.4020 C   0  0  0  0  0  0  0  0  0  0  0  0
    6.1649   -1.9428    0.8602 C   0  0  0  0  0  0  0  0  0  0  0  0
    7.0881    0.3577    0.6693 C   0  0  0  0  0  0  0  0  0  0  0  0
    3.6773   -0.9437   -0.5407 C   0  0  0  0  0  0  0  0  0  0  0  0
    4.3739    1.1141    0.5165 C   0  0  0  0  0  0  0  0  0  0  0  0
    2.3612   -0.4826   -0.5712 C   0  0  0  0  0  0  0  0  0  0  0  0
    3.0577    1.5751    0.4859 C   0  0  0  0  0  0  0  0  0  0  0  0
    2.0515    0.7767   -0.0579 C   0  0  0  0  0  0  0  0  0  0  0  0
    0.6793    1.2577   -0.0899 C   0  0  0  0  0  0  0  0  0  0  0  0
   -3.9098    0.3537   -0.0200 C   0  0  0  0  0  0  0  0  0  0  0  0
   -4.8136   -0.6910    0.0602 C   0  0  0  0  0  0  0  0  0  0  0  0
   -2.5610    0.0220    0.0051 C   0  0  0  0  0  0  0  0  0  0  0  0
   -4.7166    1.5035   -0.1081 C   0  0  0  0  0  0  0  0  0  0  0  0
   -7.3220   -0.8056    0.0689 C   0  0  0  0  0  0  0  0  0  0  0  0
   -3.1934   -2.1960    0.1752 C   0  0  0  0  0  0  0  0  0  0  0  0
    7.6248   -1.2424   -1.4081 H   0  0  0  0  0  0  0  0  0  0  0  0
    5.9985   -1.7089   -1.8930 H   0  0  0  0  0  0  0  0  0  0  0  0
    6.5031   -0.0202   -2.0257 H   0  0  0  0  0  0  0  0  0  0  0  0
    5.5779   -2.7532    0.4144 H   0  0  0  0  0  0  0  0  0  0  0  0
    7.1976   -2.3033    0.9361 H   0  0  0  0  0  0  0  0  0  0  0  0
    5.7911   -1.7875    1.8794 H   0  0  0  0  0  0  0  0  0  0  0  0
    8.1046   -0.0554    0.6673 H   0  0  0  0  0  0  0  0  0  0  0  0
    7.1339    1.3016    0.1135 H   0  0  0  0  0  0  0  0  0  0  0  0
    6.8424    0.5761    1.7153 H   0  0  0  0  0  0  0  0  0  0  0  0
    3.8952   -1.9254   -0.9469 H   0  0  0  0  0  0  0  0  0  0  0  0
    5.1137    1.7727    0.9531 H   0  0  0  0  0  0  0  0  0  0  0  0
    1.5971   -1.1205   -1.0079 H   0  0  0  0  0  0  0  0  0  0  0  0
    2.8443    2.5528    0.9091 H   0  0  0  0  0  0  0  0  0  0  0  0
   -4.4109    2.5371   -0.1875 H   0  0  0  0  0  0  0  0  0  0  0  0
   -7.8712   -0.4413    0.9408 H   0  0  0  0  0  0  0  0  0  0  0  0
   -7.8696   -0.5810   -0.8500 H   0  0  0  0  0  0  0  0  0  0  0  0
   -7.1650   -1.8831    0.1531 H   0  0  0  0  0  0  0  0  0  0  0  0
   -0.5273    2.9758   -0.2173 H   0  0  0  0  0  0  0  0  0  0  0  0
    1.1668    3.3153   -0.3023 H   0  0  0  0  0  0  0  0  0  0  0  0
   -2.8712   -3.2287    0.2543 H   0  0  0  0  0  0  0  0  0  0  0  0
  1  3  1  0  0  0  0
  1 21  1  0  0  0  0
  2  5  1  0  0  0  0
  2 20  1  0  0  0  0
  2 23  1  0  0  0  0
  3 18  2  0  0  0  0
  4 18  1  0  0  0  0
  4 42  1  0  0  0  0
  4 43  1  0  0  0  0
  5 22  2  0  0  0  0
  6 20  1  0  0  0  0
  6 24  2  0  0  0  0
  7 21  2  0  0  0  0
  7 24  1  0  0  0  0
  8  9  1  0  0  0  0
  8 10  1  0  0  0  0
  8 11  1  0  0  0  0
  8 12  1  0  0  0  0
  9 13  2  0  0  0  0
  9 14  1  0  0  0  0
 10 25  1  0  0  0  0
 10 26  1  0  0  0  0
 10 27  1  0  0  0  0
 11 28  1  0  0  0  0
 11 29  1  0  0  0  0
 11 30  1  0  0  0  0
 12 31  1  0  0  0  0
 12 32  1  0  0  0  0
 12 33  1  0  0  0  0
 13 15  1  0  0  0  0
 13 34  1  0  0  0  0
 14 16  2  0  0  0  0
 14 35  1  0  0  0  0
 15 17  2  0  0  0  0
 15 36  1  0  0  0  0
 16 17  1  0  0  0  0
 16 37  1  0  0  0  0
 17 18  1  0  0  0  0
 19 20  2  0  0  0  0
 19 21  1  0  0  0  0
 19 22  1  0  0  0  0
 22 38  1  0  0  0  0
 23 39  1  0  0  0  0
 23 40  1  0  0  0  0
 23 41  1  0  0  0  0
 24 44  1  0  0  0  0
M  END
> <PUBCHEM_COMPOUND_CID>
9583715

> <PUBCHEM_CONFORMER_RMSD>
0.8

> <PUBCHEM_CONFORMER_DIVERSEORDER>
1
9
15
19
17
16
20
14
2
4
10
18
11
12
8
13
5
6
7
3

> <PUBCHEM_MMFF94_PARTIAL_CHARGES>
28
1 -0.02
13 -0.15
14 -0.15
15 -0.15
16 -0.15
17 0.09
18 0.41
2 0.31
20 0.11
21 0.39
22 0.14
23 0.26
24 0.47
3 -0.51
34 0.15
35 0.15
36 0.15
37 0.15
38 0.15
4 -0.85
42 0.4
43 0.4
44 0.15
5 -0.71
6 -0.57
7 -0.62
8 0.14
9 -0.14

> <PUBCHEM_EFFECTIVE_ROTOR_COUNT>
4

> <PUBCHEM_PHARMACOPHORE_FEATURES>
8
1 4 donor
1 5 acceptor
3 3 4 18 cation
3 6 7 24 cation
4 8 10 11 12 hydrophobe
5 2 5 19 20 22 rings
6 6 7 19 20 21 24 rings
6 9 13 14 15 16 17 rings

> <PUBCHEM_HEAVY_ATOM_COUNT>
24

> <PUBCHEM_ATOM_DEF_STEREO_COUNT>
0

> <PUBCHEM_ATOM_UDEF_STEREO_COUNT>
0

> <PUBCHEM_BOND_DEF_STEREO_COUNT>
1

> <PUBCHEM_BOND_UDEF_STEREO_COUNT>
0

> <PUBCHEM_ISOTOPIC_ATOM_COUNT>
0

> <PUBCHEM_COMPONENT_COUNT>
1

> <PUBCHEM_CACTVS_TAUTO_COUNT>
2

> <PUBCHEM_CONFORMER_ID>
00923C6300000001

> <PUBCHEM_MMFF94_ENERGY>
73.8965

> <PUBCHEM_FEATURE_SELFOVERLAP>
40.709

> <PUBCHEM_SHAPE_FINGERPRINT>
10 15 17988351647031736072
10299344 5 18113621170825475134
10835480 77 18342731957518745968
11315181 36 17847063294312785529
11456790 92 17988657315707029361
11524674 6 17561361786009452711
11719270 70 18131350791734611846
11796584 16 18412545418660122714
11963148 33 18411695474940505294
12166972 35 18335423486432972437
12236239 1 17603588508672673012
12516196 113 18202563973378844360
12596602 18 14045731630348634358
12616971 3 17274814787766132460
13402501 40 18412546500648963998
13533116 47 14620522182051204046
13685833 64 18411703187898693979
14251752 14 17822287950963285148
14251764 18 18342459253043860917
14420673 8 18408044004986463547
15183329 4 18408042892241586010
15196674 1 18410856606889711078
15348495 7 18059568156679914218
15537594 2 17531240656165272850
17093844 174 18335135397691390113
17492 89 17975135650062162395
17844677 252 18410580599612804657
17857418 61 18411136926926498562
20374829 77 18408603656314934368
21267235 1 18334581269953943201
21623969 137 17847064372127946462
22224240 67 16917060067198107838
23035841 295 18260829289009502464
23198884 109 15285360604668050621
23522609 53 18044967634881536132
23559900 14 18341888640631874849
239999 70 18343305873308968830
26918003 58 18202001031798956400
3004659 81 18260550030726643844
335352 9 18409166615385934789
3383291 50 18335987558164214355
3545911 37 18411982459931734571
4073 2 18114747165353500098
4214541 1 18411138048039751625
4325135 7 18259989284613704700
4340502 62 14620795994553375772
465052 167 18343022182092177718
5104073 3 18270965746956987449
559249 180 18409164407635600659
59682541 52 13479406125249332704
59755656 215 18409451349810631006
59755656 520 16950001443829424043
6138700 20 18336265660968702091
999808 66 17677063412338917771

> <PUBCHEM_SHAPE_MULTIPOLES>
458.15
20.75
2.03
0.79
1.91
0.01
0.08
-6.01
-0.74
0.46
-0.15
-1.1
-0.13
0.52

> <PUBCHEM_SHAPE_SELFOVERLAP>
991.827

> <PUBCHEM_SHAPE_VOLUME>
252.4

> <PUBCHEM_COORDINATE_TYPE>
2
5
10

$$$$
