667201
  -OEChem-01171809163D

 40 42  0     0  0  0  0  0  0999 V2000
   -2.8231    1.4916    0.5400 O   0  0  0  0  0  0  0  0  0  0  0  0
    1.0793   -1.2477    0.8034 O   0  0  0  0  0  0  0  0  0  0  0  0
    3.6512    0.0524   -0.5040 O   0  0  0  0  0  0  0  0  0  0  0  0
   -4.6508    2.8351    0.4555 O   0  0  0  0  0  0  0  0  0  0  0  0
    6.8493    1.6481   -0.2073 O   0  0  0  0  0  0  0  0  0  0  0  0
    4.9707    2.4317   -1.2190 O   0  0  0  0  0  0  0  0  0  0  0  0
   -2.9704   -0.8268   -0.1829 C   0  0  0  0  0  0  0  0  0  0  0  0
   -2.2327    0.2361    0.3299 C   0  0  0  0  0  0  0  0  0  0  0  0
   -4.3957   -0.6154   -0.5100 C   0  0  0  0  0  0  0  0  0  0  0  0
   -0.8810    0.1216    0.6650 C   0  0  0  0  0  0  0  0  0  0  0  0
   -0.2367   -1.0972    0.4884 C   0  0  0  0  0  0  0  0  0  0  0  0
   -4.9597    0.5877   -0.2710 C   0  0  0  0  0  0  0  0  0  0  0  0
   -2.3007   -2.0495   -0.3471 C   0  0  0  0  0  0  0  0  0  0  0  0
   -0.9467   -2.1830   -0.0161 C   0  0  0  0  0  0  0  0  0  0  0  0
   -5.1361   -1.7811   -1.1173 C   0  0  0  0  0  0  0  0  0  0  0  0
   -4.1599    1.7263    0.2662 C   0  0  0  0  0  0  0  0  0  0  0  0
   -0.1302    1.2933    1.2096 C   0  0  0  0  0  0  0  0  0  0  0  0
   -6.4130    0.9187   -0.4976 C   0  0  0  0  0  0  0  0  0  0  0  0
    1.9588   -1.6343   -0.2511 C   0  0  0  0  0  0  0  0  0  0  0  0
    3.3548   -1.1675   -0.0098 C   0  0  0  0  0  0  0  0  0  0  0  0
    4.4179   -1.7353    0.6218 C   0  0  0  0  0  0  0  0  0  0  0  0
    4.9514    0.2773   -0.1787 C   0  0  0  0  0  0  0  0  0  0  0  0
    5.4681   -0.7927    0.5142 C   0  0  0  0  0  0  0  0  0  0  0  0
    5.5351    1.5107   -0.5824 C   0  0  0  0  0  0  0  0  0  0  0  0
   -2.8113   -2.9294   -0.7295 H   0  0  0  0  0  0  0  0  0  0  0  0
   -0.4662   -3.1486   -0.1502 H   0  0  0  0  0  0  0  0  0  0  0  0
   -6.1344   -1.5269   -1.4799 H   0  0  0  0  0  0  0  0  0  0  0  0
   -5.2486   -2.5881   -0.3854 H   0  0  0  0  0  0  0  0  0  0  0  0
   -4.6004   -2.1671   -1.9920 H   0  0  0  0  0  0  0  0  0  0  0  0
    0.8893    1.0459    1.5206 H   0  0  0  0  0  0  0  0  0  0  0  0
   -0.0594    2.0790    0.4500 H   0  0  0  0  0  0  0  0  0  0  0  0
   -0.6404    1.6950    2.0919 H   0  0  0  0  0  0  0  0  0  0  0  0
   -6.5326    1.4666   -1.4377 H   0  0  0  0  0  0  0  0  0  0  0  0
   -6.8037    1.5409    0.3155 H   0  0  0  0  0  0  0  0  0  0  0  0
   -7.0585    0.0379   -0.5227 H   0  0  0  0  0  0  0  0  0  0  0  0
    1.6101   -1.2322   -1.2120 H   0  0  0  0  0  0  0  0  0  0  0  0
    1.9552   -2.7285   -0.3254 H   0  0  0  0  0  0  0  0  0  0  0  0
    4.4488   -2.7024    1.1025 H   0  0  0  0  0  0  0  0  0  0  0  0
    6.4738   -0.8902    0.8980 H   0  0  0  0  0  0  0  0  0  0  0  0
    7.2203    2.5078   -0.5002 H   0  0  0  0  0  0  0  0  0  0  0  0
  1  8  1  0  0  0  0
  1 16  1  0  0  0  0
  2 11  1  0  0  0  0
  2 19  1  0  0  0  0
  3 20  1  0  0  0  0
  3 22  1  0  0  0  0
  4 16  2  0  0  0  0
  5 24  1  0  0  0  0
  5 40  1  0  0  0  0
  6 24  2  0  0  0  0
  7  8  2  0  0  0  0
  7  9  1  0  0  0  0
  7 13  1  0  0  0  0
  8 10  1  0  0  0  0
  9 12  2  0  0  0  0
  9 15  1  0  0  0  0
 10 11  2  0  0  0  0
 10 17  1  0  0  0  0
 11 14  1  0  0  0  0
 12 16  1  0  0  0  0
 12 18  1  0  0  0  0
 13 14  2  0  0  0  0
 13 25  1  0  0  0  0
 14 26  1  0  0  0  0
 15 27  1  0  0  0  0
 15 28  1  0  0  0  0
 15 29  1  0  0  0  0
 17 30  1  0  0  0  0
 17 31  1  0  0  0  0
 17 32  1  0  0  0  0
 18 33  1  0  0  0  0
 18 34  1  0  0  0  0
 18 35  1  0  0  0  0
 19 20  1  0  0  0  0
 19 36  1  0  0  0  0
 19 37  1  0  0  0  0
 20 21  2  0  0  0  0
 21 23  1  0  0  0  0
 21 38  1  0  0  0  0
 22 23  2  0  0  0  0
 22 24  1  0  0  0  0
 23 39  1  0  0  0  0
M  END
> <PUBCHEM_COMPOUND_CID>
667201

> <PUBCHEM_CONFORMER_RMSD>
0.8

> <PUBCHEM_CONFORMER_DIVERSEORDER>
1
46
44
7
23
25
36
6
34
12
11
43
19
21
42
32
4
28
45
39
16
29
15
27
2
3
26
5
8
14
13
37
38
41
33
20
40
24
30
17
22
10
18
47
31
35
9

> <PUBCHEM_MMFF94_PARTIAL_CHARGES>
29
1 -0.23
10 -0.14
11 0.08
12 -0.12
13 -0.15
14 -0.15
15 0.14
16 0.71
17 0.14
18 0.14
19 0.46
2 -0.36
20 -0.04
21 -0.15
22 0.05
23 -0.15
24 0.81
25 0.15
26 0.15
3 -0.28
38 0.15
39 0.15
4 -0.57
40 0.5
5 -0.65
6 -0.57
7 0.03
8 0.08
9 -0.17

> <PUBCHEM_EFFECTIVE_ROTOR_COUNT>
4

> <PUBCHEM_PHARMACOPHORE_FEATURES>
9
1 2 acceptor
1 3 acceptor
1 4 acceptor
1 5 acceptor
1 6 acceptor
3 5 6 24 anion
5 3 20 21 22 23 rings
6 1 7 8 9 12 16 rings
6 7 8 10 11 13 14 rings

> <PUBCHEM_HEAVY_ATOM_COUNT>
24

> <PUBCHEM_ATOM_DEF_STEREO_COUNT>
0

> <PUBCHEM_ATOM_UDEF_STEREO_COUNT>
0

> <PUBCHEM_BOND_DEF_STEREO_COUNT>
0

> <PUBCHEM_BOND_UDEF_STEREO_COUNT>
0

> <PUBCHEM_ISOTOPIC_ATOM_COUNT>
0

> <PUBCHEM_COMPONENT_COUNT>
1

> <PUBCHEM_CACTVS_TAUTO_COUNT>
1

> <PUBCHEM_CONFORMER_ID>
000A2E4100000001

> <PUBCHEM_MMFF94_ENERGY>
68.5288

> <PUBCHEM_FEATURE_SELFOVERLAP>
45.761

> <PUBCHEM_SHAPE_FINGERPRINT>
10411042 1 17908699876352926351
10498660 4 18201447991083984936
10595046 47 18410852165904576758
10906281 52 18059870432742668051
12107183 9 17976535018942216002
12236239 1 18334008384881907738
12596602 18 17821729437990818235
12788726 201 17846505785719126664
12821665 9 18339080501146081429
13167372 99 18408601436154452506
13533116 47 16733537214099064522
13668630 136 14548728530659203549
13690498 29 17844521317803156039
14528608 73 18412265051758178390
14767858 380 18343010125697192839
14790565 3 18339364037728342673
14931854 50 18200327631917848700
15183329 4 18341894090855533440
15196674 1 18411700972054453770
15840311 113 18189623744128475445
17959699 21 18409167701543038610
19427546 20 18339358686320781575
1979834 28 13334728025759093240
20157964 124 18334013870077111322
20511986 3 18336532894134123838
20715895 44 18265895748533481748
21033648 29 15792005654094350991
21298829 104 18334580183175081308
21304253 335 18259992569519777372
21315764 268 18041275461585857468
23402539 116 18271799095066501895
23559900 14 18059001903976231377
245318 6 17605856917315277676
268830 7 18113610171451341794
2838139 119 18187925036663911852
3004659 81 18341329986342075066
3472631 163 18410296904279797054
34797466 226 17489593384998892036
350125 39 18341894087467719745
4073 2 17894918472981834610
4325135 7 18413669101814844230
4340502 62 16950853505269398115
465052 167 9295280668753038298
474 4 17968098659680064666
5104073 3 17821447971820502138
543368 44 18409166627848895093
7237137 82 18272083920644834479

> <PUBCHEM_SHAPE_MULTIPOLES>
458.69
16.37
2.6
0.93
10.63
0.63
-0.01
7.22
-3.86
-0.29
-0.18
0.13
0.12
-1.97

> <PUBCHEM_SHAPE_SELFOVERLAP>
1001.224

> <PUBCHEM_SHAPE_VOLUME>
251

> <PUBCHEM_COORDINATE_TYPE>
2
5
10

$$$$
