4168947
  -OEChem-01171810003D

 37 39  0     1  0  0  0  0  0999 V2000
   -0.0241    3.8122    0.8979 O   0  5  0  0  0  0  0  0  0  0  0  0
   -0.7933    3.1131   -1.0448 O   0  0  0  0  0  0  0  0  0  0  0  0
   -1.5443   -0.9513   -1.6731 N   0  0  0  0  0  0  0  0  0  0  0  0
    0.0406    3.1113   -0.1250 N   0  3  0  0  0  0  0  0  0  0  0  0
    0.9063    0.8365    0.3600 C   0  0  2  0  0  0  0  0  0  0  0  0
   -0.2390    0.1099   -0.2248 C   0  0  0  0  0  0  0  0  0  0  0  0
   -1.4368   -0.2636    0.4465 C   0  0  0  0  0  0  0  0  0  0  0  0
   -2.2384   -0.9279   -0.4843 C   0  0  0  0  0  0  0  0  0  0  0  0
   -0.3350   -0.3265   -1.5262 C   0  0  0  0  0  0  0  0  0  0  0  0
    1.2101    2.2214   -0.2711 C   0  0  0  0  0  0  0  0  0  0  0  0
    2.1039   -0.1159    0.3208 C   0  0  0  0  0  0  0  0  0  0  0  0
   -1.9173   -0.1000    1.7609 C   0  0  0  0  0  0  0  0  0  0  0  0
   -3.5014   -1.4388   -0.1650 C   0  0  0  0  0  0  0  0  0  0  0  0
   -2.0104   -1.5457   -2.9074 C   0  0  0  0  0  0  0  0  0  0  0  0
    2.2292   -1.0573    1.3162 C   0  0  0  0  0  0  0  0  0  0  0  0
    3.0091    0.0064   -0.7079 C   0  0  0  0  0  0  0  0  0  0  0  0
   -3.1792   -0.6055    2.0945 C   0  0  0  0  0  0  0  0  0  0  0  0
   -3.9573   -1.2643    1.1447 C   0  0  0  0  0  0  0  0  0  0  0  0
    3.3205   -1.9252    1.2807 C   0  0  0  0  0  0  0  0  0  0  0  0
    4.1005   -0.8615   -0.7434 C   0  0  0  0  0  0  0  0  0  0  0  0
    4.2563   -1.8274    0.2509 C   0  0  0  0  0  0  0  0  0  0  0  0
    0.7032    1.0365    1.4223 H   0  0  0  0  0  0  0  0  0  0  0  0
    0.3515   -0.2407   -2.3582 H   0  0  0  0  0  0  0  0  0  0  0  0
    2.0604    2.7124    0.2158 H   0  0  0  0  0  0  0  0  0  0  0  0
    1.4054    2.1748   -1.3481 H   0  0  0  0  0  0  0  0  0  0  0  0
   -1.3266    0.4104    2.5159 H   0  0  0  0  0  0  0  0  0  0  0  0
   -4.1122   -1.9527   -0.8997 H   0  0  0  0  0  0  0  0  0  0  0  0
   -2.9351   -1.0439   -3.2039 H   0  0  0  0  0  0  0  0  0  0  0  0
   -1.2539   -1.4175   -3.6859 H   0  0  0  0  0  0  0  0  0  0  0  0
   -2.1850   -2.6104   -2.7330 H   0  0  0  0  0  0  0  0  0  0  0  0
    1.5059   -1.1400    2.1216 H   0  0  0  0  0  0  0  0  0  0  0  0
    2.9168    0.7283   -1.5098 H   0  0  0  0  0  0  0  0  0  0  0  0
   -3.5550   -0.4820    3.1068 H   0  0  0  0  0  0  0  0  0  0  0  0
   -4.9345   -1.6491    1.4255 H   0  0  0  0  0  0  0  0  0  0  0  0
    3.4415   -2.6773    2.0547 H   0  0  0  0  0  0  0  0  0  0  0  0
    4.8270   -0.7888   -1.5476 H   0  0  0  0  0  0  0  0  0  0  0  0
    5.1055   -2.5039    0.2226 H   0  0  0  0  0  0  0  0  0  0  0  0
  1  4  1  0  0  0  0
  2  4  2  0  0  0  0
  3  8  1  0  0  0  0
  3  9  1  0  0  0  0
  3 14  1  0  0  0  0
  4 10  1  0  0  0  0
  5  6  1  0  0  0  0
  5 10  1  0  0  0  0
  5 11  1  0  0  0  0
  5 22  1  0  0  0  0
  6  7  1  0  0  0  0
  6  9  2  0  0  0  0
  7  8  1  0  0  0  0
  7 12  2  0  0  0  0
  8 13  2  0  0  0  0
  9 23  1  0  0  0  0
 10 24  1  0  0  0  0
 10 25  1  0  0  0  0
 11 15  2  0  0  0  0
 11 16  1  0  0  0  0
 12 17  1  0  0  0  0
 12 26  1  0  0  0  0
 13 18  1  0  0  0  0
 13 27  1  0  0  0  0
 14 28  1  0  0  0  0
 14 29  1  0  0  0  0
 14 30  1  0  0  0  0
 15 19  1  0  0  0  0
 15 31  1  0  0  0  0
 16 20  2  0  0  0  0
 16 32  1  0  0  0  0
 17 18  2  0  0  0  0
 17 33  1  0  0  0  0
 18 34  1  0  0  0  0
 19 21  2  0  0  0  0
 19 35  1  0  0  0  0
 20 21  1  0  0  0  0
 20 36  1  0  0  0  0
 21 37  1  0  0  0  0
M  CHG  2   1  -1   4   1
M  END
> <PUBCHEM_COMPOUND_CID>
4168947

> <PUBCHEM_CONFORMER_RMSD>
0.6

> <PUBCHEM_CONFORMER_DIVERSEORDER>
1
34
11
33
27
25
14
28
26
13
32
30
6
23
9
29
24
18
19
21
22
5
8
10
17
16
20
2
15
3
31
7
4
12

> <PUBCHEM_MMFF94_PARTIAL_CHARGES>
30
1 -0.52
10 0.24
11 -0.14
12 -0.15
13 -0.15
14 0.26
15 -0.15
16 -0.15
17 -0.15
18 -0.15
19 -0.15
2 -0.52
20 -0.15
21 -0.15
23 0.15
26 0.15
27 0.15
3 0.05
31 0.15
32 0.15
33 0.15
34 0.15
35 0.15
36 0.15
37 0.15
4 0.8
5 0.32
6 -0.18
8 -0.15
9 -0.3

> <PUBCHEM_EFFECTIVE_ROTOR_COUNT>
4

> <PUBCHEM_PHARMACOPHORE_FEATURES>
7
1 1 acceptor
1 1 anion
1 2 acceptor
1 3 cation
5 3 6 7 8 9 rings
6 11 15 16 19 20 21 rings
6 7 8 12 13 17 18 rings

> <PUBCHEM_HEAVY_ATOM_COUNT>
21

> <PUBCHEM_ATOM_DEF_STEREO_COUNT>
0

> <PUBCHEM_ATOM_UDEF_STEREO_COUNT>
1

> <PUBCHEM_BOND_DEF_STEREO_COUNT>
0

> <PUBCHEM_BOND_UDEF_STEREO_COUNT>
0

> <PUBCHEM_ISOTOPIC_ATOM_COUNT>
0

> <PUBCHEM_COMPONENT_COUNT>
1

> <PUBCHEM_CACTVS_TAUTO_COUNT>
2

> <PUBCHEM_CONFORMER_ID>
003F9CF300000001

> <PUBCHEM_MMFF94_ENERGY>
49.8507

> <PUBCHEM_FEATURE_SELFOVERLAP>
35.691

> <PUBCHEM_SHAPE_FINGERPRINT>
11578080 2 17700944808503981649
11582403 64 14331443970290735809
11640471 11 17483971741186911473
11725454 13 13829293771400935075
12119455 92 11887676130655163002
12403259 327 17902269820435700955
12553582 1 18411695496113914022
12714826 92 18129660769337187010
12788726 201 18046890594417444505
13009979 54 17559959998614437887
13533116 47 18045795743525998091
13911987 19 17751941343891259308
14863182 85 15951645186103449715
15906896 17 17904754488590590244
17349148 13 17489589008854563559
17980427 23 17918004867032370561
1813 80 18271257066267758934
19765921 60 17049366757778717257
200 152 17894915109716310898
20361792 2 18340476833521095070
20602899 9 16698329682907917916
21330990 113 17056995908075429470
21524375 3 11599717359571397650
21731516 1 18411409610099970370
22112679 90 18059580229996662628
2255824 54 18122915484095746360
23526113 38 17313928827223145213
23598288 3 18193559956947739582
23598291 2 18128546035970696119
23728640 28 17692787321405244234
25222932 49 16758900009616311899
266924 78 17832977622341895887
3286 77 18114468975953190419
474 4 17838614818510932784
484985 159 17534901879641572258
5845 1 13084727247428768520
58807428 26 16701477688268858231
621550 5 17313679234179069431
6786 2 17118338593544112065
6992083 37 17917996091812531431
7097593 13 18197223752755787291
7970288 3 18410294700983861666
81228 2 18048291385269373544
90316 7 18272935977188584344

> <PUBCHEM_SHAPE_MULTIPOLES>
410.47
6.71
2.96
2.02
2.51
4.27
-0.78
-5.63
1.55
0.58
0.06
-1.72
-0.93
-0.63

> <PUBCHEM_SHAPE_SELFOVERLAP>
899.812

> <PUBCHEM_SHAPE_VOLUME>
224.1

> <PUBCHEM_COORDINATE_TYPE>
2
5
10

$$$$
