2350847
  -OEChem-01171809373D

 47 49  0     0  0  0  0  0  0999 V2000
   -2.9119    2.0975   -2.5393 Cl  0  0  0  0  0  0  0  0  0  0  0  0
    2.8158   -2.3792    0.2778 O   0  0  0  0  0  0  0  0  0  0  0  0
    1.9498    2.0178    1.9902 O   0  0  0  0  0  0  0  0  0  0  0  0
    1.9188   -0.8984    1.7953 O   0  0  0  0  0  0  0  0  0  0  0  0
    0.5769   -4.0690   -1.0484 O   0  0  0  0  0  0  0  0  0  0  0  0
   -2.6640    3.1884    1.6282 O   0  5  0  0  0  0  0  0  0  0  0  0
   -3.7507    2.9608   -0.2656 O   0  0  0  0  0  0  0  0  0  0  0  0
   -0.2834   -2.5841    0.5667 N   0  0  0  0  0  0  0  0  0  0  0  0
   -2.7057    2.8628    0.4188 N   0  3  0  0  0  0  0  0  0  0  0  0
   -5.2631    0.3446    1.7619 N   0  0  0  0  0  0  0  0  0  0  0  0
    3.2750    1.1718    0.2585 C   0  0  0  0  0  0  0  0  0  0  0  0
    3.6125   -0.1667    0.2850 C   0  0  0  0  0  0  0  0  0  0  0  0
    0.7789    1.7791   -0.0204 C   0  0  0  0  0  0  0  0  0  0  0  0
    2.0183    1.6685    0.8039 C   0  0  0  0  0  0  0  0  0  0  0  0
    4.1654    2.0831   -0.3094 C   0  0  0  0  0  0  0  0  0  0  0  0
    4.8060   -0.6310   -0.2341 C   0  0  0  0  0  0  0  0  0  0  0  0
   -0.3665    2.2596    0.5718 C   0  0  0  0  0  0  0  0  0  0  0  0
    0.8299    1.3973   -1.3416 C   0  0  0  0  0  0  0  0  0  0  0  0
   -1.5242    2.3643   -0.1993 C   0  0  0  0  0  0  0  0  0  0  0  0
    5.3761    1.6374   -0.8397 C   0  0  0  0  0  0  0  0  0  0  0  0
    2.6866   -1.1615    0.8828 C   0  0  0  0  0  0  0  0  0  0  0  0
    5.6963    0.2804   -0.8019 C   0  0  0  0  0  0  0  0  0  0  0  0
   -0.3277    1.5019   -2.1127 C   0  0  0  0  0  0  0  0  0  0  0  0
   -1.5048    1.9854   -1.5415 C   0  0  0  0  0  0  0  0  0  0  0  0
    1.9822   -3.4121    0.7612 C   0  0  0  0  0  0  0  0  0  0  0  0
   -1.5837   -2.3353    0.1262 C   0  0  0  0  0  0  0  0  0  0  0  0
    0.6884   -3.4031   -0.0235 C   0  0  0  0  0  0  0  0  0  0  0  0
   -2.4159   -1.4839    0.8529 C   0  0  0  0  0  0  0  0  0  0  0  0
   -2.0520   -2.9397   -1.0404 C   0  0  0  0  0  0  0  0  0  0  0  0
   -3.7165   -1.2372    0.4131 C   0  0  0  0  0  0  0  0  0  0  0  0
   -3.3525   -2.6930   -1.4801 C   0  0  0  0  0  0  0  0  0  0  0  0
   -4.1848   -1.8417   -0.7534 C   0  0  0  0  0  0  0  0  0  0  0  0
   -4.5694   -0.3649    1.1570 C   0  0  0  0  0  0  0  0  0  0  0  0
    3.9279    3.1433   -0.3445 H   0  0  0  0  0  0  0  0  0  0  0  0
    5.0896   -1.6789   -0.2053 H   0  0  0  0  0  0  0  0  0  0  0  0
   -0.3634    2.5491    1.6184 H   0  0  0  0  0  0  0  0  0  0  0  0
    1.7249    1.0157   -1.8206 H   0  0  0  0  0  0  0  0  0  0  0  0
    6.0697    2.3471   -1.2811 H   0  0  0  0  0  0  0  0  0  0  0  0
    6.6407   -0.0659   -1.2117 H   0  0  0  0  0  0  0  0  0  0  0  0
   -0.2960    1.2015   -3.1571 H   0  0  0  0  0  0  0  0  0  0  0  0
    2.4865   -4.3688    0.5879 H   0  0  0  0  0  0  0  0  0  0  0  0
    1.8016   -3.3403    1.8399 H   0  0  0  0  0  0  0  0  0  0  0  0
   -0.0186   -2.1028    1.4234 H   0  0  0  0  0  0  0  0  0  0  0  0
   -2.0488   -1.0111    1.7620 H   0  0  0  0  0  0  0  0  0  0  0  0
   -1.4679   -3.6086   -1.6566 H   0  0  0  0  0  0  0  0  0  0  0  0
   -3.7180   -3.1625   -2.3888 H   0  0  0  0  0  0  0  0  0  0  0  0
   -5.1957   -1.6584   -1.1095 H   0  0  0  0  0  0  0  0  0  0  0  0
  1 24  1  0  0  0  0
  2 21  1  0  0  0  0
  2 25  1  0  0  0  0
  3 14  2  0  0  0  0
  4 21  2  0  0  0  0
  5 27  2  0  0  0  0
  6  9  1  0  0  0  0
  7  9  2  0  0  0  0
  8 26  1  0  0  0  0
  8 27  1  0  0  0  0
  8 43  1  0  0  0  0
  9 19  1  0  0  0  0
 10 33  3  0  0  0  0
 11 12  1  0  0  0  0
 11 14  1  0  0  0  0
 11 15  2  0  0  0  0
 12 16  2  0  0  0  0
 12 21  1  0  0  0  0
 13 14  1  0  0  0  0
 13 17  2  0  0  0  0
 13 18  1  0  0  0  0
 15 20  1  0  0  0  0
 15 34  1  0  0  0  0
 16 22  1  0  0  0  0
 16 35  1  0  0  0  0
 17 19  1  0  0  0  0
 17 36  1  0  0  0  0
 18 23  2  0  0  0  0
 18 37  1  0  0  0  0
 19 24  2  0  0  0  0
 20 22  2  0  0  0  0
 20 38  1  0  0  0  0
 22 39  1  0  0  0  0
 23 24  1  0  0  0  0
 23 40  1  0  0  0  0
 25 27  1  0  0  0  0
 25 41  1  0  0  0  0
 25 42  1  0  0  0  0
 26 28  1  0  0  0  0
 26 29  2  0  0  0  0
 28 30  2  0  0  0  0
 28 44  1  0  0  0  0
 29 31  1  0  0  0  0
 29 45  1  0  0  0  0
 30 32  1  0  0  0  0
 30 33  1  0  0  0  0
 31 32  2  0  0  0  0
 31 46  1  0  0  0  0
 32 47  1  0  0  0  0
M  CHG  2   6  -1   9   1
M  END
> <PUBCHEM_COMPOUND_CID>
2350847

> <PUBCHEM_CONFORMER_RMSD>
1.4

> <PUBCHEM_CONFORMER_DIVERSEORDER>
3
62
42
83
185
152
155
99
126
124
165
70
219
140
218
53
14
148
214
200
157
111
16
116
186
122
56
11
204
73
212
164
32
98
107
194
19
20
162
101
76
202
112
213
223
136
17
95
4
173
104
125
120
24
198
130
232
161
31
119
207
81
52
179
66
190
96
121
7
129
34
110
79
2
228
71
221
127
18
5
138
203
33
118
39
133
51
27
63
222
92
100
128
89
22
15
69
199
174
113
67
134
1
9
23
28
93
188
209
170
117
90
115
80
36
220
12
191
187
160
233
64
230
43
13
72
45
192
169
6
197
142
47
74
78
147
189
215
44
139
181
30
85
55
156
26
131
153
151
86
193
10
21
172
82
8
229
231
87
37
154
137
103
171
226
225
217
150
141
59
77
97
158
108
38
183
48
201
29
216
132
25
46
65
123
94
177
102
145
40
144
180
109
146
88
205
196
50
210
75
211
168
206
41
106
114
54
182
149
178
208
35
195
175
105
159
163
68
58
84
60
135
143
166
49
227
57
91
167
184
224
176
61

> <PUBCHEM_MMFF94_PARTIAL_CHARGES>
45
1 -0.18
10 -0.56
11 0.09
12 0.09
13 0.09
14 0.4
15 -0.15
16 -0.15
17 -0.15
18 -0.15
19 0.13
2 -0.43
20 -0.15
21 0.63
22 -0.15
23 -0.15
24 0.18
25 0.34
26 0.12
27 0.57
28 -0.15
29 -0.15
3 -0.57
30 0.07
31 -0.15
32 -0.15
33 0.48
34 0.15
35 0.15
36 0.15
37 0.15
38 0.15
39 0.15
4 -0.57
40 0.15
43 0.37
44 0.15
45 0.15
46 0.15
47 0.15
5 -0.57
6 -0.52
7 -0.52
8 -0.55
9 0.91

> <PUBCHEM_EFFECTIVE_ROTOR_COUNT>
9

> <PUBCHEM_PHARMACOPHORE_FEATURES>
11
1 10 acceptor
1 3 acceptor
1 4 acceptor
1 5 acceptor
1 6 acceptor
1 6 anion
1 7 acceptor
1 8 donor
6 11 12 15 16 20 22 rings
6 13 17 18 19 23 24 rings
6 26 28 29 30 31 32 rings

> <PUBCHEM_HEAVY_ATOM_COUNT>
33

> <PUBCHEM_ATOM_DEF_STEREO_COUNT>
0

> <PUBCHEM_ATOM_UDEF_STEREO_COUNT>
0

> <PUBCHEM_BOND_DEF_STEREO_COUNT>
0

> <PUBCHEM_BOND_UDEF_STEREO_COUNT>
0

> <PUBCHEM_ISOTOPIC_ATOM_COUNT>
0

> <PUBCHEM_COMPONENT_COUNT>
1

> <PUBCHEM_CACTVS_TAUTO_COUNT>
2

> <PUBCHEM_CONFORMER_ID>
0023DEFF00000003

> <PUBCHEM_MMFF94_ENERGY>
112.7834

> <PUBCHEM_FEATURE_SELFOVERLAP>
55.908

> <PUBCHEM_SHAPE_FINGERPRINT>
104564 63 18335698364402602750
11014199 57 17544196433656754126
11513181 2 18058731278356143911
11552529 35 18342737425106844593
12156800 1 15904933018738928351
12422481 6 18118142285894293713
12522641 33 17970621880517348813
12553582 1 18116422837826825057
12633257 1 17559697164233596713
12788726 201 18339071700341223986
13122387 1 17617648861268144455
14114211 80 18195263310633630350
14747281 78 16305973236804443485
14790565 3 18336837510220818268
14840074 17 18188500175855702063
14955137 171 17975427020279805843
15001296 14 18189617331108968064
15484559 13 16457382559195647373
17852330 162 18193023507855542270
19930381 70 17043727916732449755
20764821 26 18194953054811965886
21585483 110 18410007711605583821
238 59 17250297654008856589
3027735 51 18337099142517082895
338550 245 18334306361349530924
35225 105 18060420205430353289
3737641 26 18409735049480174030
463206 1 18050561052221084111
469060 322 16587746442704660543
5265222 85 18265069070598374804

> <PUBCHEM_SHAPE_MULTIPOLES>
630.84
9.93
5.01
1.77
4.6
2.12
0.31
-1
-0.09
-2.41
0.51
-1.31
-0.86
-0.72

> <PUBCHEM_SHAPE_SELFOVERLAP>
1373.197

> <PUBCHEM_SHAPE_VOLUME>
341.7

> <PUBCHEM_COORDINATE_TYPE>
2
5
10

$$$$
