105671
  -OEChem-01171810123D

 24 25  0     0  0  0  0  0  0999 V2000
   -3.6781    0.0003    0.1133 S   0  0  0  0  0  0  0  0  0  0  0  0
   -4.1720   -0.2038   -1.4318 O   0  0  0  0  0  0  0  0  0  0  0  0
    4.4101   -0.6701   -0.1524 O   0  0  0  0  0  0  0  0  0  0  0  0
   -4.0037   -1.2250    0.8284 O   0  0  0  0  0  0  0  0  0  0  0  0
   -4.1743    1.2857    0.5800 O   0  0  0  0  0  0  0  0  0  0  0  0
    3.1739    2.1870    0.7261 O   0  0  0  0  0  0  0  0  0  0  0  0
    2.8994    1.6314   -0.3442 N   0  0  0  0  0  0  0  0  0  0  0  0
    0.2501   -0.9338    0.0509 C   0  0  0  0  0  0  0  0  0  0  0  0
    0.8590    0.3329   -0.1148 C   0  0  0  0  0  0  0  0  0  0  0  0
   -1.9388    0.1276    0.0257 C   0  0  0  0  0  0  0  0  0  0  0  0
   -1.1500   -1.0194    0.1190 C   0  0  0  0  0  0  0  0  0  0  0  0
    0.0496    1.4769   -0.2072 C   0  0  0  0  0  0  0  0  0  0  0  0
    2.2591    0.4183   -0.1830 C   0  0  0  0  0  0  0  0  0  0  0  0
   -1.3400    1.3733   -0.1371 C   0  0  0  0  0  0  0  0  0  0  0  0
    1.0593   -2.0780    0.1429 C   0  0  0  0  0  0  0  0  0  0  0  0
    3.0476   -0.7289   -0.0892 C   0  0  0  0  0  0  0  0  0  0  0  0
    2.4489   -1.9746    0.0733 C   0  0  0  0  0  0  0  0  0  0  0  0
   -1.6177   -1.9946    0.2386 H   0  0  0  0  0  0  0  0  0  0  0  0
    0.4689    2.4718   -0.3384 H   0  0  0  0  0  0  0  0  0  0  0  0
   -1.9342    2.2790   -0.2205 H   0  0  0  0  0  0  0  0  0  0  0  0
    0.6130   -3.0621    0.2702 H   0  0  0  0  0  0  0  0  0  0  0  0
    3.0496   -2.8773    0.1477 H   0  0  0  0  0  0  0  0  0  0  0  0
   -3.8386   -1.0175   -1.8782 H   0  0  0  0  0  0  0  0  0  0  0  0
    4.7742   -1.5680   -0.0684 H   0  0  0  0  0  0  0  0  0  0  0  0
  1  2  1  0  0  0  0
  1  4  2  0  0  0  0
  1  5  2  0  0  0  0
  1 10  1  0  0  0  0
  2 23  1  0  0  0  0
  3 16  1  0  0  0  0
  3 24  1  0  0  0  0
  6  7  2  0  0  0  0
  7 13  1  0  0  0  0
  8  9  2  0  0  0  0
  8 11  1  0  0  0  0
  8 15  1  0  0  0  0
  9 12  1  0  0  0  0
  9 13  1  0  0  0  0
 10 11  2  0  0  0  0
 10 14  1  0  0  0  0
 11 18  1  0  0  0  0
 12 14  2  0  0  0  0
 12 19  1  0  0  0  0
 13 16  2  0  0  0  0
 14 20  1  0  0  0  0
 15 17  2  0  0  0  0
 15 21  1  0  0  0  0
 16 17  1  0  0  0  0
 17 22  1  0  0  0  0
M  END
> <PUBCHEM_COMPOUND_CID>
105671

> <PUBCHEM_CONFORMER_RMSD>
0.6

> <PUBCHEM_CONFORMER_DIVERSEORDER>
1
2

> <PUBCHEM_MMFF94_PARTIAL_CHARGES>
22
1 1.49
10 -0.01
11 -0.15
12 -0.15
13 0.3
14 -0.15
15 -0.15
16 0.08
17 -0.15
18 0.15
19 0.15
2 -0.68
20 0.15
21 0.15
22 0.15
23 0.5
24 0.45
3 -0.53
4 -0.65
5 -0.65
6 -0.16
7 -0.14

> <PUBCHEM_EFFECTIVE_ROTOR_COUNT>
2

> <PUBCHEM_PHARMACOPHORE_FEATURES>
7
1 2 acceptor
1 3 donor
1 4 acceptor
1 5 acceptor
4 1 2 4 5 anion
6 8 9 10 11 12 14 rings
6 8 9 13 15 16 17 rings

> <PUBCHEM_HEAVY_ATOM_COUNT>
17

> <PUBCHEM_ATOM_DEF_STEREO_COUNT>
0

> <PUBCHEM_ATOM_UDEF_STEREO_COUNT>
0

> <PUBCHEM_BOND_DEF_STEREO_COUNT>
0

> <PUBCHEM_BOND_UDEF_STEREO_COUNT>
0

> <PUBCHEM_ISOTOPIC_ATOM_COUNT>
0

> <PUBCHEM_COMPONENT_COUNT>
1

> <PUBCHEM_CACTVS_TAUTO_COUNT>
4

> <PUBCHEM_CONFORMER_ID>
00019CC700000001

> <PUBCHEM_MMFF94_ENERGY>
42.9405

> <PUBCHEM_FEATURE_SELFOVERLAP>
35.604

> <PUBCHEM_SHAPE_FINGERPRINT>
10608611 8 18335419037067893133
10967382 1 18409731793894456948
10980938 120 18410293631166479497
11132069 177 18262511601940143329
11471102 20 18409445873558062294
11543360 7 16128095671243226173
12032990 46 18335709329501621171
12236239 1 17846497015743787775
13140716 1 18337106873532237818
13221675 6 18410575050393368718
13296908 3 18259708904236371731
13862211 1 18337667517288934198
13897977 150 18337670913921788908
14251717 144 18411694387621701719
15196674 1 18409451401001565593
15219456 202 18333732442102194483
15442244 35 18123473769587992875
15536298 74 18342459252938385352
16945 1 18338230475510069014
17802600 8 18408599232572531020
18186145 218 17894912906207832979
19026448 5 17274824674975558581
19050596 39 18412830153279348417
19422 9 18060136535746284479
200 152 18273207578404649135
20645477 70 18341889675998288807
21267235 1 18410867550825564635
21452121 103 18343011225309112328
21501502 16 18192995915550521896
221490 88 18336273361739516794
22854114 111 18410855468939752904
2334 1 18193278730900128118
23402539 116 18201432545537647727
23402655 69 18339920394796077973
23463225 33 18336549330451739103
23559900 14 18260548926930448802
2748010 2 18192161592758237366
335352 9 18337956662459485791
449060 62 18410579504427247052
5104073 3 18409171013031409385
581208 293 18411694404790871828
633830 44 18343309162552401677
69090 78 18343297089299177062
7364860 26 18342458123757573454
8809292 202 18113346318435452523
9709674 26 18339085895398613031

> <PUBCHEM_SHAPE_MULTIPOLES>
319.37
7.62
2.07
0.77
3.94
0.13
0.09
0.1
-0.03
-1.37
-0.24
0.49
0.02
0.17

> <PUBCHEM_SHAPE_SELFOVERLAP>
689.326

> <PUBCHEM_SHAPE_VOLUME>
176

> <PUBCHEM_COORDINATE_TYPE>
2
5
10

$$$$
