5972274
  -OEChem-01171809253D

 47 50  0     0  0  0  0  0  0999 V2000
   -0.2295   -3.7087    0.5789 S   0  0  0  0  0  0  0  0  0  0  0  0
    0.2487   -1.1767    2.0638 O   0  0  0  0  0  0  0  0  0  0  0  0
   -4.6174    2.9953   -0.9089 O   0  0  0  0  0  0  0  0  0  0  0  0
   -4.0303   -1.4820    1.0358 O   0  0  0  0  0  0  0  0  0  0  0  0
   -5.5982    0.5997    0.1334 O   0  0  0  0  0  0  0  0  0  0  0  0
    3.0700   -0.4217    0.5957 N   0  0  0  0  0  0  0  0  0  0  0  0
    2.6690    1.6352   -0.2978 N   0  0  0  0  0  0  0  0  0  0  0  0
    2.0794    0.4762    0.2030 C   0  0  0  0  0  0  0  0  0  0  0  0
    4.3062    0.1812    0.3379 C   0  0  0  0  0  0  0  0  0  0  0  0
    4.0559    1.4656   -0.2194 C   0  0  0  0  0  0  0  0  0  0  0  0
    0.7604    0.2583    0.2936 C   0  0  0  0  0  0  0  0  0  0  0  0
   -0.2319    1.2265   -0.1295 C   0  0  0  0  0  0  0  0  0  0  0  0
    5.5857   -0.2788    0.5425 C   0  0  0  0  0  0  0  0  0  0  0  0
    5.0817    2.3069   -0.5809 C   0  0  0  0  0  0  0  0  0  0  0  0
   -1.5598    1.0704   -0.0658 C   0  0  0  0  0  0  0  0  0  0  0  0
    0.3815   -1.0810    0.8424 C   0  0  0  0  0  0  0  0  0  0  0  0
    6.6344    0.5712    0.1780 C   0  0  0  0  0  0  0  0  0  0  0  0
    6.3860    1.8458   -0.3761 C   0  0  0  0  0  0  0  0  0  0  0  0
   -2.4434    2.1288   -0.5277 C   0  0  0  0  0  0  0  0  0  0  0  0
   -2.1269   -0.1577    0.4663 C   0  0  0  0  0  0  0  0  0  0  0  0
    0.1983   -2.2111   -0.0809 C   0  0  0  0  0  0  0  0  0  0  0  0
   -3.7778    1.9940   -0.4720 C   0  0  0  0  0  0  0  0  0  0  0  0
   -3.4533   -0.3332    0.5399 C   0  0  0  0  0  0  0  0  0  0  0  0
   -4.3805    0.7409    0.0722 C   0  0  0  0  0  0  0  0  0  0  0  0
    0.3325   -2.2022   -1.4248 C   0  0  0  0  0  0  0  0  0  0  0  0
    0.0717   -3.4952   -1.9634 C   0  0  0  0  0  0  0  0  0  0  0  0
   -0.2461   -4.4095   -0.9833 C   0  0  0  0  0  0  0  0  0  0  0  0
   -4.9270    3.8884    0.1440 C   0  0  0  0  0  0  0  0  0  0  0  0
   -4.2393   -2.4267    0.0033 C   0  0  0  0  0  0  0  0  0  0  0  0
    2.9151   -1.3317    0.9928 H   0  0  0  0  0  0  0  0  0  0  0  0
    2.1872    2.4433   -0.6489 H   0  0  0  0  0  0  0  0  0  0  0  0
    0.1445    2.1635   -0.5341 H   0  0  0  0  0  0  0  0  0  0  0  0
    5.7818   -1.2562    0.9673 H   0  0  0  0  0  0  0  0  0  0  0  0
    4.8965    3.2862   -1.0064 H   0  0  0  0  0  0  0  0  0  0  0  0
    7.6619    0.2467    0.3228 H   0  0  0  0  0  0  0  0  0  0  0  0
    7.2268    2.4794   -0.6477 H   0  0  0  0  0  0  0  0  0  0  0  0
   -2.0071    3.0409   -0.9251 H   0  0  0  0  0  0  0  0  0  0  0  0
   -1.6569   -0.9848    0.9307 H   0  0  0  0  0  0  0  0  0  0  0  0
    0.5991   -1.3445   -2.0286 H   0  0  0  0  0  0  0  0  0  0  0  0
    0.1146   -3.7422   -3.0162 H   0  0  0  0  0  0  0  0  0  0  0  0
   -0.4878   -5.4553   -1.1100 H   0  0  0  0  0  0  0  0  0  0  0  0
   -5.6110    4.6490   -0.2443 H   0  0  0  0  0  0  0  0  0  0  0  0
   -4.0289    4.3984    0.5098 H   0  0  0  0  0  0  0  0  0  0  0  0
   -5.4294    3.3736    0.9703 H   0  0  0  0  0  0  0  0  0  0  0  0
   -4.9455   -2.0484   -0.7439 H   0  0  0  0  0  0  0  0  0  0  0  0
   -4.6706   -3.3283    0.4483 H   0  0  0  0  0  0  0  0  0  0  0  0
   -3.2982   -2.7074   -0.4816 H   0  0  0  0  0  0  0  0  0  0  0  0
  1 21  1  0  0  0  0
  1 27  1  0  0  0  0
  2 16  2  0  0  0  0
  3 22  1  0  0  0  0
  3 28  1  0  0  0  0
  4 23  1  0  0  0  0
  4 29  1  0  0  0  0
  5 24  2  0  0  0  0
  6  8  1  0  0  0  0
  6  9  1  0  0  0  0
  6 30  1  0  0  0  0
  7  8  1  0  0  0  0
  7 10  1  0  0  0  0
  7 31  1  0  0  0  0
  8 11  2  0  0  0  0
  9 10  1  0  0  0  0
  9 13  2  0  0  0  0
 10 14  2  0  0  0  0
 11 12  1  0  0  0  0
 11 16  1  0  0  0  0
 12 15  2  0  0  0  0
 12 32  1  0  0  0  0
 13 17  1  0  0  0  0
 13 33  1  0  0  0  0
 14 18  1  0  0  0  0
 14 34  1  0  0  0  0
 15 19  1  0  0  0  0
 15 20  1  0  0  0  0
 16 21  1  0  0  0  0
 17 18  2  0  0  0  0
 17 35  1  0  0  0  0
 18 36  1  0  0  0  0
 19 22  2  0  0  0  0
 19 37  1  0  0  0  0
 20 23  2  0  0  0  0
 20 38  1  0  0  0  0
 21 25  2  0  0  0  0
 22 24  1  0  0  0  0
 23 24  1  0  0  0  0
 25 26  1  0  0  0  0
 25 39  1  0  0  0  0
 26 27  2  0  0  0  0
 26 40  1  0  0  0  0
 27 41  1  0  0  0  0
 28 42  1  0  0  0  0
 28 43  1  0  0  0  0
 28 44  1  0  0  0  0
 29 45  1  0  0  0  0
 29 46  1  0  0  0  0
 29 47  1  0  0  0  0
M  END
> <PUBCHEM_COMPOUND_CID>
5972274

> <PUBCHEM_CONFORMER_RMSD>
0.8

> <PUBCHEM_CONFORMER_DIVERSEORDER>
1
5
17
14
19
3
16
11
4
12
10
2
9
13
8
6
15
7
18

> <PUBCHEM_MMFF94_PARTIAL_CHARGES>
40
1 -0.08
10 0.1
11 0.01
12 -0.15
13 -0.15
14 -0.15
16 0.64
17 -0.15
18 -0.15
19 -0.15
2 -0.57
20 -0.15
21 -0.05
22 0.09
23 0.09
24 0.54
25 -0.15
26 -0.15
27 -0.11
28 0.28
29 0.28
3 -0.36
30 0.4
31 0.4
32 0.15
33 0.15
34 0.15
35 0.15
36 0.15
37 0.15
38 0.15
39 0.15
4 -0.36
40 0.15
41 0.15
5 -0.57
6 -0.6
7 -0.6
8 0.2
9 0.1

> <PUBCHEM_EFFECTIVE_ROTOR_COUNT>
5.4

> <PUBCHEM_PHARMACOPHORE_FEATURES>
12
1 2 acceptor
1 3 acceptor
1 4 acceptor
1 5 acceptor
1 6 cation
1 6 donor
1 7 cation
1 7 donor
5 1 21 25 26 27 rings
5 6 7 8 9 10 rings
6 15 19 20 22 23 24 rings
6 9 10 13 14 17 18 rings

> <PUBCHEM_HEAVY_ATOM_COUNT>
29

> <PUBCHEM_ATOM_DEF_STEREO_COUNT>
0

> <PUBCHEM_ATOM_UDEF_STEREO_COUNT>
0

> <PUBCHEM_BOND_DEF_STEREO_COUNT>
0

> <PUBCHEM_BOND_UDEF_STEREO_COUNT>
0

> <PUBCHEM_ISOTOPIC_ATOM_COUNT>
0

> <PUBCHEM_COMPONENT_COUNT>
1

> <PUBCHEM_CACTVS_TAUTO_COUNT>
6

> <PUBCHEM_CONFORMER_ID>
005B213200000001

> <PUBCHEM_MMFF94_ENERGY>
145.1517

> <PUBCHEM_FEATURE_SELFOVERLAP>
61.122

> <PUBCHEM_SHAPE_FINGERPRINT>
10165383 225 18059867190084648939
10369192 42 18410015424823938181
10411042 1 17687469383231359235
10675989 125 17544471960594526157
11421498 54 17703512069644442713
11488393 25 18127704724745089582
11524674 6 17775291602872565070
12107183 9 17971460811529122586
12788726 201 18192980750375019034
13149001 5 17273685649627567618
13540713 4 18119263766237037939
14790565 3 18409450297443384032
15042514 8 18122067769052458339
15131766 46 15142668335626908348
15439362 3 18124033421091102228
15664445 248 17333653774126912583
17980427 23 17676496055031781813
18681886 176 18409160039248257248
19309040 13 17986107410302966757
19958102 18 18201724006936307966
20197701 30 18412542089902037206
21033648 144 18114452362650639101
21033648 29 18272355491295826272
21236236 1 18335139821301963601
21756936 100 18339352063417316260
23559900 14 18051129186078452359
3298306 158 18342178834697963014
3411729 13 18265051323676891057
38695281 34 18340201895278731302
4017518 198 17916864613841405294
4073 2 17604155904260501464
44249763 50 17914050070016151456
5104073 3 17895195446141820321
59025328 239 16047841402957296918
59755656 215 18193277390738411348
6669772 16 18130793326480905590
70251023 43 16611094889880771558
9981440 41 18334863796717743411

> <PUBCHEM_SHAPE_MULTIPOLES>
567.22
13.1
4.76
1.14
11.75
3.23
0.08
-12.33
-0.28
-4.52
1.69
-0.07
0.85
0.19

> <PUBCHEM_SHAPE_SELFOVERLAP>
1242.368

> <PUBCHEM_SHAPE_VOLUME>
308.9

> <PUBCHEM_COORDINATE_TYPE>
2
5
10

$$$$
