9550553
  -OEChem-01171810133D

 45 48  0     0  0  0  0  0  0999 V2000
    3.1173    1.2823   -1.7250 S   0  0  0  0  0  0  0  0  0  0  0  0
    4.1983   -1.5507   -1.6994 S   0  0  0  0  0  0  0  0  0  0  0  0
   -3.6553   -1.7587   -0.3846 O   0  0  0  0  0  0  0  0  0  0  0  0
    1.6599    4.7199    0.8904 O   0  0  0  0  0  0  0  0  0  0  0  0
   -2.2810    3.9248    1.4854 O   0  5  0  0  0  0  0  0  0  0  0  0
   -3.2632    2.1576    0.6305 O   0  0  0  0  0  0  0  0  0  0  0  0
   -5.5986   -2.6360   -1.2664 O   0  0  0  0  0  0  0  0  0  0  0  0
   -1.9603    0.4710   -0.8126 N   0  0  0  0  0  0  0  0  0  0  0  0
   -2.2422    2.8710    0.8010 N   0  3  0  0  0  0  0  0  0  0  0  0
    0.3260    4.3872    1.0526 N   0  0  0  0  0  0  0  0  0  0  0  0
    2.3306    3.7952    0.1085 N   0  0  0  0  0  0  0  0  0  0  0  0
    2.8389   -0.5190    0.2346 N   0  0  0  0  0  0  0  0  0  0  0  0
   -0.8475    1.3257   -0.5803 C   0  0  0  0  0  0  0  0  0  0  0  0
   -1.0191    2.4785    0.2074 C   0  0  0  0  0  0  0  0  0  0  0  0
    0.1471    3.2481    0.3725 C   0  0  0  0  0  0  0  0  0  0  0  0
    1.5414    1.7217   -0.9991 C   0  0  0  0  0  0  0  0  0  0  0  0
   -1.8644   -0.7135   -1.5969 C   0  0  0  0  0  0  0  0  0  0  0  0
    0.3932    0.9592   -1.1648 C   0  0  0  0  0  0  0  0  0  0  0  0
    1.4214    2.8716   -0.2277 C   0  0  0  0  0  0  0  0  0  0  0  0
   -3.2227   -1.3881   -1.6876 C   0  0  0  0  0  0  0  0  0  0  0  0
    3.3359   -0.2745   -0.9554 C   0  0  0  0  0  0  0  0  0  0  0  0
    3.8974   -2.5435   -0.3221 C   0  0  0  0  0  0  0  0  0  0  0  0
    3.1526   -1.8166    0.6116 C   0  0  0  0  0  0  0  0  0  0  0  0
    4.2920   -3.8701   -0.0849 C   0  0  0  0  0  0  0  0  0  0  0  0
    2.7913   -2.4419    1.8247 C   0  0  0  0  0  0  0  0  0  0  0  0
   -4.8738   -2.3815   -0.3144 C   0  0  0  0  0  0  0  0  0  0  0  0
   -5.1835   -2.7073    1.1279 C   0  0  0  0  0  0  0  0  0  0  0  0
    3.9214   -4.4652    1.1235 C   0  0  0  0  0  0  0  0  0  0  0  0
    3.1807   -3.7623    2.0673 C   0  0  0  0  0  0  0  0  0  0  0  0
   -6.5336   -3.3851    1.2836 C   0  0  0  0  0  0  0  0  0  0  0  0
   -1.1601   -1.4156   -1.1342 H   0  0  0  0  0  0  0  0  0  0  0  0
   -1.5301   -0.4874   -2.6159 H   0  0  0  0  0  0  0  0  0  0  0  0
   -2.8464    0.7065   -0.3850 H   0  0  0  0  0  0  0  0  0  0  0  0
    0.4768    0.0606   -1.7718 H   0  0  0  0  0  0  0  0  0  0  0  0
   -3.9561   -0.7055   -2.1345 H   0  0  0  0  0  0  0  0  0  0  0  0
   -3.1429   -2.2849   -2.3129 H   0  0  0  0  0  0  0  0  0  0  0  0
    4.8702   -4.4251   -0.8172 H   0  0  0  0  0  0  0  0  0  0  0  0
    2.2126   -1.9019    2.5688 H   0  0  0  0  0  0  0  0  0  0  0  0
   -4.3986   -3.3687    1.5095 H   0  0  0  0  0  0  0  0  0  0  0  0
   -5.1779   -1.7748    1.7022 H   0  0  0  0  0  0  0  0  0  0  0  0
    4.2166   -5.4913    1.3268 H   0  0  0  0  0  0  0  0  0  0  0  0
    2.9015   -4.2417    3.0016 H   0  0  0  0  0  0  0  0  0  0  0  0
   -6.5684   -4.3256    0.7237 H   0  0  0  0  0  0  0  0  0  0  0  0
   -6.7298   -3.6065    2.3371 H   0  0  0  0  0  0  0  0  0  0  0  0
   -7.3404   -2.7445    0.9122 H   0  0  0  0  0  0  0  0  0  0  0  0
  1 16  1  0  0  0  0
  1 21  1  0  0  0  0
  2 21  1  0  0  0  0
  2 22  1  0  0  0  0
  3 20  1  0  0  0  0
  3 26  1  0  0  0  0
  4 10  1  0  0  0  0
  4 11  1  0  0  0  0
  5  9  1  0  0  0  0
  6  9  2  0  0  0  0
  7 26  2  0  0  0  0
  8 13  1  0  0  0  0
  8 17  1  0  0  0  0
  8 33  1  0  0  0  0
  9 14  1  0  0  0  0
 10 15  2  0  0  0  0
 11 19  2  0  0  0  0
 12 21  2  0  0  0  0
 12 23  1  0  0  0  0
 13 14  2  0  0  0  0
 13 18  1  0  0  0  0
 14 15  1  0  0  0  0
 15 19  1  0  0  0  0
 16 18  2  0  0  0  0
 16 19  1  0  0  0  0
 17 20  1  0  0  0  0
 17 31  1  0  0  0  0
 17 32  1  0  0  0  0
 18 34  1  0  0  0  0
 20 35  1  0  0  0  0
 20 36  1  0  0  0  0
 22 23  1  0  0  0  0
 22 24  2  0  0  0  0
 23 25  2  0  0  0  0
 24 28  1  0  0  0  0
 24 37  1  0  0  0  0
 25 29  1  0  0  0  0
 25 38  1  0  0  0  0
 26 27  1  0  0  0  0
 27 30  1  0  0  0  0
 27 39  1  0  0  0  0
 27 40  1  0  0  0  0
 28 29  2  0  0  0  0
 28 41  1  0  0  0  0
 29 42  1  0  0  0  0
 30 43  1  0  0  0  0
 30 44  1  0  0  0  0
 30 45  1  0  0  0  0
M  CHG  2   5  -1   9   1
M  END
> <PUBCHEM_COMPOUND_CID>
9550553

> <PUBCHEM_CONFORMER_RMSD>
1

> <PUBCHEM_CONFORMER_DIVERSEORDER>
1
163
83
114
117
25
159
171
62
23
152
127
66
75
38
54
115
26
34
131
15
158
32
14
45
2
64
165
91
70
84
30
19
47
119
40
145
12
149
162
48
7
123
124
98
141
78
82
5
151
3
73
104
167
126
37
128
96
144
113
99
112
46
161
136
172
81
103
85
105
58
147
80
86
100
129
59
110
116
130
154
142
108
137
170
39
36
63
118
164
140
8
173
72
134
55
69
132
90
33
87
42
146
65
88
71
135
77
109
41
156
43
76
20
121
102
120
157
31
35
56
68
111
168
79
139
106
24
143
97
52
92
155
18
133
13
107
101
53
166
61
44
57
153
49
67
74
21
169
125
6
89
17
60
51
10
95
138
22
28
160
50
16
122
4
29
150
27
94
11
148
9
93

> <PUBCHEM_MMFF94_PARTIAL_CHARGES>
35
1 -0.16
10 -0.41
11 -0.41
12 -0.57
13 0.1
14 0.13
15 0.29
16 0.1
17 0.37
18 -0.15
19 0.29
2 -0.08
20 0.28
21 0.43
22 0.04
23 0.23
24 -0.15
25 -0.15
26 0.66
27 0.06
28 -0.15
29 -0.15
3 -0.43
33 0.4
34 0.15
37 0.15
38 0.15
4 0.24
41 0.15
42 0.15
5 -0.52
6 -0.52
7 -0.57
8 -0.87
9 0.91

> <PUBCHEM_EFFECTIVE_ROTOR_COUNT>
9

> <PUBCHEM_PHARMACOPHORE_FEATURES>
14
1 10 acceptor
1 11 acceptor
1 12 acceptor
1 30 hydrophobe
1 5 acceptor
1 5 anion
1 6 acceptor
1 7 acceptor
1 8 cation
1 8 donor
5 2 12 21 22 23 rings
5 4 10 11 15 19 rings
6 13 14 15 16 18 19 rings
6 22 23 24 25 28 29 rings

> <PUBCHEM_HEAVY_ATOM_COUNT>
30

> <PUBCHEM_ATOM_DEF_STEREO_COUNT>
0

> <PUBCHEM_ATOM_UDEF_STEREO_COUNT>
0

> <PUBCHEM_BOND_DEF_STEREO_COUNT>
0

> <PUBCHEM_BOND_UDEF_STEREO_COUNT>
0

> <PUBCHEM_ISOTOPIC_ATOM_COUNT>
0

> <PUBCHEM_COMPONENT_COUNT>
1

> <PUBCHEM_CACTVS_TAUTO_COUNT>
2

> <PUBCHEM_CONFORMER_ID>
0091BAD900000001

> <PUBCHEM_MMFF94_ENERGY>
83.8025

> <PUBCHEM_FEATURE_SELFOVERLAP>
71.383

> <PUBCHEM_SHAPE_FINGERPRINT>
10074138 170 17909819938764970195
10928967 22 17175744139081630002
11014199 57 18192991526548223658
114674 6 18120658195345433902
12107183 9 18271258149200813347
12633257 1 17341230586337466056
12788726 201 18341342136160899503
13140716 1 18269270158556675820
14705955 166 16553099508964925512
14856354 85 17766548059709172966
14904385 45 18408608058904975923
15320294 125 17179966233577464274
15475509 35 18116441538748077543
15484559 13 11904059232414781003
15776043 110 18268171867217155171
17909252 39 18262521510741204867
19319366 153 18048603917059169694
20775530 9 18338224995021504134
21421861 104 18127411374225574837
21703447 108 18341046440726832497
24180151 46 17557975418881456616
345986 75 18201443614306822435
463206 1 18191580844259673475
57527585 21 15431760539505298702
5912855 24 18266467499239051910
6422251 121 18263649618446061499
6679774 75 16608314688972531415
86090 222 17606688190950333291

> <PUBCHEM_SHAPE_MULTIPOLES>
570.83
11.25
7.66
1.81
14.19
2.91
0.03
-19.16
-0.45
-0.7
-4.48
-0.32
-0.69
-2.04

> <PUBCHEM_SHAPE_SELFOVERLAP>
1212.492

> <PUBCHEM_SHAPE_VOLUME>
319

> <PUBCHEM_COORDINATE_TYPE>
2
5
10

$$$$
