20959087
  -OEChem-01171810033D

 46 49  0     0  0  0  0  0  0999 V2000
   -3.0234   -2.1812   -0.4413 S   0  0  0  0  0  0  0  0  0  0  0  0
    3.3357   -0.0914   -0.5754 O   0  0  0  0  0  0  0  0  0  0  0  0
   -3.2768   -3.5150    0.0907 O   0  0  0  0  0  0  0  0  0  0  0  0
   -3.3906   -1.8949   -1.8228 O   0  0  0  0  0  0  0  0  0  0  0  0
    4.9692   -0.8159    0.8108 N   0  0  0  0  0  0  0  0  0  0  0  0
   -3.7755   -1.0366    0.6040 N   0  0  0  0  0  0  0  0  0  0  0  0
    5.6572    0.8986   -0.8707 C   0  0  0  0  0  0  0  0  0  0  0  0
    5.3529    2.3656   -0.9544 C   0  0  0  0  0  0  0  0  0  0  0  0
    6.4239    1.8732   -0.0258 C   0  0  0  0  0  0  0  0  0  0  0  0
    4.6391   -0.0288   -0.1880 C   0  0  0  0  0  0  0  0  0  0  0  0
    2.7962   -1.0135    0.2696 C   0  0  0  0  0  0  0  0  0  0  0  0
    3.7906   -1.4506    1.1087 C   0  0  0  0  0  0  0  0  0  0  0  0
    1.3923   -1.2968    0.0974 C   0  0  0  0  0  0  0  0  0  0  0  0
    0.6646   -0.6372   -0.8931 C   0  0  0  0  0  0  0  0  0  0  0  0
    0.7616   -2.2274    0.9232 C   0  0  0  0  0  0  0  0  0  0  0  0
   -1.3243   -1.8388   -0.2321 C   0  0  0  0  0  0  0  0  0  0  0  0
   -0.6937   -0.9082   -1.0579 C   0  0  0  0  0  0  0  0  0  0  0  0
   -0.5967   -2.4983    0.7585 C   0  0  0  0  0  0  0  0  0  0  0  0
   -3.4096    0.3475    0.4672 C   0  0  0  0  0  0  0  0  0  0  0  0
   -3.6189    1.0077   -0.7436 C   0  0  0  0  0  0  0  0  0  0  0  0
   -2.8454    1.0297    1.5450 C   0  0  0  0  0  0  0  0  0  0  0  0
   -3.2640    2.3501   -0.8766 C   0  0  0  0  0  0  0  0  0  0  0  0
   -2.4905    2.3721    1.4122 C   0  0  0  0  0  0  0  0  0  0  0  0
   -2.6997    3.0323    0.2013 C   0  0  0  0  0  0  0  0  0  0  0  0
   -3.4873    3.0559   -2.1715 C   0  0  0  0  0  0  0  0  0  0  0  0
   -1.8868    3.1017    2.5646 C   0  0  0  0  0  0  0  0  0  0  0  0
    6.1797    0.4543   -1.7103 H   0  0  0  0  0  0  0  0  0  0  0  0
    4.4368    2.7379   -0.5120 H   0  0  0  0  0  0  0  0  0  0  0  0
    5.6641    2.8951   -1.8468 H   0  0  0  0  0  0  0  0  0  0  0  0
    7.4543    2.0720   -0.2948 H   0  0  0  0  0  0  0  0  0  0  0  0
    6.2247    1.9184    1.0380 H   0  0  0  0  0  0  0  0  0  0  0  0
    3.7321   -2.1781    1.9050 H   0  0  0  0  0  0  0  0  0  0  0  0
    1.1223    0.0930   -1.5556 H   0  0  0  0  0  0  0  0  0  0  0  0
    1.3038   -2.7542    1.7043 H   0  0  0  0  0  0  0  0  0  0  0  0
   -1.2354   -0.3886   -1.8426 H   0  0  0  0  0  0  0  0  0  0  0  0
   -1.0686   -3.2214    1.4178 H   0  0  0  0  0  0  0  0  0  0  0  0
   -3.9312   -1.3463    1.5724 H   0  0  0  0  0  0  0  0  0  0  0  0
   -4.0822    0.4981   -1.5832 H   0  0  0  0  0  0  0  0  0  0  0  0
   -2.6823    0.5140    2.4886 H   0  0  0  0  0  0  0  0  0  0  0  0
   -2.4224    4.0787    0.0982 H   0  0  0  0  0  0  0  0  0  0  0  0
   -2.6388    2.8869   -2.8419 H   0  0  0  0  0  0  0  0  0  0  0  0
   -4.4000    2.6990   -2.6606 H   0  0  0  0  0  0  0  0  0  0  0  0
   -3.6050    4.1346   -2.0224 H   0  0  0  0  0  0  0  0  0  0  0  0
   -1.2053    3.8876    2.2220 H   0  0  0  0  0  0  0  0  0  0  0  0
   -1.3023    2.4253    3.1976 H   0  0  0  0  0  0  0  0  0  0  0  0
   -2.6732    3.5598    3.1726 H   0  0  0  0  0  0  0  0  0  0  0  0
  1  3  2  0  0  0  0
  1  4  2  0  0  0  0
  1  6  1  0  0  0  0
  1 16  1  0  0  0  0
  2 10  1  0  0  0  0
  2 11  1  0  0  0  0
  5 10  2  0  0  0  0
  5 12  1  0  0  0  0
  6 19  1  0  0  0  0
  6 37  1  0  0  0  0
  7  8  1  0  0  0  0
  7  9  1  0  0  0  0
  7 10  1  0  0  0  0
  7 27  1  0  0  0  0
  8  9  1  0  0  0  0
  8 28  1  0  0  0  0
  8 29  1  0  0  0  0
  9 30  1  0  0  0  0
  9 31  1  0  0  0  0
 11 12  2  0  0  0  0
 11 13  1  0  0  0  0
 12 32  1  0  0  0  0
 13 14  2  0  0  0  0
 13 15  1  0  0  0  0
 14 17  1  0  0  0  0
 14 33  1  0  0  0  0
 15 18  2  0  0  0  0
 15 34  1  0  0  0  0
 16 17  2  0  0  0  0
 16 18  1  0  0  0  0
 17 35  1  0  0  0  0
 18 36  1  0  0  0  0
 19 20  2  0  0  0  0
 19 21  1  0  0  0  0
 20 22  1  0  0  0  0
 20 38  1  0  0  0  0
 21 23  2  0  0  0  0
 21 39  1  0  0  0  0
 22 24  2  0  0  0  0
 22 25  1  0  0  0  0
 23 24  1  0  0  0  0
 23 26  1  0  0  0  0
 24 40  1  0  0  0  0
 25 41  1  0  0  0  0
 25 42  1  0  0  0  0
 25 43  1  0  0  0  0
 26 44  1  0  0  0  0
 26 45  1  0  0  0  0
 26 46  1  0  0  0  0
M  END
> <PUBCHEM_COMPOUND_CID>
20959087

> <PUBCHEM_CONFORMER_RMSD>
0.8

> <PUBCHEM_CONFORMER_DIVERSEORDER>
1
54
8
45
51
17
49
26
9
13
22
31
42
30
10
39
28
55
47
52
5
11
37
12
4
20
3
38
24
48
46
43
29
18
50
27
32
53
44
14
16
36
7
25
40
41
21
2
33
35
23
6
19
34
15

> <PUBCHEM_MMFF94_PARTIAL_CHARGES>
40
1 1.45
10 0.39
11 0.09
12 0.08
13 0.05
14 -0.15
15 -0.15
16 -0.01
17 -0.15
18 -0.15
19 0.2
2 -0.28
20 -0.15
21 -0.15
22 -0.14
23 -0.14
24 -0.15
25 0.14
26 0.14
27 0.1
28 0.1
29 0.1
3 -0.65
30 0.1
31 0.1
32 0.15
33 0.15
34 0.15
35 0.15
36 0.15
37 0.42
38 0.15
39 0.15
4 -0.65
40 0.15
5 -0.57
6 -0.76
7 -0.01
8 -0.2
9 -0.2

> <PUBCHEM_EFFECTIVE_ROTOR_COUNT>
5.6

> <PUBCHEM_PHARMACOPHORE_FEATURES>
6
1 3 acceptor
1 4 acceptor
1 6 donor
5 2 5 10 11 12 rings
6 13 14 15 16 17 18 rings
6 19 20 21 22 23 24 rings

> <PUBCHEM_HEAVY_ATOM_COUNT>
26

> <PUBCHEM_ATOM_DEF_STEREO_COUNT>
0

> <PUBCHEM_ATOM_UDEF_STEREO_COUNT>
0

> <PUBCHEM_BOND_DEF_STEREO_COUNT>
0

> <PUBCHEM_BOND_UDEF_STEREO_COUNT>
0

> <PUBCHEM_ISOTOPIC_ATOM_COUNT>
0

> <PUBCHEM_COMPONENT_COUNT>
1

> <PUBCHEM_CACTVS_TAUTO_COUNT>
1

> <PUBCHEM_CONFORMER_ID>
013FCF6F00000001

> <PUBCHEM_MMFF94_ENERGY>
52.3679

> <PUBCHEM_FEATURE_SELFOVERLAP>
30.466

> <PUBCHEM_SHAPE_FINGERPRINT>
10670039 82 18339928229317644020
10937287 8 17626117338707055849
11477941 20 17702370926635233892
12107183 9 17973149648541966314
12390115 104 18336276677933947166
12596602 18 17749107824441927074
12788726 201 18341046427704982114
13583140 156 17677905530038090312
13615921 28 17846215583126926545
13994607 96 18130783430627951973
14251764 75 18053673469018241201
14713325 29 18130799974541594423
14739800 52 18268977843678758928
15163728 17 17916882222241148694
16994733 274 16299205940878204983
17844677 252 18410301311280681134
21033650 10 18198369362789693422
21049683 271 18193268827307177495
22907989 373 18131060490520382085
22956985 138 16895117413789879987
283562 15 18335982068763434371
2838139 119 17534608323354134309
376196 1 16811779414972490637
46194498 28 14475517527153892768
469060 322 18115329837954818425
5104073 3 17749099007491253290
550186 7 18201728383186144774
57527585 21 17488175994600225113
6034566 193 18126011464422950465
6299153 45 18261665962573568706
7237137 82 18272087240153407172
7808743 9 18411420596425665400

> <PUBCHEM_SHAPE_MULTIPOLES>
511.35
12.2
4.23
1.7
21.24
0.95
0.28
7.03
-2
-3.94
0.24
-1.62
1.31
-1.41

> <PUBCHEM_SHAPE_SELFOVERLAP>
1096.842

> <PUBCHEM_SHAPE_VOLUME>
285.3

> <PUBCHEM_COORDINATE_TYPE>
2
5
10

$$$$
