5731123
  -OEChem-01171809213D

 36 38  0     0  0  0  0  0  0999 V2000
    3.6901   -2.4030    0.6176 O   0  0  0  0  0  0  0  0  0  0  0  0
   -3.4106    0.0094   -0.0830 O   0  0  0  0  0  0  0  0  0  0  0  0
   -6.9039   -0.1082   -0.1951 O   0  5  0  0  0  0  0  0  0  0  0  0
   -5.3778   -1.6158   -0.6615 O   0  0  0  0  0  0  0  0  0  0  0  0
    1.6158   -1.3666    0.2779 N   0  0  0  0  0  0  0  0  0  0  0  0
    1.5399    0.9497   -0.2664 N   0  0  0  0  0  0  0  0  0  0  0  0
   -5.6868   -0.4478   -0.2816 N   0  3  0  0  0  0  0  0  0  0  0  0
    0.8970   -2.6178    0.5286 C   0  0  0  0  0  0  0  0  0  0  0  0
    3.7082   -0.1320    0.0760 C   0  0  0  0  0  0  0  0  0  0  0  0
    0.9437   -0.1794   -0.0233 C   0  0  0  0  0  0  0  0  0  0  0  0
    3.0188   -1.4099    0.3502 C   0  0  0  0  0  0  0  0  0  0  0  0
    2.9386    0.9937   -0.2225 C   0  0  0  0  0  0  0  0  0  0  0  0
    5.1053   -0.0544    0.1136 C   0  0  0  0  0  0  0  0  0  0  0  0
   -0.5351   -0.2041   -0.0708 C   0  0  0  0  0  0  0  0  0  0  0  0
    0.6859   -3.4023   -0.7498 C   0  0  0  0  0  0  0  0  0  0  0  0
    3.5869    2.2064   -0.4844 C   0  0  0  0  0  0  0  0  0  0  0  0
    5.7377    1.1600   -0.1494 C   0  0  0  0  0  0  0  0  0  0  0  0
    4.9796    2.2897   -0.4481 C   0  0  0  0  0  0  0  0  0  0  0  0
   -1.1834    0.9098    0.2609 C   0  0  0  0  0  0  0  0  0  0  0  0
   -2.6513    1.0395    0.2728 C   0  0  0  0  0  0  0  0  0  0  0  0
   -3.3283    2.1417    0.6231 C   0  0  0  0  0  0  0  0  0  0  0  0
   -4.6836    0.4677    0.0420 C   0  0  0  0  0  0  0  0  0  0  0  0
   -4.6866    1.7738    0.4734 C   0  0  0  0  0  0  0  0  0  0  0  0
    1.4797   -3.2316    1.2257 H   0  0  0  0  0  0  0  0  0  0  0  0
   -0.0590   -2.4235    1.0238 H   0  0  0  0  0  0  0  0  0  0  0  0
   -1.0573   -1.0907   -0.4048 H   0  0  0  0  0  0  0  0  0  0  0  0
    5.7144   -0.9239    0.3442 H   0  0  0  0  0  0  0  0  0  0  0  0
    0.1139   -2.8324   -1.4881 H   0  0  0  0  0  0  0  0  0  0  0  0
    1.6436   -3.6668   -1.2107 H   0  0  0  0  0  0  0  0  0  0  0  0
    0.1438   -4.3299   -0.5415 H   0  0  0  0  0  0  0  0  0  0  0  0
    3.0080    3.0967   -0.7188 H   0  0  0  0  0  0  0  0  0  0  0  0
    6.8215    1.2251   -0.1213 H   0  0  0  0  0  0  0  0  0  0  0  0
    5.4719    3.2359   -0.6529 H   0  0  0  0  0  0  0  0  0  0  0  0
   -0.6437    1.7965    0.5857 H   0  0  0  0  0  0  0  0  0  0  0  0
   -2.9399    3.0969    0.9468 H   0  0  0  0  0  0  0  0  0  0  0  0
   -5.5556    2.3895    0.6587 H   0  0  0  0  0  0  0  0  0  0  0  0
  1 11  2  0  0  0  0
  2 20  1  0  0  0  0
  2 22  1  0  0  0  0
  3  7  1  0  0  0  0
  4  7  2  0  0  0  0
  5  8  1  0  0  0  0
  5 10  1  0  0  0  0
  5 11  1  0  0  0  0
  6 10  2  0  0  0  0
  6 12  1  0  0  0  0
  7 22  1  0  0  0  0
  8 15  1  0  0  0  0
  8 24  1  0  0  0  0
  8 25  1  0  0  0  0
  9 11  1  0  0  0  0
  9 12  1  0  0  0  0
  9 13  2  0  0  0  0
 10 14  1  0  0  0  0
 12 16  2  0  0  0  0
 13 17  1  0  0  0  0
 13 27  1  0  0  0  0
 14 19  2  0  0  0  0
 14 26  1  0  0  0  0
 15 28  1  0  0  0  0
 15 29  1  0  0  0  0
 15 30  1  0  0  0  0
 16 18  1  0  0  0  0
 16 31  1  0  0  0  0
 17 18  2  0  0  0  0
 17 32  1  0  0  0  0
 18 33  1  0  0  0  0
 19 20  1  0  0  0  0
 19 34  1  0  0  0  0
 20 21  2  0  0  0  0
 21 23  1  0  0  0  0
 21 35  1  0  0  0  0
 22 23  2  0  0  0  0
 23 36  1  0  0  0  0
M  CHG  2   3  -1   7   1
M  END
> <PUBCHEM_COMPOUND_CID>
5731123

> <PUBCHEM_CONFORMER_RMSD>
0.6

> <PUBCHEM_CONFORMER_DIVERSEORDER>
4
1
6
5
8
2
7
3
10
9

> <PUBCHEM_MMFF94_PARTIAL_CHARGES>
30
1 -0.57
10 0.5
11 0.54
12 0.18
13 -0.15
14 -0.14
16 -0.15
17 -0.15
18 -0.15
19 -0.11
2 -0.28
20 0.09
21 -0.15
22 0.22
23 -0.15
26 0.15
27 0.15
3 -0.52
31 0.15
32 0.15
33 0.15
34 0.15
35 0.15
36 0.15
4 -0.52
5 -0.42
6 -0.63
7 0.96
8 0.3
9 0.09

> <PUBCHEM_EFFECTIVE_ROTOR_COUNT>
4

> <PUBCHEM_PHARMACOPHORE_FEATURES>
8
1 1 acceptor
1 2 acceptor
1 3 acceptor
1 3 anion
1 4 acceptor
5 2 20 21 22 23 rings
6 5 6 9 10 11 12 rings
6 9 12 13 16 17 18 rings

> <PUBCHEM_HEAVY_ATOM_COUNT>
23

> <PUBCHEM_ATOM_DEF_STEREO_COUNT>
0

> <PUBCHEM_ATOM_UDEF_STEREO_COUNT>
0

> <PUBCHEM_BOND_DEF_STEREO_COUNT>
1

> <PUBCHEM_BOND_UDEF_STEREO_COUNT>
0

> <PUBCHEM_ISOTOPIC_ATOM_COUNT>
0

> <PUBCHEM_COMPONENT_COUNT>
1

> <PUBCHEM_CACTVS_TAUTO_COUNT>
1

> <PUBCHEM_CONFORMER_ID>
0057733300000004

> <PUBCHEM_MMFF94_ENERGY>
58.8911

> <PUBCHEM_FEATURE_SELFOVERLAP>
40.719

> <PUBCHEM_SHAPE_FINGERPRINT>
10090160 65 18334856117004974689
10411042 1 17903353707331740746
10595046 47 18411419514273683401
10835480 77 18260822662740570045
10912923 1 18343304730299224017
12107183 9 17690845557995228593
12236239 1 18201720634869722848
13167823 11 18412543176586577479
13631057 29 18201154468798167135
13836976 161 18335144202416285156
14341114 328 18272935990590281993
14528608 73 18410577288076546260
146900 427 18273221906341891033
14767858 380 18341886454983586031
14790565 3 18411984688898539436
15131766 46 15649322207269520740
15196674 1 18338517443612703857
15250474 111 18341883074866059303
15927050 60 17478610573797705861
16993438 75 18043537324962397331
17492 89 18197780994871992287
17834072 33 18410855456102388737
17844677 252 18267873791479337369
18681886 176 18342734096949808586
19377110 9 18271536320973328689
19489759 90 14923939055544823477
20028762 73 18270677567848336550
20645477 70 18336547110096247234
21033648 29 16370719301554350455
21054139 6 18340762728029858887
21065198 48 18340770343122932097
21197605 99 18336553827578689939
21344244 181 17632032900385528838
21709351 56 18265327313727196422
23558518 356 17611186353612810360
23559900 14 17912921686916117587
23569917 315 18411423908284424050
239999 70 18200318710484518854
245318 6 17823719635668384660
335352 9 18408327692751780276
34797466 226 16917074403430209028
4073 2 17968103048835857395
42630746 31 18409449176778199006
4325135 7 18412544319037484821
4340502 62 18341610443205372800
474 4 18335423456705200976
474229 33 18411139173004652611
5104073 3 18262243213987520097
513532 50 18130235874480501942
5312544 6 18409446994465561062
5486654 2 18342459283113887351
67856867 119 18337667525203148729
7495541 125 17775562069784617017
8272917 22 18267872692141510084
9709674 26 18265060145872533331

> <PUBCHEM_SHAPE_MULTIPOLES>
434.91
14.52
3
0.73
14.34
1.89
0
-4.81
-1.06
-1.87
-0.15
-0.01
0.09
-1.41

> <PUBCHEM_SHAPE_SELFOVERLAP>
951.186

> <PUBCHEM_SHAPE_VOLUME>
234.8

> <PUBCHEM_COORDINATE_TYPE>
2
5
10

$$$$
