2927276
  -OEChem-01171809203D

 40 42  0     1  0  0  0  0  0999 V2000
   -1.8629    0.4587    0.6833 O   0  0  0  0  0  0  0  0  0  0  0  0
   -4.9005   -0.4008   -1.0532 O   0  0  0  0  0  0  0  0  0  0  0  0
   -2.1942   -0.0905   -1.5480 O   0  0  0  0  0  0  0  0  0  0  0  0
    3.5642    1.1140   -0.3365 N   0  0  0  0  0  0  0  0  0  0  0  0
    4.5588    0.0797   -0.0830 C   0  0  0  0  0  0  0  0  0  0  0  0
    3.9432   -1.3022   -0.3643 C   0  0  0  0  0  0  0  0  0  0  0  0
    2.6407   -1.5455    0.4216 C   0  0  1  0  0  0  0  0  0  0  0  0
    1.6992   -0.3584    0.2733 C   0  0  0  0  0  0  0  0  0  0  0  0
    2.2130    0.9083   -0.0827 C   0  0  0  0  0  0  0  0  0  0  0  0
    5.0620    0.2100    1.3622 C   0  0  0  0  0  0  0  0  0  0  0  0
    5.7383    0.3080   -1.0420 C   0  0  0  0  0  0  0  0  0  0  0  0
    2.0422   -2.8840   -0.0319 C   0  0  0  0  0  0  0  0  0  0  0  0
    0.3259   -0.4835    0.5480 C   0  0  0  0  0  0  0  0  0  0  0  0
    1.3258    1.9903   -0.2197 C   0  0  0  0  0  0  0  0  0  0  0  0
   -0.5355    0.6065    0.4218 C   0  0  0  0  0  0  0  0  0  0  0  0
   -0.0371    1.8419    0.0302 C   0  0  0  0  0  0  0  0  0  0  0  0
   -2.6544    0.0895   -0.4246 C   0  0  0  0  0  0  0  0  0  0  0  0
   -4.0670   -0.0496   -0.0646 C   0  0  0  0  0  0  0  0  0  0  0  0
   -4.6843    0.1202    1.1223 C   0  0  0  0  0  0  0  0  0  0  0  0
   -6.0489   -0.1503    0.8626 C   0  0  0  0  0  0  0  0  0  0  0  0
   -6.1286   -0.4624   -0.4747 C   0  0  0  0  0  0  0  0  0  0  0  0
    4.6690   -2.0922   -0.1305 H   0  0  0  0  0  0  0  0  0  0  0  0
    3.7282   -1.3870   -1.4399 H   0  0  0  0  0  0  0  0  0  0  0  0
    2.8825   -1.6351    1.4884 H   0  0  0  0  0  0  0  0  0  0  0  0
    3.8809    2.0656   -0.4873 H   0  0  0  0  0  0  0  0  0  0  0  0
    5.5435    1.1818    1.5238 H   0  0  0  0  0  0  0  0  0  0  0  0
    4.2488    0.1382    2.0919 H   0  0  0  0  0  0  0  0  0  0  0  0
    5.7948   -0.5700    1.5961 H   0  0  0  0  0  0  0  0  0  0  0  0
    5.4130    0.2680   -2.0882 H   0  0  0  0  0  0  0  0  0  0  0  0
    6.1947    1.2923   -0.8845 H   0  0  0  0  0  0  0  0  0  0  0  0
    6.5165   -0.4503   -0.9009 H   0  0  0  0  0  0  0  0  0  0  0  0
    1.2148   -3.1961    0.6130 H   0  0  0  0  0  0  0  0  0  0  0  0
    1.6662   -2.8266   -1.0595 H   0  0  0  0  0  0  0  0  0  0  0  0
    2.7943   -3.6798    0.0105 H   0  0  0  0  0  0  0  0  0  0  0  0
   -0.0896   -1.4351    0.8685 H   0  0  0  0  0  0  0  0  0  0  0  0
    1.6996    2.9686   -0.5154 H   0  0  0  0  0  0  0  0  0  0  0  0
   -0.6996    2.6965   -0.0749 H   0  0  0  0  0  0  0  0  0  0  0  0
   -4.2430    0.4006    2.0679 H   0  0  0  0  0  0  0  0  0  0  0  0
   -6.8716   -0.1216    1.5623 H   0  0  0  0  0  0  0  0  0  0  0  0
   -6.9414   -0.7361   -1.1315 H   0  0  0  0  0  0  0  0  0  0  0  0
  1 15  1  0  0  0  0
  1 17  1  0  0  0  0
  2 18  1  0  0  0  0
  2 21  1  0  0  0  0
  3 17  2  0  0  0  0
  4  5  1  0  0  0  0
  4  9  1  0  0  0  0
  4 25  1  0  0  0  0
  5  6  1  0  0  0  0
  5 10  1  0  0  0  0
  5 11  1  0  0  0  0
  6  7  1  0  0  0  0
  6 22  1  0  0  0  0
  6 23  1  0  0  0  0
  7  8  1  0  0  0  0
  7 12  1  0  0  0  0
  7 24  1  0  0  0  0
  8  9  2  0  0  0  0
  8 13  1  0  0  0  0
  9 14  1  0  0  0  0
 10 26  1  0  0  0  0
 10 27  1  0  0  0  0
 10 28  1  0  0  0  0
 11 29  1  0  0  0  0
 11 30  1  0  0  0  0
 11 31  1  0  0  0  0
 12 32  1  0  0  0  0
 12 33  1  0  0  0  0
 12 34  1  0  0  0  0
 13 15  2  0  0  0  0
 13 35  1  0  0  0  0
 14 16  2  0  0  0  0
 14 36  1  0  0  0  0
 15 16  1  0  0  0  0
 16 37  1  0  0  0  0
 17 18  1  0  0  0  0
 18 19  2  0  0  0  0
 19 20  1  0  0  0  0
 19 38  1  0  0  0  0
 20 21  2  0  0  0  0
 20 39  1  0  0  0  0
 21 40  1  0  0  0  0
M  END
> <PUBCHEM_COMPOUND_CID>
2927276

> <PUBCHEM_CONFORMER_RMSD>
0.6

> <PUBCHEM_CONFORMER_DIVERSEORDER>
1
34
119
153
111
14
182
163
155
126
101
149
180
169
59
17
167
53
200
165
134
139
38
174
109
128
193
113
102
188
177
131
194
5
201
94
7
203
49
110
156
173
198
114
183
190
92
86
185
93
13
196
54
161
58
166
8
87
10
191
20
141
81
76
168
2
112
184
12
39
97
143
192
195
116
124
162
62
43
197
157
96
118
136
22
146
103
186
98
147
104
52
45
160
44
61
89
95
32
90
140
202
137
6
172
130
187
121
31
26
105
154
125
36
18
189
91
35
16
37
171
106
129
84
11
176
148
21
144
138
68
33
15
145
100
85
55
29
159
41
9
123
40
60
164
107
25
23
199
74
122
135
47
77
120
69
170
65
73
78
108
133
46
150
50
179
4
181
151
24
42
158
80
82
115
56
57
70
178
64
117
175
27
48
88
99
132
127
83
142
28
79
63
71
152
51
30
75
66
67
72
3
19

> <PUBCHEM_MMFF94_PARTIAL_CHARGES>
24
1 -0.23
13 -0.15
14 -0.15
15 0.08
16 -0.15
17 0.81
18 0.05
19 -0.15
2 -0.28
20 -0.15
21 -0.01
25 0.4
3 -0.57
35 0.15
36 0.15
37 0.15
38 0.15
39 0.15
4 -0.87
40 0.15
5 0.37
7 0.14
8 -0.14
9 0.1

> <PUBCHEM_EFFECTIVE_ROTOR_COUNT>
3.8

> <PUBCHEM_PHARMACOPHORE_FEATURES>
8
1 2 acceptor
1 3 acceptor
1 4 cation
1 4 donor
3 5 10 11 hydrophobe
5 2 18 19 20 21 rings
6 4 5 6 7 8 9 rings
6 8 9 13 14 15 16 rings

> <PUBCHEM_HEAVY_ATOM_COUNT>
21

> <PUBCHEM_ATOM_DEF_STEREO_COUNT>
0

> <PUBCHEM_ATOM_UDEF_STEREO_COUNT>
1

> <PUBCHEM_BOND_DEF_STEREO_COUNT>
0

> <PUBCHEM_BOND_UDEF_STEREO_COUNT>
0

> <PUBCHEM_ISOTOPIC_ATOM_COUNT>
0

> <PUBCHEM_COMPONENT_COUNT>
1

> <PUBCHEM_CACTVS_TAUTO_COUNT>
1

> <PUBCHEM_CONFORMER_ID>
002CAAAC00000001

> <PUBCHEM_MMFF94_ENERGY>
62.3687

> <PUBCHEM_FEATURE_SELFOVERLAP>
40.623

> <PUBCHEM_SHAPE_FINGERPRINT>
11287383 113 16805608087590061485
11545043 162 14333122009908323671
11963148 33 18260261979839577386
12107183 9 17551805716009554483
12166972 35 12324241654780443238
12236239 1 17846501435106879937
12516196 113 18201718461943208569
12553582 1 18270949193984099549
12596602 18 17131832092582635899
12730499 353 18114188552968998274
13140716 1 18265608982541879408
13533116 47 17632582608986242326
13685833 64 18187652418769485339
13836976 161 18333737939924090806
13862211 1 18408881832762114594
14251764 18 18202286888686684041
14386348 63 17530969090131573555
14863182 85 18411426085832207006
15142383 8 18337391539907227313
15183329 4 18336824204923922781
15475509 35 15122951678280061046
15537594 2 18272367568289837519
17492 89 18121495748481607194
17844677 252 17022905653431212709
1813 80 18341623585330876773
18785283 64 17970071251664172948
200 152 18413109450691893753
20612939 158 18335424620520428141
20645477 70 18334013860996683451
21267235 1 18411989027147863206
212847 35 10879988069310929106
21285901 2 17822571612115338038
21315763 178 18131064931416384783
21344244 181 17845952766247610870
21521721 280 18339929324386767624
21623969 137 18261121780968094603
21641784 216 17895772707105802076
221357 26 18260541221991683429
22224240 67 18272078436277448952
23035841 295 17917996066195877350
23402539 116 14333406740617950361
23536379 177 16415484847795029402
23557571 272 16950276282996941357
23559900 14 18262235629449717201
2871803 45 18335141956048311634
314194 84 18413388726740508683
33824 294 18408603639393917994
345986 75 18058443214756494291
34797466 226 16081382850980730543
351380 180 13623532359168878462
351380 3 18131631179714889551
4072396 5 18187353334263311458
42630746 31 18412262844081782098
4325135 7 17894915135037526934
4340502 62 18059847390248276546
46194498 28 17675928719811204437
465052 167 18202006533636310119
5104073 3 18267860580191506288
54040823 5 17748542632895196680
542803 24 16774077375613362913
59755656 215 18335426738271568894
7495541 125 17022624207938803052

> <PUBCHEM_SHAPE_MULTIPOLES>
409.58
14.08
1.75
1.06
12.5
0.64
0
1.63
-0.22
-1.87
-0.07
0.18
0
-0.26

> <PUBCHEM_SHAPE_SELFOVERLAP>
886.472

> <PUBCHEM_SHAPE_VOLUME>
224.9

> <PUBCHEM_COORDINATE_TYPE>
2
5
10

$$$$
