6906481
  -OEChem-01171810093D

 48 50  0     0  0  0  0  0  0999 V2000
   -4.8937   -0.1022   -1.6788 S   0  0  0  0  0  0  0  0  0  0  0  0
    3.3165    2.0479   -1.1910 F   0  0  0  0  0  0  0  0  0  0  0  0
    3.5705   -2.3549    0.5733 F   0  0  0  0  0  0  0  0  0  0  0  0
    6.2906   -2.2017    0.5451 F   0  0  0  0  0  0  0  0  0  0  0  0
    6.0371    2.1880   -1.2142 F   0  0  0  0  0  0  0  0  0  0  0  0
    7.5289    0.0667   -0.3476 F   0  0  0  0  0  0  0  0  0  0  0  0
   -6.2575   -0.5599   -1.9174 O   0  0  0  0  0  0  0  0  0  0  0  0
   -3.9926    0.0429   -2.8154 O   0  0  0  0  0  0  0  0  0  0  0  0
   -0.3049    3.2740    1.5887 O   0  0  0  0  0  0  0  0  0  0  0  0
   -0.2271   -3.3781    0.9320 O   0  0  0  0  0  0  0  0  0  0  0  0
   -4.9725    1.3847   -0.8119 N   0  0  0  0  0  0  0  0  0  0  0  0
    0.0122   -1.2384    0.0813 N   0  0  0  0  0  0  0  0  0  0  0  0
    1.3641   -1.3044    0.1249 N   0  0  0  0  0  0  0  0  0  0  0  0
   -4.1635   -1.1867   -0.5215 C   0  0  0  0  0  0  0  0  0  0  0  0
   -2.7760   -1.3221   -0.4708 C   0  0  0  0  0  0  0  0  0  0  0  0
   -2.1932   -2.1886    0.4541 C   0  0  0  0  0  0  0  0  0  0  0  0
   -3.7694    1.8718   -0.1928 C   0  0  0  0  0  0  0  0  0  0  0  0
   -4.9679   -1.9179    0.3526 C   0  0  0  0  0  0  0  0  0  0  0  0
   -2.9978   -2.9196    1.3282 C   0  0  0  0  0  0  0  0  0  0  0  0
   -4.3851   -2.7843    1.2775 C   0  0  0  0  0  0  0  0  0  0  0  0
   -2.6555    2.1452   -0.9774 C   0  0  0  0  0  0  0  0  0  0  0  0
   -3.7338    2.0640    1.1831 C   0  0  0  0  0  0  0  0  0  0  0  0
   -0.7469   -2.3302    0.5073 C   0  0  0  0  0  0  0  0  0  0  0  0
   -1.4884    2.6178   -0.3771 C   0  0  0  0  0  0  0  0  0  0  0  0
   -2.5668    2.5367    1.7834 C   0  0  0  0  0  0  0  0  0  0  0  0
   -1.4441    2.8136    1.0033 C   0  0  0  0  0  0  0  0  0  0  0  0
    3.4052   -0.1555   -0.3084 C   0  0  0  0  0  0  0  0  0  0  0  0
    4.0376    1.0018   -0.7636 C   0  0  0  0  0  0  0  0  0  0  0  0
    4.1670   -1.2376    0.1337 C   0  0  0  0  0  0  0  0  0  0  0  0
    1.9536   -0.2338   -0.2948 C   0  0  0  0  0  0  0  0  0  0  0  0
    5.5598   -1.1625    0.1208 C   0  0  0  0  0  0  0  0  0  0  0  0
    5.4304    1.0770   -0.7767 C   0  0  0  0  0  0  0  0  0  0  0  0
    6.1915   -0.0052   -0.3344 C   0  0  0  0  0  0  0  0  0  0  0  0
   -0.3283    3.4516    3.0043 C   0  0  0  0  0  0  0  0  0  0  0  0
   -5.8311    1.5435   -0.2685 H   0  0  0  0  0  0  0  0  0  0  0  0
   -2.1659   -0.7766   -1.1836 H   0  0  0  0  0  0  0  0  0  0  0  0
   -6.0499   -1.8228    0.3367 H   0  0  0  0  0  0  0  0  0  0  0  0
   -2.5633   -3.5962    2.0593 H   0  0  0  0  0  0  0  0  0  0  0  0
   -5.0114   -3.3513    1.9600 H   0  0  0  0  0  0  0  0  0  0  0  0
   -2.6723    2.0301   -2.0561 H   0  0  0  0  0  0  0  0  0  0  0  0
   -4.6031    1.8486    1.7986 H   0  0  0  0  0  0  0  0  0  0  0  0
   -0.6183    2.8360   -0.9903 H   0  0  0  0  0  0  0  0  0  0  0  0
   -2.6008    2.6650    2.8599 H   0  0  0  0  0  0  0  0  0  0  0  0
   -0.3985   -0.3616   -0.2226 H   0  0  0  0  0  0  0  0  0  0  0  0
    1.3901    0.6468   -0.6540 H   0  0  0  0  0  0  0  0  0  0  0  0
   -1.0586    4.2113    3.3026 H   0  0  0  0  0  0  0  0  0  0  0  0
    0.6584    3.8232    3.2996 H   0  0  0  0  0  0  0  0  0  0  0  0
   -0.4812    2.5010    3.5264 H   0  0  0  0  0  0  0  0  0  0  0  0
  1  7  2  0  0  0  0
  1  8  2  0  0  0  0
  1 11  1  0  0  0  0
  1 14  1  0  0  0  0
  2 28  1  0  0  0  0
  3 29  1  0  0  0  0
  4 31  1  0  0  0  0
  5 32  1  0  0  0  0
  6 33  1  0  0  0  0
  9 26  1  0  0  0  0
  9 34  1  0  0  0  0
 10 23  2  0  0  0  0
 11 17  1  0  0  0  0
 11 35  1  0  0  0  0
 12 13  1  0  0  0  0
 12 23  1  0  0  0  0
 12 44  1  0  0  0  0
 13 30  2  0  0  0  0
 14 15  1  0  0  0  0
 14 18  2  0  0  0  0
 15 16  2  0  0  0  0
 15 36  1  0  0  0  0
 16 19  1  0  0  0  0
 16 23  1  0  0  0  0
 17 21  2  0  0  0  0
 17 22  1  0  0  0  0
 18 20  1  0  0  0  0
 18 37  1  0  0  0  0
 19 20  2  0  0  0  0
 19 38  1  0  0  0  0
 20 39  1  0  0  0  0
 21 24  1  0  0  0  0
 21 40  1  0  0  0  0
 22 25  2  0  0  0  0
 22 41  1  0  0  0  0
 24 26  2  0  0  0  0
 24 42  1  0  0  0  0
 25 26  1  0  0  0  0
 25 43  1  0  0  0  0
 27 28  2  0  0  0  0
 27 29  1  0  0  0  0
 27 30  1  0  0  0  0
 28 32  1  0  0  0  0
 29 31  2  0  0  0  0
 30 45  1  0  0  0  0
 31 33  1  0  0  0  0
 32 33  2  0  0  0  0
 34 46  1  0  0  0  0
 34 47  1  0  0  0  0
 34 48  1  0  0  0  0
M  END
> <PUBCHEM_COMPOUND_CID>
6906481

> <PUBCHEM_CONFORMER_RMSD>
1

> <PUBCHEM_CONFORMER_DIVERSEORDER>
1
46
11
3
37
23
66
36
68
34
8
35
5
40
29
65
41
51
7
32
67
49
39
63
33
21
57
56
2
45
25
47
42
14
48
50
64
18
44
60
9
22
43
24
27
30
55
15
16
69
20
62
52
61
38
19
6
53
12
13
54
58
4
17
31
10
28
59
26

> <PUBCHEM_MMFF94_PARTIAL_CHARGES>
45
1 1.45
10 -0.57
11 -0.76
12 -0.37
13 -0.51
14 -0.01
15 -0.15
16 0.09
17 0.2
18 -0.15
19 -0.15
2 -0.19
20 -0.15
21 -0.15
22 -0.15
23 0.54
24 -0.15
25 -0.15
26 0.08
27 0.09
28 0.19
29 0.19
3 -0.19
30 0.3
31 0.19
32 0.19
33 0.19
34 0.28
35 0.42
36 0.15
37 0.15
38 0.15
39 0.15
4 -0.19
40 0.15
41 0.15
42 0.15
43 0.15
44 0.37
45 0.06
5 -0.19
6 -0.19
7 -0.65
8 -0.65
9 -0.36

> <PUBCHEM_EFFECTIVE_ROTOR_COUNT>
8

> <PUBCHEM_PHARMACOPHORE_FEATURES>
10
1 10 acceptor
1 11 donor
1 12 donor
1 13 acceptor
1 7 acceptor
1 8 acceptor
1 9 acceptor
6 14 15 16 18 19 20 rings
6 17 21 22 24 25 26 rings
6 27 28 29 31 32 33 rings

> <PUBCHEM_HEAVY_ATOM_COUNT>
34

> <PUBCHEM_ATOM_DEF_STEREO_COUNT>
0

> <PUBCHEM_ATOM_UDEF_STEREO_COUNT>
0

> <PUBCHEM_BOND_DEF_STEREO_COUNT>
1

> <PUBCHEM_BOND_UDEF_STEREO_COUNT>
0

> <PUBCHEM_ISOTOPIC_ATOM_COUNT>
0

> <PUBCHEM_COMPONENT_COUNT>
1

> <PUBCHEM_CACTVS_TAUTO_COUNT>
2

> <PUBCHEM_CONFORMER_ID>
0069627100000001

> <PUBCHEM_MMFF94_ENERGY>
84.1827

> <PUBCHEM_FEATURE_SELFOVERLAP>
50.772

> <PUBCHEM_SHAPE_FINGERPRINT>
10032420 55 18195784320590258277
12788726 201 18342175553274377290
13111901 137 18057317491297544128
14068700 675 17704066339864655449
14394314 77 18337675205380997709
14395042 70 14829417125023483721
14931854 50 18338785750731304141
14932702 115 18120951751976270301
15183329 4 18333448716948073974
15351339 4 18261383442975917018
17844677 252 18187654643067224366
19958102 18 18261392213626065694
20771845 35 17250916009974943963
20775438 99 16904922781609596479
21236236 1 18411141324667086970
23559900 14 18334850666681069564
329604 57 18412547647405082436
3493558 16 18337114449569808590
4073 2 17095808845062773810
469060 322 17313966194135095715
5171179 24 17774144829873134905
6299153 45 18114455644654363130

> <PUBCHEM_SHAPE_MULTIPOLES>
628.76
15.81
4.4
1.85
24.18
1.24
0.15
-3.3
-5.88
-2.99
2.93
-2.32
1.23
-0.76

> <PUBCHEM_SHAPE_SELFOVERLAP>
1357.168

> <PUBCHEM_SHAPE_VOLUME>
348

> <PUBCHEM_COORDINATE_TYPE>
2
5
10

$$$$
