6351343
  -OEChem-01171810073D

 56 60  0     1  0  0  0  0  0999 V2000
   -5.5958   -1.0728    1.0507 O   0  0  0  0  0  0  0  0  0  0  0  0
   -0.9968   -2.3988    0.4763 O   0  0  0  0  0  0  0  0  0  0  0  0
    4.5835   -0.3685   -1.7072 O   0  0  0  0  0  0  0  0  0  0  0  0
    8.3078   -0.0757   -0.7655 O   0  0  0  0  0  0  0  0  0  0  0  0
    7.0189   -0.9696    0.8885 O   0  0  0  0  0  0  0  0  0  0  0  0
    1.1756   -3.0028    0.2182 O   0  0  0  0  0  0  0  0  0  0  0  0
    5.0458    0.7978    0.2377 N   0  0  0  0  0  0  0  0  0  0  0  0
    6.4176    1.1520   -0.1025 C   0  0  1  0  0  0  0  0  0  0  0  0
    6.7933    2.2449    0.8914 C   0  0  0  0  0  0  0  0  0  0  0  0
    5.9420    1.9188    2.1160 C   0  0  0  0  0  0  0  0  0  0  0  0
    4.6493    1.3905    1.5126 C   0  0  0  0  0  0  0  0  0  0  0  0
   -5.4557    0.8559   -0.1198 C   0  0  0  0  0  0  0  0  0  0  0  0
   -5.9579    2.1298   -0.6992 C   0  0  0  0  0  0  0  0  0  0  0  0
   -7.5022    2.1522   -0.7182 C   0  0  0  0  0  0  0  0  0  0  0  0
   -6.2648    0.0197    0.6160 C   0  0  0  0  0  0  0  0  0  0  0  0
   -8.1179    1.6365    0.6008 C   0  0  0  0  0  0  0  0  0  0  0  0
   -7.7019    0.1855    0.9189 C   0  0  0  0  0  0  0  0  0  0  0  0
   -4.1778    0.2411   -0.1398 C   0  0  0  0  0  0  0  0  0  0  0  0
    4.2128    0.1191   -0.6380 C   0  0  0  0  0  0  0  0  0  0  0  0
    2.7760   -0.0105   -0.1993 C   0  0  0  0  0  0  0  0  0  0  0  0
   -4.3163   -0.9373    0.5909 C   0  0  0  0  0  0  0  0  0  0  0  0
    1.9549   -0.7677   -1.2275 C   0  0  0  0  0  0  0  0  0  0  0  0
    7.2511   -0.0800    0.0834 C   0  0  0  0  0  0  0  0  0  0  0  0
   -1.8284   -0.3312   -0.5042 C   0  0  0  0  0  0  0  0  0  0  0  0
   -2.9157    0.5477   -0.6909 C   0  0  0  0  0  0  0  0  0  0  0  0
    0.5239   -0.9441   -0.7869 C   0  0  0  0  0  0  0  0  0  0  0  0
   -0.4770   -0.0774   -1.0514 C   0  0  0  0  0  0  0  0  0  0  0  0
   -2.0450   -1.4887    0.2431 C   0  0  0  0  0  0  0  0  0  0  0  0
   -3.2790   -1.8353    0.8107 C   0  0  0  0  0  0  0  0  0  0  0  0
    0.2852   -2.1869    0.0003 C   0  0  0  0  0  0  0  0  0  0  0  0
   -0.3055    1.1559   -1.9046 C   0  0  0  0  0  0  0  0  0  0  0  0
    6.4642    1.4811   -1.1461 H   0  0  0  0  0  0  0  0  0  0  0  0
    6.4972    3.2239    0.4954 H   0  0  0  0  0  0  0  0  0  0  0  0
    7.8614    2.2780    1.1268 H   0  0  0  0  0  0  0  0  0  0  0  0
    6.4277    1.1364    2.7110 H   0  0  0  0  0  0  0  0  0  0  0  0
    5.7797    2.7844    2.7643 H   0  0  0  0  0  0  0  0  0  0  0  0
    4.1593    0.6510    2.1515 H   0  0  0  0  0  0  0  0  0  0  0  0
    3.9479    2.2055    1.3037 H   0  0  0  0  0  0  0  0  0  0  0  0
   -5.5910    2.9646   -0.0899 H   0  0  0  0  0  0  0  0  0  0  0  0
   -5.5758    2.2700   -1.7163 H   0  0  0  0  0  0  0  0  0  0  0  0
   -7.8481    3.1731   -0.9163 H   0  0  0  0  0  0  0  0  0  0  0  0
   -7.8641    1.5260   -1.5441 H   0  0  0  0  0  0  0  0  0  0  0  0
   -9.2108    1.7003    0.5537 H   0  0  0  0  0  0  0  0  0  0  0  0
   -7.7949    2.2938    1.4188 H   0  0  0  0  0  0  0  0  0  0  0  0
   -8.2821   -0.5070    0.2985 H   0  0  0  0  0  0  0  0  0  0  0  0
   -7.9139   -0.0444    1.9680 H   0  0  0  0  0  0  0  0  0  0  0  0
    2.3618    0.9934   -0.0518 H   0  0  0  0  0  0  0  0  0  0  0  0
    2.7514   -0.5389    0.7606 H   0  0  0  0  0  0  0  0  0  0  0  0
    2.0069   -0.2683   -2.2016 H   0  0  0  0  0  0  0  0  0  0  0  0
    2.4100   -1.7474   -1.4260 H   0  0  0  0  0  0  0  0  0  0  0  0
   -2.8143    1.4675   -1.2590 H   0  0  0  0  0  0  0  0  0  0  0  0
   -3.4176   -2.7426    1.3862 H   0  0  0  0  0  0  0  0  0  0  0  0
   -0.5695    2.0551   -1.3366 H   0  0  0  0  0  0  0  0  0  0  0  0
   -0.9414    1.0985   -2.7950 H   0  0  0  0  0  0  0  0  0  0  0  0
    0.7152    1.3171   -2.2559 H   0  0  0  0  0  0  0  0  0  0  0  0
    8.8672   -0.8743   -0.6581 H   0  0  0  0  0  0  0  0  0  0  0  0
  1 15  1  0  0  0  0
  1 21  1  0  0  0  0
  2 28  1  0  0  0  0
  2 30  1  0  0  0  0
  3 19  2  0  0  0  0
  4 23  1  0  0  0  0
  4 56  1  0  0  0  0
  5 23  2  0  0  0  0
  6 30  2  0  0  0  0
  7  8  1  0  0  0  0
  7 11  1  0  0  0  0
  7 19  1  0  0  0  0
  8  9  1  0  0  0  0
  8 23  1  0  0  0  0
  8 32  1  0  0  0  0
  9 10  1  0  0  0  0
  9 33  1  0  0  0  0
  9 34  1  0  0  0  0
 10 11  1  0  0  0  0
 10 35  1  0  0  0  0
 10 36  1  0  0  0  0
 11 37  1  0  0  0  0
 11 38  1  0  0  0  0
 12 13  1  0  0  0  0
 12 15  2  0  0  0  0
 12 18  1  0  0  0  0
 13 14  1  0  0  0  0
 13 39  1  0  0  0  0
 13 40  1  0  0  0  0
 14 16  1  0  0  0  0
 14 41  1  0  0  0  0
 14 42  1  0  0  0  0
 15 17  1  0  0  0  0
 16 17  1  0  0  0  0
 16 43  1  0  0  0  0
 16 44  1  0  0  0  0
 17 45  1  0  0  0  0
 17 46  1  0  0  0  0
 18 21  2  0  0  0  0
 18 25  1  0  0  0  0
 19 20  1  0  0  0  0
 20 22  1  0  0  0  0
 20 47  1  0  0  0  0
 20 48  1  0  0  0  0
 21 29  1  0  0  0  0
 22 26  1  0  0  0  0
 22 49  1  0  0  0  0
 22 50  1  0  0  0  0
 24 25  2  0  0  0  0
 24 27  1  0  0  0  0
 24 28  1  0  0  0  0
 25 51  1  0  0  0  0
 26 27  2  0  0  0  0
 26 30  1  0  0  0  0
 27 31  1  0  0  0  0
 28 29  2  0  0  0  0
 29 52  1  0  0  0  0
 31 53  1  0  0  0  0
 31 54  1  0  0  0  0
 31 55  1  0  0  0  0
M  END
> <PUBCHEM_COMPOUND_CID>
6351343

> <PUBCHEM_CONFORMER_RMSD>
0.8

> <PUBCHEM_CONFORMER_DIVERSEORDER>
1
59
34
11
13
40
56
47
39
3
12
22
60
30
62
44
31
35
7
38
8
28
18
27
42
15
61
24
2
49
5
16
19
6
21
55
48
4
57
33
17
14
9
25
58
20
32
45
10
46
50
54
36
37
53
29
41
52
23
51
63
43
26

> <PUBCHEM_MMFF94_PARTIAL_CHARGES>
29
1 -0.28
11 0.3
12 -0.18
13 0.18
15 -0.04
17 0.18
19 0.57
2 -0.23
20 0.06
21 0.14
22 0.14
23 0.66
24 0.03
25 -0.15
26 -0.12
27 -0.17
28 0.08
29 -0.15
3 -0.57
30 0.71
31 0.14
4 -0.65
5 -0.57
51 0.15
52 0.15
56 0.5
6 -0.57
7 -0.66
8 0.36

> <PUBCHEM_EFFECTIVE_ROTOR_COUNT>
6.8

> <PUBCHEM_PHARMACOPHORE_FEATURES>
11
1 1 acceptor
1 3 acceptor
1 4 acceptor
1 5 acceptor
1 6 acceptor
3 4 5 23 anion
5 1 12 15 18 21 rings
5 7 8 9 10 11 rings
6 12 13 14 15 16 17 rings
6 18 21 24 25 28 29 rings
6 2 24 26 27 28 30 rings

> <PUBCHEM_HEAVY_ATOM_COUNT>
31

> <PUBCHEM_ATOM_DEF_STEREO_COUNT>
1

> <PUBCHEM_ATOM_UDEF_STEREO_COUNT>
0

> <PUBCHEM_BOND_DEF_STEREO_COUNT>
0

> <PUBCHEM_BOND_UDEF_STEREO_COUNT>
0

> <PUBCHEM_ISOTOPIC_ATOM_COUNT>
0

> <PUBCHEM_COMPONENT_COUNT>
1

> <PUBCHEM_CACTVS_TAUTO_COUNT>
1

> <PUBCHEM_CONFORMER_ID>
0060E9EF00000001

> <PUBCHEM_MMFF94_ENERGY>
71.0221

> <PUBCHEM_FEATURE_SELFOVERLAP>
56.102

> <PUBCHEM_SHAPE_FINGERPRINT>
10 15 18041001747614926813
10006869 2 18269265785989785388
10076449 9 11025800886186588710
10299344 5 16153429454197269812
10319926 262 18188209909234079778
10674148 151 18113617903246692506
11408170 108 12107790701675360113
11456790 92 18341608184105401448
11828532 37 11023813016287131140
12838862 33 18040709248544078573
13540713 4 17461430335293686671
13673619 4 11674877801140277903
13685833 64 11818992980657444516
13878862 14 17131542921636668528
14028597 1 16226041159494642345
14767858 380 13686301274838552053
15183329 4 14836409154849097208
15289351 153 18270959029944549720
15301273 46 18113899338460960308
15461852 350 18201998863499849023
15510800 12 10881398699516429681
18335252 114 16917066655509303576
18603816 31 13262690266112591337
19301679 30 15141228881078731974
20105231 36 15140961734703934146
2026 5 10737279148213178857
20554085 129 18410577279813776182
21033648 29 18410855494498488643
21150785 3 13110960920356665279
21792934 111 17895753994164641127
22224240 67 18407759252986505855
23522609 53 16226917508710256639
23559900 14 18262533484751680959
23576562 1 13470102134858846825
24771293 8 18337389439045598053
2838139 119 16917073269210170744
3411729 13 18260829263266780754
397638 26 18409443704467702890
4093350 32 18059858307638937990
504579 68 14405183958842668301
5104073 3 17896329022035571579
5385378 56 18261392204904508962
58902169 19 15698000738725171260
6058803 2 16954526088532878855
636775 72 18340489951280567393
9689198 14 18410572911657833432
9962374 69 11603119313314936347
999808 66 11025796488193000537

> <PUBCHEM_SHAPE_MULTIPOLES>
597.77
25.3
2.37
1.4
7.08
0.38
0.01
-15.45
-6.1
-0.5
-0.53
1.06
-0.42
2.49

> <PUBCHEM_SHAPE_SELFOVERLAP>
1315.178

> <PUBCHEM_SHAPE_VOLUME>
322.4

> <PUBCHEM_COORDINATE_TYPE>
2
5
10

$$$$
