2200235
  -OEChem-01171809293D

 51 54  0     0  0  0  0  0  0999 V2000
   -2.0338   -1.6037    2.4719 S   0  0  0  0  0  0  0  0  0  0  0  0
    6.1694    1.6553   -0.1012 O   0  0  0  0  0  0  0  0  0  0  0  0
    4.1431    2.7011   -0.0443 O   0  0  0  0  0  0  0  0  0  0  0  0
   -3.8309    0.8082   -1.1049 O   0  0  0  0  0  0  0  0  0  0  0  0
   -1.5341   -0.0317    0.2378 N   0  0  0  0  0  0  0  0  0  0  0  0
   -3.7804   -0.5001    0.8385 N   0  0  0  0  0  0  0  0  0  0  0  0
    4.1071    0.3219   -0.0450 C   0  0  0  0  0  0  0  0  0  0  0  0
    2.6370    0.2298    0.0292 C   0  0  0  0  0  0  0  0  0  0  0  0
    6.2809   -0.7694   -0.1383 C   0  0  0  0  0  0  0  0  0  0  0  0
    4.8289   -0.8086   -0.0805 C   0  0  0  0  0  0  0  0  0  0  0  0
   -6.5896   -0.8198   -0.8250 C   0  0  0  0  0  0  0  0  0  0  0  0
    6.9189    0.4652   -0.1448 C   0  0  0  0  0  0  0  0  0  0  0  0
   -5.8895    0.1834   -0.1853 C   0  0  0  0  0  0  0  0  0  0  0  0
    2.0028    0.1871    1.2704 C   0  0  0  0  0  0  0  0  0  0  0  0
    1.8820    0.1849   -1.1427 C   0  0  0  0  0  0  0  0  0  0  0  0
   -0.1432    0.0547    0.1683 C   0  0  0  0  0  0  0  0  0  0  0  0
   -8.6495    0.2163   -0.1037 C   0  0  0  0  0  0  0  0  0  0  0  0
    4.7776    1.6511   -0.0601 C   0  0  0  0  0  0  0  0  0  0  0  0
   -7.9838   -0.8035   -0.7838 C   0  0  0  0  0  0  0  0  0  0  0  0
    0.6123    0.0994    1.3399 C   0  0  0  0  0  0  0  0  0  0  0  0
    0.4916    0.0975   -1.0730 C   0  0  0  0  0  0  0  0  0  0  0  0
   -6.5270    1.2033    0.4943 C   0  0  0  0  0  0  0  0  0  0  0  0
    7.0572   -1.9299   -0.1835 C   0  0  0  0  0  0  0  0  0  0  0  0
   -7.9211    1.2196    0.5354 C   0  0  0  0  0  0  0  0  0  0  0  0
    8.3072    0.5739   -0.1957 C   0  0  0  0  0  0  0  0  0  0  0  0
   -4.4049    0.1906   -0.2128 C   0  0  0  0  0  0  0  0  0  0  0  0
   -5.9019   -1.9234   -1.5610 C   0  0  0  0  0  0  0  0  0  0  0  0
    8.4511   -1.8376   -0.2351 C   0  0  0  0  0  0  0  0  0  0  0  0
    9.0744   -0.5879   -0.2412 C   0  0  0  0  0  0  0  0  0  0  0  0
  -10.1402    0.2339   -0.0590 C   0  0  0  0  0  0  0  0  0  0  0  0
   -2.4117   -0.6615    1.1354 C   0  0  0  0  0  0  0  0  0  0  0  0
    4.3533   -1.7853   -0.0644 H   0  0  0  0  0  0  0  0  0  0  0  0
    2.5777    0.2362    2.1920 H   0  0  0  0  0  0  0  0  0  0  0  0
    2.3624    0.2180   -2.1175 H   0  0  0  0  0  0  0  0  0  0  0  0
   -8.5566   -1.5825   -1.2814 H   0  0  0  0  0  0  0  0  0  0  0  0
    0.1610    0.1352    2.3247 H   0  0  0  0  0  0  0  0  0  0  0  0
   -0.0848    0.0627   -1.9940 H   0  0  0  0  0  0  0  0  0  0  0  0
   -5.9660    1.9879    0.9937 H   0  0  0  0  0  0  0  0  0  0  0  0
    6.5916   -2.9124   -0.1791 H   0  0  0  0  0  0  0  0  0  0  0  0
   -8.4279    2.0206    1.0671 H   0  0  0  0  0  0  0  0  0  0  0  0
    8.7899    1.5463   -0.2005 H   0  0  0  0  0  0  0  0  0  0  0  0
   -5.3006   -2.5261   -0.8725 H   0  0  0  0  0  0  0  0  0  0  0  0
   -6.6163   -2.5970   -2.0467 H   0  0  0  0  0  0  0  0  0  0  0  0
   -5.2556   -1.5179   -2.3466 H   0  0  0  0  0  0  0  0  0  0  0  0
   -1.9848    0.2405   -0.6325 H   0  0  0  0  0  0  0  0  0  0  0  0
    9.0520   -2.7419   -0.2704 H   0  0  0  0  0  0  0  0  0  0  0  0
   10.1578   -0.5226   -0.2813 H   0  0  0  0  0  0  0  0  0  0  0  0
  -10.5453   -0.7836   -0.0418 H   0  0  0  0  0  0  0  0  0  0  0  0
  -10.5046    0.7386    0.8422 H   0  0  0  0  0  0  0  0  0  0  0  0
  -10.5361    0.7557   -0.9359 H   0  0  0  0  0  0  0  0  0  0  0  0
   -4.4043   -0.9619    1.4968 H   0  0  0  0  0  0  0  0  0  0  0  0
  1 31  2  0  0  0  0
  2 12  1  0  0  0  0
  2 18  1  0  0  0  0
  3 18  2  0  0  0  0
  4 26  2  0  0  0  0
  5 16  1  0  0  0  0
  5 31  1  0  0  0  0
  5 45  1  0  0  0  0
  6 26  1  0  0  0  0
  6 31  1  0  0  0  0
  6 51  1  0  0  0  0
  7  8  1  0  0  0  0
  7 10  2  0  0  0  0
  7 18  1  0  0  0  0
  8 14  2  0  0  0  0
  8 15  1  0  0  0  0
  9 10  1  0  0  0  0
  9 12  1  0  0  0  0
  9 23  2  0  0  0  0
 10 32  1  0  0  0  0
 11 13  2  0  0  0  0
 11 19  1  0  0  0  0
 11 27  1  0  0  0  0
 12 25  2  0  0  0  0
 13 22  1  0  0  0  0
 13 26  1  0  0  0  0
 14 20  1  0  0  0  0
 14 33  1  0  0  0  0
 15 21  2  0  0  0  0
 15 34  1  0  0  0  0
 16 20  2  0  0  0  0
 16 21  1  0  0  0  0
 17 19  2  0  0  0  0
 17 24  1  0  0  0  0
 17 30  1  0  0  0  0
 19 35  1  0  0  0  0
 20 36  1  0  0  0  0
 21 37  1  0  0  0  0
 22 24  2  0  0  0  0
 22 38  1  0  0  0  0
 23 28  1  0  0  0  0
 23 39  1  0  0  0  0
 24 40  1  0  0  0  0
 25 29  1  0  0  0  0
 25 41  1  0  0  0  0
 27 42  1  0  0  0  0
 27 43  1  0  0  0  0
 27 44  1  0  0  0  0
 28 29  2  0  0  0  0
 28 46  1  0  0  0  0
 29 47  1  0  0  0  0
 30 48  1  0  0  0  0
 30 49  1  0  0  0  0
 30 50  1  0  0  0  0
M  END
> <PUBCHEM_COMPOUND_CID>
2200235

> <PUBCHEM_CONFORMER_RMSD>
0.8

> <PUBCHEM_CONFORMER_DIVERSEORDER>
3
21
36
30
20
16
24
5
31
14
19
11
26
25
29
33
37
13
4
23
18
38
32
7
15
10
22
27
34
6
9
28
35
8
12
1
17
2

> <PUBCHEM_MMFF94_PARTIAL_CHARGES>
45
1 -0.38
10 -0.18
11 -0.14
12 0.08
13 0.09
14 -0.15
15 -0.15
16 0.12
17 -0.14
18 0.71
19 -0.15
2 -0.23
20 -0.15
21 -0.15
22 -0.15
23 -0.15
24 -0.15
25 -0.15
26 0.54
27 0.14
28 -0.15
29 -0.15
3 -0.57
30 0.14
31 0.5
32 0.15
33 0.15
34 0.15
35 0.15
36 0.15
37 0.15
38 0.15
39 0.15
4 -0.57
40 0.15
41 0.15
45 0.37
46 0.15
47 0.15
5 -0.55
51 0.37
6 -0.49
7 -0.01
8 0.03
9 0.03

> <PUBCHEM_EFFECTIVE_ROTOR_COUNT>
6

> <PUBCHEM_PHARMACOPHORE_FEATURES>
9
1 1 acceptor
1 3 acceptor
1 4 acceptor
1 5 donor
1 6 donor
6 11 13 17 19 22 24 rings
6 2 7 9 10 12 18 rings
6 8 14 15 16 20 21 rings
6 9 12 23 25 28 29 rings

> <PUBCHEM_HEAVY_ATOM_COUNT>
31

> <PUBCHEM_ATOM_DEF_STEREO_COUNT>
0

> <PUBCHEM_ATOM_UDEF_STEREO_COUNT>
0

> <PUBCHEM_BOND_DEF_STEREO_COUNT>
0

> <PUBCHEM_BOND_UDEF_STEREO_COUNT>
0

> <PUBCHEM_ISOTOPIC_ATOM_COUNT>
0

> <PUBCHEM_COMPONENT_COUNT>
1

> <PUBCHEM_CACTVS_TAUTO_COUNT>
5

> <PUBCHEM_CONFORMER_ID>
002192AB00000003

> <PUBCHEM_MMFF94_ENERGY>
119.1635

> <PUBCHEM_FEATURE_SELFOVERLAP>
45.736

> <PUBCHEM_SHAPE_FINGERPRINT>
10050765 1 16628535137166106214
10076449 9 15646772284753205775
10299344 5 18272650151742201831
106641 1 9007053570025350779
11135609 127 18115593785645481820
11135926 11 15913042089288328213
11719270 70 17060622183159962630
12082328 90 18272650143484609189
12089408 11 17988924478792502853
12522641 33 18409446956433971215
13617811 41 15647055937589695166
13914758 101 18341898467405907872
14040222 275 18337411378160870516
14118638 360 16515675594667013385
14251764 46 18410575080373392879
14294032 229 15141510343112799134
15065858 18 13758072979032110825
15131766 46 17627780139955263704
15183329 4 18040149608733653555
15247644 1 16558747923756728143
15347591 1 18193841676690321046
15419008 47 17603298258952002124
15510794 2 18114186353824592547
15840311 113 17967536817301127436
15849732 13 15285360617679799855
16728433 110 17489582389603176393
1754911 235 18186795882057835437
18335252 98 10375875168913649424
19301679 30 17416974920573431142
21781055 127 17532108106731583365
21792934 111 15769769152820301250
21792961 116 16630529514579515705
232437 2 18272088310523573015
23559900 14 18114184185551760736
249057 25 18059871570751194720
249057 3 17095248037727742462
3092352 35 18273495681275871071
335352 9 17095527304970047550
3633792 109 18410577266891841034
4098825 35 18341894052691236801
4339292 15 16558455492792919463
4625314 4 18341610451742599189
474113 269 18272373023963945778
5283156 175 17917993871266979488
58902169 19 18271803575144640629
59682541 35 12175616287276794934
6081469 158 18187081745758341396
67123 10 18343582944999838397
9663363 56 15410892951038807474
99344 41 18202565068553710183

> <PUBCHEM_SHAPE_MULTIPOLES>
614.24
33.79
1.66
1.29
12.43
0.08
-0.48
-2.26
6.4
-1.77
-0.01
1.44
-0.55
-0.46

> <PUBCHEM_SHAPE_SELFOVERLAP>
1337.259

> <PUBCHEM_SHAPE_VOLUME>
336.4

> <PUBCHEM_COORDINATE_TYPE>
2
5
10

$$$$
