49786708
  -OEChem-01171810193D

 57 60  0     0  0  0  0  0  0999 V2000
   -1.1118    3.8930    0.4351 F   0  0  0  0  0  0  0  0  0  0  0  0
    3.4317    4.9196    1.2878 F   0  0  0  0  0  0  0  0  0  0  0  0
    0.8153    5.6999    1.1380 F   0  0  0  0  0  0  0  0  0  0  0  0
   -4.9682   -2.1581    0.0419 O   0  0  0  0  0  0  0  0  0  0  0  0
    6.0294    0.5185   -1.5224 O   0  0  0  0  0  0  0  0  0  0  0  0
    1.6921   -1.9146   -0.0089 N   0  0  0  0  0  0  0  0  0  0  0  0
    2.9749   -3.6104   -0.6972 N   0  0  0  0  0  0  0  0  0  0  0  0
    5.0661   -1.6098   -1.3447 N   0  0  0  0  0  0  0  0  0  0  0  0
   -3.4432   -0.6532   -0.8452 N   0  0  0  0  0  0  0  0  0  0  0  0
   -5.8612    2.1213   -1.4176 N   0  0  0  0  0  0  0  0  0  0  0  0
    0.9579   -3.0582    0.1762 C   0  0  0  0  0  0  0  0  0  0  0  0
    2.9165   -2.3020   -0.5435 C   0  0  0  0  0  0  0  0  0  0  0  0
    2.2273    0.3961    0.0030 C   0  0  0  0  0  0  0  0  0  0  0  0
    1.3466   -0.5933    0.2630 C   0  0  0  0  0  0  0  0  0  0  0  0
   -0.3812   -3.1056    0.7146 C   0  0  0  0  0  0  0  0  0  0  0  0
    3.8552   -1.2644   -0.8200 C   0  0  0  0  0  0  0  0  0  0  0  0
    3.5294    0.0180   -0.5606 C   0  0  0  0  0  0  0  0  0  0  0  0
    1.7666   -4.0828   -0.2540 C   0  0  0  0  0  0  0  0  0  0  0  0
   -1.4174   -2.4313    0.0687 C   0  0  0  0  0  0  0  0  0  0  0  0
    1.8554    1.7922    0.3026 C   0  0  0  0  0  0  0  0  0  0  0  0
   -2.7106   -2.4773    0.5891 C   0  0  0  0  0  0  0  0  0  0  0  0
   -0.6382   -3.8262    1.8811 C   0  0  0  0  0  0  0  0  0  0  0  0
   -4.4042    0.1619   -1.5529 C   0  0  0  0  0  0  0  0  0  0  0  0
   -4.9163    1.2958   -0.6767 C   0  0  0  0  0  0  0  0  0  0  0  0
   -2.9677   -3.1978    1.7556 C   0  0  0  0  0  0  0  0  0  0  0  0
   -3.7916   -1.7749   -0.0839 C   0  0  0  0  0  0  0  0  0  0  0  0
   -1.9314   -3.8722    2.4015 C   0  0  0  0  0  0  0  0  0  0  0  0
    2.8388    2.7141    0.6612 C   0  0  0  0  0  0  0  0  0  0  0  0
    0.5208    2.1905    0.2263 C   0  0  0  0  0  0  0  0  0  0  0  0
    0.1696    3.5106    0.5086 C   0  0  0  0  0  0  0  0  0  0  0  0
    2.4876    4.0343    0.9434 C   0  0  0  0  0  0  0  0  0  0  0  0
   -5.9676    3.4517   -0.8151 C   0  0  0  0  0  0  0  0  0  0  0  0
   -7.1772    1.4812   -1.4683 C   0  0  0  0  0  0  0  0  0  0  0  0
    1.1530    4.4325    0.8670 C   0  0  0  0  0  0  0  0  0  0  0  0
    6.0534   -0.6990   -1.6536 C   0  0  0  0  0  0  0  0  0  0  0  0
    0.3762   -0.4281    0.7131 H   0  0  0  0  0  0  0  0  0  0  0  0
    4.1512    0.8703   -0.7691 H   0  0  0  0  0  0  0  0  0  0  0  0
    1.5445   -5.1405   -0.2699 H   0  0  0  0  0  0  0  0  0  0  0  0
   -1.2031   -1.9123   -0.8624 H   0  0  0  0  0  0  0  0  0  0  0  0
    0.1574   -4.3556    2.4000 H   0  0  0  0  0  0  0  0  0  0  0  0
   -3.8952    0.5570   -2.4392 H   0  0  0  0  0  0  0  0  0  0  0  0
   -5.2138   -0.4913   -1.8922 H   0  0  0  0  0  0  0  0  0  0  0  0
   -4.0429    1.8936   -0.3808 H   0  0  0  0  0  0  0  0  0  0  0  0
   -5.3490    0.9135    0.2575 H   0  0  0  0  0  0  0  0  0  0  0  0
   -3.9672   -3.2426    2.1802 H   0  0  0  0  0  0  0  0  0  0  0  0
    5.2467   -2.5956   -1.5161 H   0  0  0  0  0  0  0  0  0  0  0  0
   -2.1313   -4.4318    3.3106 H   0  0  0  0  0  0  0  0  0  0  0  0
   -2.4820   -0.3297   -0.8647 H   0  0  0  0  0  0  0  0  0  0  0  0
    3.8852    2.4375    0.7548 H   0  0  0  0  0  0  0  0  0  0  0  0
   -0.2746    1.5146   -0.0759 H   0  0  0  0  0  0  0  0  0  0  0  0
   -7.5951    1.3119   -0.4690 H   0  0  0  0  0  0  0  0  0  0  0  0
   -6.6600    4.0795   -1.3871 H   0  0  0  0  0  0  0  0  0  0  0  0
   -6.3177    3.4076    0.2227 H   0  0  0  0  0  0  0  0  0  0  0  0
   -4.9983    3.9625   -0.8326 H   0  0  0  0  0  0  0  0  0  0  0  0
   -7.8822    2.1074   -2.0275 H   0  0  0  0  0  0  0  0  0  0  0  0
   -7.1432    0.5234   -1.9961 H   0  0  0  0  0  0  0  0  0  0  0  0
    6.9377   -1.2153   -2.0630 H   0  0  0  0  0  0  0  0  0  0  0  0
  1 30  1  0  0  0  0
  2 31  1  0  0  0  0
  3 34  1  0  0  0  0
  4 26  2  0  0  0  0
  5 35  2  0  0  0  0
  6 11  1  0  0  0  0
  6 12  1  0  0  0  0
  6 14  1  0  0  0  0
  7 12  2  0  0  0  0
  7 18  1  0  0  0  0
  8 16  1  0  0  0  0
  8 35  1  0  0  0  0
  8 46  1  0  0  0  0
  9 23  1  0  0  0  0
  9 26  1  0  0  0  0
  9 48  1  0  0  0  0
 10 24  1  0  0  0  0
 10 32  1  0  0  0  0
 10 33  1  0  0  0  0
 11 15  1  0  0  0  0
 11 18  2  0  0  0  0
 12 16  1  0  0  0  0
 13 14  2  0  0  0  0
 13 17  1  0  0  0  0
 13 20  1  0  0  0  0
 14 36  1  0  0  0  0
 15 19  2  0  0  0  0
 15 22  1  0  0  0  0
 16 17  2  0  0  0  0
 17 37  1  0  0  0  0
 18 38  1  0  0  0  0
 19 21  1  0  0  0  0
 19 39  1  0  0  0  0
 20 28  2  0  0  0  0
 20 29  1  0  0  0  0
 21 25  2  0  0  0  0
 21 26  1  0  0  0  0
 22 27  2  0  0  0  0
 22 40  1  0  0  0  0
 23 24  1  0  0  0  0
 23 41  1  0  0  0  0
 23 42  1  0  0  0  0
 24 43  1  0  0  0  0
 24 44  1  0  0  0  0
 25 27  1  0  0  0  0
 25 45  1  0  0  0  0
 27 47  1  0  0  0  0
 28 31  1  0  0  0  0
 28 49  1  0  0  0  0
 29 30  2  0  0  0  0
 29 50  1  0  0  0  0
 30 34  1  0  0  0  0
 31 34  2  0  0  0  0
 32 52  1  0  0  0  0
 32 53  1  0  0  0  0
 32 54  1  0  0  0  0
 33 51  1  0  0  0  0
 33 55  1  0  0  0  0
 33 56  1  0  0  0  0
 35 57  1  0  0  0  0
M  END
> <PUBCHEM_COMPOUND_CID>
49786708

> <PUBCHEM_CONFORMER_RMSD>
1

> <PUBCHEM_CONFORMER_DIVERSEORDER>
1
8
53
82
78
38
80
81
39
29
66
75
31
48
61
34
35
64
72
54
45
71
36
57
62
40
44
43
70
18
6
28
68
10
50
59
22
56
30
46
79
7
13
52
25
51
19
76
58
9
60
16
67
5
37
49
69
55
74
26
27
20
15
73
23
63
65
2
32
12
14
33
41
11
24
42
21
3
17
47
4
77

> <PUBCHEM_MMFF94_PARTIAL_CHARGES>
47
1 -0.19
10 -0.81
11 -0.2
12 0.14
13 -0.03
14 -0.18
15 0.05
16 0.15
17 -0.15
18 0.08
19 -0.15
2 -0.19
20 0.03
21 0.09
22 -0.15
23 0.3
24 0.27
25 -0.15
26 0.54
27 -0.15
28 -0.15
29 -0.15
3 -0.19
30 0.19
31 0.19
32 0.27
33 0.27
34 0.19
35 0.57
36 0.15
37 0.15
38 0.15
39 0.15
4 -0.57
40 0.15
45 0.15
46 0.37
47 0.15
48 0.37
49 0.15
5 -0.57
50 0.15
57 0.06
6 0.33
7 -0.57
8 -0.54
9 -0.73

> <PUBCHEM_EFFECTIVE_ROTOR_COUNT>
9

> <PUBCHEM_PHARMACOPHORE_FEATURES>
10
1 10 cation
1 4 acceptor
1 5 acceptor
1 8 donor
1 9 donor
3 6 7 12 cation
5 6 7 11 12 18 rings
6 15 19 21 22 25 27 rings
6 20 28 29 30 31 34 rings
6 6 12 13 14 16 17 rings

> <PUBCHEM_HEAVY_ATOM_COUNT>
35

> <PUBCHEM_ATOM_DEF_STEREO_COUNT>
0

> <PUBCHEM_ATOM_UDEF_STEREO_COUNT>
0

> <PUBCHEM_BOND_DEF_STEREO_COUNT>
0

> <PUBCHEM_BOND_UDEF_STEREO_COUNT>
0

> <PUBCHEM_ISOTOPIC_ATOM_COUNT>
0

> <PUBCHEM_COMPONENT_COUNT>
1

> <PUBCHEM_CACTVS_TAUTO_COUNT>
4

> <PUBCHEM_CONFORMER_ID>
02F7AF5400000001

> <PUBCHEM_MMFF94_ENERGY>
94.4787

> <PUBCHEM_FEATURE_SELFOVERLAP>
50.86

> <PUBCHEM_SHAPE_FINGERPRINT>
10190206 1 18195831612791029654
10439779 11 18263062427138020259
10675989 125 18045503006337778750
12422481 6 17763446719622149360
12788726 201 18266179422918660978
13944108 23 18046623404644528501
14040222 75 18412827984932988518
14931854 50 18266175024787247799
15351339 4 18119519943513834601
15968369 26 18266444576766829188
19246450 95 17836615868313108120
19319366 153 17971755471961024943
21133410 62 17971204634289963593
21344244 78 17178246627820735875
437795 70 17482561784933068447
463206 1 18194969530675583585
508180 173 18272368667875356987
5252454 2 17822843187815397743
5776283 40 18408045112972150421
9982175 69 17902482099273453029

> <PUBCHEM_SHAPE_MULTIPOLES>
661.82
12.59
8.24
1.61
12.65
6.5
-0.25
5.23
9.42
-0.83
-4.88
0.27
-0.5
4.66

> <PUBCHEM_SHAPE_SELFOVERLAP>
1450.147

> <PUBCHEM_SHAPE_VOLUME>
360.4

> <PUBCHEM_COORDINATE_TYPE>
2
5
10

$$$$
