3243514
  -OEChem-01171809183D

 56 58  0     0  0  0  0  0  0999 V2000
   -2.1542    0.8503   -0.0554 O   0  0  0  0  0  0  0  0  0  0  0  0
    2.1379    0.8158    1.3750 O   0  0  0  0  0  0  0  0  0  0  0  0
    5.8113   -2.3589   -0.1717 O   0  0  0  0  0  0  0  0  0  0  0  0
   -8.4461    0.8543   -0.1863 O   0  0  0  0  0  0  0  0  0  0  0  0
    5.9293    3.1528   -0.0642 O   0  0  0  0  0  0  0  0  0  0  0  0
    3.5610   -0.9508    0.7747 N   0  0  0  0  0  0  0  0  0  0  0  0
   -0.8278    0.4466   -0.1483 N   0  0  0  0  0  0  0  0  0  0  0  0
    0.9035   -2.3386    0.5098 C   0  0  0  0  0  0  0  0  0  0  0  0
    0.3882   -1.6061   -0.7382 C   0  0  0  0  0  0  0  0  0  0  0  0
    1.3573   -1.4218    1.6503 C   0  0  0  0  0  0  0  0  0  0  0  0
   -0.8817   -0.8318   -0.5331 C   0  0  0  0  0  0  0  0  0  0  0  0
    2.3932   -0.3804    1.2619 C   0  0  0  0  0  0  0  0  0  0  0  0
   -2.2023   -1.2844   -0.6972 C   0  0  0  0  0  0  0  0  0  0  0  0
   -2.9632   -0.1891   -0.3846 C   0  0  0  0  0  0  0  0  0  0  0  0
   -4.3711    0.0791   -0.3344 C   0  0  0  0  0  0  0  0  0  0  0  0
    4.7221   -0.2789    0.3254 C   0  0  0  0  0  0  0  0  0  0  0  0
   -5.2845   -0.9252   -0.6556 C   0  0  0  0  0  0  0  0  0  0  0  0
   -4.8275    1.3439    0.0369 C   0  0  0  0  0  0  0  0  0  0  0  0
    5.8246   -0.9961   -0.1389 C   0  0  0  0  0  0  0  0  0  0  0  0
    4.7572    1.1152    0.3505 C   0  0  0  0  0  0  0  0  0  0  0  0
   -7.1100    0.6002   -0.2346 C   0  0  0  0  0  0  0  0  0  0  0  0
   -6.6537   -0.6647   -0.6057 C   0  0  0  0  0  0  0  0  0  0  0  0
   -6.1967    1.6044    0.0867 C   0  0  0  0  0  0  0  0  0  0  0  0
    5.8950    1.7923   -0.0886 C   0  0  0  0  0  0  0  0  0  0  0  0
    6.9625   -0.3192   -0.5780 C   0  0  0  0  0  0  0  0  0  0  0  0
    6.9977    1.0750   -0.5528 C   0  0  0  0  0  0  0  0  0  0  0  0
   -9.3045   -0.2408    0.1294 C   0  0  0  0  0  0  0  0  0  0  0  0
    6.9834   -3.0059   -0.6619 C   0  0  0  0  0  0  0  0  0  0  0  0
  -10.5245    0.2827    0.8569 C   0  0  0  0  0  0  0  0  0  0  0  0
    7.1238    3.7804   -0.5277 C   0  0  0  0  0  0  0  0  0  0  0  0
    0.1216   -3.0071    0.8916 H   0  0  0  0  0  0  0  0  0  0  0  0
    1.7373   -2.9828    0.2058 H   0  0  0  0  0  0  0  0  0  0  0  0
    1.1642   -0.9420   -1.1380 H   0  0  0  0  0  0  0  0  0  0  0  0
    0.2070   -2.3544   -1.5211 H   0  0  0  0  0  0  0  0  0  0  0  0
    1.7826   -2.0327    2.4561 H   0  0  0  0  0  0  0  0  0  0  0  0
    0.4935   -0.9018    2.0808 H   0  0  0  0  0  0  0  0  0  0  0  0
   -2.5395   -2.2655   -0.9983 H   0  0  0  0  0  0  0  0  0  0  0  0
    3.6173   -1.9660    0.7437 H   0  0  0  0  0  0  0  0  0  0  0  0
   -4.9588   -1.9184   -0.9543 H   0  0  0  0  0  0  0  0  0  0  0  0
   -4.1477    2.1520    0.2946 H   0  0  0  0  0  0  0  0  0  0  0  0
    3.9466    1.7399    0.6964 H   0  0  0  0  0  0  0  0  0  0  0  0
   -7.3300   -1.4651   -0.8912 H   0  0  0  0  0  0  0  0  0  0  0  0
   -6.5468    2.5914    0.3766 H   0  0  0  0  0  0  0  0  0  0  0  0
    7.8557   -0.8081   -0.9514 H   0  0  0  0  0  0  0  0  0  0  0  0
    7.9120    1.5380   -0.9080 H   0  0  0  0  0  0  0  0  0  0  0  0
   -8.8164   -0.9669    0.7916 H   0  0  0  0  0  0  0  0  0  0  0  0
   -9.6090   -0.7376   -0.7983 H   0  0  0  0  0  0  0  0  0  0  0  0
    7.1715   -2.7607   -1.7128 H   0  0  0  0  0  0  0  0  0  0  0  0
    7.8516   -2.8082   -0.0240 H   0  0  0  0  0  0  0  0  0  0  0  0
    6.7977   -4.0842   -0.6174 H   0  0  0  0  0  0  0  0  0  0  0  0
  -10.2332    0.7939    1.7805 H   0  0  0  0  0  0  0  0  0  0  0  0
  -11.0550    1.0165    0.2411 H   0  0  0  0  0  0  0  0  0  0  0  0
  -11.2116   -0.5311    1.1054 H   0  0  0  0  0  0  0  0  0  0  0  0
    6.9764    4.8617   -0.4381 H   0  0  0  0  0  0  0  0  0  0  0  0
    7.3043    3.5693   -1.5872 H   0  0  0  0  0  0  0  0  0  0  0  0
    7.9836    3.5221    0.0996 H   0  0  0  0  0  0  0  0  0  0  0  0
  1  7  1  0  0  0  0
  1 14  1  0  0  0  0
  2 12  2  0  0  0  0
  3 19  1  0  0  0  0
  3 28  1  0  0  0  0
  4 21  1  0  0  0  0
  4 27  1  0  0  0  0
  5 24  1  0  0  0  0
  5 30  1  0  0  0  0
  6 12  1  0  0  0  0
  6 16  1  0  0  0  0
  6 38  1  0  0  0  0
  7 11  2  0  0  0  0
  8  9  1  0  0  0  0
  8 10  1  0  0  0  0
  8 31  1  0  0  0  0
  8 32  1  0  0  0  0
  9 11  1  0  0  0  0
  9 33  1  0  0  0  0
  9 34  1  0  0  0  0
 10 12  1  0  0  0  0
 10 35  1  0  0  0  0
 10 36  1  0  0  0  0
 11 13  1  0  0  0  0
 13 14  2  0  0  0  0
 13 37  1  0  0  0  0
 14 15  1  0  0  0  0
 15 17  2  0  0  0  0
 15 18  1  0  0  0  0
 16 19  2  0  0  0  0
 16 20  1  0  0  0  0
 17 22  1  0  0  0  0
 17 39  1  0  0  0  0
 18 23  2  0  0  0  0
 18 40  1  0  0  0  0
 19 25  1  0  0  0  0
 20 24  2  0  0  0  0
 20 41  1  0  0  0  0
 21 22  2  0  0  0  0
 21 23  1  0  0  0  0
 22 42  1  0  0  0  0
 23 43  1  0  0  0  0
 24 26  1  0  0  0  0
 25 26  2  0  0  0  0
 25 44  1  0  0  0  0
 26 45  1  0  0  0  0
 27 29  1  0  0  0  0
 27 46  1  0  0  0  0
 27 47  1  0  0  0  0
 28 48  1  0  0  0  0
 28 49  1  0  0  0  0
 28 50  1  0  0  0  0
 29 51  1  0  0  0  0
 29 52  1  0  0  0  0
 29 53  1  0  0  0  0
 30 54  1  0  0  0  0
 30 55  1  0  0  0  0
 30 56  1  0  0  0  0
M  END
> <PUBCHEM_COMPOUND_CID>
3243514

> <PUBCHEM_CONFORMER_RMSD>
1.2

> <PUBCHEM_CONFORMER_DIVERSEORDER>
7
1
25
71
73
70
39
61
17
31
10
79
67
40
54
75
33
13
68
46
65
49
3
64
35
30
8
14
26
41
69
29
38
22
86
51
15
78
36
12
2
5
63
77
16
72
60
48
56
37
21
27
59
80
87
55
53
88
58
19
74
28
62
44
4
20
18
32
45
76
23
82
47
84
43
66
34
9
11
6
81
83
24
52
85
42
50
57

> <PUBCHEM_MMFF94_PARTIAL_CHARGES>
37
1 -0.02
10 0.06
11 0.11
12 0.57
13 -0.15
14 0.09
15 0.05
16 0.12
17 -0.15
18 -0.15
19 0.08
2 -0.57
20 -0.15
21 0.08
22 -0.15
23 -0.15
24 0.08
25 -0.15
26 -0.15
27 0.28
28 0.28
3 -0.36
30 0.28
37 0.15
38 0.37
39 0.15
4 -0.36
40 0.15
41 0.15
42 0.15
43 0.15
44 0.15
45 0.15
5 -0.36
6 -0.55
7 -0.41
9 0.18

> <PUBCHEM_EFFECTIVE_ROTOR_COUNT>
11

> <PUBCHEM_PHARMACOPHORE_FEATURES>
9
1 2 acceptor
1 3 acceptor
1 4 acceptor
1 5 acceptor
1 6 donor
1 7 acceptor
5 1 7 11 13 14 rings
6 15 17 18 21 22 23 rings
6 16 19 20 24 25 26 rings

> <PUBCHEM_HEAVY_ATOM_COUNT>
30

> <PUBCHEM_ATOM_DEF_STEREO_COUNT>
0

> <PUBCHEM_ATOM_UDEF_STEREO_COUNT>
0

> <PUBCHEM_BOND_DEF_STEREO_COUNT>
0

> <PUBCHEM_BOND_UDEF_STEREO_COUNT>
0

> <PUBCHEM_ISOTOPIC_ATOM_COUNT>
0

> <PUBCHEM_COMPONENT_COUNT>
1

> <PUBCHEM_CACTVS_TAUTO_COUNT>
2

> <PUBCHEM_CONFORMER_ID>
00317DFA00000007

> <PUBCHEM_MMFF94_ENERGY>
92.9578

> <PUBCHEM_FEATURE_SELFOVERLAP>
45.674

> <PUBCHEM_SHAPE_FINGERPRINT>
10 15 18407760331698348531
10299344 5 18272650138983991227
106641 1 17531249466029250931
10670039 82 16559035952789858161
10673678 19 18342462582134242910
11135609 127 18129091386066666600
11991303 11 17203037586531205263
12089408 11 18272650152454293319
12522641 24 17822567193243519306
13383668 251 17023466481960609029
13627175 23 18202013139760404305
13782708 43 14763202644475359351
14216079 64 11023833868221367116
14251757 52 18408882958196773752
14565420 104 17676480658038119450
14849402 71 18337109068582727289
14933364 13 18410572881513765167
15183329 4 17060624399447216442
15461852 350 17989193860333435213
1577012 14 18271801362761404455
15840311 113 18333171669449506812
17686467 74 17749108903565557101
19302320 297 17968372472842165332
19611394 137 18262809583404841379
20771845 171 17489881423255038820
21781055 127 16773529798134046731
21792965 169 17987536887309056292
22224240 67 16805322193308482963
23522609 53 17845394235250800656
249057 3 13973677348183983549
2747138 104 17385732387242256505
28498 318 11384117440722919129
3004659 81 18130787837960716522
34797466 226 18412826867455482214
4073 2 18188491388347905098
45270241 37 18413112784098017268
4625314 4 18336263462346236791
5758199 1 17967249797827267491
59682541 35 17530969090495453531
6438161 24 9295287244865010985
6523845 18 17095239177954496650
9689198 14 18334860540731534291
9962374 69 13551484683339214187

> <PUBCHEM_SHAPE_MULTIPOLES>
578.08
30.9
2.81
1
42.43
1.23
-0.26
10.15
1.77
-8.49
0.38
-0.27
-0.24
-0.52

> <PUBCHEM_SHAPE_SELFOVERLAP>
1225.592

> <PUBCHEM_SHAPE_VOLUME>
324.6

> <PUBCHEM_COORDINATE_TYPE>
2
5
10

$$$$
