701939
  -OEChem-01171809443D

 23 24  0     0  0  0  0  0  0999 V2000
   -0.9102   -2.7955   -0.0003 Cl  0  0  0  0  0  0  0  0  0  0  0  0
   -1.9576    2.1372   -0.0002 O   0  0  0  0  0  0  0  0  0  0  0  0
   -3.0076   -1.7063    0.0001 O   0  5  0  0  0  0  0  0  0  0  0  0
   -3.5703    0.4231   -0.0005 O   0  0  0  0  0  0  0  0  0  0  0  0
    0.3156    1.6263    0.0002 N   0  0  0  0  0  0  0  0  0  0  0  0
   -2.7448   -0.4979    0.0001 N   0  3  0  0  0  0  0  0  0  0  0  0
    1.3350    0.6138    0.0001 C   0  0  0  0  0  0  0  0  0  0  0  0
    0.9713   -0.7517    0.0002 C   0  0  0  0  0  0  0  0  0  0  0  0
   -0.4608   -1.1178    0.0002 C   0  0  0  0  0  0  0  0  0  0  0  0
   -1.0454    1.3104    0.0003 C   0  0  0  0  0  0  0  0  0  0  0  0
   -1.3656   -0.1335    0.0001 C   0  0  0  0  0  0  0  0  0  0  0  0
    2.7004    0.9600   -0.0003 C   0  0  0  0  0  0  0  0  0  0  0  0
    1.9926   -1.7221    0.0002 C   0  0  0  0  0  0  0  0  0  0  0  0
    0.7152    3.0319    0.0001 C   0  0  0  0  0  0  0  0  0  0  0  0
    3.6930   -0.0188   -0.0003 C   0  0  0  0  0  0  0  0  0  0  0  0
    3.3395   -1.3591    0.0000 C   0  0  0  0  0  0  0  0  0  0  0  0
    3.0297    1.9952   -0.0005 H   0  0  0  0  0  0  0  0  0  0  0  0
    1.7703   -2.7859    0.0004 H   0  0  0  0  0  0  0  0  0  0  0  0
    1.2975    3.2469   -0.9013 H   0  0  0  0  0  0  0  0  0  0  0  0
    1.2979    3.2469    0.9012 H   0  0  0  0  0  0  0  0  0  0  0  0
   -0.1562    3.6930    0.0003 H   0  0  0  0  0  0  0  0  0  0  0  0
    4.7402    0.2690   -0.0005 H   0  0  0  0  0  0  0  0  0  0  0  0
    4.1086   -2.1259    0.0000 H   0  0  0  0  0  0  0  0  0  0  0  0
  1  9  1  0  0  0  0
  2 10  2  0  0  0  0
  3  6  1  0  0  0  0
  4  6  2  0  0  0  0
  5  7  1  0  0  0  0
  5 10  1  0  0  0  0
  5 14  1  0  0  0  0
  6 11  1  0  0  0  0
  7  8  1  0  0  0  0
  7 12  2  0  0  0  0
  8  9  1  0  0  0  0
  8 13  2  0  0  0  0
  9 11  2  0  0  0  0
 10 11  1  0  0  0  0
 12 15  1  0  0  0  0
 12 17  1  0  0  0  0
 13 16  1  0  0  0  0
 13 18  1  0  0  0  0
 14 19  1  0  0  0  0
 14 20  1  0  0  0  0
 14 21  1  0  0  0  0
 15 16  2  0  0  0  0
 15 22  1  0  0  0  0
 16 23  1  0  0  0  0
M  CHG  2   3  -1   6   1
M  END
> <PUBCHEM_COMPOUND_CID>
701939

> <PUBCHEM_CONFORMER_RMSD>
0.6

> <PUBCHEM_CONFORMER_DIVERSEORDER>
1

> <PUBCHEM_MMFF94_PARTIAL_CHARGES>
20
1 -0.14
10 0.62
11 0.22
12 -0.15
13 -0.15
14 0.3
15 -0.15
16 -0.15
17 0.15
18 0.15
2 -0.57
22 0.15
23 0.15
3 -0.52
4 -0.52
5 -0.48
6 0.84
7 0.12
8 0.03
9 0.11

> <PUBCHEM_EFFECTIVE_ROTOR_COUNT>
1

> <PUBCHEM_PHARMACOPHORE_FEATURES>
6
1 2 acceptor
1 3 acceptor
1 3 anion
1 4 acceptor
6 5 7 8 9 10 11 rings
6 7 8 12 13 15 16 rings

> <PUBCHEM_HEAVY_ATOM_COUNT>
16

> <PUBCHEM_ATOM_DEF_STEREO_COUNT>
0

> <PUBCHEM_ATOM_UDEF_STEREO_COUNT>
0

> <PUBCHEM_BOND_DEF_STEREO_COUNT>
0

> <PUBCHEM_BOND_UDEF_STEREO_COUNT>
0

> <PUBCHEM_ISOTOPIC_ATOM_COUNT>
0

> <PUBCHEM_COMPONENT_COUNT>
1

> <PUBCHEM_CACTVS_TAUTO_COUNT>
1

> <PUBCHEM_CONFORMER_ID>
000AB5F300000001

> <PUBCHEM_MMFF94_ENERGY>
74.5448

> <PUBCHEM_FEATURE_SELFOVERLAP>
30.588

> <PUBCHEM_SHAPE_FINGERPRINT>
10608611 8 18411976949425585216
10967382 1 18338517421958558182
11132069 177 18411976949277710402
11471102 20 18410005559367915727
11680986 33 18122624117640483152
12032990 46 18411143528101523230
12382932 28 18411980299526463050
13140716 1 17978792633713799808
13221675 6 18411138056292024166
14144814 61 18411419509778067722
14614273 12 18043526101810886373
14648413 74 18120373421744208304
15196674 1 18410855473028965894
16945 1 18338516464244083236
193761 8 17978510059172661444
19591789 44 16611682488666094368
20510252 161 18271805653734627856
20588541 1 18411984684608892270
20645477 70 18048023366688951839
20871998 184 18201435831366977318
21029758 11 18342449348601694297
21267235 1 18410583876667342854
21501502 16 18337956680003247520
221490 88 17975977884306064563
22721475 48 18409733997033312232
22802520 49 17842287969063050174
2334 1 18410573946618129732
23402539 116 18342444929227955630
23419403 2 16184870083524387099
23463225 33 18409167675725729406
23559900 14 18341898537238623572
2748010 2 18339079272416098164
335352 9 18410855434379502943
34934 24 18410565215171254002
528886 8 18339355275572857730
589210 1 17906171002990424114
7364860 26 18125159591676024864
8809292 202 18334298681737164898

> <PUBCHEM_SHAPE_MULTIPOLES>
303.57
5.12
2.96
0.59
0.27
0.63
0
-1.07
0
-0.46
0
0.07
-0.02
0

> <PUBCHEM_SHAPE_SELFOVERLAP>
655.61

> <PUBCHEM_SHAPE_VOLUME>
166.5

> <PUBCHEM_COORDINATE_TYPE>
2
5
10

$$$$
