9567230
  -OEChem-01171809293D

 55 59  0     0  0  0  0  0  0999 V2000
   -0.4819    1.9794   -0.1424 O   0  0  0  0  0  0  0  0  0  0  0  0
   -8.9980    0.5987   -0.2326 O   0  0  0  0  0  0  0  0  0  0  0  0
   -8.1559   -2.0457   -0.0811 O   0  0  0  0  0  0  0  0  0  0  0  0
    2.5266   -1.2955    0.0878 N   0  0  0  0  0  0  0  0  0  0  0  0
    1.1916   -1.1411    0.0750 N   0  0  0  0  0  0  0  0  0  0  0  0
   -1.3531   -0.1467    0.0078 N   0  0  0  0  0  0  0  0  0  0  0  0
   -2.6234    0.3214   -0.0482 N   0  0  0  0  0  0  0  0  0  0  0  0
    4.6889   -0.0758    0.0199 C   0  0  0  0  0  0  0  0  0  0  0  0
    6.7461    1.4476   -0.0661 C   0  0  0  0  0  0  0  0  0  0  0  0
    6.8091   -0.6439    1.3244 C   0  0  0  0  0  0  0  0  0  0  0  0
    6.8175   -0.7973   -1.1918 C   0  0  0  0  0  0  0  0  0  0  0  0
    5.2084    1.3914   -0.0678 C   0  0  0  0  0  0  0  0  0  0  0  0
    5.2710   -0.6909    1.3268 C   0  0  0  0  0  0  0  0  0  0  0  0
    5.2793   -0.8447   -1.1987 C   0  0  0  0  0  0  0  0  0  0  0  0
    7.2735    0.8161    1.2299 C   0  0  0  0  0  0  0  0  0  0  0  0
    7.2818    0.6636   -1.2723 C   0  0  0  0  0  0  0  0  0  0  0  0
    7.3386   -1.4257    0.1110 C   0  0  0  0  0  0  0  0  0  0  0  0
    3.2080   -0.1219    0.0179 C   0  0  0  0  0  0  0  0  0  0  0  0
    2.2690    0.8695   -0.0456 C   0  0  0  0  0  0  0  0  0  0  0  0
    1.0403    0.1835   -0.0066 C   0  0  0  0  0  0  0  0  0  0  0  0
   -0.2777    0.7508   -0.0445 C   0  0  0  0  0  0  0  0  0  0  0  0
   -3.5263   -0.6046   -0.0269 C   0  0  0  0  0  0  0  0  0  0  0  0
   -4.9652   -0.2918   -0.0803 C   0  0  0  0  0  0  0  0  0  0  0  0
   -5.8860   -1.3267   -0.0546 C   0  0  0  0  0  0  0  0  0  0  0  0
   -5.3691    1.0312   -0.1563 C   0  0  0  0  0  0  0  0  0  0  0  0
   -7.2480   -1.0304   -0.1059 C   0  0  0  0  0  0  0  0  0  0  0  0
   -6.7313    1.3274   -0.2080 C   0  0  0  0  0  0  0  0  0  0  0  0
   -7.6707    0.2967   -0.1828 C   0  0  0  0  0  0  0  0  0  0  0  0
   -9.6631    0.8053    1.0121 C   0  0  0  0  0  0  0  0  0  0  0  0
    7.0765    2.4906   -0.1286 H   0  0  0  0  0  0  0  0  0  0  0  0
    7.1917   -1.0932    2.2478 H   0  0  0  0  0  0  0  0  0  0  0  0
    7.2059   -1.3552   -2.0512 H   0  0  0  0  0  0  0  0  0  0  0  0
    4.8286    1.9827    0.7767 H   0  0  0  0  0  0  0  0  0  0  0  0
    4.8344    1.8757   -0.9802 H   0  0  0  0  0  0  0  0  0  0  0  0
    4.8855   -0.1530    2.2035 H   0  0  0  0  0  0  0  0  0  0  0  0
    4.9459   -1.7338    1.4386 H   0  0  0  0  0  0  0  0  0  0  0  0
    4.9546   -1.8936   -1.1853 H   0  0  0  0  0  0  0  0  0  0  0  0
    4.8998   -0.4176   -2.1368 H   0  0  0  0  0  0  0  0  0  0  0  0
    8.3692    0.8639    1.2520 H   0  0  0  0  0  0  0  0  0  0  0  0
    6.9129    1.3819    2.0977 H   0  0  0  0  0  0  0  0  0  0  0  0
    8.3776    0.7087   -1.2928 H   0  0  0  0  0  0  0  0  0  0  0  0
    6.9271    1.1197   -2.2047 H   0  0  0  0  0  0  0  0  0  0  0  0
    7.0236   -2.4746    0.1739 H   0  0  0  0  0  0  0  0  0  0  0  0
    8.4356   -1.4226    0.1145 H   0  0  0  0  0  0  0  0  0  0  0  0
    2.4332    1.9355   -0.1104 H   0  0  0  0  0  0  0  0  0  0  0  0
    2.8975   -2.2359    0.1465 H   0  0  0  0  0  0  0  0  0  0  0  0
   -1.2138   -1.1507    0.0742 H   0  0  0  0  0  0  0  0  0  0  0  0
   -3.2584   -1.6763    0.0319 H   0  0  0  0  0  0  0  0  0  0  0  0
   -5.5624   -2.3625    0.0049 H   0  0  0  0  0  0  0  0  0  0  0  0
   -4.6592    1.8528   -0.1777 H   0  0  0  0  0  0  0  0  0  0  0  0
   -7.0536    2.3635   -0.2684 H   0  0  0  0  0  0  0  0  0  0  0  0
   -9.0473   -1.6655   -0.1642 H   0  0  0  0  0  0  0  0  0  0  0  0
   -9.2428    1.6736    1.5295 H   0  0  0  0  0  0  0  0  0  0  0  0
  -10.7198    0.9978    0.8079 H   0  0  0  0  0  0  0  0  0  0  0  0
   -9.5855   -0.0831    1.6470 H   0  0  0  0  0  0  0  0  0  0  0  0
  1 21  2  0  0  0  0
  2 28  1  0  0  0  0
  2 29  1  0  0  0  0
  3 26  1  0  0  0  0
  3 52  1  0  0  0  0
  4  5  1  0  0  0  0
  4 18  1  0  0  0  0
  4 46  1  0  0  0  0
  5 20  2  0  0  0  0
  6  7  1  0  0  0  0
  6 21  1  0  0  0  0
  6 47  1  0  0  0  0
  7 22  2  0  0  0  0
  8 12  1  0  0  0  0
  8 13  1  0  0  0  0
  8 14  1  0  0  0  0
  8 18  1  0  0  0  0
  9 12  1  0  0  0  0
  9 15  1  0  0  0  0
  9 16  1  0  0  0  0
  9 30  1  0  0  0  0
 10 13  1  0  0  0  0
 10 15  1  0  0  0  0
 10 17  1  0  0  0  0
 10 31  1  0  0  0  0
 11 14  1  0  0  0  0
 11 16  1  0  0  0  0
 11 17  1  0  0  0  0
 11 32  1  0  0  0  0
 12 33  1  0  0  0  0
 12 34  1  0  0  0  0
 13 35  1  0  0  0  0
 13 36  1  0  0  0  0
 14 37  1  0  0  0  0
 14 38  1  0  0  0  0
 15 39  1  0  0  0  0
 15 40  1  0  0  0  0
 16 41  1  0  0  0  0
 16 42  1  0  0  0  0
 17 43  1  0  0  0  0
 17 44  1  0  0  0  0
 18 19  2  0  0  0  0
 19 20  1  0  0  0  0
 19 45  1  0  0  0  0
 20 21  1  0  0  0  0
 22 23  1  0  0  0  0
 22 48  1  0  0  0  0
 23 24  2  0  0  0  0
 23 25  1  0  0  0  0
 24 26  1  0  0  0  0
 24 49  1  0  0  0  0
 25 27  2  0  0  0  0
 25 50  1  0  0  0  0
 26 28  2  0  0  0  0
 27 28  1  0  0  0  0
 27 51  1  0  0  0  0
 29 53  1  0  0  0  0
 29 54  1  0  0  0  0
 29 55  1  0  0  0  0
M  END
> <PUBCHEM_COMPOUND_CID>
9567230

> <PUBCHEM_CONFORMER_RMSD>
0.8

> <PUBCHEM_CONFORMER_DIVERSEORDER>
1
5
12
8
6
11
15
4
17
2
7
9
10
3
14
13
16

> <PUBCHEM_MMFF94_PARTIAL_CHARGES>
28
1 -0.57
18 -0.33
19 -0.15
2 -0.36
20 0.2
21 0.72
22 0.3
23 0.09
24 -0.15
25 -0.15
26 0.08
27 -0.15
28 0.08
29 0.28
3 -0.53
4 0.3
45 0.15
46 0.27
47 0.37
48 0.06
49 0.15
5 -0.71
50 0.15
51 0.15
52 0.45
6 -0.37
7 -0.51
8 0.18

> <PUBCHEM_EFFECTIVE_ROTOR_COUNT>
7.2

> <PUBCHEM_PHARMACOPHORE_FEATURES>
13
1 1 acceptor
1 2 acceptor
1 3 donor
1 4 donor
1 5 acceptor
1 6 donor
1 7 acceptor
5 4 5 18 19 20 rings
6 23 24 25 26 27 28 rings
6 8 10 11 13 14 17 rings
6 8 9 10 12 13 15 rings
6 8 9 11 12 14 16 rings
6 9 10 11 15 16 17 rings

> <PUBCHEM_HEAVY_ATOM_COUNT>
29

> <PUBCHEM_ATOM_DEF_STEREO_COUNT>
0

> <PUBCHEM_ATOM_UDEF_STEREO_COUNT>
0

> <PUBCHEM_BOND_DEF_STEREO_COUNT>
1

> <PUBCHEM_BOND_UDEF_STEREO_COUNT>
0

> <PUBCHEM_ISOTOPIC_ATOM_COUNT>
0

> <PUBCHEM_COMPONENT_COUNT>
1

> <PUBCHEM_CACTVS_TAUTO_COUNT>
35

> <PUBCHEM_CONFORMER_ID>
0091FBFE00000001

> <PUBCHEM_MMFF94_ENERGY>
76.4052

> <PUBCHEM_FEATURE_SELFOVERLAP>
78.464

> <PUBCHEM_SHAPE_FINGERPRINT>
10050765 1 18049440348812524245
10299344 5 18113899360041382575
10319688 140 16271098003555154878
11135926 11 18334846209043710399
11315181 36 18273498979847333617
11719270 70 18272088288548063926
12082328 90 18202282481855131029
12089408 11 18334575750768077887
12516196 113 18131069337594167521
13533116 47 17385715852018886474
13885169 127 18411981343688870869
14251764 18 18114179744302121827
14251764 46 18410575084668353667
14933364 13 18412544319016385733
15183329 4 18040999531300831089
15301273 46 17775567532982731207
15328684 2 17896869976813501089
15419008 47 17632570540038815049
15419008 91 18200293477346348729
15461852 350 16702295772807434341
15510794 2 18131353007394242062
15849732 13 18202002144511913237
15980000 95 17894915131197228813
20157964 124 15502095250788868842
21315763 28 18409165510893660541
21792934 111 18272642438366424232
22224240 67 18187080663284144778
232437 2 18410294718890652619
4073 2 17967819396042163547
4339292 15 17489016194110687943
5219985 9 17967531272756811005
5283156 175 17822009791827901340
5758199 1 17894349973640172003
6441014 3 16762559721274232086
67123 10 18409730677060632677

> <PUBCHEM_SHAPE_MULTIPOLES>
559.27
33.24
1.55
0.99
47.08
0.02
0.08
0.64
1.74
0.34
-0.04
-1.85
0.05
-0.22

> <PUBCHEM_SHAPE_SELFOVERLAP>
1233.492

> <PUBCHEM_SHAPE_VOLUME>
296

> <PUBCHEM_COORDINATE_TYPE>
2
5
10

$$$$
