3089037
  -OEChem-01171809213D

 60 63  0     1  0  0  0  0  0999 V2000
    0.3318   -0.9059   -2.9543 O   0  0  0  0  0  0  0  0  0  0  0  0
   -1.0543   -0.7982    1.0540 N   0  0  2  0  0  0  0  0  0  0  0  0
    0.6111   -1.6535   -0.6331 C   0  0  1  0  0  0  0  0  0  0  0  0
    0.3108   -0.4491   -1.5884 C   0  0  2  0  0  0  0  0  0  0  0  0
    0.3218   -1.3112    0.8638 C   0  0  1  0  0  0  0  0  0  0  0  0
   -1.1470   -0.0097   -1.3333 C   0  0  0  0  0  0  0  0  0  0  0  0
   -1.4770    0.2881    0.1494 C   0  0  1  0  0  0  0  0  0  0  0  0
   -0.1662   -2.9316   -1.0298 C   0  0  0  0  0  0  0  0  0  0  0  0
    1.3650    0.6644   -1.5435 C   0  0  0  0  0  0  0  0  0  0  0  0
    1.5025   -0.5904    1.5260 C   0  0  0  0  0  0  0  0  0  0  0  0
   -2.9718    0.6011    0.2382 C   0  0  0  0  0  0  0  0  0  0  0  0
    0.2438   -4.0914   -0.1337 C   0  0  0  0  0  0  0  0  0  0  0  0
    0.0785   -3.2574   -2.4961 C   0  0  0  0  0  0  0  0  0  0  0  0
   -1.4069   -0.5983    2.4594 C   0  0  0  0  0  0  0  0  0  0  0  0
    0.9749    1.9748   -1.2840 C   0  0  0  0  0  0  0  0  0  0  0  0
    2.7045    0.3570   -1.7619 C   0  0  0  0  0  0  0  0  0  0  0  0
    2.4946   -1.3325    2.1552 C   0  0  0  0  0  0  0  0  0  0  0  0
    1.5680    0.7971    1.4895 C   0  0  0  0  0  0  0  0  0  0  0  0
   -3.4136    1.9137    0.0949 C   0  0  0  0  0  0  0  0  0  0  0  0
   -3.8826   -0.4279    0.4614 C   0  0  0  0  0  0  0  0  0  0  0  0
    1.9333    2.9874   -1.2429 C   0  0  0  0  0  0  0  0  0  0  0  0
    3.6629    1.3697   -1.7207 C   0  0  0  0  0  0  0  0  0  0  0  0
    3.5687   -0.6771    2.7573 C   0  0  0  0  0  0  0  0  0  0  0  0
    2.6421    1.4525    2.0916 C   0  0  0  0  0  0  0  0  0  0  0  0
   -4.7766    2.1993    0.1756 C   0  0  0  0  0  0  0  0  0  0  0  0
   -5.2455   -0.1423    0.5420 C   0  0  0  0  0  0  0  0  0  0  0  0
    3.2772    2.6849   -1.4611 C   0  0  0  0  0  0  0  0  0  0  0  0
    3.6424    0.7153    2.7254 C   0  0  0  0  0  0  0  0  0  0  0  0
   -5.6925    1.1714    0.3991 C   0  0  0  0  0  0  0  0  0  0  0  0
    1.6739   -1.9164   -0.7271 H   0  0  0  0  0  0  0  0  0  0  0  0
    0.3033   -2.2484    1.4239 H   0  0  0  0  0  0  0  0  0  0  0  0
   -1.8213   -0.7989   -1.6985 H   0  0  0  0  0  0  0  0  0  0  0  0
   -1.4152    0.8433   -1.9725 H   0  0  0  0  0  0  0  0  0  0  0  0
   -0.9903    1.2084    0.4626 H   0  0  0  0  0  0  0  0  0  0  0  0
   -1.2461   -2.7966   -0.8974 H   0  0  0  0  0  0  0  0  0  0  0  0
    1.3287   -4.1403    0.0080 H   0  0  0  0  0  0  0  0  0  0  0  0
   -0.0678   -5.0485   -0.5688 H   0  0  0  0  0  0  0  0  0  0  0  0
   -0.2415   -4.0581    0.8460 H   0  0  0  0  0  0  0  0  0  0  0  0
    1.1107   -3.0809   -2.8179 H   0  0  0  0  0  0  0  0  0  0  0  0
   -0.0884   -4.3300   -2.6659 H   0  0  0  0  0  0  0  0  0  0  0  0
   -0.6563   -2.7943   -3.1623 H   0  0  0  0  0  0  0  0  0  0  0  0
   -1.0859   -1.4545    3.0645 H   0  0  0  0  0  0  0  0  0  0  0  0
   -2.4828   -0.5163    2.6299 H   0  0  0  0  0  0  0  0  0  0  0  0
   -0.9385    0.3008    2.8736 H   0  0  0  0  0  0  0  0  0  0  0  0
    0.1447   -0.1465   -3.5330 H   0  0  0  0  0  0  0  0  0  0  0  0
   -0.0539    2.2805   -1.1439 H   0  0  0  0  0  0  0  0  0  0  0  0
    3.0254   -0.6568   -1.9821 H   0  0  0  0  0  0  0  0  0  0  0  0
    2.4530   -2.4177    2.1841 H   0  0  0  0  0  0  0  0  0  0  0  0
    0.7813    1.4238    1.1155 H   0  0  0  0  0  0  0  0  0  0  0  0
   -2.7109    2.7233   -0.0824 H   0  0  0  0  0  0  0  0  0  0  0  0
   -3.5656   -1.4633    0.5511 H   0  0  0  0  0  0  0  0  0  0  0  0
    1.6329    4.0128   -1.0484 H   0  0  0  0  0  0  0  0  0  0  0  0
    4.7090    1.1349   -1.8938 H   0  0  0  0  0  0  0  0  0  0  0  0
    4.3475   -1.2509    3.2509 H   0  0  0  0  0  0  0  0  0  0  0  0
    2.6877    2.5377    2.0901 H   0  0  0  0  0  0  0  0  0  0  0  0
   -5.1247    3.2219    0.0633 H   0  0  0  0  0  0  0  0  0  0  0  0
   -5.9595   -0.9432    0.7101 H   0  0  0  0  0  0  0  0  0  0  0  0
    4.0232    3.4735   -1.4307 H   0  0  0  0  0  0  0  0  0  0  0  0
    4.4758    1.2259    3.1989 H   0  0  0  0  0  0  0  0  0  0  0  0
   -6.7538    1.3936    0.4603 H   0  0  0  0  0  0  0  0  0  0  0  0
  1  4  1  0  0  0  0
  1 45  1  0  0  0  0
  2  5  1  0  0  0  0
  2  7  1  0  0  0  0
  2 14  1  0  0  0  0
  3  4  1  0  0  0  0
  3  5  1  0  0  0  0
  3  8  1  0  0  0  0
  3 30  1  0  0  0  0
  4  6  1  0  0  0  0
  4  9  1  0  0  0  0
  5 10  1  0  0  0  0
  5 31  1  0  0  0  0
  6  7  1  0  0  0  0
  6 32  1  0  0  0  0
  6 33  1  0  0  0  0
  7 11  1  0  0  0  0
  7 34  1  0  0  0  0
  8 12  1  0  0  0  0
  8 13  1  0  0  0  0
  8 35  1  0  0  0  0
  9 15  2  0  0  0  0
  9 16  1  0  0  0  0
 10 17  2  0  0  0  0
 10 18  1  0  0  0  0
 11 19  2  0  0  0  0
 11 20  1  0  0  0  0
 12 36  1  0  0  0  0
 12 37  1  0  0  0  0
 12 38  1  0  0  0  0
 13 39  1  0  0  0  0
 13 40  1  0  0  0  0
 13 41  1  0  0  0  0
 14 42  1  0  0  0  0
 14 43  1  0  0  0  0
 14 44  1  0  0  0  0
 15 21  1  0  0  0  0
 15 46  1  0  0  0  0
 16 22  2  0  0  0  0
 16 47  1  0  0  0  0
 17 23  1  0  0  0  0
 17 48  1  0  0  0  0
 18 24  2  0  0  0  0
 18 49  1  0  0  0  0
 19 25  1  0  0  0  0
 19 50  1  0  0  0  0
 20 26  2  0  0  0  0
 20 51  1  0  0  0  0
 21 27  2  0  0  0  0
 21 52  1  0  0  0  0
 22 27  1  0  0  0  0
 22 53  1  0  0  0  0
 23 28  2  0  0  0  0
 23 54  1  0  0  0  0
 24 28  1  0  0  0  0
 24 55  1  0  0  0  0
 25 29  2  0  0  0  0
 25 56  1  0  0  0  0
 26 29  1  0  0  0  0
 26 57  1  0  0  0  0
 27 58  1  0  0  0  0
 28 59  1  0  0  0  0
 29 60  1  0  0  0  0
M  END
> <PUBCHEM_COMPOUND_CID>
3089037

> <PUBCHEM_CONFORMER_RMSD>
0.8

> <PUBCHEM_CONFORMER_DIVERSEORDER>
20
14
1
5
2
4
21
26
25
18
11
19
24
8
13
12
17
28
3
10
7
27
6
9
15
23
16
22

> <PUBCHEM_MMFF94_PARTIAL_CHARGES>
40
1 -0.68
10 -0.14
11 -0.14
14 0.27
15 -0.15
16 -0.15
17 -0.15
18 -0.15
19 -0.15
2 -0.81
20 -0.15
21 -0.15
22 -0.15
23 -0.15
24 -0.15
25 -0.15
26 -0.15
27 -0.15
28 -0.15
29 -0.15
4 0.42
45 0.4
46 0.15
47 0.15
48 0.15
49 0.15
5 0.41
50 0.15
51 0.15
52 0.15
53 0.15
54 0.15
55 0.15
56 0.15
57 0.15
58 0.15
59 0.15
60 0.15
7 0.41
9 -0.14

> <PUBCHEM_EFFECTIVE_ROTOR_COUNT>
5.2

> <PUBCHEM_PHARMACOPHORE_FEATURES>
8
1 1 acceptor
1 1 donor
1 2 cation
3 8 12 13 hydrophobe
6 10 17 18 23 24 28 rings
6 11 19 20 25 26 29 rings
6 2 3 4 5 6 7 rings
6 9 15 16 21 22 27 rings

> <PUBCHEM_HEAVY_ATOM_COUNT>
29

> <PUBCHEM_ATOM_DEF_STEREO_COUNT>
0

> <PUBCHEM_ATOM_UDEF_STEREO_COUNT>
4

> <PUBCHEM_BOND_DEF_STEREO_COUNT>
0

> <PUBCHEM_BOND_UDEF_STEREO_COUNT>
0

> <PUBCHEM_ISOTOPIC_ATOM_COUNT>
0

> <PUBCHEM_COMPONENT_COUNT>
1

> <PUBCHEM_CACTVS_TAUTO_COUNT>
1

> <PUBCHEM_CONFORMER_ID>
002F228D00000014

> <PUBCHEM_MMFF94_ENERGY>
125.3985

> <PUBCHEM_FEATURE_SELFOVERLAP>
40.597

> <PUBCHEM_SHAPE_FINGERPRINT>
10674148 151 17895486925326568836
10764073 3 17402024726876944128
10863032 1 17459485496702611328
10948715 1 18189914164809686212
11578080 2 16340339997216383984
11582403 64 18117853302333151381
12160290 23 17699292371534773235
12633257 1 17385433315457422265
12788726 201 17763736994179766575
13134695 92 14707214275543872663
13140716 1 16732707159891842369
13149001 5 16127830684777561292
133893 2 17841180790786859859
14028597 1 17322938410385260706
14739800 52 18261108642231158457
14955137 171 17967524671734611072
15219462 58 17408492475726950370
15849732 13 18410568462562156042
16090146 7 18047439465426579574
17492 54 14907910413642558544
17980427 23 18261938688026527313
20600515 1 16448675599455464860
20691752 17 17632286900113353421
20723712 36 18335410236737828488
21421861 104 17459480944111747613
23419403 2 17334194750795019254
23558518 356 17106510567254602772
23559900 14 18194693566526645967
238 59 14476684186379352656
25222932 49 17242759695169416395
27425 322 17345451825850394569
2818148 4 16805878610975239250
3052486 1 17986097733662098775
3411729 13 17240773886353308220
35225 105 17914895572138763594
394222 165 18114194080370673809
5104073 3 17241061920694893009
513532 50 17677068857961965431
6669772 16 17060329730610794054
9999458 23 17774145804556248026

> <PUBCHEM_SHAPE_MULTIPOLES>
585.96
7.89
3.45
3.03
11.36
1.91
0.46
-5.69
3.43
-1.06
-2.02
-3.6
0.76
-1.3

> <PUBCHEM_SHAPE_SELFOVERLAP>
1269.143

> <PUBCHEM_SHAPE_VOLUME>
316.5

> <PUBCHEM_COORDINATE_TYPE>
2
5
10

$$$$
