381514
  -OEChem-01171810163D

 42 45  0     1  0  0  0  0  0999 V2000
   -2.5473    1.0648   -0.7838 O   0  0  0  0  0  0  0  0  0  0  0  0
    0.1517    0.3413   -0.6642 O   0  0  0  0  0  0  0  0  0  0  0  0
   -3.5304    3.1395   -0.9613 O   0  0  0  0  0  0  0  0  0  0  0  0
    4.1714    1.3963   -0.1243 O   0  0  0  0  0  0  0  0  0  0  0  0
    3.6403    3.4864   -0.8892 O   0  0  0  0  0  0  0  0  0  0  0  0
   -2.0522    0.2241    0.2907 C   0  0  2  0  0  0  0  0  0  0  0  0
   -2.9369    0.5992    1.4840 C   0  0  0  0  0  0  0  0  0  0  0  0
   -0.5768    0.5942    0.5209 C   0  0  0  0  0  0  0  0  0  0  0  0
   -2.1520   -1.2497   -0.0814 C   0  0  0  0  0  0  0  0  0  0  0  0
   -3.2997    1.9979    1.1524 C   0  0  0  0  0  0  0  0  0  0  0  0
   -3.1586    2.1864   -0.3020 C   0  0  0  0  0  0  0  0  0  0  0  0
   -1.8050   -2.2285    0.8496 C   0  0  0  0  0  0  0  0  0  0  0  0
   -2.5907   -1.6195   -1.3525 C   0  0  0  0  0  0  0  0  0  0  0  0
    1.4818    0.6746   -0.5012 C   0  0  0  0  0  0  0  0  0  0  0  0
   -3.6608    2.9796    1.9799 C   0  0  0  0  0  0  0  0  0  0  0  0
   -1.8965   -3.5780    0.5091 C   0  0  0  0  0  0  0  0  0  0  0  0
   -2.6822   -2.9691   -1.6928 C   0  0  0  0  0  0  0  0  0  0  0  0
    2.4365   -0.3257   -0.0117 C   0  0  0  0  0  0  0  0  0  0  0  0
   -2.3352   -3.9483   -0.7620 C   0  0  0  0  0  0  0  0  0  0  0  0
    1.8900    1.9149   -0.7860 C   0  0  0  0  0  0  0  0  0  0  0  0
    3.7629    0.0769    0.1674 C   0  0  0  0  0  0  0  0  0  0  0  0
    2.1232   -1.6600    0.2797 C   0  0  0  0  0  0  0  0  0  0  0  0
    3.2867    2.3450   -0.6153 C   0  0  0  0  0  0  0  0  0  0  0  0
    4.7540   -0.7911    0.6299 C   0  0  0  0  0  0  0  0  0  0  0  0
    3.1067   -2.5427    0.7437 C   0  0  0  0  0  0  0  0  0  0  0  0
    4.4190   -2.1086    0.9206 C   0  0  0  0  0  0  0  0  0  0  0  0
   -2.4223    0.4942    2.4445 H   0  0  0  0  0  0  0  0  0  0  0  0
   -3.8521   -0.0052    1.5113 H   0  0  0  0  0  0  0  0  0  0  0  0
   -0.1595    0.0274    1.3634 H   0  0  0  0  0  0  0  0  0  0  0  0
   -0.4985    1.6623    0.7656 H   0  0  0  0  0  0  0  0  0  0  0  0
   -1.4651   -1.9592    1.8458 H   0  0  0  0  0  0  0  0  0  0  0  0
   -2.8661   -0.8859   -2.1041 H   0  0  0  0  0  0  0  0  0  0  0  0
   -3.7366    2.8029    3.0475 H   0  0  0  0  0  0  0  0  0  0  0  0
   -3.8879    3.9768    1.6186 H   0  0  0  0  0  0  0  0  0  0  0  0
   -1.6266   -4.3404    1.2340 H   0  0  0  0  0  0  0  0  0  0  0  0
   -3.0228   -3.2581   -2.6828 H   0  0  0  0  0  0  0  0  0  0  0  0
   -2.4062   -4.9991   -1.0272 H   0  0  0  0  0  0  0  0  0  0  0  0
    1.1912    2.6610   -1.1515 H   0  0  0  0  0  0  0  0  0  0  0  0
    1.1127   -2.0346    0.1445 H   0  0  0  0  0  0  0  0  0  0  0  0
    5.7762   -0.4485    0.7600 H   0  0  0  0  0  0  0  0  0  0  0  0
    2.8434   -3.5733    0.9650 H   0  0  0  0  0  0  0  0  0  0  0  0
    5.1769   -2.7980    1.2802 H   0  0  0  0  0  0  0  0  0  0  0  0
  1  6  1  0  0  0  0
  1 11  1  0  0  0  0
  2  8  1  0  0  0  0
  2 14  1  0  0  0  0
  3 11  2  0  0  0  0
  4 21  1  0  0  0  0
  4 23  1  0  0  0  0
  5 23  2  0  0  0  0
  6  7  1  0  0  0  0
  6  8  1  0  0  0  0
  6  9  1  0  0  0  0
  7 10  1  0  0  0  0
  7 27  1  0  0  0  0
  7 28  1  0  0  0  0
  8 29  1  0  0  0  0
  8 30  1  0  0  0  0
  9 12  2  0  0  0  0
  9 13  1  0  0  0  0
 10 11  1  0  0  0  0
 10 15  2  0  0  0  0
 12 16  1  0  0  0  0
 12 31  1  0  0  0  0
 13 17  2  0  0  0  0
 13 32  1  0  0  0  0
 14 18  1  0  0  0  0
 14 20  2  0  0  0  0
 15 33  1  0  0  0  0
 15 34  1  0  0  0  0
 16 19  2  0  0  0  0
 16 35  1  0  0  0  0
 17 19  1  0  0  0  0
 17 36  1  0  0  0  0
 18 21  1  0  0  0  0
 18 22  2  0  0  0  0
 19 37  1  0  0  0  0
 20 23  1  0  0  0  0
 20 38  1  0  0  0  0
 21 24  2  0  0  0  0
 22 25  1  0  0  0  0
 22 39  1  0  0  0  0
 24 26  1  0  0  0  0
 24 40  1  0  0  0  0
 25 26  2  0  0  0  0
 25 41  1  0  0  0  0
 26 42  1  0  0  0  0
M  END
> <PUBCHEM_COMPOUND_CID>
381514

> <PUBCHEM_CONFORMER_RMSD>
0.8

> <PUBCHEM_CONFORMER_DIVERSEORDER>
1
46
58
39
92
61
91
68
93
72
63
55
75
64
71
30
35
59
37
70
67
34
25
81
48
87
24
52
29
86
90
28
76
43
74
84
66
5
49
26
45
11
47
14
22
60
57
54
73
44
85
89
21
31
65
79
6
19
82
53
36
32
50
12
41
33
10
4
77
9
78
8
80
7
83
16
95
40
13
88
62
15
69
20
94
38
3
51
2
23
42
56
17
27
18

> <PUBCHEM_MMFF94_PARTIAL_CHARGES>
38
1 -0.43
10 -0.12
11 0.71
12 -0.15
13 -0.15
14 0.05
15 -0.3
16 -0.15
17 -0.15
18 0.03
19 -0.15
2 -0.36
20 -0.14
21 0.08
22 -0.15
23 0.71
24 -0.15
25 -0.15
26 -0.15
3 -0.57
31 0.15
32 0.15
33 0.15
34 0.15
35 0.15
36 0.15
37 0.15
38 0.15
39 0.15
4 -0.23
40 0.15
41 0.15
42 0.15
5 -0.57
6 0.42
7 0.14
8 0.28
9 -0.14

> <PUBCHEM_EFFECTIVE_ROTOR_COUNT>
4.6

> <PUBCHEM_PHARMACOPHORE_FEATURES>
7
1 2 acceptor
1 3 acceptor
1 5 acceptor
5 1 6 7 10 11 rings
6 18 21 22 24 25 26 rings
6 4 14 18 20 21 23 rings
6 9 12 13 16 17 19 rings

> <PUBCHEM_HEAVY_ATOM_COUNT>
26

> <PUBCHEM_ATOM_DEF_STEREO_COUNT>
0

> <PUBCHEM_ATOM_UDEF_STEREO_COUNT>
1

> <PUBCHEM_BOND_DEF_STEREO_COUNT>
0

> <PUBCHEM_BOND_UDEF_STEREO_COUNT>
0

> <PUBCHEM_ISOTOPIC_ATOM_COUNT>
0

> <PUBCHEM_COMPONENT_COUNT>
1

> <PUBCHEM_CACTVS_TAUTO_COUNT>
1

> <PUBCHEM_CONFORMER_ID>
0005D24A00000001

> <PUBCHEM_MMFF94_ENERGY>
87.6909

> <PUBCHEM_FEATURE_SELFOVERLAP>
35.55

> <PUBCHEM_SHAPE_FINGERPRINT>
10616163 171 18339644550516613702
11552529 35 18341614879447686188
11578080 2 17702651310705550025
12553582 1 17909269427037461571
12633257 1 18263074427835573546
12788726 201 18130222761529017983
13004483 165 18126279977161623983
13140716 1 18409172108300836160
13383668 90 11315158146146381954
13583140 156 17896045355966234657
13631057 29 18125720347074880510
14117953 113 17834103157435507102
14178342 30 18337378435787388570
14466204 15 17759237393009056560
14787075 74 17405996631255057996
15099037 8 18337946904304572302
15420108 30 17479444652451580977
17492 89 18336826502362745626
18603816 31 13410404241402982568
20681651 13 18200601405062844320
20739085 24 17619087035419985632
21033648 29 17911496732673809536
21033650 10 16557922104013362320
22393880 68 18339087089953117380
22907989 373 18201432644817793965
23558518 356 18188776170596801818
23559900 14 18267286789893402114
23598288 3 18201725105962190535
23728640 28 18342175540468914771
283562 15 17906459070837068064
350125 39 18410014304332826081
38695281 34 17979907212682961877
392239 28 17621882415101040688
4017518 198 17771616859325749366
463206 1 17545876491708933566
469060 322 17758410946974952497
474 4 17910959037401706081
532947 4 17764306141887033975
53777708 50 18410294756843614912
57527585 103 16807019954972750314
7097593 13 18408606950676286604
7615 1 18409445929445462596
9709674 26 18410574002695915022

> <PUBCHEM_SHAPE_MULTIPOLES>
505.72
9.01
4.93
1.38
7.21
1.34
-0.11
-2.55
-1.32
-3.27
0.6
-1.15
-0.17
-2.96

> <PUBCHEM_SHAPE_SELFOVERLAP>
1119.306

> <PUBCHEM_SHAPE_VOLUME>
270.1

> <PUBCHEM_COORDINATE_TYPE>
2
5
10

$$$$
