967677
  -OEChem-01171809573D

 34 36  0     0  0  0  0  0  0999 V2000
   -7.1632    2.7900    0.2081 Cl  0  0  0  0  0  0  0  0  0  0  0  0
    0.9375   -1.9082    0.0233 S   0  0  0  0  0  0  0  0  0  0  0  0
   -1.5263   -0.7402    0.0159 O   0  0  0  0  0  0  0  0  0  0  0  0
    7.1502    1.0886   -0.8851 O   0  0  0  0  0  0  0  0  0  0  0  0
    5.4727    1.1486   -2.4179 O   0  0  0  0  0  0  0  0  0  0  0  0
   -2.8174   -2.4746   -0.5583 N   0  0  0  0  0  0  0  0  0  0  0  0
   -1.5078   -2.9146   -0.5096 N   0  0  0  0  0  0  0  0  0  0  0  0
    2.8135    0.0074    0.7100 C   0  0  0  0  0  0  0  0  0  0  0  0
    1.3394   -0.1903    0.4881 C   0  0  0  0  0  0  0  0  0  0  0  0
    3.6233    0.3801   -0.3550 C   0  0  0  0  0  0  0  0  0  0  0  0
    3.3474   -0.1859    1.9774 C   0  0  0  0  0  0  0  0  0  0  0  0
    4.9907    0.5626   -0.1490 C   0  0  0  0  0  0  0  0  0  0  0  0
   -3.8375   -0.2378   -0.1359 C   0  0  0  0  0  0  0  0  0  0  0  0
    4.7148   -0.0033    2.1836 C   0  0  0  0  0  0  0  0  0  0  0  0
    5.5364    0.3709    1.1204 C   0  0  0  0  0  0  0  0  0  0  0  0
   -2.7742   -1.2062   -0.2451 C   0  0  0  0  0  0  0  0  0  0  0  0
   -0.7896   -1.8694   -0.1710 C   0  0  0  0  0  0  0  0  0  0  0  0
   -3.5472    1.0797    0.2185 C   0  0  0  0  0  0  0  0  0  0  0  0
   -5.1562   -0.6189   -0.3841 C   0  0  0  0  0  0  0  0  0  0  0  0
   -4.5757    2.0160    0.3246 C   0  0  0  0  0  0  0  0  0  0  0  0
   -6.1845    0.3175   -0.2780 C   0  0  0  0  0  0  0  0  0  0  0  0
   -5.8942    1.6350    0.0764 C   0  0  0  0  0  0  0  0  0  0  0  0
    5.8478    0.9527   -1.2571 C   0  0  0  0  0  0  0  0  0  0  0  0
    0.7869    0.0740    1.3976 H   0  0  0  0  0  0  0  0  0  0  0  0
    0.9865    0.4867   -0.2990 H   0  0  0  0  0  0  0  0  0  0  0  0
    3.1895    0.5262   -1.3412 H   0  0  0  0  0  0  0  0  0  0  0  0
    2.7171   -0.4785    2.8125 H   0  0  0  0  0  0  0  0  0  0  0  0
    5.1392   -0.1531    3.1721 H   0  0  0  0  0  0  0  0  0  0  0  0
    6.5952    0.5019    1.3252 H   0  0  0  0  0  0  0  0  0  0  0  0
   -2.5326    1.4141    0.4196 H   0  0  0  0  0  0  0  0  0  0  0  0
   -5.4054   -1.6403   -0.6616 H   0  0  0  0  0  0  0  0  0  0  0  0
   -4.3352    3.0393    0.6019 H   0  0  0  0  0  0  0  0  0  0  0  0
   -7.2074    0.0065   -0.4741 H   0  0  0  0  0  0  0  0  0  0  0  0
    7.7195    1.3522   -1.6393 H   0  0  0  0  0  0  0  0  0  0  0  0
  1 22  1  0  0  0  0
  2  9  1  0  0  0  0
  2 17  1  0  0  0  0
  3 16  1  0  0  0  0
  3 17  1  0  0  0  0
  4 23  1  0  0  0  0
  4 34  1  0  0  0  0
  5 23  2  0  0  0  0
  6  7  1  0  0  0  0
  6 16  2  0  0  0  0
  7 17  2  0  0  0  0
  8  9  1  0  0  0  0
  8 10  2  0  0  0  0
  8 11  1  0  0  0  0
  9 24  1  0  0  0  0
  9 25  1  0  0  0  0
 10 12  1  0  0  0  0
 10 26  1  0  0  0  0
 11 14  2  0  0  0  0
 11 27  1  0  0  0  0
 12 15  2  0  0  0  0
 12 23  1  0  0  0  0
 13 16  1  0  0  0  0
 13 18  2  0  0  0  0
 13 19  1  0  0  0  0
 14 15  1  0  0  0  0
 14 28  1  0  0  0  0
 15 29  1  0  0  0  0
 18 20  1  0  0  0  0
 18 30  1  0  0  0  0
 19 21  2  0  0  0  0
 19 31  1  0  0  0  0
 20 22  2  0  0  0  0
 20 32  1  0  0  0  0
 21 22  1  0  0  0  0
 21 33  1  0  0  0  0
M  END
> <PUBCHEM_COMPOUND_CID>
967677

> <PUBCHEM_CONFORMER_RMSD>
0.8

> <PUBCHEM_CONFORMER_DIVERSEORDER>
1
33
46
56
10
27
23
9
53
36
28
6
51
43
57
48
4
37
21
16
7
38
19
49
14
47
22
52
31
17
40
41
11
5
3
15
32
18
24
45
39
2
50
8
30
12
35
58
55
26
42
59
44
34
25
13
54
20
29

> <PUBCHEM_MMFF94_PARTIAL_CHARGES>
32
1 -0.18
10 -0.15
11 -0.15
12 0.09
13 0.05
14 -0.15
15 -0.15
16 0.43
17 0.53
18 -0.15
19 -0.15
2 -0.29
20 -0.15
21 -0.15
22 0.18
23 0.63
26 0.15
27 0.15
28 0.15
29 0.15
3 -0.28
30 0.15
31 0.15
32 0.15
33 0.15
34 0.5
4 -0.65
5 -0.57
6 -0.34
7 -0.34
8 -0.14
9 0.37

> <PUBCHEM_EFFECTIVE_ROTOR_COUNT>
5

> <PUBCHEM_PHARMACOPHORE_FEATURES>
6
1 4 acceptor
1 5 acceptor
3 4 5 23 anion
5 3 6 7 16 17 rings
6 13 18 19 20 21 22 rings
6 8 10 11 12 14 15 rings

> <PUBCHEM_HEAVY_ATOM_COUNT>
23

> <PUBCHEM_ATOM_DEF_STEREO_COUNT>
0

> <PUBCHEM_ATOM_UDEF_STEREO_COUNT>
0

> <PUBCHEM_BOND_DEF_STEREO_COUNT>
0

> <PUBCHEM_BOND_UDEF_STEREO_COUNT>
0

> <PUBCHEM_ISOTOPIC_ATOM_COUNT>
0

> <PUBCHEM_COMPONENT_COUNT>
1

> <PUBCHEM_CACTVS_TAUTO_COUNT>
1

> <PUBCHEM_CONFORMER_ID>
000EC3FD00000001

> <PUBCHEM_MMFF94_ENERGY>
49.1239

> <PUBCHEM_FEATURE_SELFOVERLAP>
30.505

> <PUBCHEM_SHAPE_FINGERPRINT>
10 15 18187089430293415593
10411042 1 17836360824739644591
10554248 39 18263343824879276615
10591671 39 18411704322345378415
10670039 82 18342743983611524488
10912923 1 17749378321730330514
11056379 131 18196933490303187871
11475781 23 17703784813036919352
12236239 1 17967810565552069962
12390115 104 18131356280929143155
12596602 18 17168144546453202657
12616971 3 17386273364369630722
14341114 176 15936405628751065310
14341114 328 17749103396251419339
14840074 17 17821732740630914293
14931854 50 17417525805642439073
15183329 4 16988851548792970050
15238133 3 18409720782009728258
15575132 122 18187080607903478309
15685185 35 16590582200117623252
1577012 14 18260545623588966689
190975 80 12035743032082252581
1979834 28 14346080784975339058
20645477 70 15698006258216562854
21033648 29 17488728095165102834
21315763 87 14129063599322039121
21315764 119 18342187661346360550
21623969 137 14706921848405585248
22061861 79 16056883545944079140
22122407 14 17604162492049723708
221357 26 16271927099387992208
2215653 11 16917073274058901990
22393880 68 17131828811349298582
23081809 10 18260539043694126003
23559900 14 17489589013080731754
23569914 152 15908565800893944469
2748736 6 18337663123484526221
2838139 119 18201423779841757779
312425 54 14779268583895123681
3663271 9 17240203240071349721
38570 142 17821742632578815350
4015057 19 14907897236334832626
439807 62 11887661893482414917
5104073 3 16588579954872136008
5718773 13 8213841680013843609
5911458 16 17968387809515849268
59682541 35 12396305889475639956
59682541 52 16558753364894462500
59755656 215 17846219938570949798
7062679 6 18408603664767731933
7808743 9 18411694388054270419
9981440 41 18410571769898665931

> <PUBCHEM_SHAPE_MULTIPOLES>
451.48
20.04
2.46
1.42
0.43
0.81
0.08
-15.4
-2.49
4.09
-0.42
-3.69
-0.39
-1.8

> <PUBCHEM_SHAPE_SELFOVERLAP>
961.409

> <PUBCHEM_SHAPE_VOLUME>
254.1

> <PUBCHEM_COORDINATE_TYPE>
2
5
10

$$$$
