3301343
  -OEChem-01171809253D

 55 59  0     0  0  0  0  0  0999 V2000
   -1.7601   -1.6905    0.0786 S   0  0  0  0  0  0  0  0  0  0  0  0
    3.3723    2.4975   -0.5542 O   0  0  0  0  0  0  0  0  0  0  0  0
    5.4736   -3.3281    0.1225 O   0  0  0  0  0  0  0  0  0  0  0  0
    3.2106   -1.6687   -0.0331 N   0  0  0  0  0  0  0  0  0  0  0  0
    0.8829   -1.6651    0.0327 N   0  0  0  0  0  0  0  0  0  0  0  0
   -2.1613    2.1554   -0.2114 N   0  0  0  0  0  0  0  0  0  0  0  0
   -4.8885   -1.0263    0.0545 N   0  0  0  0  0  0  0  0  0  0  0  0
   -4.4193    1.2973   -0.1314 N   0  0  0  0  0  0  0  0  0  0  0  0
   -8.4534   -1.9795    0.2230 N   0  0  0  0  0  0  0  0  0  0  0  0
    2.3557    3.2528    0.1171 C   0  0  0  0  0  0  0  0  0  0  0  0
    0.9772    2.6836   -0.2650 C   0  0  0  0  0  0  0  0  0  0  0  0
    0.8972    1.1789   -0.1429 C   0  0  0  0  0  0  0  0  0  0  0  0
    2.0918    0.4402   -0.1436 C   0  0  0  0  0  0  0  0  0  0  0  0
    3.4318    1.1187   -0.1885 C   0  0  0  0  0  0  0  0  0  0  0  0
   -0.3296    0.4601   -0.0864 C   0  0  0  0  0  0  0  0  0  0  0  0
    2.0156   -0.9420   -0.0447 C   0  0  0  0  0  0  0  0  0  0  0  0
    2.4748    4.6873   -0.4169 C   0  0  0  0  0  0  0  0  0  0  0  0
    2.5766    3.2837    1.6380 C   0  0  0  0  0  0  0  0  0  0  0  0
   -0.2428   -0.9253    0.0034 C   0  0  0  0  0  0  0  0  0  0  0  0
    3.8458   -1.9390    1.2641 C   0  0  0  0  0  0  0  0  0  0  0  0
    3.4692   -2.6682   -1.0752 C   0  0  0  0  0  0  0  0  0  0  0  0
   -1.7127    0.8735   -0.1123 C   0  0  0  0  0  0  0  0  0  0  0  0
   -2.5958   -0.2025   -0.0261 C   0  0  0  0  0  0  0  0  0  0  0  0
    5.3216   -2.2598    1.0570 C   0  0  0  0  0  0  0  0  0  0  0  0
    4.9651   -2.9521   -1.1569 C   0  0  0  0  0  0  0  0  0  0  0  0
   -3.9662    0.0331   -0.0357 C   0  0  0  0  0  0  0  0  0  0  0  0
   -3.4982    2.2727   -0.2136 C   0  0  0  0  0  0  0  0  0  0  0  0
   -6.3064   -0.8281    0.0483 C   0  0  0  0  0  0  0  0  0  0  0  0
   -7.0273   -2.1595    0.1987 C   0  0  0  0  0  0  0  0  0  0  0  0
    0.7604    2.9153   -1.3163 H   0  0  0  0  0  0  0  0  0  0  0  0
    0.2037    3.1590    0.3482 H   0  0  0  0  0  0  0  0  0  0  0  0
    3.9355    1.0405    0.7809 H   0  0  0  0  0  0  0  0  0  0  0  0
    4.0721    0.6411   -0.9380 H   0  0  0  0  0  0  0  0  0  0  0  0
    3.4608    5.1074   -0.1866 H   0  0  0  0  0  0  0  0  0  0  0  0
    2.3799    4.7085   -1.5088 H   0  0  0  0  0  0  0  0  0  0  0  0
    1.7093    5.3433    0.0105 H   0  0  0  0  0  0  0  0  0  0  0  0
    3.5982    3.6031    1.8728 H   0  0  0  0  0  0  0  0  0  0  0  0
    1.8769    3.9701    2.1270 H   0  0  0  0  0  0  0  0  0  0  0  0
    2.4448    2.2993    2.0981 H   0  0  0  0  0  0  0  0  0  0  0  0
    3.3408   -2.7953    1.7279 H   0  0  0  0  0  0  0  0  0  0  0  0
    3.7508   -1.0846    1.9436 H   0  0  0  0  0  0  0  0  0  0  0  0
    3.1128   -2.3147   -2.0497 H   0  0  0  0  0  0  0  0  0  0  0  0
    2.9281   -3.5890   -0.8256 H   0  0  0  0  0  0  0  0  0  0  0  0
    5.8748   -1.3822    0.7011 H   0  0  0  0  0  0  0  0  0  0  0  0
    5.7717   -2.5743    2.0039 H   0  0  0  0  0  0  0  0  0  0  0  0
    5.1508   -3.7787   -1.8498 H   0  0  0  0  0  0  0  0  0  0  0  0
    5.5171   -2.0790   -1.5258 H   0  0  0  0  0  0  0  0  0  0  0  0
   -3.8849    3.2826   -0.2906 H   0  0  0  0  0  0  0  0  0  0  0  0
   -4.5098   -1.9647    0.1219 H   0  0  0  0  0  0  0  0  0  0  0  0
   -6.6122   -0.3467   -0.8892 H   0  0  0  0  0  0  0  0  0  0  0  0
   -6.5910   -0.1615    0.8723 H   0  0  0  0  0  0  0  0  0  0  0  0
   -6.7047   -2.6581    1.1206 H   0  0  0  0  0  0  0  0  0  0  0  0
   -6.7586   -2.8238   -0.6308 H   0  0  0  0  0  0  0  0  0  0  0  0
   -8.7200   -1.3884    1.0091 H   0  0  0  0  0  0  0  0  0  0  0  0
   -8.9131   -2.8767    0.3718 H   0  0  0  0  0  0  0  0  0  0  0  0
  1 19  1  0  0  0  0
  1 23  1  0  0  0  0
  2 10  1  0  0  0  0
  2 14  1  0  0  0  0
  3 24  1  0  0  0  0
  3 25  1  0  0  0  0
  4 16  1  0  0  0  0
  4 20  1  0  0  0  0
  4 21  1  0  0  0  0
  5 16  2  0  0  0  0
  5 19  1  0  0  0  0
  6 22  1  0  0  0  0
  6 27  2  0  0  0  0
  7 26  1  0  0  0  0
  7 28  1  0  0  0  0
  7 49  1  0  0  0  0
  8 26  2  0  0  0  0
  8 27  1  0  0  0  0
  9 29  1  0  0  0  0
  9 54  1  0  0  0  0
  9 55  1  0  0  0  0
 10 11  1  0  0  0  0
 10 17  1  0  0  0  0
 10 18  1  0  0  0  0
 11 12  1  0  0  0  0
 11 30  1  0  0  0  0
 11 31  1  0  0  0  0
 12 13  2  0  0  0  0
 12 15  1  0  0  0  0
 13 14  1  0  0  0  0
 13 16  1  0  0  0  0
 14 32  1  0  0  0  0
 14 33  1  0  0  0  0
 15 19  2  0  0  0  0
 15 22  1  0  0  0  0
 17 34  1  0  0  0  0
 17 35  1  0  0  0  0
 17 36  1  0  0  0  0
 18 37  1  0  0  0  0
 18 38  1  0  0  0  0
 18 39  1  0  0  0  0
 20 24  1  0  0  0  0
 20 40  1  0  0  0  0
 20 41  1  0  0  0  0
 21 25  1  0  0  0  0
 21 42  1  0  0  0  0
 21 43  1  0  0  0  0
 22 23  2  0  0  0  0
 23 26  1  0  0  0  0
 24 44  1  0  0  0  0
 24 45  1  0  0  0  0
 25 46  1  0  0  0  0
 25 47  1  0  0  0  0
 27 48  1  0  0  0  0
 28 29  1  0  0  0  0
 28 50  1  0  0  0  0
 28 51  1  0  0  0  0
 29 52  1  0  0  0  0
 29 53  1  0  0  0  0
M  END
> <PUBCHEM_COMPOUND_CID>
3301343

> <PUBCHEM_CONFORMER_RMSD>
0.8

> <PUBCHEM_CONFORMER_DIVERSEORDER>
1
3
9
8
5
6
7
4
2

> <PUBCHEM_MMFF94_PARTIAL_CHARGES>
30
1 -0.08
10 0.28
11 0.14
12 -0.14
13 -0.14
14 0.42
16 0.41
19 0.3
2 -0.56
20 0.37
21 0.37
22 0.26
23 0.04
24 0.28
25 0.28
26 0.41
27 0.47
28 0.37
29 0.27
3 -0.56
4 -0.84
48 0.15
49 0.4
5 -0.57
54 0.36
55 0.36
6 -0.57
7 -0.87
8 -0.62
9 -0.99

> <PUBCHEM_EFFECTIVE_ROTOR_COUNT>
6

> <PUBCHEM_PHARMACOPHORE_FEATURES>
14
1 2 acceptor
1 3 acceptor
1 7 donor
1 9 cation
1 9 donor
3 10 17 18 hydrophobe
3 4 5 16 cation
3 6 8 27 cation
3 7 8 26 cation
5 1 15 19 22 23 rings
6 2 10 11 12 13 14 rings
6 3 4 20 21 24 25 rings
6 5 12 13 15 16 19 rings
6 6 8 22 23 26 27 rings

> <PUBCHEM_HEAVY_ATOM_COUNT>
29

> <PUBCHEM_ATOM_DEF_STEREO_COUNT>
0

> <PUBCHEM_ATOM_UDEF_STEREO_COUNT>
0

> <PUBCHEM_BOND_DEF_STEREO_COUNT>
0

> <PUBCHEM_BOND_UDEF_STEREO_COUNT>
0

> <PUBCHEM_ISOTOPIC_ATOM_COUNT>
0

> <PUBCHEM_COMPONENT_COUNT>
1

> <PUBCHEM_CACTVS_TAUTO_COUNT>
3

> <PUBCHEM_CONFORMER_ID>
00325FDF00000001

> <PUBCHEM_MMFF94_ENERGY>
91.7028

> <PUBCHEM_FEATURE_SELFOVERLAP>
71.342

> <PUBCHEM_SHAPE_FINGERPRINT>
10050765 1 18409730660625107685
10411042 1 18338235951799307654
1100329 8 17981048509573723088
11014199 57 18268997487925993736
11578080 2 14350358993931299484
11963148 33 18048311434382978795
12107183 9 18126296242466375617
12166972 35 18201719535273686707
12403259 226 18335416820770147893
12516196 113 18338797802357230162
12730499 353 18266466597121482689
13009979 54 17988369152342962800
131258 43 17702966742511334606
13140716 1 18195805168266372640
13383668 362 18198046174431702266
13533116 47 18410293657463855971
13540713 4 18263064592397883021
13782708 43 17967816024893736355
138480 1 18410575055284571372
13955234 65 18341610485722575064
14114211 68 18047487882450372300
14790565 3 16539052032566401100
14955137 171 18271804549912058742
15082195 135 17967820504713529397
15196674 1 18409449168188478789
15927050 60 18123753329400134446
17492 89 18411699881285527015
17980427 23 17345752958623601696
1813 80 18199192798019555406
18681886 176 18339918234454421554
19841028 212 18335702802212291115
21033648 29 17344039915185964978
21049683 271 18409454687490668212
21267235 1 18410859823952727751
21279426 13 18261385634321262925
21344244 78 18130780157651623016
21792934 111 18340758300746531001
22149856 69 18121516889164479499
22311459 1 18121781896794270453
22393880 68 17968647234483227095
2260408 40 16988015868464096063
23366157 5 18187927330635474668
23522609 53 18048353031014451741
23559900 14 18409441471375105665
24771750 20 18191034593804160396
249057 3 18267299821252108781
249999 5 18339922748306456232
255183 451 18342185440141295822
283562 15 17833553393210623098
3004659 81 18043258951157211078
335352 9 18193838141885173397
350125 39 18410293605787442621
4073 2 17971476454159158627
5104073 3 18413672405383504969
5385378 56 18269835483500957000
59755656 215 18263931105795808773
70251023 43 18409451367032393195
8863177 126 17968960659358195627
9709674 26 18408606989178069979
9962374 69 18342166817501268775
9981440 41 17832979821529253408

> <PUBCHEM_SHAPE_MULTIPOLES>
559.03
14.56
5.01
0.91
27.79
3.45
-0.17
-14.47
-1.16
-7.26
0.14
-1.1
-0.09
0.63

> <PUBCHEM_SHAPE_SELFOVERLAP>
1207.358

> <PUBCHEM_SHAPE_VOLUME>
311.5

> <PUBCHEM_COORDINATE_TYPE>
2
5
10

$$$$
