68094
  -OEChem-01171809533D

 25 27  0     0  0  0  0  0  0999 V2000
   -4.4836    0.6073    0.0013 O   0  0  0  0  0  0  0  0  0  0  0  0
    0.2525    1.5235   -0.0005 N   0  0  0  0  0  0  0  0  0  0  0  0
    3.4296   -0.3875    0.0004 N   0  0  0  0  0  0  0  0  0  0  0  0
    0.7174   -0.7124   -0.0002 C   0  0  0  0  0  0  0  0  0  0  0  0
    1.3028    0.6509   -0.0003 C   0  0  0  0  0  0  0  0  0  0  0  0
   -0.6253   -0.5825   -0.0002 C   0  0  0  0  0  0  0  0  0  0  0  0
   -0.9402    0.8509   -0.0004 C   0  0  0  0  0  0  0  0  0  0  0  0
    2.6468    0.7676    0.0000 C   0  0  0  0  0  0  0  0  0  0  0  0
    1.5618   -1.8904    0.0000 C   0  0  0  0  0  0  0  0  0  0  0  0
   -1.6573   -1.5819   -0.0003 C   0  0  0  0  0  0  0  0  0  0  0  0
   -2.2089    1.2700   -0.0003 C   0  0  0  0  0  0  0  0  0  0  0  0
    2.8883   -1.6599    0.0005 C   0  0  0  0  0  0  0  0  0  0  0  0
    3.3647    2.0813    0.0003 C   0  0  0  0  0  0  0  0  0  0  0  0
   -2.9410   -1.1942   -0.0004 C   0  0  0  0  0  0  0  0  0  0  0  0
   -3.3075    0.2573    0.0001 C   0  0  0  0  0  0  0  0  0  0  0  0
    0.3394    2.5275   -0.0005 H   0  0  0  0  0  0  0  0  0  0  0  0
    1.1445   -2.8883    0.0001 H   0  0  0  0  0  0  0  0  0  0  0  0
   -1.3956   -2.6335   -0.0005 H   0  0  0  0  0  0  0  0  0  0  0  0
   -2.4754    2.3201   -0.0002 H   0  0  0  0  0  0  0  0  0  0  0  0
    4.4377   -0.2910    0.0007 H   0  0  0  0  0  0  0  0  0  0  0  0
    3.6249   -2.4531    0.0008 H   0  0  0  0  0  0  0  0  0  0  0  0
    2.6766    2.9324    0.0001 H   0  0  0  0  0  0  0  0  0  0  0  0
    4.0000    2.1669   -0.8874 H   0  0  0  0  0  0  0  0  0  0  0  0
    3.9994    2.1669    0.8886 H   0  0  0  0  0  0  0  0  0  0  0  0
   -3.7489   -1.9170   -0.0004 H   0  0  0  0  0  0  0  0  0  0  0  0
  1 15  2  0  0  0  0
  2  5  1  0  0  0  0
  2  7  1  0  0  0  0
  2 16  1  0  0  0  0
  3  8  1  0  0  0  0
  3 12  1  0  0  0  0
  3 20  1  0  0  0  0
  4  5  1  0  0  0  0
  4  6  2  0  0  0  0
  4  9  1  0  0  0  0
  5  8  2  0  0  0  0
  6  7  1  0  0  0  0
  6 10  1  0  0  0  0
  7 11  2  0  0  0  0
  8 13  1  0  0  0  0
  9 12  2  0  0  0  0
  9 17  1  0  0  0  0
 10 14  2  0  0  0  0
 10 18  1  0  0  0  0
 11 15  1  0  0  0  0
 11 19  1  0  0  0  0
 12 21  1  0  0  0  0
 13 22  1  0  0  0  0
 13 23  1  0  0  0  0
 13 24  1  0  0  0  0
 14 15  1  0  0  0  0
 14 25  1  0  0  0  0
M  END
> <PUBCHEM_COMPOUND_CID>
68094

> <PUBCHEM_CONFORMER_RMSD>
0.4

> <PUBCHEM_CONFORMER_DIVERSEORDER>
1

> <PUBCHEM_MMFF94_PARTIAL_CHARGES>
20
1 -0.57
10 -0.15
11 -0.14
12 -0.05
13 0.14
14 -0.14
15 0.54
16 0.4
17 0.15
18 0.15
19 0.15
2 -0.6
20 0.4
21 0.15
25 0.15
3 -0.6
5 0.1
7 0.1
8 -0.04
9 -0.15

> <PUBCHEM_EFFECTIVE_ROTOR_COUNT>
0

> <PUBCHEM_PHARMACOPHORE_FEATURES>
8
1 1 acceptor
1 2 cation
1 2 donor
1 3 cation
1 3 donor
5 2 4 5 6 7 rings
6 3 4 5 8 9 12 rings
6 6 7 10 11 14 15 rings

> <PUBCHEM_HEAVY_ATOM_COUNT>
15

> <PUBCHEM_ATOM_DEF_STEREO_COUNT>
0

> <PUBCHEM_ATOM_UDEF_STEREO_COUNT>
0

> <PUBCHEM_BOND_DEF_STEREO_COUNT>
0

> <PUBCHEM_BOND_UDEF_STEREO_COUNT>
0

> <PUBCHEM_ISOTOPIC_ATOM_COUNT>
0

> <PUBCHEM_COMPONENT_COUNT>
1

> <PUBCHEM_CACTVS_TAUTO_COUNT>
12

> <PUBCHEM_CONFORMER_ID>
000109FE00000001

> <PUBCHEM_MMFF94_ENERGY>
58.9056

> <PUBCHEM_FEATURE_SELFOVERLAP>
40.798

> <PUBCHEM_SHAPE_FINGERPRINT>
10608611 8 18409163298927584789
10967382 1 18410575080415603876
10980938 120 18411981386000045538
11132069 177 18410004468288142400
11471102 20 18410852144418690685
12032990 46 18410017598055991547
12251169 10 18410851028028049450
12932764 1 17458336408019365539
13140716 1 18409728460847147186
13221675 6 18410575058956825523
13380535 21 18410863191143258083
13380535 76 18409728482216494778
13897977 150 18410570725318941180
14144814 61 18411420596409886467
14325111 11 18410575110454157089
14576447 43 17913472813115003247
14897335 6 18411696612356543749
15196674 1 18410574015374672647
15219456 202 18409169934715126779
15442244 35 18195810674018274498
15536298 74 18342739619987516030
15775835 57 18342461486089244748
16945 1 18266740182106022982
18186145 218 17821725031064325567
200 152 18060131033877418895
20201158 50 18410856525322606539
20528008 55 18411696582592407521
20645477 70 18341892970085295359
21267235 1 18411428280006528835
21501502 16 18411978083017369975
221490 88 18408895048440184074
2334 1 18410575132076686634
23402539 116 18201427035696013165
23402655 69 18342449319127539949
23463225 33 18409729538936458238
23552423 10 18334576841141313734
23559900 14 18341327808592948946
2748010 2 18410014355382011462
3312278 4 18340491178658908339
335352 9 18194683665867418999
34934 24 18340761628375533197
449060 62 18413392055150018504
5104073 3 18410012156474768827
528886 8 18411414029299506290
53812653 166 18271240633454014920
57096353 35 18268708483839257015
69090 78 18413102849548718735
7364860 26 18342176648728089310
8809292 202 18260835894706614331
9709674 26 18411141341815827367

> <PUBCHEM_SHAPE_MULTIPOLES>
292.86
6.44
2.07
0.6
2.14
0.11
0
-1.05
0
-1.15
0
-0.01
0.01
0

> <PUBCHEM_SHAPE_SELFOVERLAP>
656.159

> <PUBCHEM_SHAPE_VOLUME>
155.3

> <PUBCHEM_COORDINATE_TYPE>
2
5
10

$$$$
