3219869
  -OEChem-01171809453D

 44 47  0     1  0  0  0  0  0999 V2000
    0.9171    1.8867   -0.1209 S   0  0  0  0  0  0  0  0  0  0  0  0
   -6.6993   -0.2079   -0.2856 O   0  0  0  0  0  0  0  0  0  0  0  0
    3.4844   -0.1100    0.1433 N   0  0  0  0  0  0  0  0  0  0  0  0
    1.9915   -1.9706    0.2225 N   0  0  0  0  0  0  0  0  0  0  0  0
   -0.4176   -1.7057    0.0995 N   0  0  0  0  0  0  0  0  0  0  0  0
   -0.7415    1.9141   -0.1939 N   0  0  0  0  0  0  0  0  0  0  0  0
    4.5579   -0.7661   -0.6304 C   0  0  1  0  0  0  0  0  0  0  0  0
    5.5425    0.2828   -1.1670 C   0  0  0  0  0  0  0  0  0  0  0  0
    6.0334    1.2420   -0.0879 C   0  0  0  0  0  0  0  0  0  0  0  0
    3.8927    0.8382    1.1878 C   0  0  0  0  0  0  0  0  0  0  0  0
    4.8499    1.8848    0.6230 C   0  0  0  0  0  0  0  0  0  0  0  0
    5.2530   -1.8334    0.2207 C   0  0  0  0  0  0  0  0  0  0  0  0
    2.2061   -0.6273    0.1284 C   0  0  0  0  0  0  0  0  0  0  0  0
    1.0717    0.1872    0.0169 C   0  0  0  0  0  0  0  0  0  0  0  0
   -0.2055   -0.3679    0.0054 C   0  0  0  0  0  0  0  0  0  0  0  0
   -1.1831    0.6615   -0.1159 C   0  0  0  0  0  0  0  0  0  0  0  0
    0.7196   -2.4182    0.2028 C   0  0  0  0  0  0  0  0  0  0  0  0
   -2.6102    0.4356   -0.1591 C   0  0  0  0  0  0  0  0  0  0  0  0
   -3.3411    0.4210    1.0232 C   0  0  0  0  0  0  0  0  0  0  0  0
   -3.2377    0.2368   -1.3835 C   0  0  0  0  0  0  0  0  0  0  0  0
   -4.7185    0.2043    0.9807 C   0  0  0  0  0  0  0  0  0  0  0  0
   -4.6150    0.0203   -1.4261 C   0  0  0  0  0  0  0  0  0  0  0  0
   -5.3554    0.0038   -0.2440 C   0  0  0  0  0  0  0  0  0  0  0  0
   -7.3948   -0.2120    0.9602 C   0  0  0  0  0  0  0  0  0  0  0  0
    4.1207   -1.2677   -1.5046 H   0  0  0  0  0  0  0  0  0  0  0  0
    5.0399    0.8683   -1.9483 H   0  0  0  0  0  0  0  0  0  0  0  0
    6.3983   -0.2076   -1.6452 H   0  0  0  0  0  0  0  0  0  0  0  0
    6.6586    2.0193   -0.5415 H   0  0  0  0  0  0  0  0  0  0  0  0
    6.6618    0.7109    0.6361 H   0  0  0  0  0  0  0  0  0  0  0  0
    4.3846    0.2866    1.9984 H   0  0  0  0  0  0  0  0  0  0  0  0
    3.0439    1.3456    1.6561 H   0  0  0  0  0  0  0  0  0  0  0  0
    5.2105    2.5296    1.4323 H   0  0  0  0  0  0  0  0  0  0  0  0
    4.3114    2.5286   -0.0835 H   0  0  0  0  0  0  0  0  0  0  0  0
    4.5497   -2.6048    0.5491 H   0  0  0  0  0  0  0  0  0  0  0  0
    6.0385   -2.3303   -0.3588 H   0  0  0  0  0  0  0  0  0  0  0  0
    5.7176   -1.4142    1.1183 H   0  0  0  0  0  0  0  0  0  0  0  0
    0.5979   -3.4929    0.2802 H   0  0  0  0  0  0  0  0  0  0  0  0
   -2.8574    0.5758    1.9846 H   0  0  0  0  0  0  0  0  0  0  0  0
   -2.6739    0.2467   -2.3131 H   0  0  0  0  0  0  0  0  0  0  0  0
   -5.2323    0.2041    1.9359 H   0  0  0  0  0  0  0  0  0  0  0  0
   -5.1057   -0.1353   -2.3830 H   0  0  0  0  0  0  0  0  0  0  0  0
   -7.0577   -1.0295    1.6065 H   0  0  0  0  0  0  0  0  0  0  0  0
   -8.4517   -0.3940    0.7397 H   0  0  0  0  0  0  0  0  0  0  0  0
   -7.3352    0.7620    1.4576 H   0  0  0  0  0  0  0  0  0  0  0  0
  1  6  1  0  0  0  0
  1 14  1  0  0  0  0
  2 23  1  0  0  0  0
  2 24  1  0  0  0  0
  3  7  1  0  0  0  0
  3 10  1  0  0  0  0
  3 13  1  0  0  0  0
  4 13  2  0  0  0  0
  4 17  1  0  0  0  0
  5 15  1  0  0  0  0
  5 17  2  0  0  0  0
  6 16  2  0  0  0  0
  7  8  1  0  0  0  0
  7 12  1  0  0  0  0
  7 25  1  0  0  0  0
  8  9  1  0  0  0  0
  8 26  1  0  0  0  0
  8 27  1  0  0  0  0
  9 11  1  0  0  0  0
  9 28  1  0  0  0  0
  9 29  1  0  0  0  0
 10 11  1  0  0  0  0
 10 30  1  0  0  0  0
 10 31  1  0  0  0  0
 11 32  1  0  0  0  0
 11 33  1  0  0  0  0
 12 34  1  0  0  0  0
 12 35  1  0  0  0  0
 12 36  1  0  0  0  0
 13 14  1  0  0  0  0
 14 15  2  0  0  0  0
 15 16  1  0  0  0  0
 16 18  1  0  0  0  0
 17 37  1  0  0  0  0
 18 19  2  0  0  0  0
 18 20  1  0  0  0  0
 19 21  1  0  0  0  0
 19 38  1  0  0  0  0
 20 22  2  0  0  0  0
 20 39  1  0  0  0  0
 21 23  2  0  0  0  0
 21 40  1  0  0  0  0
 22 23  1  0  0  0  0
 22 41  1  0  0  0  0
 24 42  1  0  0  0  0
 24 43  1  0  0  0  0
 24 44  1  0  0  0  0
M  END
> <PUBCHEM_COMPOUND_CID>
3219869

> <PUBCHEM_CONFORMER_RMSD>
0.8

> <PUBCHEM_CONFORMER_DIVERSEORDER>
5
12
6
7
11
3
8
13
4
9
2
10
1

> <PUBCHEM_MMFF94_PARTIAL_CHARGES>
25
1 0.18
10 0.37
13 0.41
14 0.04
15 0.26
16 0.23
17 0.47
18 0.05
19 -0.15
2 -0.36
20 -0.15
21 -0.15
22 -0.15
23 0.08
24 0.28
3 -0.84
37 0.15
38 0.15
39 0.15
4 -0.62
40 0.15
41 0.15
5 -0.57
6 -0.51
7 0.37

> <PUBCHEM_EFFECTIVE_ROTOR_COUNT>
4.2

> <PUBCHEM_PHARMACOPHORE_FEATURES>
8
1 2 acceptor
1 6 acceptor
3 3 4 13 cation
3 4 5 17 cation
5 1 6 14 15 16 rings
6 18 19 20 21 22 23 rings
6 3 7 8 9 10 11 rings
6 4 5 13 14 15 17 rings

> <PUBCHEM_HEAVY_ATOM_COUNT>
24

> <PUBCHEM_ATOM_DEF_STEREO_COUNT>
0

> <PUBCHEM_ATOM_UDEF_STEREO_COUNT>
1

> <PUBCHEM_BOND_DEF_STEREO_COUNT>
0

> <PUBCHEM_BOND_UDEF_STEREO_COUNT>
0

> <PUBCHEM_ISOTOPIC_ATOM_COUNT>
0

> <PUBCHEM_COMPONENT_COUNT>
1

> <PUBCHEM_CACTVS_TAUTO_COUNT>
1

> <PUBCHEM_CONFORMER_ID>
0031219D00000005

> <PUBCHEM_MMFF94_ENERGY>
77.8682

> <PUBCHEM_FEATURE_SELFOVERLAP>
40.784

> <PUBCHEM_SHAPE_FINGERPRINT>
10 15 17676205818654102560
10670039 82 18115036204147752244
11963148 33 17967529103846358355
12166972 35 17749113257828510708
12236239 1 17846779611854668681
12403259 415 18261105240996088676
12516196 113 18410856568594169269
12596602 18 17703790349476591075
12616971 3 17988629779701093974
12730499 353 18410577275592798242
12969540 114 18334564759472157054
13140716 1 18191866940463140720
13533116 47 18411699847174143638
13583140 156 16371550596864559620
13685833 64 18334017198861148313
13862211 1 18410008802005310290
13899415 154 18272093807106051745
13914758 101 7997699697052231295
14170010 4 18335703866461690653
14528608 73 18342735221745910644
14787075 74 18201717366404866128
14790565 3 18411987940078616800
14840074 17 18342174475211069389
14849402 71 18200316653385510593
15183329 4 15410902863538444354
17844677 252 18411983524794058388
19489759 90 15719391720247346669
200 152 18413385419842245073
21033648 29 18189035590806119316
21267235 1 18339645538654263454
21521721 280 18341897423733986921
21623969 137 18334018293835339163
21641784 216 18114759126595502412
21792934 111 18338784624806729224
221357 26 18130791136189670728
22224240 67 18334857251335374475
23035841 295 17775846809384748351
23522609 53 17916609607576858857
23536379 177 16200436866308659876
23557571 272 16951127257588623983
23559900 14 18129935809809667624
23569914 152 17045118811557366845
23569943 247 17914630353708883358
24771293 8 18128521846990140408
3178227 256 18336555983994326019
335352 9 18411985776479872284
34797466 226 16732993019834969846
4325135 7 17989489623632533092
4340502 62 16443060599704521138
4463277 17 18413108347059514725
5104073 3 18189610541129807033
53794403 172 18118967138310804532
542803 24 17418091018684304925
5486654 2 18409172133748873366
5758199 1 18342461460683340769
7495541 125 16443352004566797381
8988823 20 12829492567097762918

> <PUBCHEM_SHAPE_MULTIPOLES>
471.96
16.44
1.88
1.07
11.4
0.45
-0.12
-0.94
0.53
-2.54
0.2
0.62
-0.12
0.24

> <PUBCHEM_SHAPE_SELFOVERLAP>
1015.462

> <PUBCHEM_SHAPE_VOLUME>
263.3

> <PUBCHEM_COORDINATE_TYPE>
2
5
10

$$$$
