3155287
  -OEChem-01171809443D

 31 32  0     0  0  0  0  0  0999 V2000
   -1.5053   -3.4129   -0.1406 Cl  0  0  0  0  0  0  0  0  0  0  0  0
    3.2271   -0.1884    0.3014 S   0  0  0  0  0  0  0  0  0  0  0  0
    1.2285   -2.3009    0.0813 S   0  0  0  0  0  0  0  0  0  0  0  0
   -4.6689    0.8647   -0.1371 O   0  0  0  0  0  0  0  0  0  0  0  0
    3.3473    0.6302    1.5028 O   0  0  0  0  0  0  0  0  0  0  0  0
    3.9938   -1.4238    0.1794 O   0  0  0  0  0  0  0  0  0  0  0  0
   -0.7416    2.1374    0.1604 O   0  5  0  0  0  0  0  0  0  0  0  0
    1.4521    2.1338    0.2980 O   0  0  0  0  0  0  0  0  0  0  0  0
   -2.0879   -0.2422   -0.0315 N   0  0  0  0  0  0  0  0  0  0  0  0
    0.3560    1.5283    0.2018 N   0  3  0  0  0  0  0  0  0  0  0  0
   -2.8642   -0.0445    1.1990 C   0  0  0  0  0  0  0  0  0  0  0  0
   -2.8979   -0.3732   -1.2467 C   0  0  0  0  0  0  0  0  0  0  0  0
   -0.7960   -0.7160    0.0274 C   0  0  0  0  0  0  0  0  0  0  0  0
   -3.8416    1.1076    1.0020 C   0  0  0  0  0  0  0  0  0  0  0  0
   -3.8835    0.7885   -1.3272 C   0  0  0  0  0  0  0  0  0  0  0  0
    0.3578    0.1155    0.1377 C   0  0  0  0  0  0  0  0  0  0  0  0
    1.5238   -0.6168    0.1772 C   0  0  0  0  0  0  0  0  0  0  0  0
   -0.4632   -2.0537   -0.0132 C   0  0  0  0  0  0  0  0  0  0  0  0
    3.5155    0.7932   -1.0982 C   0  0  0  0  0  0  0  0  0  0  0  0
    4.7480    1.2732   -1.2739 C   0  0  0  0  0  0  0  0  0  0  0  0
   -2.2095    0.1722    2.0511 H   0  0  0  0  0  0  0  0  0  0  0  0
   -3.4129   -0.9680    1.4201 H   0  0  0  0  0  0  0  0  0  0  0  0
   -3.4505   -1.3192   -1.2084 H   0  0  0  0  0  0  0  0  0  0  0  0
   -2.2667   -0.3809   -2.1428 H   0  0  0  0  0  0  0  0  0  0  0  0
   -4.4946    1.1940    1.8763 H   0  0  0  0  0  0  0  0  0  0  0  0
   -3.3272    2.0671    0.8794 H   0  0  0  0  0  0  0  0  0  0  0  0
   -3.3645    1.7423   -1.4809 H   0  0  0  0  0  0  0  0  0  0  0  0
   -4.5649    0.6420   -2.1712 H   0  0  0  0  0  0  0  0  0  0  0  0
    2.7314    0.9770   -1.8233 H   0  0  0  0  0  0  0  0  0  0  0  0
    4.9772    1.8763   -2.1459 H   0  0  0  0  0  0  0  0  0  0  0  0
    5.5502    1.0852   -0.5685 H   0  0  0  0  0  0  0  0  0  0  0  0
  1 18  1  0  0  0  0
  2  5  2  0  0  0  0
  2  6  2  0  0  0  0
  2 17  1  0  0  0  0
  2 19  1  0  0  0  0
  3 17  1  0  0  0  0
  3 18  1  0  0  0  0
  4 14  1  0  0  0  0
  4 15  1  0  0  0  0
  7 10  1  0  0  0  0
  8 10  2  0  0  0  0
  9 11  1  0  0  0  0
  9 12  1  0  0  0  0
  9 13  1  0  0  0  0
 10 16  1  0  0  0  0
 11 14  1  0  0  0  0
 11 21  1  0  0  0  0
 11 22  1  0  0  0  0
 12 15  1  0  0  0  0
 12 23  1  0  0  0  0
 12 24  1  0  0  0  0
 13 16  1  0  0  0  0
 13 18  2  0  0  0  0
 14 25  1  0  0  0  0
 14 26  1  0  0  0  0
 15 27  1  0  0  0  0
 15 28  1  0  0  0  0
 16 17  2  0  0  0  0
 19 20  2  0  0  0  0
 19 29  1  0  0  0  0
 20 30  1  0  0  0  0
 20 31  1  0  0  0  0
M  CHG  2   7  -1  10   1
M  END
> <PUBCHEM_COMPOUND_CID>
3155287

> <PUBCHEM_CONFORMER_RMSD>
0.8

> <PUBCHEM_CONFORMER_DIVERSEORDER>
1
4
2
5
3

> <PUBCHEM_MMFF94_PARTIAL_CHARGES>
23
1 -0.12
10 0.96
11 0.37
12 0.37
13 0.08
14 0.28
15 0.28
16 0.08
17 -0.02
18 0.16
19 -0.17
2 1.38
20 -0.3
29 0.15
3 -0.08
30 0.15
31 0.15
4 -0.56
5 -0.65
6 -0.65
7 -0.52
8 -0.52
9 -0.82

> <PUBCHEM_EFFECTIVE_ROTOR_COUNT>
5.2

> <PUBCHEM_PHARMACOPHORE_FEATURES>
9
1 4 acceptor
1 5 acceptor
1 6 acceptor
1 7 acceptor
1 7 anion
1 8 acceptor
1 9 cation
5 3 13 16 17 18 rings
6 4 9 11 12 14 15 rings

> <PUBCHEM_HEAVY_ATOM_COUNT>
20

> <PUBCHEM_ATOM_DEF_STEREO_COUNT>
0

> <PUBCHEM_ATOM_UDEF_STEREO_COUNT>
0

> <PUBCHEM_BOND_DEF_STEREO_COUNT>
0

> <PUBCHEM_BOND_UDEF_STEREO_COUNT>
0

> <PUBCHEM_ISOTOPIC_ATOM_COUNT>
0

> <PUBCHEM_COMPONENT_COUNT>
1

> <PUBCHEM_CACTVS_TAUTO_COUNT>
1

> <PUBCHEM_CONFORMER_ID>
0030255700000001

> <PUBCHEM_MMFF94_ENERGY>
46.2432

> <PUBCHEM_FEATURE_SELFOVERLAP>
45.777

> <PUBCHEM_SHAPE_FINGERPRINT>
10498660 4 18338803420089706660
10967382 1 18339640036183972338
10980938 120 18338511945980880811
11132069 177 18410845564787327570
12236239 1 17703783696672443509
12403814 3 17458339775437282367
12553582 1 18413674621127764576
12596599 1 17418375813348988685
12788726 201 18059025990395732112
13140716 1 18267297814842401120
13538477 17 18334575785038249374
13583140 156 16443333274050687502
13760787 5 18408324358728458796
14178342 30 18196356229697422074
14289901 80 15575003900332014904
14790565 3 18339094699944751064
15309172 13 18411136909762583595
15342168 16 18335709312659122071
15848702 151 17417531285281801470
16752209 62 18339918208573529440
16945 1 18411979174102424706
18186145 218 18131351937920641136
19591789 44 18268151959167790810
19784866 34 18335422391484551340
204376 136 18335423456679099815
20600515 1 18271512196100108232
20645476 183 17968945317602884974
20739085 24 18049463464479752257
20871999 31 18265901448208246038
21069387 34 14548751615870990572
22182313 1 17912078662208387298
2334 1 17979068619753941378
23402539 116 18200866293086925414
23493267 7 17531245011251385905
23557571 272 18127424542969701590
23558518 356 17758683247896321761
23559900 14 17896598371550011282
25 1 18409448076813092015
2748010 2 18053096517206780938
34934 24 18337389443936384276
350125 39 18192722356647125611
44154327 71 18408610240652864446
474 4 18338518539035229075
537710 114 18410013217273784644
633830 44 18270974435559749767
74978 22 18268428104021229488
81228 2 17613994518730913099

> <PUBCHEM_SHAPE_MULTIPOLES>
381.85
8.23
2.68
1.16
1.3
1.91
0.09
-3.72
1.42
-0.28
0.06
-0.14
-0.33
-0.55

> <PUBCHEM_SHAPE_SELFOVERLAP>
767.583

> <PUBCHEM_SHAPE_VOLUME>
225

> <PUBCHEM_COORDINATE_TYPE>
2
5
10

$$$$
