6089213
  -OEChem-01171809563D

 58 60  0     0  0  0  0  0  0999 V2000
   -4.5554    0.4481    1.5066 O   0  0  0  0  0  0  0  0  0  0  0  0
    5.2834    2.1649    0.6540 O   0  0  0  0  0  0  0  0  0  0  0  0
    3.1777   -1.7081   -1.2430 O   0  0  0  0  0  0  0  0  0  0  0  0
   -4.1944    1.9930   -0.7749 O   0  0  0  0  0  0  0  0  0  0  0  0
    7.4713   -2.0648    0.7881 O   0  0  0  0  0  0  0  0  0  0  0  0
    3.1948    2.0393   -1.4361 O   0  0  0  0  0  0  0  0  0  0  0  0
    4.2026    0.2485   -0.3041 C   0  0  0  0  0  0  0  0  0  0  0  0
   -0.7305    1.1847    0.0688 C   0  0  0  0  0  0  0  0  0  0  0  0
   -3.3038    0.6952    1.0288 C   0  0  0  0  0  0  0  0  0  0  0  0
    5.2816    0.8345    0.3578 C   0  0  0  0  0  0  0  0  0  0  0  0
    4.2217   -1.1148   -0.5983 C   0  0  0  0  0  0  0  0  0  0  0  0
   -3.1225    1.4695   -0.1171 C   0  0  0  0  0  0  0  0  0  0  0  0
   -1.8358    1.7143   -0.5970 C   0  0  0  0  0  0  0  0  0  0  0  0
    3.0356    1.0752   -0.6958 C   0  0  0  0  0  0  0  0  0  0  0  0
   -4.9610   -0.9171    1.5856 C   0  0  0  0  0  0  0  0  0  0  0  0
   -0.9118    0.4104    1.2148 C   0  0  0  0  0  0  0  0  0  0  0  0
   -2.1985    0.1658    1.6948 C   0  0  0  0  0  0  0  0  0  0  0  0
    0.6110    1.4396   -0.4318 C   0  0  0  0  0  0  0  0  0  0  0  0
    6.3800    0.0571    0.7252 C   0  0  0  0  0  0  0  0  0  0  0  0
    5.3200   -1.8922   -0.2310 C   0  0  0  0  0  0  0  0  0  0  0  0
    6.3991   -1.3062    0.4307 C   0  0  0  0  0  0  0  0  0  0  0  0
   -6.1588   -1.1239    0.7058 C   0  0  0  0  0  0  0  0  0  0  0  0
    1.7064    0.7045   -0.1350 C   0  0  0  0  0  0  0  0  0  0  0  0
   -7.4424   -0.9506    1.2232 C   0  0  0  0  0  0  0  0  0  0  0  0
   -5.9886   -1.4895   -0.6296 C   0  0  0  0  0  0  0  0  0  0  0  0
   -8.5559   -1.1431    0.4053 C   0  0  0  0  0  0  0  0  0  0  0  0
   -7.1020   -1.6818   -1.4475 C   0  0  0  0  0  0  0  0  0  0  0  0
   -8.3857   -1.5085   -0.9301 C   0  0  0  0  0  0  0  0  0  0  0  0
    6.4292    2.6756    1.3321 C   0  0  0  0  0  0  0  0  0  0  0  0
    3.2308   -1.7409   -2.6676 C   0  0  0  0  0  0  0  0  0  0  0  0
   -3.9237    2.7730   -1.9379 C   0  0  0  0  0  0  0  0  0  0  0  0
    7.4253   -3.4515    0.4553 C   0  0  0  0  0  0  0  0  0  0  0  0
   -1.6398    2.3079   -1.4843 H   0  0  0  0  0  0  0  0  0  0  0  0
   -4.1664   -1.6188    1.2985 H   0  0  0  0  0  0  0  0  0  0  0  0
   -5.2098   -1.1377    2.6304 H   0  0  0  0  0  0  0  0  0  0  0  0
   -0.0812   -0.0039    1.7788 H   0  0  0  0  0  0  0  0  0  0  0  0
   -2.3250   -0.4276    2.5966 H   0  0  0  0  0  0  0  0  0  0  0  0
    0.7062    2.2921   -1.1009 H   0  0  0  0  0  0  0  0  0  0  0  0
    7.2513    0.4471    1.2406 H   0  0  0  0  0  0  0  0  0  0  0  0
    5.2763   -2.9462   -0.4855 H   0  0  0  0  0  0  0  0  0  0  0  0
    1.6722   -0.1619    0.5152 H   0  0  0  0  0  0  0  0  0  0  0  0
   -7.5883   -0.6640    2.2612 H   0  0  0  0  0  0  0  0  0  0  0  0
   -4.9934   -1.6252   -1.0446 H   0  0  0  0  0  0  0  0  0  0  0  0
   -9.5554   -1.0076    0.8079 H   0  0  0  0  0  0  0  0  0  0  0  0
   -6.9694   -1.9656   -2.4874 H   0  0  0  0  0  0  0  0  0  0  0  0
   -9.2527   -1.6579   -1.5671 H   0  0  0  0  0  0  0  0  0  0  0  0
    6.5453    2.2273    2.3247 H   0  0  0  0  0  0  0  0  0  0  0  0
    7.3345    2.5839    0.7223 H   0  0  0  0  0  0  0  0  0  0  0  0
    6.2598    3.7464    1.4869 H   0  0  0  0  0  0  0  0  0  0  0  0
    3.2906   -0.7285   -3.0792 H   0  0  0  0  0  0  0  0  0  0  0  0
    4.0874   -2.3335   -3.0041 H   0  0  0  0  0  0  0  0  0  0  0  0
    2.3146   -2.2124   -3.0333 H   0  0  0  0  0  0  0  0  0  0  0  0
   -3.3502    3.6742   -1.6957 H   0  0  0  0  0  0  0  0  0  0  0  0
   -3.4510    2.1747   -2.7244 H   0  0  0  0  0  0  0  0  0  0  0  0
   -4.8889    3.1079   -2.3321 H   0  0  0  0  0  0  0  0  0  0  0  0
    6.6063   -3.9627    0.9727 H   0  0  0  0  0  0  0  0  0  0  0  0
    7.3922   -3.6046   -0.6287 H   0  0  0  0  0  0  0  0  0  0  0  0
    8.3579   -3.9005    0.8126 H   0  0  0  0  0  0  0  0  0  0  0  0
  1  9  1  0  0  0  0
  1 15  1  0  0  0  0
  2 10  1  0  0  0  0
  2 29  1  0  0  0  0
  3 11  1  0  0  0  0
  3 30  1  0  0  0  0
  4 12  1  0  0  0  0
  4 31  1  0  0  0  0
  5 21  1  0  0  0  0
  5 32  1  0  0  0  0
  6 14  2  0  0  0  0
  7 10  2  0  0  0  0
  7 11  1  0  0  0  0
  7 14  1  0  0  0  0
  8 13  2  0  0  0  0
  8 16  1  0  0  0  0
  8 18  1  0  0  0  0
  9 12  2  0  0  0  0
  9 17  1  0  0  0  0
 10 19  1  0  0  0  0
 11 20  2  0  0  0  0
 12 13  1  0  0  0  0
 13 33  1  0  0  0  0
 14 23  1  0  0  0  0
 15 22  1  0  0  0  0
 15 34  1  0  0  0  0
 15 35  1  0  0  0  0
 16 17  2  0  0  0  0
 16 36  1  0  0  0  0
 17 37  1  0  0  0  0
 18 23  2  0  0  0  0
 18 38  1  0  0  0  0
 19 21  2  0  0  0  0
 19 39  1  0  0  0  0
 20 21  1  0  0  0  0
 20 40  1  0  0  0  0
 22 24  2  0  0  0  0
 22 25  1  0  0  0  0
 23 41  1  0  0  0  0
 24 26  1  0  0  0  0
 24 42  1  0  0  0  0
 25 27  2  0  0  0  0
 25 43  1  0  0  0  0
 26 28  2  0  0  0  0
 26 44  1  0  0  0  0
 27 28  1  0  0  0  0
 27 45  1  0  0  0  0
 28 46  1  0  0  0  0
 29 47  1  0  0  0  0
 29 48  1  0  0  0  0
 29 49  1  0  0  0  0
 30 50  1  0  0  0  0
 30 51  1  0  0  0  0
 30 52  1  0  0  0  0
 31 53  1  0  0  0  0
 31 54  1  0  0  0  0
 31 55  1  0  0  0  0
 32 56  1  0  0  0  0
 32 57  1  0  0  0  0
 32 58  1  0  0  0  0
M  END
> <PUBCHEM_COMPOUND_CID>
6089213

> <PUBCHEM_CONFORMER_RMSD>
1

> <PUBCHEM_CONFORMER_DIVERSEORDER>
10
37
18
56
49
29
41
40
20
58
11
17
53
16
69
31
55
36
23
4
14
27
54
65
1
21
48
47
45
33
5
26
34
30
61
32
67
12
44
2
42
68
22
43
51
59
39
35
19
64
57
66
46
7
9
24
3
6
15
50
52
8
25
38
62
60
63
28
13

> <PUBCHEM_MMFF94_PARTIAL_CHARGES>
44
1 -0.36
10 0.08
11 0.08
12 0.08
13 -0.15
14 0.47
15 0.42
16 -0.15
17 -0.15
18 -0.18
19 -0.15
2 -0.36
20 -0.15
21 0.08
22 -0.14
23 -0.14
24 -0.15
25 -0.15
26 -0.15
27 -0.15
28 -0.15
29 0.28
3 -0.36
30 0.28
31 0.28
32 0.28
33 0.15
36 0.15
37 0.15
38 0.15
39 0.15
4 -0.36
40 0.15
41 0.15
42 0.15
43 0.15
44 0.15
45 0.15
46 0.15
5 -0.36
6 -0.57
7 0.09
8 0.03
9 0.08

> <PUBCHEM_EFFECTIVE_ROTOR_COUNT>
10

> <PUBCHEM_PHARMACOPHORE_FEATURES>
9
1 1 acceptor
1 2 acceptor
1 3 acceptor
1 4 acceptor
1 5 acceptor
1 6 acceptor
6 22 24 25 26 27 28 rings
6 7 10 11 19 20 21 rings
6 8 9 12 13 16 17 rings

> <PUBCHEM_HEAVY_ATOM_COUNT>
32

> <PUBCHEM_ATOM_DEF_STEREO_COUNT>
0

> <PUBCHEM_ATOM_UDEF_STEREO_COUNT>
0

> <PUBCHEM_BOND_DEF_STEREO_COUNT>
1

> <PUBCHEM_BOND_UDEF_STEREO_COUNT>
0

> <PUBCHEM_ISOTOPIC_ATOM_COUNT>
0

> <PUBCHEM_COMPONENT_COUNT>
1

> <PUBCHEM_CACTVS_TAUTO_COUNT>
1

> <PUBCHEM_CONFORMER_ID>
005CE9FD0000000A

> <PUBCHEM_MMFF94_ENERGY>
144.2267

> <PUBCHEM_FEATURE_SELFOVERLAP>
45.682

> <PUBCHEM_SHAPE_FINGERPRINT>
10 15 13830136079323568331
12120059 9 17897428525089880178
13782708 43 18334018280533647272
13914758 101 14129048219355037281
15082195 135 16951142792644063868
15183329 4 14345794937526728663
15188451 53 18410576175827456472
15198563 99 17313374614235927997
15352257 5 17988924487846881955
15781502 645 18342174479321855061
17899979 129 11314322663306666174
19377110 9 16559032675028456933
19958102 18 17458346334195338459
2026 5 18335701576965190547
21130935 74 18410858750337063144
21623969 137 18131073710018366694
21792961 116 16443060630750610545
22149856 69 16558488412847428099
23559900 14 18040719117935994572
25222932 49 18334295323806196110
3711267 37 9007063487053116147
4046055 4 17894914005683675381
4760202 70 17486762250105956173
504579 68 15863791690160831072
5718773 13 18334296431522474378
5937810 71 9078819806019348962
59682541 35 13038907764064582487
5969126 39 18333728023246005173
9689198 14 10159706798195625643

> <PUBCHEM_SHAPE_MULTIPOLES>
623.33
26.6
3.04
1.72
14.57
0.17
-0.5
17.64
3.69
-3.91
-0.67
0.96
0.05
1.05

> <PUBCHEM_SHAPE_SELFOVERLAP>
1335.71

> <PUBCHEM_SHAPE_VOLUME>
345.4

> <PUBCHEM_COORDINATE_TYPE>
2
5
10

$$$$
