3115023
  -OEChem-01171809323D

 41 43  0     0  0  0  0  0  0999 V2000
    3.4092    0.8647   -0.9632 O   0  0  0  0  0  0  0  0  0  0  0  0
   -1.2695    0.9349   -0.7040 O   0  0  0  0  0  0  0  0  0  0  0  0
   -5.0736    2.4313    0.7571 O   0  5  0  0  0  0  0  0  0  0  0  0
   -2.8999    2.4008    0.4522 O   0  0  0  0  0  0  0  0  0  0  0  0
    2.6721   -4.7443    0.8204 O   0  5  0  0  0  0  0  0  0  0  0  0
    4.5920   -3.7662    0.4008 O   0  0  0  0  0  0  0  0  0  0  0  0
   -0.8005   -1.2603   -0.0513 N   0  0  0  0  0  0  0  0  0  0  0  0
   -4.8229   -1.5750   -0.2363 N   0  0  0  0  0  0  0  0  0  0  0  0
   -3.5000   -1.6866   -0.4444 N   0  0  0  0  0  0  0  0  0  0  0  0
   -4.0151    1.8093    0.4631 N   0  3  0  0  0  0  0  0  0  0  0  0
    3.3394   -3.7417    0.4689 N   0  3  0  0  0  0  0  0  0  0  0  0
    0.5922   -1.3118   -0.1198 C   0  0  0  0  0  0  0  0  0  0  0  0
   -3.0863   -0.4576   -0.2069 C   0  0  0  0  0  0  0  0  0  0  0  0
    2.7056   -0.2356   -0.5804 C   0  0  0  0  0  0  0  0  0  0  0  0
    1.3133   -0.1843   -0.5127 C   0  0  0  0  0  0  0  0  0  0  0  0
   -4.0790    0.4431    0.1448 C   0  0  0  0  0  0  0  0  0  0  0  0
    1.2633   -2.4906    0.2052 C   0  0  0  0  0  0  0  0  0  0  0  0
   -1.6470   -0.1740   -0.3371 C   0  0  0  0  0  0  0  0  0  0  0  0
    2.6556   -2.5419    0.1374 C   0  0  0  0  0  0  0  0  0  0  0  0
    3.3767   -1.4143   -0.2553 C   0  0  0  0  0  0  0  0  0  0  0  0
   -5.2212   -0.3197    0.1187 C   0  0  0  0  0  0  0  0  0  0  0  0
   -5.6738   -2.7298   -0.3968 C   0  0  0  0  0  0  0  0  0  0  0  0
    3.0513    2.0826   -0.4097 C   0  0  0  0  0  0  0  0  0  0  0  0
    2.8129    2.1602    0.9505 C   0  0  0  0  0  0  0  0  0  0  0  0
    2.9405    3.1895   -1.2314 C   0  0  0  0  0  0  0  0  0  0  0  0
    2.4513    3.3867    1.5081 C   0  0  0  0  0  0  0  0  0  0  0  0
    2.5791    4.4160   -0.6739 C   0  0  0  0  0  0  0  0  0  0  0  0
    2.3344    4.5146    0.6958 C   0  0  0  0  0  0  0  0  0  0  0  0
    0.8420    0.7404   -0.8092 H   0  0  0  0  0  0  0  0  0  0  0  0
   -1.2539   -2.1246    0.2384 H   0  0  0  0  0  0  0  0  0  0  0  0
    0.6811   -3.3580    0.5093 H   0  0  0  0  0  0  0  0  0  0  0  0
    4.4625   -1.4233   -0.3171 H   0  0  0  0  0  0  0  0  0  0  0  0
   -6.2587   -0.0850    0.3171 H   0  0  0  0  0  0  0  0  0  0  0  0
   -6.7098   -2.4524   -0.1872 H   0  0  0  0  0  0  0  0  0  0  0  0
   -5.5828   -3.0833   -1.4269 H   0  0  0  0  0  0  0  0  0  0  0  0
   -5.3440   -3.4999    0.3051 H   0  0  0  0  0  0  0  0  0  0  0  0
    2.9200    1.3023    1.6077 H   0  0  0  0  0  0  0  0  0  0  0  0
    3.1298    3.1140   -2.2979 H   0  0  0  0  0  0  0  0  0  0  0  0
    2.2658    3.4648    2.5753 H   0  0  0  0  0  0  0  0  0  0  0  0
    2.4880    5.2943   -1.3064 H   0  0  0  0  0  0  0  0  0  0  0  0
    2.0541    5.4698    1.1300 H   0  0  0  0  0  0  0  0  0  0  0  0
  1 14  1  0  0  0  0
  1 23  1  0  0  0  0
  2 18  2  0  0  0  0
  3 10  1  0  0  0  0
  4 10  2  0  0  0  0
  5 11  1  0  0  0  0
  6 11  2  0  0  0  0
  7 12  1  0  0  0  0
  7 18  1  0  0  0  0
  7 30  1  0  0  0  0
  8  9  1  0  0  0  0
  8 21  1  0  0  0  0
  8 22  1  0  0  0  0
  9 13  2  0  0  0  0
 10 16  1  0  0  0  0
 11 19  1  0  0  0  0
 12 15  1  0  0  0  0
 12 17  2  0  0  0  0
 13 16  1  0  0  0  0
 13 18  1  0  0  0  0
 14 15  2  0  0  0  0
 14 20  1  0  0  0  0
 15 29  1  0  0  0  0
 16 21  2  0  0  0  0
 17 19  1  0  0  0  0
 17 31  1  0  0  0  0
 19 20  2  0  0  0  0
 20 32  1  0  0  0  0
 21 33  1  0  0  0  0
 22 34  1  0  0  0  0
 22 35  1  0  0  0  0
 22 36  1  0  0  0  0
 23 24  2  0  0  0  0
 23 25  1  0  0  0  0
 24 26  1  0  0  0  0
 24 37  1  0  0  0  0
 25 27  2  0  0  0  0
 25 38  1  0  0  0  0
 26 28  2  0  0  0  0
 26 39  1  0  0  0  0
 27 28  1  0  0  0  0
 27 40  1  0  0  0  0
 28 41  1  0  0  0  0
M  CHG  4   3  -1   5  -1  10   1  11   1
M  END
> <PUBCHEM_COMPOUND_CID>
3115023

> <PUBCHEM_CONFORMER_RMSD>
0.8

> <PUBCHEM_CONFORMER_DIVERSEORDER>
1
29
24
65
31
58
8
39
61
35
49
73
84
85
64
2
22
66
68
51
30
10
53
33
50
9
37
16
5
55
32
86
69
70
52
63
60
7
25
75
15
54
59
26
3
71
28
56
57
13
27
74
4
34
72
36
11
62
6
48
12
38
67
18
14
40
20
76
80
45
23
17
21
79
83
42
41
19
77
46
82
47
81
44
43
78

> <PUBCHEM_MMFF94_PARTIAL_CHARGES>
38
1 -0.17
10 0.96
11 0.91
12 0.12
13 0.2
14 0.08
15 -0.15
16 0.08
17 -0.15
18 0.72
19 0.13
2 -0.57
20 -0.15
21 -0.3
22 0.26
23 0.08
24 -0.15
25 -0.15
26 -0.15
27 -0.15
28 -0.15
29 0.15
3 -0.52
30 0.37
31 0.15
32 0.15
33 0.15
37 0.15
38 0.15
39 0.15
4 -0.52
40 0.15
41 0.15
5 -0.52
6 -0.52
7 -0.55
8 0.31
9 -0.71

> <PUBCHEM_EFFECTIVE_ROTOR_COUNT>
7

> <PUBCHEM_PHARMACOPHORE_FEATURES>
13
1 1 acceptor
1 2 acceptor
1 3 acceptor
1 3 anion
1 4 acceptor
1 5 acceptor
1 5 anion
1 6 acceptor
1 7 donor
1 9 acceptor
5 8 9 13 16 21 rings
6 12 14 15 17 19 20 rings
6 23 24 25 26 27 28 rings

> <PUBCHEM_HEAVY_ATOM_COUNT>
28

> <PUBCHEM_ATOM_DEF_STEREO_COUNT>
0

> <PUBCHEM_ATOM_UDEF_STEREO_COUNT>
0

> <PUBCHEM_BOND_DEF_STEREO_COUNT>
0

> <PUBCHEM_BOND_UDEF_STEREO_COUNT>
0

> <PUBCHEM_ISOTOPIC_ATOM_COUNT>
0

> <PUBCHEM_COMPONENT_COUNT>
1

> <PUBCHEM_CACTVS_TAUTO_COUNT>
2

> <PUBCHEM_CONFORMER_ID>
002F880F00000001

> <PUBCHEM_MMFF94_ENERGY>
90.38

> <PUBCHEM_FEATURE_SELFOVERLAP>
66.161

> <PUBCHEM_SHAPE_FINGERPRINT>
10074138 170 17116886658802040176
10165383 225 18116721918471016892
10439779 11 18410847777070356538
1100329 8 18196093231738557825
12107183 9 18051418370848273497
12403259 226 18261949635544743692
12925494 130 18341894061714507001
13140716 1 18122337141327754230
13533116 47 18409449198390601239
13590594 115 18048041774543970048
1361 2 17905888433346114401
13617811 41 18051683649904620509
138480 1 18337671910839563332
13878862 14 18262781979444710933
13955234 65 18409449227785602618
14117953 113 17548422501520200925
14150022 121 17908971125323112162
14849402 71 18337110185221119472
14866123 147 16247995893918659546
17492 89 18410012130969409747
17868525 174 18266175041524530688
17980427 26 18269541914312507484
18681886 176 18343862195743535838
19319366 153 18125432270449002455
19930381 70 18339359798548538377
21065198 57 18410293567348832911
21133410 127 17968092066415994397
22149856 69 17973182887758321243
23366157 5 18407758144547067067
23559900 14 18340476786550735483
23845131 108 17975408332818974362
4015057 19 18265320726044053245
4409770 3 17252579080675994740
474 4 18264488571097033556
5104073 3 18412550890675129819
5312544 6 18338517572424786629
6442390 28 17977103788406900742
67856867 119 18411412938625901675
7808743 9 17327742211322026892
84936 182 18341335603700063392
9981440 41 18048312537803543128

> <PUBCHEM_SHAPE_MULTIPOLES>
516.11
11.17
6.44
0.96
17.38
1.82
0.06
-0.98
-0.04
-9.16
1.7
-0.73
-0.58
-1.31

> <PUBCHEM_SHAPE_SELFOVERLAP>
1130.923

> <PUBCHEM_SHAPE_VOLUME>
278.4

> <PUBCHEM_COORDINATE_TYPE>
2
5
10

$$$$
