2330223
  -OEChem-01171809483D

 43 45  0     0  0  0  0  0  0999 V2000
    3.5375    0.0490    0.5241 S   0  0  0  0  0  0  0  0  0  0  0  0
    1.5459    2.6396   -0.2054 S   0  0  0  0  0  0  0  0  0  0  0  0
    4.3926   -0.2005   -0.6241 O   0  0  0  0  0  0  0  0  0  0  0  0
    3.7271   -0.7219    1.7417 O   0  0  0  0  0  0  0  0  0  0  0  0
    1.0346    3.1763    1.0437 O   0  0  0  0  0  0  0  0  0  0  0  0
    1.2120    3.2928   -1.4595 O   0  0  0  0  0  0  0  0  0  0  0  0
   -0.5323    0.5424   -1.9417 O   0  0  0  0  0  0  0  0  0  0  0  0
   -1.1857    0.7002    0.3152 N   0  0  0  0  0  0  0  0  0  0  0  0
    3.7886    1.7353    0.9843 C   0  0  0  0  0  0  0  0  0  0  0  0
    3.3080    2.6622   -0.0969 C   0  0  0  0  0  0  0  0  0  0  0  0
    1.8834   -0.0592    0.0189 C   0  0  0  0  0  0  0  0  0  0  0  0
    1.0861    0.9696   -0.3099 C   0  0  0  0  0  0  0  0  0  0  0  0
    1.5122   -1.4823   -0.0478 C   0  0  0  0  0  0  0  0  0  0  0  0
   -0.2996    0.7117   -0.7497 C   0  0  0  0  0  0  0  0  0  0  0  0
    1.7387   -2.2084   -1.2172 C   0  0  0  0  0  0  0  0  0  0  0  0
    0.9342   -2.1052    1.0585 C   0  0  0  0  0  0  0  0  0  0  0  0
   -2.5846    0.4847    0.2658 C   0  0  0  0  0  0  0  0  0  0  0  0
    1.3874   -3.5568   -1.2803 C   0  0  0  0  0  0  0  0  0  0  0  0
    0.5831   -3.4536    0.9955 C   0  0  0  0  0  0  0  0  0  0  0  0
    0.8097   -4.1794   -0.1740 C   0  0  0  0  0  0  0  0  0  0  0  0
   -3.3147    0.5094    1.4418 C   0  0  0  0  0  0  0  0  0  0  0  0
   -3.1908    0.2543   -0.9573 C   0  0  0  0  0  0  0  0  0  0  0  0
   -5.3194    0.0636    0.1695 C   0  0  0  0  0  0  0  0  0  0  0  0
   -4.6925    0.2972    1.3934 C   0  0  0  0  0  0  0  0  0  0  0  0
   -4.5687    0.0421   -1.0059 C   0  0  0  0  0  0  0  0  0  0  0  0
   -6.7927   -0.1632    0.1174 C   0  0  0  0  0  0  0  0  0  0  0  0
    4.8636    1.8603    1.1491 H   0  0  0  0  0  0  0  0  0  0  0  0
    3.2757    1.9050    1.9364 H   0  0  0  0  0  0  0  0  0  0  0  0
    3.7099    2.3992   -1.0805 H   0  0  0  0  0  0  0  0  0  0  0  0
    3.5964    3.6947    0.1247 H   0  0  0  0  0  0  0  0  0  0  0  0
    2.1859   -1.7373   -2.0892 H   0  0  0  0  0  0  0  0  0  0  0  0
    0.7494   -1.5527    1.9766 H   0  0  0  0  0  0  0  0  0  0  0  0
   -0.8074    0.8628    1.2465 H   0  0  0  0  0  0  0  0  0  0  0  0
    1.5632   -4.1218   -2.1911 H   0  0  0  0  0  0  0  0  0  0  0  0
    0.1324   -3.9383    1.8566 H   0  0  0  0  0  0  0  0  0  0  0  0
    0.5358   -5.2292   -0.2232 H   0  0  0  0  0  0  0  0  0  0  0  0
   -2.8357    0.6899    2.4001 H   0  0  0  0  0  0  0  0  0  0  0  0
   -2.6781    0.2218   -1.9073 H   0  0  0  0  0  0  0  0  0  0  0  0
   -5.2662    0.3144    2.3162 H   0  0  0  0  0  0  0  0  0  0  0  0
   -5.0467   -0.1410   -1.9648 H   0  0  0  0  0  0  0  0  0  0  0  0
   -7.3039    0.3707    0.9256 H   0  0  0  0  0  0  0  0  0  0  0  0
   -7.0116   -1.2316    0.2096 H   0  0  0  0  0  0  0  0  0  0  0  0
   -7.2153    0.2020   -0.8249 H   0  0  0  0  0  0  0  0  0  0  0  0
  1  3  2  0  0  0  0
  1  4  2  0  0  0  0
  1  9  1  0  0  0  0
  1 11  1  0  0  0  0
  2  5  2  0  0  0  0
  2  6  2  0  0  0  0
  2 10  1  0  0  0  0
  2 12  1  0  0  0  0
  7 14  2  0  0  0  0
  8 14  1  0  0  0  0
  8 17  1  0  0  0  0
  8 33  1  0  0  0  0
  9 10  1  0  0  0  0
  9 27  1  0  0  0  0
  9 28  1  0  0  0  0
 10 29  1  0  0  0  0
 10 30  1  0  0  0  0
 11 12  2  0  0  0  0
 11 13  1  0  0  0  0
 12 14  1  0  0  0  0
 13 15  2  0  0  0  0
 13 16  1  0  0  0  0
 15 18  1  0  0  0  0
 15 31  1  0  0  0  0
 16 19  2  0  0  0  0
 16 32  1  0  0  0  0
 17 21  2  0  0  0  0
 17 22  1  0  0  0  0
 18 20  2  0  0  0  0
 18 34  1  0  0  0  0
 19 20  1  0  0  0  0
 19 35  1  0  0  0  0
 20 36  1  0  0  0  0
 21 24  1  0  0  0  0
 21 37  1  0  0  0  0
 22 25  2  0  0  0  0
 22 38  1  0  0  0  0
 23 24  2  0  0  0  0
 23 25  1  0  0  0  0
 23 26  1  0  0  0  0
 24 39  1  0  0  0  0
 25 40  1  0  0  0  0
 26 41  1  0  0  0  0
 26 42  1  0  0  0  0
 26 43  1  0  0  0  0
M  END
> <PUBCHEM_COMPOUND_CID>
2330223

> <PUBCHEM_CONFORMER_RMSD>
0.8

> <PUBCHEM_CONFORMER_DIVERSEORDER>
2
1
3

> <PUBCHEM_MMFF94_PARTIAL_CHARGES>
35
1 1.21
10 0.11
11 -0.05
13 0.03
14 0.62
15 -0.15
16 -0.15
17 0.12
18 -0.15
19 -0.15
2 1.21
20 -0.15
21 -0.15
22 -0.15
23 -0.14
24 -0.15
25 -0.15
26 0.14
3 -0.65
31 0.15
32 0.15
33 0.37
34 0.15
35 0.15
36 0.15
37 0.15
38 0.15
39 0.15
4 -0.65
40 0.15
5 -0.65
6 -0.65
7 -0.57
8 -0.55
9 0.11

> <PUBCHEM_EFFECTIVE_ROTOR_COUNT>
4.4

> <PUBCHEM_PHARMACOPHORE_FEATURES>
9
1 3 acceptor
1 4 acceptor
1 5 acceptor
1 6 acceptor
1 7 acceptor
1 8 donor
6 1 2 9 10 11 12 rings
6 13 15 16 18 19 20 rings
6 17 21 22 23 24 25 rings

> <PUBCHEM_HEAVY_ATOM_COUNT>
26

> <PUBCHEM_ATOM_DEF_STEREO_COUNT>
0

> <PUBCHEM_ATOM_UDEF_STEREO_COUNT>
0

> <PUBCHEM_BOND_DEF_STEREO_COUNT>
0

> <PUBCHEM_BOND_UDEF_STEREO_COUNT>
0

> <PUBCHEM_ISOTOPIC_ATOM_COUNT>
0

> <PUBCHEM_COMPONENT_COUNT>
1

> <PUBCHEM_CACTVS_TAUTO_COUNT>
2

> <PUBCHEM_CONFORMER_ID>
00238E6F00000002

> <PUBCHEM_MMFF94_ENERGY>
74.817

> <PUBCHEM_FEATURE_SELFOVERLAP>
45.71

> <PUBCHEM_SHAPE_FINGERPRINT>
10064457 181 18195249046957478464
10090160 65 18341889723248157921
1100329 8 18339356487317988248
11370993 70 18337390556090249739
11421498 54 17775007855894636593
114674 6 18188780439937173723
11578080 2 17680713614016291628
12035758 1 18411135836516749090
12107183 9 17552371973356974961
12236239 1 17918276467873927377
12553582 1 17979081479145125023
12596602 18 17775284989350565243
12633257 1 18335132102987257083
12788726 201 16893716043285917451
13140716 1 18338231699317097355
13533116 47 18340496586919558883
13540713 5 17539678515452632416
13692114 37 18055341698745635327
13726171 33 14781843631895617071
14844126 61 16461640915837793763
14863182 85 18337399253109328566
15635459 17 18187650146352308747
16728300 4 17390476668716498810
17138139 8 17483363681376792423
17492 54 18043276646348306036
20028762 73 18272364308489177286
20511986 3 17775272868969043745
20645477 70 18407758132173868069
20739085 24 18408327674728703940
21197605 99 18192438695817580323
21285901 2 17603864452026867133
21421861 104 18268719307436645089
22224240 67 18341604941004172306
2255824 54 18410299133294165301
22956985 138 17754445760491347874
23557571 272 16443621295074464007
23558518 356 17470438999258823392
23559900 14 18186802521872098633
239999 70 18342743979321890655
3060560 45 18410575093722518598
3178227 256 18408040706577765306
3383291 50 18266454318644427482
4340502 62 18411983598393629571
465052 167 18040152911784939746
474 4 18341613745644749019
6443956 14 18337956679618632500
70251023 43 17980770333068410103
7097593 13 18198914604382015073
8272917 22 18412547604682236941
9981440 41 16193083564586951736

> <PUBCHEM_SHAPE_MULTIPOLES>
508.44
9.86
4.24
1.45
17.82
2.94
-0.03
-2.56
1.82
-5.03
-0.46
0.04
0.09
0.11

> <PUBCHEM_SHAPE_SELFOVERLAP>
1078.377

> <PUBCHEM_SHAPE_VOLUME>
283.1

> <PUBCHEM_COORDINATE_TYPE>
2
5
10

$$$$
