5717736
  -OEChem-01171809293D

 46 47  0     1  0  0  0  0  0999 V2000
    0.3483    4.1091   -2.1187 Cl  0  0  0  0  0  0  0  0  0  0  0  0
   -2.3466    4.0415   -1.0657 Cl  0  0  0  0  0  0  0  0  0  0  0  0
   -1.3884    1.8556   -2.7384 Cl  0  0  0  0  0  0  0  0  0  0  0  0
   -1.6233    2.5925    2.8262 S   0  0  0  0  0  0  0  0  0  0  0  0
   -5.1235   -3.6836   -0.9981 O   0  0  0  0  0  0  0  0  0  0  0  0
    1.7381    1.6086    1.6633 O   0  0  0  0  0  0  0  0  0  0  0  0
   -1.4622    1.4185    0.3768 N   0  0  0  0  0  0  0  0  0  0  0  0
    0.7816    1.4965   -0.4522 N   0  0  0  0  0  0  0  0  0  0  0  0
   -3.0163    0.5559    1.9308 N   0  0  0  0  0  0  0  0  0  0  0  0
   -0.4176    2.2925   -0.1844 C   0  0  1  0  0  0  0  0  0  0  0  0
   -0.9187    3.0202   -1.4563 C   0  0  0  0  0  0  0  0  0  0  0  0
   -2.0492    1.4931    1.6221 C   0  0  0  0  0  0  0  0  0  0  0  0
   -3.5533   -0.5222    1.1853 C   0  0  0  0  0  0  0  0  0  0  0  0
    1.7522    1.2265    0.4978 C   0  0  0  0  0  0  0  0  0  0  0  0
   -3.5860   -0.4593   -0.2078 C   0  0  0  0  0  0  0  0  0  0  0  0
   -4.0485   -1.6475    1.8445 C   0  0  0  0  0  0  0  0  0  0  0  0
    2.8559    0.3966   -0.0614 C   0  0  0  0  0  0  0  0  0  0  0  0
   -4.6091   -2.6468   -0.2824 C   0  0  0  0  0  0  0  0  0  0  0  0
   -4.1140   -1.5216   -0.9417 C   0  0  0  0  0  0  0  0  0  0  0  0
   -4.5764   -2.7097    1.1107 C   0  0  0  0  0  0  0  0  0  0  0  0
    5.0227   -0.7861    0.2776 C   0  0  0  0  0  0  0  0  0  0  0  0
    3.8848    0.0385    0.7205 C   0  0  0  0  0  0  0  0  0  0  0  0
    5.3110   -0.9039   -1.0821 C   0  0  0  0  0  0  0  0  0  0  0  0
    5.8117   -1.4490    1.2178 C   0  0  0  0  0  0  0  0  0  0  0  0
    6.3879   -1.6848   -1.5016 C   0  0  0  0  0  0  0  0  0  0  0  0
    6.8887   -2.2297    0.7981 C   0  0  0  0  0  0  0  0  0  0  0  0
    7.1768   -2.3476   -0.5616 C   0  0  0  0  0  0  0  0  0  0  0  0
   -5.1263   -3.5537   -2.4192 C   0  0  0  0  0  0  0  0  0  0  0  0
   -0.1320    3.0444    0.5572 H   0  0  0  0  0  0  0  0  0  0  0  0
   -1.5415    0.5512   -0.1327 H   0  0  0  0  0  0  0  0  0  0  0  0
    0.8601    1.0859   -1.3780 H   0  0  0  0  0  0  0  0  0  0  0  0
   -3.2803    0.5473    2.9140 H   0  0  0  0  0  0  0  0  0  0  0  0
   -3.3361    0.4341   -0.7678 H   0  0  0  0  0  0  0  0  0  0  0  0
   -4.0278   -1.7093    2.9296 H   0  0  0  0  0  0  0  0  0  0  0  0
    2.7699    0.0907   -1.0976 H   0  0  0  0  0  0  0  0  0  0  0  0
   -4.1343   -1.3964   -2.0189 H   0  0  0  0  0  0  0  0  0  0  0  0
   -4.9602   -3.5837    1.6297 H   0  0  0  0  0  0  0  0  0  0  0  0
    3.9153    0.3469    1.7629 H   0  0  0  0  0  0  0  0  0  0  0  0
    4.7384   -0.3900   -1.8485 H   0  0  0  0  0  0  0  0  0  0  0  0
    5.6012   -1.3697    2.2816 H   0  0  0  0  0  0  0  0  0  0  0  0
    6.6158   -1.7730   -2.5599 H   0  0  0  0  0  0  0  0  0  0  0  0
    7.5031   -2.7459    1.5300 H   0  0  0  0  0  0  0  0  0  0  0  0
    8.0162   -2.9546   -0.8882 H   0  0  0  0  0  0  0  0  0  0  0  0
   -5.7618   -2.7235   -2.7457 H   0  0  0  0  0  0  0  0  0  0  0  0
   -4.1092   -3.4802   -2.8190 H   0  0  0  0  0  0  0  0  0  0  0  0
   -5.5642   -4.4708   -2.8267 H   0  0  0  0  0  0  0  0  0  0  0  0
  1 11  1  0  0  0  0
  2 11  1  0  0  0  0
  3 11  1  0  0  0  0
  4 12  2  0  0  0  0
  5 18  1  0  0  0  0
  5 28  1  0  0  0  0
  6 14  2  0  0  0  0
  7 10  1  0  0  0  0
  7 12  1  0  0  0  0
  7 30  1  0  0  0  0
  8 10  1  0  0  0  0
  8 14  1  0  0  0  0
  8 31  1  0  0  0  0
  9 12  1  0  0  0  0
  9 13  1  0  0  0  0
  9 32  1  0  0  0  0
 10 11  1  0  0  0  0
 10 29  1  0  0  0  0
 13 15  2  0  0  0  0
 13 16  1  0  0  0  0
 14 17  1  0  0  0  0
 15 19  1  0  0  0  0
 15 33  1  0  0  0  0
 16 20  2  0  0  0  0
 16 34  1  0  0  0  0
 17 22  2  0  0  0  0
 17 35  1  0  0  0  0
 18 19  2  0  0  0  0
 18 20  1  0  0  0  0
 19 36  1  0  0  0  0
 20 37  1  0  0  0  0
 21 22  1  0  0  0  0
 21 23  2  0  0  0  0
 21 24  1  0  0  0  0
 22 38  1  0  0  0  0
 23 25  1  0  0  0  0
 23 39  1  0  0  0  0
 24 26  2  0  0  0  0
 24 40  1  0  0  0  0
 25 27  2  0  0  0  0
 25 41  1  0  0  0  0
 26 27  1  0  0  0  0
 26 42  1  0  0  0  0
 27 43  1  0  0  0  0
 28 44  1  0  0  0  0
 28 45  1  0  0  0  0
 28 46  1  0  0  0  0
M  END
> <PUBCHEM_COMPOUND_CID>
5717736

> <PUBCHEM_CONFORMER_RMSD>
1

> <PUBCHEM_CONFORMER_DIVERSEORDER>
1
28
57
7
44
65
39
68
29
36
2
20
18
60
73
43
26
59
63
74
42
22
40
23
53
30
46
32
54
33
13
21
78
49
72
31
16
37
15
58
45
55
52
11
47
24
9
38
5
41
10
50
76
8
34
75
77
6
25
19
35
62
48
4
56
70
12
61
27
67
14
3
64
66
69
17
71
51

> <PUBCHEM_MMFF94_PARTIAL_CHARGES>
42
1 -0.29
10 0.6
11 0.87
12 0.5
13 0.12
14 0.62
15 -0.15
16 -0.15
17 -0.14
18 0.08
19 -0.15
2 -0.29
20 -0.15
21 0.03
22 -0.18
23 -0.15
24 -0.15
25 -0.15
26 -0.15
27 -0.15
28 0.28
3 -0.29
30 0.37
31 0.37
32 0.37
33 0.15
34 0.15
35 0.15
36 0.15
37 0.15
38 0.15
39 0.15
4 -0.38
40 0.15
41 0.15
42 0.15
43 0.15
5 -0.36
6 -0.57
7 -0.73
8 -0.73
9 -0.55

> <PUBCHEM_EFFECTIVE_ROTOR_COUNT>
10

> <PUBCHEM_PHARMACOPHORE_FEATURES>
8
1 4 acceptor
1 5 acceptor
1 6 acceptor
1 7 donor
1 8 donor
1 9 donor
6 13 15 16 18 19 20 rings
6 21 23 24 25 26 27 rings

> <PUBCHEM_HEAVY_ATOM_COUNT>
28

> <PUBCHEM_ATOM_DEF_STEREO_COUNT>
0

> <PUBCHEM_ATOM_UDEF_STEREO_COUNT>
1

> <PUBCHEM_BOND_DEF_STEREO_COUNT>
1

> <PUBCHEM_BOND_UDEF_STEREO_COUNT>
0

> <PUBCHEM_ISOTOPIC_ATOM_COUNT>
0

> <PUBCHEM_COMPONENT_COUNT>
1

> <PUBCHEM_CACTVS_TAUTO_COUNT>
6

> <PUBCHEM_CONFORMER_ID>
00573EE800000001

> <PUBCHEM_MMFF94_ENERGY>
90.2301

> <PUBCHEM_FEATURE_SELFOVERLAP>
40.668

> <PUBCHEM_SHAPE_FINGERPRINT>
10042902 136 18412269462426016082
10291535 26 9294989259406435996
10622 236 18339086007194025431
11069576 57 17836081548109981957
11227150 75 16985441018859995175
11477941 20 17458640969294879116
11497681 19 18342180016335987852
11991303 11 17679289776797464437
13009979 54 18269011893330480025
131258 38 17266918271386281255
13690498 29 18041569035664931396
13757389 114 17898575271887497077
13782708 43 18342175536727627498
14068700 675 18342459270186781129
14114206 34 16732981998764947221
14114211 68 14635684477653104435
14565420 104 10519447228631967175
14674994 50 18339923719444123973
14950920 106 16702303476929419250
15250474 111 17459744814507687986
15419009 47 18340753915632420853
16989713 51 18410576142106431182
20691028 202 9295018989165368678
20771845 165 12688236203633091118
20771845 35 18268974531721455296
20775530 9 18408322211376849091
21315759 148 17489308534847975290
21756936 100 11925983752134006835
23569914 152 13265168436356314410
2748736 6 8646496189280450518
2838139 119 11819268988462703194
42767 28 14779541318291744430
437795 70 17751613612248555615
46194498 28 16301485464299388311
474113 269 17489297638468648503
484985 159 18200028430856142257
5081480 168 16443625826481421205
613672 6 17969774362012245081
6712543 237 15913057542528340303
7288768 16 9943530730088897501

> <PUBCHEM_SHAPE_MULTIPOLES>
559
16.34
5.41
2.59
29.72
1.74
-0.01
-24.07
-1.76
-7.08
-3.1
-2.54
1.04
-1.27

> <PUBCHEM_SHAPE_SELFOVERLAP>
1123.928

> <PUBCHEM_SHAPE_VOLUME>
329.4

> <PUBCHEM_COORDINATE_TYPE>
2
5
10

$$$$
