6293266
  -OEChem-01171809363D

 58 60  0     0  0  0  0  0  0999 V2000
    5.9412   -1.5119    0.7538 S   0  0  0  0  0  0  0  0  0  0  0  0
    6.9687   -1.5522    1.7776 O   0  0  0  0  0  0  0  0  0  0  0  0
    6.1316   -2.2385   -0.4870 O   0  0  0  0  0  0  0  0  0  0  0  0
   -3.4885    2.3270   -0.5887 O   0  0  0  0  0  0  0  0  0  0  0  0
   -6.9560   -1.8139    0.5292 O   0  0  0  0  0  0  0  0  0  0  0  0
   -7.6182    0.7990    1.2075 O   0  0  0  0  0  0  0  0  0  0  0  0
   -0.3357   -0.8851   -2.6778 O   0  0  0  0  0  0  0  0  0  0  0  0
    4.4286   -1.9369    1.4603 N   0  0  0  0  0  0  0  0  0  0  0  0
    5.6876    0.1922    0.3485 C   0  0  0  0  0  0  0  0  0  0  0  0
    3.2301   -1.6741    0.7302 C   0  0  0  0  0  0  0  0  0  0  0  0
    5.1736    0.5196   -0.8930 C   0  0  0  0  0  0  0  0  0  0  0  0
    6.0087    1.1615    1.2812 C   0  0  0  0  0  0  0  0  0  0  0  0
    0.8869   -1.1629   -0.6949 C   0  0  0  0  0  0  0  0  0  0  0  0
    5.2918    2.8550   -0.2856 C   0  0  0  0  0  0  0  0  0  0  0  0
    3.0308   -2.2629   -0.5185 C   0  0  0  0  0  0  0  0  0  0  0  0
    2.2578   -0.8298    1.2663 C   0  0  0  0  0  0  0  0  0  0  0  0
    4.9741    1.8626   -1.2128 C   0  0  0  0  0  0  0  0  0  0  0  0
    5.8090    2.5046    0.9614 C   0  0  0  0  0  0  0  0  0  0  0  0
   -4.0157   -0.0164   -0.6517 C   0  0  0  0  0  0  0  0  0  0  0  0
    1.8592   -2.0073   -1.2311 C   0  0  0  0  0  0  0  0  0  0  0  0
    1.0862   -0.5743    0.5538 C   0  0  0  0  0  0  0  0  0  0  0  0
   -4.3336    1.2913   -0.3192 C   0  0  0  0  0  0  0  0  0  0  0  0
   -0.3348   -0.8972   -1.4376 C   0  0  0  0  0  0  0  0  0  0  0  0
   -4.8846   -1.0604   -0.3722 C   0  0  0  0  0  0  0  0  0  0  0  0
   -6.1006   -0.7896    0.2551 C   0  0  0  0  0  0  0  0  0  0  0  0
   -2.7374   -0.3282   -1.3153 C   0  0  0  0  0  0  0  0  0  0  0  0
   -6.4333    0.5217    0.5954 C   0  0  0  0  0  0  0  0  0  0  0  0
   -5.5497    1.5620    0.3083 C   0  0  0  0  0  0  0  0  0  0  0  0
    5.0795    4.2909   -0.6281 C   0  0  0  0  0  0  0  0  0  0  0  0
   -1.5943   -0.6055   -0.6710 C   0  0  0  0  0  0  0  0  0  0  0  0
   -3.9186    3.6301   -0.2022 C   0  0  0  0  0  0  0  0  0  0  0  0
   -7.9124   -2.1461   -0.4753 C   0  0  0  0  0  0  0  0  0  0  0  0
   -7.6321    0.7759    2.6334 C   0  0  0  0  0  0  0  0  0  0  0  0
    4.3544   -1.8004    2.4770 H   0  0  0  0  0  0  0  0  0  0  0  0
    4.9272   -0.2349   -1.6329 H   0  0  0  0  0  0  0  0  0  0  0  0
    6.4047    0.9088    2.2597 H   0  0  0  0  0  0  0  0  0  0  0  0
    3.7572   -2.9470   -0.9457 H   0  0  0  0  0  0  0  0  0  0  0  0
    2.4070   -0.3583    2.2343 H   0  0  0  0  0  0  0  0  0  0  0  0
    4.5734    2.1232   -2.1889 H   0  0  0  0  0  0  0  0  0  0  0  0
    6.0604    3.2687    1.6923 H   0  0  0  0  0  0  0  0  0  0  0  0
    1.7169   -2.4831   -2.1980 H   0  0  0  0  0  0  0  0  0  0  0  0
    0.3716    0.1159    0.9921 H   0  0  0  0  0  0  0  0  0  0  0  0
   -4.6317   -2.0850   -0.6348 H   0  0  0  0  0  0  0  0  0  0  0  0
   -2.7780   -0.2936   -2.4009 H   0  0  0  0  0  0  0  0  0  0  0  0
   -5.8722    2.5562    0.5987 H   0  0  0  0  0  0  0  0  0  0  0  0
   -1.5825   -0.6528    0.4120 H   0  0  0  0  0  0  0  0  0  0  0  0
    5.9783    4.7016   -1.0985 H   0  0  0  0  0  0  0  0  0  0  0  0
    4.8503    4.8808    0.2658 H   0  0  0  0  0  0  0  0  0  0  0  0
    4.2361    4.4122   -1.3164 H   0  0  0  0  0  0  0  0  0  0  0  0
   -3.1259    4.3283   -0.4915 H   0  0  0  0  0  0  0  0  0  0  0  0
   -4.0313    3.7142    0.8842 H   0  0  0  0  0  0  0  0  0  0  0  0
   -4.8207    3.9361   -0.7431 H   0  0  0  0  0  0  0  0  0  0  0  0
   -7.4088   -2.4647   -1.3936 H   0  0  0  0  0  0  0  0  0  0  0  0
   -8.5234   -2.9742   -0.1060 H   0  0  0  0  0  0  0  0  0  0  0  0
   -8.5667   -1.2933   -0.6817 H   0  0  0  0  0  0  0  0  0  0  0  0
   -6.9470    1.5290    3.0357 H   0  0  0  0  0  0  0  0  0  0  0  0
   -8.6458    1.0098    2.9700 H   0  0  0  0  0  0  0  0  0  0  0  0
   -7.3601   -0.2169    3.0055 H   0  0  0  0  0  0  0  0  0  0  0  0
  1  2  2  0  0  0  0
  1  3  2  0  0  0  0
  1  8  1  0  0  0  0
  1  9  1  0  0  0  0
  4 22  1  0  0  0  0
  4 31  1  0  0  0  0
  5 25  1  0  0  0  0
  5 32  1  0  0  0  0
  6 27  1  0  0  0  0
  6 33  1  0  0  0  0
  7 23  2  0  0  0  0
  8 10  1  0  0  0  0
  8 34  1  0  0  0  0
  9 11  2  0  0  0  0
  9 12  1  0  0  0  0
 10 15  2  0  0  0  0
 10 16  1  0  0  0  0
 11 17  1  0  0  0  0
 11 35  1  0  0  0  0
 12 18  2  0  0  0  0
 12 36  1  0  0  0  0
 13 20  2  0  0  0  0
 13 21  1  0  0  0  0
 13 23  1  0  0  0  0
 14 17  2  0  0  0  0
 14 18  1  0  0  0  0
 14 29  1  0  0  0  0
 15 20  1  0  0  0  0
 15 37  1  0  0  0  0
 16 21  2  0  0  0  0
 16 38  1  0  0  0  0
 17 39  1  0  0  0  0
 18 40  1  0  0  0  0
 19 22  1  0  0  0  0
 19 24  2  0  0  0  0
 19 26  1  0  0  0  0
 20 41  1  0  0  0  0
 21 42  1  0  0  0  0
 22 28  2  0  0  0  0
 23 30  1  0  0  0  0
 24 25  1  0  0  0  0
 24 43  1  0  0  0  0
 25 27  2  0  0  0  0
 26 30  2  0  0  0  0
 26 44  1  0  0  0  0
 27 28  1  0  0  0  0
 28 45  1  0  0  0  0
 29 47  1  0  0  0  0
 29 48  1  0  0  0  0
 29 49  1  0  0  0  0
 30 46  1  0  0  0  0
 31 50  1  0  0  0  0
 31 51  1  0  0  0  0
 31 52  1  0  0  0  0
 32 53  1  0  0  0  0
 32 54  1  0  0  0  0
 32 55  1  0  0  0  0
 33 56  1  0  0  0  0
 33 57  1  0  0  0  0
 33 58  1  0  0  0  0
M  END
> <PUBCHEM_COMPOUND_CID>
6293266

> <PUBCHEM_CONFORMER_RMSD>
1

> <PUBCHEM_CONFORMER_DIVERSEORDER>
13
186
63
62
229
233
240
52
146
134
6
247
36
115
217
213
222
39
66
116
266
42
260
171
95
124
81
40
49
129
58
70
53
145
98
239
126
242
106
200
114
139
190
179
234
158
163
149
75
41
236
177
152
261
25
88
120
235
73
93
96
223
237
48
191
263
246
187
26
164
203
112
72
59
228
141
24
45
183
11
3
143
248
255
61
108
161
202
37
209
211
216
267
103
172
71
166
34
109
196
174
14
118
219
225
173
205
119
226
35
138
5
204
125
47
257
136
189
17
44
113
238
128
224
79
188
105
46
19
258
107
110
31
231
259
227
208
101
144
54
156
232
90
87
99
137
220
111
43
142
157
16
132
69
221
175
252
198
92
2
84
253
85
135
199
185
250
197
230
12
153
184
4
265
169
100
241
28
182
176
7
206
10
18
94
207
57
178
121
22
159
262
249
30
155
130
264
127
8
193
122
97
194
65
212
180
104
245
86
76
170
1
131
20
251
181
210
55
60
27
160
56
64
15
168
215
82
117
51
192
67
83
214
33
140
32
150
148
68
201
243
21
154
151
218
167
254
162
74
80
147
23
256
195
38
244
102
50
29
78
91
9
77
165
133
123
89

> <PUBCHEM_MMFF94_PARTIAL_CHARGES>
46
1 1.45
10 0.2
11 -0.15
12 -0.15
13 0.09
14 -0.14
15 -0.15
16 -0.15
17 -0.15
18 -0.15
19 0.03
2 -0.65
20 -0.15
21 -0.15
22 0.08
23 0.47
24 -0.15
25 0.08
26 -0.18
27 0.08
28 -0.15
29 0.14
3 -0.65
30 -0.14
31 0.28
32 0.28
33 0.28
34 0.42
35 0.15
36 0.15
37 0.15
38 0.15
39 0.15
4 -0.36
40 0.15
41 0.15
42 0.15
43 0.15
44 0.15
45 0.15
46 0.15
5 -0.36
6 -0.36
7 -0.57
8 -0.76
9 -0.01

> <PUBCHEM_EFFECTIVE_ROTOR_COUNT>
9

> <PUBCHEM_PHARMACOPHORE_FEATURES>
10
1 2 acceptor
1 3 acceptor
1 4 acceptor
1 5 acceptor
1 6 acceptor
1 7 acceptor
1 8 donor
6 10 13 15 16 20 21 rings
6 19 22 24 25 27 28 rings
6 9 11 12 14 17 18 rings

> <PUBCHEM_HEAVY_ATOM_COUNT>
33

> <PUBCHEM_ATOM_DEF_STEREO_COUNT>
0

> <PUBCHEM_ATOM_UDEF_STEREO_COUNT>
0

> <PUBCHEM_BOND_DEF_STEREO_COUNT>
1

> <PUBCHEM_BOND_UDEF_STEREO_COUNT>
0

> <PUBCHEM_ISOTOPIC_ATOM_COUNT>
0

> <PUBCHEM_COMPONENT_COUNT>
1

> <PUBCHEM_CACTVS_TAUTO_COUNT>
4

> <PUBCHEM_CONFORMER_ID>
006007120000000D

> <PUBCHEM_MMFF94_ENERGY>
124.5819

> <PUBCHEM_FEATURE_SELFOVERLAP>
50.773

> <PUBCHEM_SHAPE_FINGERPRINT>
10673678 19 18272373113735739582
11007060 377 17895191126201064723
11101153 10 18409725188541250349
11456790 92 18114450168886994106
11475781 23 14405179582423916046
11479125 193 18122063380165861072
11796584 16 8718822115583795956
11991303 11 17561359621214210039
12596602 18 18113614565271230107
13782708 43 15864062174358429428
14747282 125 17488173979780431300
14849402 71 18337954605234084337
15064981 113 9295015597063559851
15183329 4 10952050052451946999
15419008 145 18189883246342799512
16110190 28 18342738507802100021
18393751 57 18412551990377050863
19377110 9 18335420184035151655
21792934 111 17530682083648598677
22122407 14 18409736153476602168
22149856 69 17775293729060646827
23522609 53 18130518521318983321
335507 130 18272364295688528462
397830 11 18187083983525862543
4112364 45 17917418879032589680
4625314 4 18410292480743284311
4760202 70 18192710279462924967
5104073 3 18188206490334610393
5109719 28 18270412709656118208
5364581 5 18410015464032219425
57359948 33 14117802423385318952
68570916 9 18341047501515390855

> <PUBCHEM_SHAPE_MULTIPOLES>
642.78
24.78
3.67
1.69
22.6
3.55
-0.25
3.36
-9.91
-4.22
0.47
0.35
-0.21
-1.99

> <PUBCHEM_SHAPE_SELFOVERLAP>
1365.304

> <PUBCHEM_SHAPE_VOLUME>
360.3

> <PUBCHEM_COORDINATE_TYPE>
2
5
10

$$$$
