665289
  -OEChem-01171809163D

 40 44  0     0  0  0  0  0  0999 V2000
    0.5662    0.3541   -0.9938 O   0  0  0  0  0  0  0  0  0  0  0  0
   -0.7108    0.2661    1.0235 O   0  0  0  0  0  0  0  0  0  0  0  0
    0.2763   -3.5425    0.1209 N   0  0  0  0  0  0  0  0  0  0  0  0
    0.0116   -0.5085    0.0326 C   0  0  0  0  0  0  0  0  0  0  0  0
    1.1032   -1.2737    0.7713 C   0  0  0  0  0  0  0  0  0  0  0  0
   -0.9010   -1.5060   -0.6708 C   0  0  0  0  0  0  0  0  0  0  0  0
    0.7413   -2.6669    1.2163 C   0  0  0  0  0  0  0  0  0  0  0  0
   -0.2613   -2.8159   -1.0496 C   0  0  0  0  0  0  0  0  0  0  0  0
    2.3186   -0.7366    0.9444 C   0  0  0  0  0  0  0  0  0  0  0  0
   -2.1959   -1.2256   -0.8709 C   0  0  0  0  0  0  0  0  0  0  0  0
    2.5632    0.5767    0.3605 C   0  0  0  0  0  0  0  0  0  0  0  0
   -2.6985    0.0382   -0.3444 C   0  0  0  0  0  0  0  0  0  0  0  0
    1.6727    1.0671   -0.6031 C   0  0  0  0  0  0  0  0  0  0  0  0
   -1.9314    0.7325    0.6003 C   0  0  0  0  0  0  0  0  0  0  0  0
    1.3104   -4.4878   -0.2964 C   0  0  0  0  0  0  0  0  0  0  0  0
    3.6977    1.3232    0.6892 C   0  0  0  0  0  0  0  0  0  0  0  0
   -3.9526    0.5351   -0.7086 C   0  0  0  0  0  0  0  0  0  0  0  0
    1.9160    2.2807   -1.2445 C   0  0  0  0  0  0  0  0  0  0  0  0
   -2.4134    1.9010    1.1884 C   0  0  0  0  0  0  0  0  0  0  0  0
    3.9315    2.5492    0.0628 C   0  0  0  0  0  0  0  0  0  0  0  0
   -4.4273    1.7172   -0.1362 C   0  0  0  0  0  0  0  0  0  0  0  0
    3.0440    3.0254   -0.9033 C   0  0  0  0  0  0  0  0  0  0  0  0
   -3.6606    2.3968    0.8115 C   0  0  0  0  0  0  0  0  0  0  0  0
    1.5637   -3.1325    1.7747 H   0  0  0  0  0  0  0  0  0  0  0  0
   -0.0794   -2.5831    1.9414 H   0  0  0  0  0  0  0  0  0  0  0  0
   -0.9798   -3.4669   -1.5622 H   0  0  0  0  0  0  0  0  0  0  0  0
    0.5354   -2.5961   -1.7743 H   0  0  0  0  0  0  0  0  0  0  0  0
    3.1185   -1.2523    1.4618 H   0  0  0  0  0  0  0  0  0  0  0  0
   -2.8741   -1.9096   -1.3664 H   0  0  0  0  0  0  0  0  0  0  0  0
    2.1993   -3.9795   -0.6868 H   0  0  0  0  0  0  0  0  0  0  0  0
    0.9276   -5.1611   -1.0716 H   0  0  0  0  0  0  0  0  0  0  0  0
    1.6151   -5.1211    0.5441 H   0  0  0  0  0  0  0  0  0  0  0  0
    4.4095    0.9602    1.4265 H   0  0  0  0  0  0  0  0  0  0  0  0
   -4.5716    0.0101   -1.4319 H   0  0  0  0  0  0  0  0  0  0  0  0
    1.2328    2.6525   -2.0029 H   0  0  0  0  0  0  0  0  0  0  0  0
   -1.8242    2.4300    1.9321 H   0  0  0  0  0  0  0  0  0  0  0  0
    4.8125    3.1297    0.3214 H   0  0  0  0  0  0  0  0  0  0  0  0
   -5.4012    2.1039   -0.4224 H   0  0  0  0  0  0  0  0  0  0  0  0
    3.2356    3.9754   -1.3936 H   0  0  0  0  0  0  0  0  0  0  0  0
   -4.0389    3.3109    1.2599 H   0  0  0  0  0  0  0  0  0  0  0  0
  1  4  1  0  0  0  0
  1 13  1  0  0  0  0
  2  4  1  0  0  0  0
  2 14  1  0  0  0  0
  3  7  1  0  0  0  0
  3  8  1  0  0  0  0
  3 15  1  0  0  0  0
  4  5  1  0  0  0  0
  4  6  1  0  0  0  0
  5  7  1  0  0  0  0
  5  9  2  0  0  0  0
  6  8  1  0  0  0  0
  6 10  2  0  0  0  0
  7 24  1  0  0  0  0
  7 25  1  0  0  0  0
  8 26  1  0  0  0  0
  8 27  1  0  0  0  0
  9 11  1  0  0  0  0
  9 28  1  0  0  0  0
 10 12  1  0  0  0  0
 10 29  1  0  0  0  0
 11 13  1  0  0  0  0
 11 16  2  0  0  0  0
 12 14  1  0  0  0  0
 12 17  2  0  0  0  0
 13 18  2  0  0  0  0
 14 19  2  0  0  0  0
 15 30  1  0  0  0  0
 15 31  1  0  0  0  0
 15 32  1  0  0  0  0
 16 20  1  0  0  0  0
 16 33  1  0  0  0  0
 17 21  1  0  0  0  0
 17 34  1  0  0  0  0
 18 22  1  0  0  0  0
 18 35  1  0  0  0  0
 19 23  1  0  0  0  0
 19 36  1  0  0  0  0
 20 22  2  0  0  0  0
 20 37  1  0  0  0  0
 21 23  2  0  0  0  0
 21 38  1  0  0  0  0
 22 39  1  0  0  0  0
 23 40  1  0  0  0  0
M  END
> <PUBCHEM_COMPOUND_CID>
665289

> <PUBCHEM_CONFORMER_RMSD>
0.6

> <PUBCHEM_CONFORMER_DIVERSEORDER>
1

> <PUBCHEM_MMFF94_PARTIAL_CHARGES>
33
1 -0.36
10 -0.18
11 0.03
12 0.03
13 0.08
14 0.08
15 0.27
16 -0.15
17 -0.15
18 -0.15
19 -0.15
2 -0.36
20 -0.15
21 -0.15
22 -0.15
23 -0.15
28 0.15
29 0.15
3 -0.81
33 0.15
34 0.15
35 0.15
36 0.15
37 0.15
38 0.15
39 0.15
4 0.84
40 0.15
5 -0.28
6 -0.28
7 0.41
8 0.41
9 -0.18

> <PUBCHEM_EFFECTIVE_ROTOR_COUNT>
1

> <PUBCHEM_PHARMACOPHORE_FEATURES>
8
1 1 acceptor
1 2 acceptor
1 3 cation
6 1 4 5 9 11 13 rings
6 11 13 16 18 20 22 rings
6 12 14 17 19 21 23 rings
6 2 4 6 10 12 14 rings
6 3 4 5 6 7 8 rings

> <PUBCHEM_HEAVY_ATOM_COUNT>
23

> <PUBCHEM_ATOM_DEF_STEREO_COUNT>
0

> <PUBCHEM_ATOM_UDEF_STEREO_COUNT>
0

> <PUBCHEM_BOND_DEF_STEREO_COUNT>
0

> <PUBCHEM_BOND_UDEF_STEREO_COUNT>
0

> <PUBCHEM_ISOTOPIC_ATOM_COUNT>
0

> <PUBCHEM_COMPONENT_COUNT>
1

> <PUBCHEM_CACTVS_TAUTO_COUNT>
1

> <PUBCHEM_CONFORMER_ID>
000A26C900000001

> <PUBCHEM_MMFF94_ENERGY>
80.5413

> <PUBCHEM_FEATURE_SELFOVERLAP>
40.798

> <PUBCHEM_SHAPE_FINGERPRINT>
10090160 65 18335974355317921751
10411042 1 17473541352847456679
10948715 1 18410291445022857579
11582403 64 15694008463575499250
11640471 11 18410291440791648521
121448 382 18128816524310527801
12173636 292 18268704094319357215
12403259 327 16225764108044038009
12422481 6 17688843386360772378
12788726 201 17759238892263411618
13009979 54 17484521140497181395
13134695 92 17758969120961507415
13140716 1 18408323272054182328
13965767 371 18192688091208355520
14142880 1 17825942899476235437
14787075 74 17974847577852252355
14790565 3 18196378246063427017
14955137 171 17265573182160346659
15420108 30 18195786527981330874
1601671 61 18050848823571948966
16752209 62 18126554841777133367
16945 1 18188770522524708403
17980427 23 17197118675084130469
1813 80 17621041954194042767
20157964 124 18262509292155586933
20510252 161 18125726922495886731
20642791 105 18121198021311114459
20715895 44 17761762976362604749
20739085 24 18188767228754271344
20775438 99 15174699548501585646
21304303 282 17981296170140173172
21524375 3 18409449223442915289
22149856 69 17559115377550920049
2255824 54 18339083661878098746
23366157 5 18265054622312403927
23419403 2 15731292748328698642
23557571 272 17697039502463784236
23558518 356 18337109085203336334
23559900 14 17130141988512520903
283562 15 17324361196049185536
3060560 45 18337673010330105102
3091708 16 9118381303717086802
3380486 145 16612242136238136281
352729 6 18266451182130923107
394222 165 18261661623707183507
4340502 62 17894636955213154321
474 4 18334574629249162665
7164475 11 17833551571996803014
7364860 26 18197216940752948491
81228 2 17694803103891015763
84936 182 18272084976674448816
9981440 41 18410852191964037905

> <PUBCHEM_SHAPE_MULTIPOLES>
456.61
6.56
4.58
1.2
2.81
4.3
0.03
-7.38
0.15
-2.49
-0.46
-0.04
-0.09
-1.33

> <PUBCHEM_SHAPE_SELFOVERLAP>
1034.532

> <PUBCHEM_SHAPE_VOLUME>
236.8

> <PUBCHEM_COORDINATE_TYPE>
2
5
10

$$$$
