931134
  -OEChem-01171809223D

 37 38  0     1  0  0  0  0  0999 V2000
    2.0345   -0.9847   -1.5756 S   0  0  0  0  0  0  0  0  0  0  0  0
    4.5827   -2.1933   -0.7451 S   0  0  0  0  0  0  0  0  0  0  0  0
   -1.3036    1.2425    0.7140 O   0  0  0  0  0  0  0  0  0  0  0  0
   -1.0672   -1.5243    0.6011 O   0  0  0  0  0  0  0  0  0  0  0  0
    1.4266    1.1621   -0.0379 N   0  0  1  0  0  0  0  0  0  0  0  0
    3.5852    0.1150    0.3923 N   0  0  0  0  0  0  0  0  0  0  0  0
    2.8352    1.3769    0.2861 C   0  0  0  0  0  0  0  0  0  0  0  0
    0.6831    2.4180    0.0875 C   0  0  0  0  0  0  0  0  0  0  0  0
    1.3320    0.6605   -1.4027 C   0  0  0  0  0  0  0  0  0  0  0  0
   -0.7928    2.1994   -0.2049 C   0  0  0  0  0  0  0  0  0  0  0  0
    3.4757   -0.9294   -0.5462 C   0  0  0  0  0  0  0  0  0  0  0  0
    4.6698    0.1545    1.3803 C   0  0  0  0  0  0  0  0  0  0  0  0
   -2.3516    0.4711    0.2841 C   0  0  0  0  0  0  0  0  0  0  0  0
   -2.2264   -0.9128    0.2303 C   0  0  0  0  0  0  0  0  0  0  0  0
   -3.5376    1.0899   -0.0963 C   0  0  0  0  0  0  0  0  0  0  0  0
   -3.3000   -1.6873   -0.2094 C   0  0  0  0  0  0  0  0  0  0  0  0
   -4.6111    0.3154   -0.5361 C   0  0  0  0  0  0  0  0  0  0  0  0
   -4.4924   -1.0733   -0.5927 C   0  0  0  0  0  0  0  0  0  0  0  0
   -0.9422   -1.9003    1.9712 C   0  0  0  0  0  0  0  0  0  0  0  0
    2.9016    1.8795    1.2585 H   0  0  0  0  0  0  0  0  0  0  0  0
    3.3472    2.0097   -0.4507 H   0  0  0  0  0  0  0  0  0  0  0  0
    1.0826    3.1952   -0.5760 H   0  0  0  0  0  0  0  0  0  0  0  0
    0.7752    2.7803    1.1192 H   0  0  0  0  0  0  0  0  0  0  0  0
    0.3024    0.5181   -1.7324 H   0  0  0  0  0  0  0  0  0  0  0  0
    1.8125    1.3335   -2.1238 H   0  0  0  0  0  0  0  0  0  0  0  0
   -0.9991    1.9388   -1.2486 H   0  0  0  0  0  0  0  0  0  0  0  0
   -1.3170    3.1455   -0.0195 H   0  0  0  0  0  0  0  0  0  0  0  0
    5.4624    0.8051    0.9986 H   0  0  0  0  0  0  0  0  0  0  0  0
    5.0827   -0.8337    1.5888 H   0  0  0  0  0  0  0  0  0  0  0  0
    4.2862    0.5563    2.3233 H   0  0  0  0  0  0  0  0  0  0  0  0
   -3.6464    2.1697   -0.0493 H   0  0  0  0  0  0  0  0  0  0  0  0
   -3.2142   -2.7695   -0.2568 H   0  0  0  0  0  0  0  0  0  0  0  0
   -5.5401    0.7933   -0.8327 H   0  0  0  0  0  0  0  0  0  0  0  0
   -5.3283   -1.6763   -0.9348 H   0  0  0  0  0  0  0  0  0  0  0  0
   -1.7150   -2.6268    2.2415 H   0  0  0  0  0  0  0  0  0  0  0  0
   -1.0084   -1.0210    2.6197 H   0  0  0  0  0  0  0  0  0  0  0  0
    0.0384   -2.3637    2.1104 H   0  0  0  0  0  0  0  0  0  0  0  0
  1  9  1  0  0  0  0
  1 11  1  0  0  0  0
  2 11  2  0  0  0  0
  3 10  1  0  0  0  0
  3 13  1  0  0  0  0
  4 14  1  0  0  0  0
  4 19  1  0  0  0  0
  5  7  1  0  0  0  0
  5  8  1  0  0  0  0
  5  9  1  0  0  0  0
  6  7  1  0  0  0  0
  6 11  1  0  0  0  0
  6 12  1  0  0  0  0
  7 20  1  0  0  0  0
  7 21  1  0  0  0  0
  8 10  1  0  0  0  0
  8 22  1  0  0  0  0
  8 23  1  0  0  0  0
  9 24  1  0  0  0  0
  9 25  1  0  0  0  0
 10 26  1  0  0  0  0
 10 27  1  0  0  0  0
 12 28  1  0  0  0  0
 12 29  1  0  0  0  0
 12 30  1  0  0  0  0
 13 14  1  0  0  0  0
 13 15  2  0  0  0  0
 14 16  2  0  0  0  0
 15 17  1  0  0  0  0
 15 31  1  0  0  0  0
 16 18  1  0  0  0  0
 16 32  1  0  0  0  0
 17 18  2  0  0  0  0
 17 33  1  0  0  0  0
 18 34  1  0  0  0  0
 19 35  1  0  0  0  0
 19 36  1  0  0  0  0
 19 37  1  0  0  0  0
M  END
> <PUBCHEM_COMPOUND_CID>
931134

> <PUBCHEM_CONFORMER_RMSD>
0.8

> <PUBCHEM_CONFORMER_DIVERSEORDER>
3
225
20
167
155
4
163
104
208
54
135
243
184
159
187
7
244
223
50
17
10
2
222
30
108
220
235
18
205
166
131
66
162
112
215
152
246
158
13
207
105
218
128
60
210
153
138
58
177
221
194
115
182
233
134
141
201
69
175
1
232
174
65
56
45
12
102
96
75
199
193
32
156
95
37
191
38
226
239
80
240
165
136
179
127
46
181
192
195
203
171
116
42
172
214
35
122
185
209
224
39
241
92
16
81
186
82
123
180
236
101
9
142
113
183
59
132
93
164
146
73
90
86
91
106
107
47
149
74
21
231
229
84
150
67
94
230
85
41
227
133
53
157
8
52
83
100
176
5
51
211
168
242
55
238
139
237
29
71
14
109
99
124
110
216
189
119
118
25
147
169
27
178
154
103
61
206
31
212
204
197
43
217
72
36
125
198
196
33
245
97
28
22
88
121
200
143
57
117
68
6
170
40
49
148
234
114
160
126
24
76
140
219
111
63
130
98
70
137
228
44
190
48
145
89
151
78
11
19
64
161
213
77
79
23
87
26
120
173
144
62
188
15
202
129
34

> <PUBCHEM_MMFF94_PARTIAL_CHARGES>
23
1 -0.37
10 0.28
11 0.58
12 0.3
13 0.08
14 0.08
15 -0.15
16 -0.15
17 -0.15
18 -0.15
19 0.28
2 -0.38
3 -0.36
31 0.15
32 0.15
33 0.15
34 0.15
4 -0.36
5 -0.81
6 -0.66
7 0.57
8 0.27
9 0.5

> <PUBCHEM_EFFECTIVE_ROTOR_COUNT>
6

> <PUBCHEM_PHARMACOPHORE_FEATURES>
6
1 2 acceptor
1 3 acceptor
1 4 acceptor
1 5 cation
6 1 5 6 7 9 11 rings
6 13 14 15 16 17 18 rings

> <PUBCHEM_HEAVY_ATOM_COUNT>
19

> <PUBCHEM_ATOM_DEF_STEREO_COUNT>
0

> <PUBCHEM_ATOM_UDEF_STEREO_COUNT>
0

> <PUBCHEM_BOND_DEF_STEREO_COUNT>
0

> <PUBCHEM_BOND_UDEF_STEREO_COUNT>
0

> <PUBCHEM_ISOTOPIC_ATOM_COUNT>
0

> <PUBCHEM_COMPONENT_COUNT>
1

> <PUBCHEM_CACTVS_TAUTO_COUNT>
1

> <PUBCHEM_CONFORMER_ID>
000E353E00000003

> <PUBCHEM_MMFF94_ENERGY>
73.9248

> <PUBCHEM_FEATURE_SELFOVERLAP>
30.451

> <PUBCHEM_SHAPE_FINGERPRINT>
10062212 137 18411975897464611239
10366900 7 18201442514737334856
11370993 70 17775563143510831159
11458722 379 18261678069057811907
12011746 2 18343587352311517612
12363563 72 18342189855298831156
12553582 1 18265637479196603556
128993 33 8574165885950574050
14115302 16 17749396991530744084
15196674 1 18413390925351891805
15352361 1 18341895169103061614
15375358 24 18412262873856493768
16752209 62 17896038750127308364
17492 89 18268711790986083159
17834072 14 18341893008539261292
18186145 218 18040430019075263807
200 152 17632576050364998237
20645477 70 18338232781601649381
21781051 124 17241058699353129731
21864079 5 8502377689356853054
23402539 116 18411407423697853237
23559900 14 18412825768365814804
24859131 72 18202000980454359038
2637199 183 8286209369904182284
3004659 81 18187365432864580044
3286 77 17275100613633826042
351380 180 18343017779038802526
5104073 3 17988646259258578394
81228 2 18194984966482434504
9709674 26 18337957899346828131
9981440 41 17260173918933465793

> <PUBCHEM_SHAPE_MULTIPOLES>
377.01
9.57
2.49
1.33
1.13
0.29
0.24
-3.6
-0.64
0.42
0.11
0.73
-0.53
0.86

> <PUBCHEM_SHAPE_SELFOVERLAP>
748.293

> <PUBCHEM_SHAPE_VOLUME>
226.7

> <PUBCHEM_COORDINATE_TYPE>
2
5
10

$$$$
