1518980
  -OEChem-01171810073D

 38 40  0     0  0  0  0  0  0999 V2000
    4.2656   -1.4390    2.4710 Cl  0  0  0  0  0  0  0  0  0  0  0  0
    0.5532    1.2019   -0.2467 S   0  0  0  0  0  0  0  0  0  0  0  0
    5.8147   -0.6556    0.0674 F   0  0  0  0  0  0  0  0  0  0  0  0
   -2.2547   -3.4436   -0.0328 O   0  0  0  0  0  0  0  0  0  0  0  0
   -3.7778    0.9316   -0.9676 O   0  0  0  0  0  0  0  0  0  0  0  0
   -1.2239    4.3432    0.9436 O   0  0  0  0  0  0  0  0  0  0  0  0
    0.8947    4.1863    0.0234 O   0  0  0  0  0  0  0  0  0  0  0  0
   -1.7111   -0.1732   -0.9273 N   0  0  0  0  0  0  0  0  0  0  0  0
    0.4049   -1.2851   -0.8850 N   0  0  0  0  0  0  0  0  0  0  0  0
   -2.3528   -1.4268   -1.3354 C   0  0  0  0  0  0  0  0  0  0  0  0
   -2.7872   -2.2135   -0.1299 C   0  0  0  0  0  0  0  0  0  0  0  0
   -0.3183   -0.2233   -0.7301 C   0  0  0  0  0  0  0  0  0  0  0  0
   -2.5594    0.9393   -0.7787 C   0  0  0  0  0  0  0  0  0  0  0  0
   -1.9500    2.2246   -0.3646 C   0  0  0  0  0  0  0  0  0  0  0  0
   -0.6519    2.3966   -0.1269 C   0  0  0  0  0  0  0  0  0  0  0  0
   -3.6230   -1.9188    0.8914 C   0  0  0  0  0  0  0  0  0  0  0  0
    1.7776   -1.1254   -0.6386 C   0  0  0  0  0  0  0  0  0  0  0  0
   -3.6200   -3.0709    1.7134 C   0  0  0  0  0  0  0  0  0  0  0  0
   -2.7725   -3.9695    1.1084 C   0  0  0  0  0  0  0  0  0  0  0  0
    2.2806   -1.3361    0.6425 C   0  0  0  0  0  0  0  0  0  0  0  0
    2.6289   -0.7583   -1.6775 C   0  0  0  0  0  0  0  0  0  0  0  0
   -0.2116    3.7361    0.2745 C   0  0  0  0  0  0  0  0  0  0  0  0
    3.6448   -1.1785    0.8866 C   0  0  0  0  0  0  0  0  0  0  0  0
    3.9931   -0.6008   -1.4333 C   0  0  0  0  0  0  0  0  0  0  0  0
    4.5011   -0.8108   -0.1513 C   0  0  0  0  0  0  0  0  0  0  0  0
   -0.9450    5.6696    1.4034 C   0  0  0  0  0  0  0  0  0  0  0  0
   -1.6705   -2.0200   -1.9548 H   0  0  0  0  0  0  0  0  0  0  0  0
   -3.2333   -1.2127   -1.9525 H   0  0  0  0  0  0  0  0  0  0  0  0
   -2.6693    3.0369   -0.2959 H   0  0  0  0  0  0  0  0  0  0  0  0
   -4.1770   -1.0053    1.0501 H   0  0  0  0  0  0  0  0  0  0  0  0
   -4.1673   -3.2270    2.6318 H   0  0  0  0  0  0  0  0  0  0  0  0
   -2.4488   -4.9714    1.3499 H   0  0  0  0  0  0  0  0  0  0  0  0
    1.6096   -1.6273    1.4478 H   0  0  0  0  0  0  0  0  0  0  0  0
    2.2438   -0.5968   -2.6810 H   0  0  0  0  0  0  0  0  0  0  0  0
    4.6601   -0.3154   -2.2414 H   0  0  0  0  0  0  0  0  0  0  0  0
   -1.8320    6.0431    1.9218 H   0  0  0  0  0  0  0  0  0  0  0  0
   -0.7306    6.3270    0.5554 H   0  0  0  0  0  0  0  0  0  0  0  0
   -0.1060    5.6584    2.1057 H   0  0  0  0  0  0  0  0  0  0  0  0
  1 23  1  0  0  0  0
  2 12  1  0  0  0  0
  2 15  1  0  0  0  0
  3 25  1  0  0  0  0
  4 11  1  0  0  0  0
  4 19  1  0  0  0  0
  5 13  2  0  0  0  0
  6 22  1  0  0  0  0
  6 26  1  0  0  0  0
  7 22  2  0  0  0  0
  8 10  1  0  0  0  0
  8 12  1  0  0  0  0
  8 13  1  0  0  0  0
  9 12  2  0  0  0  0
  9 17  1  0  0  0  0
 10 11  1  0  0  0  0
 10 27  1  0  0  0  0
 10 28  1  0  0  0  0
 11 16  2  0  0  0  0
 13 14  1  0  0  0  0
 14 15  2  0  0  0  0
 14 29  1  0  0  0  0
 15 22  1  0  0  0  0
 16 18  1  0  0  0  0
 16 30  1  0  0  0  0
 17 20  2  0  0  0  0
 17 21  1  0  0  0  0
 18 19  2  0  0  0  0
 18 31  1  0  0  0  0
 19 32  1  0  0  0  0
 20 23  1  0  0  0  0
 20 33  1  0  0  0  0
 21 24  2  0  0  0  0
 21 34  1  0  0  0  0
 23 25  2  0  0  0  0
 24 25  1  0  0  0  0
 24 35  1  0  0  0  0
 26 36  1  0  0  0  0
 26 37  1  0  0  0  0
 26 38  1  0  0  0  0
M  END
> <PUBCHEM_COMPOUND_CID>
1518980

> <PUBCHEM_CONFORMER_RMSD>
0.8

> <PUBCHEM_CONFORMER_DIVERSEORDER>
2
14
28
17
24
36
30
22
33
23
32
16
19
39
27
21
18
26
35
7
4
20
29
37
11
13
25
31
12
5
38
3
15
1
34
8
10
9
6

> <PUBCHEM_MMFF94_PARTIAL_CHARGES>
33
1 -0.18
10 0.48
11 -0.04
12 0.65
13 0.62
14 -0.14
15 0.12
16 -0.15
17 0.18
18 -0.15
19 -0.01
2 -0.24
20 -0.15
21 -0.15
22 0.71
23 0.18
24 -0.15
25 0.19
26 0.28
29 0.15
3 -0.19
30 0.15
31 0.15
32 0.15
33 0.15
34 0.15
35 0.15
4 -0.28
5 -0.57
6 -0.43
7 -0.57
8 -0.42
9 -0.63

> <PUBCHEM_EFFECTIVE_ROTOR_COUNT>
5

> <PUBCHEM_PHARMACOPHORE_FEATURES>
6
1 4 acceptor
1 5 acceptor
1 7 acceptor
5 4 11 16 18 19 rings
6 17 20 21 23 24 25 rings
6 2 8 12 13 14 15 rings

> <PUBCHEM_HEAVY_ATOM_COUNT>
26

> <PUBCHEM_ATOM_DEF_STEREO_COUNT>
0

> <PUBCHEM_ATOM_UDEF_STEREO_COUNT>
0

> <PUBCHEM_BOND_DEF_STEREO_COUNT>
0

> <PUBCHEM_BOND_UDEF_STEREO_COUNT>
0

> <PUBCHEM_ISOTOPIC_ATOM_COUNT>
0

> <PUBCHEM_COMPONENT_COUNT>
1

> <PUBCHEM_CACTVS_TAUTO_COUNT>
1

> <PUBCHEM_CONFORMER_ID>
00172D8400000002

> <PUBCHEM_MMFF94_ENERGY>
74.6072

> <PUBCHEM_FEATURE_SELFOVERLAP>
30.448

> <PUBCHEM_SHAPE_FINGERPRINT>
10074138 170 18266449906709882984
10382601 240 17547306943704001239
10906281 52 18271250413400594237
1100329 8 18409732855031324293
11036077 51 17976254634417595738
11578080 2 17533195691213917487
12160290 23 18266172825352529053
12549972 3 17824813688962159619
12553582 1 18337114582698444791
12633257 1 18267042672885643379
12788726 201 18267293240839380481
13009979 54 18114460068486495282
13140716 1 18411704304595725581
13149001 5 18191561195238008173
133893 2 17622987402617011727
14081887 123 18339914927197435914
14363568 33 17908144631058539904
14787075 74 17826522355563864742
14844126 61 18334845117547017434
14863182 85 16674445426100189847
15420108 30 17337323325243663655
15475509 84 18195836131059838169
15775530 1 18046327889836361069
17974551 9 17478284723598708546
19591789 44 16969421297039534260
20101258 96 18341057388598171216
21033648 29 17489594454514866627
21049683 118 17407371664660547528
22956985 138 17466492821867032106
23557571 272 18341612577693446974
23558518 356 17691681191206400679
23559900 14 17679577011715760607
283562 15 18123464974107563045
3178227 256 18335990758336478549
3418910 222 18335712689327103212
392239 28 18189610713213205506
58807428 26 17329422853113802344
7808743 9 18054508011766337396
79837 15 17977106751691923978
81228 2 18199751332303471765
9981440 41 17686896121029337569

> <PUBCHEM_SHAPE_MULTIPOLES>
500.07
8.16
6.37
1.66
8.57
9.71
0.54
-7.92
1.53
-6.4
3.93
0.81
-0.61
0.43

> <PUBCHEM_SHAPE_SELFOVERLAP>
1067.731

> <PUBCHEM_SHAPE_VOLUME>
281.6

> <PUBCHEM_COORDINATE_TYPE>
2
5
10

$$$$
