4354817
  -OEChem-01171809383D

 43 44  0     0  0  0  0  0  0999 V2000
   -1.7029    0.4058   -0.8553 O   0  0  0  0  0  0  0  0  0  0  0  0
    0.5121    1.8252   -0.5364 O   0  0  0  0  0  0  0  0  0  0  0  0
   -2.7014    2.4162   -0.1649 O   0  5  0  0  0  0  0  0  0  0  0  0
   -4.6835    2.5401    0.7703 O   0  0  0  0  0  0  0  0  0  0  0  0
    4.2247   -0.0840   -0.2594 N   0  0  0  0  0  0  0  0  0  0  0  0
   -5.0088   -0.1297    0.6217 N   0  0  0  0  0  0  0  0  0  0  0  0
   -3.7485    1.8864    0.2624 N   0  3  0  0  0  0  0  0  0  0  0  0
    3.1723    0.7923   -0.3131 C   0  0  0  0  0  0  0  0  0  0  0  0
    3.7623   -1.3662   -0.4030 C   0  0  0  0  0  0  0  0  0  0  0  0
    2.0556    0.0440   -0.4916 C   0  0  0  0  0  0  0  0  0  0  0  0
    2.3942   -1.3072   -0.5515 C   0  0  0  0  0  0  0  0  0  0  0  0
    5.6123    0.2872   -0.0769 C   0  0  0  0  0  0  0  0  0  0  0  0
    3.3643    2.2536   -0.1869 C   0  0  0  0  0  0  0  0  0  0  0  0
    0.7004    0.6096   -0.6026 C   0  0  0  0  0  0  0  0  0  0  0  0
    4.6631   -2.5375   -0.3860 C   0  0  0  0  0  0  0  0  0  0  0  0
   -0.4798   -0.3287   -0.8027 C   0  0  0  0  0  0  0  0  0  0  0  0
    5.9850    0.3298    1.3723 C   0  0  0  0  0  0  0  0  0  0  0  0
   -2.8221   -0.2205   -0.4052 C   0  0  0  0  0  0  0  0  0  0  0  0
    6.9531   -0.4175    1.9144 C   0  0  0  0  0  0  0  0  0  0  0  0
   -3.8831    0.4638    0.1651 C   0  0  0  0  0  0  0  0  0  0  0  0
   -2.9226   -1.6031   -0.5143 C   0  0  0  0  0  0  0  0  0  0  0  0
   -5.0707   -1.4746    0.4988 C   0  0  0  0  0  0  0  0  0  0  0  0
   -4.0651   -2.2498   -0.0560 C   0  0  0  0  0  0  0  0  0  0  0  0
   -6.3108   -2.1353    1.0008 C   0  0  0  0  0  0  0  0  0  0  0  0
    1.7428   -2.1597   -0.6861 H   0  0  0  0  0  0  0  0  0  0  0  0
    6.2337   -0.4216   -0.6352 H   0  0  0  0  0  0  0  0  0  0  0  0
    5.7885    1.2591   -0.5483 H   0  0  0  0  0  0  0  0  0  0  0  0
    2.5659    2.7075    0.4084 H   0  0  0  0  0  0  0  0  0  0  0  0
    3.3620    2.7222   -1.1764 H   0  0  0  0  0  0  0  0  0  0  0  0
    4.2908    2.5358    0.3186 H   0  0  0  0  0  0  0  0  0  0  0  0
    5.3706   -2.5042   -1.2205 H   0  0  0  0  0  0  0  0  0  0  0  0
    4.0909   -3.4667   -0.4818 H   0  0  0  0  0  0  0  0  0  0  0  0
    5.2226   -2.5967    0.5521 H   0  0  0  0  0  0  0  0  0  0  0  0
   -0.4667   -1.0214    0.0484 H   0  0  0  0  0  0  0  0  0  0  0  0
   -0.3450   -0.8638   -1.7488 H   0  0  0  0  0  0  0  0  0  0  0  0
    5.4459    1.0210    2.0153 H   0  0  0  0  0  0  0  0  0  0  0  0
    7.1827   -0.3367    2.9712 H   0  0  0  0  0  0  0  0  0  0  0  0
    7.5293   -1.1180    1.3201 H   0  0  0  0  0  0  0  0  0  0  0  0
   -2.1501   -2.2112   -0.9751 H   0  0  0  0  0  0  0  0  0  0  0  0
   -4.1583   -3.3272   -0.1412 H   0  0  0  0  0  0  0  0  0  0  0  0
   -6.0677   -2.8476    1.7957 H   0  0  0  0  0  0  0  0  0  0  0  0
   -6.8159   -2.6654    0.1871 H   0  0  0  0  0  0  0  0  0  0  0  0
   -7.0108   -1.3992    1.4098 H   0  0  0  0  0  0  0  0  0  0  0  0
  1 16  1  0  0  0  0
  1 18  1  0  0  0  0
  2 14  2  0  0  0  0
  3  7  1  0  0  0  0
  4  7  2  0  0  0  0
  5  8  1  0  0  0  0
  5  9  1  0  0  0  0
  5 12  1  0  0  0  0
  6 20  1  0  0  0  0
  6 22  2  0  0  0  0
  7 20  1  0  0  0  0
  8 10  2  0  0  0  0
  8 13  1  0  0  0  0
  9 11  2  0  0  0  0
  9 15  1  0  0  0  0
 10 11  1  0  0  0  0
 10 14  1  0  0  0  0
 11 25  1  0  0  0  0
 12 17  1  0  0  0  0
 12 26  1  0  0  0  0
 12 27  1  0  0  0  0
 13 28  1  0  0  0  0
 13 29  1  0  0  0  0
 13 30  1  0  0  0  0
 14 16  1  0  0  0  0
 15 31  1  0  0  0  0
 15 32  1  0  0  0  0
 15 33  1  0  0  0  0
 16 34  1  0  0  0  0
 16 35  1  0  0  0  0
 17 19  2  0  0  0  0
 17 36  1  0  0  0  0
 18 20  2  0  0  0  0
 18 21  1  0  0  0  0
 19 37  1  0  0  0  0
 19 38  1  0  0  0  0
 21 23  2  0  0  0  0
 21 39  1  0  0  0  0
 22 23  1  0  0  0  0
 22 24  1  0  0  0  0
 23 40  1  0  0  0  0
 24 41  1  0  0  0  0
 24 42  1  0  0  0  0
 24 43  1  0  0  0  0
M  CHG  2   3  -1   7   1
M  END
> <PUBCHEM_COMPOUND_CID>
4354817

> <PUBCHEM_CONFORMER_RMSD>
0.8

> <PUBCHEM_CONFORMER_DIVERSEORDER>
3
230
121
473
183
63
447
240
373
472
26
42
475
457
44
223
29
355
317
426
62
414
201
365
168
301
262
397
181
15
138
239
381
211
326
368
254
436
175
442
241
103
49
346
396
321
163
284
478
338
19
281
6
415
433
400
419
97
12
21
32
347
328
193
463
31
55
331
370
444
269
312
314
140
58
225
164
43
288
290
425
231
152
172
275
80
35
386
189
469
387
236
336
342
356
226
389
48
13
247
30
259
376
233
260
98
33
71
131
77
1
451
255
60
332
304
406
2
371
470
154
380
124
90
295
246
320
217
100
113
235
456
75
53
219
279
25
383
145
23
82
149
421
266
453
76
127
289
364
422
393
93
200
133
378
95
54
91
319
213
459
221
335
109
477
212
144
403
116
322
119
120
128
84
439
111
96
83
244
108
204
52
161
392
286
64
147
417
285
237
14
287
341
142
65
234
209
263
361
318
461
388
169
89
151
46
146
178
85
330
454
460
143
423
375
310
194
441
187
185
4
270
430
308
7
443
404
186
232
136
208
395
5
115
253
334
445
464
291
354
196
339
81
57
399
137
265
360
197
61
20
107
202
112
249
126
377
471
203
72
228
296
466
210
429
273
348
372
337
349
8
309
307
118
39
106
222
369
132
50
73
362
171
413
416
99
165
431
448
476
243
390
105
363
325
17
159
177
251
78
135
224
428
66
344
227
192
274
276
173
36
34
162
292
114
272
28
37
268
467
398
86
250
340
195
333
297
252
411
350
382
22
94
427
11
327
271
384
248
160
306
40
24
410
92
345
420
401
298
10
156
468
257
122
405
205
258
267
353
300
51
242
282
188
198
256
366
155
294
102
299
182
176
313
206
311
218
391
434
293
450
167
358
458
101
315
264
215
329
462
394
402
280
432
418
129
184
324
438
134
150
41
238
79
174
229
302
278
323
367
359
70
158
407
67
74
180
357
440
148
424
16
374
455
408
245
157
437
87
170
452
130
352
59
38
351
214
190
110
18
303
69
474
385
305
446
179
47
409
465
379
104
68
199
9
316
117
435
220
207
191
343
27
277
141
88
449
166
412
153
45
261
139
123
125
216
283
56

> <PUBCHEM_MMFF94_PARTIAL_CHARGES>
30
1 -0.36
10 -0.09
11 -0.15
12 0.39
13 0.18
14 0.6
15 0.18
16 0.34
17 -0.29
18 0.08
19 -0.3
2 -0.57
20 0.44
21 -0.15
22 0.17
23 -0.15
24 0.14
25 0.15
3 -0.52
36 0.15
37 0.15
38 0.15
39 0.15
4 -0.52
40 0.15
5 0.05
6 -0.62
7 0.91
8 -0.33
9 -0.33

> <PUBCHEM_EFFECTIVE_ROTOR_COUNT>
7

> <PUBCHEM_PHARMACOPHORE_FEATURES>
10
1 1 acceptor
1 19 hydrophobe
1 2 acceptor
1 3 acceptor
1 3 anion
1 4 acceptor
1 5 cation
1 6 acceptor
5 5 8 9 10 11 rings
6 6 18 20 21 22 23 rings

> <PUBCHEM_HEAVY_ATOM_COUNT>
24

> <PUBCHEM_ATOM_DEF_STEREO_COUNT>
0

> <PUBCHEM_ATOM_UDEF_STEREO_COUNT>
0

> <PUBCHEM_BOND_DEF_STEREO_COUNT>
0

> <PUBCHEM_BOND_UDEF_STEREO_COUNT>
0

> <PUBCHEM_ISOTOPIC_ATOM_COUNT>
0

> <PUBCHEM_COMPONENT_COUNT>
1

> <PUBCHEM_CACTVS_TAUTO_COUNT>
2

> <PUBCHEM_CONFORMER_ID>
0042730100000003

> <PUBCHEM_MMFF94_ENERGY>
59.5873

> <PUBCHEM_FEATURE_SELFOVERLAP>
50.885

> <PUBCHEM_SHAPE_FINGERPRINT>
10 15 18272645792598400856
10319926 262 18341328912182960896
10693767 8 11819813204281048176
11315181 36 18187365449965295349
11405975 8 18412267198788308009
12107183 9 17978796709627188243
12403259 118 18343579659513796684
12596602 18 18272370845613505186
12892183 10 18343022164052446150
13073987 5 18412827958340303850
13167823 11 18409451383985571063
13403585 85 18273493481229021457
13533116 47 18337397144506953319
13583140 156 17774712121563387221
13668630 136 14634866465848683699
13675066 3 18060136518381779620
14251764 18 18113615725307915344
14341114 176 18271813406097706454
14420673 8 18122353375830074895
14849402 71 18267019656356870640
15188451 53 18113614625284889931
15196674 1 18411141303129064126
15788980 27 16443340966621873606
17492 89 18410018749323771183
17780758 139 18408316688101555825
17844677 252 18341061764832222765
17857418 61 18335136518213598119
1813 80 17313391123203600188
21033648 29 17417799630527430321
21065198 57 18412548678139075061
21065199 12 18342741797193154423
21267235 1 18410585006370095790
21792934 111 18340488959110414873
22061861 79 13695867026079506258
23522609 53 17751104477914301164
23559900 14 18341330011378382860
29717793 49 13479127991361954334
312425 54 18336267829737088050
4073 2 18260838111162803738
4214541 1 18411704257693872829
465052 167 18040707087900890362
5104073 3 18270679766823476474
5364581 5 17914600903180652528
542803 24 13183022921215746126
5924683 9 18201716288974853447

> <PUBCHEM_SHAPE_MULTIPOLES>
455.49
17
2.61
1.08
3.4
0.44
0.4
-5.14
8.09
-2.14
0.04
1.09
-0.15
0.27

> <PUBCHEM_SHAPE_SELFOVERLAP>
965.905

> <PUBCHEM_SHAPE_VOLUME>
255.6

> <PUBCHEM_COORDINATE_TYPE>
2
5
10

$$$$
