663743
  -OEChem-01171809163D

 52 53  0     1  0  0  0  0  0999 V2000
   -3.5115    0.1209    2.7969 Cl  0  0  0  0  0  0  0  0  0  0  0  0
   -2.2068    1.2668   -0.5509 S   0  0  0  0  0  0  0  0  0  0  0  0
   -3.9976   -1.4056   -2.0452 F   0  0  0  0  0  0  0  0  0  0  0  0
    0.4264    1.3503    0.2135 O   0  0  0  0  0  0  0  0  0  0  0  0
    4.3587   -1.6345   -0.4280 O   0  0  0  0  0  0  0  0  0  0  0  0
   -2.6099    2.1357    0.5505 O   0  0  0  0  0  0  0  0  0  0  0  0
   -2.8594    1.3751   -1.8525 O   0  0  0  0  0  0  0  0  0  0  0  0
    2.6961   -1.2325    1.1046 O   0  0  0  0  0  0  0  0  0  0  0  0
    3.6117    0.4655   -0.1834 N   0  0  0  0  0  0  0  0  0  0  0  0
    1.4052    1.9129   -1.7177 N   0  0  0  0  0  0  0  0  0  0  0  0
    0.0431    1.8281   -1.9380 N   0  0  0  0  0  0  0  0  0  0  0  0
    2.8242    1.5648    0.3322 C   0  0  1  0  0  0  0  0  0  0  0  0
    3.6183    2.8959    0.3381 C   0  0  0  0  0  0  0  0  0  0  0  0
    1.5403    1.6287   -0.4758 C   0  0  0  0  0  0  0  0  0  0  0  0
    2.7958    4.0480    0.9293 C   0  0  0  0  0  0  0  0  0  0  0  0
    4.9219    2.7593    1.1373 C   0  0  0  0  0  0  0  0  0  0  0  0
    4.3335   -3.0239   -0.0820 C   0  0  0  0  0  0  0  0  0  0  0  0
    3.4790   -0.8362    0.2475 C   0  0  0  0  0  0  0  0  0  0  0  0
   -0.4878    1.4972   -0.7842 C   0  0  0  0  0  0  0  0  0  0  0  0
   -2.3586   -0.4249   -0.0074 C   0  0  0  0  0  0  0  0  0  0  0  0
    5.3741   -3.7323   -0.9466 C   0  0  0  0  0  0  0  0  0  0  0  0
    2.9355   -3.5706   -0.3671 C   0  0  0  0  0  0  0  0  0  0  0  0
    4.6814   -3.1627    1.3994 C   0  0  0  0  0  0  0  0  0  0  0  0
   -3.8130   -0.7035    0.2161 C   0  0  0  0  0  0  0  0  0  0  0  0
   -4.4130   -0.4825    1.4542 C   0  0  0  0  0  0  0  0  0  0  0  0
   -4.5660   -1.1913   -0.8503 C   0  0  0  0  0  0  0  0  0  0  0  0
   -5.7710   -0.7506    1.6268 C   0  0  0  0  0  0  0  0  0  0  0  0
   -5.9240   -1.4592   -0.6779 C   0  0  0  0  0  0  0  0  0  0  0  0
   -6.5264   -1.2388    0.5607 C   0  0  0  0  0  0  0  0  0  0  0  0
    2.5590    1.3186    1.3697 H   0  0  0  0  0  0  0  0  0  0  0  0
    3.8840    3.1630   -0.6936 H   0  0  0  0  0  0  0  0  0  0  0  0
    2.4800    3.8240    1.9539 H   0  0  0  0  0  0  0  0  0  0  0  0
    3.3824    4.9728    0.9508 H   0  0  0  0  0  0  0  0  0  0  0  0
    1.8997    4.2460    0.3326 H   0  0  0  0  0  0  0  0  0  0  0  0
    5.5892    2.0159    0.6898 H   0  0  0  0  0  0  0  0  0  0  0  0
    5.4648    3.7105    1.1596 H   0  0  0  0  0  0  0  0  0  0  0  0
    4.7227    2.4597    2.1719 H   0  0  0  0  0  0  0  0  0  0  0  0
    4.2615    0.6493   -0.9424 H   0  0  0  0  0  0  0  0  0  0  0  0
   -1.7449   -0.5721    0.8845 H   0  0  0  0  0  0  0  0  0  0  0  0
   -1.9462   -1.0662   -0.7940 H   0  0  0  0  0  0  0  0  0  0  0  0
    6.3711   -3.3084   -0.7798 H   0  0  0  0  0  0  0  0  0  0  0  0
    5.1533   -3.5941   -2.0113 H   0  0  0  0  0  0  0  0  0  0  0  0
    5.4153   -4.8063   -0.7380 H   0  0  0  0  0  0  0  0  0  0  0  0
    2.1816   -3.3039    0.3779 H   0  0  0  0  0  0  0  0  0  0  0  0
    2.9512   -4.6669   -0.3892 H   0  0  0  0  0  0  0  0  0  0  0  0
    2.5678   -3.2212   -1.3389 H   0  0  0  0  0  0  0  0  0  0  0  0
    3.8733   -2.8933    2.0840 H   0  0  0  0  0  0  0  0  0  0  0  0
    4.9354   -4.2027    1.6367 H   0  0  0  0  0  0  0  0  0  0  0  0
    5.5447   -2.5389    1.6590 H   0  0  0  0  0  0  0  0  0  0  0  0
   -6.2556   -0.5843    2.5855 H   0  0  0  0  0  0  0  0  0  0  0  0
   -6.5121   -1.8389   -1.5081 H   0  0  0  0  0  0  0  0  0  0  0  0
   -7.5838   -1.4474    0.6948 H   0  0  0  0  0  0  0  0  0  0  0  0
  1 25  1  0  0  0  0
  2  6  2  0  0  0  0
  2  7  2  0  0  0  0
  2 19  1  0  0  0  0
  2 20  1  0  0  0  0
  3 26  1  0  0  0  0
  4 14  1  0  0  0  0
  4 19  1  0  0  0  0
  5 17  1  0  0  0  0
  5 18  1  0  0  0  0
  8 18  2  0  0  0  0
  9 12  1  0  0  0  0
  9 18  1  0  0  0  0
  9 38  1  0  0  0  0
 10 11  1  0  0  0  0
 10 14  2  0  0  0  0
 11 19  2  0  0  0  0
 12 13  1  0  0  0  0
 12 14  1  0  0  0  0
 12 30  1  0  0  0  0
 13 15  1  0  0  0  0
 13 16  1  0  0  0  0
 13 31  1  0  0  0  0
 15 32  1  0  0  0  0
 15 33  1  0  0  0  0
 15 34  1  0  0  0  0
 16 35  1  0  0  0  0
 16 36  1  0  0  0  0
 16 37  1  0  0  0  0
 17 21  1  0  0  0  0
 17 22  1  0  0  0  0
 17 23  1  0  0  0  0
 20 24  1  0  0  0  0
 20 39  1  0  0  0  0
 20 40  1  0  0  0  0
 21 41  1  0  0  0  0
 21 42  1  0  0  0  0
 21 43  1  0  0  0  0
 22 44  1  0  0  0  0
 22 45  1  0  0  0  0
 22 46  1  0  0  0  0
 23 47  1  0  0  0  0
 23 48  1  0  0  0  0
 23 49  1  0  0  0  0
 24 25  1  0  0  0  0
 24 26  2  0  0  0  0
 25 27  2  0  0  0  0
 26 28  1  0  0  0  0
 27 29  1  0  0  0  0
 27 50  1  0  0  0  0
 28 29  2  0  0  0  0
 28 51  1  0  0  0  0
 29 52  1  0  0  0  0
M  END
> <PUBCHEM_COMPOUND_CID>
663743

> <PUBCHEM_CONFORMER_RMSD>
1.2

> <PUBCHEM_CONFORMER_DIVERSEORDER>
1
110
188
7
155
131
31
127
130
103
192
184
75
24
26
56
147
154
151
71
201
92
193
183
150
179
143
13
97
90
123
136
198
81
63
79
91
51
6
137
171
23
100
165
159
185
202
128
69
145
172
12
195
82
99
162
129
85
187
115
161
19
78
191
112
210
152
153
65
125
196
72
124
8
111
68
208
199
94
14
59
190
21
117
66
39
177
84
139
213
133
212
205
89
160
170
207
168
102
77
46
135
17
74
106
126
38
203
5
209
158
57
157
149
105
148
64
141
93
182
140
173
41
132
181
206
22
61
76
49
43
176
11
96
54
186
134
2
138
200
164
28
20
55
109
50
175
36
180
53
33
121
101
58
4
83
80
119
189
60
144
62
167
163
52
34
16
204
42
118
146
67
211
70
88
45
178
37
156
113
104
47
169
122
18
29
44
107
35
87
9
166
40
114
15
142
95
108
30
174
25
48
116
86
98
10
197
120
194
3
73
27
32

> <PUBCHEM_MMFF94_PARTIAL_CHARGES>
27
1 -0.18
10 -0.34
11 -0.34
12 0.48
14 0.3
17 0.28
18 0.78
19 0.42
2 1.26
20 0.25
24 -0.14
25 0.18
26 0.19
27 -0.15
28 -0.15
29 -0.15
3 -0.19
38 0.37
4 -0.28
5 -0.43
50 0.15
51 0.15
52 0.15
6 -0.65
7 -0.65
8 -0.57
9 -0.73

> <PUBCHEM_EFFECTIVE_ROTOR_COUNT>
9

> <PUBCHEM_PHARMACOPHORE_FEATURES>
8
1 6 acceptor
1 7 acceptor
1 8 acceptor
1 9 donor
3 13 15 16 hydrophobe
4 17 21 22 23 hydrophobe
5 4 10 11 14 19 rings
6 24 25 26 27 28 29 rings

> <PUBCHEM_HEAVY_ATOM_COUNT>
29

> <PUBCHEM_ATOM_DEF_STEREO_COUNT>
1

> <PUBCHEM_ATOM_UDEF_STEREO_COUNT>
0

> <PUBCHEM_BOND_DEF_STEREO_COUNT>
0

> <PUBCHEM_BOND_UDEF_STEREO_COUNT>
0

> <PUBCHEM_ISOTOPIC_ATOM_COUNT>
0

> <PUBCHEM_COMPONENT_COUNT>
1

> <PUBCHEM_CACTVS_TAUTO_COUNT>
2

> <PUBCHEM_CONFORMER_ID>
000A20BF00000001

> <PUBCHEM_MMFF94_ENERGY>
53.8558

> <PUBCHEM_FEATURE_SELFOVERLAP>
40.612

> <PUBCHEM_SHAPE_FINGERPRINT>
10074138 170 14692269773781444589
10319926 262 16200166339309237975
10928967 22 18262522481188120014
10951579 204 17241591850649105941
11059845 2 16841934671808386402
11070050 100 17844510314407848912
114674 6 18259702311572641474
11595378 159 17274829068859302921
12107183 9 18056492646948877545
12422481 6 18201724994810219927
12596602 18 17774448320756797609
12623949 98 18411706482428955742
13533116 47 18411986887979687465
13540713 4 18187910755903362988
1361 87 17749970889636131835
13690498 29 18190185589921510318
13955234 65 18341890857293870600
14863182 85 18189338034266505708
14932701 244 9293558769394271305
14950920 106 17561079185666621683
15142526 21 17339272742190729136
15510800 12 17967816050273020730
17492 89 18341047441179704416
17859628 70 18411698807644020724
18681886 176 15481840154218509024
19319366 153 17986106551050875408
1979834 28 18189335839068744560
19841028 212 18409163351259106931
20511986 3 17917425501539896073
20775530 9 18263079929483009878
22182313 1 17895739773095589453
22224240 67 18196365051845480696
22440779 20 17824563875582561180
23559900 14 18339345375758253556
23569914 152 17615369630120943503
23845131 108 17478037728345344424
239999 70 17604144947429787088
3004659 81 13407615793277020200
3117164 225 18198352758145830153
3178227 256 18338512058584175176
3421961 26 18409730655891647304
345986 75 18131354076740528056
44062 13 18043527205538308181
46194498 28 16950569938263455543
5104073 3 18341610382569916249
5309563 4 18268148652444133422
5486654 36 18194689163694888392
613672 6 17749388225951191113
7288768 16 16694114524964218984
86090 222 17821737160036360570

> <PUBCHEM_SHAPE_MULTIPOLES>
550.96
15.09
4.71
1.82
10.76
0.79
0.32
10.72
3.2
-10.92
0.1
1.83
-0.19
0.76

> <PUBCHEM_SHAPE_SELFOVERLAP>
1128.903

> <PUBCHEM_SHAPE_VOLUME>
323.1

> <PUBCHEM_COORDINATE_TYPE>
2
5
10

$$$$
