4793744
  -OEChem-01171810093D

 34 35  0     0  0  0  0  0  0999 V2000
    1.4806    0.4863   -0.2221 S   0  0  0  0  0  0  0  0  0  0  0  0
   -0.5339   -2.7827   -0.0425 O   0  0  0  0  0  0  0  0  0  0  0  0
    5.2821    1.0468    0.1726 O   0  5  0  0  0  0  0  0  0  0  0  0
    3.6207    2.4307   -0.2066 O   0  0  0  0  0  0  0  0  0  0  0  0
   -1.1778   -0.5864   -0.4119 N   0  0  0  0  0  0  0  0  0  0  0  0
    4.0497    1.2594   -0.0062 N   0  3  0  0  0  0  0  0  0  0  0  0
   -2.5899   -0.8460   -0.5291 C   0  0  0  0  0  0  0  0  0  0  0  0
   -3.3103   -0.8795    0.8209 C   0  0  0  0  0  0  0  0  0  0  0  0
   -3.2676    0.0575   -1.5633 C   0  0  0  0  0  0  0  0  0  0  0  0
   -3.0534    0.2675    1.7961 C   0  0  0  0  0  0  0  0  0  0  0  0
   -3.2599    1.5555   -1.2772 C   0  0  0  0  0  0  0  0  0  0  0  0
   -3.0125    1.6895    1.2457 C   0  0  0  0  0  0  0  0  0  0  0  0
   -3.9073    1.9629    0.0439 C   0  0  0  0  0  0  0  0  0  0  0  0
   -0.2583   -1.5932   -0.1751 C   0  0  0  0  0  0  0  0  0  0  0  0
    1.1572   -1.1584   -0.0540 C   0  0  0  0  0  0  0  0  0  0  0  0
    2.2226   -1.9412    0.1734 C   0  0  0  0  0  0  0  0  0  0  0  0
    3.4089   -1.1534    0.2177 C   0  0  0  0  0  0  0  0  0  0  0  0
    3.1491    0.1846    0.0176 C   0  0  0  0  0  0  0  0  0  0  0  0
   -2.6849   -1.8621   -0.9378 H   0  0  0  0  0  0  0  0  0  0  0  0
   -3.0331   -1.8074    1.3399 H   0  0  0  0  0  0  0  0  0  0  0  0
   -4.3909   -0.9612    0.6451 H   0  0  0  0  0  0  0  0  0  0  0  0
   -4.3084   -0.2683   -1.6905 H   0  0  0  0  0  0  0  0  0  0  0  0
   -2.7825   -0.0983   -2.5362 H   0  0  0  0  0  0  0  0  0  0  0  0
   -2.1092    0.0823    2.3248 H   0  0  0  0  0  0  0  0  0  0  0  0
   -3.8301    0.2181    2.5708 H   0  0  0  0  0  0  0  0  0  0  0  0
   -3.8115    2.0474   -2.0890 H   0  0  0  0  0  0  0  0  0  0  0  0
   -2.2372    1.9468   -1.3341 H   0  0  0  0  0  0  0  0  0  0  0  0
   -1.9763    1.9546    1.0014 H   0  0  0  0  0  0  0  0  0  0  0  0
   -3.3003    2.3679    2.0593 H   0  0  0  0  0  0  0  0  0  0  0  0
   -4.8913    1.4960    0.1651 H   0  0  0  0  0  0  0  0  0  0  0  0
   -4.0814    3.0457    0.0005 H   0  0  0  0  0  0  0  0  0  0  0  0
   -0.8557    0.3756   -0.4540 H   0  0  0  0  0  0  0  0  0  0  0  0
    2.1986   -3.0151    0.3050 H   0  0  0  0  0  0  0  0  0  0  0  0
    4.3979   -1.5605    0.3888 H   0  0  0  0  0  0  0  0  0  0  0  0
  1 15  1  0  0  0  0
  1 18  1  0  0  0  0
  2 14  2  0  0  0  0
  3  6  1  0  0  0  0
  4  6  2  0  0  0  0
  5  7  1  0  0  0  0
  5 14  1  0  0  0  0
  5 32  1  0  0  0  0
  6 18  1  0  0  0  0
  7  8  1  0  0  0  0
  7  9  1  0  0  0  0
  7 19  1  0  0  0  0
  8 10  1  0  0  0  0
  8 20  1  0  0  0  0
  8 21  1  0  0  0  0
  9 11  1  0  0  0  0
  9 22  1  0  0  0  0
  9 23  1  0  0  0  0
 10 12  1  0  0  0  0
 10 24  1  0  0  0  0
 10 25  1  0  0  0  0
 11 13  1  0  0  0  0
 11 26  1  0  0  0  0
 11 27  1  0  0  0  0
 12 13  1  0  0  0  0
 12 28  1  0  0  0  0
 12 29  1  0  0  0  0
 13 30  1  0  0  0  0
 13 31  1  0  0  0  0
 14 15  1  0  0  0  0
 15 16  2  0  0  0  0
 16 17  1  0  0  0  0
 16 33  1  0  0  0  0
 17 18  2  0  0  0  0
 17 34  1  0  0  0  0
M  CHG  2   3  -1   6   1
M  END
> <PUBCHEM_COMPOUND_CID>
4793744

> <PUBCHEM_CONFORMER_RMSD>
0.8

> <PUBCHEM_CONFORMER_DIVERSEORDER>
1
16
7
10
18
4
14
12
21
17
8
9
20
5
2
19
3
13
15
11
6

> <PUBCHEM_MMFF94_PARTIAL_CHARGES>
15
1 -0.08
14 0.71
15 -0.05
16 -0.15
17 -0.15
18 0.12
2 -0.57
3 -0.52
32 0.37
33 0.15
34 0.15
4 -0.52
5 -0.73
6 0.96
7 0.3

> <PUBCHEM_EFFECTIVE_ROTOR_COUNT>
5.4

> <PUBCHEM_PHARMACOPHORE_FEATURES>
7
1 2 acceptor
1 3 acceptor
1 3 anion
1 4 acceptor
1 5 donor
5 1 15 16 17 18 rings
7 7 8 9 10 11 12 13 rings

> <PUBCHEM_HEAVY_ATOM_COUNT>
18

> <PUBCHEM_ATOM_DEF_STEREO_COUNT>
0

> <PUBCHEM_ATOM_UDEF_STEREO_COUNT>
0

> <PUBCHEM_BOND_DEF_STEREO_COUNT>
0

> <PUBCHEM_BOND_UDEF_STEREO_COUNT>
0

> <PUBCHEM_ISOTOPIC_ATOM_COUNT>
0

> <PUBCHEM_COMPONENT_COUNT>
1

> <PUBCHEM_CACTVS_TAUTO_COUNT>
2

> <PUBCHEM_CONFORMER_ID>
0049259000000001

> <PUBCHEM_MMFF94_ENERGY>
32.2419

> <PUBCHEM_FEATURE_SELFOVERLAP>
35.602

> <PUBCHEM_SHAPE_FINGERPRINT>
10498660 4 18341892969948229373
11046707 91 11025793206457872658
11543360 7 15410608229135359992
11640471 11 17773314531079330683
12788726 201 18055893627496828391
13583140 156 17167852097634622792
14123255 52 18411138047812677458
14123260 362 17917713487275369465
14289901 80 16515694341924901946
15239191 94 8069734213449765989
15342168 16 18411991234639838037
1741750 31 18341331179899676590
17834072 32 18340772537698233025
18186145 218 18342183232601990678
18219364 16 18262520286770145725
18927931 339 8934735413138268440
20449540 30 18342735217867642231
20510252 161 18339079410230137179
21095088 737 18200018668406131805
21713013 43 12967119515282478541
21864079 5 18270968942328187529
22182937 141 18338521940211373706
22749437 52 18411132554328252160
23402539 116 16343709833210339752
23503958 25 18114477681382069788
23559900 14 18201154357139878806
27216 239 18260552221217889697
2838139 119 17756974624666562637
3268164 11 16415471658267026337
474 4 18340765919132374875
4921388 177 14333123087918578517
5104073 3 18260824882673887202
5262128 65 14691984978584205467
602551 16 15574727893138628144
633830 44 18130232536241490151

> <PUBCHEM_SHAPE_MULTIPOLES>
346.71
9.26
2.48
1.2
5.54
0.01
0.12
5.39
0.45
0.74
-0.01
-1.77
0.22
-0.13

> <PUBCHEM_SHAPE_SELFOVERLAP>
704.735

> <PUBCHEM_SHAPE_VOLUME>
200.8

> <PUBCHEM_COORDINATE_TYPE>
2
5
10

$$$$
