9638721
  -OEChem-01171809413D

 43 45  0     0  0  0  0  0  0999 V2000
    8.7666    0.5450    2.0170 Cl  0  0  0  0  0  0  0  0  0  0  0  0
    3.8066    0.2714    0.4706 O   0  0  0  0  0  0  0  0  0  0  0  0
    3.8969   -0.3565   -1.7725 O   0  0  0  0  0  0  0  0  0  0  0  0
   -9.5742   -0.8156    0.0257 O   0  0  0  0  0  0  0  0  0  0  0  0
   -8.4867   -2.7219    0.6173 O   0  0  0  0  0  0  0  0  0  0  0  0
   -3.7421    1.5481   -0.3072 N   0  0  0  0  0  0  0  0  0  0  0  0
   -2.5301    1.0021   -0.0880 N   0  0  0  0  0  0  0  0  0  0  0  0
   -0.1456    1.4175   -0.0724 C   0  0  0  0  0  0  0  0  0  0  0  0
    2.5108    0.6470    0.2913 C   0  0  0  0  0  0  0  0  0  0  0  0
   -4.9099    0.7838   -0.1580 C   0  0  0  0  0  0  0  0  0  0  0  0
    0.8816    2.3395   -0.2729 C   0  0  0  0  0  0  0  0  0  0  0  0
    0.1553    0.1103    0.3101 C   0  0  0  0  0  0  0  0  0  0  0  0
    2.2099    1.9542   -0.0912 C   0  0  0  0  0  0  0  0  0  0  0  0
    1.4836   -0.2749    0.4920 C   0  0  0  0  0  0  0  0  0  0  0  0
    5.8315   -0.6165   -0.4036 C   0  0  0  0  0  0  0  0  0  0  0  0
   -7.2367   -0.7394    0.1362 C   0  0  0  0  0  0  0  0  0  0  0  0
   -4.8291   -0.5594    0.2221 C   0  0  0  0  0  0  0  0  0  0  0  0
   -6.1627    1.3598   -0.3899 C   0  0  0  0  0  0  0  0  0  0  0  0
   -5.9896   -1.3192    0.3688 C   0  0  0  0  0  0  0  0  0  0  0  0
   -7.3233    0.6001   -0.2431 C   0  0  0  0  0  0  0  0  0  0  0  0
   -1.5304    1.8202   -0.2614 C   0  0  0  0  0  0  0  0  0  0  0  0
    4.4245   -0.2295   -0.6778 C   0  0  0  0  0  0  0  0  0  0  0  0
    6.5375    0.0719    0.5614 C   0  0  0  0  0  0  0  0  0  0  0  0
    6.3887   -1.6543   -1.1225 C   0  0  0  0  0  0  0  0  0  0  0  0
    7.8588   -0.2934    0.8190 C   0  0  0  0  0  0  0  0  0  0  0  0
    7.7100   -2.0195   -0.8650 C   0  0  0  0  0  0  0  0  0  0  0  0
    8.4450   -1.3391    0.1059 C   0  0  0  0  0  0  0  0  0  0  0  0
   -8.4468   -1.5319    0.2880 C   0  0  0  0  0  0  0  0  0  0  0  0
    0.6632    3.3618   -0.5707 H   0  0  0  0  0  0  0  0  0  0  0  0
   -0.6241   -0.6292    0.4738 H   0  0  0  0  0  0  0  0  0  0  0  0
    3.0055    2.6775   -0.2481 H   0  0  0  0  0  0  0  0  0  0  0  0
    1.7113   -1.2945    0.7910 H   0  0  0  0  0  0  0  0  0  0  0  0
   -3.8747   -1.0441    0.4112 H   0  0  0  0  0  0  0  0  0  0  0  0
   -6.2443    2.4027   -0.6864 H   0  0  0  0  0  0  0  0  0  0  0  0
   -5.9011   -2.3613    0.6648 H   0  0  0  0  0  0  0  0  0  0  0  0
   -8.2733    1.0912   -0.4344 H   0  0  0  0  0  0  0  0  0  0  0  0
   -1.7059    2.8696   -0.5643 H   0  0  0  0  0  0  0  0  0  0  0  0
   -3.8356    2.5194   -0.5822 H   0  0  0  0  0  0  0  0  0  0  0  0
    6.0942    0.8966    1.1131 H   0  0  0  0  0  0  0  0  0  0  0  0
    5.8255   -2.1939   -1.8780 H   0  0  0  0  0  0  0  0  0  0  0  0
    8.1662   -2.8344   -1.4195 H   0  0  0  0  0  0  0  0  0  0  0  0
    9.4735   -1.6349    0.2962 H   0  0  0  0  0  0  0  0  0  0  0  0
  -10.3844   -1.3586    0.1313 H   0  0  0  0  0  0  0  0  0  0  0  0
  1 25  1  0  0  0  0
  2  9  1  0  0  0  0
  2 22  1  0  0  0  0
  3 22  2  0  0  0  0
  4 28  1  0  0  0  0
  4 43  1  0  0  0  0
  5 28  2  0  0  0  0
  6  7  1  0  0  0  0
  6 10  1  0  0  0  0
  6 38  1  0  0  0  0
  7 21  2  0  0  0  0
  8 11  2  0  0  0  0
  8 12  1  0  0  0  0
  8 21  1  0  0  0  0
  9 13  2  0  0  0  0
  9 14  1  0  0  0  0
 10 17  2  0  0  0  0
 10 18  1  0  0  0  0
 11 13  1  0  0  0  0
 11 29  1  0  0  0  0
 12 14  2  0  0  0  0
 12 30  1  0  0  0  0
 13 31  1  0  0  0  0
 14 32  1  0  0  0  0
 15 22  1  0  0  0  0
 15 23  2  0  0  0  0
 15 24  1  0  0  0  0
 16 19  2  0  0  0  0
 16 20  1  0  0  0  0
 16 28  1  0  0  0  0
 17 19  1  0  0  0  0
 17 33  1  0  0  0  0
 18 20  2  0  0  0  0
 18 34  1  0  0  0  0
 19 35  1  0  0  0  0
 20 36  1  0  0  0  0
 21 37  1  0  0  0  0
 23 25  1  0  0  0  0
 23 39  1  0  0  0  0
 24 26  2  0  0  0  0
 24 40  1  0  0  0  0
 25 27  2  0  0  0  0
 26 27  1  0  0  0  0
 26 41  1  0  0  0  0
 27 42  1  0  0  0  0
M  END
> <PUBCHEM_COMPOUND_CID>
9638721

> <PUBCHEM_CONFORMER_RMSD>
0.8

> <PUBCHEM_CONFORMER_DIVERSEORDER>
1
146
161
177
74
124
123
157
129
42
94
113
155
13
142
106
39
76
180
137
26
171
86
118
159
18
169
121
144
16
103
115
111
75
147
101
61
88
107
92
10
165
128
19
173
145
69
130
136
22
5
95
59
100
131
133
109
68
132
8
154
168
148
158
83
143
62
127
49
151
87
38
172
134
179
93
108
28
17
105
11
122
163
23
149
140
110
30
178
84
97
77
48
135
40
119
162
79
52
67
164
21
174
36
166
24
55
98
73
150
170
56
138
72
71
167
35
57
141
125
15
45
32
4
37
46
31
33
50
80
175
66
90
139
89
20
104
112
114
82
152
41
47
116
176
12
51
78
44
64
156
53
91
117
43
54
63
58
70
85
120
29
81
3
96
126
99
102
65
34
14
2
60
27
9
25
6
153
160
7
181

> <PUBCHEM_MMFF94_PARTIAL_CHARGES>
43
1 -0.18
10 0.1
11 -0.15
12 -0.15
13 -0.15
14 -0.15
15 0.09
16 0.09
17 -0.15
18 -0.15
19 -0.15
2 -0.23
20 -0.15
21 0.3
22 0.63
23 -0.15
24 -0.15
25 0.18
26 -0.15
27 -0.15
28 0.63
29 0.15
3 -0.57
30 0.15
31 0.15
32 0.15
33 0.15
34 0.15
35 0.15
36 0.15
37 0.06
38 0.4
39 0.15
4 -0.65
40 0.15
41 0.15
42 0.15
43 0.5
5 -0.57
6 -0.46
7 -0.49
8 0.09
9 0.08

> <PUBCHEM_EFFECTIVE_ROTOR_COUNT>
7

> <PUBCHEM_PHARMACOPHORE_FEATURES>
9
1 3 acceptor
1 4 acceptor
1 5 acceptor
1 6 donor
1 7 acceptor
3 4 5 28 anion
6 10 16 17 18 19 20 rings
6 15 23 24 25 26 27 rings
6 8 9 11 12 13 14 rings

> <PUBCHEM_HEAVY_ATOM_COUNT>
28

> <PUBCHEM_ATOM_DEF_STEREO_COUNT>
0

> <PUBCHEM_ATOM_UDEF_STEREO_COUNT>
0

> <PUBCHEM_BOND_DEF_STEREO_COUNT>
1

> <PUBCHEM_BOND_UDEF_STEREO_COUNT>
0

> <PUBCHEM_ISOTOPIC_ATOM_COUNT>
0

> <PUBCHEM_COMPONENT_COUNT>
1

> <PUBCHEM_CACTVS_TAUTO_COUNT>
2

> <PUBCHEM_CONFORMER_ID>
0093134100000001

> <PUBCHEM_MMFF94_ENERGY>
95.0206

> <PUBCHEM_FEATURE_SELFOVERLAP>
45.73

> <PUBCHEM_SHAPE_FINGERPRINT>
10 15 12031792457250539813
10299344 5 17749108881262038651
106641 1 18060134354267115880
10674148 151 18335138688216782921
11135609 99 18339363067160569031
11409948 41 15141225591751125512
11409948 8 18270953648899297408
11607047 74 18263934396928213924
11963148 33 18335133168171678179
13150687 139 12757147957180024944
13530399 1 12463276043318227626
13668630 136 18409167697200728397
13673619 4 18334576854459271741
13685833 64 18272652329322522604
13692114 37 18040149614068351818
13885169 127 18341613668631353817
14068700 675 17894916213201601589
14178184 131 18130505344750372511
14202775 3 18341053996455891558
14251764 18 13254791330620944909
14344974 52 11025805310598820569
15183329 4 15719395027335280160
15419008 91 18265594564126748268
15510794 2 18272084990202584229
155225 1 9655581808241153507
1754911 235 11458423548708409723
1818759 1 18408046217068531979
18335252 114 13840268091811031614
18335252 98 18272932709694203622
18643901 69 18040999540766459141
19315958 150 16630529531590827382
2026 5 18410294670739391775
20721686 124 12252177455906267304
21095123 293 13183021834621104858
21102433 48 17676760982718618842
21130935 74 18199470961808569826
21267235 1 18409450289169791653
21585482 111 10159435201728806603
22002106 203 18199178667899515687
23569917 315 18339649928407031718
23569943 247 17761499085076748586
23576562 1 12469222227864989179
249057 3 15430044270446701920
2851757 41 18410302423598498543
3004659 81 18040432222662908113
3178227 256 17274822463040943006
3383291 50 18408887351579514035
3711267 37 9727349177367877183
44802255 64 12324240582109407385
54039377 194 18411421708769467223
5719381 82 18187367645105092507
57359948 33 9223223084655921498
5758199 1 12031788058734991773
58902169 19 15719400559016261510
59682541 35 18060415824574065866
636775 72 9727364520151549379
636775 8 18411427185090308894
6438161 24 18334576853846731333
9689198 14 8862936182757518644
9937071 3 18412549816838593731
9962374 69 18130497647883329133

> <PUBCHEM_SHAPE_MULTIPOLES>
544.66
33.9
2.14
1.05
17.47
0.12
0.1
20.79
5.8
1.63
-0.19
-2.37
0.1
2.56

> <PUBCHEM_SHAPE_SELFOVERLAP>
1177.52

> <PUBCHEM_SHAPE_VOLUME>
296.8

> <PUBCHEM_COORDINATE_TYPE>
2
5
10

$$$$
