15945552
  -OEChem-01171809393D

 62 66  0     1  0  0  0  0  0999 V2000
    7.3126    1.0127    1.3563 Cl  0  0  0  0  0  0  0  0  0  0  0  0
    0.1870   -3.4643   -1.9304 O   0  0  0  0  0  0  0  0  0  0  0  0
    2.4733   -2.7436   -0.3291 O   0  0  0  0  0  0  0  0  0  0  0  0
   -4.8219    0.1375    2.3063 O   0  0  0  0  0  0  0  0  0  0  0  0
   -0.4856    1.7905   -0.1175 N   0  0  0  0  0  0  0  0  0  0  0  0
   -3.4822   -0.8059    0.6611 N   0  0  0  0  0  0  0  0  0  0  0  0
   -1.2132    1.7996   -2.4038 N   0  0  0  0  0  0  0  0  0  0  0  0
    0.6677    1.6883    0.6041 N   0  0  0  0  0  0  0  0  0  0  0  0
   -2.8219    2.0412   -0.4981 C   0  0  0  0  0  0  0  0  0  0  0  0
   -4.2696    2.2452   -0.1691 C   0  0  0  0  0  0  0  0  0  0  0  0
   -1.7952    1.9478    0.3758 C   0  0  0  0  0  0  0  0  0  0  0  0
   -2.7774   -1.7321    1.5167 C   0  0  2  0  0  0  0  0  0  0  0  0
   -5.0203    0.9318    0.0247 C   0  0  0  0  0  0  0  0  0  0  0  0
   -2.4252    1.9421   -1.9565 C   0  0  0  0  0  0  0  0  0  0  0  0
   -1.3935   -1.9992    1.0062 C   0  0  0  0  0  0  0  0  0  0  0  0
   -0.2213    1.7243   -1.4824 C   0  0  0  0  0  0  0  0  0  0  0  0
   -4.4564    0.0602    1.1366 C   0  0  0  0  0  0  0  0  0  0  0  0
   -1.9366    1.9936    1.8749 C   0  0  0  0  0  0  0  0  0  0  0  0
   -3.5878   -3.0128    1.7053 C   0  0  0  0  0  0  0  0  0  0  0  0
    1.1401    1.5772   -1.6172 C   0  0  0  0  0  0  0  0  0  0  0  0
    1.6298    1.5621   -0.3074 C   0  0  0  0  0  0  0  0  0  0  0  0
   -1.2143   -2.6254   -0.2274 C   0  0  0  0  0  0  0  0  0  0  0  0
    0.0751   -2.8649   -0.7030 C   0  0  0  0  0  0  0  0  0  0  0  0
   -0.2864   -1.6158    1.7639 C   0  0  0  0  0  0  0  0  0  0  0  0
   -3.5207    2.0174   -2.9993 C   0  0  0  0  0  0  0  0  0  0  0  0
    1.1834   -2.5056    0.0680 C   0  0  0  0  0  0  0  0  0  0  0  0
    1.0034   -1.8673    1.2954 C   0  0  0  0  0  0  0  0  0  0  0  0
    3.0049    1.4280    0.0958 C   0  0  0  0  0  0  0  0  0  0  0  0
    1.5090   -3.3460   -2.4632 C   0  0  0  0  0  0  0  0  0  0  0  0
    2.5357   -3.6882   -1.4011 C   0  0  0  0  0  0  0  0  0  0  0  0
    3.8936    0.7046   -0.6968 C   0  0  0  0  0  0  0  0  0  0  0  0
    3.4433    2.0238    1.2765 C   0  0  0  0  0  0  0  0  0  0  0  0
    5.2266    0.5763   -0.3068 C   0  0  0  0  0  0  0  0  0  0  0  0
    4.7763    1.8954    1.6666 C   0  0  0  0  0  0  0  0  0  0  0  0
    5.6680    1.1716    0.8750 C   0  0  0  0  0  0  0  0  0  0  0  0
   -4.7751    2.8512   -0.9274 H   0  0  0  0  0  0  0  0  0  0  0  0
   -4.3595    2.8432    0.7457 H   0  0  0  0  0  0  0  0  0  0  0  0
   -2.7051   -1.2618    2.5062 H   0  0  0  0  0  0  0  0  0  0  0  0
   -5.0540    0.3534   -0.9054 H   0  0  0  0  0  0  0  0  0  0  0  0
   -6.0646    1.1477    0.2823 H   0  0  0  0  0  0  0  0  0  0  0  0
   -3.2807   -0.8191   -0.3349 H   0  0  0  0  0  0  0  0  0  0  0  0
   -2.9582    2.1701    2.2156 H   0  0  0  0  0  0  0  0  0  0  0  0
   -1.3302    2.8102    2.2834 H   0  0  0  0  0  0  0  0  0  0  0  0
   -1.5947    1.0594    2.3279 H   0  0  0  0  0  0  0  0  0  0  0  0
   -3.7968   -3.5112    0.7521 H   0  0  0  0  0  0  0  0  0  0  0  0
   -4.5557   -2.7958    2.1713 H   0  0  0  0  0  0  0  0  0  0  0  0
   -3.0577   -3.7241    2.3483 H   0  0  0  0  0  0  0  0  0  0  0  0
    1.6794    1.4985   -2.5508 H   0  0  0  0  0  0  0  0  0  0  0  0
   -2.0690   -2.9169   -0.8327 H   0  0  0  0  0  0  0  0  0  0  0  0
   -0.4101   -1.1261    2.7260 H   0  0  0  0  0  0  0  0  0  0  0  0
   -3.1057    1.8197   -3.9932 H   0  0  0  0  0  0  0  0  0  0  0  0
   -4.2939    1.2714   -2.8094 H   0  0  0  0  0  0  0  0  0  0  0  0
   -3.9550    3.0206   -3.0103 H   0  0  0  0  0  0  0  0  0  0  0  0
    1.8600   -1.5723    1.8953 H   0  0  0  0  0  0  0  0  0  0  0  0
    1.5906   -4.0369   -3.3080 H   0  0  0  0  0  0  0  0  0  0  0  0
    1.6440   -2.3248   -2.8409 H   0  0  0  0  0  0  0  0  0  0  0  0
    3.5453   -3.6474   -1.8216 H   0  0  0  0  0  0  0  0  0  0  0  0
    2.3749   -4.6935   -0.9922 H   0  0  0  0  0  0  0  0  0  0  0  0
    3.5769    0.2190   -1.6163 H   0  0  0  0  0  0  0  0  0  0  0  0
    2.7740    2.6009    1.9099 H   0  0  0  0  0  0  0  0  0  0  0  0
    5.9097    0.0068   -0.9319 H   0  0  0  0  0  0  0  0  0  0  0  0
    5.1069    2.3661    2.5890 H   0  0  0  0  0  0  0  0  0  0  0  0
  1 35  1  0  0  0  0
  2 23  1  0  0  0  0
  2 29  1  0  0  0  0
  3 26  1  0  0  0  0
  3 30  1  0  0  0  0
  4 17  2  0  0  0  0
  5  8  1  0  0  0  0
  5 11  1  0  0  0  0
  5 16  1  0  0  0  0
  6 12  1  0  0  0  0
  6 17  1  0  0  0  0
  6 41  1  0  0  0  0
  7 14  2  0  0  0  0
  7 16  1  0  0  0  0
  8 21  2  0  0  0  0
  9 10  1  0  0  0  0
  9 11  2  0  0  0  0
  9 14  1  0  0  0  0
 10 13  1  0  0  0  0
 10 36  1  0  0  0  0
 10 37  1  0  0  0  0
 11 18  1  0  0  0  0
 12 15  1  0  0  0  0
 12 19  1  0  0  0  0
 12 38  1  0  0  0  0
 13 17  1  0  0  0  0
 13 39  1  0  0  0  0
 13 40  1  0  0  0  0
 14 25  1  0  0  0  0
 15 22  2  0  0  0  0
 15 24  1  0  0  0  0
 16 20  2  0  0  0  0
 18 42  1  0  0  0  0
 18 43  1  0  0  0  0
 18 44  1  0  0  0  0
 19 45  1  0  0  0  0
 19 46  1  0  0  0  0
 19 47  1  0  0  0  0
 20 21  1  0  0  0  0
 20 48  1  0  0  0  0
 21 28  1  0  0  0  0
 22 23  1  0  0  0  0
 22 49  1  0  0  0  0
 23 26  2  0  0  0  0
 24 27  2  0  0  0  0
 24 50  1  0  0  0  0
 25 51  1  0  0  0  0
 25 52  1  0  0  0  0
 25 53  1  0  0  0  0
 26 27  1  0  0  0  0
 27 54  1  0  0  0  0
 28 31  2  0  0  0  0
 28 32  1  0  0  0  0
 29 30  1  0  0  0  0
 29 55  1  0  0  0  0
 29 56  1  0  0  0  0
 30 57  1  0  0  0  0
 30 58  1  0  0  0  0
 31 33  1  0  0  0  0
 31 59  1  0  0  0  0
 32 34  2  0  0  0  0
 32 60  1  0  0  0  0
 33 35  2  0  0  0  0
 33 61  1  0  0  0  0
 34 35  1  0  0  0  0
 34 62  1  0  0  0  0
M  END
> <PUBCHEM_COMPOUND_CID>
15945552

> <PUBCHEM_CONFORMER_RMSD>
1

> <PUBCHEM_CONFORMER_DIVERSEORDER>
1
33
77
74
171
83
10
163
167
21
107
130
71
160
158
117
43
15
37
124
185
11
116
75
146
183
44
91
106
23
138
4
121
153
51
42
20
34
177
102
28
80
3
129
24
179
36
88
46
156
16
94
52
27
155
103
131
63
53
104
159
65
70
82
22
45
188
85
19
84
198
5
97
175
2
187
109
113
79
68
145
25
149
181
98
38
133
162
142
87
195
143
6
17
194
123
50
184
166
64
182
78
58
9
67
125
32
35
30
134
14
56
60
66
59
7
101
137
76
170
40
49
108
191
192
18
29
154
128
152
41
72
165
178
173
189
126
61
100
112
57
48
118
54
12
8
136
73
186
90
151
93
89
96
122
39
174
148
81
197
115
26
176
157
190
132
120
95
110
144
114
86
119
55
47
147
141
111
105
140
31
127
135
99
164
150
172
92
13
168
193
169
139
69
62
196
161
180

> <PUBCHEM_MMFF94_PARTIAL_CHARGES>
43
1 -0.18
10 0.14
11 -0.17
12 0.44
13 0.06
14 0.37
15 -0.14
16 -0.03
17 0.57
18 0.14
2 -0.36
20 -0.15
21 0.23
22 -0.15
23 0.08
24 -0.15
25 0.06
26 0.08
27 -0.15
28 0.05
29 0.28
3 -0.36
30 0.28
31 -0.15
32 -0.15
33 -0.15
34 -0.15
35 0.18
4 -0.57
41 0.37
48 0.15
49 0.15
5 0.6
50 0.15
54 0.15
59 0.15
6 -0.73
60 0.15
61 0.15
62 0.15
7 -0.58
8 -0.71
9 -0.12

> <PUBCHEM_EFFECTIVE_ROTOR_COUNT>
7.8

> <PUBCHEM_PHARMACOPHORE_FEATURES>
11
1 2 acceptor
1 3 acceptor
1 4 acceptor
1 6 donor
1 7 acceptor
1 8 acceptor
5 5 8 16 20 21 rings
6 15 22 23 24 26 27 rings
6 2 3 23 26 29 30 rings
6 28 31 32 33 34 35 rings
6 5 7 9 11 14 16 rings

> <PUBCHEM_HEAVY_ATOM_COUNT>
35

> <PUBCHEM_ATOM_DEF_STEREO_COUNT>
0

> <PUBCHEM_ATOM_UDEF_STEREO_COUNT>
1

> <PUBCHEM_BOND_DEF_STEREO_COUNT>
0

> <PUBCHEM_BOND_UDEF_STEREO_COUNT>
0

> <PUBCHEM_ISOTOPIC_ATOM_COUNT>
0

> <PUBCHEM_COMPONENT_COUNT>
1

> <PUBCHEM_CACTVS_TAUTO_COUNT>
2

> <PUBCHEM_CONFORMER_ID>
00F34F5000000001

> <PUBCHEM_MMFF94_ENERGY>
89.4395

> <PUBCHEM_FEATURE_SELFOVERLAP>
55.993

> <PUBCHEM_SHAPE_FINGERPRINT>
10675989 125 16815988315181800653
11112241 14 17989198282826027256
11488393 25 18196376918539224730
11513181 2 18272937094360779375
11524674 6 18272644671427372004
11607047 141 17199144070624751763
12156800 1 17095529443842883486
12422481 6 18335420175418810906
12522641 33 17824521029938324157
12597179 24 18262507105114763356
13149001 5 18048045064272867975
13383668 90 14855531625663083498
13402501 40 18335711494275914790
13642711 20 17561360711982278840
14040221 304 14928117066986924871
144659 39 18189598502473372850
14747281 78 16960109009104816004
15276724 80 17897161549701156108
15781502 13 15692601166123047134
17913733 40 18273213080046973160
17980427 23 13984948351032128036
20775438 99 18119501307788342679
20905425 154 18262816158620066683
22182313 1 18114748118646322357
238918 7 18410580608191897386
4093350 32 18129381502158334673
4112364 45 17128205762080604945
469060 322 17531800380587555448
5080951 261 17974814494146471808
508706 21 18113902654170658983
5265222 85 18194417804104878772
59755656 215 18335707117435143296
6287921 2 17628900245238255398
6669772 16 18042955489609746994
9862522 239 18336817692930328858

> <PUBCHEM_SHAPE_MULTIPOLES>
684.62
10.94
4.7
2.46
12.02
4.46
0.96
-6.55
-5.19
-0.48
1.78
-1.33
0.14
3.44

> <PUBCHEM_SHAPE_SELFOVERLAP>
1488.898

> <PUBCHEM_SHAPE_VOLUME>
372.7

> <PUBCHEM_COORDINATE_TYPE>
2
5
10

$$$$
