979677
  -OEChem-01171809263D

 44 46  0     0  0  0  0  0  0999 V2000
    4.2691    2.8525    1.1124 Br  0  0  0  0  0  0  0  0  0  0  0  0
   -5.0746    0.5893   -1.6560 O   0  0  0  0  0  0  0  0  0  0  0  0
   -6.4448   -0.3497    0.7001 O   0  0  0  0  0  0  0  0  0  0  0  0
    5.4270    0.0772    0.3174 O   0  0  0  0  0  0  0  0  0  0  0  0
    4.0723   -2.0909   -0.7054 O   0  0  0  0  0  0  0  0  0  0  0  0
   -0.8857   -0.0508    0.5746 N   0  0  0  0  0  0  0  0  0  0  0  0
   -0.1404    0.3673   -0.5719 C   0  0  0  0  0  0  0  0  0  0  0  0
   -2.2954   -0.1036    0.5943 C   0  0  0  0  0  0  0  0  0  0  0  0
    1.3443    0.2956   -0.3325 C   0  0  0  0  0  0  0  0  0  0  0  0
   -4.4160    0.2025   -0.5183 C   0  0  0  0  0  0  0  0  0  0  0  0
   -5.0805   -0.2419    0.6273 C   0  0  0  0  0  0  0  0  0  0  0  0
   -3.0221    0.2576   -0.5405 C   0  0  0  0  0  0  0  0  0  0  0  0
   -6.4646    0.8235   -1.4142 C   0  0  0  0  0  0  0  0  0  0  0  0
   -7.0528   -0.3081   -0.5939 C   0  0  0  0  0  0  0  0  0  0  0  0
   -2.9603   -0.5214    1.7475 C   0  0  0  0  0  0  0  0  0  0  0  0
   -4.3535   -0.5897    1.7662 C   0  0  0  0  0  0  0  0  0  0  0  0
    2.0282   -0.8741   -0.6318 C   0  0  0  0  0  0  0  0  0  0  0  0
    2.0079    1.3999    0.1836 C   0  0  0  0  0  0  0  0  0  0  0  0
    3.4039   -0.9412   -0.4104 C   0  0  0  0  0  0  0  0  0  0  0  0
    4.0815    0.1623    0.1081 C   0  0  0  0  0  0  0  0  0  0  0  0
    3.3835    1.3329    0.4051 C   0  0  0  0  0  0  0  0  0  0  0  0
    6.2745    0.4614   -0.7621 C   0  0  0  0  0  0  0  0  0  0  0  0
    7.7185    0.3122   -0.3327 C   0  0  0  0  0  0  0  0  0  0  0  0
    4.1801   -3.0627    0.3331 C   0  0  0  0  0  0  0  0  0  0  0  0
   -0.4009    1.3974   -0.8489 H   0  0  0  0  0  0  0  0  0  0  0  0
   -0.3797   -0.2593   -1.4413 H   0  0  0  0  0  0  0  0  0  0  0  0
   -0.4001   -0.3135    1.4255 H   0  0  0  0  0  0  0  0  0  0  0  0
   -2.5380    0.5954   -1.4523 H   0  0  0  0  0  0  0  0  0  0  0  0
   -6.9650    0.8889   -2.3853 H   0  0  0  0  0  0  0  0  0  0  0  0
   -6.5740    1.7900   -0.9067 H   0  0  0  0  0  0  0  0  0  0  0  0
   -8.1273   -0.1561   -0.4519 H   0  0  0  0  0  0  0  0  0  0  0  0
   -6.9057   -1.2797   -1.0815 H   0  0  0  0  0  0  0  0  0  0  0  0
   -2.4033   -0.8027    2.6377 H   0  0  0  0  0  0  0  0  0  0  0  0
   -4.8630   -0.9249    2.6655 H   0  0  0  0  0  0  0  0  0  0  0  0
    1.5032   -1.7365   -1.0345 H   0  0  0  0  0  0  0  0  0  0  0  0
    1.4565    2.3081    0.4148 H   0  0  0  0  0  0  0  0  0  0  0  0
    6.0829   -0.1819   -1.6288 H   0  0  0  0  0  0  0  0  0  0  0  0
    6.0805    1.5001   -1.0509 H   0  0  0  0  0  0  0  0  0  0  0  0
    8.3982    0.5933   -1.1418 H   0  0  0  0  0  0  0  0  0  0  0  0
    7.9277    0.9408    0.5392 H   0  0  0  0  0  0  0  0  0  0  0  0
    7.9281   -0.7213   -0.0377 H   0  0  0  0  0  0  0  0  0  0  0  0
    4.7437   -3.9161   -0.0536 H   0  0  0  0  0  0  0  0  0  0  0  0
    3.1876   -3.4081    0.6394 H   0  0  0  0  0  0  0  0  0  0  0  0
    4.7167   -2.6498    1.1932 H   0  0  0  0  0  0  0  0  0  0  0  0
  1 21  1  0  0  0  0
  2 10  1  0  0  0  0
  2 13  1  0  0  0  0
  3 11  1  0  0  0  0
  3 14  1  0  0  0  0
  4 20  1  0  0  0  0
  4 22  1  0  0  0  0
  5 19  1  0  0  0  0
  5 24  1  0  0  0  0
  6  7  1  0  0  0  0
  6  8  1  0  0  0  0
  6 27  1  0  0  0  0
  7  9  1  0  0  0  0
  7 25  1  0  0  0  0
  7 26  1  0  0  0  0
  8 12  2  0  0  0  0
  8 15  1  0  0  0  0
  9 17  2  0  0  0  0
  9 18  1  0  0  0  0
 10 11  2  0  0  0  0
 10 12  1  0  0  0  0
 11 16  1  0  0  0  0
 12 28  1  0  0  0  0
 13 14  1  0  0  0  0
 13 29  1  0  0  0  0
 13 30  1  0  0  0  0
 14 31  1  0  0  0  0
 14 32  1  0  0  0  0
 15 16  2  0  0  0  0
 15 33  1  0  0  0  0
 16 34  1  0  0  0  0
 17 19  1  0  0  0  0
 17 35  1  0  0  0  0
 18 21  2  0  0  0  0
 18 36  1  0  0  0  0
 19 20  2  0  0  0  0
 20 21  1  0  0  0  0
 22 23  1  0  0  0  0
 22 37  1  0  0  0  0
 22 38  1  0  0  0  0
 23 39  1  0  0  0  0
 23 40  1  0  0  0  0
 23 41  1  0  0  0  0
 24 42  1  0  0  0  0
 24 43  1  0  0  0  0
 24 44  1  0  0  0  0
M  END
> <PUBCHEM_COMPOUND_CID>
979677

> <PUBCHEM_CONFORMER_RMSD>
0.8

> <PUBCHEM_CONFORMER_DIVERSEORDER>
1
27
78
137
72
122
93
63
61
109
56
82
47
135
94
84
4
85
107
68
74
43
100
40
54
33
134
73
36
79
146
75
34
97
62
88
18
132
9
128
153
70
32
81
13
46
118
113
2
5
140
80
7
104
50
91
3
101
35
51
42
138
89
149
23
37
17
52
87
98
116
148
11
25
111
60
14
126
29
58
142
30
15
38
49
59
20
124
55
26
95
117
139
8
77
92
6
147
45
10
130
90
152
120
141
131
48
112
39
65
76
16
119
143
114
96
28
12
103
110
22
67
24
69
31
86
44
102
125
99
83
105
145
108
151
41
127
150
123
136
66
121
129
115
19
106
64
53
133
71
144
21
57

> <PUBCHEM_MMFF94_PARTIAL_CHARGES>
29
1 -0.11
10 0.08
11 0.08
12 -0.15
13 0.28
14 0.28
15 -0.15
16 -0.15
17 -0.15
18 -0.15
19 0.08
2 -0.36
20 0.08
21 0.11
22 0.28
24 0.28
27 0.4
28 0.15
3 -0.36
33 0.15
34 0.15
35 0.15
36 0.15
4 -0.36
5 -0.36
6 -0.87
7 0.51
8 0.1
9 -0.14

> <PUBCHEM_EFFECTIVE_ROTOR_COUNT>
6.8

> <PUBCHEM_PHARMACOPHORE_FEATURES>
10
1 1 hydrophobe
1 2 acceptor
1 3 acceptor
1 4 acceptor
1 5 acceptor
1 6 cation
1 6 donor
6 2 3 10 11 13 14 rings
6 8 10 11 12 15 16 rings
6 9 17 18 19 20 21 rings

> <PUBCHEM_HEAVY_ATOM_COUNT>
24

> <PUBCHEM_ATOM_DEF_STEREO_COUNT>
0

> <PUBCHEM_ATOM_UDEF_STEREO_COUNT>
0

> <PUBCHEM_BOND_DEF_STEREO_COUNT>
0

> <PUBCHEM_BOND_UDEF_STEREO_COUNT>
0

> <PUBCHEM_ISOTOPIC_ATOM_COUNT>
0

> <PUBCHEM_COMPONENT_COUNT>
1

> <PUBCHEM_CACTVS_TAUTO_COUNT>
1

> <PUBCHEM_CONFORMER_ID>
000EF2DD00000001

> <PUBCHEM_MMFF94_ENERGY>
95.545

> <PUBCHEM_FEATURE_SELFOVERLAP>
50.793

> <PUBCHEM_SHAPE_FINGERPRINT>
10673678 19 17678757824256144444
10912923 1 17203613692201223923
11059845 2 14688099106886895082
11089746 13 17418096542102107032
11315181 36 18040441005644142585
11719270 70 18260545607316985394
11796584 16 17240768384621333458
12166972 35 15626224628369362130
12236239 1 16774079578894850740
12616971 3 17632581531086120219
12730499 353 18409167731955969146
13533116 47 18341049631671184346
13668630 136 17561085812790330735
14170010 4 18272931640136921496
14251764 18 16702304551309065412
15183329 4 18413105044245417033
15419008 47 18259699008405856301
1577012 14 17489593320743168163
17844677 252 18342461417771142837
18681886 176 16128371593343817642
19377110 9 16558758905824643907
19489759 90 17458343048924983017
200 152 18060137618357689273
20157964 124 18343580771778229993
20645477 70 18340487776881734390
21033648 29 18187075191696302113
21033650 10 15720523023259984332
21315759 40 15985112903145479862
21344244 78 17916853618328683162
21792961 116 18334860473088204644
22061861 79 18335701620425715143
2215653 11 18114181908886771111
22224240 67 18341610447911829458
23081809 10 17275386508738565057
23559900 14 17967534575301415205
29717793 49 16845298254325034116
3004659 81 17275383205096363432
3178227 256 18411984685473958488
335352 9 18202288026926935636
3411729 13 16589443097154212860
345986 75 17774156786987779338
34797466 226 17530975695511635127
3545911 37 18410294734967799812
4073 2 18335985388445632539
4325135 7 16343706530238233125
5385378 56 16951121752258137065
59755656 215 18408886231156726772
8988823 20 18342173362819580114

> <PUBCHEM_SHAPE_MULTIPOLES>
471.39
20.25
1.95
1.32
7.87
0.32
0.22
-0.63
-3.31
-4.57
0.48
1.92
-0.08
1.4

> <PUBCHEM_SHAPE_SELFOVERLAP>
992.262

> <PUBCHEM_SHAPE_VOLUME>
272.9

> <PUBCHEM_COORDINATE_TYPE>
2
5
10

$$$$
