5203568
  -OEChem-01171809353D

 55 57  0     1  0  0  0  0  0999 V2000
    5.2823   -0.9848   -2.4871 Cl  0  0  0  0  0  0  0  0  0  0  0  0
    1.5552    2.6494    1.0440 S   0  0  0  0  0  0  0  0  0  0  0  0
    0.0531   -4.0327   -0.0960 F   0  0  0  0  0  0  0  0  0  0  0  0
   -0.3165   -2.6746   -1.7461 F   0  0  0  0  0  0  0  0  0  0  0  0
    1.6501   -2.7470   -0.8208 F   0  0  0  0  0  0  0  0  0  0  0  0
    1.8614    2.3668    2.4346 O   0  0  0  0  0  0  0  0  0  0  0  0
    1.7030    4.0047    0.5459 O   0  0  0  0  0  0  0  0  0  0  0  0
   -2.8437    2.9270    0.5288 O   0  0  0  0  0  0  0  0  0  0  0  0
    4.6656   -2.2237    0.7834 O   0  5  0  0  0  0  0  0  0  0  0  0
    6.2584   -0.7189    0.9177 O   0  0  0  0  0  0  0  0  0  0  0  0
   -0.0331    2.0383    0.6810 N   0  0  1  0  0  0  0  0  0  0  0  0
   -2.7293    1.5831   -1.3637 N   0  0  0  0  0  0  0  0  0  0  0  0
    5.1076   -1.0709    0.5687 N   0  3  0  0  0  0  0  0  0  0  0  0
   -0.7070    2.5460   -0.5233 C   0  0  0  0  0  0  0  0  0  0  0  0
   -0.2493    0.6359    1.0121 C   0  0  0  0  0  0  0  0  0  0  0  0
   -4.1356    1.2633   -1.4590 C   0  0  2  0  0  0  0  0  0  0  0  0
    2.6112    1.6185    0.0620 C   0  0  0  0  0  0  0  0  0  0  0  0
   -2.1987    2.3941   -0.3703 C   0  0  0  0  0  0  0  0  0  0  0  0
   -4.4856    0.0649   -0.6033 C   0  0  0  0  0  0  0  0  0  0  0  0
    0.1235   -0.3598    0.1091 C   0  0  0  0  0  0  0  0  0  0  0  0
   -0.8294    0.2891    2.2323 C   0  0  0  0  0  0  0  0  0  0  0  0
   -4.5474    1.0796   -2.9182 C   0  0  0  0  0  0  0  0  0  0  0  0
   -0.0835   -1.7022    0.4267 C   0  0  0  0  0  0  0  0  0  0  0  0
    3.4424    0.6828    0.6780 C   0  0  0  0  0  0  0  0  0  0  0  0
    2.6104    1.7431   -1.3273 C   0  0  0  0  0  0  0  0  0  0  0  0
   -1.0365   -1.0533    2.5497 C   0  0  0  0  0  0  0  0  0  0  0  0
   -0.6636   -2.0489    1.6469 C   0  0  0  0  0  0  0  0  0  0  0  0
    4.2729   -0.1283   -0.0955 C   0  0  0  0  0  0  0  0  0  0  0  0
   -5.7251    0.0006    0.0333 C   0  0  0  0  0  0  0  0  0  0  0  0
   -3.5688   -0.9756   -0.4517 C   0  0  0  0  0  0  0  0  0  0  0  0
    3.4408    0.9321   -2.1007 C   0  0  0  0  0  0  0  0  0  0  0  0
    4.2719   -0.0036   -1.4849 C   0  0  0  0  0  0  0  0  0  0  0  0
    0.3149   -2.7672   -0.5385 C   0  0  0  0  0  0  0  0  0  0  0  0
   -6.0479   -1.1038    0.8217 C   0  0  0  0  0  0  0  0  0  0  0  0
   -3.8919   -2.0802    0.3367 C   0  0  0  0  0  0  0  0  0  0  0  0
   -5.1313   -2.1441    0.9733 C   0  0  0  0  0  0  0  0  0  0  0  0
   -0.5247    3.6195   -0.6418 H   0  0  0  0  0  0  0  0  0  0  0  0
   -0.3359    2.0502   -1.4243 H   0  0  0  0  0  0  0  0  0  0  0  0
   -4.6801    2.1314   -1.0643 H   0  0  0  0  0  0  0  0  0  0  0  0
   -2.1032    1.1395   -2.0295 H   0  0  0  0  0  0  0  0  0  0  0  0
    0.5460   -0.1112   -0.8591 H   0  0  0  0  0  0  0  0  0  0  0  0
   -1.1244    1.0582    2.9414 H   0  0  0  0  0  0  0  0  0  0  0  0
   -4.3109    1.9747   -3.5041 H   0  0  0  0  0  0  0  0  0  0  0  0
   -5.6227    0.8899   -3.0050 H   0  0  0  0  0  0  0  0  0  0  0  0
   -4.0211    0.2353   -3.3783 H   0  0  0  0  0  0  0  0  0  0  0  0
    3.4496    0.5738    1.7596 H   0  0  0  0  0  0  0  0  0  0  0  0
    1.9798    2.4743   -1.8240 H   0  0  0  0  0  0  0  0  0  0  0  0
   -1.4894   -1.3230    3.4992 H   0  0  0  0  0  0  0  0  0  0  0  0
   -0.8325   -3.0888    1.9125 H   0  0  0  0  0  0  0  0  0  0  0  0
   -6.4488    0.8035   -0.0785 H   0  0  0  0  0  0  0  0  0  0  0  0
   -2.6159   -0.9682   -0.9701 H   0  0  0  0  0  0  0  0  0  0  0  0
    3.4296    1.0438   -3.1820 H   0  0  0  0  0  0  0  0  0  0  0  0
   -7.0136   -1.1547    1.3160 H   0  0  0  0  0  0  0  0  0  0  0  0
   -3.1931   -2.9047    0.4353 H   0  0  0  0  0  0  0  0  0  0  0  0
   -5.3850   -3.0071    1.5819 H   0  0  0  0  0  0  0  0  0  0  0  0
  1 32  1  0  0  0  0
  2  6  2  0  0  0  0
  2  7  2  0  0  0  0
  2 11  1  0  0  0  0
  2 17  1  0  0  0  0
  3 33  1  0  0  0  0
  4 33  1  0  0  0  0
  5 33  1  0  0  0  0
  8 18  2  0  0  0  0
  9 13  1  0  0  0  0
 10 13  2  0  0  0  0
 11 14  1  0  0  0  0
 11 15  1  0  0  0  0
 12 16  1  0  0  0  0
 12 18  1  0  0  0  0
 12 40  1  0  0  0  0
 13 28  1  0  0  0  0
 14 18  1  0  0  0  0
 14 37  1  0  0  0  0
 14 38  1  0  0  0  0
 15 20  1  0  0  0  0
 15 21  2  0  0  0  0
 16 19  1  0  0  0  0
 16 22  1  0  0  0  0
 16 39  1  0  0  0  0
 17 24  2  0  0  0  0
 17 25  1  0  0  0  0
 19 29  2  0  0  0  0
 19 30  1  0  0  0  0
 20 23  2  0  0  0  0
 20 41  1  0  0  0  0
 21 26  1  0  0  0  0
 21 42  1  0  0  0  0
 22 43  1  0  0  0  0
 22 44  1  0  0  0  0
 22 45  1  0  0  0  0
 23 27  1  0  0  0  0
 23 33  1  0  0  0  0
 24 28  1  0  0  0  0
 24 46  1  0  0  0  0
 25 31  2  0  0  0  0
 25 47  1  0  0  0  0
 26 27  2  0  0  0  0
 26 48  1  0  0  0  0
 27 49  1  0  0  0  0
 28 32  2  0  0  0  0
 29 34  1  0  0  0  0
 29 50  1  0  0  0  0
 30 35  2  0  0  0  0
 30 51  1  0  0  0  0
 31 32  1  0  0  0  0
 31 52  1  0  0  0  0
 34 36  2  0  0  0  0
 34 53  1  0  0  0  0
 35 36  1  0  0  0  0
 35 54  1  0  0  0  0
 36 55  1  0  0  0  0
M  CHG  2   9  -1  13   1
M  END
> <PUBCHEM_COMPOUND_CID>
5203568

> <PUBCHEM_CONFORMER_RMSD>
1.6

> <PUBCHEM_CONFORMER_DIVERSEORDER>
1
73
57
39
95
98
90
41
68
131
32
128
100
115
43
77
45
13
106
107
133
38
127
24
69
101
130
111
62
129
83
54
125
123
74
49
6
66
96
31
97
114
91
89
112
121
64
117
30
27
88
16
58
110
70
79
122
23
80
14
81
72
71
109
105
59
85
33
17
67
134
47
55
40
26
28
50
84
86
120
56
99
7
118
37
102
94
92
46
18
126
36
61
20
82
35
60
10
63
124
34
65
48
15
103
132
22
113
52
5
8
93
76
116
3
19
42
53
75
21
44
135
4
25
2
29
119
108
87
51
11
104
12
78
9

> <PUBCHEM_MMFF94_PARTIAL_CHARGES>
48
1 -0.18
10 -0.52
11 -0.69
12 -0.73
13 0.91
14 0.42
15 0.2
16 0.44
17 -0.01
18 0.57
19 -0.14
2 1.45
20 -0.15
21 -0.15
23 -0.14
24 -0.15
25 -0.15
26 -0.15
27 -0.15
28 0.13
29 -0.15
3 -0.34
30 -0.15
31 -0.15
32 0.18
33 1.16
34 -0.15
35 -0.15
36 -0.15
4 -0.34
40 0.37
41 0.15
42 0.15
46 0.15
47 0.15
48 0.15
49 0.15
5 -0.34
50 0.15
51 0.15
52 0.15
53 0.15
54 0.15
55 0.15
6 -0.65
7 -0.65
8 -0.57
9 -0.52

> <PUBCHEM_EFFECTIVE_ROTOR_COUNT>
10

> <PUBCHEM_PHARMACOPHORE_FEATURES>
10
1 10 acceptor
1 12 donor
1 6 acceptor
1 7 acceptor
1 8 acceptor
1 9 acceptor
1 9 anion
6 15 20 21 23 26 27 rings
6 17 24 25 28 31 32 rings
6 19 29 30 34 35 36 rings

> <PUBCHEM_HEAVY_ATOM_COUNT>
36

> <PUBCHEM_ATOM_DEF_STEREO_COUNT>
0

> <PUBCHEM_ATOM_UDEF_STEREO_COUNT>
1

> <PUBCHEM_BOND_DEF_STEREO_COUNT>
0

> <PUBCHEM_BOND_UDEF_STEREO_COUNT>
0

> <PUBCHEM_ISOTOPIC_ATOM_COUNT>
0

> <PUBCHEM_COMPONENT_COUNT>
1

> <PUBCHEM_CACTVS_TAUTO_COUNT>
2

> <PUBCHEM_CONFORMER_ID>
004F667000000001

> <PUBCHEM_MMFF94_ENERGY>
90.4422

> <PUBCHEM_FEATURE_SELFOVERLAP>
50.849

> <PUBCHEM_SHAPE_FINGERPRINT>
10190108 129 18268455498298863009
11488393 25 18337955576250088995
11513181 2 17907584979729075509
11578080 2 17837499909209207016
12422481 6 18341060631419793043
12596602 18 14851891408497951123
13402501 40 18336833082199050999
13757389 114 15669867916799672381
15420108 30 16909512846942777625
17909252 39 18410291419421937531
20429585 67 18059584546576120631
20764821 26 18126270063827985356
22393880 68 17677315170131406405
22907989 373 17898605139047238452
3027735 51 18271260321631449083
3298306 158 18409726270577577183
3383291 50 18411131425358859450
3493558 16 17241343484900260359
463206 1 18123751954752091168
484989 97 18259991495466996106
57307002 85 17822870739924736563
59755656 215 18407477756898708735
6669772 16 18266726073202103792
77296 10 17750230314076567242

> <PUBCHEM_SHAPE_MULTIPOLES>
680.47
12
3.93
2.28
1.03
0.01
-0.4
3.49
-3.49
-0.01
0.31
-0.46
-0.33
1.76

> <PUBCHEM_SHAPE_SELFOVERLAP>
1438.506

> <PUBCHEM_SHAPE_VOLUME>
387

> <PUBCHEM_COORDINATE_TYPE>
2
5
10

$$$$
