843285
  -OEChem-01171809393D

 31 31  0     0  0  0  0  0  0999 V2000
   -4.7853    2.7252    1.0258 Cl  0  0  0  0  0  0  0  0  0  0  0  0
    2.1900    0.6325   -0.5484 O   0  0  0  0  0  0  0  0  0  0  0  0
   -2.1965    2.3665   -0.5329 O   0  0  0  0  0  0  0  0  0  0  0  0
   -0.6304   -4.4918    0.4164 O   0  5  0  0  0  0  0  0  0  0  0  0
    1.5447   -4.2258    0.2446 O   0  0  0  0  0  0  0  0  0  0  0  0
   -2.5650    0.0698   -0.1736 N   0  0  0  0  0  0  0  0  0  0  0  0
    0.3780   -3.7683    0.2439 N   0  3  0  0  0  0  0  0  0  0  0  0
    2.2652    1.6279    0.4408 N   0  0  0  0  0  0  0  0  0  0  0  0
   -1.2779   -0.4689   -0.1673 C   0  0  0  0  0  0  0  0  0  0  0  0
   -0.1738    0.3610   -0.3628 C   0  0  0  0  0  0  0  0  0  0  0  0
    1.1131   -0.1774   -0.3568 C   0  0  0  0  0  0  0  0  0  0  0  0
   -1.0952   -1.8368    0.0338 C   0  0  0  0  0  0  0  0  0  0  0  0
    0.1916   -2.3753    0.0397 C   0  0  0  0  0  0  0  0  0  0  0  0
    1.2957   -1.5457   -0.1556 C   0  0  0  0  0  0  0  0  0  0  0  0
   -2.9429    1.4069   -0.3583 C   0  0  0  0  0  0  0  0  0  0  0  0
    3.2911    2.4026    0.2619 C   0  0  0  0  0  0  0  0  0  0  0  0
   -4.4395    1.6024   -0.2988 C   0  0  0  0  0  0  0  0  0  0  0  0
    3.6414    3.5643    1.1587 C   0  0  0  0  0  0  0  0  0  0  0  0
    4.1957    2.1309   -0.9112 C   0  0  0  0  0  0  0  0  0  0  0  0
   -0.2492    1.4252   -0.5370 H   0  0  0  0  0  0  0  0  0  0  0  0
   -1.9705   -2.4654    0.1840 H   0  0  0  0  0  0  0  0  0  0  0  0
    2.3110   -1.9353   -0.1566 H   0  0  0  0  0  0  0  0  0  0  0  0
   -3.3127   -0.6047   -0.0276 H   0  0  0  0  0  0  0  0  0  0  0  0
   -4.9818    0.6721   -0.1145 H   0  0  0  0  0  0  0  0  0  0  0  0
   -4.7851    2.0398   -1.2394 H   0  0  0  0  0  0  0  0  0  0  0  0
    2.9076    3.6509    1.9643 H   0  0  0  0  0  0  0  0  0  0  0  0
    3.6442    4.4869    0.5725 H   0  0  0  0  0  0  0  0  0  0  0  0
    4.6331    3.4036    1.5895 H   0  0  0  0  0  0  0  0  0  0  0  0
    4.6369    1.1334   -0.8279 H   0  0  0  0  0  0  0  0  0  0  0  0
    3.6394    2.2201   -1.8488 H   0  0  0  0  0  0  0  0  0  0  0  0
    5.0108    2.8605   -0.9309 H   0  0  0  0  0  0  0  0  0  0  0  0
  1 17  1  0  0  0  0
  2  8  1  0  0  0  0
  2 11  1  0  0  0  0
  3 15  2  0  0  0  0
  4  7  1  0  0  0  0
  5  7  2  0  0  0  0
  6  9  1  0  0  0  0
  6 15  1  0  0  0  0
  6 23  1  0  0  0  0
  7 13  1  0  0  0  0
  8 16  2  0  0  0  0
  9 10  1  0  0  0  0
  9 12  2  0  0  0  0
 10 11  2  0  0  0  0
 10 20  1  0  0  0  0
 11 14  1  0  0  0  0
 12 13  1  0  0  0  0
 12 21  1  0  0  0  0
 13 14  2  0  0  0  0
 14 22  1  0  0  0  0
 15 17  1  0  0  0  0
 16 18  1  0  0  0  0
 16 19  1  0  0  0  0
 17 24  1  0  0  0  0
 17 25  1  0  0  0  0
 18 26  1  0  0  0  0
 18 27  1  0  0  0  0
 18 28  1  0  0  0  0
 19 29  1  0  0  0  0
 19 30  1  0  0  0  0
 19 31  1  0  0  0  0
M  CHG  2   4  -1   7   1
M  END
> <PUBCHEM_COMPOUND_CID>
843285

> <PUBCHEM_CONFORMER_RMSD>
0.8

> <PUBCHEM_CONFORMER_DIVERSEORDER>
1
16
28
25
27
29
5
20
32
22
18
30
13
2
15
14
6
26
19
12
7
11
23
3
31
34
4
33
21
10
8
17
9
24

> <PUBCHEM_MMFF94_PARTIAL_CHARGES>
23
1 -0.29
10 -0.15
11 0.08
12 -0.15
13 0.13
14 -0.15
15 0.57
16 0.33
17 0.35
18 0.06
19 0.06
2 -0.02
20 0.15
21 0.15
22 0.15
23 0.37
3 -0.57
4 -0.52
5 -0.52
6 -0.55
7 0.91
8 -0.51
9 0.12

> <PUBCHEM_EFFECTIVE_ROTOR_COUNT>
6

> <PUBCHEM_PHARMACOPHORE_FEATURES>
7
1 3 acceptor
1 4 acceptor
1 4 anion
1 5 acceptor
1 6 donor
1 8 acceptor
6 9 10 11 12 13 14 rings

> <PUBCHEM_HEAVY_ATOM_COUNT>
19

> <PUBCHEM_ATOM_DEF_STEREO_COUNT>
0

> <PUBCHEM_ATOM_UDEF_STEREO_COUNT>
0

> <PUBCHEM_BOND_DEF_STEREO_COUNT>
0

> <PUBCHEM_BOND_UDEF_STEREO_COUNT>
0

> <PUBCHEM_ISOTOPIC_ATOM_COUNT>
0

> <PUBCHEM_COMPONENT_COUNT>
1

> <PUBCHEM_CACTVS_TAUTO_COUNT>
2

> <PUBCHEM_CONFORMER_ID>
000CDE1500000001

> <PUBCHEM_MMFF94_ENERGY>
61.331

> <PUBCHEM_FEATURE_SELFOVERLAP>
35.603

> <PUBCHEM_SHAPE_FINGERPRINT>
10319926 262 17837472405220014384
10411042 1 17401767420014114479
1100329 8 18339077095395634986
11056379 131 17760373592959163996
11833330 49 17543624691741234467
12107183 9 18264468716428965680
12173636 292 18266171923494000404
12293681 160 17764554971075719487
12390115 104 18269010823867980413
12532896 13 18340205292597843068
12788726 201 17980181304062719095
13134695 92 17617080418246419215
13140716 1 18409728443619499659
136203 1 17905044007914251010
138480 1 17906169547059879253
13878862 14 17902219019795496181
13955234 65 18265899043279566609
14955137 171 18121215385948684898
15042514 8 17759242186244994626
15842332 3 17843664605314039589
1741750 31 18339637966205083408
17868525 174 17617941327399053457
17980427 26 18341600478459383740
18785283 64 18189904123197071496
19784866 34 18413951685241971913
20510252 161 18125442161647512281
20671657 1 18267868272635960959
21041028 32 17402330374003494693
21049683 271 17900844655312206758
21524375 3 18343577447462980652
21650355 55 17328576736151340858
22182937 141 18126288772721993801
2255824 54 18196933262737667919
23402539 116 17693933398894597815
23557571 272 17837505407152234164
23558518 356 18339921644331075958
23559900 14 18121208780583953691
23845131 108 18408888443170405561
2748010 2 18262532471249915047
283562 15 18196646526716195887
3071541 12 18266740177637164431
3091708 16 9335397406853959727
31174 14 17974853869994853477
3187 122 16898744676758595272
458136 41 18337118860511790533
474 4 18340201895579827329
59124914 9 18342745078707164736
633830 44 18273214179595855917
6442390 28 18338525234836450569
7364860 26 18193554454657069263
77188 2 17545319674820227846
7808743 9 18047196525323872604
81228 2 17690301712008989930
84936 182 18271241625581105665
90316 7 17473266955844558994
9981440 41 18409720790294104185

> <PUBCHEM_SHAPE_MULTIPOLES>
354.46
7.48
5.89
0.86
2.91
6.26
0.08
-12.32
0.62
-1.88
1.79
-0.17
-0.53
0.1

> <PUBCHEM_SHAPE_SELFOVERLAP>
718.542

> <PUBCHEM_SHAPE_VOLUME>
207.8

> <PUBCHEM_COORDINATE_TYPE>
2
5
10

$$$$
