4109389
  -OEChem-01171809243D

 45 47  0     0  0  0  0  0  0999 V2000
   -2.2752   -2.3172    0.7498 S   0  0  0  0  0  0  0  0  0  0  0  0
   -2.4419   -3.7371    0.4648 O   0  0  0  0  0  0  0  0  0  0  0  0
   -2.5294   -1.8216    2.0972 O   0  0  0  0  0  0  0  0  0  0  0  0
    1.2041    1.4443    2.0269 O   0  0  0  0  0  0  0  0  0  0  0  0
    5.0683    0.7703   -0.4673 O   0  0  0  0  0  0  0  0  0  0  0  0
    3.2937   -0.6889   -0.7464 N   0  0  0  0  0  0  0  0  0  0  0  0
    3.1652    1.1142    0.8116 N   0  0  0  0  0  0  0  0  0  0  0  0
   -3.2004   -1.4146   -0.3838 N   0  0  0  0  0  0  0  0  0  0  0  0
    1.9700   -1.0899   -0.3997 C   0  0  0  0  0  0  0  0  0  0  0  0
    1.2495   -0.3677    0.5528 C   0  0  0  0  0  0  0  0  0  0  0  0
   -0.6521   -1.8501    0.3096 C   0  0  0  0  0  0  0  0  0  0  0  0
   -0.0557   -0.7437    0.9074 C   0  0  0  0  0  0  0  0  0  0  0  0
    1.3496   -2.2042   -0.9925 C   0  0  0  0  0  0  0  0  0  0  0  0
    1.8543    0.8059    1.2021 C   0  0  0  0  0  0  0  0  0  0  0  0
    0.0506   -2.5803   -0.6404 C   0  0  0  0  0  0  0  0  0  0  0  0
    3.9239    0.4208   -0.1569 C   0  0  0  0  0  0  0  0  0  0  0  0
   -2.8620    0.0207   -0.4983 C   0  0  0  0  0  0  0  0  0  0  0  0
    4.0228   -1.4609   -1.7529 C   0  0  0  0  0  0  0  0  0  0  0  0
    3.7705    2.2730    1.4633 C   0  0  0  0  0  0  0  0  0  0  0  0
   -2.9826    0.8040    0.6190 C   0  0  0  0  0  0  0  0  0  0  0  0
   -2.4459    0.4915   -1.7156 C   0  0  0  0  0  0  0  0  0  0  0  0
   -2.6638    2.1578    0.5112 C   0  0  0  0  0  0  0  0  0  0  0  0
   -2.1270    1.8451   -1.8236 C   0  0  0  0  0  0  0  0  0  0  0  0
   -2.2360    2.6783   -0.7102 C   0  0  0  0  0  0  0  0  0  0  0  0
   -2.7807    3.0487    1.7017 C   0  0  0  0  0  0  0  0  0  0  0  0
   -1.6698    2.4018   -3.1298 C   0  0  0  0  0  0  0  0  0  0  0  0
   -0.5879   -0.1827    1.6698 H   0  0  0  0  0  0  0  0  0  0  0  0
    1.8535   -2.8081   -1.7420 H   0  0  0  0  0  0  0  0  0  0  0  0
   -0.3924   -3.4437   -1.1288 H   0  0  0  0  0  0  0  0  0  0  0  0
   -3.3958   -1.8744   -1.2830 H   0  0  0  0  0  0  0  0  0  0  0  0
    3.4773   -1.4303   -2.7013 H   0  0  0  0  0  0  0  0  0  0  0  0
    4.1401   -2.4925   -1.4064 H   0  0  0  0  0  0  0  0  0  0  0  0
    5.0219   -1.0529   -1.9294 H   0  0  0  0  0  0  0  0  0  0  0  0
    3.6473    2.1832    2.5475 H   0  0  0  0  0  0  0  0  0  0  0  0
    3.2399    3.1707    1.1301 H   0  0  0  0  0  0  0  0  0  0  0  0
    4.8330    2.3758    1.2316 H   0  0  0  0  0  0  0  0  0  0  0  0
   -3.3532    0.4191    1.5622 H   0  0  0  0  0  0  0  0  0  0  0  0
   -2.3641   -0.1652   -2.5767 H   0  0  0  0  0  0  0  0  0  0  0  0
   -1.9906    3.7342   -0.7957 H   0  0  0  0  0  0  0  0  0  0  0  0
   -2.5481    2.5046    2.6236 H   0  0  0  0  0  0  0  0  0  0  0  0
   -2.0790    3.8874    1.6402 H   0  0  0  0  0  0  0  0  0  0  0  0
   -3.7973    3.4472    1.7745 H   0  0  0  0  0  0  0  0  0  0  0  0
   -0.9642    3.2263   -2.9817 H   0  0  0  0  0  0  0  0  0  0  0  0
   -1.1526    1.6412   -3.7245 H   0  0  0  0  0  0  0  0  0  0  0  0
   -2.5270    2.7708   -3.7015 H   0  0  0  0  0  0  0  0  0  0  0  0
  1  2  2  0  0  0  0
  1  3  2  0  0  0  0
  1  8  1  0  0  0  0
  1 11  1  0  0  0  0
  4 14  2  0  0  0  0
  5 16  2  0  0  0  0
  6  9  1  0  0  0  0
  6 16  1  0  0  0  0
  6 18  1  0  0  0  0
  7 14  1  0  0  0  0
  7 16  1  0  0  0  0
  7 19  1  0  0  0  0
  8 17  1  0  0  0  0
  8 30  1  0  0  0  0
  9 10  2  0  0  0  0
  9 13  1  0  0  0  0
 10 12  1  0  0  0  0
 10 14  1  0  0  0  0
 11 12  2  0  0  0  0
 11 15  1  0  0  0  0
 12 27  1  0  0  0  0
 13 15  2  0  0  0  0
 13 28  1  0  0  0  0
 15 29  1  0  0  0  0
 17 20  2  0  0  0  0
 17 21  1  0  0  0  0
 18 31  1  0  0  0  0
 18 32  1  0  0  0  0
 18 33  1  0  0  0  0
 19 34  1  0  0  0  0
 19 35  1  0  0  0  0
 19 36  1  0  0  0  0
 20 22  1  0  0  0  0
 20 37  1  0  0  0  0
 21 23  2  0  0  0  0
 21 38  1  0  0  0  0
 22 24  2  0  0  0  0
 22 25  1  0  0  0  0
 23 24  1  0  0  0  0
 23 26  1  0  0  0  0
 24 39  1  0  0  0  0
 25 40  1  0  0  0  0
 25 41  1  0  0  0  0
 25 42  1  0  0  0  0
 26 43  1  0  0  0  0
 26 44  1  0  0  0  0
 26 45  1  0  0  0  0
M  END
> <PUBCHEM_COMPOUND_CID>
4109389

> <PUBCHEM_CONFORMER_RMSD>
0.6

> <PUBCHEM_CONFORMER_DIVERSEORDER>
1
10
6
24
19
4
21
23
16
2
13
3
8
18
9
5
14
15
12
7
11
17
22
20

> <PUBCHEM_MMFF94_PARTIAL_CHARGES>
33
1 1.45
10 0.09
11 -0.01
12 -0.15
13 -0.15
14 0.54
15 -0.15
16 0.69
17 0.2
18 0.3
19 0.3
2 -0.65
20 -0.15
21 -0.15
22 -0.14
23 -0.14
24 -0.15
25 0.14
26 0.14
27 0.15
28 0.15
29 0.15
3 -0.65
30 0.42
37 0.15
38 0.15
39 0.15
4 -0.57
5 -0.57
6 -0.48
7 -0.42
8 -0.76
9 0.12

> <PUBCHEM_EFFECTIVE_ROTOR_COUNT>
3

> <PUBCHEM_PHARMACOPHORE_FEATURES>
8
1 2 acceptor
1 3 acceptor
1 4 acceptor
1 5 acceptor
1 8 donor
6 17 20 21 22 23 24 rings
6 6 7 9 10 14 16 rings
6 9 10 11 12 13 15 rings

> <PUBCHEM_HEAVY_ATOM_COUNT>
26

> <PUBCHEM_ATOM_DEF_STEREO_COUNT>
0

> <PUBCHEM_ATOM_UDEF_STEREO_COUNT>
0

> <PUBCHEM_BOND_DEF_STEREO_COUNT>
0

> <PUBCHEM_BOND_UDEF_STEREO_COUNT>
0

> <PUBCHEM_ISOTOPIC_ATOM_COUNT>
0

> <PUBCHEM_COMPONENT_COUNT>
1

> <PUBCHEM_CACTVS_TAUTO_COUNT>
1

> <PUBCHEM_CONFORMER_ID>
003EB44D00000001

> <PUBCHEM_MMFF94_ENERGY>
67.7755

> <PUBCHEM_FEATURE_SELFOVERLAP>
40.639

> <PUBCHEM_SHAPE_FINGERPRINT>
10165383 225 17902817179283173829
10498660 4 18187070737825538805
11595378 159 17749103426532247354
11640471 11 16153979145591696005
12156800 1 12336723448133254404
12403259 226 18128818736329786386
128993 33 17900543380689306861
13464514 151 18127699223044256178
13583140 156 18116129212909822120
14251757 17 18272939302047198450
14279260 333 17483975791715735718
14386348 128 18191587437061009261
14713325 29 18337682991681198314
15021287 119 16660641831240227750
15274700 242 16539914066419432958
15961568 22 17682113619306112060
17349148 13 17560505245461641066
17357779 13 18123736810945280103
18186145 218 18267866090813751572
18981168 100 18044362838649396661
20600515 1 17679865096430764355
221357 26 17989207036011190991
22182313 1 18059294366132951384
22907989 373 18337673143083811868
23557571 272 18263368151626677563
23559900 14 18128541462617289070
238 59 17772722005554075300
3187 122 18043248144417762915
35225 105 17972003020547536931
3524813 1 18342458191933848250
469060 322 17458921421821225793
5252454 2 18117567223151603461
5845 1 18192439795228338107
6287921 2 18339374074798297340
6442390 28 18192162512239733779
7399639 24 17984136234861448434
81228 2 18114474434919959659

> <PUBCHEM_SHAPE_MULTIPOLES>
500.5
7.4
3.85
2.15
6.95
1.01
0.86
-2.94
0.7
-2.6
-0.56
-0.86
-1.34
2.13

> <PUBCHEM_SHAPE_SELFOVERLAP>
1071.696

> <PUBCHEM_SHAPE_VOLUME>
279.3

> <PUBCHEM_COORDINATE_TYPE>
2
5
10

$$$$
