20920343
  -OEChem-01171810033D

 71 75  0     0  0  0  0  0  0999 V2000
    2.4716    2.8147    1.4277 O   0  0  0  0  0  0  0  0  0  0  0  0
    7.3218   -2.0437    0.5910 O   0  0  0  0  0  0  0  0  0  0  0  0
   -0.0790    0.4482   -0.3938 N   0  0  0  0  0  0  0  0  0  0  0  0
    3.7510    3.0759   -0.4994 N   0  0  0  0  0  0  0  0  0  0  0  0
   -0.0979   -1.9679   -0.2523 N   0  0  0  0  0  0  0  0  0  0  0  0
   -4.2561   -0.6170   -0.0124 N   0  0  0  0  0  0  0  0  0  0  0  0
   -3.1017    0.0677   -0.1403 N   0  0  0  0  0  0  0  0  0  0  0  0
   -0.7655   -3.2636   -0.1265 N   0  0  0  0  0  0  0  0  0  0  0  0
    1.3653    2.9501   -0.6850 C   0  0  0  0  0  0  0  0  0  0  0  0
    1.4527    1.8388   -1.7292 C   0  0  0  0  0  0  0  0  0  0  0  0
    0.0711    2.8545    0.1200 C   0  0  0  0  0  0  0  0  0  0  0  0
    1.1824    0.4526   -1.1449 C   0  0  0  0  0  0  0  0  0  0  0  0
   -0.2046    1.4521    0.6665 C   0  0  0  0  0  0  0  0  0  0  0  0
    2.5706    2.9298    0.2090 C   0  0  0  0  0  0  0  0  0  0  0  0
   -0.7527   -0.7726   -0.2713 C   0  0  0  0  0  0  0  0  0  0  0  0
   -2.1465   -0.8780   -0.1587 C   0  0  0  0  0  0  0  0  0  0  0  0
   -2.7659   -2.1746   -0.0364 C   0  0  0  0  0  0  0  0  0  0  0  0
   -4.1126   -1.9730    0.0545 C   0  0  0  0  0  0  0  0  0  0  0  0
   -2.1140   -3.3983   -0.0157 C   0  0  0  0  0  0  0  0  0  0  0  0
    5.0513    3.1117    0.1299 C   0  0  0  0  0  0  0  0  0  0  0  0
   -5.2563   -2.8974    0.1965 C   0  0  0  0  0  0  0  0  0  0  0  0
   -5.4621    0.0839    0.0377 C   0  0  0  0  0  0  0  0  0  0  0  0
    5.6544    1.7422    0.2518 C   0  0  0  0  0  0  0  0  0  0  0  0
   -2.6956   -4.7584    0.1057 C   0  0  0  0  0  0  0  0  0  0  0  0
   -6.2873   -0.0275    1.1568 C   0  0  0  0  0  0  0  0  0  0  0  0
   -5.8416    0.8963   -1.0307 C   0  0  0  0  0  0  0  0  0  0  0  0
    6.4548    1.2381   -0.7733 C   0  0  0  0  0  0  0  0  0  0  0  0
    5.4143    0.9740    1.3911 C   0  0  0  0  0  0  0  0  0  0  0  0
   -7.4920    0.6738    1.2074 C   0  0  0  0  0  0  0  0  0  0  0  0
   -7.0463    1.5975   -0.9801 C   0  0  0  0  0  0  0  0  0  0  0  0
   -7.8715    1.4863    0.1390 C   0  0  0  0  0  0  0  0  0  0  0  0
    7.0149   -0.0342   -0.6595 C   0  0  0  0  0  0  0  0  0  0  0  0
    5.9744   -0.2984    1.5050 C   0  0  0  0  0  0  0  0  0  0  0  0
    6.7746   -0.8025    0.4798 C   0  0  0  0  0  0  0  0  0  0  0  0
   -9.1604    2.2347    0.1923 C   0  0  0  0  0  0  0  0  0  0  0  0
    7.5435   -2.7664   -0.6190 C   0  0  0  0  0  0  0  0  0  0  0  0
    7.4411   -4.2495   -0.3334 C   0  0  0  0  0  0  0  0  0  0  0  0
    1.3761    3.9202   -1.2001 H   0  0  0  0  0  0  0  0  0  0  0  0
    2.4089    1.8202   -2.2614 H   0  0  0  0  0  0  0  0  0  0  0  0
    0.6903    2.0383   -2.4951 H   0  0  0  0  0  0  0  0  0  0  0  0
   -0.7616    3.1319   -0.5407 H   0  0  0  0  0  0  0  0  0  0  0  0
    0.0628    3.5773    0.9447 H   0  0  0  0  0  0  0  0  0  0  0  0
    1.1389   -0.2620   -1.9768 H   0  0  0  0  0  0  0  0  0  0  0  0
    2.0056    0.1438   -0.4890 H   0  0  0  0  0  0  0  0  0  0  0  0
    0.4894    1.2047    1.4779 H   0  0  0  0  0  0  0  0  0  0  0  0
   -1.2072    1.4525    1.1077 H   0  0  0  0  0  0  0  0  0  0  0  0
    3.7227    3.2223   -1.5035 H   0  0  0  0  0  0  0  0  0  0  0  0
    5.6932    3.7624   -0.4748 H   0  0  0  0  0  0  0  0  0  0  0  0
    4.9646    3.5798    1.1176 H   0  0  0  0  0  0  0  0  0  0  0  0
   -5.3568   -3.2260    1.2358 H   0  0  0  0  0  0  0  0  0  0  0  0
   -6.2090   -2.4605   -0.1160 H   0  0  0  0  0  0  0  0  0  0  0  0
   -5.1324   -3.7817   -0.4342 H   0  0  0  0  0  0  0  0  0  0  0  0
   -3.2557   -5.0177   -0.7970 H   0  0  0  0  0  0  0  0  0  0  0  0
   -1.9026   -5.5039    0.2277 H   0  0  0  0  0  0  0  0  0  0  0  0
   -3.3479   -4.8302    0.9805 H   0  0  0  0  0  0  0  0  0  0  0  0
   -6.0041   -0.6451    2.0057 H   0  0  0  0  0  0  0  0  0  0  0  0
   -5.2124    0.9918   -1.9124 H   0  0  0  0  0  0  0  0  0  0  0  0
    6.6523    1.8292   -1.6638 H   0  0  0  0  0  0  0  0  0  0  0  0
    4.7950    1.3546    2.1986 H   0  0  0  0  0  0  0  0  0  0  0  0
   -8.1244    0.5822    2.0865 H   0  0  0  0  0  0  0  0  0  0  0  0
   -7.3308    2.2278   -1.8185 H   0  0  0  0  0  0  0  0  0  0  0  0
    7.6537   -0.3776   -1.4676 H   0  0  0  0  0  0  0  0  0  0  0  0
    5.7841   -0.8922    2.3949 H   0  0  0  0  0  0  0  0  0  0  0  0
   -9.0037    3.2212    0.6396 H   0  0  0  0  0  0  0  0  0  0  0  0
   -9.5825    2.3666   -0.8098 H   0  0  0  0  0  0  0  0  0  0  0  0
   -9.9066    1.6949    0.7854 H   0  0  0  0  0  0  0  0  0  0  0  0
    8.5429   -2.5308   -1.0010 H   0  0  0  0  0  0  0  0  0  0  0  0
    6.7921   -2.5261   -1.3817 H   0  0  0  0  0  0  0  0  0  0  0  0
    7.6167   -4.8360   -1.2395 H   0  0  0  0  0  0  0  0  0  0  0  0
    6.4510   -4.4987    0.0626 H   0  0  0  0  0  0  0  0  0  0  0  0
    8.1713   -4.5471    0.4264 H   0  0  0  0  0  0  0  0  0  0  0  0
  1 14  2  0  0  0  0
  2 34  1  0  0  0  0
  2 36  1  0  0  0  0
  3 12  1  0  0  0  0
  3 13  1  0  0  0  0
  3 15  1  0  0  0  0
  4 14  1  0  0  0  0
  4 20  1  0  0  0  0
  4 47  1  0  0  0  0
  5  8  1  0  0  0  0
  5 15  2  0  0  0  0
  6  7  1  0  0  0  0
  6 18  1  0  0  0  0
  6 22  1  0  0  0  0
  7 16  2  0  0  0  0
  8 19  2  0  0  0  0
  9 10  1  0  0  0  0
  9 11  1  0  0  0  0
  9 14  1  0  0  0  0
  9 38  1  0  0  0  0
 10 12  1  0  0  0  0
 10 39  1  0  0  0  0
 10 40  1  0  0  0  0
 11 13  1  0  0  0  0
 11 41  1  0  0  0  0
 11 42  1  0  0  0  0
 12 43  1  0  0  0  0
 12 44  1  0  0  0  0
 13 45  1  0  0  0  0
 13 46  1  0  0  0  0
 15 16  1  0  0  0  0
 16 17  1  0  0  0  0
 17 18  2  0  0  0  0
 17 19  1  0  0  0  0
 18 21  1  0  0  0  0
 19 24  1  0  0  0  0
 20 23  1  0  0  0  0
 20 48  1  0  0  0  0
 20 49  1  0  0  0  0
 21 50  1  0  0  0  0
 21 51  1  0  0  0  0
 21 52  1  0  0  0  0
 22 25  2  0  0  0  0
 22 26  1  0  0  0  0
 23 27  2  0  0  0  0
 23 28  1  0  0  0  0
 24 53  1  0  0  0  0
 24 54  1  0  0  0  0
 24 55  1  0  0  0  0
 25 29  1  0  0  0  0
 25 56  1  0  0  0  0
 26 30  2  0  0  0  0
 26 57  1  0  0  0  0
 27 32  1  0  0  0  0
 27 58  1  0  0  0  0
 28 33  2  0  0  0  0
 28 59  1  0  0  0  0
 29 31  2  0  0  0  0
 29 60  1  0  0  0  0
 30 31  1  0  0  0  0
 30 61  1  0  0  0  0
 31 35  1  0  0  0  0
 32 34  2  0  0  0  0
 32 62  1  0  0  0  0
 33 34  1  0  0  0  0
 33 63  1  0  0  0  0
 35 64  1  0  0  0  0
 35 65  1  0  0  0  0
 35 66  1  0  0  0  0
 36 37  1  0  0  0  0
 36 67  1  0  0  0  0
 36 68  1  0  0  0  0
 37 69  1  0  0  0  0
 37 70  1  0  0  0  0
 37 71  1  0  0  0  0
M  END
> <PUBCHEM_COMPOUND_CID>
20920343

> <PUBCHEM_CONFORMER_RMSD>
1.2

> <PUBCHEM_CONFORMER_DIVERSEORDER>
1
57
43
29
32
33
72
42
64
20
70
54
24
13
2
61
31
41
15
59
53
45
58
38
21
39
63
34
28
71
65
50
36
66
19
48
60
9
40
27
30
35
25
69
14
44
55
10
51
49
26
52
11
67
18
16
6
17
37
68
62
5
4
22
56
12
47
8
7
23
3
46

> <PUBCHEM_MMFF94_PARTIAL_CHARGES>
42
1 -0.57
12 0.37
13 0.37
14 0.57
15 0.41
16 0.29
18 -0.33
19 0.17
2 -0.36
20 0.44
21 0.18
22 -0.02
23 -0.14
24 0.14
25 -0.15
26 -0.15
27 -0.15
28 -0.15
29 -0.15
3 -0.84
30 -0.15
31 -0.14
32 -0.15
33 -0.15
34 0.08
35 0.14
36 0.28
4 -0.73
47 0.37
5 -0.31
56 0.15
57 0.15
58 0.15
59 0.15
6 0.59
60 0.15
61 0.15
62 0.15
63 0.15
7 -0.71
8 -0.31
9 0.06

> <PUBCHEM_EFFECTIVE_ROTOR_COUNT>
9.2

> <PUBCHEM_PHARMACOPHORE_FEATURES>
11
1 1 acceptor
1 2 acceptor
1 4 donor
1 7 acceptor
1 8 acceptor
3 3 5 15 cation
5 6 7 16 17 18 rings
6 22 25 26 29 30 31 rings
6 23 27 28 32 33 34 rings
6 3 9 10 11 12 13 rings
6 5 8 15 16 17 19 rings

> <PUBCHEM_HEAVY_ATOM_COUNT>
37

> <PUBCHEM_ATOM_DEF_STEREO_COUNT>
0

> <PUBCHEM_ATOM_UDEF_STEREO_COUNT>
0

> <PUBCHEM_BOND_DEF_STEREO_COUNT>
0

> <PUBCHEM_BOND_UDEF_STEREO_COUNT>
0

> <PUBCHEM_ISOTOPIC_ATOM_COUNT>
0

> <PUBCHEM_COMPONENT_COUNT>
1

> <PUBCHEM_CACTVS_TAUTO_COUNT>
2

> <PUBCHEM_CONFORMER_ID>
013F381700000001

> <PUBCHEM_MMFF94_ENERGY>
128.5588

> <PUBCHEM_FEATURE_SELFOVERLAP>
55.961

> <PUBCHEM_SHAPE_FINGERPRINT>
10580692 12 18336828683989067977
10653451 467 18339643330402647166
10692045 39 18409449202057541867
10917259 128 16557917693524619857
11478447 183 18336841806290252774
11796584 16 18268997655978039116
12047536 79 17632571695743707152
12107183 9 18336262435305825105
12655364 131 18057617477345507891
13008946 267 17983304725288359449
13785724 45 18410014326103431980
14117953 113 18343023255670770534
14289278 72 16660656180383053593
14347424 109 18202278135301372032
14747282 305 18194975036581109944
14856354 85 15936411182697836185
15183329 4 18335697286281753309
15230672 131 18408318895619982619
15320295 40 15985100799484801736
19315958 150 18412261779363033328
20156587 191 18042678412826954879
21130935 74 18340205314062129866
21223535 225 16271664321279660265
21774942 28 17418105273950695729
21814621 53 18199746019270632897
21859007 373 18187357693460464581
24893992 56 18272088340815294961
2851757 15 18410012161650586269
335507 130 10809336772231085200
3525247 94 18342452665482297415
3534868 343 16892301551978834175
397638 26 18409727387659366993
4073 2 17828483901535399408
4144715 1 18189901009599814938
44575985 26 17988929924975247558
6086070 43 16629680798270641201

> <PUBCHEM_SHAPE_MULTIPOLES>
719.82
25.83
5.28
1.12
1.86
4.32
0.07
0.14
2.67
-3.72
-0.25
-0.49
-0.46
0.66

> <PUBCHEM_SHAPE_SELFOVERLAP>
1553.501

> <PUBCHEM_SHAPE_VOLUME>
394.1

> <PUBCHEM_COORDINATE_TYPE>
2
5
10

$$$$
