3885032
  -OEChem-01171809353D

 52 54  0     1  0  0  0  0  0999 V2000
   -5.2170    1.4969   -2.3013 Cl  0  0  0  0  0  0  0  0  0  0  0  0
    4.0517    1.5937   -2.6353 Cl  0  0  0  0  0  0  0  0  0  0  0  0
   -1.6764   -2.7625    0.6800 S   0  0  0  0  0  0  0  0  0  0  0  0
    0.1560    3.9308    0.4487 F   0  0  0  0  0  0  0  0  0  0  0  0
    0.4592    2.7928   -1.3725 F   0  0  0  0  0  0  0  0  0  0  0  0
   -1.5022    2.8360   -0.4347 F   0  0  0  0  0  0  0  0  0  0  0  0
   -1.9694   -2.6572    2.0980 O   0  0  0  0  0  0  0  0  0  0  0  0
   -1.8905   -4.0287    0.0032 O   0  0  0  0  0  0  0  0  0  0  0  0
    2.7038   -3.1822    0.1057 O   0  0  0  0  0  0  0  0  0  0  0  0
   -4.5393    2.2478    1.1033 O   0  5  0  0  0  0  0  0  0  0  0  0
   -6.2061    0.8205    1.0417 O   0  0  0  0  0  0  0  0  0  0  0  0
   -0.0597   -2.1862    0.3940 N   0  0  1  0  0  0  0  0  0  0  0  0
    2.6572   -1.5894   -1.5858 N   0  0  0  0  0  0  0  0  0  0  0  0
   -5.0386    1.1586    0.7366 N   0  3  0  0  0  0  0  0  0  0  0  0
    0.5893   -2.5576   -0.8721 C   0  0  0  0  0  0  0  0  0  0  0  0
    0.2251   -0.8541    0.9114 C   0  0  0  0  0  0  0  0  0  0  0  0
   -2.6796   -1.5573   -0.1464 C   0  0  0  0  0  0  0  0  0  0  0  0
   -0.0972    0.2720    0.1542 C   0  0  0  0  0  0  0  0  0  0  0  0
    2.0866   -2.5010   -0.7087 C   0  0  0  0  0  0  0  0  0  0  0  0
    0.8205   -0.7054    2.1639 C   0  0  0  0  0  0  0  0  0  0  0  0
    0.1761    1.5470    0.6495 C   0  0  0  0  0  0  0  0  0  0  0  0
   -3.4637   -0.6743    0.5961 C   0  0  0  0  0  0  0  0  0  0  0  0
   -2.6840   -1.4915   -1.5397 C   0  0  0  0  0  0  0  0  0  0  0  0
    4.0776   -1.3287   -1.6451 C   0  0  0  0  0  0  0  0  0  0  0  0
    1.0937    0.5696    2.6594 C   0  0  0  0  0  0  0  0  0  0  0  0
    0.7715    1.6957    1.9021 C   0  0  0  0  0  0  0  0  0  0  0  0
   -4.2523    0.2744   -0.0548 C   0  0  0  0  0  0  0  0  0  0  0  0
   -3.4726   -0.5428   -2.1905 C   0  0  0  0  0  0  0  0  0  0  0  0
    4.4923   -0.2545   -0.6817 C   0  0  0  0  0  0  0  0  0  0  0  0
   -4.2568    0.3401   -1.4482 C   0  0  0  0  0  0  0  0  0  0  0  0
   -0.1680    2.7517   -0.1599 C   0  0  0  0  0  0  0  0  0  0  0  0
    4.5091    1.0910   -1.0487 C   0  0  0  0  0  0  0  0  0  0  0  0
    4.8674   -0.6303    0.6082 C   0  0  0  0  0  0  0  0  0  0  0  0
    4.9011    2.0608   -0.1259 C   0  0  0  0  0  0  0  0  0  0  0  0
    5.2592    0.3395    1.5311 C   0  0  0  0  0  0  0  0  0  0  0  0
    5.2760    1.6850    1.1640 C   0  0  0  0  0  0  0  0  0  0  0  0
    0.3543   -3.5947   -1.1346 H   0  0  0  0  0  0  0  0  0  0  0  0
    0.2440   -1.9259   -1.6949 H   0  0  0  0  0  0  0  0  0  0  0  0
   -0.5311    0.1783   -0.8362 H   0  0  0  0  0  0  0  0  0  0  0  0
    1.0768   -1.5772    2.7601 H   0  0  0  0  0  0  0  0  0  0  0  0
   -3.4660   -0.7131    1.6825 H   0  0  0  0  0  0  0  0  0  0  0  0
   -2.0900   -2.1784   -2.1350 H   0  0  0  0  0  0  0  0  0  0  0  0
    2.0629   -1.0509   -2.2087 H   0  0  0  0  0  0  0  0  0  0  0  0
    4.6141   -2.2586   -1.4170 H   0  0  0  0  0  0  0  0  0  0  0  0
    4.3369   -1.0887   -2.6806 H   0  0  0  0  0  0  0  0  0  0  0  0
    1.5589    0.6850    3.6340 H   0  0  0  0  0  0  0  0  0  0  0  0
    0.9934    2.6802    2.3044 H   0  0  0  0  0  0  0  0  0  0  0  0
   -3.4663   -0.5066   -3.2769 H   0  0  0  0  0  0  0  0  0  0  0  0
    4.8648   -1.6736    0.9113 H   0  0  0  0  0  0  0  0  0  0  0  0
    4.9188    3.1136   -0.3959 H   0  0  0  0  0  0  0  0  0  0  0  0
    5.5512    0.0471    2.5355 H   0  0  0  0  0  0  0  0  0  0  0  0
    5.5804    2.4400    1.8829 H   0  0  0  0  0  0  0  0  0  0  0  0
  1 30  1  0  0  0  0
  2 32  1  0  0  0  0
  3  7  2  0  0  0  0
  3  8  2  0  0  0  0
  3 12  1  0  0  0  0
  3 17  1  0  0  0  0
  4 31  1  0  0  0  0
  5 31  1  0  0  0  0
  6 31  1  0  0  0  0
  9 19  2  0  0  0  0
 10 14  1  0  0  0  0
 11 14  2  0  0  0  0
 12 15  1  0  0  0  0
 12 16  1  0  0  0  0
 13 19  1  0  0  0  0
 13 24  1  0  0  0  0
 13 43  1  0  0  0  0
 14 27  1  0  0  0  0
 15 19  1  0  0  0  0
 15 37  1  0  0  0  0
 15 38  1  0  0  0  0
 16 18  1  0  0  0  0
 16 20  2  0  0  0  0
 17 22  2  0  0  0  0
 17 23  1  0  0  0  0
 18 21  2  0  0  0  0
 18 39  1  0  0  0  0
 20 25  1  0  0  0  0
 20 40  1  0  0  0  0
 21 26  1  0  0  0  0
 21 31  1  0  0  0  0
 22 27  1  0  0  0  0
 22 41  1  0  0  0  0
 23 28  2  0  0  0  0
 23 42  1  0  0  0  0
 24 29  1  0  0  0  0
 24 44  1  0  0  0  0
 24 45  1  0  0  0  0
 25 26  2  0  0  0  0
 25 46  1  0  0  0  0
 26 47  1  0  0  0  0
 27 30  2  0  0  0  0
 28 30  1  0  0  0  0
 28 48  1  0  0  0  0
 29 32  1  0  0  0  0
 29 33  2  0  0  0  0
 32 34  2  0  0  0  0
 33 35  1  0  0  0  0
 33 49  1  0  0  0  0
 34 36  1  0  0  0  0
 34 50  1  0  0  0  0
 35 36  2  0  0  0  0
 35 51  1  0  0  0  0
 36 52  1  0  0  0  0
M  CHG  2  10  -1  14   1
M  END
> <PUBCHEM_COMPOUND_CID>
3885032

> <PUBCHEM_CONFORMER_RMSD>
1.6

> <PUBCHEM_CONFORMER_DIVERSEORDER>
2
120
78
45
50
96
131
52
132
112
139
85
114
88
12
130
59
6
87
41
67
146
64
5
128
48
134
138
133
57
27
82
141
108
101
127
89
31
84
105
125
81
80
68
110
28
121
104
11
137
18
99
119
115
145
118
143
150
9
117
140
122
149
116
47
63
97
129
109
92
86
98
3
79
58
53
14
135
56
33
44
39
123
151
75
19
77
152
142
49
91
23
26
126
65
30
103
62
95
111
76
144
70
34
100
8
42
35
22
148
136
32
51
93
74
147
24
37
94
40
36
55
20
71
73
38
102
72
1
17
106
124
60
90
61
113
25
13
43
107
16
29
7
46
66
21
54
69
83
4
15
10

> <PUBCHEM_MMFF94_PARTIAL_CHARGES>
48
1 -0.18
10 -0.52
11 -0.52
12 -0.69
13 -0.73
14 0.91
15 0.42
16 0.2
17 -0.01
18 -0.15
19 0.57
2 -0.18
20 -0.15
21 -0.14
22 -0.15
23 -0.15
24 0.44
25 -0.15
26 -0.15
27 0.13
28 -0.15
29 -0.14
3 1.45
30 0.18
31 1.16
32 0.18
33 -0.15
34 -0.15
35 -0.15
36 -0.15
39 0.15
4 -0.34
40 0.15
41 0.15
42 0.15
43 0.37
46 0.15
47 0.15
48 0.15
49 0.15
5 -0.34
50 0.15
51 0.15
52 0.15
6 -0.34
7 -0.65
8 -0.65
9 -0.57

> <PUBCHEM_EFFECTIVE_ROTOR_COUNT>
10

> <PUBCHEM_PHARMACOPHORE_FEATURES>
10
1 10 acceptor
1 10 anion
1 11 acceptor
1 13 donor
1 7 acceptor
1 8 acceptor
1 9 acceptor
6 16 18 20 21 25 26 rings
6 17 22 23 27 28 30 rings
6 29 32 33 34 35 36 rings

> <PUBCHEM_HEAVY_ATOM_COUNT>
36

> <PUBCHEM_ATOM_DEF_STEREO_COUNT>
0

> <PUBCHEM_ATOM_UDEF_STEREO_COUNT>
0

> <PUBCHEM_BOND_DEF_STEREO_COUNT>
0

> <PUBCHEM_BOND_UDEF_STEREO_COUNT>
0

> <PUBCHEM_ISOTOPIC_ATOM_COUNT>
0

> <PUBCHEM_COMPONENT_COUNT>
1

> <PUBCHEM_CACTVS_TAUTO_COUNT>
2

> <PUBCHEM_CONFORMER_ID>
003B47E800000002

> <PUBCHEM_MMFF94_ENERGY>
87.0907

> <PUBCHEM_FEATURE_SELFOVERLAP>
50.848

> <PUBCHEM_SHAPE_FINGERPRINT>
11112241 14 16987425607024071320
12422481 6 17531238440125522606
12788726 201 18268149751744199312
13617811 41 18409446969245065749
13642711 20 17530977864211877856
13726171 33 18046085997057204004
144659 39 17749100093305543290
14790565 3 18197787596252420905
20715895 44 18334565824824285694
20764821 26 18122626312442624838
23559900 14 18339932528559464646
460360 51 18043529632211135352
70251023 43 17559411153777222470
7226269 152 18261386754637904764

> <PUBCHEM_SHAPE_MULTIPOLES>
682.34
11.81
3.98
2.35
0.41
0.64
-0.21
-4.93
-2.38
0.58
-0.04
-0.26
-0.42
0.51

> <PUBCHEM_SHAPE_SELFOVERLAP>
1436.134

> <PUBCHEM_SHAPE_VOLUME>
389.9

> <PUBCHEM_COORDINATE_TYPE>
2
5
10

$$$$
