2803479
  -OEChem-01171809553D

 28 29  0     0  0  0  0  0  0999 V2000
    4.2653   -0.9365    0.2718 Cl  0  0  0  0  0  0  0  0  0  0  0  0
   -0.6199   -2.2851    0.2232 O   0  0  0  0  0  0  0  0  0  0  0  0
    3.0695    1.8107    0.0298 O   0  0  0  0  0  0  0  0  0  0  0  0
   -1.6174    2.5192    1.0260 O   0  0  0  0  0  0  0  0  0  0  0  0
   -2.4510   -1.5201   -1.0851 O   0  0  0  0  0  0  0  0  0  0  0  0
   -1.5271    0.3820   -0.0047 N   0  0  0  0  0  0  0  0  0  0  0  0
   -0.1332    0.0592    0.0623 C   0  0  0  0  0  0  0  0  0  0  0  0
    0.2852   -1.2668    0.1747 C   0  0  0  0  0  0  0  0  0  0  0  0
    0.8092    1.0863    0.0143 C   0  0  0  0  0  0  0  0  0  0  0  0
    2.1703    0.7873    0.0786 C   0  0  0  0  0  0  0  0  0  0  0  0
   -2.0960    1.5524    0.4558 C   0  0  0  0  0  0  0  0  0  0  0  0
   -2.5070   -0.4298   -0.5401 C   0  0  0  0  0  0  0  0  0  0  0  0
    1.6462   -1.5655    0.2390 C   0  0  0  0  0  0  0  0  0  0  0  0
    2.5887   -0.5385    0.1909 C   0  0  0  0  0  0  0  0  0  0  0  0
   -3.5373    1.4620    0.1808 C   0  0  0  0  0  0  0  0  0  0  0  0
   -3.7810    0.2894   -0.3960 C   0  0  0  0  0  0  0  0  0  0  0  0
   -0.1003   -3.6078    0.3384 C   0  0  0  0  0  0  0  0  0  0  0  0
    3.5358    2.2017   -1.2596 C   0  0  0  0  0  0  0  0  0  0  0  0
    0.5148    2.1252   -0.1018 H   0  0  0  0  0  0  0  0  0  0  0  0
    2.0304   -2.5765    0.3265 H   0  0  0  0  0  0  0  0  0  0  0  0
   -4.2542    2.2276    0.4260 H   0  0  0  0  0  0  0  0  0  0  0  0
   -4.7353   -0.0892   -0.7217 H   0  0  0  0  0  0  0  0  0  0  0  0
   -0.9581   -4.2881    0.3630 H   0  0  0  0  0  0  0  0  0  0  0  0
    0.4419   -3.7495    1.2795 H   0  0  0  0  0  0  0  0  0  0  0  0
    0.4974   -3.8855   -0.5366 H   0  0  0  0  0  0  0  0  0  0  0  0
    2.7140    2.6212   -1.8486 H   0  0  0  0  0  0  0  0  0  0  0  0
    3.9820    1.3557   -1.7916 H   0  0  0  0  0  0  0  0  0  0  0  0
    4.2995    2.9731   -1.1280 H   0  0  0  0  0  0  0  0  0  0  0  0
  1 14  1  0  0  0  0
  2  8  1  0  0  0  0
  2 17  1  0  0  0  0
  3 10  1  0  0  0  0
  3 18  1  0  0  0  0
  4 11  2  0  0  0  0
  5 12  2  0  0  0  0
  6  7  1  0  0  0  0
  6 11  1  0  0  0  0
  6 12  1  0  0  0  0
  7  8  1  0  0  0  0
  7  9  2  0  0  0  0
  8 13  2  0  0  0  0
  9 10  1  0  0  0  0
  9 19  1  0  0  0  0
 10 14  2  0  0  0  0
 11 15  1  0  0  0  0
 12 16  1  0  0  0  0
 13 14  1  0  0  0  0
 13 20  1  0  0  0  0
 15 16  2  0  0  0  0
 15 21  1  0  0  0  0
 16 22  1  0  0  0  0
 17 23  1  0  0  0  0
 17 24  1  0  0  0  0
 17 25  1  0  0  0  0
 18 26  1  0  0  0  0
 18 27  1  0  0  0  0
 18 28  1  0  0  0  0
M  END
> <PUBCHEM_COMPOUND_CID>
2803479

> <PUBCHEM_CONFORMER_RMSD>
0.6

> <PUBCHEM_CONFORMER_DIVERSEORDER>
5
3
2
4
1

> <PUBCHEM_MMFF94_PARTIAL_CHARGES>
22
1 -0.18
10 0.08
11 0.62
12 0.62
13 -0.15
14 0.18
15 -0.14
16 -0.14
17 0.28
18 0.28
19 0.15
2 -0.36
20 0.15
21 0.15
22 0.15
3 -0.36
4 -0.57
5 -0.57
6 -0.24
7 0.12
8 0.08
9 -0.15

> <PUBCHEM_EFFECTIVE_ROTOR_COUNT>
3.2

> <PUBCHEM_PHARMACOPHORE_FEATURES>
6
1 2 acceptor
1 3 acceptor
1 4 acceptor
1 5 acceptor
5 6 11 12 15 16 rings
6 7 8 9 10 13 14 rings

> <PUBCHEM_HEAVY_ATOM_COUNT>
18

> <PUBCHEM_ATOM_DEF_STEREO_COUNT>
0

> <PUBCHEM_ATOM_UDEF_STEREO_COUNT>
0

> <PUBCHEM_BOND_DEF_STEREO_COUNT>
0

> <PUBCHEM_BOND_UDEF_STEREO_COUNT>
0

> <PUBCHEM_ISOTOPIC_ATOM_COUNT>
0

> <PUBCHEM_COMPONENT_COUNT>
1

> <PUBCHEM_CACTVS_TAUTO_COUNT>
1

> <PUBCHEM_CONFORMER_ID>
002AC71700000005

> <PUBCHEM_MMFF94_ENERGY>
74.3877

> <PUBCHEM_FEATURE_SELFOVERLAP>
30.484

> <PUBCHEM_SHAPE_FINGERPRINT>
10411042 1 16969143125494437394
10967382 1 18267300924198425347
12173636 292 18410289250521637437
12553582 1 16968859962353057883
12788726 201 17755857876828437074
13140716 1 18411135818466129961
13583140 156 16660911283633000664
14178342 30 18052244107874449864
14787075 74 18264490749326038523
15196674 1 18411134757814974701
15279307 12 18271241600053634887
15309172 13 18335424538741385011
15342168 16 17968385644567378509
15442244 35 18410570661453529506
15490181 8 18410863135461988874
15536298 74 18343579638413207552
16945 1 18194399987841549427
18186145 218 18408880720297000260
20510252 161 18268433606122411683
20645476 183 18189345721635194004
20671657 1 18333735745327885492
21267235 1 18341054042903082575
21501502 16 18337951302699119638
21524375 3 18342455915516707334
2255824 54 18263365798132071626
2334 1 18410853308381195081
23402539 116 18271512139938017638
23463225 33 18337387132721648728
23557571 272 17979372068205292916
23558518 356 18116151258919442946
23559900 14 18201715172546762536
2748010 2 18336553797249609323
352729 6 18410857685090630498
474 4 18335423409217909073
5104073 3 18411697698983316041
57096353 35 18342449396109949301
7364860 26 17982448196396737735
7832392 63 17764592014693808889
81228 2 17828759886868698547
90316 7 16678931918688541955
90525 40 17988354859023929087
9709674 26 18270965760264037838
9981440 41 17832136496411494568

> <PUBCHEM_SHAPE_MULTIPOLES>
343.84
6.56
3.11
0.84
1.03
1.64
0.11
-2.7
0.74
0.6
-0.13
-0.01
-0.23
-1.2

> <PUBCHEM_SHAPE_SELFOVERLAP>
736.467

> <PUBCHEM_SHAPE_VOLUME>
192.1

> <PUBCHEM_COORDINATE_TYPE>
2
5
10

$$$$
