2378176
  -OEChem-01171809493D

 39 39  0     0  0  0  0  0  0999 V2000
   -6.2701    0.2595    0.6825 Cl  0  0  0  0  0  0  0  0  0  0  0  0
    5.8240    1.3036   -0.2418 O   0  0  0  0  0  0  0  0  0  0  0  0
    1.7822   -2.1030   -1.7086 O   0  0  0  0  0  0  0  0  0  0  0  0
   -3.2886    2.9734   -0.8547 O   0  5  0  0  0  0  0  0  0  0  0  0
   -5.2994    2.5068   -0.1080 O   0  0  0  0  0  0  0  0  0  0  0  0
    2.7570   -1.6458    0.3353 N   0  0  0  0  0  0  0  0  0  0  0  0
   -4.1334    2.1618   -0.4102 N   0  3  0  0  0  0  0  0  0  0  0  0
    0.1853   -0.4517    2.4861 N   0  0  0  0  0  0  0  0  0  0  0  0
    4.9066   -0.8785   -0.6073 C   0  0  0  0  0  0  0  0  0  0  0  0
    4.0988   -2.0365   -0.0361 C   0  0  0  0  0  0  0  0  0  0  0  0
    5.0761    0.2682    0.3820 C   0  0  0  0  0  0  0  0  0  0  0  0
    1.6891   -1.7118   -0.5461 C   0  0  0  0  0  0  0  0  0  0  0  0
    6.0173    2.4069    0.6329 C   0  0  0  0  0  0  0  0  0  0  0  0
   -2.0639   -0.8954   -0.4287 C   0  0  0  0  0  0  0  0  0  0  0  0
    0.3719   -1.2649    0.0360 C   0  0  0  0  0  0  0  0  0  0  0  0
   -0.6932   -1.2905   -0.7887 C   0  0  0  0  0  0  0  0  0  0  0  0
   -2.4549    0.4260   -0.5830 C   0  0  0  0  0  0  0  0  0  0  0  0
   -2.9420   -1.8521    0.0572 C   0  0  0  0  0  0  0  0  0  0  0  0
   -3.7552    0.7995   -0.2432 C   0  0  0  0  0  0  0  0  0  0  0  0
    6.8170    3.4721   -0.0864 C   0  0  0  0  0  0  0  0  0  0  0  0
   -4.2423   -1.4785    0.3969 C   0  0  0  0  0  0  0  0  0  0  0  0
   -4.6489   -0.1528    0.2468 C   0  0  0  0  0  0  0  0  0  0  0  0
    0.2667   -0.8162    1.3873 C   0  0  0  0  0  0  0  0  0  0  0  0
    4.4285   -0.4976   -1.5188 H   0  0  0  0  0  0  0  0  0  0  0  0
    5.8956   -1.2383   -0.9164 H   0  0  0  0  0  0  0  0  0  0  0  0
    4.0454   -2.8470   -0.7710 H   0  0  0  0  0  0  0  0  0  0  0  0
    4.5816   -2.4318    0.8639 H   0  0  0  0  0  0  0  0  0  0  0  0
    5.6068   -0.0828    1.2748 H   0  0  0  0  0  0  0  0  0  0  0  0
    4.0998    0.6641    0.6836 H   0  0  0  0  0  0  0  0  0  0  0  0
    2.6252   -1.3131    1.2846 H   0  0  0  0  0  0  0  0  0  0  0  0
    6.5591    2.0801    1.5276 H   0  0  0  0  0  0  0  0  0  0  0  0
    5.0464    2.8158    0.9345 H   0  0  0  0  0  0  0  0  0  0  0  0
   -0.6027   -1.6267   -1.8192 H   0  0  0  0  0  0  0  0  0  0  0  0
   -1.7362    1.1458   -0.9686 H   0  0  0  0  0  0  0  0  0  0  0  0
   -2.6375   -2.8884    0.1780 H   0  0  0  0  0  0  0  0  0  0  0  0
    6.9847    4.3383    0.5598 H   0  0  0  0  0  0  0  0  0  0  0  0
    7.7869    3.0764   -0.4056 H   0  0  0  0  0  0  0  0  0  0  0  0
    6.2947    3.8017   -0.9906 H   0  0  0  0  0  0  0  0  0  0  0  0
   -4.9261   -2.2332    0.7772 H   0  0  0  0  0  0  0  0  0  0  0  0
  1 22  1  0  0  0  0
  2 11  1  0  0  0  0
  2 13  1  0  0  0  0
  3 12  2  0  0  0  0
  4  7  1  0  0  0  0
  5  7  2  0  0  0  0
  6 10  1  0  0  0  0
  6 12  1  0  0  0  0
  6 30  1  0  0  0  0
  7 19  1  0  0  0  0
  8 23  3  0  0  0  0
  9 10  1  0  0  0  0
  9 11  1  0  0  0  0
  9 24  1  0  0  0  0
  9 25  1  0  0  0  0
 10 26  1  0  0  0  0
 10 27  1  0  0  0  0
 11 28  1  0  0  0  0
 11 29  1  0  0  0  0
 12 15  1  0  0  0  0
 13 20  1  0  0  0  0
 13 31  1  0  0  0  0
 13 32  1  0  0  0  0
 14 16  1  0  0  0  0
 14 17  2  0  0  0  0
 14 18  1  0  0  0  0
 15 16  2  0  0  0  0
 15 23  1  0  0  0  0
 16 33  1  0  0  0  0
 17 19  1  0  0  0  0
 17 34  1  0  0  0  0
 18 21  2  0  0  0  0
 18 35  1  0  0  0  0
 19 22  2  0  0  0  0
 20 36  1  0  0  0  0
 20 37  1  0  0  0  0
 20 38  1  0  0  0  0
 21 22  1  0  0  0  0
 21 39  1  0  0  0  0
M  CHG  2   4  -1   7   1
M  END
> <PUBCHEM_COMPOUND_CID>
2378176

> <PUBCHEM_CONFORMER_RMSD>
1

> <PUBCHEM_CONFORMER_DIVERSEORDER>
3
29
15
68
11
95
46
83
101
114
72
103
94
100
12
58
64
57
105
21
74
26
104
86
106
27
44
79
91
2
111
31
32
80
23
82
78
84
99
60
50
92
25
108
70
19
13
39
45
97
65
7
93
22
40
34
76
87
75
54
5
35
16
89
62
38
9
96
14
48
47
6
56
107
49
85
52
51
43
30
24
66
113
88
36
98
1
17
63
81
61
37
18
71
110
41
28
69
102
115
42
67
109
77
55
4
33
20
10
90
8
73
112
59
53
116

> <PUBCHEM_MMFF94_PARTIAL_CHARGES>
26
1 -0.18
10 0.3
11 0.28
12 0.62
13 0.28
14 0.03
15 0.08
16 -0.18
17 -0.15
18 -0.15
19 0.13
2 -0.56
21 -0.15
22 0.18
23 0.49
3 -0.57
30 0.37
33 0.15
34 0.15
35 0.15
39 0.15
4 -0.52
5 -0.52
6 -0.73
7 0.91
8 -0.56

> <PUBCHEM_EFFECTIVE_ROTOR_COUNT>
9

> <PUBCHEM_PHARMACOPHORE_FEATURES>
8
1 2 acceptor
1 3 acceptor
1 4 acceptor
1 4 anion
1 5 acceptor
1 6 donor
1 8 acceptor
6 14 17 18 19 21 22 rings

> <PUBCHEM_HEAVY_ATOM_COUNT>
23

> <PUBCHEM_ATOM_DEF_STEREO_COUNT>
0

> <PUBCHEM_ATOM_UDEF_STEREO_COUNT>
0

> <PUBCHEM_BOND_DEF_STEREO_COUNT>
1

> <PUBCHEM_BOND_UDEF_STEREO_COUNT>
0

> <PUBCHEM_ISOTOPIC_ATOM_COUNT>
0

> <PUBCHEM_COMPONENT_COUNT>
1

> <PUBCHEM_CACTVS_TAUTO_COUNT>
2

> <PUBCHEM_CONFORMER_ID>
002449C000000003

> <PUBCHEM_MMFF94_ENERGY>
57.803

> <PUBCHEM_FEATURE_SELFOVERLAP>
40.68

> <PUBCHEM_SHAPE_FINGERPRINT>
10692045 39 17749654222482907442
11796584 16 10375864156533126262
12236239 1 17241053094083203939
13911987 19 17346605200372905110
14211702 104 8646768911139724476
14251764 38 18187652465582031060
14739800 52 18114170887752549384
15475509 8 13829865615952363554
17844677 252 18339086973445843430
17959699 21 18413387636098208450
20058555 10 18410572907537465196
21304253 335 18335425660223838900
21315764 268 18190174586030720316
21585482 111 18334574634035383892
21641784 216 16845301496935458312
23559900 14 18054510205819795598
23569914 2 17611135552155020052
2838139 119 18411410731487251188
2916195 48 18334012782933310322
34797466 226 18131359591578977094
465052 167 11458431223762414818
5104073 3 18040995103332428842

> <PUBCHEM_SHAPE_MULTIPOLES>
436.78
16.69
3.31
1.19
14.73
2.78
0.46
14.34
0.8
2.94
-0.67
0.1
-0.29
1.13

> <PUBCHEM_SHAPE_SELFOVERLAP>
885.803

> <PUBCHEM_SHAPE_VOLUME>
254

> <PUBCHEM_COORDINATE_TYPE>
2
5
10

$$$$
