16745397
  -OEChem-01171809543D

 72 77  0     1  0  0  0  0  0999 V2000
    4.6890    1.6140    1.2890 O   0  0  0  0  0  0  0  0  0  0  0  0
    7.2978    0.9437    1.0925 O   0  0  0  0  0  0  0  0  0  0  0  0
    4.4424   -2.3028   -1.6554 O   0  0  0  0  0  0  0  0  0  0  0  0
   -5.0153   -0.9620    1.0005 O   0  0  0  0  0  0  0  0  0  0  0  0
   -7.2010   -1.1378    1.5243 O   0  0  0  0  0  0  0  0  0  0  0  0
   -8.9078    0.1301   -0.8771 O   0  0  0  0  0  0  0  0  0  0  0  0
    2.1485    0.8333    0.3334 C   0  0  2  0  0  0  0  0  0  0  0  0
    5.0817    0.8391    0.1267 C   0  0  1  0  0  0  0  0  0  0  0  0
    2.8380   -0.4344   -0.2649 C   0  0  1  0  0  0  0  0  0  0  0  0
    4.3989   -0.5406    0.0479 C   0  0  2  0  0  0  0  0  0  0  0  0
    0.6580    0.8283   -0.0370 C   0  0  1  0  0  0  0  0  0  0  0  0
   -0.0993   -0.4103    0.4778 C   0  0  1  0  0  0  0  0  0  0  0  0
    4.2764    2.1174    0.0241 C   0  0  1  0  0  0  0  0  0  0  0  0
    2.8129    2.1029   -0.2050 C   0  0  0  0  0  0  0  0  0  0  0  0
   -1.5222   -0.0599   -0.0218 C   0  0  2  0  0  0  0  0  0  0  0  0
    2.0367   -1.7230    0.1101 C   0  0  0  0  0  0  0  0  0  0  0  0
    0.5306   -1.6390   -0.1880 C   0  0  0  0  0  0  0  0  0  0  0  0
   -0.2216    1.9947    0.4065 C   0  0  0  0  0  0  0  0  0  0  0  0
   -1.6570    1.4484    0.2920 C   0  0  0  0  0  0  0  0  0  0  0  0
    6.5694    0.9360   -0.1380 C   0  0  2  0  0  0  0  0  0  0  0  0
    4.6681   -1.3082    1.3614 C   0  0  0  0  0  0  0  0  0  0  0  0
    5.0383   -1.3851   -1.0890 C   0  0  0  0  0  0  0  0  0  0  0  0
   -0.0744   -0.5702    2.0186 C   0  0  0  0  0  0  0  0  0  0  0  0
   -2.6662   -0.8879    0.5456 C   0  0  1  0  0  0  0  0  0  0  0  0
    7.1370   -0.1136   -1.0298 C   0  0  0  0  0  0  0  0  0  0  0  0
    6.4475   -1.1592   -1.4841 C   0  0  0  0  0  0  0  0  0  0  0  0
   -3.9876   -0.1439    0.4149 C   0  0  1  0  0  0  0  0  0  0  0  0
   -2.7489   -2.2467   -0.1503 C   0  0  0  0  0  0  0  0  0  0  0  0
   -4.3268    0.1382   -1.0379 C   0  0  0  0  0  0  0  0  0  0  0  0
   -5.7113    0.7199   -1.1172 C   0  0  0  0  0  0  0  0  0  0  0  0
   -6.3200   -0.6148    0.8486 C   0  0  0  0  0  0  0  0  0  0  0  0
   -6.6406    0.4061   -0.1921 C   0  0  0  0  0  0  0  0  0  0  0  0
   -5.9352    1.6287   -2.2939 C   0  0  0  0  0  0  0  0  0  0  0  0
   -8.0359    0.9587   -0.1325 C   0  0  0  0  0  0  0  0  0  0  0  0
    2.2592    0.8201    1.4238 H   0  0  0  0  0  0  0  0  0  0  0  0
    2.7461   -0.3318   -1.3581 H   0  0  0  0  0  0  0  0  0  0  0  0
    0.6145    0.8231   -1.1397 H   0  0  0  0  0  0  0  0  0  0  0  0
    4.7469    3.0202   -0.3416 H   0  0  0  0  0  0  0  0  0  0  0  0
    2.6277    2.2019   -1.2817 H   0  0  0  0  0  0  0  0  0  0  0  0
    2.3774    2.9869    0.2747 H   0  0  0  0  0  0  0  0  0  0  0  0
   -1.5267   -0.1516   -1.1186 H   0  0  0  0  0  0  0  0  0  0  0  0
    2.1602   -1.9442    1.1752 H   0  0  0  0  0  0  0  0  0  0  0  0
    2.4317   -2.5913   -0.4251 H   0  0  0  0  0  0  0  0  0  0  0  0
    0.3847   -1.6064   -1.2750 H   0  0  0  0  0  0  0  0  0  0  0  0
    0.0690   -2.5645    0.1657 H   0  0  0  0  0  0  0  0  0  0  0  0
   -0.0821    2.8761   -0.2279 H   0  0  0  0  0  0  0  0  0  0  0  0
   -0.0031    2.2905    1.4389 H   0  0  0  0  0  0  0  0  0  0  0  0
   -2.1503    1.6454    1.2494 H   0  0  0  0  0  0  0  0  0  0  0  0
   -2.1951    1.9944   -0.4873 H   0  0  0  0  0  0  0  0  0  0  0  0
    6.7718    1.9024   -0.6166 H   0  0  0  0  0  0  0  0  0  0  0  0
    4.1180   -0.8676    2.1999 H   0  0  0  0  0  0  0  0  0  0  0  0
    4.3961   -2.3666    1.2842 H   0  0  0  0  0  0  0  0  0  0  0  0
    5.7316   -1.2859    1.6257 H   0  0  0  0  0  0  0  0  0  0  0  0
   -0.6294    0.2209    2.5328 H   0  0  0  0  0  0  0  0  0  0  0  0
   -0.5116   -1.5287    2.3201 H   0  0  0  0  0  0  0  0  0  0  0  0
    0.9393   -0.5561    2.4276 H   0  0  0  0  0  0  0  0  0  0  0  0
   -2.5358   -1.0831    1.6153 H   0  0  0  0  0  0  0  0  0  0  0  0
    8.1708    0.0030   -1.3451 H   0  0  0  0  0  0  0  0  0  0  0  0
    6.9039   -1.8766   -2.1571 H   0  0  0  0  0  0  0  0  0  0  0  0
   -3.9881    0.7790    1.0039 H   0  0  0  0  0  0  0  0  0  0  0  0
   -2.6098   -2.1758   -1.2341 H   0  0  0  0  0  0  0  0  0  0  0  0
   -1.9830   -2.9236    0.2354 H   0  0  0  0  0  0  0  0  0  0  0  0
   -3.7025   -2.7534    0.0308 H   0  0  0  0  0  0  0  0  0  0  0  0
    8.2373    1.0831    0.8831 H   0  0  0  0  0  0  0  0  0  0  0  0
   -4.3369   -0.7730   -1.6472 H   0  0  0  0  0  0  0  0  0  0  0  0
   -3.6169    0.8266   -1.5003 H   0  0  0  0  0  0  0  0  0  0  0  0
   -5.3445    2.5436   -2.1818 H   0  0  0  0  0  0  0  0  0  0  0  0
   -6.9813    1.9160   -2.4252 H   0  0  0  0  0  0  0  0  0  0  0  0
   -5.6260    1.1287   -3.2181 H   0  0  0  0  0  0  0  0  0  0  0  0
   -8.0853    1.9756   -0.5343 H   0  0  0  0  0  0  0  0  0  0  0  0
   -8.3958    1.0176    0.9007 H   0  0  0  0  0  0  0  0  0  0  0  0
   -9.7971    0.5182   -0.8140 H   0  0  0  0  0  0  0  0  0  0  0  0
  1  8  1  0  0  0  0
  1 13  1  0  0  0  0
  2 20  1  0  0  0  0
  2 64  1  0  0  0  0
  3 22  2  0  0  0  0
  4 27  1  0  0  0  0
  4 31  1  0  0  0  0
  5 31  2  0  0  0  0
  6 34  1  0  0  0  0
  6 72  1  0  0  0  0
  7  9  1  0  0  0  0
  7 11  1  0  0  0  0
  7 14  1  0  0  0  0
  7 35  1  0  0  0  0
  8 10  1  0  0  0  0
  8 13  1  0  0  0  0
  8 20  1  0  0  0  0
  9 10  1  0  0  0  0
  9 16  1  0  0  0  0
  9 36  1  0  0  0  0
 10 21  1  0  0  0  0
 10 22  1  0  0  0  0
 11 12  1  0  0  0  0
 11 18  1  0  0  0  0
 11 37  1  0  0  0  0
 12 15  1  0  0  0  0
 12 17  1  0  0  0  0
 12 23  1  0  0  0  0
 13 14  1  0  0  0  0
 13 38  1  0  0  0  0
 14 39  1  0  0  0  0
 14 40  1  0  0  0  0
 15 19  1  0  0  0  0
 15 24  1  0  0  0  0
 15 41  1  0  0  0  0
 16 17  1  0  0  0  0
 16 42  1  0  0  0  0
 16 43  1  0  0  0  0
 17 44  1  0  0  0  0
 17 45  1  0  0  0  0
 18 19  1  0  0  0  0
 18 46  1  0  0  0  0
 18 47  1  0  0  0  0
 19 48  1  0  0  0  0
 19 49  1  0  0  0  0
 20 25  1  0  0  0  0
 20 50  1  0  0  0  0
 21 51  1  0  0  0  0
 21 52  1  0  0  0  0
 21 53  1  0  0  0  0
 22 26  1  0  0  0  0
 23 54  1  0  0  0  0
 23 55  1  0  0  0  0
 23 56  1  0  0  0  0
 24 27  1  0  0  0  0
 24 28  1  0  0  0  0
 24 57  1  0  0  0  0
 25 26  2  0  0  0  0
 25 58  1  0  0  0  0
 26 59  1  0  0  0  0
 27 29  1  0  0  0  0
 27 60  1  0  0  0  0
 28 61  1  0  0  0  0
 28 62  1  0  0  0  0
 28 63  1  0  0  0  0
 29 30  1  0  0  0  0
 29 65  1  0  0  0  0
 29 66  1  0  0  0  0
 30 32  2  0  0  0  0
 30 33  1  0  0  0  0
 31 32  1  0  0  0  0
 32 34  1  0  0  0  0
 33 67  1  0  0  0  0
 33 68  1  0  0  0  0
 33 69  1  0  0  0  0
 34 70  1  0  0  0  0
 34 71  1  0  0  0  0
M  END
> <PUBCHEM_COMPOUND_CID>
16745397

> <PUBCHEM_CONFORMER_RMSD>
0.8

> <PUBCHEM_CONFORMER_DIVERSEORDER>
1
83
108
42
120
31
115
61
21
121
18
95
32
76
2
39
78
68
81
53
118
27
103
10
55
66
57
16
80
6
64
122
14
87
52
72
8
88
3
102
62
109
58
65
24
93
94
4
7
33
48
67
85
25
77
111
60
114
13
54
101
50
43
110
123
49
28
22
107
9
90
19
17
29
97
84
92
35
100
112
34
116
38
96
12
44
23
119
5
70
30
86
56
71
99
36
47
41
117
63
73
51
69
26
40
82
59
104
15
11
98
79
45
74
75
105
113
91
20
89
106
37
46

> <PUBCHEM_MMFF94_PARTIAL_CHARGES>
26
1 -0.3
10 0.16
13 -0.05
14 0.09
2 -0.68
20 0.51
22 0.49
25 -0.29
26 -0.14
27 0.28
29 0.14
3 -0.57
30 -0.28
31 0.71
32 -0.12
33 0.14
34 0.42
38 0.1
4 -0.43
5 -0.57
58 0.15
59 0.15
6 -0.68
64 0.4
72 0.4
8 -0.04

> <PUBCHEM_EFFECTIVE_ROTOR_COUNT>
5.2

> <PUBCHEM_PHARMACOPHORE_FEATURES>
13
1 1 acceptor
1 2 acceptor
1 2 donor
1 28 hydrophobe
1 3 acceptor
1 5 acceptor
1 6 acceptor
1 6 donor
5 11 12 15 18 19 rings
6 4 27 29 30 31 32 rings
6 7 9 11 12 16 17 rings
6 8 10 20 22 25 26 rings
7 1 7 8 9 10 13 14 rings

> <PUBCHEM_HEAVY_ATOM_COUNT>
34

> <PUBCHEM_ATOM_DEF_STEREO_COUNT>
7

> <PUBCHEM_ATOM_UDEF_STEREO_COUNT>
4

> <PUBCHEM_BOND_DEF_STEREO_COUNT>
0

> <PUBCHEM_BOND_UDEF_STEREO_COUNT>
0

> <PUBCHEM_ISOTOPIC_ATOM_COUNT>
0

> <PUBCHEM_COMPONENT_COUNT>
1

> <PUBCHEM_CACTVS_TAUTO_COUNT>
1

> <PUBCHEM_CONFORMER_ID>
00FF83B500000001

> <PUBCHEM_MMFF94_ENERGY>
116.7778

> <PUBCHEM_FEATURE_SELFOVERLAP>
66.069

> <PUBCHEM_SHAPE_FINGERPRINT>
10 15 18040432234824941745
10299344 5 16343984702168640183
11135926 11 18130790049362595647
11497681 19 18198900513206870559
11578080 2 13913475856426237484
11719270 70 18410852153019772523
12236239 1 17203332208265365259
12838862 33 18339909481004493401
13533116 47 17418379069588437066
13782708 43 12463562980917545485
13811026 1 18410573972303479040
14068700 675 15051731993442885939
14118638 360 18130511842929674824
14170010 4 18343867727866433292
14251764 18 14490193820977050094
14294032 229 14691473666727451779
14840074 17 17703788102633747703
14849402 71 13695883544297075711
14856354 85 15554444111747209229
14933364 13 18040154020034233781
150020 25 18334296448881224143
15082195 135 18187660089486280284
15119646 104 16702308922931632503
15131766 46 16735535233349407308
15183329 4 18272932717730276273
15198563 99 18338239245628651261
15276724 80 18269839714375909677
15419008 47 18259701199081770429
15439362 3 17534638298458946636
15849732 13 18413390947465077559
18608769 82 18113620119175776835
20105231 36 18336839632056469147
20157964 124 18202284710732004934
21033648 29 18115300202559377056
21267235 1 18340497711087900690
21792934 111 18338221683485115960
21792961 116 18261392196024008151
221357 26 18272937098924225680
23516275 137 15625406578681207335
23559900 14 18342736364455339352
23569914 152 17261860058457557871
23576562 1 18338227297972775093
24771750 20 17975427020169237668
249057 3 18342177790661960518
255183 451 17486789480689470702
3004659 81 18408324393336162352
335352 9 18411983576264535765
3633792 109 18130793321990037859
4073 2 17823141287929717578
4093350 32 17775006769415914886
4325135 7 17704072889119881316
4340502 62 17022897952111635546
59755656 215 18335701624551643516
6081469 158 18336271150817634734
6086070 43 17417243368344672931

> <PUBCHEM_SHAPE_MULTIPOLES>
664.49
22.97
2.09
1.43
21.27
0.08
0.19
2.12
4.46
-1.21
0.16
0.13
-0.15
2.54

> <PUBCHEM_SHAPE_SELFOVERLAP>
1442.098

> <PUBCHEM_SHAPE_VOLUME>
360.2

> <PUBCHEM_COORDINATE_TYPE>
2
5
10

$$$$
