46942741
  -OEChem-01171810183D

 61 63  0     1  0  0  0  0  0999 V2000
   -1.9857    2.0679   -2.5320 S   0  0  0  0  0  0  0  0  0  0  0  0
   -0.2002   -0.1003    1.2113 O   0  0  0  0  0  0  0  0  0  0  0  0
    2.6933   -0.1640    1.0116 N   0  0  0  0  0  0  0  0  0  0  0  0
    3.9805    0.2212    0.9771 N   0  0  0  0  0  0  0  0  0  0  0  0
   -4.9990   -1.2045   -0.6938 N   0  0  0  0  0  0  0  0  0  0  0  0
   -0.2650    1.1963   -0.7564 N   0  0  0  0  0  0  0  0  0  0  0  0
   -2.5843    0.6020   -0.4885 N   0  0  0  0  0  0  0  0  0  0  0  0
    5.1638    2.1724    0.1412 C   0  0  0  0  0  0  0  0  0  0  0  0
    3.9249    1.4105    0.3714 C   0  0  0  0  0  0  0  0  0  0  0  0
   -5.3980    0.7269    0.7863 C   0  0  0  0  0  0  0  0  0  0  0  0
   -6.6724    0.0943    1.3881 C   0  0  0  0  0  0  0  0  0  0  0  0
   -5.0465    0.2643   -0.6463 C   0  0  1  0  0  0  0  0  0  0  0  0
    5.1323    3.5682    0.8530 C   0  0  0  0  0  0  0  0  0  0  0  0
    5.4080    2.4449   -1.3826 C   0  0  0  0  0  0  0  0  0  0  0  0
    6.4927    1.4975    0.6440 C   0  0  0  0  0  0  0  0  0  0  0  0
    2.6127    1.7817    0.0221 C   0  0  0  0  0  0  0  0  0  0  0  0
    1.8337    0.7353    0.4522 C   0  0  0  0  0  0  0  0  0  0  0  0
    2.3522   -1.4342    1.6090 C   0  0  0  0  0  0  0  0  0  0  0  0
   -3.7534    0.8520   -1.1803 C   0  0  0  0  0  0  0  0  0  0  0  0
   -6.9309    0.5540    2.8237 C   0  0  0  0  0  0  0  0  0  0  0  0
   -7.8808    0.4396    0.5126 C   0  0  0  0  0  0  0  0  0  0  0  0
    0.3597    0.5716    0.3517 C   0  0  0  0  0  0  0  0  0  0  0  0
    2.0807   -2.5178    0.5953 C   0  0  0  0  0  0  0  0  0  0  0  0
   -1.5883    1.1938   -1.1097 C   0  0  0  0  0  0  0  0  0  0  0  0
   -3.6289    1.6280   -2.3137 C   0  0  0  0  0  0  0  0  0  0  0  0
    0.8567   -3.1868    0.6001 C   0  0  0  0  0  0  0  0  0  0  0  0
    3.0539   -2.8509   -0.3467 C   0  0  0  0  0  0  0  0  0  0  0  0
    0.6060   -4.1890   -0.3372 C   0  0  0  0  0  0  0  0  0  0  0  0
    2.8032   -3.8530   -1.2841 C   0  0  0  0  0  0  0  0  0  0  0  0
    1.5792   -4.5221   -1.2793 C   0  0  0  0  0  0  0  0  0  0  0  0
   -5.4945    1.8212    0.7915 H   0  0  0  0  0  0  0  0  0  0  0  0
   -4.5559    0.5000    1.4552 H   0  0  0  0  0  0  0  0  0  0  0  0
   -6.5670   -0.9958    1.4265 H   0  0  0  0  0  0  0  0  0  0  0  0
   -5.8466    0.5884   -1.3232 H   0  0  0  0  0  0  0  0  0  0  0  0
    4.2973    4.1778    0.4890 H   0  0  0  0  0  0  0  0  0  0  0  0
    5.0067    3.4481    1.9354 H   0  0  0  0  0  0  0  0  0  0  0  0
    6.3303    3.0132   -1.5481 H   0  0  0  0  0  0  0  0  0  0  0  0
    5.4842    1.5023   -1.9372 H   0  0  0  0  0  0  0  0  0  0  0  0
    4.5818    3.0187   -1.8181 H   0  0  0  0  0  0  0  0  0  0  0  0
    7.3682    2.1235    0.4369 H   0  0  0  0  0  0  0  0  0  0  0  0
    6.4548    1.3204    1.7252 H   0  0  0  0  0  0  0  0  0  0  0  0
    6.6481    0.5298    0.1529 H   0  0  0  0  0  0  0  0  0  0  0  0
    6.0557    4.1315    0.6775 H   0  0  0  0  0  0  0  0  0  0  0  0
    2.2818    2.6854   -0.4695 H   0  0  0  0  0  0  0  0  0  0  0  0
    1.5194   -1.2851    2.3026 H   0  0  0  0  0  0  0  0  0  0  0  0
    3.1982   -1.7492    2.2344 H   0  0  0  0  0  0  0  0  0  0  0  0
   -7.8245    0.0728    3.2349 H   0  0  0  0  0  0  0  0  0  0  0  0
   -6.0844    0.2965    3.4690 H   0  0  0  0  0  0  0  0  0  0  0  0
   -7.8185   -0.0300   -0.4732 H   0  0  0  0  0  0  0  0  0  0  0  0
   -8.8065    0.0790    0.9751 H   0  0  0  0  0  0  0  0  0  0  0  0
   -7.9774    1.5219    0.3739 H   0  0  0  0  0  0  0  0  0  0  0  0
   -7.0754    1.6386    2.8723 H   0  0  0  0  0  0  0  0  0  0  0  0
   -5.9221   -1.5900   -0.5019 H   0  0  0  0  0  0  0  0  0  0  0  0
   -4.7747   -1.5048   -1.6426 H   0  0  0  0  0  0  0  0  0  0  0  0
   -4.3963    1.9490   -3.0038 H   0  0  0  0  0  0  0  0  0  0  0  0
    0.3303    1.7152   -1.3970 H   0  0  0  0  0  0  0  0  0  0  0  0
    0.0902   -2.9410    1.3299 H   0  0  0  0  0  0  0  0  0  0  0  0
    4.0166   -2.3476   -0.3607 H   0  0  0  0  0  0  0  0  0  0  0  0
   -0.3468   -4.7104   -0.3332 H   0  0  0  0  0  0  0  0  0  0  0  0
    3.5616   -4.1139   -2.0164 H   0  0  0  0  0  0  0  0  0  0  0  0
    1.3843   -5.3027   -2.0087 H   0  0  0  0  0  0  0  0  0  0  0  0
  1 24  1  0  0  0  0
  1 25  1  0  0  0  0
  2 22  2  0  0  0  0
  3  4  1  0  0  0  0
  3 17  1  0  0  0  0
  3 18  1  0  0  0  0
  4  9  2  0  0  0  0
  5 12  1  0  0  0  0
  5 53  1  0  0  0  0
  5 54  1  0  0  0  0
  6 22  1  0  0  0  0
  6 24  1  0  0  0  0
  6 56  1  0  0  0  0
  7 19  1  0  0  0  0
  7 24  2  0  0  0  0
  8  9  1  0  0  0  0
  8 13  1  0  0  0  0
  8 14  1  0  0  0  0
  8 15  1  0  0  0  0
  9 16  1  0  0  0  0
 10 11  1  0  0  0  0
 10 12  1  0  0  0  0
 10 31  1  0  0  0  0
 10 32  1  0  0  0  0
 11 20  1  0  0  0  0
 11 21  1  0  0  0  0
 11 33  1  0  0  0  0
 12 19  1  0  0  0  0
 12 34  1  0  0  0  0
 13 35  1  0  0  0  0
 13 36  1  0  0  0  0
 13 43  1  0  0  0  0
 14 37  1  0  0  0  0
 14 38  1  0  0  0  0
 14 39  1  0  0  0  0
 15 40  1  0  0  0  0
 15 41  1  0  0  0  0
 15 42  1  0  0  0  0
 16 17  2  0  0  0  0
 16 44  1  0  0  0  0
 17 22  1  0  0  0  0
 18 23  1  0  0  0  0
 18 45  1  0  0  0  0
 18 46  1  0  0  0  0
 19 25  2  0  0  0  0
 20 47  1  0  0  0  0
 20 48  1  0  0  0  0
 20 52  1  0  0  0  0
 21 49  1  0  0  0  0
 21 50  1  0  0  0  0
 21 51  1  0  0  0  0
 23 26  2  0  0  0  0
 23 27  1  0  0  0  0
 25 55  1  0  0  0  0
 26 28  1  0  0  0  0
 26 57  1  0  0  0  0
 27 29  2  0  0  0  0
 27 58  1  0  0  0  0
 28 30  2  0  0  0  0
 28 59  1  0  0  0  0
 29 30  1  0  0  0  0
 29 60  1  0  0  0  0
 30 61  1  0  0  0  0
M  END
> <PUBCHEM_COMPOUND_CID>
46942741

> <PUBCHEM_CONFORMER_RMSD>
1.2

> <PUBCHEM_CONFORMER_DIVERSEORDER>
1
151
53
68
160
46
106
108
33
45
110
94
115
119
8
130
128
44
166
174
9
175
42
153
105
121
49
139
104
29
103
24
2
132
10
125
66
136
32
63
65
83
64
97
89
23
60
100
92
41
143
78
163
13
99
168
18
126
140
35
123
11
176
113
162
117
5
27
145
16
169
80
88
164
59
85
109
31
127
118
82
76
15
34
144
116
73
124
167
17
81
67
37
25
161
72
57
62
52
177
79
95
7
36
69
39
131
158
61
141
93
111
135
12
172
157
54
159
165
55
90
98
152
28
170
171
26
146
142
178
75
20
91
77
22
40
87
107
147
74
156
38
96
134
154
173
155
21
19
50
30
47
102
4
56
71
138
58
129
14
148
101
137
86
122
6
48
149
133
51
3
120
112
150
84
114
179
70
43

> <PUBCHEM_MMFF94_PARTIAL_CHARGES>
33
1 -0.08
12 0.45
16 -0.15
17 -0.24
18 0.4
19 0.05
2 -0.57
22 0.71
23 -0.14
24 0.44
25 -0.11
26 -0.15
27 -0.15
28 -0.15
29 -0.15
3 0.31
30 -0.15
4 -0.71
44 0.15
5 -0.99
53 0.36
54 0.36
55 0.15
56 0.37
57 0.15
58 0.15
59 0.15
6 -0.49
60 0.15
61 0.15
7 -0.57
8 0.18
9 0.11

> <PUBCHEM_EFFECTIVE_ROTOR_COUNT>
9

> <PUBCHEM_PHARMACOPHORE_FEATURES>
10
1 2 acceptor
1 4 acceptor
1 5 cation
1 5 donor
1 6 donor
3 11 20 21 hydrophobe
4 8 13 14 15 hydrophobe
5 1 7 19 24 25 rings
5 3 4 9 16 17 rings
6 23 26 27 28 29 30 rings

> <PUBCHEM_HEAVY_ATOM_COUNT>
30

> <PUBCHEM_ATOM_DEF_STEREO_COUNT>
0

> <PUBCHEM_ATOM_UDEF_STEREO_COUNT>
1

> <PUBCHEM_BOND_DEF_STEREO_COUNT>
0

> <PUBCHEM_BOND_UDEF_STEREO_COUNT>
0

> <PUBCHEM_ISOTOPIC_ATOM_COUNT>
0

> <PUBCHEM_COMPONENT_COUNT>
1

> <PUBCHEM_CACTVS_TAUTO_COUNT>
3

> <PUBCHEM_CONFORMER_ID>
02CC4A1500000001

> <PUBCHEM_MMFF94_ENERGY>
57.5069

> <PUBCHEM_FEATURE_SELFOVERLAP>
50.745

> <PUBCHEM_SHAPE_FINGERPRINT>
10169797 241 18188494562228717978
10369192 42 18334010635877398684
10674148 151 16988567914117706888
10985338 15 18122066665784219308
11135926 11 18341604915044405813
11181472 205 18129384796805180065
11421498 54 18059853926740368544
11488393 25 18264203617497721050
12156800 1 17899999393196203654
12166972 35 11891329863697325005
12730499 353 18334012787703200360
13533116 47 18130224861915537187
13540713 4 17970057851956696253
14114211 80 18200314445407978847
14659021 117 16393229293963041994
15183329 4 12607136126883313165
15357212 105 18120104887552680837
15392192 104 18410862092660421819
16994733 274 15337967911473608650
17913733 40 18412261761291204904
19315958 150 18410580561938592545
1979834 28 18260835907791859357
21133410 38 18272089418694551711
21344244 181 18272663346483434190
21365058 27 18341337793943539126
21623969 137 18186802474431909593
22440779 20 17177192243129124721
2260408 40 17773023151549963466
23559900 14 18049139099922577116
25222932 49 17168142381974509955
27425 322 18058451087564169844
3178227 256 18337386055365599770
3737641 26 18339080385250666069
38695281 34 18337936953608944804
437795 51 18339092509706128662
46194498 28 18262798449878918838
5104073 3 17677316217913860561
563151 40 18200031875188247430
6669772 16 18343015602302806278
7399639 24 18114454587496114341

> <PUBCHEM_SHAPE_MULTIPOLES>
590.46
16.85
4.95
2.02
24.56
6.76
-0.22
-11.61
7.15
-8.93
-1.89
2.79
-0.67
1.57

> <PUBCHEM_SHAPE_SELFOVERLAP>
1224.757

> <PUBCHEM_SHAPE_VOLUME>
342.3

> <PUBCHEM_COORDINATE_TYPE>
2
5
10

$$$$
