2452801
  -OEChem-01171809263D

 32 33  0     0  0  0  0  0  0999 V2000
    4.0824    0.9842    2.2511 Cl  0  0  0  0  0  0  0  0  0  0  0  0
    5.8483    0.2979   -0.4324 Cl  0  0  0  0  0  0  0  0  0  0  0  0
   -0.2670    0.7349   -1.6624 O   0  0  0  0  0  0  0  0  0  0  0  0
    1.3326    0.0744    1.8773 O   0  0  0  0  0  0  0  0  0  0  0  0
    1.5105   -0.8059   -0.2567 N   0  0  0  0  0  0  0  0  0  0  0  0
    2.2604   -1.0834   -1.3645 N   0  0  0  0  0  0  0  0  0  0  0  0
   -2.1184    0.1088   -0.3634 C   0  0  0  0  0  0  0  0  0  0  0  0
   -2.6913    1.3615   -0.3072 C   0  0  0  0  0  0  0  0  0  0  0  0
    0.1087   -1.1913   -0.2651 C   0  0  0  0  0  0  0  0  0  0  0  0
   -0.7106   -0.0452   -0.8227 C   0  0  0  0  0  0  0  0  0  0  0  0
   -2.8048   -1.0328   -0.0040 C   0  0  0  0  0  0  0  0  0  0  0  0
   -4.1247   -0.9151    0.4315 C   0  0  0  0  0  0  0  0  0  0  0  0
   -4.0114    1.4790    0.1283 C   0  0  0  0  0  0  0  0  0  0  0  0
   -4.7280    0.3408    0.4978 C   0  0  0  0  0  0  0  0  0  0  0  0
   -1.9466    2.5974   -0.6948 C   0  0  0  0  0  0  0  0  0  0  0  0
   -4.8914   -2.1315    0.8277 C   0  0  0  0  0  0  0  0  0  0  0  0
    2.0098   -0.1758    0.8795 C   0  0  0  0  0  0  0  0  0  0  0  0
    3.4518    0.2024    0.8480 C   0  0  0  0  0  0  0  0  0  0  0  0
    3.5017   -0.7345   -1.3385 C   0  0  0  0  0  0  0  0  0  0  0  0
    4.1879   -0.0657   -0.2297 C   0  0  0  0  0  0  0  0  0  0  0  0
   -0.0175   -2.0731   -0.9020 H   0  0  0  0  0  0  0  0  0  0  0  0
   -0.2039   -1.4319    0.7555 H   0  0  0  0  0  0  0  0  0  0  0  0
   -2.3573   -2.0202   -0.0657 H   0  0  0  0  0  0  0  0  0  0  0  0
   -4.4970    2.4497    0.1851 H   0  0  0  0  0  0  0  0  0  0  0  0
   -5.7551    0.4463    0.8371 H   0  0  0  0  0  0  0  0  0  0  0  0
   -1.8235    2.6555   -1.7807 H   0  0  0  0  0  0  0  0  0  0  0  0
   -2.4925    3.4979   -0.3891 H   0  0  0  0  0  0  0  0  0  0  0  0
   -0.9738    2.6526   -0.1949 H   0  0  0  0  0  0  0  0  0  0  0  0
   -4.6839   -2.3824    1.8727 H   0  0  0  0  0  0  0  0  0  0  0  0
   -5.9698   -1.9778    0.7137 H   0  0  0  0  0  0  0  0  0  0  0  0
   -4.6218   -2.9869    0.1990 H   0  0  0  0  0  0  0  0  0  0  0  0
    4.1169   -0.9532   -2.2270 H   0  0  0  0  0  0  0  0  0  0  0  0
  1 18  1  0  0  0  0
  2 20  1  0  0  0  0
  3 10  2  0  0  0  0
  4 17  2  0  0  0  0
  5  6  1  0  0  0  0
  5  9  1  0  0  0  0
  5 17  1  0  0  0  0
  6 19  2  0  0  0  0
  7  8  2  0  0  0  0
  7 10  1  0  0  0  0
  7 11  1  0  0  0  0
  8 13  1  0  0  0  0
  8 15  1  0  0  0  0
  9 10  1  0  0  0  0
  9 21  1  0  0  0  0
  9 22  1  0  0  0  0
 11 12  2  0  0  0  0
 11 23  1  0  0  0  0
 12 14  1  0  0  0  0
 12 16  1  0  0  0  0
 13 14  2  0  0  0  0
 13 24  1  0  0  0  0
 14 25  1  0  0  0  0
 15 26  1  0  0  0  0
 15 27  1  0  0  0  0
 15 28  1  0  0  0  0
 16 29  1  0  0  0  0
 16 30  1  0  0  0  0
 16 31  1  0  0  0  0
 17 18  1  0  0  0  0
 18 20  2  0  0  0  0
 19 20  1  0  0  0  0
 19 32  1  0  0  0  0
M  END
> <PUBCHEM_COMPOUND_CID>
2452801

> <PUBCHEM_CONFORMER_RMSD>
0.6

> <PUBCHEM_CONFORMER_DIVERSEORDER>
1
10
38
93
60
86
17
100
18
74
89
97
69
9
31
56
33
14
58
85
92
87
23
44
45
63
88
94
84
43
36
46
67
11
50
99
70
79
48
34
40
96
62
77
65
53
81
51
73
78
22
15
2
71
83
72
47
37
76
16
54
30
64
19
4
91
82
61
8
25
98
32
57
6
90
95
41
55
66
26
3
75
24
80
52
59
5
68
49
35
7
39
28
12
20
29
42
13
27
21

> <PUBCHEM_MMFF94_PARTIAL_CHARGES>
24
1 -0.14
10 0.42
11 -0.15
12 -0.14
13 -0.15
14 -0.15
15 0.14
16 0.14
17 0.62
18 0.15
19 0.38
2 -0.14
20 0.15
23 0.15
24 0.15
25 0.15
3 -0.57
32 0.06
4 -0.57
5 -0.3
6 -0.51
7 0.09
8 -0.14
9 0.36

> <PUBCHEM_EFFECTIVE_ROTOR_COUNT>
3

> <PUBCHEM_PHARMACOPHORE_FEATURES>
5
1 3 acceptor
1 4 acceptor
1 6 acceptor
6 5 6 17 18 19 20 rings
6 7 8 11 12 13 14 rings

> <PUBCHEM_HEAVY_ATOM_COUNT>
20

> <PUBCHEM_ATOM_DEF_STEREO_COUNT>
0

> <PUBCHEM_ATOM_UDEF_STEREO_COUNT>
0

> <PUBCHEM_BOND_DEF_STEREO_COUNT>
0

> <PUBCHEM_BOND_UDEF_STEREO_COUNT>
0

> <PUBCHEM_ISOTOPIC_ATOM_COUNT>
0

> <PUBCHEM_COMPONENT_COUNT>
1

> <PUBCHEM_CACTVS_TAUTO_COUNT>
2

> <PUBCHEM_CONFORMER_ID>
00256D4100000001

> <PUBCHEM_MMFF94_ENERGY>
57.3375

> <PUBCHEM_FEATURE_SELFOVERLAP>
25.373

> <PUBCHEM_SHAPE_FINGERPRINT>
10319926 262 18337378337003368314
10366900 7 18272641334343148083
10447042 23 15430309256685475170
10498660 4 18335417911754969189
11370993 144 17631749166387531075
11552529 35 16271355448342980415
11595378 159 17822567227069980708
12236239 1 17167581596457686702
12403259 415 18060697316883717624
12596602 18 17458063789787640608
12730499 353 17846503651442263342
13224815 77 16660361446193452786
13583140 156 17972565915014484792
13760787 5 15626224619468171034
13782708 43 18202005421461917782
14081887 123 18335133159928941841
14289901 80 18041282062734053472
14341114 328 17822009787375016536
14787075 74 17167866395876332036
15081414 286 16916784141271905352
15375462 189 16732706042978778893
16988056 13 14798654807564808541
17138139 8 16445598427319156579
17349148 13 16298385751414529018
18186145 218 17131824383337709838
19433438 28 18343300379344157762
200 152 15430032158496567335
20511986 3 16588288489506043029
20645477 56 18060697294965860478
20645477 70 16988286361404317846
21033648 29 17774712091762367297
21065201 7 18334860467759561191
22122407 14 16128390280768109771
221357 26 16988278681617852240
2297311 6 18411149029822494525
23402539 116 18040434403735998951
23503958 25 18272079479343189016
23557571 272 18411426115263461661
23559900 14 18266183833317064495
25 1 17346874538267688742
2838139 119 15553329082502891953
5104073 3 18342178808648656227
602551 16 18334577983513327354
633830 44 15410898474292923076
6442390 28 18412825811094279486
7495541 125 18273215309509351138

> <PUBCHEM_SHAPE_MULTIPOLES>
393.63
11.66
1.77
1.52
3.42
0.51
0.48
-0.62
2.27
-2.34
-0.12
1.68
0.19
1.58

> <PUBCHEM_SHAPE_SELFOVERLAP>
823.322

> <PUBCHEM_SHAPE_VOLUME>
225.2

> <PUBCHEM_COORDINATE_TYPE>
2
5
10

$$$$
