1333327
  -OEChem-01171809323D

 49 51  0     0  0  0  0  0  0999 V2000
    8.5969   -0.8256    0.7425 Cl  0  0  0  0  0  0  0  0  0  0  0  0
   -3.9511   -1.4624   -0.4651 S   0  0  0  0  0  0  0  0  0  0  0  0
   -4.3214   -2.8483   -0.2029 O   0  0  0  0  0  0  0  0  0  0  0  0
   -4.3485   -0.8570   -1.7305 O   0  0  0  0  0  0  0  0  0  0  0  0
    2.4465    0.8482   -1.2290 O   0  0  0  0  0  0  0  0  0  0  0  0
    6.7488    2.9569   -0.2044 O   0  5  0  0  0  0  0  0  0  0  0  0
    8.4767    1.7098    0.3234 O   0  0  0  0  0  0  0  0  0  0  0  0
   -4.5281   -0.4984    0.8412 N   0  0  0  0  0  0  0  0  0  0  0  0
    1.9379   -1.0292    0.0832 N   0  0  0  0  0  0  0  0  0  0  0  0
    7.2574    1.8445    0.0677 N   0  3  0  0  0  0  0  0  0  0  0  0
   -5.4940    0.5267    0.5509 C   0  0  0  0  0  0  0  0  0  0  0  0
   -2.2176   -1.3351   -0.3043 C   0  0  0  0  0  0  0  0  0  0  0  0
   -6.8422    0.1967    0.4451 C   0  0  0  0  0  0  0  0  0  0  0  0
   -5.0751    1.8428    0.3783 C   0  0  0  0  0  0  0  0  0  0  0  0
   -1.5293   -0.3132   -0.9585 C   0  0  0  0  0  0  0  0  0  0  0  0
   -1.5206   -2.2551    0.4788 C   0  0  0  0  0  0  0  0  0  0  0  0
   -7.7793    1.1911    0.1642 C   0  0  0  0  0  0  0  0  0  0  0  0
   -6.0120    2.8373    0.0975 C   0  0  0  0  0  0  0  0  0  0  0  0
    0.5313   -1.1331   -0.0484 C   0  0  0  0  0  0  0  0  0  0  0  0
   -0.1441   -0.2115   -0.8296 C   0  0  0  0  0  0  0  0  0  0  0  0
   -0.1355   -2.1533    0.6079 C   0  0  0  0  0  0  0  0  0  0  0  0
   -7.3159   -1.2087    0.6261 C   0  0  0  0  0  0  0  0  0  0  0  0
   -3.6339    2.2213    0.4883 C   0  0  0  0  0  0  0  0  0  0  0  0
   -7.3641    2.5114   -0.0096 C   0  0  0  0  0  0  0  0  0  0  0  0
    2.8002   -0.0832   -0.4882 C   0  0  0  0  0  0  0  0  0  0  0  0
    4.2138   -0.2508   -0.1897 C   0  0  0  0  0  0  0  0  0  0  0  0
    5.0647    0.8545   -0.1983 C   0  0  0  0  0  0  0  0  0  0  0  0
    4.7185   -1.5173    0.1044 C   0  0  0  0  0  0  0  0  0  0  0  0
    6.4204    0.6931    0.0873 C   0  0  0  0  0  0  0  0  0  0  0  0
    6.0743   -1.6786    0.3902 C   0  0  0  0  0  0  0  0  0  0  0  0
    6.9252   -0.5734    0.3817 C   0  0  0  0  0  0  0  0  0  0  0  0
   -4.7771   -1.0388    1.6808 H   0  0  0  0  0  0  0  0  0  0  0  0
   -2.0513    0.4073   -1.5809 H   0  0  0  0  0  0  0  0  0  0  0  0
   -2.0362   -3.0546    1.0034 H   0  0  0  0  0  0  0  0  0  0  0  0
   -8.8363    0.9545    0.0756 H   0  0  0  0  0  0  0  0  0  0  0  0
   -5.7026    3.8697   -0.0425 H   0  0  0  0  0  0  0  0  0  0  0  0
    0.3149    0.6041   -1.3677 H   0  0  0  0  0  0  0  0  0  0  0  0
    0.3975   -2.8741    1.2216 H   0  0  0  0  0  0  0  0  0  0  0  0
   -8.4083   -1.2573    0.6985 H   0  0  0  0  0  0  0  0  0  0  0  0
   -7.0180   -1.8264   -0.2264 H   0  0  0  0  0  0  0  0  0  0  0  0
   -6.9240   -1.6445    1.5506 H   0  0  0  0  0  0  0  0  0  0  0  0
   -3.5311    3.2437    0.8698 H   0  0  0  0  0  0  0  0  0  0  0  0
   -3.0845    1.5810    1.1850 H   0  0  0  0  0  0  0  0  0  0  0  0
   -3.1606    2.1790   -0.4962 H   0  0  0  0  0  0  0  0  0  0  0  0
   -8.0935    3.2856   -0.2292 H   0  0  0  0  0  0  0  0  0  0  0  0
    2.3356   -1.7242    0.7090 H   0  0  0  0  0  0  0  0  0  0  0  0
    4.6492    1.8340   -0.4243 H   0  0  0  0  0  0  0  0  0  0  0  0
    4.1042   -2.4126    0.0852 H   0  0  0  0  0  0  0  0  0  0  0  0
    6.4536   -2.6736    0.6093 H   0  0  0  0  0  0  0  0  0  0  0  0
  1 31  1  0  0  0  0
  2  3  2  0  0  0  0
  2  4  2  0  0  0  0
  2  8  1  0  0  0  0
  2 12  1  0  0  0  0
  5 25  2  0  0  0  0
  6 10  1  0  0  0  0
  7 10  2  0  0  0  0
  8 11  1  0  0  0  0
  8 32  1  0  0  0  0
  9 19  1  0  0  0  0
  9 25  1  0  0  0  0
  9 46  1  0  0  0  0
 10 29  1  0  0  0  0
 11 13  2  0  0  0  0
 11 14  1  0  0  0  0
 12 15  2  0  0  0  0
 12 16  1  0  0  0  0
 13 17  1  0  0  0  0
 13 22  1  0  0  0  0
 14 18  2  0  0  0  0
 14 23  1  0  0  0  0
 15 20  1  0  0  0  0
 15 33  1  0  0  0  0
 16 21  2  0  0  0  0
 16 34  1  0  0  0  0
 17 24  2  0  0  0  0
 17 35  1  0  0  0  0
 18 24  1  0  0  0  0
 18 36  1  0  0  0  0
 19 20  2  0  0  0  0
 19 21  1  0  0  0  0
 20 37  1  0  0  0  0
 21 38  1  0  0  0  0
 22 39  1  0  0  0  0
 22 40  1  0  0  0  0
 22 41  1  0  0  0  0
 23 42  1  0  0  0  0
 23 43  1  0  0  0  0
 23 44  1  0  0  0  0
 24 45  1  0  0  0  0
 25 26  1  0  0  0  0
 26 27  2  0  0  0  0
 26 28  1  0  0  0  0
 27 29  1  0  0  0  0
 27 47  1  0  0  0  0
 28 30  2  0  0  0  0
 28 48  1  0  0  0  0
 29 31  2  0  0  0  0
 30 31  1  0  0  0  0
 30 49  1  0  0  0  0
M  CHG  2   6  -1  10   1
M  END
> <PUBCHEM_COMPOUND_CID>
1333327

> <PUBCHEM_CONFORMER_RMSD>
0.8

> <PUBCHEM_CONFORMER_DIVERSEORDER>
1
23
14
50
39
41
28
11
37
44
32
48
51
54
19
31
27
8
21
43
38
12
20
45
22
7
55
34
16
26
2
30
53
35
25
13
46
29
36
33
42
15
47
52
24
40
10
4
49
5
3
9
17
6
18

> <PUBCHEM_MMFF94_PARTIAL_CHARGES>
43
1 -0.18
10 0.91
11 0.2
12 -0.01
13 -0.14
14 -0.14
15 -0.15
16 -0.15
17 -0.15
18 -0.15
19 0.12
2 1.45
20 -0.15
21 -0.15
22 0.14
23 0.14
24 -0.15
25 0.54
26 0.09
27 -0.15
28 -0.15
29 0.13
3 -0.65
30 -0.15
31 0.18
32 0.42
33 0.15
34 0.15
35 0.15
36 0.15
37 0.15
38 0.15
4 -0.65
45 0.15
46 0.37
47 0.15
48 0.15
49 0.15
5 -0.57
6 -0.52
7 -0.52
8 -0.76
9 -0.55

> <PUBCHEM_EFFECTIVE_ROTOR_COUNT>
7

> <PUBCHEM_PHARMACOPHORE_FEATURES>
11
1 3 acceptor
1 4 acceptor
1 5 acceptor
1 6 acceptor
1 6 anion
1 7 acceptor
1 8 donor
1 9 donor
6 11 13 14 17 18 24 rings
6 12 15 16 19 20 21 rings
6 26 27 28 29 30 31 rings

> <PUBCHEM_HEAVY_ATOM_COUNT>
31

> <PUBCHEM_ATOM_DEF_STEREO_COUNT>
0

> <PUBCHEM_ATOM_UDEF_STEREO_COUNT>
0

> <PUBCHEM_BOND_DEF_STEREO_COUNT>
0

> <PUBCHEM_BOND_UDEF_STEREO_COUNT>
0

> <PUBCHEM_ISOTOPIC_ATOM_COUNT>
0

> <PUBCHEM_COMPONENT_COUNT>
1

> <PUBCHEM_CACTVS_TAUTO_COUNT>
2

> <PUBCHEM_CONFORMER_ID>
0014584F00000001

> <PUBCHEM_MMFF94_ENERGY>
106.3574

> <PUBCHEM_FEATURE_SELFOVERLAP>
55.923

> <PUBCHEM_SHAPE_FINGERPRINT>
10 15 18408325483999399289
100830 39 18411419475666483009
10411042 1 17979917435376117639
10580692 12 18412265008961979786
10625338 131 18341046320325596936
11181472 205 17703520891639045922
11297750 10 16412080923691034231
11456790 92 18334851719744551880
11991303 11 16486682658495395479
12082328 90 18272647978415579567
125118 31 18410575111277148416
13167372 99 18411138035391947256
13668630 136 10159697984405620081
13673619 4 12901549052564786390
13726171 33 18126855898533614505
13782708 43 10881398734107698140
14251764 18 18333452062073262103
14347424 109 18335698309385816194
14394314 77 18337394842732238473
14849402 71 18336830899976525684
14933364 13 18412265029993327858
15021287 119 16950287320957319285
15183329 4 16773800294187853146
15419008 145 18115580440643931624
15461852 350 17561077034315086175
1577012 14 18412259549826236806
16989713 51 16987145236055118031
18603816 31 13046231632528829169
19611394 137 18115323297062817099
20281389 69 18408887325793183909
21033648 29 17988064691481680866
21130935 74 18334573573299657498
21150785 3 12103840155130182999
21424621 283 18407760334896395058
21756936 100 18341890780427531855
21781051 124 12829485918836470992
22224240 67 17894914014256901547
23522609 53 17677918827694773484
23576562 1 15410029903020054689
306946 40 16988551439045147280
3178227 256 14923947856006204518
4073 2 18260833734691758842
4098825 35 18412261748775321224
44555599 121 18412546531067292696
44802255 64 17489588987353483927
4516262 110 18188199919594050871
504843 32 17560797766736074511
5104073 3 18040432213872481578
5385378 56 17895472527636226586
54039377 194 9943512034824589589
5758199 1 18040999539880644962
59567204 34 18343021099623554761
6201320 215 18130503029124306560
6328613 192 18413108355206253433
636775 72 18340767147593826760
7226269 152 18273497849437634377
9831232 110 18059305262650572910
99344 41 18409449159039290626

> <PUBCHEM_SHAPE_MULTIPOLES>
599.4
28.15
2.9
0.91
22.45
1
-0.16
13.9
5.33
-1.84
0.19
-0.38
-0.13
-0.82

> <PUBCHEM_SHAPE_SELFOVERLAP>
1278.333

> <PUBCHEM_SHAPE_VOLUME>
335

> <PUBCHEM_COORDINATE_TYPE>
2
5
10

$$$$
