495575
  -OEChem-01171810173D

 35 38  0     1  0  0  0  0  0999 V2000
   -2.0529   -1.6350   -0.9991 O   0  0  0  0  0  0  0  0  0  0  0  0
    0.8837   -0.9140   -0.9355 O   0  0  0  0  0  0  0  0  0  0  0  0
   -3.2495    1.5480   -0.7646 O   0  0  0  0  0  0  0  0  0  0  0  0
    2.7128   -0.5739   -2.2837 O   0  0  0  0  0  0  0  0  0  0  0  0
   -1.8194   -1.5119    0.4076 C   0  0  1  0  0  0  0  0  0  0  0  0
   -0.7528   -0.5336    0.8432 C   0  0  1  0  0  0  0  0  0  0  0  0
   -2.9077   -0.7441   -0.2704 C   0  0  1  0  0  0  0  0  0  0  0  0
    0.6440   -1.0486    0.4810 C   0  0  2  0  0  0  0  0  0  0  0  0
   -1.1303    0.8184    0.2406 C   0  0  0  0  0  0  0  0  0  0  0  0
   -2.5157    0.6770   -0.3369 C   0  0  0  0  0  0  0  0  0  0  0  0
    1.8007   -0.3530    1.1898 C   0  0  2  0  0  0  0  0  0  0  0  0
   -2.1137   -2.7272    1.1948 C   0  0  0  0  0  0  0  0  0  0  0  0
   -0.3788    1.9323    0.1493 C   0  0  0  0  0  0  0  0  0  0  0  0
    1.5153    1.0478    1.7466 C   0  0  0  0  0  0  0  0  0  0  0  0
    1.0037    2.0943    0.7532 C   0  0  0  0  0  0  0  0  0  0  0  0
    2.8343   -0.3806    0.1177 C   0  0  0  0  0  0  0  0  0  0  0  0
    2.1917   -0.6294   -1.1847 C   0  0  0  0  0  0  0  0  0  0  0  0
   -0.8214    3.1733   -0.5910 C   0  0  0  0  0  0  0  0  0  0  0  0
    4.1560   -0.2397    0.2419 C   0  0  0  0  0  0  0  0  0  0  0  0
   -0.8410   -0.4534    1.9349 H   0  0  0  0  0  0  0  0  0  0  0  0
   -3.9416   -1.0122   -0.1076 H   0  0  0  0  0  0  0  0  0  0  0  0
    0.6999   -2.1250    0.6930 H   0  0  0  0  0  0  0  0  0  0  0  0
    2.1176   -0.9786    2.0348 H   0  0  0  0  0  0  0  0  0  0  0  0
   -2.9495   -3.2954    0.7721 H   0  0  0  0  0  0  0  0  0  0  0  0
   -1.2452   -3.3921    1.2266 H   0  0  0  0  0  0  0  0  0  0  0  0
   -2.3778   -2.4645    2.2242 H   0  0  0  0  0  0  0  0  0  0  0  0
    2.4451    1.4363    2.1853 H   0  0  0  0  0  0  0  0  0  0  0  0
    0.8137    0.9733    2.5872 H   0  0  0  0  0  0  0  0  0  0  0  0
    1.7286    2.2067   -0.0627 H   0  0  0  0  0  0  0  0  0  0  0  0
    1.0073    3.0523    1.2921 H   0  0  0  0  0  0  0  0  0  0  0  0
    0.0439    3.7158   -0.9892 H   0  0  0  0  0  0  0  0  0  0  0  0
   -1.3595    3.8456    0.0843 H   0  0  0  0  0  0  0  0  0  0  0  0
   -1.4479    2.9492   -1.4577 H   0  0  0  0  0  0  0  0  0  0  0  0
    4.6046   -0.0698    1.2150 H   0  0  0  0  0  0  0  0  0  0  0  0
    4.8206   -0.2899   -0.6138 H   0  0  0  0  0  0  0  0  0  0  0  0
  1  5  1  0  0  0  0
  1  7  1  0  0  0  0
  2  8  1  0  0  0  0
  2 17  1  0  0  0  0
  3 10  2  0  0  0  0
  4 17  2  0  0  0  0
  5  6  1  0  0  0  0
  5  7  1  0  0  0  0
  5 12  1  0  0  0  0
  6  8  1  0  0  0  0
  6  9  1  0  0  0  0
  6 20  1  0  0  0  0
  7 10  1  0  0  0  0
  7 21  1  0  0  0  0
  8 11  1  0  0  0  0
  8 22  1  0  0  0  0
  9 10  1  0  0  0  0
  9 13  2  0  0  0  0
 11 14  1  0  0  0  0
 11 16  1  0  0  0  0
 11 23  1  0  0  0  0
 12 24  1  0  0  0  0
 12 25  1  0  0  0  0
 12 26  1  0  0  0  0
 13 15  1  0  0  0  0
 13 18  1  0  0  0  0
 14 15  1  0  0  0  0
 14 27  1  0  0  0  0
 14 28  1  0  0  0  0
 15 29  1  0  0  0  0
 15 30  1  0  0  0  0
 16 17  1  0  0  0  0
 16 19  2  0  0  0  0
 18 31  1  0  0  0  0
 18 32  1  0  0  0  0
 18 33  1  0  0  0  0
 19 34  1  0  0  0  0
 19 35  1  0  0  0  0
M  END
> <PUBCHEM_COMPOUND_CID>
495575

> <PUBCHEM_CONFORMER_RMSD>
0.6

> <PUBCHEM_CONFORMER_DIVERSEORDER>
1
9
3
11
5
7
8
10
2
6
4

> <PUBCHEM_MMFF94_PARTIAL_CHARGES>
21
1 -0.3
10 0.56
11 0.14
12 0.09
13 -0.28
15 0.14
16 -0.12
17 0.71
18 0.14
19 -0.3
2 -0.43
21 0.1
3 -0.57
34 0.15
35 0.15
4 -0.57
5 -0.04
6 0.23
7 0.05
8 0.28
9 -0.12

> <PUBCHEM_EFFECTIVE_ROTOR_COUNT>
0.8

> <PUBCHEM_PHARMACOPHORE_FEATURES>
6
1 1 acceptor
1 3 acceptor
1 4 acceptor
5 2 8 11 16 17 rings
6 1 5 6 7 9 10 rings
7 6 8 9 11 13 14 15 rings

> <PUBCHEM_HEAVY_ATOM_COUNT>
19

> <PUBCHEM_ATOM_DEF_STEREO_COUNT>
0

> <PUBCHEM_ATOM_UDEF_STEREO_COUNT>
5

> <PUBCHEM_BOND_DEF_STEREO_COUNT>
0

> <PUBCHEM_BOND_UDEF_STEREO_COUNT>
0

> <PUBCHEM_ISOTOPIC_ATOM_COUNT>
0

> <PUBCHEM_COMPONENT_COUNT>
1

> <PUBCHEM_CACTVS_TAUTO_COUNT>
8

> <PUBCHEM_CONFORMER_ID>
00078FD700000001

> <PUBCHEM_MMFF94_ENERGY>
48.5864

> <PUBCHEM_FEATURE_SELFOVERLAP>
30.671

> <PUBCHEM_SHAPE_FINGERPRINT>
10863032 1 18260828258602668084
11582403 64 16040190623030935464
11640471 11 17241060794568877188
13140716 1 18411417353604323769
13538477 17 17967526839959657906
14115302 16 18040435468882477006
14251745 187 18272079483606228472
14614273 12 18267306426209650560
14790565 3 18193562168714699777
14817 1 14611495556126769008
16945 1 18263941955020062408
17357779 13 18130776871885668069
17990270 104 18122615317395048465
19868273 325 18408322202633686137
20645476 183 17676488285646737947
20905425 154 17976260458456442148
22721475 48 18273498987245174064
22802520 49 18056777441597612790
22926399 65 18334572408682232304
2334 1 18194112143280879873
23402539 116 18339066108489081006
23419403 2 17558801044892356984
23557571 272 18413116069420963580
23559900 14 18339073801603871802
2748010 2 18268136733561305241
576247 118 18124625155836278555
5845 1 10669226091133293064
5895379 119 14712211654455421263
7364860 26 17982728876809825649
77492 1 17167859764182991986
81228 2 18269006305430094312
84936 31 17344081924324013180
8809292 202 18411131420424906442
9981440 41 16449003662444205740

> <PUBCHEM_SHAPE_MULTIPOLES>
367.53
5
2.68
1.44
1.85
1.31
-0.29
-1.33
-0.9
-1.87
0.21
0.86
-0.24
0.92

> <PUBCHEM_SHAPE_SELFOVERLAP>
809.071

> <PUBCHEM_SHAPE_VOLUME>
200.2

> <PUBCHEM_COORDINATE_TYPE>
2
5
10

$$$$
