3596513
  -OEChem-01171809343D

 49 51  0     1  0  0  0  0  0999 V2000
    2.8587    1.4260    1.8002 O   0  0  0  0  0  0  0  0  0  0  0  0
   -1.7332    2.2378   -1.7519 O   0  0  0  0  0  0  0  0  0  0  0  0
   -0.0367    1.2597    0.9842 C   0  0  2  0  0  0  0  0  0  0  0  0
    1.1708    1.6666    0.0815 C   0  0  1  0  0  0  0  0  0  0  0  0
   -0.2375   -0.2471    1.1365 C   0  0  0  0  0  0  0  0  0  0  0  0
   -1.3389    1.9325    0.5633 C   0  0  0  0  0  0  0  0  0  0  0  0
    1.3211    3.1884   -0.0364 C   0  0  0  0  0  0  0  0  0  0  0  0
    2.4779    1.1253    0.6703 C   0  0  0  0  0  0  0  0  0  0  0  0
   -0.6186   -0.7426    2.3636 C   0  0  0  0  0  0  0  0  0  0  0  0
   -0.0301   -1.0561    0.0416 C   0  0  0  0  0  0  0  0  0  0  0  0
    3.3069    0.1975   -0.1387 C   0  0  0  0  0  0  0  0  0  0  0  0
   -1.9731    1.5848   -0.7418 C   0  0  0  0  0  0  0  0  0  0  0  0
   -1.9971    2.8083    1.3393 C   0  0  0  0  0  0  0  0  0  0  0  0
   -0.8018   -2.1183    2.5029 C   0  0  0  0  0  0  0  0  0  0  0  0
   -0.2134   -2.4318    0.1809 C   0  0  0  0  0  0  0  0  0  0  0  0
   -2.9146    0.4364   -0.8093 C   0  0  0  0  0  0  0  0  0  0  0  0
    3.2844    0.3070   -1.5143 C   0  0  0  0  0  0  0  0  0  0  0  0
    4.0769   -0.7467    0.5101 C   0  0  0  0  0  0  0  0  0  0  0  0
   -0.5992   -2.9630    1.4116 C   0  0  0  0  0  0  0  0  0  0  0  0
   -3.6586    0.1181    0.3072 C   0  0  0  0  0  0  0  0  0  0  0  0
   -3.0141   -0.2726   -1.9880 C   0  0  0  0  0  0  0  0  0  0  0  0
    4.0652   -0.5645   -2.2736 C   0  0  0  0  0  0  0  0  0  0  0  0
    4.8578   -1.6181   -0.2492 C   0  0  0  0  0  0  0  0  0  0  0  0
    4.8519   -1.5271   -1.6410 C   0  0  0  0  0  0  0  0  0  0  0  0
   -4.5431   -0.9586    0.2422 C   0  0  0  0  0  0  0  0  0  0  0  0
   -3.8985   -1.3493   -2.0530 C   0  0  0  0  0  0  0  0  0  0  0  0
   -4.6630   -1.6924   -0.9380 C   0  0  0  0  0  0  0  0  0  0  0  0
    0.2150    1.6329    1.9898 H   0  0  0  0  0  0  0  0  0  0  0  0
    0.9985    1.2922   -0.9287 H   0  0  0  0  0  0  0  0  0  0  0  0
    1.3742    3.6624    0.9501 H   0  0  0  0  0  0  0  0  0  0  0  0
    2.2415    3.4462   -0.5727 H   0  0  0  0  0  0  0  0  0  0  0  0
    0.4883    3.6363   -0.5867 H   0  0  0  0  0  0  0  0  0  0  0  0
   -0.7815   -0.0929    3.2180 H   0  0  0  0  0  0  0  0  0  0  0  0
    0.2456   -0.6773   -0.9353 H   0  0  0  0  0  0  0  0  0  0  0  0
   -1.6113    3.0958    2.3117 H   0  0  0  0  0  0  0  0  0  0  0  0
   -2.9302    3.2635    1.0226 H   0  0  0  0  0  0  0  0  0  0  0  0
   -1.1038   -2.5317    3.4608 H   0  0  0  0  0  0  0  0  0  0  0  0
   -0.0619   -3.0889   -0.6706 H   0  0  0  0  0  0  0  0  0  0  0  0
    2.7203    1.0681   -2.0418 H   0  0  0  0  0  0  0  0  0  0  0  0
    4.0875   -0.8343    1.5924 H   0  0  0  0  0  0  0  0  0  0  0  0
   -0.7440   -4.0340    1.5194 H   0  0  0  0  0  0  0  0  0  0  0  0
   -3.6044    0.6667    1.2400 H   0  0  0  0  0  0  0  0  0  0  0  0
   -2.4208   -0.0205   -2.8618 H   0  0  0  0  0  0  0  0  0  0  0  0
    4.0684   -0.4878   -3.3571 H   0  0  0  0  0  0  0  0  0  0  0  0
    5.4694   -2.3685    0.2432 H   0  0  0  0  0  0  0  0  0  0  0  0
    5.4613   -2.2044   -2.2321 H   0  0  0  0  0  0  0  0  0  0  0  0
   -5.1397   -1.2251    1.1099 H   0  0  0  0  0  0  0  0  0  0  0  0
   -3.9907   -1.9218   -2.9714 H   0  0  0  0  0  0  0  0  0  0  0  0
   -5.3513   -2.5309   -0.9884 H   0  0  0  0  0  0  0  0  0  0  0  0
  1  8  2  0  0  0  0
  2 12  2  0  0  0  0
  3  4  1  0  0  0  0
  3  5  1  0  0  0  0
  3  6  1  0  0  0  0
  3 28  1  0  0  0  0
  4  7  1  0  0  0  0
  4  8  1  0  0  0  0
  4 29  1  0  0  0  0
  5  9  2  0  0  0  0
  5 10  1  0  0  0  0
  6 12  1  0  0  0  0
  6 13  2  0  0  0  0
  7 30  1  0  0  0  0
  7 31  1  0  0  0  0
  7 32  1  0  0  0  0
  8 11  1  0  0  0  0
  9 14  1  0  0  0  0
  9 33  1  0  0  0  0
 10 15  2  0  0  0  0
 10 34  1  0  0  0  0
 11 17  2  0  0  0  0
 11 18  1  0  0  0  0
 12 16  1  0  0  0  0
 13 35  1  0  0  0  0
 13 36  1  0  0  0  0
 14 19  2  0  0  0  0
 14 37  1  0  0  0  0
 15 19  1  0  0  0  0
 15 38  1  0  0  0  0
 16 20  2  0  0  0  0
 16 21  1  0  0  0  0
 17 22  1  0  0  0  0
 17 39  1  0  0  0  0
 18 23  2  0  0  0  0
 18 40  1  0  0  0  0
 19 41  1  0  0  0  0
 20 25  1  0  0  0  0
 20 42  1  0  0  0  0
 21 26  2  0  0  0  0
 21 43  1  0  0  0  0
 22 24  2  0  0  0  0
 22 44  1  0  0  0  0
 23 24  1  0  0  0  0
 23 45  1  0  0  0  0
 24 46  1  0  0  0  0
 25 27  2  0  0  0  0
 25 47  1  0  0  0  0
 26 27  1  0  0  0  0
 26 48  1  0  0  0  0
 27 49  1  0  0  0  0
M  END
> <PUBCHEM_COMPOUND_CID>
3596513

> <PUBCHEM_CONFORMER_RMSD>
0.8

> <PUBCHEM_CONFORMER_DIVERSEORDER>
1
297
30
271
12
153
160
209
233
214
308
31
238
152
278
293
259
117
148
276
314
123
168
64
106
305
208
109
75
231
177
136
198
21
241
317
111
310
38
103
203
115
306
264
213
9
170
302
255
235
83
166
20
210
81
205
326
272
256
179
246
282
187
86
126
327
71
133
17
240
100
334
29
2
101
215
68
59
116
175
229
222
124
248
25
324
93
250
275
3
227
94
311
218
180
129
91
173
163
251
107
128
225
320
294
300
167
36
10
224
165
35
193
110
190
28
74
281
323
53
337
262
299
188
296
161
23
149
132
284
280
63
120
158
96
97
95
186
232
43
154
265
147
274
77
14
130
121
298
217
137
279
138
33
84
182
32
202
85
122
315
199
99
45
287
113
249
333
4
237
260
7
228
157
139
89
142
49
26
219
261
273
13
253
252
72
80
76
102
304
336
104
65
191
223
258
286
18
66
58
98
140
159
131
70
27
171
181
309
283
316
44
54
19
156
67
164
79
56
245
39
88
108
307
52
318
285
11
207
112
184
143
174
42
313
127
204
151
194
178
135
330
321
212
46
185
87
329
226
289
118
290
277
150
234
331
6
288
242
145
105
268
60
211
263
92
22
169
328
221
195
269
55
57
292
230
125
119
16
5
90
303
319
34
47
8
322
172
216
270
301
24
196
48
239
183
257
141
144
50
69
189
312
51
134
332
62
247
192
254
335
220
236
266
244
37
73
40
176
291
162
206
267
197
295
78
82
243
15
325
155
61
200
114
201
146
41

> <PUBCHEM_MMFF94_PARTIAL_CHARGES>
43
1 -0.57
10 -0.15
11 0.09
12 0.47
13 -0.3
14 -0.15
15 -0.15
16 0.09
17 -0.15
18 -0.15
19 -0.15
2 -0.57
20 -0.15
21 -0.15
22 -0.15
23 -0.15
24 -0.15
25 -0.15
26 -0.15
27 -0.15
3 0.28
33 0.15
34 0.15
35 0.15
36 0.15
37 0.15
38 0.15
39 0.15
4 0.06
40 0.15
41 0.15
42 0.15
43 0.15
44 0.15
45 0.15
46 0.15
47 0.15
48 0.15
49 0.15
5 -0.14
6 -0.12
8 0.42
9 -0.15

> <PUBCHEM_EFFECTIVE_ROTOR_COUNT>
7

> <PUBCHEM_PHARMACOPHORE_FEATURES>
7
1 1 acceptor
1 13 hydrophobe
1 2 acceptor
1 7 hydrophobe
6 11 17 18 22 23 24 rings
6 16 20 21 25 26 27 rings
6 5 9 10 14 15 19 rings

> <PUBCHEM_HEAVY_ATOM_COUNT>
27

> <PUBCHEM_ATOM_DEF_STEREO_COUNT>
0

> <PUBCHEM_ATOM_UDEF_STEREO_COUNT>
2

> <PUBCHEM_BOND_DEF_STEREO_COUNT>
0

> <PUBCHEM_BOND_UDEF_STEREO_COUNT>
0

> <PUBCHEM_ISOTOPIC_ATOM_COUNT>
0

> <PUBCHEM_COMPONENT_COUNT>
1

> <PUBCHEM_CACTVS_TAUTO_COUNT>
2

> <PUBCHEM_CONFORMER_ID>
0036E0E100000001

> <PUBCHEM_MMFF94_ENERGY>
89.7127

> <PUBCHEM_FEATURE_SELFOVERLAP>
35.522

> <PUBCHEM_SHAPE_FINGERPRINT>
10190108 129 18263103054224813539
10906281 52 18122902294415438744
11578080 2 17680448924009130692
12293681 25 18195249038520395034
12422481 6 16916248605967963999
12467345 10 16845028813915135307
12633257 1 13326283866430280533
12788726 201 18130242509177092296
13149001 5 18043251442725955337
13583140 156 13973408963983001522
14251751 93 18200592488874079277
14251757 17 18339631343175524367
144659 39 13038083017657015483
14955137 171 18340497780825430833
15163728 17 15936963012543052471
15209289 33 18410581664901214137
15848702 151 17988920128307052335
16752209 62 18113896044215782744
17349148 13 18261114024325670890
17357779 13 18340499948992864554
17492 54 16877942784707794863
1813 80 18411136987093464653
19319366 153 17756158786563102401
20775438 99 17906154501763633279
21033648 29 10953739958942900621
21344244 181 18339079414694422563
22907989 373 17970092056585351460
23227448 37 12901845942041536775
23559900 14 18192711361773831000
3027735 51 18129392517985220703
3380486 145 17909833467864623162
463206 1 17839182905424392902
563151 248 17843991203185325443
6669772 16 18044360854432411266
9709674 26 18342459291825342704

> <PUBCHEM_SHAPE_MULTIPOLES>
543.91
8.9
3.17
2.28
4.03
0.91
0.02
-4.27
-5.22
-0.58
0.86
-0.26
-0.79
0.39

> <PUBCHEM_SHAPE_SELFOVERLAP>
1181.222

> <PUBCHEM_SHAPE_VOLUME>
294.8

> <PUBCHEM_COORDINATE_TYPE>
2
5
10

$$$$
