2986526
  -OEChem-01171809573D

 37 38  0     0  0  0  0  0  0999 V2000
    0.4864    3.9437    0.8908 Cl  0  0  0  0  0  0  0  0  0  0  0  0
    3.7286   -1.1059   -0.3340 S   0  0  0  0  0  0  0  0  0  0  0  0
    4.1904   -1.0428   -1.7202 O   0  0  0  0  0  0  0  0  0  0  0  0
    4.7111   -1.3206    0.7287 O   0  0  0  0  0  0  0  0  0  0  0  0
   -2.5556   -1.8112    1.5100 O   0  0  0  0  0  0  0  0  0  0  0  0
   -0.9968    2.1823   -1.2436 O   0  0  0  0  0  0  0  0  0  0  0  0
    1.5041    0.2792   -0.3380 N   0  0  0  0  0  0  0  0  0  0  0  0
   -1.3370    0.3274    0.1600 N   0  0  0  0  0  0  0  0  0  0  0  0
    3.4634    1.3326    0.5886 N   0  0  0  0  0  0  0  0  0  0  0  0
    2.5646   -2.4528   -0.2223 C   0  0  0  0  0  0  0  0  0  0  0  0
    2.8055    0.3119    0.0065 C   0  0  0  0  0  0  0  0  0  0  0  0
    3.2279   -3.7835   -0.4987 C   0  0  0  0  0  0  0  0  0  0  0  0
    0.8418    1.4044   -0.0497 C   0  0  0  0  0  0  0  0  0  0  0  0
   -2.6870    0.0235   -0.0307 C   0  0  0  0  0  0  0  0  0  0  0  0
   -0.5929    1.3531   -0.4354 C   0  0  0  0  0  0  0  0  0  0  0  0
    1.3689    2.5177    0.5366 C   0  0  0  0  0  0  0  0  0  0  0  0
   -3.2789   -1.0418    0.6478 C   0  0  0  0  0  0  0  0  0  0  0  0
    2.7117    2.4244    0.8407 C   0  0  0  0  0  0  0  0  0  0  0  0
   -3.4445    0.7981   -0.9092 C   0  0  0  0  0  0  0  0  0  0  0  0
   -4.6283   -1.3326    0.4476 C   0  0  0  0  0  0  0  0  0  0  0  0
   -4.7940    0.5072   -1.1094 C   0  0  0  0  0  0  0  0  0  0  0  0
   -5.3859   -0.5582   -0.4310 C   0  0  0  0  0  0  0  0  0  0  0  0
   -1.9036   -2.9560    0.9647 C   0  0  0  0  0  0  0  0  0  0  0  0
    2.1365   -2.4409    0.7847 H   0  0  0  0  0  0  0  0  0  0  0  0
    1.7714   -2.2775   -0.9549 H   0  0  0  0  0  0  0  0  0  0  0  0
    2.4966   -4.5945   -0.4283 H   0  0  0  0  0  0  0  0  0  0  0  0
    3.6665   -3.8073   -1.5013 H   0  0  0  0  0  0  0  0  0  0  0  0
    4.0284   -3.9849    0.2203 H   0  0  0  0  0  0  0  0  0  0  0  0
   -0.8426   -0.2766    0.8133 H   0  0  0  0  0  0  0  0  0  0  0  0
    3.2482    3.2434    1.3098 H   0  0  0  0  0  0  0  0  0  0  0  0
   -3.0658    1.6383   -1.4726 H   0  0  0  0  0  0  0  0  0  0  0  0
   -5.0965   -2.1606    0.9731 H   0  0  0  0  0  0  0  0  0  0  0  0
   -5.3852    1.1095   -1.7931 H   0  0  0  0  0  0  0  0  0  0  0  0
   -6.4366   -0.7845   -0.5868 H   0  0  0  0  0  0  0  0  0  0  0  0
   -1.2032   -2.6670    0.1745 H   0  0  0  0  0  0  0  0  0  0  0  0
   -2.6402   -3.6642    0.5720 H   0  0  0  0  0  0  0  0  0  0  0  0
   -1.3422   -3.4443    1.7659 H   0  0  0  0  0  0  0  0  0  0  0  0
  1 16  1  0  0  0  0
  2  3  2  0  0  0  0
  2  4  2  0  0  0  0
  2 10  1  0  0  0  0
  2 11  1  0  0  0  0
  5 17  1  0  0  0  0
  5 23  1  0  0  0  0
  6 15  2  0  0  0  0
  7 11  1  0  0  0  0
  7 13  2  0  0  0  0
  8 14  1  0  0  0  0
  8 15  1  0  0  0  0
  8 29  1  0  0  0  0
  9 11  2  0  0  0  0
  9 18  1  0  0  0  0
 10 12  1  0  0  0  0
 10 24  1  0  0  0  0
 10 25  1  0  0  0  0
 12 26  1  0  0  0  0
 12 27  1  0  0  0  0
 12 28  1  0  0  0  0
 13 15  1  0  0  0  0
 13 16  1  0  0  0  0
 14 17  1  0  0  0  0
 14 19  2  0  0  0  0
 16 18  2  0  0  0  0
 17 20  2  0  0  0  0
 18 30  1  0  0  0  0
 19 21  1  0  0  0  0
 19 31  1  0  0  0  0
 20 22  1  0  0  0  0
 20 32  1  0  0  0  0
 21 22  2  0  0  0  0
 21 33  1  0  0  0  0
 22 34  1  0  0  0  0
 23 35  1  0  0  0  0
 23 36  1  0  0  0  0
 23 37  1  0  0  0  0
M  END
> <PUBCHEM_COMPOUND_CID>
2986526

> <PUBCHEM_CONFORMER_RMSD>
0.8

> <PUBCHEM_CONFORMER_DIVERSEORDER>
1
88
41
35
54
7
43
23
49
75
53
81
30
51
57
58
60
83
56
63
5
10
31
90
32
2
27
29
20
85
84
71
28
87
26
89
33
38
55
19
40
21
42
82
52
66
74
86
47
50
70
25
59
61
62
24
67
77
65
72
4
36
13
64
37
46
34
9
76
16
73
68
44
8
80
6
22
17
11
18
45
15
14
78
48
69
3
79
39
12

> <PUBCHEM_MMFF94_PARTIAL_CHARGES>
28
1 -0.18
10 0.11
11 0.61
13 0.4
14 0.12
15 0.54
16 0.18
17 0.08
18 0.16
19 -0.15
2 1.2
20 -0.15
21 -0.15
22 -0.15
23 0.28
29 0.37
3 -0.65
30 0.15
31 0.15
32 0.15
33 0.15
34 0.15
4 -0.65
5 -0.36
6 -0.57
7 -0.62
8 -0.55
9 -0.62

> <PUBCHEM_EFFECTIVE_ROTOR_COUNT>
6

> <PUBCHEM_PHARMACOPHORE_FEATURES>
9
1 3 acceptor
1 4 acceptor
1 5 acceptor
1 6 acceptor
1 7 acceptor
1 8 donor
3 7 9 11 cation
6 14 17 19 20 21 22 rings
6 7 9 11 13 16 18 rings

> <PUBCHEM_HEAVY_ATOM_COUNT>
23

> <PUBCHEM_ATOM_DEF_STEREO_COUNT>
0

> <PUBCHEM_ATOM_UDEF_STEREO_COUNT>
0

> <PUBCHEM_BOND_DEF_STEREO_COUNT>
0

> <PUBCHEM_BOND_UDEF_STEREO_COUNT>
0

> <PUBCHEM_ISOTOPIC_ATOM_COUNT>
0

> <PUBCHEM_COMPONENT_COUNT>
1

> <PUBCHEM_CACTVS_TAUTO_COUNT>
2

> <PUBCHEM_CONFORMER_ID>
002D921E00000001

> <PUBCHEM_MMFF94_ENERGY>
67.2257

> <PUBCHEM_FEATURE_SELFOVERLAP>
45.691

> <PUBCHEM_SHAPE_FINGERPRINT>
10366900 7 18410301289388879502
114674 6 18408884066119124698
11595378 159 14405188352272205363
12107183 9 17985557650183133289
12363563 72 18343028756890509932
12506688 2 18410863152778546898
12553582 1 18268165192220297850
12596602 18 15984530213179741010
12788726 201 18192708938831390802
13402501 40 18335419067027370530
13533116 47 18200317748907125377
13544592 145 18334008411162998677
13583140 156 17912364526773796493
14251757 17 18334573534174732307
14386348 63 18334294300833196752
14790565 3 17113534814669199469
14866123 147 17620477909097209937
15352361 1 18339079272601104174
15422964 175 18341041931185251416
15635459 17 18408888438227020234
17093844 170 18333446556241621698
17349148 13 16773802528014010845
19930381 70 18267583503409733095
20403669 9 18408040693192092882
20645477 70 18201437003761167380
20693207 138 18334293175694541341
20832881 197 18267020566525043873
21279426 13 18191579758097295165
21285901 2 18040426690254141797
21521239 73 18269534170892979479
2215653 11 18408597063972632709
23559900 14 18335979860796393973
3004659 81 17967815994902766190
314173 41 18412552024087299710
3298306 158 18261099735006621279
33824 294 18341326786274519000
3421961 26 18342171168054621968
345986 75 17632014143751085235
463206 1 18410572877108827143
5309563 4 18271244902672879078
6433294 58 18408885131350180498
6443956 14 18410856572662211788
6823239 73 18408601496030826586
9709674 26 18263923422589699075

> <PUBCHEM_SHAPE_MULTIPOLES>
440.63
10.15
4.19
1.15
5.61
0.16
0.08
-5.63
1.38
-3.76
-0.96
0.21
-0.09
2.02

> <PUBCHEM_SHAPE_SELFOVERLAP>
912.439

> <PUBCHEM_SHAPE_VOLUME>
253.6

> <PUBCHEM_COORDINATE_TYPE>
2
5
10

$$$$
