684448
  -OEChem-01171809333D

 37 38  0     0  0  0  0  0  0999 V2000
    0.9580   -0.9541   -1.0805 O   0  0  0  0  0  0  0  0  0  0  0  0
    4.1586   -1.3049    0.4726 O   0  0  0  0  0  0  0  0  0  0  0  0
    3.3640    0.2481   -1.0391 O   0  0  0  0  0  0  0  0  0  0  0  0
    1.6888    3.6333    0.6552 O   0  5  0  0  0  0  0  0  0  0  0  0
    0.0534    3.9267   -0.7907 O   0  0  0  0  0  0  0  0  0  0  0  0
    0.6578    3.2686    0.0696 N   0  3  0  0  0  0  0  0  0  0  0  0
   -2.4748   -0.1322   -0.0100 C   0  0  0  0  0  0  0  0  0  0  0  0
   -3.0104   -1.4361    0.1156 C   0  0  0  0  0  0  0  0  0  0  0  0
   -1.1387    0.0254   -0.4132 C   0  0  0  0  0  0  0  0  0  0  0  0
   -0.3421   -1.0866   -0.6883 C   0  0  0  0  0  0  0  0  0  0  0  0
   -2.1944   -2.5440   -0.1658 C   0  0  0  0  0  0  0  0  0  0  0  0
   -0.8690   -2.3689   -0.5651 C   0  0  0  0  0  0  0  0  0  0  0  0
   -3.2911    0.9755    0.2711 C   0  0  0  0  0  0  0  0  0  0  0  0
   -4.3464   -1.5939    0.5185 C   0  0  0  0  0  0  0  0  0  0  0  0
   -0.5271    1.3477   -0.5609 C   0  0  0  0  0  0  0  0  0  0  0  0
   -4.6163    0.8002    0.6705 C   0  0  0  0  0  0  0  0  0  0  0  0
   -5.1430   -0.4821    0.7941 C   0  0  0  0  0  0  0  0  0  0  0  0
    1.9480   -1.5539   -0.2489 C   0  0  0  0  0  0  0  0  0  0  0  0
    0.1275    1.9980    0.4115 C   0  0  0  0  0  0  0  0  0  0  0  0
    3.2158   -0.7465   -0.3421 C   0  0  0  0  0  0  0  0  0  0  0  0
    5.4272   -0.6422    0.4909 C   0  0  0  0  0  0  0  0  0  0  0  0
    6.3543   -1.3782    1.4346 C   0  0  0  0  0  0  0  0  0  0  0  0
   -2.5859   -3.5554   -0.0780 H   0  0  0  0  0  0  0  0  0  0  0  0
   -0.2645   -3.2449   -0.7846 H   0  0  0  0  0  0  0  0  0  0  0  0
   -2.9280    1.9968    0.1858 H   0  0  0  0  0  0  0  0  0  0  0  0
   -4.7792   -2.5868    0.6216 H   0  0  0  0  0  0  0  0  0  0  0  0
   -0.6611    1.7658   -1.5568 H   0  0  0  0  0  0  0  0  0  0  0  0
   -5.2375    1.6651    0.8842 H   0  0  0  0  0  0  0  0  0  0  0  0
   -6.1748   -0.6178    1.1048 H   0  0  0  0  0  0  0  0  0  0  0  0
    1.6255   -1.5657    0.7992 H   0  0  0  0  0  0  0  0  0  0  0  0
    2.1471   -2.5688   -0.6073 H   0  0  0  0  0  0  0  0  0  0  0  0
    0.3571    1.6634    1.4118 H   0  0  0  0  0  0  0  0  0  0  0  0
    5.8523   -0.6397   -0.5190 H   0  0  0  0  0  0  0  0  0  0  0  0
    5.2946    0.3904    0.8326 H   0  0  0  0  0  0  0  0  0  0  0  0
    7.3357   -0.8973    1.4729 H   0  0  0  0  0  0  0  0  0  0  0  0
    5.9337   -1.4048    2.4452 H   0  0  0  0  0  0  0  0  0  0  0  0
    6.4822   -2.4181    1.1161 H   0  0  0  0  0  0  0  0  0  0  0  0
  1 10  1  0  0  0  0
  1 18  1  0  0  0  0
  2 20  1  0  0  0  0
  2 21  1  0  0  0  0
  3 20  2  0  0  0  0
  4  6  1  0  0  0  0
  5  6  2  0  0  0  0
  6 19  1  0  0  0  0
  7  8  1  0  0  0  0
  7  9  1  0  0  0  0
  7 13  2  0  0  0  0
  8 11  1  0  0  0  0
  8 14  2  0  0  0  0
  9 10  2  0  0  0  0
  9 15  1  0  0  0  0
 10 12  1  0  0  0  0
 11 12  2  0  0  0  0
 11 23  1  0  0  0  0
 12 24  1  0  0  0  0
 13 16  1  0  0  0  0
 13 25  1  0  0  0  0
 14 17  1  0  0  0  0
 14 26  1  0  0  0  0
 15 19  2  0  0  0  0
 15 27  1  0  0  0  0
 16 17  2  0  0  0  0
 16 28  1  0  0  0  0
 17 29  1  0  0  0  0
 18 20  1  0  0  0  0
 18 30  1  0  0  0  0
 18 31  1  0  0  0  0
 19 32  1  0  0  0  0
 21 22  1  0  0  0  0
 21 33  1  0  0  0  0
 21 34  1  0  0  0  0
 22 35  1  0  0  0  0
 22 36  1  0  0  0  0
 22 37  1  0  0  0  0
M  CHG  2   4  -1   6   1
M  END
> <PUBCHEM_COMPOUND_CID>
684448

> <PUBCHEM_CONFORMER_RMSD>
0.8

> <PUBCHEM_CONFORMER_DIVERSEORDER>
1
11
47
22
18
45
36
35
23
3
19
27
13
6
46
41
9
16
24
15
7
44
34
32
26
8
33
40
12
37
38
4
29
21
42
25
28
30
10
43
14
17
31
5
2
39
20

> <PUBCHEM_MMFF94_PARTIAL_CHARGES>
27
1 -0.36
10 0.08
11 -0.15
12 -0.15
13 -0.15
14 -0.15
15 -0.18
16 -0.15
17 -0.15
18 0.34
19 0.05
2 -0.43
20 0.66
21 0.28
23 0.15
24 0.15
25 0.15
26 0.15
27 0.15
28 0.15
29 0.15
3 -0.57
32 0.15
4 -0.52
5 -0.52
6 0.84
9 0.03

> <PUBCHEM_EFFECTIVE_ROTOR_COUNT>
7

> <PUBCHEM_PHARMACOPHORE_FEATURES>
7
1 1 acceptor
1 3 acceptor
1 4 acceptor
1 4 anion
1 5 acceptor
6 7 8 13 14 16 17 rings
6 7 8 9 10 11 12 rings

> <PUBCHEM_HEAVY_ATOM_COUNT>
22

> <PUBCHEM_ATOM_DEF_STEREO_COUNT>
0

> <PUBCHEM_ATOM_UDEF_STEREO_COUNT>
0

> <PUBCHEM_BOND_DEF_STEREO_COUNT>
1

> <PUBCHEM_BOND_UDEF_STEREO_COUNT>
0

> <PUBCHEM_ISOTOPIC_ATOM_COUNT>
0

> <PUBCHEM_COMPONENT_COUNT>
1

> <PUBCHEM_CACTVS_TAUTO_COUNT>
2

> <PUBCHEM_CONFORMER_ID>
000A71A000000001

> <PUBCHEM_MMFF94_ENERGY>
68.0188

> <PUBCHEM_FEATURE_SELFOVERLAP>
35.635

> <PUBCHEM_SHAPE_FINGERPRINT>
10006869 2 17908416962123126147
10675989 125 16533402754264854357
1100329 8 18339364170613930827
11578080 2 17678154165758354637
11963148 33 17258215697309549443
12035758 1 18413112736521080593
12236239 1 17822014198681079606
12403260 363 18270965760564614055
12422481 6 18127102356203942104
12553582 1 18412545409832428310
12596602 18 17749379323121952802
12788726 201 18262532390199079880
13140716 1 18341332317765050411
13257819 101 13901632866137781593
13540713 5 17984425415289270911
13941206 138 17252040814063550380
14142880 1 17986675874592806697
14466204 15 18338521841991440105
14787075 74 18041005054644974722
15163728 17 13469864549957651571
16110190 28 18342449387973519800
17492 89 18049160270144043771
17980427 23 17917989516423251951
18785283 64 18193852646021094217
20510252 161 18125720080644502704
20600515 1 18272942612897173964
20642791 105 18043525019495439268
21033648 29 17489580134993408747
21304253 13 18343585126901754056
2297311 6 18340780247686860062
23366157 5 17973165320223209133
23402539 116 18271799107893466158
23557571 272 18128552482985691830
23558518 356 18050287265314811455
23559900 14 18201448029100393581
25147074 1 17843689000791811487
350125 39 18339656624318158873
3680242 22 18409174320330423384
43471831 8 17402611243247326863
4409770 3 18043798793537714077
5104073 3 18196671785672091515
69474 34 18413387644002249817
7364860 26 18198350752285053389
90316 7 18337671914875872798

> <PUBCHEM_SHAPE_MULTIPOLES>
418.42
10.77
3.59
0.98
11.15
4.31
0.07
-5.52
5.33
0.47
-0.18
0.57
-0.08
-0.47

> <PUBCHEM_SHAPE_SELFOVERLAP>
890.843

> <PUBCHEM_SHAPE_VOLUME>
233.7

> <PUBCHEM_COORDINATE_TYPE>
2
5
10

$$$$
