16012896
  -OEChem-01171810033D

 51 53  0     1  0  0  0  0  0999 V2000
    3.5239    3.6051    1.6977 Cl  0  0  0  0  0  0  0  0  0  0  0  0
   -4.7690    1.1605   -1.1250 S   0  0  0  0  0  0  0  0  0  0  0  0
    5.6536   -1.5967   -0.7346 S   0  0  0  0  0  0  0  0  0  0  0  0
   -5.3367    1.9057   -0.0054 O   0  0  0  0  0  0  0  0  0  0  0  0
   -5.0661    1.6175   -2.4791 O   0  0  0  0  0  0  0  0  0  0  0  0
    5.6258   -1.4797   -2.1919 O   0  0  0  0  0  0  0  0  0  0  0  0
    6.9106   -1.9593   -0.0788 O   0  0  0  0  0  0  0  0  0  0  0  0
    1.3484    1.3510    1.8550 O   0  0  0  0  0  0  0  0  0  0  0  0
   -5.2310   -0.5085   -0.9694 N   0  0  2  0  0  0  0  0  0  0  0  0
    1.1245    1.0775   -0.4701 N   0  0  0  0  0  0  0  0  0  0  0  0
    3.7046   -0.0402    0.0688 N   0  0  0  0  0  0  0  0  0  0  0  0
    5.9546    0.7890    0.3074 N   0  0  0  0  0  0  0  0  0  0  0  0
   -3.0343    1.1366   -0.9321 C   0  0  0  0  0  0  0  0  0  0  0  0
   -4.8955   -1.1408    0.2912 C   0  0  0  0  0  0  0  0  0  0  0  0
   -2.2110    0.9795   -2.0470 C   0  0  0  0  0  0  0  0  0  0  0  0
   -2.4714    1.2743    0.3367 C   0  0  0  0  0  0  0  0  0  0  0  0
   -0.2618    1.0978   -0.6242 C   0  0  0  0  0  0  0  0  0  0  0  0
   -5.1154   -1.3606   -2.1823 C   0  0  0  0  0  0  0  0  0  0  0  0
   -0.8247    0.9601   -1.8930 C   0  0  0  0  0  0  0  0  0  0  0  0
   -1.0851    1.2550    0.4906 C   0  0  0  0  0  0  0  0  0  0  0  0
    4.4692   -2.8502   -0.2792 C   0  0  0  0  0  0  0  0  0  0  0  0
   -3.9544   -2.1554    0.3086 C   0  0  0  0  0  0  0  0  0  0  0  0
   -5.5234   -0.7150    1.4486 C   0  0  0  0  0  0  0  0  0  0  0  0
    5.0426   -0.1350   -0.0504 C   0  0  0  0  0  0  0  0  0  0  0  0
    3.2921    1.1130    0.6047 C   0  0  0  0  0  0  0  0  0  0  0  0
    1.8131    1.2027    0.7301 C   0  0  0  0  0  0  0  0  0  0  0  0
    4.8671   -4.2087   -0.8114 C   0  0  0  0  0  0  0  0  0  0  0  0
   -3.6308   -2.7634    1.5217 C   0  0  0  0  0  0  0  0  0  0  0  0
   -5.1999   -1.3227    2.6618 C   0  0  0  0  0  0  0  0  0  0  0  0
   -4.2537   -2.3470    2.6982 C   0  0  0  0  0  0  0  0  0  0  0  0
    4.0915    2.1393    1.0144 C   0  0  0  0  0  0  0  0  0  0  0  0
    5.4424    1.9185    0.8385 C   0  0  0  0  0  0  0  0  0  0  0  0
   -2.6279    0.8642   -3.0435 H   0  0  0  0  0  0  0  0  0  0  0  0
   -3.0927    1.3974    1.2193 H   0  0  0  0  0  0  0  0  0  0  0  0
   -5.5365   -2.3555   -2.0023 H   0  0  0  0  0  0  0  0  0  0  0  0
   -4.0768   -1.4557   -2.5103 H   0  0  0  0  0  0  0  0  0  0  0  0
   -5.7014   -0.9182   -2.9942 H   0  0  0  0  0  0  0  0  0  0  0  0
   -0.1947    0.8351   -2.7702 H   0  0  0  0  0  0  0  0  0  0  0  0
   -0.7416    1.3678    1.5078 H   0  0  0  0  0  0  0  0  0  0  0  0
    4.4088   -2.8704    0.8131 H   0  0  0  0  0  0  0  0  0  0  0  0
    3.4971   -2.5638   -0.6911 H   0  0  0  0  0  0  0  0  0  0  0  0
   -3.4356   -2.4924   -0.5829 H   0  0  0  0  0  0  0  0  0  0  0  0
   -6.2849    0.0582    1.4374 H   0  0  0  0  0  0  0  0  0  0  0  0
    1.6703    0.9548   -1.3202 H   0  0  0  0  0  0  0  0  0  0  0  0
    4.1265   -4.9614   -0.5240 H   0  0  0  0  0  0  0  0  0  0  0  0
    4.9381   -4.2015   -1.9038 H   0  0  0  0  0  0  0  0  0  0  0  0
    5.8391   -4.5207   -0.4161 H   0  0  0  0  0  0  0  0  0  0  0  0
   -2.8908   -3.5578    1.5512 H   0  0  0  0  0  0  0  0  0  0  0  0
   -5.6897   -1.0033    3.5770 H   0  0  0  0  0  0  0  0  0  0  0  0
   -4.0022   -2.8205    3.6427 H   0  0  0  0  0  0  0  0  0  0  0  0
    6.1829    2.6591    1.1247 H   0  0  0  0  0  0  0  0  0  0  0  0
  1 31  1  0  0  0  0
  2  4  2  0  0  0  0
  2  5  2  0  0  0  0
  2  9  1  0  0  0  0
  2 13  1  0  0  0  0
  3  6  2  0  0  0  0
  3  7  2  0  0  0  0
  3 21  1  0  0  0  0
  3 24  1  0  0  0  0
  8 26  2  0  0  0  0
  9 14  1  0  0  0  0
  9 18  1  0  0  0  0
 10 17  1  0  0  0  0
 10 26  1  0  0  0  0
 10 44  1  0  0  0  0
 11 24  1  0  0  0  0
 11 25  2  0  0  0  0
 12 24  2  0  0  0  0
 12 32  1  0  0  0  0
 13 15  2  0  0  0  0
 13 16  1  0  0  0  0
 14 22  2  0  0  0  0
 14 23  1  0  0  0  0
 15 19  1  0  0  0  0
 15 33  1  0  0  0  0
 16 20  2  0  0  0  0
 16 34  1  0  0  0  0
 17 19  2  0  0  0  0
 17 20  1  0  0  0  0
 18 35  1  0  0  0  0
 18 36  1  0  0  0  0
 18 37  1  0  0  0  0
 19 38  1  0  0  0  0
 20 39  1  0  0  0  0
 21 27  1  0  0  0  0
 21 40  1  0  0  0  0
 21 41  1  0  0  0  0
 22 28  1  0  0  0  0
 22 42  1  0  0  0  0
 23 29  2  0  0  0  0
 23 43  1  0  0  0  0
 25 26  1  0  0  0  0
 25 31  1  0  0  0  0
 27 45  1  0  0  0  0
 27 46  1  0  0  0  0
 27 47  1  0  0  0  0
 28 30  2  0  0  0  0
 28 48  1  0  0  0  0
 29 30  1  0  0  0  0
 29 49  1  0  0  0  0
 30 50  1  0  0  0  0
 31 32  2  0  0  0  0
 32 51  1  0  0  0  0
M  END
> <PUBCHEM_COMPOUND_CID>
16012896

> <PUBCHEM_CONFORMER_RMSD>
1

> <PUBCHEM_CONFORMER_DIVERSEORDER>
1
67
81
26
39
56
51
49
44
46
35
85
19
65
75
62
30
7
8
48
86
55
23
34
60
87
15
9
38
53
61
79
84
83
69
73
16
17
43
52
4
40
59
72
42
70
11
57
29
41
74
78
33
64
31
5
58
54
47
20
10
28
27
13
77
6
66
14
2
82
71
25
63
24
68
12
50
37
45
36
80
22
18
76
3
21
32

> <PUBCHEM_MMFF94_PARTIAL_CHARGES>
42
1 -0.18
10 -0.55
11 -0.62
12 -0.62
13 -0.01
14 0.2
15 -0.15
16 -0.15
17 0.12
18 0.36
19 -0.15
2 1.45
20 -0.15
21 0.11
22 -0.15
23 -0.15
24 0.61
25 0.4
26 0.54
28 -0.15
29 -0.15
3 1.2
30 -0.15
31 0.18
32 0.16
33 0.15
34 0.15
38 0.15
39 0.15
4 -0.65
42 0.15
43 0.15
44 0.37
48 0.15
49 0.15
5 -0.65
50 0.15
51 0.15
6 -0.65
7 -0.65
8 -0.57
9 -0.69

> <PUBCHEM_EFFECTIVE_ROTOR_COUNT>
8

> <PUBCHEM_PHARMACOPHORE_FEATURES>
11
1 10 donor
1 11 acceptor
1 4 acceptor
1 5 acceptor
1 6 acceptor
1 7 acceptor
1 8 acceptor
3 11 12 24 cation
6 11 12 24 25 31 32 rings
6 13 15 16 17 19 20 rings
6 14 22 23 28 29 30 rings

> <PUBCHEM_HEAVY_ATOM_COUNT>
32

> <PUBCHEM_ATOM_DEF_STEREO_COUNT>
0

> <PUBCHEM_ATOM_UDEF_STEREO_COUNT>
0

> <PUBCHEM_BOND_DEF_STEREO_COUNT>
0

> <PUBCHEM_BOND_UDEF_STEREO_COUNT>
0

> <PUBCHEM_ISOTOPIC_ATOM_COUNT>
0

> <PUBCHEM_COMPONENT_COUNT>
1

> <PUBCHEM_CACTVS_TAUTO_COUNT>
2

> <PUBCHEM_CONFORMER_ID>
00F4566000000001

> <PUBCHEM_MMFF94_ENERGY>
85.1085

> <PUBCHEM_FEATURE_SELFOVERLAP>
55.861

> <PUBCHEM_SHAPE_FINGERPRINT>
10673678 19 18191872439071832388
11135609 12 17895771676634734323
11315621 246 17095522889928270975
11370993 144 18342179998892413865
12655364 131 16271092488959454239
12717326 25 18118982304018746201
13383661 66 17970933238752574075
13782708 43 18261109669276162946
13941219 33 18342186578840307667
14950920 106 17632023056230555323
15347590 135 15332885018972782498
15352257 5 18333735689145287282
15361156 5 18408884027379926005
15510800 12 18041565870638336835
15799311 1 18130508655636361806
17844677 252 18201717392328241633
19958102 18 18040989631454467779
21315759 148 18408324414484256792
21599406 157 17749117677218444182
21623969 137 18343301479335950198
2303208 19 18335423477990211132
23522609 53 16772687687268888304
23559900 14 18334571334882756557
25122255 55 18334862739897364083
25269216 80 16878524408715211139
3089732 80 18335145288790459418
3146122 67 17769389218777008878
4073 2 18335420166639049848
4435113 14 18187944896704030498
46194498 28 18187079560474868196
5104073 3 16486683766264764392
6608658 132 15502651559889453791
8863177 126 18410298029783014754
999808 66 18341338812309814934

> <PUBCHEM_SHAPE_MULTIPOLES>
618.84
18.57
3.85
2.36
9.15
2.36
-0.13
8.32
0.13
4.62
-0.8
-3.56
0.31
5.74

> <PUBCHEM_SHAPE_SELFOVERLAP>
1292.269

> <PUBCHEM_SHAPE_VOLUME>
351.9

> <PUBCHEM_COORDINATE_TYPE>
2
5
10

$$$$
