801258
  -OEChem-01171810003D

 21 22  0     0  0  0  0  0  0999 V2000
    2.9533    2.6131    0.2962 Cl  0  0  0  0  0  0  0  0  0  0  0  0
    4.4226   -0.2544   -0.0295 Cl  0  0  0  0  0  0  0  0  0  0  0  0
    0.5462   -1.1755   -0.1379 O   0  0  0  0  0  0  0  0  0  0  0  0
    2.4365   -2.4112   -0.2698 O   0  0  0  0  0  0  0  0  0  0  0  0
   -1.5468    0.0597    0.0034 C   0  0  0  0  0  0  0  0  0  0  0  0
   -0.0727    0.0903    0.0013 C   0  0  0  0  0  0  0  0  0  0  0  0
    0.6558    1.2067    0.1362 C   0  0  0  0  0  0  0  0  0  0  0  0
   -2.2680    1.1572   -0.4668 C   0  0  0  0  0  0  0  0  0  0  0  0
   -2.2204   -1.0669    0.4756 C   0  0  0  0  0  0  0  0  0  0  0  0
    2.0924    1.1202    0.1265 C   0  0  0  0  0  0  0  0  0  0  0  0
   -3.6625    1.1284   -0.4646 C   0  0  0  0  0  0  0  0  0  0  0  0
   -3.6151   -1.0956    0.4778 C   0  0  0  0  0  0  0  0  0  0  0  0
    2.7059   -0.0642   -0.0076 C   0  0  0  0  0  0  0  0  0  0  0  0
   -4.3360    0.0022    0.0076 C   0  0  0  0  0  0  0  0  0  0  0  0
    1.9090   -1.3102   -0.1484 C   0  0  0  0  0  0  0  0  0  0  0  0
    0.2024    2.1831    0.2708 H   0  0  0  0  0  0  0  0  0  0  0  0
   -1.7778    2.0442   -0.8592 H   0  0  0  0  0  0  0  0  0  0  0  0
   -1.6838   -1.9327    0.8553 H   0  0  0  0  0  0  0  0  0  0  0  0
   -4.2243    1.9813   -0.8345 H   0  0  0  0  0  0  0  0  0  0  0  0
   -4.1400   -1.9719    0.8470 H   0  0  0  0  0  0  0  0  0  0  0  0
   -5.4219   -0.0206    0.0088 H   0  0  0  0  0  0  0  0  0  0  0  0
  1 10  1  0  0  0  0
  2 13  1  0  0  0  0
  3  6  1  0  0  0  0
  3 15  1  0  0  0  0
  4 15  2  0  0  0  0
  5  6  1  0  0  0  0
  5  8  2  0  0  0  0
  5  9  1  0  0  0  0
  6  7  2  0  0  0  0
  7 10  1  0  0  0  0
  7 16  1  0  0  0  0
  8 11  1  0  0  0  0
  8 17  1  0  0  0  0
  9 12  2  0  0  0  0
  9 18  1  0  0  0  0
 10 13  2  0  0  0  0
 11 14  2  0  0  0  0
 11 19  1  0  0  0  0
 12 14  1  0  0  0  0
 12 20  1  0  0  0  0
 13 15  1  0  0  0  0
 14 21  1  0  0  0  0
M  END
> <PUBCHEM_COMPOUND_CID>
801258

> <PUBCHEM_CONFORMER_RMSD>
0.4

> <PUBCHEM_CONFORMER_DIVERSEORDER>
2
1
3

> <PUBCHEM_MMFF94_PARTIAL_CHARGES>
21
1 -0.14
10 0.14
11 -0.15
12 -0.15
13 0.15
14 -0.15
15 0.71
16 0.15
17 0.15
18 0.15
19 0.15
2 -0.14
20 0.15
21 0.15
3 -0.23
4 -0.57
5 0.03
6 0.05
7 -0.15
8 -0.15
9 -0.15

> <PUBCHEM_EFFECTIVE_ROTOR_COUNT>
1

> <PUBCHEM_PHARMACOPHORE_FEATURES>
3
1 4 acceptor
6 3 6 7 10 13 15 rings
6 5 8 9 11 12 14 rings

> <PUBCHEM_HEAVY_ATOM_COUNT>
15

> <PUBCHEM_ATOM_DEF_STEREO_COUNT>
0

> <PUBCHEM_ATOM_UDEF_STEREO_COUNT>
0

> <PUBCHEM_BOND_DEF_STEREO_COUNT>
0

> <PUBCHEM_BOND_UDEF_STEREO_COUNT>
0

> <PUBCHEM_ISOTOPIC_ATOM_COUNT>
0

> <PUBCHEM_COMPONENT_COUNT>
1

> <PUBCHEM_CACTVS_TAUTO_COUNT>
1

> <PUBCHEM_CONFORMER_ID>
000C39EA00000002

> <PUBCHEM_MMFF94_ENERGY>
44.4759

> <PUBCHEM_FEATURE_SELFOVERLAP>
15.223

> <PUBCHEM_SHAPE_FINGERPRINT>
10608611 8 18408037412180015621
10922523 26 18333168358345985477
10980938 120 18341611559411521176
11471102 20 18412824690096772012
11615757 297 17988929989282919113
12500047 106 18259981552965637791
12932764 1 17489298728836056585
13296908 3 18409451354068382511
14144814 61 18411983524999208633
14252887 29 17703796881910890630
14325111 11 18409729603371738033
14415576 193 18335986458045456892
15196674 1 18337672017939426033
15219456 202 18408884066124080793
15375358 24 18335136505349710811
15375462 6 18409730694277613653
15442244 35 18124881161662211705
15536298 74 18341332283553238892
16945 1 18341335517795273760
17834074 16 18409451384022312343
18175812 5 18334575775873289085
18186145 218 18343591741177432049
200 152 18060695096396064431
20201158 50 18410013212815235155
20279233 1 18335423460926308563
20645477 56 18114460072781436885
20645477 70 18273496775389712471
20671657 53 18127982901397329014
21267235 1 18410865364660609843
221490 88 18337117846867756202
22854114 111 18341894133894805656
22943178 12 18333448746801361105
23402539 116 17240478096297592046
23402655 69 18341041914036868725
23557571 272 17530679892708946917
23559900 14 18338230449656012202
2748010 2 18334577940816277103
5104073 3 18408605894093344185
69090 78 18411132546381843847
7364860 26 18413388743872638568
77779 3 18409168831008842865
81228 2 17408249062386348034
8809292 202 18187651335688861363
9709674 26 18408889546534414779

> <PUBCHEM_SHAPE_MULTIPOLES>
300.69
8.06
2.11
0.69
2.1
0.22
-0.01
0.3
-0.06
-1.7
-0.01
0.13
0.03
0.74

> <PUBCHEM_SHAPE_SELFOVERLAP>
631.727

> <PUBCHEM_SHAPE_VOLUME>
170.4

> <PUBCHEM_COORDINATE_TYPE>
2
5
10

$$$$
