1562623
  -OEChem-01171809483D

 49 51  0     0  0  0  0  0  0999 V2000
   -4.7869   -0.5068   -1.4089 S   0  0  0  0  0  0  0  0  0  0  0  0
   -3.2252   -0.8446    2.0613 O   0  0  0  0  0  0  0  0  0  0  0  0
   -2.6286   -1.5254   -2.5104 O   0  0  0  0  0  0  0  0  0  0  0  0
    2.0175    0.8941   -0.0983 O   0  0  0  0  0  0  0  0  0  0  0  0
    5.9711   -1.7491   -0.2599 O   0  0  0  0  0  0  0  0  0  0  0  0
    8.4727   -1.3702    0.5292 O   0  0  0  0  0  0  0  0  0  0  0  0
   -2.6660   -1.3079   -0.1722 N   0  0  0  0  0  0  0  0  0  0  0  0
    3.4794   -0.8198    0.4547 N   0  0  0  0  0  0  0  0  0  0  0  0
    4.5851   -0.0081    0.3826 N   0  0  0  0  0  0  0  0  0  0  0  0
   -1.3561   -1.8496    0.0653 C   0  0  0  0  0  0  0  0  0  0  0  0
   -0.2631   -0.7833    0.0186 C   0  0  0  0  0  0  0  0  0  0  0  0
    1.1391   -1.3285    0.2948 C   0  0  0  0  0  0  0  0  0  0  0  0
   -3.4852   -0.8518    0.8658 C   0  0  0  0  0  0  0  0  0  0  0  0
   -3.1721   -1.2028   -1.4644 C   0  0  0  0  0  0  0  0  0  0  0  0
   -4.7641   -0.3556    0.3024 C   0  0  0  0  0  0  0  0  0  0  0  0
    2.2327   -0.2786    0.1971 C   0  0  0  0  0  0  0  0  0  0  0  0
   -5.7522    0.1398    1.0489 C   0  0  0  0  0  0  0  0  0  0  0  0
   -7.0433    0.6471    0.5481 C   0  0  0  0  0  0  0  0  0  0  0  0
   -7.1673    1.9903    0.2345 C   0  0  0  0  0  0  0  0  0  0  0  0
   -8.1049   -0.2301    0.4018 C   0  0  0  0  0  0  0  0  0  0  0  0
    5.7952   -0.5646    0.0145 C   0  0  0  0  0  0  0  0  0  0  0  0
    6.9411    0.3785   -0.0605 C   0  0  0  0  0  0  0  0  0  0  0  0
   -8.3884    2.4703   -0.2389 C   0  0  0  0  0  0  0  0  0  0  0  0
   -9.3259    0.2499   -0.0717 C   0  0  0  0  0  0  0  0  0  0  0  0
    8.2191   -0.0722    0.2002 C   0  0  0  0  0  0  0  0  0  0  0  0
   -9.4677    1.6002   -0.3921 C   0  0  0  0  0  0  0  0  0  0  0  0
    6.6794    1.6928   -0.3926 C   0  0  0  0  0  0  0  0  0  0  0  0
    9.2809    0.8292    0.1255 C   0  0  0  0  0  0  0  0  0  0  0  0
    7.7414    2.5942   -0.4672 C   0  0  0  0  0  0  0  0  0  0  0  0
    9.0421    2.1624   -0.2081 C   0  0  0  0  0  0  0  0  0  0  0  0
   -1.3484   -2.3342    1.0485 H   0  0  0  0  0  0  0  0  0  0  0  0
   -1.1468   -2.6193   -0.6868 H   0  0  0  0  0  0  0  0  0  0  0  0
   -0.4919    0.0069    0.7456 H   0  0  0  0  0  0  0  0  0  0  0  0
   -0.2754   -0.2952   -0.9647 H   0  0  0  0  0  0  0  0  0  0  0  0
    1.1725   -1.7647    1.3003 H   0  0  0  0  0  0  0  0  0  0  0  0
    1.3710   -2.1252   -0.4224 H   0  0  0  0  0  0  0  0  0  0  0  0
   -5.6456    0.1977    2.1301 H   0  0  0  0  0  0  0  0  0  0  0  0
    3.6301   -1.7910    0.7083 H   0  0  0  0  0  0  0  0  0  0  0  0
    4.4545    0.9559    0.6705 H   0  0  0  0  0  0  0  0  0  0  0  0
   -6.3339    2.6780    0.3502 H   0  0  0  0  0  0  0  0  0  0  0  0
   -8.0071   -1.2839    0.6488 H   0  0  0  0  0  0  0  0  0  0  0  0
   -8.4988    3.5216   -0.4883 H   0  0  0  0  0  0  0  0  0  0  0  0
  -10.1664   -0.4274   -0.1909 H   0  0  0  0  0  0  0  0  0  0  0  0
  -10.4184    1.9739   -0.7607 H   0  0  0  0  0  0  0  0  0  0  0  0
    5.6858    2.0589   -0.6305 H   0  0  0  0  0  0  0  0  0  0  0  0
   10.2995    0.5070    0.3246 H   0  0  0  0  0  0  0  0  0  0  0  0
    7.5569    3.6308   -0.7338 H   0  0  0  0  0  0  0  0  0  0  0  0
    9.8690    2.8640   -0.2677 H   0  0  0  0  0  0  0  0  0  0  0  0
    9.4283   -1.4809    0.6725 H   0  0  0  0  0  0  0  0  0  0  0  0
  1 14  1  0  0  0  0
  1 15  1  0  0  0  0
  2 13  2  0  0  0  0
  3 14  2  0  0  0  0
  4 16  2  0  0  0  0
  5 21  2  0  0  0  0
  6 25  1  0  0  0  0
  6 49  1  0  0  0  0
  7 10  1  0  0  0  0
  7 13  1  0  0  0  0
  7 14  1  0  0  0  0
  8  9  1  0  0  0  0
  8 16  1  0  0  0  0
  8 38  1  0  0  0  0
  9 21  1  0  0  0  0
  9 39  1  0  0  0  0
 10 11  1  0  0  0  0
 10 31  1  0  0  0  0
 10 32  1  0  0  0  0
 11 12  1  0  0  0  0
 11 33  1  0  0  0  0
 11 34  1  0  0  0  0
 12 16  1  0  0  0  0
 12 35  1  0  0  0  0
 12 36  1  0  0  0  0
 13 15  1  0  0  0  0
 15 17  2  0  0  0  0
 17 18  1  0  0  0  0
 17 37  1  0  0  0  0
 18 19  2  0  0  0  0
 18 20  1  0  0  0  0
 19 23  1  0  0  0  0
 19 40  1  0  0  0  0
 20 24  2  0  0  0  0
 20 41  1  0  0  0  0
 21 22  1  0  0  0  0
 22 25  1  0  0  0  0
 22 27  2  0  0  0  0
 23 26  2  0  0  0  0
 23 42  1  0  0  0  0
 24 26  1  0  0  0  0
 24 43  1  0  0  0  0
 25 28  2  0  0  0  0
 26 44  1  0  0  0  0
 27 29  1  0  0  0  0
 27 45  1  0  0  0  0
 28 30  1  0  0  0  0
 28 46  1  0  0  0  0
 29 30  2  0  0  0  0
 29 47  1  0  0  0  0
 30 48  1  0  0  0  0
M  END
> <PUBCHEM_COMPOUND_CID>
1562623

> <PUBCHEM_CONFORMER_RMSD>
1

> <PUBCHEM_CONFORMER_DIVERSEORDER>
1
108
142
88
137
101
85
17
70
54
4
152
95
183
194
28
177
41
170
209
86
179
164
106
20
178
206
187
83
130
204
80
185
9
2
31
57
212
45
202
112
200
82
68
139
199
105
161
96
186
146
140
67
60
210
65
120
167
157
131
127
198
144
84
3
166
190
188
91
192
98
102
74
5
72
64
16
203
12
40
153
154
160
125
169
208
141
93
66
143
52
136
211
156
117
175
171
19
158
55
73
182
36
111
180
15
26
201
38
27
94
119
147
48
132
176
90
50
151
87
195
126
135
110
205
122
159
115
25
104
163
8
75
33
32
134
62
173
21
29
148
78
181
150
92
193
184
6
124
42
13
99
155
44
58
81
49
61
79
18
11
39
133
43
100
165
69
174
53
47
10
128
22
35
59
63
189
7
97
121
123
51
77
196
129
37
149
162
23
197
168
56
172
191
107
138
116
34
30
113
118
76
14
46
71
114
24
103
89
207
145
109

> <PUBCHEM_MMFF94_PARTIAL_CHARGES>
42
1 -0.24
10 0.3
12 0.06
13 0.62
14 0.77
15 0.12
16 0.57
17 -0.18
18 0.03
19 -0.15
2 -0.57
20 -0.15
21 0.54
22 0.09
23 -0.15
24 -0.15
25 0.08
26 -0.15
27 -0.15
28 -0.15
29 -0.15
3 -0.57
30 -0.15
37 0.15
38 0.37
39 0.37
4 -0.57
40 0.15
41 0.15
42 0.15
43 0.15
44 0.15
45 0.15
46 0.15
47 0.15
48 0.15
49 0.45
5 -0.57
6 -0.53
7 -0.42
8 -0.43
9 -0.43

> <PUBCHEM_EFFECTIVE_ROTOR_COUNT>
9.4

> <PUBCHEM_PHARMACOPHORE_FEATURES>
9
1 2 acceptor
1 4 acceptor
1 5 acceptor
1 6 donor
1 8 donor
1 9 donor
5 1 7 13 14 15 rings
6 18 19 20 23 24 26 rings
6 22 25 27 28 29 30 rings

> <PUBCHEM_HEAVY_ATOM_COUNT>
30

> <PUBCHEM_ATOM_DEF_STEREO_COUNT>
0

> <PUBCHEM_ATOM_UDEF_STEREO_COUNT>
0

> <PUBCHEM_BOND_DEF_STEREO_COUNT>
1

> <PUBCHEM_BOND_UDEF_STEREO_COUNT>
0

> <PUBCHEM_ISOTOPIC_ATOM_COUNT>
0

> <PUBCHEM_COMPONENT_COUNT>
1

> <PUBCHEM_CACTVS_TAUTO_COUNT>
14

> <PUBCHEM_CONFORMER_ID>
0017D7FF00000001

> <PUBCHEM_MMFF94_ENERGY>
65.4899

> <PUBCHEM_FEATURE_SELFOVERLAP>
47.211

> <PUBCHEM_SHAPE_FINGERPRINT>
10 15 17240197733596254123
10162869 55 10807933765935166770
10625338 86 17458056046146346341
10904742 90 18408603652163067699
11386260 185 15195275452588721474
12539745 222 10665223753657052231
13150687 139 14477243768814546980
13383668 90 13254793513757230705
13553643 46 17749385979683880860
13740195 50 18114185268068148819
14118638 360 15769506334770333303
14150022 121 16878220862919529405
15183329 4 17346605201264072034
15461852 350 17560798870848000167
155225 1 18411419489131562225
15690457 1 9727637198448876332
1577012 14 18272082811968759327
15840311 113 18333454227549039310
15890870 6 18343018870793776477
18643901 69 12463570673778972569
19315958 150 18341618087741316558
2026 5 11167675265101914468
20505436 4 18411693284180019279
21095123 293 18410573993805423628
21792934 111 18342451544543085344
21895431 317 12175356756090399348
23576562 1 16414901080288482273
249057 3 16630521856162301099
335352 9 17418371402971366163
3711267 37 18339654381570459113
44280117 145 17970636401057886915
45266715 3 13470419863428144100
4760202 170 18060131072802086072
4874694 18 16128653047083601974
504579 68 16774079596364727440
6201320 82 17773608109955566105
636775 72 18261394413171943525
6691757 9 16630535063762359879
67123 10 18410012148138034531
9663363 56 14706925147758211095
9953998 17 16950285126677579435

> <PUBCHEM_SHAPE_MULTIPOLES>
576.95
38.78
2.2
1.16
22.85
1.13
-0.35
24.19
0.71
0.77
-0.33
-1.7
-0.47
-0.9

> <PUBCHEM_SHAPE_SELFOVERLAP>
1223.929

> <PUBCHEM_SHAPE_VOLUME>
321.8

> <PUBCHEM_COORDINATE_TYPE>
2
5
10

$$$$
