2027229
  -OEChem-01171809253D

 37 40  0     0  0  0  0  0  0999 V2000
    4.2263    2.6802   -0.0764 Cl  0  0  0  0  0  0  0  0  0  0  0  0
    1.2429    1.5402   -0.2845 O   0  0  0  0  0  0  0  0  0  0  0  0
   -1.1116    1.2166   -0.5296 N   0  0  0  0  0  0  0  0  0  0  0  0
    2.7893   -1.5994    0.2700 N   0  0  0  0  0  0  0  0  0  0  0  0
    4.5365    0.1052    0.2688 N   0  0  0  0  0  0  0  0  0  0  0  0
   -1.8308   -1.0830   -0.3306 C   0  0  0  0  0  0  0  0  0  0  0  0
   -0.5259   -1.5349   -0.1180 C   0  0  0  0  0  0  0  0  0  0  0  0
   -2.8009   -2.2184   -0.3422 C   0  0  0  0  0  0  0  0  0  0  0  0
   -0.5043   -3.0297    0.0327 C   0  0  0  0  0  0  0  0  0  0  0  0
   -1.9789   -3.3162    0.3509 C   0  0  0  0  0  0  0  0  0  0  0  0
   -2.0685    0.2599   -0.5334 C   0  0  0  0  0  0  0  0  0  0  0  0
    0.5047   -0.5951   -0.1119 C   0  0  0  0  0  0  0  0  0  0  0  0
   -3.4620    0.7370   -0.7813 C   0  0  0  0  0  0  0  0  0  0  0  0
   -3.9832    1.7559    0.2606 C   0  0  0  0  0  0  0  0  0  0  0  0
    0.1347    0.7388   -0.3184 C   0  0  0  0  0  0  0  0  0  0  0  0
    1.9099   -0.5927    0.0483 C   0  0  0  0  0  0  0  0  0  0  0  0
    2.3102    0.7302   -0.0633 C   0  0  0  0  0  0  0  0  0  0  0  0
   -3.8893    1.2089    1.6872 C   0  0  0  0  0  0  0  0  0  0  0  0
   -3.1999    3.0672    0.1591 C   0  0  0  0  0  0  0  0  0  0  0  0
    3.6370    1.0898    0.0473 C   0  0  0  0  0  0  0  0  0  0  0  0
    4.0639   -1.1608    0.3647 C   0  0  0  0  0  0  0  0  0  0  0  0
   -3.7133   -2.0156    0.2251 H   0  0  0  0  0  0  0  0  0  0  0  0
   -3.0473   -2.4987   -1.3713 H   0  0  0  0  0  0  0  0  0  0  0  0
   -0.2052   -3.4948   -0.9122 H   0  0  0  0  0  0  0  0  0  0  0  0
    0.1567   -3.3588    0.8389 H   0  0  0  0  0  0  0  0  0  0  0  0
   -2.2842   -4.3220    0.0461 H   0  0  0  0  0  0  0  0  0  0  0  0
   -2.1310   -3.2475    1.4373 H   0  0  0  0  0  0  0  0  0  0  0  0
   -3.4927    1.1907   -1.7810 H   0  0  0  0  0  0  0  0  0  0  0  0
   -4.1745   -0.0935   -0.8255 H   0  0  0  0  0  0  0  0  0  0  0  0
   -5.0347    1.9639    0.0269 H   0  0  0  0  0  0  0  0  0  0  0  0
   -4.3501    1.9089    2.3928 H   0  0  0  0  0  0  0  0  0  0  0  0
   -4.4206    0.2551    1.7711 H   0  0  0  0  0  0  0  0  0  0  0  0
   -2.8542    1.0531    2.0081 H   0  0  0  0  0  0  0  0  0  0  0  0
   -3.0693    3.3821   -0.8814 H   0  0  0  0  0  0  0  0  0  0  0  0
   -2.2224    3.0261    0.6476 H   0  0  0  0  0  0  0  0  0  0  0  0
   -3.7583    3.8625    0.6674 H   0  0  0  0  0  0  0  0  0  0  0  0
    4.8116   -1.9264    0.5425 H   0  0  0  0  0  0  0  0  0  0  0  0
  1 20  1  0  0  0  0
  2 15  1  0  0  0  0
  2 17  1  0  0  0  0
  3 11  2  0  0  0  0
  3 15  1  0  0  0  0
  4 16  1  0  0  0  0
  4 21  2  0  0  0  0
  5 20  2  0  0  0  0
  5 21  1  0  0  0  0
  6  7  2  0  0  0  0
  6  8  1  0  0  0  0
  6 11  1  0  0  0  0
  7  9  1  0  0  0  0
  7 12  1  0  0  0  0
  8 10  1  0  0  0  0
  8 22  1  0  0  0  0
  8 23  1  0  0  0  0
  9 10  1  0  0  0  0
  9 24  1  0  0  0  0
  9 25  1  0  0  0  0
 10 26  1  0  0  0  0
 10 27  1  0  0  0  0
 11 13  1  0  0  0  0
 12 15  2  0  0  0  0
 12 16  1  0  0  0  0
 13 14  1  0  0  0  0
 13 28  1  0  0  0  0
 13 29  1  0  0  0  0
 14 18  1  0  0  0  0
 14 19  1  0  0  0  0
 14 30  1  0  0  0  0
 16 17  2  0  0  0  0
 17 20  1  0  0  0  0
 18 31  1  0  0  0  0
 18 32  1  0  0  0  0
 18 33  1  0  0  0  0
 19 34  1  0  0  0  0
 19 35  1  0  0  0  0
 19 36  1  0  0  0  0
 21 37  1  0  0  0  0
M  END
> <PUBCHEM_COMPOUND_CID>
2027229

> <PUBCHEM_CONFORMER_RMSD>
0.6

> <PUBCHEM_CONFORMER_DIVERSEORDER>
1
2
3

> <PUBCHEM_MMFF94_PARTIAL_CHARGES>
17
1 -0.18
11 0.17
13 0.14
15 0.4
16 0.26
17 0.14
2 -0.28
20 0.49
21 0.47
3 -0.57
37 0.15
4 -0.57
5 -0.62
6 -0.14
7 -0.14
8 0.14
9 0.14

> <PUBCHEM_EFFECTIVE_ROTOR_COUNT>
2.6

> <PUBCHEM_PHARMACOPHORE_FEATURES>
9
1 2 acceptor
1 3 acceptor
1 5 acceptor
3 14 18 19 hydrophobe
3 4 5 21 cation
5 2 12 15 16 17 rings
5 6 7 8 9 10 rings
6 3 6 7 11 12 15 rings
6 4 5 16 17 20 21 rings

> <PUBCHEM_HEAVY_ATOM_COUNT>
21

> <PUBCHEM_ATOM_DEF_STEREO_COUNT>
0

> <PUBCHEM_ATOM_UDEF_STEREO_COUNT>
0

> <PUBCHEM_BOND_DEF_STEREO_COUNT>
0

> <PUBCHEM_BOND_UDEF_STEREO_COUNT>
0

> <PUBCHEM_ISOTOPIC_ATOM_COUNT>
0

> <PUBCHEM_COMPONENT_COUNT>
1

> <PUBCHEM_CACTVS_TAUTO_COUNT>
5

> <PUBCHEM_CONFORMER_ID>
001EEEDD00000001

> <PUBCHEM_MMFF94_ENERGY>
46.2308

> <PUBCHEM_FEATURE_SELFOVERLAP>
46.025

> <PUBCHEM_SHAPE_FINGERPRINT>
10319926 262 18197475498781304624
10411042 1 17545600514379831038
10493431 412 18411420566477049137
10608611 8 18339072808875432996
10616163 171 18337953523260729678
10967382 1 18265327309638204054
1100329 8 18337948979206299690
11405975 8 18409725175766592050
12107183 9 18264197012159390162
12173636 292 18411412934098533965
12390115 104 18196104458925838372
12553582 1 17761772171011469990
12633257 1 18336536136892467578
12788726 201 18118953935206459051
13140716 1 18408323267680398994
13544592 145 18127984014026104014
13583140 156 16878215381612811201
138480 1 17185592413012150415
14081887 123 17982153819348358618
14178342 30 18264475355978276200
14466204 15 17833542401962460672
14787075 74 18130786751027964337
14790565 3 18194129512392843100
15196674 1 18337104670303432126
15309172 13 18335985251391469269
15442244 35 18409162216938522622
16945 1 18264762156218795447
1741750 31 18413670231449226200
18186145 218 18341331085225611148
19591789 44 17690282612394666366
20157964 124 17834110845965589021
204376 136 18339365167399550465
20510252 161 18269555095250737531
20739085 24 17973744488057958188
20775438 99 16112564189597929799
21033648 29 18264754498319214385
21267235 1 18335705009165818318
21501502 16 18337104665823887486
21524375 3 18201434723692604709
21731228 192 18338805515944154267
22182937 141 18341899618741914865
23184049 59 18261958423000410068
2334 1 18336824302969555903
23557571 272 18198354033777100988
23558518 356 18188212129479145930
23559900 14 18342452617942153694
25147074 1 18114178688109490660
2748010 2 18408885161098375815
283562 15 17904478850579949546
3091708 16 9269809356915180723
335352 9 18337950070244180486
350125 39 18338519754621574697
4214541 1 18409726300794848244
474 4 18269554936373870745
5104073 3 18336820987845277472
58807428 26 18336261224225352563
633830 44 18129101117607744405
6913067 236 10810206550067659838
6992083 37 18114183055453012157
7226269 152 17916859102622092288
81228 2 18044650034707265515
9709674 26 18413107281907846502

> <PUBCHEM_SHAPE_MULTIPOLES>
413.23
8.33
3.59
0.84
5.04
0.9
-0.19
-4.71
-1.29
-2.11
-0.28
-0.68
-0.18
-0.63

> <PUBCHEM_SHAPE_SELFOVERLAP>
912.095

> <PUBCHEM_SHAPE_VOLUME>
226.8

> <PUBCHEM_COORDINATE_TYPE>
2
5
10

$$$$
