46903697
  -OEChem-01171810183D

 75 78  0     1  0  0  0  0  0999 V2000
    1.2437   -4.1792   -0.7799 S   0  0  0  0  0  0  0  0  0  0  0  0
    0.7505   -1.8324    1.2345 O   0  0  0  0  0  0  0  0  0  0  0  0
    2.0527   -5.1269   -0.0350 O   0  0  0  0  0  0  0  0  0  0  0  0
    0.9974   -4.3746   -2.1976 O   0  0  0  0  0  0  0  0  0  0  0  0
   -2.2216   -7.0198   -0.8976 O   0  0  0  0  0  0  0  0  0  0  0  0
   -3.4984    0.1795    1.9052 O   0  0  0  0  0  0  0  0  0  0  0  0
   -6.5458    5.1798   -1.2134 O   0  0  0  0  0  0  0  0  0  0  0  0
   -0.2886   -4.0183    0.0082 N   0  0  1  0  0  0  0  0  0  0  0  0
   -1.3890    1.1039    1.4781 N   0  0  0  0  0  0  0  0  0  0  0  0
   -3.3532    2.3105    0.9831 N   0  0  0  0  0  0  0  0  0  0  0  0
    7.4433    5.3661    0.0723 N   0  0  0  0  0  0  0  0  0  0  0  0
   -1.5927   -1.9390    0.5531 C   0  0  2  0  0  0  0  0  0  0  0  0
   -1.2474   -2.9906   -0.5230 C   0  0  0  0  0  0  0  0  0  0  0  0
   -0.3797   -1.0242    0.8513 C   0  0  1  0  0  0  0  0  0  0  0  0
   -0.9687   -5.3254    0.2624 C   0  0  1  0  0  0  0  0  0  0  0  0
   -0.6505   -0.0179    1.9695 C   0  0  0  0  0  0  0  0  0  0  0  0
   -2.1925   -2.5830    1.8083 C   0  0  0  0  0  0  0  0  0  0  0  0
    2.0844   -2.6311   -0.6149 C   0  0  0  0  0  0  0  0  0  0  0  0
    1.7815   -1.6714    0.3492 C   0  0  0  0  0  0  0  0  0  0  0  0
   -1.2230   -6.0208   -1.0708 C   0  0  0  0  0  0  0  0  0  0  0  0
   -0.0846   -6.1657    1.1731 C   0  0  0  0  0  0  0  0  0  0  0  0
    3.1453   -2.4150   -1.5042 C   0  0  0  0  0  0  0  0  0  0  0  0
    2.5727   -0.5190    0.4508 C   0  0  0  0  0  0  0  0  0  0  0  0
   -0.6082    2.2414    0.9672 C   0  0  0  0  0  0  0  0  0  0  0  0
    3.9108   -1.2527   -1.4159 C   0  0  0  0  0  0  0  0  0  0  0  0
    3.6290   -0.3076   -0.4340 C   0  0  0  0  0  0  0  0  0  0  0  0
   -2.8212    1.1193    1.4829 C   0  0  0  0  0  0  0  0  0  0  0  0
    4.4232    0.8748   -0.3284 C   0  0  0  0  0  0  0  0  0  0  0  0
   -4.5855    2.4909    0.3071 C   0  0  0  0  0  0  0  0  0  0  0  0
   -4.9636    3.7617   -0.1266 C   0  0  0  0  0  0  0  0  0  0  0  0
   -5.4208    1.3979    0.0759 C   0  0  0  0  0  0  0  0  0  0  0  0
    5.0917    1.8691   -0.2402 C   0  0  0  0  0  0  0  0  0  0  0  0
   -6.1769    3.9395   -0.7915 C   0  0  0  0  0  0  0  0  0  0  0  0
   -6.6342    1.5757   -0.5887 C   0  0  0  0  0  0  0  0  0  0  0  0
    5.8873    3.0531   -0.1350 C   0  0  0  0  0  0  0  0  0  0  0  0
   -7.0122    2.8464   -1.0227 C   0  0  0  0  0  0  0  0  0  0  0  0
    6.3704    3.6745   -1.2813 C   0  0  0  0  0  0  0  0  0  0  0  0
    6.1813    3.5869    1.1148 C   0  0  0  0  0  0  0  0  0  0  0  0
    7.1369    4.8182   -1.1251 C   0  0  0  0  0  0  0  0  0  0  0  0
    6.9562    4.7347    1.1640 C   0  0  0  0  0  0  0  0  0  0  0  0
   -7.7997    5.2905   -1.8854 C   0  0  0  0  0  0  0  0  0  0  0  0
   -2.3766   -1.3106    0.1119 H   0  0  0  0  0  0  0  0  0  0  0  0
   -0.8220   -2.4916   -1.4013 H   0  0  0  0  0  0  0  0  0  0  0  0
   -2.1774   -3.4586   -0.8646 H   0  0  0  0  0  0  0  0  0  0  0  0
   -0.1653   -0.4731   -0.0781 H   0  0  0  0  0  0  0  0  0  0  0  0
   -1.9154   -5.1520    0.7845 H   0  0  0  0  0  0  0  0  0  0  0  0
    0.2914    0.3497    2.3950 H   0  0  0  0  0  0  0  0  0  0  0  0
   -1.1696   -0.4612    2.8221 H   0  0  0  0  0  0  0  0  0  0  0  0
   -2.6202   -1.8756    2.5165 H   0  0  0  0  0  0  0  0  0  0  0  0
   -3.0109   -3.2565    1.5304 H   0  0  0  0  0  0  0  0  0  0  0  0
   -1.4445   -3.1687    2.3531 H   0  0  0  0  0  0  0  0  0  0  0  0
   -0.3282   -6.5185   -1.4585 H   0  0  0  0  0  0  0  0  0  0  0  0
   -1.5899   -5.3378   -1.8423 H   0  0  0  0  0  0  0  0  0  0  0  0
    0.6373   -6.7906    0.6398 H   0  0  0  0  0  0  0  0  0  0  0  0
   -0.7188   -6.8802    1.7137 H   0  0  0  0  0  0  0  0  0  0  0  0
    0.4235   -5.5653    1.9355 H   0  0  0  0  0  0  0  0  0  0  0  0
    3.4014   -3.1514   -2.2617 H   0  0  0  0  0  0  0  0  0  0  0  0
    2.3579    0.2157    1.2235 H   0  0  0  0  0  0  0  0  0  0  0  0
   -0.5998    3.0254    1.7296 H   0  0  0  0  0  0  0  0  0  0  0  0
   -1.0466    2.6242    0.0415 H   0  0  0  0  0  0  0  0  0  0  0  0
    0.4184    1.9321    0.7513 H   0  0  0  0  0  0  0  0  0  0  0  0
    4.7327   -1.1061   -2.1127 H   0  0  0  0  0  0  0  0  0  0  0  0
   -2.3546   -7.4444   -1.7622 H   0  0  0  0  0  0  0  0  0  0  0  0
   -2.7928    3.1533    1.0674 H   0  0  0  0  0  0  0  0  0  0  0  0
   -4.3177    4.6185    0.0504 H   0  0  0  0  0  0  0  0  0  0  0  0
   -5.1692    0.3852    0.3666 H   0  0  0  0  0  0  0  0  0  0  0  0
   -7.2819    0.7235   -0.7736 H   0  0  0  0  0  0  0  0  0  0  0  0
   -7.9666    2.9129   -1.5335 H   0  0  0  0  0  0  0  0  0  0  0  0
    6.1620    3.2874   -2.2735 H   0  0  0  0  0  0  0  0  0  0  0  0
    5.8222    3.1302    2.0315 H   0  0  0  0  0  0  0  0  0  0  0  0
    7.5376    5.3404   -1.9877 H   0  0  0  0  0  0  0  0  0  0  0  0
    7.2137    5.1907    2.1142 H   0  0  0  0  0  0  0  0  0  0  0  0
   -7.9329    6.3447   -2.1495 H   0  0  0  0  0  0  0  0  0  0  0  0
   -8.6333    5.0176   -1.2294 H   0  0  0  0  0  0  0  0  0  0  0  0
   -7.8056    4.7230   -2.8221 H   0  0  0  0  0  0  0  0  0  0  0  0
  1  3  2  0  0  0  0
  1  4  2  0  0  0  0
  1  8  1  0  0  0  0
  1 18  1  0  0  0  0
  2 14  1  0  0  0  0
  2 19  1  0  0  0  0
  5 20  1  0  0  0  0
  5 63  1  0  0  0  0
  6 27  2  0  0  0  0
  7 33  1  0  0  0  0
  7 41  1  0  0  0  0
  8 13  1  0  0  0  0
  8 15  1  0  0  0  0
  9 16  1  0  0  0  0
  9 24  1  0  0  0  0
  9 27  1  0  0  0  0
 10 27  1  0  0  0  0
 10 29  1  0  0  0  0
 10 64  1  0  0  0  0
 11 39  2  0  0  0  0
 11 40  1  0  0  0  0
 12 13  1  0  0  0  0
 12 14  1  0  0  0  0
 12 17  1  0  0  0  0
 12 42  1  0  0  0  0
 13 43  1  0  0  0  0
 13 44  1  0  0  0  0
 14 16  1  0  0  0  0
 14 45  1  0  0  0  0
 15 20  1  0  0  0  0
 15 21  1  0  0  0  0
 15 46  1  0  0  0  0
 16 47  1  0  0  0  0
 16 48  1  0  0  0  0
 17 49  1  0  0  0  0
 17 50  1  0  0  0  0
 17 51  1  0  0  0  0
 18 19  2  0  0  0  0
 18 22  1  0  0  0  0
 19 23  1  0  0  0  0
 20 52  1  0  0  0  0
 20 53  1  0  0  0  0
 21 54  1  0  0  0  0
 21 55  1  0  0  0  0
 21 56  1  0  0  0  0
 22 25  2  0  0  0  0
 22 57  1  0  0  0  0
 23 26  2  0  0  0  0
 23 58  1  0  0  0  0
 24 59  1  0  0  0  0
 24 60  1  0  0  0  0
 24 61  1  0  0  0  0
 25 26  1  0  0  0  0
 25 62  1  0  0  0  0
 26 28  1  0  0  0  0
 28 32  3  0  0  0  0
 29 30  2  0  0  0  0
 29 31  1  0  0  0  0
 30 33  1  0  0  0  0
 30 65  1  0  0  0  0
 31 34  2  0  0  0  0
 31 66  1  0  0  0  0
 32 35  1  0  0  0  0
 33 36  2  0  0  0  0
 34 36  1  0  0  0  0
 34 67  1  0  0  0  0
 35 37  2  0  0  0  0
 35 38  1  0  0  0  0
 36 68  1  0  0  0  0
 37 39  1  0  0  0  0
 37 69  1  0  0  0  0
 38 40  2  0  0  0  0
 38 70  1  0  0  0  0
 39 71  1  0  0  0  0
 40 72  1  0  0  0  0
 41 73  1  0  0  0  0
 41 74  1  0  0  0  0
 41 75  1  0  0  0  0
M  END
> <PUBCHEM_COMPOUND_CID>
46903697

> <PUBCHEM_CONFORMER_RMSD>
1

> <PUBCHEM_CONFORMER_DIVERSEORDER>
15
53
43
23
149
68
158
24
37
156
10
239
130
170
29
227
69
157
162
67
21
160
84
115
141
218
132
177
71
55
103
28
145
112
35
86
47
167
4
74
228
77
232
153
137
14
73
81
48
189
16
138
200
127
178
33
195
116
146
165
161
221
44
91
181
31
105
143
237
72
49
220
26
3
176
198
148
108
58
197
199
190
59
90
82
216
17
174
52
25
63
27
117
175
168
208
32
92
131
110
135
60
109
6
206
224
79
34
19
214
231
54
123
126
99
185
129
22
101
94
119
211
1
134
155
172
42
154
114
159
88
163
196
46
104
107
128
7
124
164
87
235
30
166
9
179
151
57
70
133
125
229
18
187
120
140
215
39
111
100
61
194
188
204
122
12
192
152
193
45
121
106
139
171
203
182
183
236
65
8
62
80
142
75
83
233
2
113
219
209
76
5
66
93
40
184
41
205
217
173
213
50
11
207
85
242
89
78
180
230
118
212
234
201
64
238
150
13
95
222
240
51
210
241
169
56
36
226
98
136
102
144
20
97
225
96
147
223
38
202
186
191

> <PUBCHEM_MMFF94_PARTIAL_CHARGES>
51
1 1.45
10 -0.55
11 -0.62
13 0.36
14 0.28
15 0.36
16 0.3
18 -0.01
19 0.08
2 -0.36
20 0.28
22 -0.15
23 -0.15
24 0.3
25 -0.15
26 0.07
27 0.69
28 -0.07
29 0.12
3 -0.65
30 -0.15
31 -0.15
32 -0.07
33 0.08
34 -0.15
35 0.07
36 -0.15
37 -0.15
38 -0.15
39 0.16
4 -0.65
40 0.16
41 0.28
5 -0.68
57 0.15
58 0.15
6 -0.57
62 0.15
63 0.4
64 0.37
65 0.15
66 0.15
67 0.15
68 0.15
69 0.15
7 -0.36
70 0.15
71 0.15
72 0.15
8 -0.85
9 -0.66

> <PUBCHEM_EFFECTIVE_ROTOR_COUNT>
9

> <PUBCHEM_PHARMACOPHORE_FEATURES>
12
1 10 donor
1 11 acceptor
1 2 acceptor
1 3 acceptor
1 4 acceptor
1 5 acceptor
1 5 donor
1 6 acceptor
1 7 acceptor
6 11 35 37 38 39 40 rings
6 18 19 22 23 25 26 rings
6 29 30 31 33 34 36 rings

> <PUBCHEM_HEAVY_ATOM_COUNT>
41

> <PUBCHEM_ATOM_DEF_STEREO_COUNT>
3

> <PUBCHEM_ATOM_UDEF_STEREO_COUNT>
0

> <PUBCHEM_BOND_DEF_STEREO_COUNT>
0

> <PUBCHEM_BOND_UDEF_STEREO_COUNT>
0

> <PUBCHEM_ISOTOPIC_ATOM_COUNT>
0

> <PUBCHEM_COMPONENT_COUNT>
1

> <PUBCHEM_CACTVS_TAUTO_COUNT>
2

> <PUBCHEM_CONFORMER_ID>
02CBB1910000000F

> <PUBCHEM_MMFF94_ENERGY>
139.3351

> <PUBCHEM_FEATURE_SELFOVERLAP>
60.92

> <PUBCHEM_SHAPE_FINGERPRINT>
10258939 38 17970093178136799971
10290309 65 18340785817969104298
10673678 19 18337673010277636837
10675989 125 18196095447567337664
10864689 126 18411989087647625524
11135609 127 18265041445516497549
11479125 193 18337380548785639917
14512766 119 18125737913972143452
15082195 135 18123748652181002577
15198563 99 17836649999684602446
15324884 4 17901144946683273762
15400415 2 18411706482350587600
16628084 112 17257096394450647096
19304152 47 17900276479000517976
21133410 127 18263374736518671684
21779490 112 18339357599651662813
21792965 68 18055913449873341836
21927370 108 17330854915976847538
23522609 53 17559121961409101313
23569914 2 16591087739185417053
3103668 31 17909267227955605558
3418910 222 16895969527407673736
3534868 343 17769654204788298352
376196 1 18188219680248002299
44426701 194 18189596325015502493
45270241 37 18194962947177066877
57591035 28 17765700709858872679
59521099 67 17544186087117091187
6677587 24 18044910429921541869

> <PUBCHEM_SHAPE_MULTIPOLES>
792.47
18.75
12.48
1.7
0.15
10.41
0.1
-52.74
-6.59
0.83
-4.02
0.58
0.03
3.96

> <PUBCHEM_SHAPE_SELFOVERLAP>
1671.569

> <PUBCHEM_SHAPE_VOLUME>
443.8

> <PUBCHEM_COORDINATE_TYPE>
2
5
10

$$$$
