4214093
  -OEChem-01171809393D

 52 55  0     1  0  0  0  0  0999 V2000
   -7.0066    0.0470   -0.5080 Cl  0  0  0  0  0  0  0  0  0  0  0  0
    2.5602    1.1154    2.9022 S   0  0  0  0  0  0  0  0  0  0  0  0
    3.0203   -2.4313   -0.8502 O   0  0  0  0  0  0  0  0  0  0  0  0
    2.8062   -1.8282    2.0713 O   0  0  0  0  0  0  0  0  0  0  0  0
    3.7621    1.7948   -1.8256 O   0  0  0  0  0  0  0  0  0  0  0  0
    0.6962   -1.5656    1.1699 N   0  0  0  0  0  0  0  0  0  0  0  0
   -0.5287   -0.9702    1.2560 N   0  0  0  0  0  0  0  0  0  0  0  0
    0.9475    1.9820    0.9798 N   0  0  0  0  0  0  0  0  0  0  0  0
    3.1837    1.4815    0.3835 N   0  0  0  0  0  0  0  0  0  0  0  0
    0.7784   -2.5494    0.0896 C   0  0  1  0  0  0  0  0  0  0  0  0
   -0.6625   -2.6812   -0.3812 C   0  0  0  0  0  0  0  0  0  0  0  0
   -1.2990   -1.5463    0.3837 C   0  0  0  0  0  0  0  0  0  0  0  0
    1.7226   -2.0768   -0.9994 C   0  0  0  0  0  0  0  0  0  0  0  0
   -2.7081   -1.1535    0.1634 C   0  0  0  0  0  0  0  0  0  0  0  0
    1.7035   -1.2791    2.0720 C   0  0  0  0  0  0  0  0  0  0  0  0
    1.5340   -1.3435   -2.1381 C   0  0  0  0  0  0  0  0  0  0  0  0
    1.3738   -0.2216    3.0968 C   0  0  0  0  0  0  0  0  0  0  0  0
   -3.2620   -0.0975    0.8900 C   0  0  0  0  0  0  0  0  0  0  0  0
   -3.4880   -1.8368   -0.7716 C   0  0  0  0  0  0  0  0  0  0  0  0
    2.8098   -1.2344   -2.7410 C   0  0  0  0  0  0  0  0  0  0  0  0
    3.6797   -1.9127   -1.9194 C   0  0  0  0  0  0  0  0  0  0  0  0
   -4.5905    0.2735    0.6823 C   0  0  0  0  0  0  0  0  0  0  0  0
   -4.8165   -1.4657   -0.9793 C   0  0  0  0  0  0  0  0  0  0  0  0
   -0.7983    2.7990   -0.5457 C   0  0  0  0  0  0  0  0  0  0  0  0
    0.6080    2.3516   -0.2990 C   0  0  0  0  0  0  0  0  0  0  0  0
    2.2222    1.5648    1.2544 C   0  0  0  0  0  0  0  0  0  0  0  0
   -0.9541    4.3046   -0.3520 C   0  0  0  0  0  0  0  0  0  0  0  0
   -5.3678   -0.4105   -0.2523 C   0  0  0  0  0  0  0  0  0  0  0  0
    1.5339    2.3000   -1.2703 C   0  0  0  0  0  0  0  0  0  0  0  0
   -2.3807    4.7519   -0.6302 C   0  0  0  0  0  0  0  0  0  0  0  0
    2.9207    1.8383   -0.9317 C   0  0  0  0  0  0  0  0  0  0  0  0
    1.1529   -3.4956    0.4984 H   0  0  0  0  0  0  0  0  0  0  0  0
   -0.8053   -2.5944   -1.4600 H   0  0  0  0  0  0  0  0  0  0  0  0
   -1.0996   -3.6223   -0.0292 H   0  0  0  0  0  0  0  0  0  0  0  0
    0.6053   -0.9255   -2.4990 H   0  0  0  0  0  0  0  0  0  0  0  0
    1.5005   -0.6688    4.0883 H   0  0  0  0  0  0  0  0  0  0  0  0
    0.3568    0.1685    3.0546 H   0  0  0  0  0  0  0  0  0  0  0  0
   -2.6782    0.4511    1.6243 H   0  0  0  0  0  0  0  0  0  0  0  0
   -3.0956   -2.6663   -1.3518 H   0  0  0  0  0  0  0  0  0  0  0  0
    3.0638   -0.7229   -3.6581 H   0  0  0  0  0  0  0  0  0  0  0  0
    4.7418   -2.1064   -1.9521 H   0  0  0  0  0  0  0  0  0  0  0  0
   -1.4852    2.2612    0.1183 H   0  0  0  0  0  0  0  0  0  0  0  0
   -1.0979    2.5293   -1.5669 H   0  0  0  0  0  0  0  0  0  0  0  0
   -5.0067    1.0980    1.2558 H   0  0  0  0  0  0  0  0  0  0  0  0
   -5.4111   -2.0084   -1.7098 H   0  0  0  0  0  0  0  0  0  0  0  0
   -0.2745    4.8467   -1.0207 H   0  0  0  0  0  0  0  0  0  0  0  0
   -0.6856    4.5830    0.6744 H   0  0  0  0  0  0  0  0  0  0  0  0
    0.2372    2.0445    1.7000 H   0  0  0  0  0  0  0  0  0  0  0  0
    1.3252    2.5786   -2.2963 H   0  0  0  0  0  0  0  0  0  0  0  0
   -3.0861    4.2546    0.0434 H   0  0  0  0  0  0  0  0  0  0  0  0
   -2.6700    4.5232   -1.6609 H   0  0  0  0  0  0  0  0  0  0  0  0
   -2.4746    5.8324   -0.4829 H   0  0  0  0  0  0  0  0  0  0  0  0
  1 28  1  0  0  0  0
  2 17  1  0  0  0  0
  2 26  1  0  0  0  0
  3 13  1  0  0  0  0
  3 21  1  0  0  0  0
  4 15  2  0  0  0  0
  5 31  2  0  0  0  0
  6  7  1  0  0  0  0
  6 10  1  0  0  0  0
  6 15  1  0  0  0  0
  7 12  2  0  0  0  0
  8 25  1  0  0  0  0
  8 26  1  0  0  0  0
  8 48  1  0  0  0  0
  9 26  2  0  0  0  0
  9 31  1  0  0  0  0
 10 11  1  0  0  0  0
 10 13  1  0  0  0  0
 10 32  1  0  0  0  0
 11 12  1  0  0  0  0
 11 33  1  0  0  0  0
 11 34  1  0  0  0  0
 12 14  1  0  0  0  0
 13 16  2  0  0  0  0
 14 18  2  0  0  0  0
 14 19  1  0  0  0  0
 15 17  1  0  0  0  0
 16 20  1  0  0  0  0
 16 35  1  0  0  0  0
 17 36  1  0  0  0  0
 17 37  1  0  0  0  0
 18 22  1  0  0  0  0
 18 38  1  0  0  0  0
 19 23  2  0  0  0  0
 19 39  1  0  0  0  0
 20 21  2  0  0  0  0
 20 40  1  0  0  0  0
 21 41  1  0  0  0  0
 22 28  2  0  0  0  0
 22 44  1  0  0  0  0
 23 28  1  0  0  0  0
 23 45  1  0  0  0  0
 24 25  1  0  0  0  0
 24 27  1  0  0  0  0
 24 42  1  0  0  0  0
 24 43  1  0  0  0  0
 25 29  2  0  0  0  0
 27 30  1  0  0  0  0
 27 46  1  0  0  0  0
 27 47  1  0  0  0  0
 29 31  1  0  0  0  0
 29 49  1  0  0  0  0
 30 50  1  0  0  0  0
 30 51  1  0  0  0  0
 30 52  1  0  0  0  0
M  END
> <PUBCHEM_COMPOUND_CID>
4214093

> <PUBCHEM_CONFORMER_RMSD>
1

> <PUBCHEM_CONFORMER_DIVERSEORDER>
1
176
262
42
224
182
26
198
15
113
189
67
84
188
31
235
221
137
240
100
151
212
43
96
23
206
192
2
177
169
260
258
108
243
219
195
185
150
51
78
83
140
66
225
9
135
184
152
146
183
77
85
121
24
161
226
99
173
248
136
209
94
174
160
237
16
238
196
117
210
218
143
157
230
34
261
35
93
72
39
7
246
251
105
76
179
8
193
199
164
101
73
124
167
175
203
114
178
229
98
263
86
247
3
239
155
168
69
141
194
190
130
231
10
133
32
107
228
207
122
81
234
213
22
25
149
17
170
186
6
241
62
55
232
71
125
256
95
123
205
44
259
215
165
227
242
244
253
148
223
41
217
36
106
208
159
233
88
180
103
68
57
53
252
120
145
154
201
21
250
33
92
5
156
216
204
112
138
90
181
134
4
255
211
220
59
191
139
13
131
102
172
171
28
38
12
197
46
61
166
37
91
129
97
110
147
162
115
70
27
82
87
127
236
29
52
153
56
214
54
132
58
19
142
202
75
40
119
126
64
200
63
89
187
79
49
18
163
144
245
249
111
158
118
30
11
20
60
50
47
222
257
80
128
48
254
116
14
65
104
74
45
109

> <PUBCHEM_MMFF94_PARTIAL_CHARGES>
38
1 -0.18
10 0.48
11 0.06
12 0.3
13 -0.04
14 0.09
15 0.57
16 -0.15
17 0.29
18 -0.15
19 -0.15
2 -0.37
20 -0.15
21 -0.01
22 -0.15
23 -0.15
24 0.14
25 -0.04
26 0.64
28 0.18
29 -0.14
3 -0.28
31 0.77
35 0.15
38 0.15
39 0.15
4 -0.57
40 0.15
41 0.15
44 0.15
45 0.15
48 0.4
49 0.15
5 -0.57
6 -0.3
7 -0.51
8 -0.55
9 -0.66

> <PUBCHEM_EFFECTIVE_ROTOR_COUNT>
8.6

> <PUBCHEM_PHARMACOPHORE_FEATURES>
11
1 3 acceptor
1 30 hydrophobe
1 4 acceptor
1 5 acceptor
1 7 acceptor
1 8 donor
1 9 donor
5 3 13 16 20 21 rings
5 6 7 10 11 12 rings
6 14 18 19 22 23 28 rings
6 8 9 25 26 29 31 rings

> <PUBCHEM_HEAVY_ATOM_COUNT>
31

> <PUBCHEM_ATOM_DEF_STEREO_COUNT>
0

> <PUBCHEM_ATOM_UDEF_STEREO_COUNT>
1

> <PUBCHEM_BOND_DEF_STEREO_COUNT>
0

> <PUBCHEM_BOND_UDEF_STEREO_COUNT>
0

> <PUBCHEM_ISOTOPIC_ATOM_COUNT>
0

> <PUBCHEM_COMPONENT_COUNT>
1

> <PUBCHEM_CACTVS_TAUTO_COUNT>
3

> <PUBCHEM_CONFORMER_ID>
00404D4D00000001

> <PUBCHEM_MMFF94_ENERGY>
59.1296

> <PUBCHEM_FEATURE_SELFOVERLAP>
55.86

> <PUBCHEM_SHAPE_FINGERPRINT>
12156800 1 18047181965415451962
12422481 6 18128511865496057786
14068700 675 17487075379329313694
14681490 219 18410581686719332261
15210252 30 18041290962065183637
15664445 248 18338517563920033893
17093844 170 18341337798412793932
17492 54 18265641873311878566
20626108 58 12750701550338659331
20691752 17 18336562529092104907
20764821 26 18263640659223403621
20775438 99 17692775274538866621
20905425 154 18410848850463832016
21860390 5 18337380664590721463
23419403 2 17487603136204335258
23559900 14 18201721765005693903
24941158 1 16772932732195343049
3052486 1 17973159535054962682
4066623 53 18339357462033257597
484985 159 14357822289122434121
513532 50 18271802471068694895
6823239 73 18269270175662853993

> <PUBCHEM_SHAPE_MULTIPOLES>
606.15
9.19
4.66
2.57
17.36
5.24
-1.08
-1.81
2.26
-0.27
1.8
-3.73
-0.48
0.75

> <PUBCHEM_SHAPE_SELFOVERLAP>
1285.652

> <PUBCHEM_SHAPE_VOLUME>
342.5

> <PUBCHEM_COORDINATE_TYPE>
2
5
10

$$$$
