5335764
  -OEChem-01171809333D

 44 46  0     0  0  0  0  0  0999 V2000
    3.0428    1.5305    0.4252 O   0  0  0  0  0  0  0  0  0  0  0  0
   -3.1378   -2.8106    0.7377 O   0  0  0  0  0  0  0  0  0  0  0  0
    2.8241   -0.7484   -0.1106 N   0  0  0  0  0  0  0  0  0  0  0  0
   -6.5242    2.6297   -0.2065 N   0  0  0  0  0  0  0  0  0  0  0  0
    1.4549   -0.9805    0.0232 C   0  0  0  0  0  0  0  0  0  0  0  0
    4.9834    0.3890   -0.1599 C   0  0  0  0  0  0  0  0  0  0  0  0
   -1.2830   -1.4458    0.2891 C   0  0  0  0  0  0  0  0  0  0  0  0
    7.1847    1.2071    0.2747 C   0  0  0  0  0  0  0  0  0  0  0  0
    5.8109    1.2661    0.5094 C   0  0  0  0  0  0  0  0  0  0  0  0
    3.5195    0.4514    0.0904 C   0  0  0  0  0  0  0  0  0  0  0  0
    0.6043    0.0587    0.4002 C   0  0  0  0  0  0  0  0  0  0  0  0
    0.9366   -2.2523   -0.2208 C   0  0  0  0  0  0  0  0  0  0  0  0
   -0.7645   -0.1740    0.5334 C   0  0  0  0  0  0  0  0  0  0  0  0
   -0.4322   -2.4850   -0.0880 C   0  0  0  0  0  0  0  0  0  0  0  0
    5.4663   -0.5441   -1.0532 C   0  0  0  0  0  0  0  0  0  0  0  0
    7.6992    0.2728   -0.6242 C   0  0  0  0  0  0  0  0  0  0  0  0
    6.8400   -0.6027   -1.2881 C   0  0  0  0  0  0  0  0  0  0  0  0
   -2.7102   -1.6885    0.4270 C   0  0  0  0  0  0  0  0  0  0  0  0
    8.1030    2.1453    0.9830 C   0  0  0  0  0  0  0  0  0  0  0  0
   -3.6622   -0.5578    0.1547 C   0  0  0  0  0  0  0  0  0  0  0  0
   -4.9874   -0.7442    0.2434 C   0  0  0  0  0  0  0  0  0  0  0  0
   -5.9967    0.2969   -0.0183 C   0  0  0  0  0  0  0  0  0  0  0  0
   -7.2989   -0.0543   -0.3075 C   0  0  0  0  0  0  0  0  0  0  0  0
   -5.6483    1.6258    0.0236 C   0  0  0  0  0  0  0  0  0  0  0  0
   -8.2291    0.9504   -0.5499 C   0  0  0  0  0  0  0  0  0  0  0  0
   -7.7952    2.2647   -0.4878 C   0  0  0  0  0  0  0  0  0  0  0  0
    5.4159    1.9908    1.2161 H   0  0  0  0  0  0  0  0  0  0  0  0
    3.3582   -1.5803   -0.3447 H   0  0  0  0  0  0  0  0  0  0  0  0
    0.9301    1.0666    0.6148 H   0  0  0  0  0  0  0  0  0  0  0  0
    1.5873   -3.0713   -0.5168 H   0  0  0  0  0  0  0  0  0  0  0  0
   -1.3853    0.6533    0.8646 H   0  0  0  0  0  0  0  0  0  0  0  0
   -0.8176   -3.4816   -0.2870 H   0  0  0  0  0  0  0  0  0  0  0  0
    4.8325   -1.2158   -1.6223 H   0  0  0  0  0  0  0  0  0  0  0  0
    8.7673    0.2172   -0.8166 H   0  0  0  0  0  0  0  0  0  0  0  0
    7.2403   -1.3238   -1.9949 H   0  0  0  0  0  0  0  0  0  0  0  0
    8.3848    1.7314    1.9563 H   0  0  0  0  0  0  0  0  0  0  0  0
    9.0142    2.3240    0.4023 H   0  0  0  0  0  0  0  0  0  0  0  0
    7.6263    3.1191    1.1385 H   0  0  0  0  0  0  0  0  0  0  0  0
   -3.2467    0.3842   -0.1793 H   0  0  0  0  0  0  0  0  0  0  0  0
   -5.3866   -1.7145    0.5294 H   0  0  0  0  0  0  0  0  0  0  0  0
   -7.6133   -1.0932   -0.3513 H   0  0  0  0  0  0  0  0  0  0  0  0
   -4.6518    1.9788    0.2643 H   0  0  0  0  0  0  0  0  0  0  0  0
   -9.2612    0.7121   -0.7805 H   0  0  0  0  0  0  0  0  0  0  0  0
   -8.4816    3.0853   -0.6692 H   0  0  0  0  0  0  0  0  0  0  0  0
  1 10  2  0  0  0  0
  2 18  2  0  0  0  0
  3  5  1  0  0  0  0
  3 10  1  0  0  0  0
  3 28  1  0  0  0  0
  4 24  1  0  0  0  0
  4 26  2  0  0  0  0
  5 11  2  0  0  0  0
  5 12  1  0  0  0  0
  6  9  1  0  0  0  0
  6 10  1  0  0  0  0
  6 15  2  0  0  0  0
  7 13  2  0  0  0  0
  7 14  1  0  0  0  0
  7 18  1  0  0  0  0
  8  9  2  0  0  0  0
  8 16  1  0  0  0  0
  8 19  1  0  0  0  0
  9 27  1  0  0  0  0
 11 13  1  0  0  0  0
 11 29  1  0  0  0  0
 12 14  2  0  0  0  0
 12 30  1  0  0  0  0
 13 31  1  0  0  0  0
 14 32  1  0  0  0  0
 15 17  1  0  0  0  0
 15 33  1  0  0  0  0
 16 17  2  0  0  0  0
 16 34  1  0  0  0  0
 17 35  1  0  0  0  0
 18 20  1  0  0  0  0
 19 36  1  0  0  0  0
 19 37  1  0  0  0  0
 19 38  1  0  0  0  0
 20 21  2  0  0  0  0
 20 39  1  0  0  0  0
 21 22  1  0  0  0  0
 21 40  1  0  0  0  0
 22 23  1  0  0  0  0
 22 24  2  0  0  0  0
 23 25  2  0  0  0  0
 23 41  1  0  0  0  0
 24 42  1  0  0  0  0
 25 26  1  0  0  0  0
 25 43  1  0  0  0  0
 26 44  1  0  0  0  0
M  END
> <PUBCHEM_COMPOUND_CID>
5335764

> <PUBCHEM_CONFORMER_RMSD>
0.8

> <PUBCHEM_CONFORMER_DIVERSEORDER>
1
36
72
17
5
64
8
24
67
42
25
11
80
71
21
13
63
70
18
6
43
39
19
51
37
16
44
20
34
56
33
76
15
83
35
26
22
73
28
12
27
10
31
58
50
9
47
45
57
82
23
4
59
7
79
41
3
54
49
14
75
66
29
55
2
48
84
65
53
69
81
74
46
61
62
40
85
52
32
78
38
30
77
68
60

> <PUBCHEM_MMFF94_PARTIAL_CHARGES>
41
1 -0.57
10 0.54
11 -0.15
12 -0.15
13 -0.15
14 -0.15
15 -0.15
16 -0.15
17 -0.15
18 0.47
19 0.14
2 -0.57
20 -0.14
21 -0.18
22 0.03
23 -0.15
24 0.16
25 -0.15
26 0.16
27 0.15
28 0.37
29 0.15
3 -0.55
30 0.15
31 0.15
32 0.15
33 0.15
34 0.15
35 0.15
39 0.15
4 -0.62
40 0.15
41 0.15
42 0.15
43 0.15
44 0.15
5 0.12
6 0.09
7 0.09
8 -0.14
9 -0.15

> <PUBCHEM_EFFECTIVE_ROTOR_COUNT>
6

> <PUBCHEM_PHARMACOPHORE_FEATURES>
7
1 1 acceptor
1 2 acceptor
1 3 donor
1 4 acceptor
6 4 22 23 24 25 26 rings
6 5 7 11 12 13 14 rings
6 6 8 9 15 16 17 rings

> <PUBCHEM_HEAVY_ATOM_COUNT>
26

> <PUBCHEM_ATOM_DEF_STEREO_COUNT>
0

> <PUBCHEM_ATOM_UDEF_STEREO_COUNT>
0

> <PUBCHEM_BOND_DEF_STEREO_COUNT>
1

> <PUBCHEM_BOND_UDEF_STEREO_COUNT>
0

> <PUBCHEM_ISOTOPIC_ATOM_COUNT>
0

> <PUBCHEM_COMPONENT_COUNT>
1

> <PUBCHEM_CACTVS_TAUTO_COUNT>
5

> <PUBCHEM_CONFORMER_ID>
00516AD400000001

> <PUBCHEM_MMFF94_ENERGY>
88.643

> <PUBCHEM_FEATURE_SELFOVERLAP>
35.522

> <PUBCHEM_SHAPE_FINGERPRINT>
10 15 17967254174852233059
10369192 42 18411697665573130375
10411042 1 17831303071447112403
106641 1 11674885506511755022
10669705 176 18412827980295279407
10670039 82 17704075049974020857
10835480 77 18059576944937557664
10951579 204 18193574289243993172
11135609 99 9511166465690014769
11315181 36 17632301207118622643
11409948 41 16342869724960010830
12013929 29 17691399708547896357
12539745 222 16009315444251424131
12838862 33 18338219531601375305
13248334 5 17975973168680556355
13530399 1 17749959989932528548
1361 4 10375607987631097028
13668630 136 10231759980885266226
14178184 131 10953754308861984697
14251757 52 18408037416690942736
14294032 229 17750235816109191036
14344974 52 18342734148953594133
14556957 393 15984835856296188649
14729087 3 18407758144800359009
15142383 8 18407760353051781144
15183329 4 18343867688457295555
15289351 153 18341046307619282624
15350500 55 17531516591493761765
15461852 350 18272932765302386895
15510800 12 11095878319807348909
15716309 27 12035446151179241931
1577012 14 18335132077871730203
15778101 99 18334577962444575043
15961568 22 18261674775635840197
1754911 235 18273207592049453629
1768 4 18412271610891008985
17780758 139 11458422428439422135
1818759 1 11671780503076467389
18335252 114 18201997716100086628
19611394 137 17751375078476079027
20105231 36 12468630613510981160
20281389 69 18040713645508816773
20554085 129 18059842975064627442
21033648 29 18268980038111569576
21095123 293 17095530586552059004
21150785 3 16272209691008557407
21424621 283 18187085027366524115
21585482 111 18190177881136696189
21792934 111 18272644637911477440
21859007 373 18411131446780746564
22149856 69 11025792068334108110
23522609 53 16516268339009177406
23559900 14 17845934160316642378
23576562 1 18058438980156454701
24771293 8 18186802440705421189
2838139 119 18411979204441469951
306946 40 17560788975602326256
335352 9 18410857685005669476
3633792 109 18131357388608783674
4073 2 18041003934197068347
5104073 3 10881939710660338806
5385378 56 17967527939820062586
54039377 194 10087637122309303137
5718773 13 9583217446011270853
5758199 1 18040716948634177051
5937810 71 17917154893215976129
59755656 215 18412268302784885326
636775 72 18410571816399539665
636775 8 8790613636930669096
9980921 7 17895189941502774333
9995097 26 8935000391598860296

> <PUBCHEM_SHAPE_MULTIPOLES>
513.37
27.75
2.55
0.86
2.75
0.19
-0.09
-20.88
-4.23
2.31
0.26
-0.88
-0.01
2.28

> <PUBCHEM_SHAPE_SELFOVERLAP>
1117.229

> <PUBCHEM_SHAPE_VOLUME>
278.5

> <PUBCHEM_COORDINATE_TYPE>
2
5
10

$$$$
