6214326
  -OEChem-01171809383D

 41 42  0     0  0  0  0  0  0999 V2000
   -3.3114    2.0630   -0.4019 O   0  0  0  0  0  0  0  0  0  0  0  0
   -5.1957    0.0433   -0.7126 O   0  0  0  0  0  0  0  0  0  0  0  0
    7.2233   -0.0951   -0.6032 O   0  0  0  0  0  0  0  0  0  0  0  0
    2.8088   -2.0011    1.0183 O   0  0  0  0  0  0  0  0  0  0  0  0
   -8.4389    0.4049    0.2281 N   0  0  0  0  0  0  0  0  0  0  0  0
   -1.2433   -0.9027    0.1367 C   0  0  0  0  0  0  0  0  0  0  0  0
   -2.9512    0.7549   -0.2779 C   0  0  0  0  0  0  0  0  0  0  0  0
   -1.6244    0.4329    0.0073 C   0  0  0  0  0  0  0  0  0  0  0  0
   -3.8970   -0.2584   -0.4336 C   0  0  0  0  0  0  0  0  0  0  0  0
   -2.1891   -1.9161   -0.0189 C   0  0  0  0  0  0  0  0  0  0  0  0
    3.6998    0.0426    0.2882 C   0  0  0  0  0  0  0  0  0  0  0  0
    0.1402   -1.2387    0.4341 C   0  0  0  0  0  0  0  0  0  0  0  0
   -3.5159   -1.5941   -0.3040 C   0  0  0  0  0  0  0  0  0  0  0  0
    2.5776   -0.8868    0.5623 C   0  0  0  0  0  0  0  0  0  0  0  0
    1.2003   -0.4234    0.2348 C   0  0  0  0  0  0  0  0  0  0  0  0
    4.9382   -0.4787   -0.0300 C   0  0  0  0  0  0  0  0  0  0  0  0
    3.4740    1.4031    0.3594 C   0  0  0  0  0  0  0  0  0  0  0  0
    5.9938    0.3960   -0.2874 C   0  0  0  0  0  0  0  0  0  0  0  0
    4.5295    2.2779    0.1019 C   0  0  0  0  0  0  0  0  0  0  0  0
    5.7895    1.7742   -0.2215 C   0  0  0  0  0  0  0  0  0  0  0  0
   -6.1887   -0.8615   -0.2334 C   0  0  0  0  0  0  0  0  0  0  0  0
   -3.7384    2.7327    0.7827 C   0  0  0  0  0  0  0  0  0  0  0  0
    7.3627   -1.5142   -0.6530 C   0  0  0  0  0  0  0  0  0  0  0  0
   -7.4433   -0.1548    0.0237 C   0  0  0  0  0  0  0  0  0  0  0  0
   -0.9222    1.2512    0.1415 H   0  0  0  0  0  0  0  0  0  0  0  0
   -1.9086   -2.9628    0.0710 H   0  0  0  0  0  0  0  0  0  0  0  0
    0.2985   -2.2290    0.8554 H   0  0  0  0  0  0  0  0  0  0  0  0
   -4.2113   -2.4157   -0.4465 H   0  0  0  0  0  0  0  0  0  0  0  0
    1.0777    0.5433   -0.2354 H   0  0  0  0  0  0  0  0  0  0  0  0
    5.0430   -1.5567   -0.0750 H   0  0  0  0  0  0  0  0  0  0  0  0
    2.5218    1.8359    0.6473 H   0  0  0  0  0  0  0  0  0  0  0  0
    4.3734    3.3511    0.1624 H   0  0  0  0  0  0  0  0  0  0  0  0
    6.6084    2.4605   -0.4190 H   0  0  0  0  0  0  0  0  0  0  0  0
   -5.8836   -1.3328    0.7098 H   0  0  0  0  0  0  0  0  0  0  0  0
   -6.3527   -1.6401   -0.9869 H   0  0  0  0  0  0  0  0  0  0  0  0
   -2.9326    2.7529    1.5233 H   0  0  0  0  0  0  0  0  0  0  0  0
   -4.6235    2.2453    1.2034 H   0  0  0  0  0  0  0  0  0  0  0  0
   -3.9978    3.7619    0.5199 H   0  0  0  0  0  0  0  0  0  0  0  0
    8.4039   -1.7272   -0.9163 H   0  0  0  0  0  0  0  0  0  0  0  0
    6.7389   -1.9527   -1.4394 H   0  0  0  0  0  0  0  0  0  0  0  0
    7.1814   -1.9715    0.3256 H   0  0  0  0  0  0  0  0  0  0  0  0
  1  7  1  0  0  0  0
  1 22  1  0  0  0  0
  2  9  1  0  0  0  0
  2 21  1  0  0  0  0
  3 18  1  0  0  0  0
  3 23  1  0  0  0  0
  4 14  2  0  0  0  0
  5 24  3  0  0  0  0
  6  8  2  0  0  0  0
  6 10  1  0  0  0  0
  6 12  1  0  0  0  0
  7  8  1  0  0  0  0
  7  9  2  0  0  0  0
  8 25  1  0  0  0  0
  9 13  1  0  0  0  0
 10 13  2  0  0  0  0
 10 26  1  0  0  0  0
 11 14  1  0  0  0  0
 11 16  2  0  0  0  0
 11 17  1  0  0  0  0
 12 15  2  0  0  0  0
 12 27  1  0  0  0  0
 13 28  1  0  0  0  0
 14 15  1  0  0  0  0
 15 29  1  0  0  0  0
 16 18  1  0  0  0  0
 16 30  1  0  0  0  0
 17 19  2  0  0  0  0
 17 31  1  0  0  0  0
 18 20  2  0  0  0  0
 19 20  1  0  0  0  0
 19 32  1  0  0  0  0
 20 33  1  0  0  0  0
 21 24  1  0  0  0  0
 21 34  1  0  0  0  0
 21 35  1  0  0  0  0
 22 36  1  0  0  0  0
 22 37  1  0  0  0  0
 22 38  1  0  0  0  0
 23 39  1  0  0  0  0
 23 40  1  0  0  0  0
 23 41  1  0  0  0  0
M  END
> <PUBCHEM_COMPOUND_CID>
6214326

> <PUBCHEM_CONFORMER_RMSD>
0.8

> <PUBCHEM_CONFORMER_DIVERSEORDER>
15
157
371
294
130
177
354
339
232
16
269
50
220
271
340
238
208
350
256
286
190
364
93
298
360
253
381
146
281
237
411
229
401
108
197
341
31
316
142
410
259
7
353
386
23
241
249
369
305
236
81
222
396
311
152
97
219
204
183
373
247
363
185
385
304
71
242
278
394
144
400
255
13
296
174
145
187
194
161
313
162
182
172
127
44
92
136
203
334
329
105
201
154
235
167
409
319
100
295
324
140
5
217
98
117
94
198
383
292
200
372
365
293
63
193
36
192
260
159
387
331
139
179
12
352
124
125
168
264
318
406
87
22
299
321
405
391
84
49
189
326
250
380
51
173
1
399
213
338
320
60
110
65
101
82
343
102
52
231
67
327
375
20
348
184
351
155
245
131
39
288
272
171
61
72
135
275
370
4
248
357
367
379
178
163
46
133
262
218
129
73
27
176
374
104
14
164
58
344
251
392
96
66
38
113
273
175
358
270
302
89
76
188
378
199
227
398
59
240
86
106
180
143
18
224
114
48
284
366
115
312
221
346
211
109
263
389
137
244
252
376
337
166
246
209
19
120
342
377
116
107
239
158
322
62
91
330
79
257
112
42
336
291
70
395
122
69
359
54
225
308
234
408
212
41
290
233
68
210
181
26
314
306
202
214
283
243
254
268
118
403
191
134
37
361
160
35
382
285
267
169
282
186
195
388
147
3
170
289
151
317
32
402
215
47
103
303
9
404
45
24
276
362
323
85
384
11
156
274
53
141
83
310
40
390
349
2
55
356
126
266
226
78
258
315
309
230
132
280
57
279
77
30
287
150
56
397
223
95
368
8
347
88
43
148
206
165
332
121
6
328
80
393
21
265
300
205
301
28
119
196
216
228
74
307
355
17
29
261
407
90
10
99
34
297
149
345
33
325
138
64
123
75
207
333
128
335
277
111
153
25

> <PUBCHEM_MMFF94_PARTIAL_CHARGES>
33
1 -0.36
10 -0.15
11 0.09
12 -0.18
13 -0.15
14 0.47
15 -0.14
16 -0.15
17 -0.15
18 0.08
19 -0.15
2 -0.36
20 -0.15
21 0.48
22 0.28
23 0.28
24 0.36
25 0.15
26 0.15
27 0.15
28 0.15
29 0.15
3 -0.36
30 0.15
31 0.15
32 0.15
33 0.15
4 -0.57
5 -0.56
6 0.03
7 0.08
8 -0.15
9 0.08

> <PUBCHEM_EFFECTIVE_ROTOR_COUNT>
7

> <PUBCHEM_PHARMACOPHORE_FEATURES>
7
1 1 acceptor
1 2 acceptor
1 3 acceptor
1 4 acceptor
1 5 acceptor
6 11 16 17 18 19 20 rings
6 6 7 8 9 10 13 rings

> <PUBCHEM_HEAVY_ATOM_COUNT>
24

> <PUBCHEM_ATOM_DEF_STEREO_COUNT>
0

> <PUBCHEM_ATOM_UDEF_STEREO_COUNT>
0

> <PUBCHEM_BOND_DEF_STEREO_COUNT>
1

> <PUBCHEM_BOND_UDEF_STEREO_COUNT>
0

> <PUBCHEM_ISOTOPIC_ATOM_COUNT>
0

> <PUBCHEM_COMPONENT_COUNT>
1

> <PUBCHEM_CACTVS_TAUTO_COUNT>
1

> <PUBCHEM_CONFORMER_ID>
005ED2B60000000F

> <PUBCHEM_MMFF94_ENERGY>
96.1816

> <PUBCHEM_FEATURE_SELFOVERLAP>
35.529

> <PUBCHEM_SHAPE_FINGERPRINT>
10299344 5 18131070441943970967
106641 1 14273740672151667759
10670039 82 18410008797942607456
11524674 6 15697998569993209831
12107183 9 17832699076438097938
12166972 35 18410294731190511768
12390115 104 18059301946750566761
13533116 47 17313652772427006978
14933364 13 18408041827126567711
15064981 194 18116732895758019743
15183329 4 18411704275390641594
17844677 252 18412270562322616260
18335252 98 18113341925359330435
19611394 137 18042137608073169123
20281389 69 18113049441610721764
21033648 29 18189328155894180112
21267235 1 18410577283691615715
221357 26 18343018904689551176
23559900 14 18269547406848087456
29717793 49 17917998295747965230
3004659 81 18409728465996448672
34797466 226 18131074848485361092
350125 39 18411697682637409041
3545911 37 18187362142481813663
4073 2 17968380164684954874
4098825 35 17917154888081581935
4258327 124 16661224661653289902
4325135 7 18413671305660581141
5283156 175 17560804316513116114
54446538 1 18411980265272284420
59682541 35 17821733866861476227
59755656 215 18261111864115506526
59755656 520 17676200307874095131

> <PUBCHEM_SHAPE_MULTIPOLES>
465.45
21.79
2.26
0.77
4.82
1.04
-0.04
1.46
3.28
-0.49
-0.27
-0.15
-0.04
-0.29

> <PUBCHEM_SHAPE_SELFOVERLAP>
986.784

> <PUBCHEM_SHAPE_VOLUME>
258.2

> <PUBCHEM_COORDINATE_TYPE>
2
5
10

$$$$
