3319616
  -OEChem-01171809403D

 21 22  0     0  0  0  0  0  0999 V2000
    2.0959   -1.2768    0.0004 S   0  0  0  0  0  0  0  0  0  0  0  0
   -1.6384   -2.2243   -0.0008 O   0  5  0  0  0  0  0  0  0  0  0  0
    0.1989   -3.4258   -0.0004 O   0  0  0  0  0  0  0  0  0  0  0  0
    3.7553    2.2111   -0.0002 O   0  5  0  0  0  0  0  0  0  0  0  0
    4.5920    0.1815    0.0004 O   0  0  0  0  0  0  0  0  0  0  0  0
   -0.3790   -2.3039   -0.0002 N   0  3  0  0  0  0  0  0  0  0  0  0
   -1.9892    0.7086   -1.2048 N   0  0  0  0  0  0  0  0  0  0  0  0
   -1.9893    0.7072    1.2051 N   0  0  0  0  0  0  0  0  0  0  0  0
    3.5952    0.9579   -0.0001 N   0  3  0  0  0  0  0  0  0  0  0  0
   -0.0214    0.1914    0.0001 C   0  0  0  0  0  0  0  0  0  0  0  0
    0.3901   -1.1277    0.0003 C   0  0  0  0  0  0  0  0  0  0  0  0
    1.0920    1.0879   -0.0002 C   0  0  0  0  0  0  0  0  0  0  0  0
    2.2986    0.4235    0.0000 C   0  0  0  0  0  0  0  0  0  0  0  0
   -1.4074    0.5559    0.0000 C   0  0  0  0  0  0  0  0  0  0  0  0
   -3.2941    1.0498   -1.1677 C   0  0  0  0  0  0  0  0  0  0  0  0
   -3.2940    1.0484    1.1681 C   0  0  0  0  0  0  0  0  0  0  0  0
   -4.0051    1.2353    0.0002 C   0  0  0  0  0  0  0  0  0  0  0  0
    1.0009    2.1679   -0.0005 H   0  0  0  0  0  0  0  0  0  0  0  0
   -3.7682    1.1741   -2.1354 H   0  0  0  0  0  0  0  0  0  0  0  0
   -3.7684    1.1716    2.1359 H   0  0  0  0  0  0  0  0  0  0  0  0
   -5.0516    1.5088    0.0004 H   0  0  0  0  0  0  0  0  0  0  0  0
  1 11  1  0  0  0  0
  1 13  1  0  0  0  0
  2  6  1  0  0  0  0
  3  6  2  0  0  0  0
  4  9  1  0  0  0  0
  5  9  2  0  0  0  0
  6 11  1  0  0  0  0
  7 14  1  0  0  0  0
  7 15  2  0  0  0  0
  8 14  2  0  0  0  0
  8 16  1  0  0  0  0
  9 13  1  0  0  0  0
 10 11  2  0  0  0  0
 10 12  1  0  0  0  0
 10 14  1  0  0  0  0
 12 13  2  0  0  0  0
 12 18  1  0  0  0  0
 15 17  1  0  0  0  0
 15 19  1  0  0  0  0
 16 17  2  0  0  0  0
 16 20  1  0  0  0  0
 17 21  1  0  0  0  0
M  CHG  4   2  -1   4  -1   6   1   9   1
M  END
> <PUBCHEM_COMPOUND_CID>
3319616

> <PUBCHEM_CONFORMER_RMSD>
0.6

> <PUBCHEM_CONFORMER_DIVERSEORDER>
1

> <PUBCHEM_MMFF94_PARTIAL_CHARGES>
21
1 -0.08
10 -0.05
11 0.12
12 -0.15
13 0.12
14 0.67
15 0.16
16 0.16
17 -0.15
18 0.15
19 0.15
2 -0.52
20 0.15
21 0.15
3 -0.52
4 -0.52
5 -0.52
6 0.96
7 -0.62
8 -0.62
9 0.96

> <PUBCHEM_EFFECTIVE_ROTOR_COUNT>
3

> <PUBCHEM_PHARMACOPHORE_FEATURES>
10
1 2 acceptor
1 2 anion
1 3 acceptor
1 4 acceptor
1 4 anion
1 5 acceptor
1 7 acceptor
3 7 8 14 cation
5 1 10 11 12 13 rings
6 7 8 14 15 16 17 rings

> <PUBCHEM_HEAVY_ATOM_COUNT>
17

> <PUBCHEM_ATOM_DEF_STEREO_COUNT>
0

> <PUBCHEM_ATOM_UDEF_STEREO_COUNT>
0

> <PUBCHEM_BOND_DEF_STEREO_COUNT>
0

> <PUBCHEM_BOND_UDEF_STEREO_COUNT>
0

> <PUBCHEM_ISOTOPIC_ATOM_COUNT>
0

> <PUBCHEM_COMPONENT_COUNT>
1

> <PUBCHEM_CACTVS_TAUTO_COUNT>
1

> <PUBCHEM_CONFORMER_ID>
0032A74000000001

> <PUBCHEM_MMFF94_ENERGY>
43.7377

> <PUBCHEM_FEATURE_SELFOVERLAP>
50.911

> <PUBCHEM_SHAPE_FINGERPRINT>
11543360 7 15841544210776942152
11578080 2 12440044599114777201
11725454 13 16879880042559987277
12119455 92 18187359904814362960
12236239 1 17703786968999978473
13140716 1 18409449154945199418
13380535 21 18410018753676487814
13380535 76 18343302565614562030
13583140 156 16878209940005454168
14787075 74 18131072692675412065
14897335 6 18411979165575819458
15219456 202 17968661489057890437
15309172 13 18408326570610385313
15342168 16 18336838553787504381
15775835 57 18335137583338964253
16945 1 18194683657288319303
1741750 31 18341610468779913504
1813 80 17195455083594797238
18186145 218 18342461400432693516
201361 129 18055643819413425113
204376 136 18409452487649520377
20510252 161 18126004007826201490
20645477 56 18335699490185499612
20645477 70 18118392961027118687
21499 59 18411697669076838653
21501502 16 18411131480913553706
21524375 3 18201717340629579500
21639500 275 18266449923894707943
22079108 93 18201725089225511041
2255824 54 18126849296055556190
23402539 116 18130783443454948236
23419403 2 12198821415814410151
23558518 356 17829042457605200128
25 1 18341892952746975420
2748010 2 18337969938282947414
350125 39 17977672235781927984
4340502 62 18341065034209560185
458136 41 18339372855053517115
474 4 18342178817222681601
474229 33 18410576232079093835
5104073 3 18264479767442875008
6333449 129 18339360872089304558
633830 44 18058460828238396709
69090 78 18408038528538780906
7364860 26 18123751954551527158
77492 1 17559384769792355817
81228 2 17903347457125014339
8272917 22 18125161529112353349
84936 182 18129653080707969873
9981440 41 16337470280473992944

> <PUBCHEM_SHAPE_MULTIPOLES>
310.3
6.86
2.52
0.9
1.61
2.43
0
-4.67
0
1.02
0
-0.9
-0.23
0

> <PUBCHEM_SHAPE_SELFOVERLAP>
661.666

> <PUBCHEM_SHAPE_VOLUME>
173.6

> <PUBCHEM_COORDINATE_TYPE>
2
5
10

$$$$
