3128208
  -OEChem-01171809573D

 28 30  0     0  0  0  0  0  0999 V2000
   -1.5291   -3.6170    0.7291 Cl  0  0  0  0  0  0  0  0  0  0  0  0
   -4.6060   -0.5652   -0.4107 O   0  0  0  0  0  0  0  0  0  0  0  0
    4.2086   -1.8062   -1.7475 O   0  0  0  0  0  0  0  0  0  0  0  0
   -2.5340    2.9290   -0.5368 O   0  5  0  0  0  0  0  0  0  0  0  0
   -0.3853    3.0347   -0.1002 O   0  0  0  0  0  0  0  0  0  0  0  0
    0.9582    0.9288    0.5213 N   0  0  0  0  0  0  0  0  0  0  0  0
   -1.4500    2.3773   -0.2192 N   0  3  0  0  0  0  0  0  0  0  0  0
   -3.8392    0.5871   -0.4346 N   0  0  0  0  0  0  0  0  0  0  0  0
   -3.8546   -1.6779   -0.0732 N   0  0  0  0  0  0  0  0  0  0  0  0
   -0.2817    0.2490    0.3697 C   0  0  0  0  0  0  0  0  0  0  0  0
   -1.4280    0.9809    0.0103 C   0  0  0  0  0  0  0  0  0  0  0  0
   -2.5968    0.2071   -0.1115 C   0  0  0  0  0  0  0  0  0  0  0  0
   -2.6064   -1.2326    0.1182 C   0  0  0  0  0  0  0  0  0  0  0  0
   -0.2912   -1.1530    0.5935 C   0  0  0  0  0  0  0  0  0  0  0  0
    2.2847    0.5231    0.3293 C   0  0  0  0  0  0  0  0  0  0  0  0
   -1.4476   -1.9453    0.4772 C   0  0  0  0  0  0  0  0  0  0  0  0
    2.5945   -0.4532   -0.6250 C   0  0  0  0  0  0  0  0  0  0  0  0
    3.3152    1.0902    1.0884 C   0  0  0  0  0  0  0  0  0  0  0  0
    3.9158   -0.8566   -0.8175 C   0  0  0  0  0  0  0  0  0  0  0  0
    4.6364    0.6866    0.8960 C   0  0  0  0  0  0  0  0  0  0  0  0
    4.9367   -0.2868   -0.0568 C   0  0  0  0  0  0  0  0  0  0  0  0
    0.8653    1.8642    0.9056 H   0  0  0  0  0  0  0  0  0  0  0  0
    0.6249   -1.6575    0.9002 H   0  0  0  0  0  0  0  0  0  0  0  0
    1.8201   -0.8942   -1.2479 H   0  0  0  0  0  0  0  0  0  0  0  0
    3.0958    1.8495    1.8351 H   0  0  0  0  0  0  0  0  0  0  0  0
    5.4314    1.1302    1.4883 H   0  0  0  0  0  0  0  0  0  0  0  0
    5.9700   -0.5924   -0.1969 H   0  0  0  0  0  0  0  0  0  0  0  0
    5.1686   -1.9629   -1.7464 H   0  0  0  0  0  0  0  0  0  0  0  0
  1 16  1  0  0  0  0
  2  8  1  0  0  0  0
  2  9  1  0  0  0  0
  3 19  1  0  0  0  0
  3 28  1  0  0  0  0
  4  7  1  0  0  0  0
  5  7  2  0  0  0  0
  6 10  1  0  0  0  0
  6 15  1  0  0  0  0
  6 22  1  0  0  0  0
  7 11  1  0  0  0  0
  8 12  2  0  0  0  0
  9 13  2  0  0  0  0
 10 11  2  0  0  0  0
 10 14  1  0  0  0  0
 11 12  1  0  0  0  0
 12 13  1  0  0  0  0
 13 16  1  0  0  0  0
 14 16  2  0  0  0  0
 14 23  1  0  0  0  0
 15 17  2  0  0  0  0
 15 18  1  0  0  0  0
 17 19  1  0  0  0  0
 17 24  1  0  0  0  0
 18 20  2  0  0  0  0
 18 25  1  0  0  0  0
 19 21  2  0  0  0  0
 20 21  1  0  0  0  0
 20 26  1  0  0  0  0
 21 27  1  0  0  0  0
M  CHG  2   4  -1   7   1
M  END
> <PUBCHEM_COMPOUND_CID>
3128208

> <PUBCHEM_CONFORMER_RMSD>
0.6

> <PUBCHEM_CONFORMER_DIVERSEORDER>
2
5
8
1
7
6
9
10
3
4

> <PUBCHEM_MMFF94_PARTIAL_CHARGES>
28
1 -0.18
10 0.1
11 0.13
12 0.29
13 0.29
14 -0.15
15 0.1
16 0.18
17 -0.15
18 -0.15
19 0.08
2 0.24
20 -0.15
21 -0.15
22 0.4
23 0.15
24 0.15
25 0.15
26 0.15
27 0.15
28 0.45
3 -0.53
4 -0.52
5 -0.52
6 -0.6
7 0.91
8 -0.41
9 -0.41

> <PUBCHEM_EFFECTIVE_ROTOR_COUNT>
3

> <PUBCHEM_PHARMACOPHORE_FEATURES>
11
1 3 donor
1 4 acceptor
1 4 anion
1 5 acceptor
1 6 cation
1 6 donor
1 8 acceptor
1 9 acceptor
5 2 8 9 12 13 rings
6 10 11 12 13 14 16 rings
6 15 17 18 19 20 21 rings

> <PUBCHEM_HEAVY_ATOM_COUNT>
21

> <PUBCHEM_ATOM_DEF_STEREO_COUNT>
0

> <PUBCHEM_ATOM_UDEF_STEREO_COUNT>
0

> <PUBCHEM_BOND_DEF_STEREO_COUNT>
0

> <PUBCHEM_BOND_UDEF_STEREO_COUNT>
0

> <PUBCHEM_ISOTOPIC_ATOM_COUNT>
0

> <PUBCHEM_COMPONENT_COUNT>
1

> <PUBCHEM_CACTVS_TAUTO_COUNT>
13

> <PUBCHEM_CONFORMER_ID>
002FBB9000000002

> <PUBCHEM_MMFF94_ENERGY>
84.9785

> <PUBCHEM_FEATURE_SELFOVERLAP>
56.084

> <PUBCHEM_SHAPE_FINGERPRINT>
10366900 7 18202567306600208336
10498660 4 18262230036727220228
10693767 8 18129078122843946143
11680986 33 17905321085361434897
116883 192 18410858789028814932
12173636 292 18263356993306560405
12236239 1 17095234822456173176
13140716 1 18119532287064928489
13402501 40 18272370884468696294
13544592 145 18342181055032472446
13583140 156 14836122130859055547
14115302 16 18113621239191478710
14386348 63 18272091630016360434
14790565 3 17979358556296981241
15042514 8 18261675995016233475
15375358 24 18343299310113838610
15635459 17 18059583473108739694
15961568 22 18188488116321810604
16752209 62 18260542299263141857
17357779 13 18340189878113542861
19141452 34 18059575849404580671
200 152 17060338526387090762
20279233 1 18271811258883220154
20510252 161 18341327816708260161
20645477 70 17418380164857813062
20693207 138 18130239168309019532
20871999 31 18337400357242685260
21065201 7 18336543824889130810
21285901 2 18342459244232406799
23402539 116 18339631321916563151
23557571 272 18412824686034205680
23559900 14 18411982481828609688
2748010 2 17975969079680409161
283562 15 18411132503400516065
5104073 3 18201435831846908848
559249 180 18116424835625194338
59755656 215 18336826386461243727
69090 78 18201715176019063206
81228 2 18408895048171029152
9709674 26 18341896311828307662

> <PUBCHEM_SHAPE_MULTIPOLES>
390.64
9.09
3.07
0.97
5.96
0.09
0.12
1.64
1.29
-2.68
-0.06
0.97
0.28
1.58

> <PUBCHEM_SHAPE_SELFOVERLAP>
851.302

> <PUBCHEM_SHAPE_VOLUME>
212.8

> <PUBCHEM_COORDINATE_TYPE>
2
5
10

$$$$
