802651
  -OEChem-01171810063D

 39 41  0     0  0  0  0  0  0999 V2000
    1.4367   -3.3588   -0.3165 S   0  0  0  0  0  0  0  0  0  0  0  0
   -0.4092    0.9126    0.1165 O   0  0  0  0  0  0  0  0  0  0  0  0
    7.3493    1.8011   -0.2855 O   0  0  0  0  0  0  0  0  0  0  0  0
    5.4798    2.8263   -1.0729 O   0  0  0  0  0  0  0  0  0  0  0  0
   -0.3299   -1.4100   -0.1845 N   0  0  0  0  0  0  0  0  0  0  0  0
    1.8742   -0.6597    0.1334 N   0  0  0  0  0  0  0  0  0  0  0  0
   -4.6143    0.7812    0.3325 C   0  0  0  0  0  0  0  0  0  0  0  0
   -5.2482   -0.2529   -0.3967 C   0  0  0  0  0  0  0  0  0  0  0  0
   -2.4476   -0.1937   -0.1907 C   0  0  0  0  0  0  0  0  0  0  0  0
   -3.2130    0.7965    0.4257 C   0  0  0  0  0  0  0  0  0  0  0  0
   -4.4621   -1.2414   -1.0108 C   0  0  0  0  0  0  0  0  0  0  0  0
   -3.0710   -1.2107   -0.9075 C   0  0  0  0  0  0  0  0  0  0  0  0
   -5.4002    1.7700    0.9464 C   0  0  0  0  0  0  0  0  0  0  0  0
   -6.6494   -0.2680   -0.4898 C   0  0  0  0  0  0  0  0  0  0  0  0
   -0.9977   -0.1632   -0.0848 C   0  0  0  0  0  0  0  0  0  0  0  0
   -6.7912    1.7393    0.8436 C   0  0  0  0  0  0  0  0  0  0  0  0
   -7.4146    0.7222    0.1270 C   0  0  0  0  0  0  0  0  0  0  0  0
    3.2801   -0.5540    0.2866 C   0  0  0  0  0  0  0  0  0  0  0  0
    3.9269    0.5763   -0.1806 C   0  0  0  0  0  0  0  0  0  0  0  0
    5.3096    0.6806   -0.0284 C   0  0  0  0  0  0  0  0  0  0  0  0
    3.9706   -1.5834    0.9014 C   0  0  0  0  0  0  0  0  0  0  0  0
    1.0367   -1.7442   -0.0937 C   0  0  0  0  0  0  0  0  0  0  0  0
    6.0227   -0.3471    0.5888 C   0  0  0  0  0  0  0  0  0  0  0  0
    5.3532   -1.4790    1.0538 C   0  0  0  0  0  0  0  0  0  0  0  0
    6.0085    1.8599   -0.5134 C   0  0  0  0  0  0  0  0  0  0  0  0
   -2.7247    1.5892    0.9904 H   0  0  0  0  0  0  0  0  0  0  0  0
   -4.9281   -2.0407   -1.5834 H   0  0  0  0  0  0  0  0  0  0  0  0
   -2.5176   -1.9800   -1.4375 H   0  0  0  0  0  0  0  0  0  0  0  0
   -4.9346    2.5747    1.5117 H   0  0  0  0  0  0  0  0  0  0  0  0
   -7.1581   -1.0535   -1.0451 H   0  0  0  0  0  0  0  0  0  0  0  0
   -7.3875    2.5101    1.3233 H   0  0  0  0  0  0  0  0  0  0  0  0
   -8.4976    0.6989    0.0473 H   0  0  0  0  0  0  0  0  0  0  0  0
   -0.9115   -2.2330   -0.3097 H   0  0  0  0  0  0  0  0  0  0  0  0
    3.3621    1.3712   -0.6611 H   0  0  0  0  0  0  0  0  0  0  0  0
    1.4340    0.2397   -0.0445 H   0  0  0  0  0  0  0  0  0  0  0  0
    3.4852   -2.4469    1.3390 H   0  0  0  0  0  0  0  0  0  0  0  0
    7.0989   -0.3058    0.7313 H   0  0  0  0  0  0  0  0  0  0  0  0
    5.9064   -2.2720    1.5488 H   0  0  0  0  0  0  0  0  0  0  0  0
    7.8111    2.6012   -0.6159 H   0  0  0  0  0  0  0  0  0  0  0  0
  1 22  2  0  0  0  0
  2 15  2  0  0  0  0
  3 25  1  0  0  0  0
  3 39  1  0  0  0  0
  4 25  2  0  0  0  0
  5 15  1  0  0  0  0
  5 22  1  0  0  0  0
  5 33  1  0  0  0  0
  6 18  1  0  0  0  0
  6 22  1  0  0  0  0
  6 35  1  0  0  0  0
  7  8  1  0  0  0  0
  7 10  1  0  0  0  0
  7 13  2  0  0  0  0
  8 11  1  0  0  0  0
  8 14  2  0  0  0  0
  9 10  2  0  0  0  0
  9 12  1  0  0  0  0
  9 15  1  0  0  0  0
 10 26  1  0  0  0  0
 11 12  2  0  0  0  0
 11 27  1  0  0  0  0
 12 28  1  0  0  0  0
 13 16  1  0  0  0  0
 13 29  1  0  0  0  0
 14 17  1  0  0  0  0
 14 30  1  0  0  0  0
 16 17  2  0  0  0  0
 16 31  1  0  0  0  0
 17 32  1  0  0  0  0
 18 19  1  0  0  0  0
 18 21  2  0  0  0  0
 19 20  2  0  0  0  0
 19 34  1  0  0  0  0
 20 23  1  0  0  0  0
 20 25  1  0  0  0  0
 21 24  1  0  0  0  0
 21 36  1  0  0  0  0
 23 24  2  0  0  0  0
 23 37  1  0  0  0  0
 24 38  1  0  0  0  0
M  END
> <PUBCHEM_COMPOUND_CID>
802651

> <PUBCHEM_CONFORMER_RMSD>
0.8

> <PUBCHEM_CONFORMER_DIVERSEORDER>
2
46
23
52
51
28
27
41
17
36
44
49
26
30
34
6
38
43
54
10
37
16
53
1
50
25
35
42
21
39
33
29
22
45
13
48
31
11
12
20
40
24
47
5
3
8
55
15
9
7
32
14
18
4
19

> <PUBCHEM_MMFF94_PARTIAL_CHARGES>
37
1 -0.38
10 -0.15
11 -0.15
12 -0.15
13 -0.15
14 -0.15
15 0.54
16 -0.15
17 -0.15
18 0.12
19 -0.15
2 -0.57
20 0.09
21 -0.15
22 0.5
23 -0.15
24 -0.15
25 0.63
26 0.15
27 0.15
28 0.15
29 0.15
3 -0.65
30 0.15
31 0.15
32 0.15
33 0.37
34 0.15
35 0.37
36 0.15
37 0.15
38 0.15
39 0.5
4 -0.57
5 -0.49
6 -0.55
9 0.09

> <PUBCHEM_EFFECTIVE_ROTOR_COUNT>
6

> <PUBCHEM_PHARMACOPHORE_FEATURES>
10
1 1 acceptor
1 2 acceptor
1 3 acceptor
1 4 acceptor
1 5 donor
1 6 donor
3 3 4 25 anion
6 18 19 20 21 23 24 rings
6 7 8 13 14 16 17 rings
6 7 8 9 10 11 12 rings

> <PUBCHEM_HEAVY_ATOM_COUNT>
25

> <PUBCHEM_ATOM_DEF_STEREO_COUNT>
0

> <PUBCHEM_ATOM_UDEF_STEREO_COUNT>
0

> <PUBCHEM_BOND_DEF_STEREO_COUNT>
0

> <PUBCHEM_BOND_UDEF_STEREO_COUNT>
0

> <PUBCHEM_ISOTOPIC_ATOM_COUNT>
0

> <PUBCHEM_COMPONENT_COUNT>
1

> <PUBCHEM_CACTVS_TAUTO_COUNT>
5

> <PUBCHEM_CONFORMER_ID>
000C3F5B00000002

> <PUBCHEM_MMFF94_ENERGY>
92.6208

> <PUBCHEM_FEATURE_SELFOVERLAP>
50.871

> <PUBCHEM_SHAPE_FINGERPRINT>
10 15 18409173208165872451
10299344 5 18412543206266298257
10411042 1 17830730960228144018
10554248 39 18127960928444779239
10595046 47 18412259532403819811
10638233 991 18411417340656377580
10906281 52 18412555305458534163
11315181 36 18409728474797249785
12236239 1 18411979157065090639
125118 31 18336264544440949705
12516196 113 8214141854760988278
13167372 99 18410573942471083040
13533116 47 17241039895553693706
13631057 29 18200587120846201423
13785724 45 17906166253675369810
14251764 18 18413105074415553021
14528608 73 18343299292743837942
14790565 3 18413108381150091256
14849402 71 18337394949800361689
15183329 4 17917996083154473553
15419008 47 15791444924543836620
15461852 350 17632569467050721461
15475509 35 15502922027830193130
1577012 14 18412541029071359102
16989713 51 17059200610058930711
16992752 21 17987230226781915895
17980427 23 18113902714284754199
20157964 124 18260546719496775770
20281389 69 18186518787172598893
21033648 29 16081356449674402470
21298829 104 18336830904967870852
21781055 127 17917435281639482578
22224240 67 17676487250712932003
23081809 10 18342448253379720231
23522609 53 18341911683300521713
23559900 14 17560506375021943001
3004659 81 18342739586086947538
328310 630 18408604773259918717
3472631 163 18342745152021568292
34797466 226 15697993076323530770
394071 54 17603587460922660540
397830 11 16443924884379183433
4073 2 18334298682080452755
4325135 7 18413386518736603623
4340502 62 16588020217359073074
445580 37 17561089090082739329
5104073 3 17894906386843403242
5758199 1 18411419518209649354
5911458 16 18412268354324850140
6328613 192 18413108355749728153

> <PUBCHEM_SHAPE_MULTIPOLES>
490.77
21.87
2.58
0.93
2.59
0.51
0.02
-12.46
0.95
-3.05
-0.35
-0.08
-0.04
-2.92

> <PUBCHEM_SHAPE_SELFOVERLAP>
1064.438

> <PUBCHEM_SHAPE_VOLUME>
268.3

> <PUBCHEM_COORDINATE_TYPE>
2
5
10

$$$$
