3689416
  -OEChem-01171809333D

 53 55  0     1  0  0  0  0  0999 V2000
    3.6104   -3.6325   -1.5872 Cl  0  0  0  0  0  0  0  0  0  0  0  0
    3.8175    0.0206    1.9921 S   0  0  0  0  0  0  0  0  0  0  0  0
    0.8419    1.5775   -1.5496 O   0  0  0  0  0  0  0  0  0  0  0  0
    2.8994   -0.7955   -1.8627 O   0  0  0  0  0  0  0  0  0  0  0  0
   -3.5642   -3.4425    1.0388 O   0  0  0  0  0  0  0  0  0  0  0  0
    1.2396   -0.8001   -0.1691 N   0  0  0  0  0  0  0  0  0  0  0  0
    0.4817    2.6363    0.4836 N   0  0  0  0  0  0  0  0  0  0  0  0
    1.5154    0.4517    0.4868 C   0  0  1  0  0  0  0  0  0  0  0  0
    3.0051    0.6489    0.6219 C   0  0  0  0  0  0  0  0  0  0  0  0
    0.9083    1.5895   -0.3220 C   0  0  0  0  0  0  0  0  0  0  0  0
   -0.0121   -1.4899    0.1459 C   0  0  0  0  0  0  0  0  0  0  0  0
   -0.0963    3.8443   -0.0564 C   0  0  0  0  0  0  0  0  0  0  0  0
   -1.5189    4.0866    0.4422 C   0  0  0  0  0  0  0  0  0  0  0  0
    2.1301   -1.4031   -1.1146 C   0  0  0  0  0  0  0  0  0  0  0  0
    3.8656    1.2958   -0.2378 C   0  0  0  0  0  0  0  0  0  0  0  0
   -2.4623    2.9595    0.1008 C   0  0  0  0  0  0  0  0  0  0  0  0
   -0.2792   -1.8871    1.4562 C   0  0  0  0  0  0  0  0  0  0  0  0
   -0.9386   -1.7491   -0.8641 C   0  0  0  0  0  0  0  0  0  0  0  0
    5.2095    1.2751    0.2347 C   0  0  0  0  0  0  0  0  0  0  0  0
    2.0358   -2.9178   -1.1815 C   0  0  0  0  0  0  0  0  0  0  0  0
    5.3252    0.6134    1.4373 C   0  0  0  0  0  0  0  0  0  0  0  0
   -1.4729   -2.5436    1.7563 C   0  0  0  0  0  0  0  0  0  0  0  0
   -2.1322   -2.4055   -0.5640 C   0  0  0  0  0  0  0  0  0  0  0  0
   -2.3993   -2.8026    0.7462 C   0  0  0  0  0  0  0  0  0  0  0  0
   -3.1708    2.9827   -1.1006 C   0  0  0  0  0  0  0  0  0  0  0  0
   -2.6256    1.8940    0.9861 C   0  0  0  0  0  0  0  0  0  0  0  0
   -4.0427    1.9408   -1.4165 C   0  0  0  0  0  0  0  0  0  0  0  0
   -3.4975    0.8520    0.6701 C   0  0  0  0  0  0  0  0  0  0  0  0
   -4.2061    0.8755   -0.5313 C   0  0  0  0  0  0  0  0  0  0  0  0
   -4.4668   -3.6751   -0.0415 C   0  0  0  0  0  0  0  0  0  0  0  0
    1.0580    0.4508    1.4842 H   0  0  0  0  0  0  0  0  0  0  0  0
   -0.0782    3.8126   -1.1513 H   0  0  0  0  0  0  0  0  0  0  0  0
    0.5472    4.6722    0.2598 H   0  0  0  0  0  0  0  0  0  0  0  0
    0.6193    2.5859    1.4887 H   0  0  0  0  0  0  0  0  0  0  0  0
   -1.8997    5.0263    0.0228 H   0  0  0  0  0  0  0  0  0  0  0  0
   -1.5112    4.2281    1.5310 H   0  0  0  0  0  0  0  0  0  0  0  0
    3.5656    1.7711   -1.1628 H   0  0  0  0  0  0  0  0  0  0  0  0
    0.4368   -1.7038    2.2528 H   0  0  0  0  0  0  0  0  0  0  0  0
   -0.7461   -1.4366   -1.8873 H   0  0  0  0  0  0  0  0  0  0  0  0
    6.0487    1.7236   -0.2808 H   0  0  0  0  0  0  0  0  0  0  0  0
    1.3244   -3.2084   -1.9584 H   0  0  0  0  0  0  0  0  0  0  0  0
    1.7446   -3.3532   -0.2239 H   0  0  0  0  0  0  0  0  0  0  0  0
    6.2229    0.4499    2.0167 H   0  0  0  0  0  0  0  0  0  0  0  0
   -1.6747   -2.8526    2.7783 H   0  0  0  0  0  0  0  0  0  0  0  0
   -2.8084   -2.5720   -1.3955 H   0  0  0  0  0  0  0  0  0  0  0  0
   -3.0501    3.8063   -1.7994 H   0  0  0  0  0  0  0  0  0  0  0  0
   -2.0820    1.8634    1.9265 H   0  0  0  0  0  0  0  0  0  0  0  0
   -4.5939    1.9586   -2.3521 H   0  0  0  0  0  0  0  0  0  0  0  0
   -3.6306    0.0272    1.3634 H   0  0  0  0  0  0  0  0  0  0  0  0
   -4.8855    0.0645   -0.7765 H   0  0  0  0  0  0  0  0  0  0  0  0
   -5.3383   -4.1936    0.3714 H   0  0  0  0  0  0  0  0  0  0  0  0
   -4.0289   -4.3369   -0.7965 H   0  0  0  0  0  0  0  0  0  0  0  0
   -4.8286   -2.7355   -0.4728 H   0  0  0  0  0  0  0  0  0  0  0  0
  1 20  1  0  0  0  0
  2  9  1  0  0  0  0
  2 21  1  0  0  0  0
  3 10  2  0  0  0  0
  4 14  2  0  0  0  0
  5 24  1  0  0  0  0
  5 30  1  0  0  0  0
  6  8  1  0  0  0  0
  6 11  1  0  0  0  0
  6 14  1  0  0  0  0
  7 10  1  0  0  0  0
  7 12  1  0  0  0  0
  7 34  1  0  0  0  0
  8  9  1  0  0  0  0
  8 10  1  0  0  0  0
  8 31  1  0  0  0  0
  9 15  2  0  0  0  0
 11 17  2  0  0  0  0
 11 18  1  0  0  0  0
 12 13  1  0  0  0  0
 12 32  1  0  0  0  0
 12 33  1  0  0  0  0
 13 16  1  0  0  0  0
 13 35  1  0  0  0  0
 13 36  1  0  0  0  0
 14 20  1  0  0  0  0
 15 19  1  0  0  0  0
 15 37  1  0  0  0  0
 16 25  2  0  0  0  0
 16 26  1  0  0  0  0
 17 22  1  0  0  0  0
 17 38  1  0  0  0  0
 18 23  2  0  0  0  0
 18 39  1  0  0  0  0
 19 21  2  0  0  0  0
 19 40  1  0  0  0  0
 20 41  1  0  0  0  0
 20 42  1  0  0  0  0
 21 43  1  0  0  0  0
 22 24  2  0  0  0  0
 22 44  1  0  0  0  0
 23 24  1  0  0  0  0
 23 45  1  0  0  0  0
 25 27  1  0  0  0  0
 25 46  1  0  0  0  0
 26 28  2  0  0  0  0
 26 47  1  0  0  0  0
 27 29  2  0  0  0  0
 27 48  1  0  0  0  0
 28 29  1  0  0  0  0
 28 49  1  0  0  0  0
 29 50  1  0  0  0  0
 30 51  1  0  0  0  0
 30 52  1  0  0  0  0
 30 53  1  0  0  0  0
M  END
> <PUBCHEM_COMPOUND_CID>
3689416

> <PUBCHEM_CONFORMER_RMSD>
1

> <PUBCHEM_CONFORMER_DIVERSEORDER>
2
28
101
70
159
136
127
63
149
96
35
138
7
173
157
76
20
143
97
23
84
153
55
88
178
52
15
175
174
180
73
139
130
100
124
110
9
75
135
117
47
166
116
39
59
4
146
112
12
95
133
51
179
42
93
21
60
86
6
64
22
71
129
154
65
151
114
11
43
49
61
168
34
54
155
123
72
98
177
18
156
169
103
53
170
163
140
131
145
48
121
10
106
50
171
17
77
90
27
115
132
162
56
82
69
46
3
176
165
66
92
94
148
19
99
29
37
45
141
81
5
125
164
167
57
158
31
134
25
118
120
150
16
33
104
44
67
85
109
26
40
13
172
144
36
113
14
32
147
107
181
102
161
62
38
58
128
137
111
89
41
8
91
80
83
105
78
74
87
24
68
30
122
79
108
1
152
126
160
142
119

> <PUBCHEM_MMFF94_PARTIAL_CHARGES>
43
1 -0.29
10 0.57
11 0.12
12 0.3
13 0.14
14 0.57
15 -0.15
16 -0.14
17 -0.15
18 -0.15
19 -0.15
2 -0.08
20 0.35
21 -0.11
22 -0.15
23 -0.15
24 0.08
25 -0.15
26 -0.15
27 -0.15
28 -0.15
29 -0.15
3 -0.57
30 0.28
34 0.37
37 0.15
38 0.15
39 0.15
4 -0.57
40 0.15
43 0.15
44 0.15
45 0.15
46 0.15
47 0.15
48 0.15
49 0.15
5 -0.36
50 0.15
6 -0.48
7 -0.73
8 0.54
9 -0.14

> <PUBCHEM_EFFECTIVE_ROTOR_COUNT>
11

> <PUBCHEM_PHARMACOPHORE_FEATURES>
7
1 3 acceptor
1 4 acceptor
1 5 acceptor
1 7 donor
5 2 9 15 19 21 rings
6 11 17 18 22 23 24 rings
6 16 25 26 27 28 29 rings

> <PUBCHEM_HEAVY_ATOM_COUNT>
30

> <PUBCHEM_ATOM_DEF_STEREO_COUNT>
0

> <PUBCHEM_ATOM_UDEF_STEREO_COUNT>
1

> <PUBCHEM_BOND_DEF_STEREO_COUNT>
0

> <PUBCHEM_BOND_UDEF_STEREO_COUNT>
0

> <PUBCHEM_ISOTOPIC_ATOM_COUNT>
0

> <PUBCHEM_COMPONENT_COUNT>
1

> <PUBCHEM_CACTVS_TAUTO_COUNT>
2

> <PUBCHEM_CONFORMER_ID>
00384BC800000002

> <PUBCHEM_MMFF94_ENERGY>
103.0871

> <PUBCHEM_FEATURE_SELFOVERLAP>
35.523

> <PUBCHEM_SHAPE_FINGERPRINT>
10675989 125 17253129945167192189
108634 29 18410291402289657591
11578080 2 17988098728638728026
12422481 6 18197514002672366323
12788726 201 18116441529429564722
13140716 1 18267582588243881289
13149001 5 17839474289112052406
14725015 67 18119237605164516083
15775530 1 18199202715209915342
20764821 26 18266481917137790063
20775438 99 18126827340531055319
22182313 1 18130238120094698342
22393880 68 17905320728731794269
23419403 2 17129618737190015924
23559900 14 17765988403357396228
3052486 1 18187370938938618334
3380486 145 18267043767627069729
45266715 3 18120356684389083487
463206 1 16897938154835170011
469060 322 18196948870685914291
57527585 103 17824566251274326675

> <PUBCHEM_SHAPE_MULTIPOLES>
595.54
9.07
5.74
1.64
4.22
1
-0.06
-0.57
-0.4
-4.88
0.35
0.86
0.73
2.57

> <PUBCHEM_SHAPE_SELFOVERLAP>
1243.574

> <PUBCHEM_SHAPE_VOLUME>
338.6

> <PUBCHEM_COORDINATE_TYPE>
2
5
10

$$$$
