647114
  -OEChem-01171809143D

 34 37  0     0  0  0  0  0  0999 V2000
    3.0368    0.9466    1.4309 S   0  0  0  0  0  0  0  0  0  0  0  0
    0.0417   -2.0075    0.9817 S   0  0  0  0  0  0  0  0  0  0  0  0
    4.2667    0.5380    2.0758 O   0  0  0  0  0  0  0  0  0  0  0  0
    2.5981    2.3248    1.3723 O   0  0  0  0  0  0  0  0  0  0  0  0
   -2.5485   -1.3820    0.4253 N   0  0  0  0  0  0  0  0  0  0  0  0
   -1.1287    0.3144    0.2102 N   0  0  0  0  0  0  0  0  0  0  0  0
    3.0564    0.3238   -0.1961 C   0  0  0  0  0  0  0  0  0  0  0  0
    2.0739   -0.6563   -0.3550 C   0  0  0  0  0  0  0  0  0  0  0  0
    1.3154   -0.8654    0.8869 C   0  0  0  0  0  0  0  0  0  0  0  0
    1.7259   -0.0911    1.9047 C   0  0  0  0  0  0  0  0  0  0  0  0
   -3.3129   -0.3120    0.0361 C   0  0  0  0  0  0  0  0  0  0  0  0
   -1.2812   -0.9342    0.5046 C   0  0  0  0  0  0  0  0  0  0  0  0
    3.9253    0.7317   -1.1897 C   0  0  0  0  0  0  0  0  0  0  0  0
    1.9666   -1.2686   -1.5978 C   0  0  0  0  0  0  0  0  0  0  0  0
   -2.4038    0.7345   -0.0914 C   0  0  0  0  0  0  0  0  0  0  0  0
    3.8015    0.1128   -2.4294 C   0  0  0  0  0  0  0  0  0  0  0  0
    2.8307   -0.8802   -2.6324 C   0  0  0  0  0  0  0  0  0  0  0  0
   -3.0543   -2.7120    0.6892 C   0  0  0  0  0  0  0  0  0  0  0  0
   -4.6797   -0.1741   -0.2078 C   0  0  0  0  0  0  0  0  0  0  0  0
   -2.8683    2.0009   -0.4848 C   0  0  0  0  0  0  0  0  0  0  0  0
   -5.1247    1.0932   -0.5984 C   0  0  0  0  0  0  0  0  0  0  0  0
   -4.2367    2.1628   -0.7351 C   0  0  0  0  0  0  0  0  0  0  0  0
    1.3150   -0.0797    2.9051 H   0  0  0  0  0  0  0  0  0  0  0  0
    4.6732    1.4970   -1.0190 H   0  0  0  0  0  0  0  0  0  0  0  0
    1.2281   -2.0407   -1.7904 H   0  0  0  0  0  0  0  0  0  0  0  0
    4.4600    0.3963   -3.2456 H   0  0  0  0  0  0  0  0  0  0  0  0
    2.7477   -1.3559   -3.6062 H   0  0  0  0  0  0  0  0  0  0  0  0
   -4.1330   -2.7550    0.5319 H   0  0  0  0  0  0  0  0  0  0  0  0
   -2.5638   -3.4102    0.0057 H   0  0  0  0  0  0  0  0  0  0  0  0
   -2.8323   -2.9660    1.7290 H   0  0  0  0  0  0  0  0  0  0  0  0
   -5.3776   -0.9967   -0.1050 H   0  0  0  0  0  0  0  0  0  0  0  0
   -2.1863    2.8381   -0.5939 H   0  0  0  0  0  0  0  0  0  0  0  0
   -6.1819    1.2479   -0.7992 H   0  0  0  0  0  0  0  0  0  0  0  0
   -4.6125    3.1360   -1.0403 H   0  0  0  0  0  0  0  0  0  0  0  0
  1  3  2  0  0  0  0
  1  4  2  0  0  0  0
  1  7  1  0  0  0  0
  1 10  1  0  0  0  0
  2  9  1  0  0  0  0
  2 12  1  0  0  0  0
  5 11  1  0  0  0  0
  5 12  1  0  0  0  0
  5 18  1  0  0  0  0
  6 12  2  0  0  0  0
  6 15  1  0  0  0  0
  7  8  1  0  0  0  0
  7 13  2  0  0  0  0
  8  9  1  0  0  0  0
  8 14  2  0  0  0  0
  9 10  2  0  0  0  0
 10 23  1  0  0  0  0
 11 15  1  0  0  0  0
 11 19  2  0  0  0  0
 13 16  1  0  0  0  0
 13 24  1  0  0  0  0
 14 17  1  0  0  0  0
 14 25  1  0  0  0  0
 15 20  2  0  0  0  0
 16 17  2  0  0  0  0
 16 26  1  0  0  0  0
 17 27  1  0  0  0  0
 18 28  1  0  0  0  0
 18 29  1  0  0  0  0
 18 30  1  0  0  0  0
 19 21  1  0  0  0  0
 19 31  1  0  0  0  0
 20 22  1  0  0  0  0
 20 32  1  0  0  0  0
 21 22  2  0  0  0  0
 21 33  1  0  0  0  0
 22 34  1  0  0  0  0
M  END
> <PUBCHEM_COMPOUND_CID>
647114

> <PUBCHEM_CONFORMER_RMSD>
0.6

> <PUBCHEM_CONFORMER_DIVERSEORDER>
1
17
11
18
15
12
20
10
19
7
9
16
8
2
4
14
13
5
3
6

> <PUBCHEM_MMFF94_PARTIAL_CHARGES>
31
1 1.33
10 -0.17
11 -0.15
12 0.24
13 -0.15
14 -0.15
15 0.23
16 -0.15
17 -0.15
18 0.26
19 -0.15
2 -0.16
20 -0.15
21 -0.15
22 -0.15
23 0.15
24 0.15
25 0.15
26 0.15
27 0.15
3 -0.65
31 0.15
32 0.15
33 0.15
34 0.15
4 -0.65
5 0.05
6 -0.57
7 -0.01
8 0.03
9 0.07

> <PUBCHEM_EFFECTIVE_ROTOR_COUNT>
2

> <PUBCHEM_PHARMACOPHORE_FEATURES>
7
1 3 acceptor
1 4 acceptor
3 5 6 12 cation
5 1 7 8 9 10 rings
5 5 6 11 12 15 rings
6 11 15 19 20 21 22 rings
6 7 8 13 14 16 17 rings

> <PUBCHEM_HEAVY_ATOM_COUNT>
22

> <PUBCHEM_ATOM_DEF_STEREO_COUNT>
0

> <PUBCHEM_ATOM_UDEF_STEREO_COUNT>
0

> <PUBCHEM_BOND_DEF_STEREO_COUNT>
0

> <PUBCHEM_BOND_UDEF_STEREO_COUNT>
0

> <PUBCHEM_ISOTOPIC_ATOM_COUNT>
0

> <PUBCHEM_COMPONENT_COUNT>
1

> <PUBCHEM_CACTVS_TAUTO_COUNT>
1

> <PUBCHEM_CONFORMER_ID>
0009DFCA00000001

> <PUBCHEM_MMFF94_ENERGY>
46.098

> <PUBCHEM_FEATURE_SELFOVERLAP>
35.711

> <PUBCHEM_SHAPE_FINGERPRINT>
10382601 240 15068627115006265038
10498660 4 18261118460842128669
10646746 165 18335696156847298640
10670039 82 17968387731731294636
10764073 3 17617063960475410714
11582403 64 17485892484995242266
11640471 11 17022912275758897934
12173636 292 18189887639898508293
12236239 1 17167581604994711306
12644460 14 15285359505362021218
12788726 201 17025452255152025627
13224815 77 17530970180879186825
13257819 101 18058997519426623024
13911987 19 16700325567628567104
13965767 371 17459731641056831313
14251757 17 18130793334505849969
14739800 52 17825665827601164724
15210252 30 18189068533369070164
15342168 16 15792029886489693599
15635459 17 18202846547645558725
15806764 133 18199767966706417545
18186145 218 18202292398095931955
19377110 9 16588319310470869409
19784866 240 14548743854611996117
20645477 70 16917067754556506310
20715895 44 16446695435318446645
21503847 285 16371010655135235006
21756936 100 16227486016710073902
21864079 5 17677346011758360876
22849341 161 16226598586335671434
23366157 5 17534337839293939283
235170 7 17704066296471721757
23557571 272 18340213006644241771
23559900 14 18410018697689049526
23596394 208 17704073962571548662
238 59 17489590030339439862
283562 15 14495582704228223090
2838139 119 17827377771547968748
3060560 45 17489586749532675022
341906 21 18186800296493106773
3472631 163 18113625598831379941
34797466 226 17917700319676026749
38570 142 16009902501138242190
4409770 3 13605723741517819042
46194498 28 17986684855205846812
474 4 16153437159236522310
5161694 15 18059583455232155015
5281201 14 17632860793701453969
5895379 119 18187931599653957020
59682541 52 16414341253578482765
6049 1 18129958856630363115
633830 44 17774153493064510041
7471813 234 15410624631889932666
7615 1 17022897999245518307
7808743 9 18113909281073185684
960060 61 15554438583633649577
9709674 26 18272647978520456861

> <PUBCHEM_SHAPE_MULTIPOLES>
438.75
9.84
2.24
2.06
5.98
0.54
-0.36
-4.43
-1.1
2.4
0.12
-4.13
-0.37
-0.38

> <PUBCHEM_SHAPE_SELFOVERLAP>
960.787

> <PUBCHEM_SHAPE_VOLUME>
239.9

> <PUBCHEM_COORDINATE_TYPE>
2
5
10

$$$$
