3294297
  -OEChem-01171809463D

 56 58  0     0  0  0  0  0  0999 V2000
    0.4843   -2.6227   -1.0779 S   0  0  0  0  0  0  0  0  0  0  0  0
    5.9689    0.0660    0.2614 F   0  0  0  0  0  0  0  0  0  0  0  0
    5.4594   -1.9603    0.8434 F   0  0  0  0  0  0  0  0  0  0  0  0
    5.7086   -1.4661   -1.2596 F   0  0  0  0  0  0  0  0  0  0  0  0
   -2.1780    3.3387   -1.8503 F   0  0  0  0  0  0  0  0  0  0  0  0
   -0.2457   -2.1571   -2.2446 O   0  0  0  0  0  0  0  0  0  0  0  0
    1.2303   -3.8684   -1.1315 O   0  0  0  0  0  0  0  0  0  0  0  0
   -3.3799   -1.9018    2.4633 O   0  0  0  0  0  0  0  0  0  0  0  0
    1.0610    1.6766    2.4939 O   0  0  0  0  0  0  0  0  0  0  0  0
   -4.1764   -2.2502    0.3077 N   0  0  0  0  0  0  0  0  0  0  0  0
    1.0726   -0.1181   -0.4097 N   0  0  0  0  0  0  0  0  0  0  0  0
    2.9085   -1.6738   -0.5382 N   0  0  0  0  0  0  0  0  0  0  0  0
   -0.6291   -2.7185    0.2878 C   0  0  0  0  0  0  0  0  0  0  0  0
   -1.6829   -3.7925    0.0690 C   0  0  0  0  0  0  0  0  0  0  0  0
   -2.6568   -3.8611    1.2415 C   0  0  0  0  0  0  0  0  0  0  0  0
    1.6081   -1.3347   -0.6255 C   0  0  0  0  0  0  0  0  0  0  0  0
   -3.4288   -2.5673    1.4325 C   0  0  0  0  0  0  0  0  0  0  0  0
    1.9585    0.8420   -0.0723 C   0  0  0  0  0  0  0  0  0  0  0  0
    3.7379   -0.6660   -0.1967 C   0  0  0  0  0  0  0  0  0  0  0  0
   -5.0062   -1.0707    0.2137 C   0  0  0  0  0  0  0  0  0  0  0  0
    1.3878    2.1473    0.1592 C   0  0  0  0  0  0  0  0  0  0  0  0
    3.3154    0.6243    0.0502 C   0  0  0  0  0  0  0  0  0  0  0  0
   -4.2517    0.1048   -0.3368 C   0  0  0  0  0  0  0  0  0  0  0  0
    0.9575    2.5251    1.4313 C   0  0  0  0  0  0  0  0  0  0  0  0
    5.1880   -0.9988   -0.0879 C   0  0  0  0  0  0  0  0  0  0  0  0
    1.2696    3.0361   -0.9094 C   0  0  0  0  0  0  0  0  0  0  0  0
   -3.5785    0.9681    0.5275 C   0  0  0  0  0  0  0  0  0  0  0  0
   -4.2244    0.3338   -1.7126 C   0  0  0  0  0  0  0  0  0  0  0  0
    0.4091    3.7915    1.6345 C   0  0  0  0  0  0  0  0  0  0  0  0
    0.7212    4.3025   -0.7060 C   0  0  0  0  0  0  0  0  0  0  0  0
    0.2909    4.6801    0.5658 C   0  0  0  0  0  0  0  0  0  0  0  0
   -2.8781    2.0606    0.0163 C   0  0  0  0  0  0  0  0  0  0  0  0
   -3.5240    1.4265   -2.2239 C   0  0  0  0  0  0  0  0  0  0  0  0
   -2.8508    2.2899   -1.3593 C   0  0  0  0  0  0  0  0  0  0  0  0
   -0.0464    0.8142    2.7432 C   0  0  0  0  0  0  0  0  0  0  0  0
   -1.0898   -1.7317    0.3925 H   0  0  0  0  0  0  0  0  0  0  0  0
   -0.0374   -2.9317    1.1839 H   0  0  0  0  0  0  0  0  0  0  0  0
   -2.2101   -3.6159   -0.8750 H   0  0  0  0  0  0  0  0  0  0  0  0
   -1.1948   -4.7691   -0.0362 H   0  0  0  0  0  0  0  0  0  0  0  0
   -3.3782   -4.6706    1.0804 H   0  0  0  0  0  0  0  0  0  0  0  0
   -2.1198   -4.0837    2.1708 H   0  0  0  0  0  0  0  0  0  0  0  0
   -4.1753   -2.8792   -0.4892 H   0  0  0  0  0  0  0  0  0  0  0  0
   -5.4138   -0.8327    1.2034 H   0  0  0  0  0  0  0  0  0  0  0  0
   -5.8582   -1.3170   -0.4302 H   0  0  0  0  0  0  0  0  0  0  0  0
    4.0006    1.4180    0.3236 H   0  0  0  0  0  0  0  0  0  0  0  0
    1.5982    2.7579   -1.9081 H   0  0  0  0  0  0  0  0  0  0  0  0
   -3.5929    0.8040    1.6015 H   0  0  0  0  0  0  0  0  0  0  0  0
   -4.7430   -0.3328   -2.3965 H   0  0  0  0  0  0  0  0  0  0  0  0
    0.0712    4.0930    2.6224 H   0  0  0  0  0  0  0  0  0  0  0  0
    0.6276    4.9938   -1.5383 H   0  0  0  0  0  0  0  0  0  0  0  0
   -0.1374    5.6656    0.7237 H   0  0  0  0  0  0  0  0  0  0  0  0
   -2.3601    2.7348    0.6905 H   0  0  0  0  0  0  0  0  0  0  0  0
   -3.5015    1.6049   -3.2948 H   0  0  0  0  0  0  0  0  0  0  0  0
    0.2744    0.0374    3.4426 H   0  0  0  0  0  0  0  0  0  0  0  0
   -0.4047    0.3339    1.8286 H   0  0  0  0  0  0  0  0  0  0  0  0
   -0.8615    1.3825    3.2020 H   0  0  0  0  0  0  0  0  0  0  0  0
  1  6  2  0  0  0  0
  1  7  2  0  0  0  0
  1 13  1  0  0  0  0
  1 16  1  0  0  0  0
  2 25  1  0  0  0  0
  3 25  1  0  0  0  0
  4 25  1  0  0  0  0
  5 34  1  0  0  0  0
  8 17  2  0  0  0  0
  9 24  1  0  0  0  0
  9 35  1  0  0  0  0
 10 17  1  0  0  0  0
 10 20  1  0  0  0  0
 10 42  1  0  0  0  0
 11 16  2  0  0  0  0
 11 18  1  0  0  0  0
 12 16  1  0  0  0  0
 12 19  2  0  0  0  0
 13 14  1  0  0  0  0
 13 36  1  0  0  0  0
 13 37  1  0  0  0  0
 14 15  1  0  0  0  0
 14 38  1  0  0  0  0
 14 39  1  0  0  0  0
 15 17  1  0  0  0  0
 15 40  1  0  0  0  0
 15 41  1  0  0  0  0
 18 21  1  0  0  0  0
 18 22  2  0  0  0  0
 19 22  1  0  0  0  0
 19 25  1  0  0  0  0
 20 23  1  0  0  0  0
 20 43  1  0  0  0  0
 20 44  1  0  0  0  0
 21 24  1  0  0  0  0
 21 26  2  0  0  0  0
 22 45  1  0  0  0  0
 23 27  2  0  0  0  0
 23 28  1  0  0  0  0
 24 29  2  0  0  0  0
 26 30  1  0  0  0  0
 26 46  1  0  0  0  0
 27 32  1  0  0  0  0
 27 47  1  0  0  0  0
 28 33  2  0  0  0  0
 28 48  1  0  0  0  0
 29 31  1  0  0  0  0
 29 49  1  0  0  0  0
 30 31  2  0  0  0  0
 30 50  1  0  0  0  0
 31 51  1  0  0  0  0
 32 34  2  0  0  0  0
 32 52  1  0  0  0  0
 33 34  1  0  0  0  0
 33 53  1  0  0  0  0
 35 54  1  0  0  0  0
 35 55  1  0  0  0  0
 35 56  1  0  0  0  0
M  END
> <PUBCHEM_COMPOUND_CID>
3294297

> <PUBCHEM_CONFORMER_RMSD>
1.4

> <PUBCHEM_CONFORMER_DIVERSEORDER>
1
114
86
70
29
88
152
38
40
89
159
21
28
62
91
32
170
13
103
35
166
64
113
106
160
18
143
44
153
97
169
50
148
121
173
149
118
132
111
133
22
36
167
172
85
90
171
129
140
104
147
174
79
93
33
63
161
142
30
45
27
128
20
16
157
130
6
24
69
78
119
154
98
151
60
141
51
158
53
145
15
108
41
9
71
102
92
136
156
84
124
94
112
80
7
107
59
61
65
74
19
168
165
120
127
81
68
96
43
55
23
155
39
105
164
8
139
75
3
14
100
134
162
77
46
54
125
135
37
131
163
52
87
26
126
150
72
12
116
83
144
56
2
146
123
25
67
11
122
58
117
99
82
115
138
42
47
34
73
109
10
76
4
66
95
49
5
101
57
31
17
110
48
137

> <PUBCHEM_MMFF94_PARTIAL_CHARGES>
43
1 1.2
10 -0.73
11 -0.62
12 -0.62
13 0.11
15 0.06
16 0.61
17 0.57
18 0.31
19 0.17
2 -0.34
20 0.44
22 -0.15
23 -0.14
24 0.08
25 1.16
26 -0.15
27 -0.15
28 -0.15
29 -0.15
3 -0.34
30 -0.15
31 -0.15
32 -0.15
33 -0.15
34 0.19
35 0.28
4 -0.34
42 0.37
45 0.15
46 0.15
47 0.15
48 0.15
49 0.15
5 -0.19
50 0.15
51 0.15
52 0.15
53 0.15
6 -0.65
7 -0.65
8 -0.57
9 -0.36

> <PUBCHEM_EFFECTIVE_ROTOR_COUNT>
11

> <PUBCHEM_PHARMACOPHORE_FEATURES>
10
1 10 donor
1 12 acceptor
1 6 acceptor
1 7 acceptor
1 8 acceptor
1 9 acceptor
3 11 12 16 cation
6 11 12 16 18 19 22 rings
6 21 24 26 29 30 31 rings
6 23 27 28 32 33 34 rings

> <PUBCHEM_HEAVY_ATOM_COUNT>
35

> <PUBCHEM_ATOM_DEF_STEREO_COUNT>
0

> <PUBCHEM_ATOM_UDEF_STEREO_COUNT>
0

> <PUBCHEM_BOND_DEF_STEREO_COUNT>
0

> <PUBCHEM_BOND_UDEF_STEREO_COUNT>
0

> <PUBCHEM_ISOTOPIC_ATOM_COUNT>
0

> <PUBCHEM_COMPONENT_COUNT>
1

> <PUBCHEM_CACTVS_TAUTO_COUNT>
2

> <PUBCHEM_CONFORMER_ID>
0032445900000001

> <PUBCHEM_MMFF94_ENERGY>
76.6644

> <PUBCHEM_FEATURE_SELFOVERLAP>
50.769

> <PUBCHEM_SHAPE_FINGERPRINT>
10032420 55 18047440393349999557
10653451 467 18269821155843414024
10675989 125 17181644084026620029
11513181 2 17695357253873413599
11828532 37 17387424652092417979
12100795 323 17834952349768287517
12422481 6 17835506503323466328
12633257 1 18268730410174972979
12645989 146 18341613762746582271
12788726 201 18196922276480427986
13122387 1 18050002186923362375
13402501 40 18409449185400068007
14466204 15 18410009948920308242
14725015 67 18333724746117223779
150020 26 18269276935593003915
15274700 242 16892880422817560235
15815584 197 18201170844754788782
17921350 177 18190158252386157697
19315092 285 16126659735412548557
20764821 26 18268149940938986271
23559900 14 18336255847480068749
238 59 18129081455574192407
3027735 51 17982451495152900928
3493558 16 16879935164128111764
35225 105 17678427918911445143
42626532 9 17316495190415834042
469060 322 18195542402003744400
46939830 39 18189068610477462964
50150288 127 16411545108733606936
508706 21 18334847342840638639
5252454 2 17121436424816551635
6086070 43 18265030595928324815

> <PUBCHEM_SHAPE_MULTIPOLES>
656.62
9.53
6.24
2.06
4.69
2.05
0.6
-5.82
-0.75
-0.44
0.07
-1.27
0.5
2.77

> <PUBCHEM_SHAPE_SELFOVERLAP>
1392.728

> <PUBCHEM_SHAPE_VOLUME>
370.4

> <PUBCHEM_COORDINATE_TYPE>
2
5
10

$$$$
