4546489
  -OEChem-01171809493D

 46 48  0     0  0  0  0  0  0999 V2000
   -6.6784    1.1984    0.6223 S   0  0  0  0  0  0  0  0  0  0  0  0
    2.5049    0.2833   -0.9388 O   0  0  0  0  0  0  0  0  0  0  0  0
    0.2266    1.6359   -0.9944 O   0  0  0  0  0  0  0  0  0  0  0  0
    3.3695    2.4094   -0.4413 O   0  5  0  0  0  0  0  0  0  0  0  0
    5.2477    2.7430    0.6450 O   0  0  0  0  0  0  0  0  0  0  0  0
   -3.4348   -0.3885   -0.9762 N   0  0  0  0  0  0  0  0  0  0  0  0
    5.6689    0.0940    0.8913 N   0  0  0  0  0  0  0  0  0  0  0  0
    4.3868    1.9872    0.1476 N   0  3  0  0  0  0  0  0  0  0  0  0
   -2.4097    0.5208   -0.9947 C   0  0  0  0  0  0  0  0  0  0  0  0
   -2.9214   -1.6581   -0.9213 C   0  0  0  0  0  0  0  0  0  0  0  0
   -1.2584   -0.1944   -0.9502 C   0  0  0  0  0  0  0  0  0  0  0  0
   -4.8443   -0.0592   -1.0113 C   0  0  0  0  0  0  0  0  0  0  0  0
   -1.5478   -1.5575   -0.9035 C   0  0  0  0  0  0  0  0  0  0  0  0
   -2.6578    1.9780   -1.0525 C   0  0  0  0  0  0  0  0  0  0  0  0
   -3.7830   -2.8582   -0.8907 C   0  0  0  0  0  0  0  0  0  0  0  0
    0.0832    0.4131   -0.9514 C   0  0  0  0  0  0  0  0  0  0  0  0
   -5.3908    0.1147    0.3787 C   0  0  0  0  0  0  0  0  0  0  0  0
    1.3056   -0.4903   -0.8978 C   0  0  0  0  0  0  0  0  0  0  0  0
   -4.9766   -0.5041    1.5198 C   0  0  0  0  0  0  0  0  0  0  0  0
   -5.7407   -0.0785    2.6446 C   0  0  0  0  0  0  0  0  0  0  0  0
   -6.7007    0.8466    2.2979 C   0  0  0  0  0  0  0  0  0  0  0  0
    3.5944   -0.2281   -0.3077 C   0  0  0  0  0  0  0  0  0  0  0  0
    4.5743    0.5718    0.2580 C   0  0  0  0  0  0  0  0  0  0  0  0
    3.7478   -1.6071   -0.2173 C   0  0  0  0  0  0  0  0  0  0  0  0
    5.7840   -1.2513    0.9593 C   0  0  0  0  0  0  0  0  0  0  0  0
    4.8607   -2.1365    0.4268 C   0  0  0  0  0  0  0  0  0  0  0  0
    6.9902   -1.7844    1.6575 C   0  0  0  0  0  0  0  0  0  0  0  0
   -5.3801   -0.8685   -1.5198 H   0  0  0  0  0  0  0  0  0  0  0  0
   -4.9811    0.8294   -1.6366 H   0  0  0  0  0  0  0  0  0  0  0  0
   -0.8605   -2.3912   -0.8616 H   0  0  0  0  0  0  0  0  0  0  0  0
   -2.5376    2.3421   -2.0778 H   0  0  0  0  0  0  0  0  0  0  0  0
   -1.9591    2.5238   -0.4108 H   0  0  0  0  0  0  0  0  0  0  0  0
   -3.6515    2.2695   -0.7043 H   0  0  0  0  0  0  0  0  0  0  0  0
   -4.5233   -2.8258   -0.0883 H   0  0  0  0  0  0  0  0  0  0  0  0
   -3.1803   -3.7599   -0.7352 H   0  0  0  0  0  0  0  0  0  0  0  0
   -4.3085   -2.9804   -1.8437 H   0  0  0  0  0  0  0  0  0  0  0  0
    1.2857   -1.1581   -1.7657 H   0  0  0  0  0  0  0  0  0  0  0  0
    1.2260   -1.0565    0.0389 H   0  0  0  0  0  0  0  0  0  0  0  0
   -4.1714   -1.2213    1.5954 H   0  0  0  0  0  0  0  0  0  0  0  0
   -5.5925   -0.4312    3.6569 H   0  0  0  0  0  0  0  0  0  0  0  0
   -7.4136    1.3330    2.9487 H   0  0  0  0  0  0  0  0  0  0  0  0
    3.0419   -2.3043   -0.6583 H   0  0  0  0  0  0  0  0  0  0  0  0
    4.9950   -3.2106    0.4984 H   0  0  0  0  0  0  0  0  0  0  0  0
    7.5871   -2.3958    0.9733 H   0  0  0  0  0  0  0  0  0  0  0  0
    6.6942   -2.3942    2.5171 H   0  0  0  0  0  0  0  0  0  0  0  0
    7.6247   -0.9705    2.0236 H   0  0  0  0  0  0  0  0  0  0  0  0
  1 17  1  0  0  0  0
  1 21  1  0  0  0  0
  2 18  1  0  0  0  0
  2 22  1  0  0  0  0
  3 16  2  0  0  0  0
  4  8  1  0  0  0  0
  5  8  2  0  0  0  0
  6  9  1  0  0  0  0
  6 10  1  0  0  0  0
  6 12  1  0  0  0  0
  7 23  1  0  0  0  0
  7 25  2  0  0  0  0
  8 23  1  0  0  0  0
  9 11  2  0  0  0  0
  9 14  1  0  0  0  0
 10 13  2  0  0  0  0
 10 15  1  0  0  0  0
 11 13  1  0  0  0  0
 11 16  1  0  0  0  0
 12 17  1  0  0  0  0
 12 28  1  0  0  0  0
 12 29  1  0  0  0  0
 13 30  1  0  0  0  0
 14 31  1  0  0  0  0
 14 32  1  0  0  0  0
 14 33  1  0  0  0  0
 15 34  1  0  0  0  0
 15 35  1  0  0  0  0
 15 36  1  0  0  0  0
 16 18  1  0  0  0  0
 17 19  2  0  0  0  0
 18 37  1  0  0  0  0
 18 38  1  0  0  0  0
 19 20  1  0  0  0  0
 19 39  1  0  0  0  0
 20 21  2  0  0  0  0
 20 40  1  0  0  0  0
 21 41  1  0  0  0  0
 22 23  2  0  0  0  0
 22 24  1  0  0  0  0
 24 26  2  0  0  0  0
 24 42  1  0  0  0  0
 25 26  1  0  0  0  0
 25 27  1  0  0  0  0
 26 43  1  0  0  0  0
 27 44  1  0  0  0  0
 27 45  1  0  0  0  0
 27 46  1  0  0  0  0
M  CHG  2   4  -1   8   1
M  END
> <PUBCHEM_COMPOUND_CID>
4546489

> <PUBCHEM_CONFORMER_RMSD>
1

> <PUBCHEM_CONFORMER_DIVERSEORDER>
1
250
203
248
90
141
28
332
259
331
182
7
165
300
288
354
275
350
346
326
118
115
128
156
365
190
65
188
345
231
308
110
323
320
251
225
252
194
268
374
144
272
244
78
11
313
157
2
291
249
377
362
279
113
140
235
130
281
207
337
184
218
39
261
17
376
111
266
71
44
299
123
246
238
37
286
265
262
342
349
304
60
12
199
50
242
59
133
341
215
5
302
283
305
54
239
307
359
351
348
230
117
200
57
121
372
72
180
364
363
287
312
131
229
116
321
82
373
245
9
256
280
241
335
371
20
46
212
67
172
83
240
253
139
247
73
310
85
301
61
47
126
94
158
353
79
58
193
185
356
43
293
269
274
80
88
171
297
347
163
102
13
306
146
159
282
324
174
220
278
292
53
151
198
327
360
233
355
202
92
236
168
143
340
160
15
368
322
318
338
105
263
119
344
87
367
107
214
277
162
197
34
31
26
257
18
232
339
8
325
77
260
55
142
295
357
153
270
175
154
76
52
243
4
70
68
56
289
187
81
186
208
329
41
264
89
96
22
303
27
352
189
196
109
93
62
358
66
36
14
91
192
45
166
3
42
161
150
209
101
35
319
294
10
258
206
205
145
21
98
217
30
149
309
84
195
64
49
237
298
135
314
136
179
375
167
69
271
369
155
216
290
40
211
152
315
330
317
178
219
63
191
254
51
311
120
333
164
137
370
366
210
138
74
213
361
296
29
328
86
267
316
24
183
6
32
228
106
48
23
99
204
273
114
19
276
134
124
129
33
148
181
334
173
97
170
103
132
95
100
223
75
221
255
227
169
108
176
343
112
147
125
285
226
201
336
222
177
25
234
284
38
122
127
224
16
104

> <PUBCHEM_MMFF94_PARTIAL_CHARGES>
33
1 -0.08
10 -0.33
11 -0.09
12 0.44
13 -0.15
14 0.18
15 0.18
16 0.6
17 -0.14
18 0.34
19 -0.15
2 -0.36
20 -0.15
21 -0.11
22 0.08
23 0.44
24 -0.15
25 0.17
26 -0.15
27 0.14
3 -0.57
30 0.15
39 0.15
4 -0.52
40 0.15
41 0.15
42 0.15
43 0.15
5 -0.52
6 0.05
7 -0.62
8 0.91
9 -0.33

> <PUBCHEM_EFFECTIVE_ROTOR_COUNT>
7

> <PUBCHEM_PHARMACOPHORE_FEATURES>
10
1 2 acceptor
1 3 acceptor
1 4 acceptor
1 4 anion
1 5 acceptor
1 6 cation
1 7 acceptor
5 1 17 19 20 21 rings
5 6 9 10 11 13 rings
6 7 22 23 24 25 26 rings

> <PUBCHEM_HEAVY_ATOM_COUNT>
27

> <PUBCHEM_ATOM_DEF_STEREO_COUNT>
0

> <PUBCHEM_ATOM_UDEF_STEREO_COUNT>
0

> <PUBCHEM_BOND_DEF_STEREO_COUNT>
0

> <PUBCHEM_BOND_UDEF_STEREO_COUNT>
0

> <PUBCHEM_ISOTOPIC_ATOM_COUNT>
0

> <PUBCHEM_COMPONENT_COUNT>
1

> <PUBCHEM_CACTVS_TAUTO_COUNT>
2

> <PUBCHEM_CONFORMER_ID>
00455FB900000001

> <PUBCHEM_MMFF94_ENERGY>
66.2283

> <PUBCHEM_FEATURE_SELFOVERLAP>
50.886

> <PUBCHEM_SHAPE_FINGERPRINT>
10 15 18410016541768375785
11524674 6 17240204335742145715
117089 54 12976464346903099065
12107183 9 18341892961336994435
12166972 35 15357706270826484862
12422481 6 18409173194996159997
12596602 18 18412550933450755419
12616971 3 18411415124727170014
12633257 1 18272652354860068735
13540713 5 18194688296554347039
13668630 136 15068623751793885386
13673619 4 15140969469755261567
13782708 43 15430042101699246681
14251764 30 16009032769627688391
14341114 176 18410007728695821356
15183329 4 17917713508829463569
15238133 3 17060337435829251722
15348495 7 18260553359157331083
15352257 5 16153429411094746843
16110190 28 18411701002135114183
17844677 252 18408599245383814108
18608769 82 16877950438260752594
21150785 3 10303804385168311985
21403212 168 18339361865060355647
21637258 2 15430322494639500115
21792934 111 18334288735273564957
21859007 373 17970619698040498741
220451 1 18335704974689548694
22122407 14 16415474995277527979
2303208 19 17095240319528976171
23081809 10 18060132184606823316
23522609 53 18266480847559811764
23559900 14 18335967753842398820
2748736 6 17275109397195588841
2838139 119 14692022280617621163
312425 54 18335701675780411266
3178227 256 18187644679360205106
3663271 9 18342457100991186147
3680242 22 18411985779662340836
392239 28 18408882944889956586
394071 54 18272088241029155982
397830 11 17386011736162663485
44249763 50 13110661818955523771
474113 269 17096660975797309659
5104073 3 18340767151545486826
6058803 2 17982163723564003646
7226269 152 17417816102449657985
86090 222 17241621524093597442
8863177 126 17385733520622960826
999808 66 17530969046665286859

> <PUBCHEM_SHAPE_MULTIPOLES>
521.08
19.65
2.46
1.8
5.59
0.21
1.12
-0.08
13.52
2.16
-0.34
-2.62
-0.12
-1.69

> <PUBCHEM_SHAPE_SELFOVERLAP>
1114.153

> <PUBCHEM_SHAPE_VOLUME>
293.6

> <PUBCHEM_COORDINATE_TYPE>
2
5
10

$$$$
