6874414
  -OEChem-01171809263D

 49 50  0     0  0  0  0  0  0999 V2000
   -0.6653    4.0676    0.1335 Br  0  0  0  0  0  0  0  0  0  0  0  0
    0.5647    1.4002   -0.8892 O   0  0  0  0  0  0  0  0  0  0  0  0
   -0.6922   -1.0285   -1.2114 O   0  0  0  0  0  0  0  0  0  0  0  0
    2.8779    0.4680   -1.6666 O   0  0  0  0  0  0  0  0  0  0  0  0
   -7.1727   -2.4692    0.0636 O   0  0  0  0  0  0  0  0  0  0  0  0
    3.7316    0.3392    0.5213 N   0  0  0  0  0  0  0  0  0  0  0  0
   -5.5142   -0.2775    0.2206 N   0  0  0  0  0  0  0  0  0  0  0  0
   -6.8202   -0.2308    0.5667 N   0  0  0  0  0  0  0  0  0  0  0  0
   -8.8960   -1.1692    0.8475 N   0  0  0  0  0  0  0  0  0  0  0  0
   -0.7592    1.2817   -0.5810 C   0  0  0  0  0  0  0  0  0  0  0  0
   -1.3872    0.0474   -0.7478 C   0  0  0  0  0  0  0  0  0  0  0  0
    5.0393   -0.1657    0.3286 C   0  0  0  0  0  0  0  0  0  0  0  0
    5.8883   -0.3855    1.4134 C   0  0  0  0  0  0  0  0  0  0  0  0
   -3.4651    0.9990    0.0357 C   0  0  0  0  0  0  0  0  0  0  0  0
   -2.7402   -0.0939   -0.4394 C   0  0  0  0  0  0  0  0  0  0  0  0
    1.4974    1.1395    0.1566 C   0  0  0  0  0  0  0  0  0  0  0  0
   -1.4840    2.3746   -0.1059 C   0  0  0  0  0  0  0  0  0  0  0  0
   -2.8370    2.2333    0.2024 C   0  0  0  0  0  0  0  0  0  0  0  0
    2.7771    0.6080   -0.4515 C   0  0  0  0  0  0  0  0  0  0  0  0
    5.4760   -0.4443   -0.9665 C   0  0  0  0  0  0  0  0  0  0  0  0
    7.1740   -0.8839    1.2029 C   0  0  0  0  0  0  0  0  0  0  0  0
    5.4470   -0.0969    2.8115 C   0  0  0  0  0  0  0  0  0  0  0  0
    6.7616   -0.9428   -1.1769 C   0  0  0  0  0  0  0  0  0  0  0  0
   -0.6223   -2.1707   -0.3601 C   0  0  0  0  0  0  0  0  0  0  0  0
    7.6107   -1.1625   -0.0922 C   0  0  0  0  0  0  0  0  0  0  0  0
   -4.8759    0.8512    0.3566 C   0  0  0  0  0  0  0  0  0  0  0  0
    0.6718   -2.9085   -0.6302 C   0  0  0  0  0  0  0  0  0  0  0  0
   -7.5859   -1.3798    0.4580 C   0  0  0  0  0  0  0  0  0  0  0  0
   -3.2195   -1.0590   -0.5833 H   0  0  0  0  0  0  0  0  0  0  0  0
    1.1093    0.3964    0.8642 H   0  0  0  0  0  0  0  0  0  0  0  0
    1.7175    2.0704    0.6890 H   0  0  0  0  0  0  0  0  0  0  0  0
    3.4632    0.5240    1.4840 H   0  0  0  0  0  0  0  0  0  0  0  0
   -3.4049    3.0841    0.5731 H   0  0  0  0  0  0  0  0  0  0  0  0
    4.8831   -0.3037   -1.8585 H   0  0  0  0  0  0  0  0  0  0  0  0
    7.8487   -1.0612    2.0362 H   0  0  0  0  0  0  0  0  0  0  0  0
    5.1988    0.9635    2.9259 H   0  0  0  0  0  0  0  0  0  0  0  0
    4.5769   -0.7077    3.0744 H   0  0  0  0  0  0  0  0  0  0  0  0
    6.2328   -0.3245    3.5404 H   0  0  0  0  0  0  0  0  0  0  0  0
    7.1031   -1.1605   -2.1849 H   0  0  0  0  0  0  0  0  0  0  0  0
   -0.6559   -1.8768    0.6964 H   0  0  0  0  0  0  0  0  0  0  0  0
   -1.4743   -2.8254   -0.5725 H   0  0  0  0  0  0  0  0  0  0  0  0
    8.6116   -1.5507   -0.2563 H   0  0  0  0  0  0  0  0  0  0  0  0
   -5.3972    1.7530    0.7287 H   0  0  0  0  0  0  0  0  0  0  0  0
    0.7352   -3.2043   -1.6825 H   0  0  0  0  0  0  0  0  0  0  0  0
    1.5332   -2.2636   -0.4288 H   0  0  0  0  0  0  0  0  0  0  0  0
    0.7490   -3.8034   -0.0064 H   0  0  0  0  0  0  0  0  0  0  0  0
   -7.2059    0.6474    0.8980 H   0  0  0  0  0  0  0  0  0  0  0  0
   -9.5790   -1.9188    0.8229 H   0  0  0  0  0  0  0  0  0  0  0  0
   -9.2152   -0.2618    1.1696 H   0  0  0  0  0  0  0  0  0  0  0  0
  1 17  1  0  0  0  0
  2 10  1  0  0  0  0
  2 16  1  0  0  0  0
  3 11  1  0  0  0  0
  3 24  1  0  0  0  0
  4 19  2  0  0  0  0
  5 28  2  0  0  0  0
  6 12  1  0  0  0  0
  6 19  1  0  0  0  0
  6 32  1  0  0  0  0
  7  8  1  0  0  0  0
  7 26  2  0  0  0  0
  8 28  1  0  0  0  0
  8 47  1  0  0  0  0
  9 28  1  0  0  0  0
  9 48  1  0  0  0  0
  9 49  1  0  0  0  0
 10 11  2  0  0  0  0
 10 17  1  0  0  0  0
 11 15  1  0  0  0  0
 12 13  1  0  0  0  0
 12 20  2  0  0  0  0
 13 21  2  0  0  0  0
 13 22  1  0  0  0  0
 14 15  2  0  0  0  0
 14 18  1  0  0  0  0
 14 26  1  0  0  0  0
 15 29  1  0  0  0  0
 16 19  1  0  0  0  0
 16 30  1  0  0  0  0
 16 31  1  0  0  0  0
 17 18  2  0  0  0  0
 18 33  1  0  0  0  0
 20 23  1  0  0  0  0
 20 34  1  0  0  0  0
 21 25  1  0  0  0  0
 21 35  1  0  0  0  0
 22 36  1  0  0  0  0
 22 37  1  0  0  0  0
 22 38  1  0  0  0  0
 23 25  2  0  0  0  0
 23 39  1  0  0  0  0
 24 27  1  0  0  0  0
 24 40  1  0  0  0  0
 24 41  1  0  0  0  0
 25 42  1  0  0  0  0
 26 43  1  0  0  0  0
 27 44  1  0  0  0  0
 27 45  1  0  0  0  0
 27 46  1  0  0  0  0
M  END
> <PUBCHEM_COMPOUND_CID>
6874414

> <PUBCHEM_CONFORMER_RMSD>
1

> <PUBCHEM_CONFORMER_DIVERSEORDER>
1
20
25
6
2
15
4
39
48
31
7
34
19
36
51
40
23
49
32
52
13
35
47
26
9
46
30
24
29
8
42
12
3
11
17
44
27
10
45
28
18
41
21
5
50
38
37
43
14
22
33
16

> <PUBCHEM_MMFF94_PARTIAL_CHARGES>
38
1 -0.11
10 0.08
11 0.08
12 0.12
13 -0.14
14 0.09
15 -0.15
16 0.34
17 0.11
18 -0.15
19 0.57
2 -0.36
20 -0.15
21 -0.15
22 0.14
23 -0.15
24 0.28
25 -0.15
26 0.3
28 0.69
29 0.15
3 -0.36
32 0.37
33 0.15
34 0.15
35 0.15
39 0.15
4 -0.57
42 0.15
43 0.06
47 0.37
48 0.37
49 0.37
5 -0.57
6 -0.55
7 -0.51
8 -0.37
9 -0.8

> <PUBCHEM_EFFECTIVE_ROTOR_COUNT>
10

> <PUBCHEM_PHARMACOPHORE_FEATURES>
11
1 1 hydrophobe
1 2 acceptor
1 3 acceptor
1 4 acceptor
1 5 acceptor
1 6 donor
1 7 acceptor
1 8 donor
1 9 donor
6 10 11 14 15 17 18 rings
6 12 13 20 21 23 25 rings

> <PUBCHEM_HEAVY_ATOM_COUNT>
28

> <PUBCHEM_ATOM_DEF_STEREO_COUNT>
0

> <PUBCHEM_ATOM_UDEF_STEREO_COUNT>
0

> <PUBCHEM_BOND_DEF_STEREO_COUNT>
1

> <PUBCHEM_BOND_UDEF_STEREO_COUNT>
0

> <PUBCHEM_ISOTOPIC_ATOM_COUNT>
0

> <PUBCHEM_COMPONENT_COUNT>
1

> <PUBCHEM_CACTVS_TAUTO_COUNT>
6

> <PUBCHEM_CONFORMER_ID>
0068E52E00000001

> <PUBCHEM_MMFF94_ENERGY>
88.6188

> <PUBCHEM_FEATURE_SELFOVERLAP>
55.895

> <PUBCHEM_SHAPE_FINGERPRINT>
11135926 11 18413102850150450351
11456790 92 16343421714009543026
11646440 116 17775005691173200736
11963148 33 18408037425324166323
12166972 35 17822293504361852276
12236239 1 17749675087202006532
13383668 362 18125432262154428040
13540713 4 17842003191040276429
13862211 1 18409735088609263261
16994733 274 11887686065437206383
1818759 1 17967541177246476323
18608769 82 18342738520518586630
20028762 73 18130231562091276223
21033648 29 17201613595110500304
21267235 1 18410578383198287237
21304304 249 18334580170110434743
21781051 124 18335434498744846183
21792934 111 18130785655764318409
22956985 138 17829607263228106074
23559900 14 18131064919317550988
23576562 1 9150587090986375507
255183 313 17418087741645396975
2747138 104 18341895194788476057
3383291 50 18411134753420502083
469060 322 18269289979441240601
59682541 52 14418128509436798992
9896288 288 18127978512104510417

> <PUBCHEM_SHAPE_MULTIPOLES>
538.77
22.41
3
1.38
10.03
1.83
-0.65
-15.72
-8.07
3.71
0.23
-2.71
-0.16
0.64

> <PUBCHEM_SHAPE_SELFOVERLAP>
1115.476

> <PUBCHEM_SHAPE_VOLUME>
312.9

> <PUBCHEM_COORDINATE_TYPE>
2
5
10

$$$$
