381511
  -OEChem-01171810163D

 45 48  0     1  0  0  0  0  0999 V2000
    7.1658   -0.1515   -0.4973 Cl  0  0  0  0  0  0  0  0  0  0  0  0
   -3.5593   -0.7167    1.0368 O   0  0  0  0  0  0  0  0  0  0  0  0
   -0.8109   -0.1688    0.9551 O   0  0  0  0  0  0  0  0  0  0  0  0
   -4.6958   -2.5277    1.8916 O   0  0  0  0  0  0  0  0  0  0  0  0
    3.4375   -1.5478   -0.7042 O   0  0  0  0  0  0  0  0  0  0  0  0
    5.4362   -2.2564   -1.5237 O   0  0  0  0  0  0  0  0  0  0  0  0
   -2.9124   -0.3775   -0.2175 C   0  0  2  0  0  0  0  0  0  0  0  0
   -3.7097   -1.1636   -1.2630 C   0  0  0  0  0  0  0  0  0  0  0  0
   -1.4514   -0.8503   -0.1232 C   0  0  0  0  0  0  0  0  0  0  0  0
   -2.9430    1.1267   -0.4562 C   0  0  0  0  0  0  0  0  0  0  0  0
   -4.1970   -2.3104   -0.4596 C   0  0  0  0  0  0  0  0  0  0  0  0
   -4.2010   -1.9192    0.9608 C   0  0  0  0  0  0  0  0  0  0  0  0
   -2.4465    1.6531   -1.6483 C   0  0  0  0  0  0  0  0  0  0  0  0
   -3.4677    1.9764    0.5173 C   0  0  0  0  0  0  0  0  0  0  0  0
    0.5277    0.0444    0.8455 C   0  0  0  0  0  0  0  0  0  0  0  0
   -4.5491   -3.5267   -0.8785 C   0  0  0  0  0  0  0  0  0  0  0  0
   -2.4746    3.0305   -1.8673 C   0  0  0  0  0  0  0  0  0  0  0  0
   -3.4960    3.3537    0.2982 C   0  0  0  0  0  0  0  0  0  0  0  0
   -2.9993    3.8807   -0.8940 C   0  0  0  0  0  0  0  0  0  0  0  0
    1.3216   -0.8458    0.1321 C   0  0  0  0  0  0  0  0  0  0  0  0
    3.3097    0.4947    0.6208 C   0  0  0  0  0  0  0  0  0  0  0  0
    1.1104    1.1570    1.4467 C   0  0  0  0  0  0  0  0  0  0  0  0
    2.6947   -0.6082    0.0312 C   0  0  0  0  0  0  0  0  0  0  0  0
    2.4882    1.3801    1.3357 C   0  0  0  0  0  0  0  0  0  0  0  0
    4.7685    0.6699    0.4643 C   0  0  0  0  0  0  0  0  0  0  0  0
    5.4515   -0.2476   -0.2457 C   0  0  0  0  0  0  0  0  0  0  0  0
    5.3945    1.8761    1.1198 C   0  0  0  0  0  0  0  0  0  0  0  0
    4.8073   -1.4250   -0.8774 C   0  0  0  0  0  0  0  0  0  0  0  0
   -3.1052   -1.4573   -2.1270 H   0  0  0  0  0  0  0  0  0  0  0  0
   -4.5747   -0.5920   -1.6216 H   0  0  0  0  0  0  0  0  0  0  0  0
   -0.9479   -0.6663   -1.0812 H   0  0  0  0  0  0  0  0  0  0  0  0
   -1.4075   -1.9242    0.0963 H   0  0  0  0  0  0  0  0  0  0  0  0
   -2.0387    1.0065   -2.4204 H   0  0  0  0  0  0  0  0  0  0  0  0
   -3.8597    1.6032    1.4585 H   0  0  0  0  0  0  0  0  0  0  0  0
   -4.5160   -3.7793   -1.9331 H   0  0  0  0  0  0  0  0  0  0  0  0
   -4.8765   -4.2963   -0.1879 H   0  0  0  0  0  0  0  0  0  0  0  0
   -2.0889    3.4408   -2.7959 H   0  0  0  0  0  0  0  0  0  0  0  0
   -3.9035    4.0164    1.0561 H   0  0  0  0  0  0  0  0  0  0  0  0
    0.9178   -1.7415   -0.3303 H   0  0  0  0  0  0  0  0  0  0  0  0
   -3.0212    4.9531   -1.0645 H   0  0  0  0  0  0  0  0  0  0  0  0
    0.4983    1.8601    2.0056 H   0  0  0  0  0  0  0  0  0  0  0  0
    2.8943    2.2628    1.8227 H   0  0  0  0  0  0  0  0  0  0  0  0
    4.9620    2.7993    0.7181 H   0  0  0  0  0  0  0  0  0  0  0  0
    6.4744    1.9494    0.9690 H   0  0  0  0  0  0  0  0  0  0  0  0
    5.2336    1.8514    2.2034 H   0  0  0  0  0  0  0  0  0  0  0  0
  1 26  1  0  0  0  0
  2  7  1  0  0  0  0
  2 12  1  0  0  0  0
  3  9  1  0  0  0  0
  3 15  1  0  0  0  0
  4 12  2  0  0  0  0
  5 23  1  0  0  0  0
  5 28  1  0  0  0  0
  6 28  2  0  0  0  0
  7  8  1  0  0  0  0
  7  9  1  0  0  0  0
  7 10  1  0  0  0  0
  8 11  1  0  0  0  0
  8 29  1  0  0  0  0
  8 30  1  0  0  0  0
  9 31  1  0  0  0  0
  9 32  1  0  0  0  0
 10 13  2  0  0  0  0
 10 14  1  0  0  0  0
 11 12  1  0  0  0  0
 11 16  2  0  0  0  0
 13 17  1  0  0  0  0
 13 33  1  0  0  0  0
 14 18  2  0  0  0  0
 14 34  1  0  0  0  0
 15 20  2  0  0  0  0
 15 22  1  0  0  0  0
 16 35  1  0  0  0  0
 16 36  1  0  0  0  0
 17 19  2  0  0  0  0
 17 37  1  0  0  0  0
 18 19  1  0  0  0  0
 18 38  1  0  0  0  0
 19 40  1  0  0  0  0
 20 23  1  0  0  0  0
 20 39  1  0  0  0  0
 21 23  2  0  0  0  0
 21 24  1  0  0  0  0
 21 25  1  0  0  0  0
 22 24  2  0  0  0  0
 22 41  1  0  0  0  0
 24 42  1  0  0  0  0
 25 26  2  0  0  0  0
 25 27  1  0  0  0  0
 26 28  1  0  0  0  0
 27 43  1  0  0  0  0
 27 44  1  0  0  0  0
 27 45  1  0  0  0  0
M  END
> <PUBCHEM_COMPOUND_CID>
381511

> <PUBCHEM_CONFORMER_RMSD>
0.8

> <PUBCHEM_CONFORMER_DIVERSEORDER>
1
31
92
83
94
16
80
29
37
90
85
82
65
14
63
88
48
81
62
15
51
25
4
79
78
30
44
73
41
93
18
55
68
52
58
49
64
54
45
69
77
42
32
66
89
2
13
53
26
86
23
5
60
57
56
50
11
84
40
7
39
59
12
35
76
22
74
27
91
19
72
34
9
61
87
75
3
38
24
10
47
28
71
20
70
17
21
8
33
36
6
67
46
43

> <PUBCHEM_MMFF94_PARTIAL_CHARGES>
38
1 -0.14
10 -0.14
11 -0.12
12 0.71
13 -0.15
14 -0.15
15 0.08
16 -0.3
17 -0.15
18 -0.15
19 -0.15
2 -0.43
20 -0.15
21 0.03
22 -0.15
23 0.08
24 -0.15
25 -0.17
26 0.15
27 0.14
28 0.71
3 -0.36
33 0.15
34 0.15
35 0.15
36 0.15
37 0.15
38 0.15
39 0.15
4 -0.57
40 0.15
41 0.15
42 0.15
5 -0.23
6 -0.57
7 0.42
8 0.14
9 0.28

> <PUBCHEM_EFFECTIVE_ROTOR_COUNT>
4.6

> <PUBCHEM_PHARMACOPHORE_FEATURES>
7
1 3 acceptor
1 4 acceptor
1 6 acceptor
5 2 7 8 11 12 rings
6 10 13 14 17 18 19 rings
6 15 20 21 22 23 24 rings
6 5 21 23 25 26 28 rings

> <PUBCHEM_HEAVY_ATOM_COUNT>
28

> <PUBCHEM_ATOM_DEF_STEREO_COUNT>
0

> <PUBCHEM_ATOM_UDEF_STEREO_COUNT>
1

> <PUBCHEM_BOND_DEF_STEREO_COUNT>
0

> <PUBCHEM_BOND_UDEF_STEREO_COUNT>
0

> <PUBCHEM_ISOTOPIC_ATOM_COUNT>
0

> <PUBCHEM_COMPONENT_COUNT>
1

> <PUBCHEM_CACTVS_TAUTO_COUNT>
1

> <PUBCHEM_CONFORMER_ID>
0005D24700000001

> <PUBCHEM_MMFF94_ENERGY>
96.6111

> <PUBCHEM_FEATURE_SELFOVERLAP>
35.55

> <PUBCHEM_SHAPE_FINGERPRINT>
10165383 225 18122915222651978225
11014199 57 18333733545735561077
11101153 10 18115595996751850860
11135926 11 16773800273699564838
11405975 8 18266171743321508762
11497681 19 17630317773445810215
12623949 98 17772763903102973207
12788726 201 18115566203138055465
13673619 4 18200880685437925419
13690498 29 18412547612855700246
13782708 43 18408884036692786714
13944108 23 16390416747414113828
14347332 77 18410006671511276583
14713325 29 18336551521365036657
14910302 57 18343575261577827859
15131766 46 15407770501536269081
15183329 4 17530962441976035866
15361156 5 18337679718847312951
15463212 79 17896032149057805033
15876981 60 18041005037312177589
15961568 22 17970340641072716596
17844677 252 18412266146959092432
1813 80 18191870244115839463
20101258 96 18335144236850350777
21033648 29 18201424879506522648
21033650 10 18041287560925409568
21065201 7 18335977589085287658
221357 26 18272362088006188005
22182313 1 18129924763565239160
22393880 68 18339357466533874658
23557571 272 18262507191462482389
23559900 14 18342728637682475641
249057 25 17240477027563281476
283562 15 18261383469294177579
32027 91 17842841019639658790
3418910 222 17824275997521976700
3610482 184 17532393988428895398
4058900 60 17690000029902722505
44062 13 18340206276187804990
46194498 28 18338513170605963340
469060 322 17240490195664076721
497634 4 17988931093258286897
508706 21 18409724037004198605
5104073 3 18412540981937424426
5252454 2 17971466300118070021
5281201 14 18413108368650311316
5283173 99 18410854326963820528
531348 171 18336825273827583890
7399639 24 17984682674522818736

> <PUBCHEM_SHAPE_MULTIPOLES>
548.75
14.76
3.9
1.52
19.95
1.49
-0.05
-5.08
-1.8
-7.12
-1.06
-0.6
0.15
2.74

> <PUBCHEM_SHAPE_SELFOVERLAP>
1200.402

> <PUBCHEM_SHAPE_VOLUME>
299

> <PUBCHEM_COORDINATE_TYPE>
2
5
10

$$$$
