7409168
  -OEChem-01171810053D

 37 39  0     0  0  0  0  0  0999 V2000
   -6.7104   -0.0432   -0.1436 O   0  0  0  0  0  0  0  0  0  0  0  0
    2.3920   -1.8137    0.3021 O   0  0  0  0  0  0  0  0  0  0  0  0
   -3.9069    0.0230    0.0440 N   0  0  0  0  0  0  0  0  0  0  0  0
    1.6915    0.3981   -0.0795 N   0  0  0  0  0  0  0  0  0  0  0  0
    4.2531    1.0920   -0.1781 N   0  0  0  0  0  0  0  0  0  0  0  0
    6.3384   -0.7578    0.1314 N   0  0  0  0  0  0  0  0  0  0  0  0
   -4.5653   -0.8552   -0.9328 C   0  0  0  0  0  0  0  0  0  0  0  0
   -4.7068    1.1675    0.4936 C   0  0  0  0  0  0  0  0  0  0  0  0
   -5.9600   -1.2213   -0.4379 C   0  0  0  0  0  0  0  0  0  0  0  0
   -6.0943    0.6937    0.9119 C   0  0  0  0  0  0  0  0  0  0  0  0
   -2.5117    0.1164    0.0126 C   0  0  0  0  0  0  0  0  0  0  0  0
   -1.7032   -1.0219    0.2055 C   0  0  0  0  0  0  0  0  0  0  0  0
   -1.8714    1.3517   -0.2118 C   0  0  0  0  0  0  0  0  0  0  0  0
    0.2999    0.3048   -0.0480 C   0  0  0  0  0  0  0  0  0  0  0  0
   -0.3117   -0.9287    0.1757 C   0  0  0  0  0  0  0  0  0  0  0  0
   -0.4799    1.4450   -0.2419 C   0  0  0  0  0  0  0  0  0  0  0  0
    2.6291   -0.6292    0.0912 C   0  0  0  0  0  0  0  0  0  0  0  0
    4.0535   -0.2084    0.0311 C   0  0  0  0  0  0  0  0  0  0  0  0
    5.0434   -1.1271    0.1845 C   0  0  0  0  0  0  0  0  0  0  0  0
    5.5483    1.4613   -0.2309 C   0  0  0  0  0  0  0  0  0  0  0  0
    6.5725    0.5528   -0.0791 C   0  0  0  0  0  0  0  0  0  0  0  0
   -3.9996   -1.7770   -1.1065 H   0  0  0  0  0  0  0  0  0  0  0  0
   -4.6384   -0.3204   -1.8879 H   0  0  0  0  0  0  0  0  0  0  0  0
   -4.8017    1.8860   -0.3299 H   0  0  0  0  0  0  0  0  0  0  0  0
   -4.2357    1.6712    1.3459 H   0  0  0  0  0  0  0  0  0  0  0  0
   -6.4970   -1.7772   -1.2129 H   0  0  0  0  0  0  0  0  0  0  0  0
   -5.9133   -1.8566    0.4549 H   0  0  0  0  0  0  0  0  0  0  0  0
   -6.0485    0.0701    1.8130 H   0  0  0  0  0  0  0  0  0  0  0  0
   -6.7308    1.5553    1.1373 H   0  0  0  0  0  0  0  0  0  0  0  0
   -2.1593   -1.9915    0.3937 H   0  0  0  0  0  0  0  0  0  0  0  0
   -2.4463    2.2592   -0.3790 H   0  0  0  0  0  0  0  0  0  0  0  0
    0.2216   -1.8547    0.3370 H   0  0  0  0  0  0  0  0  0  0  0  0
   -0.0164    2.4120   -0.4201 H   0  0  0  0  0  0  0  0  0  0  0  0
    2.0618    1.3319   -0.2440 H   0  0  0  0  0  0  0  0  0  0  0  0
    4.8726   -2.1826    0.3537 H   0  0  0  0  0  0  0  0  0  0  0  0
    5.7371    2.5143   -0.4000 H   0  0  0  0  0  0  0  0  0  0  0  0
    7.6129    0.8504   -0.1218 H   0  0  0  0  0  0  0  0  0  0  0  0
  1  9  1  0  0  0  0
  1 10  1  0  0  0  0
  2 17  2  0  0  0  0
  3  7  1  0  0  0  0
  3  8  1  0  0  0  0
  3 11  1  0  0  0  0
  4 14  1  0  0  0  0
  4 17  1  0  0  0  0
  4 34  1  0  0  0  0
  5 18  2  0  0  0  0
  5 20  1  0  0  0  0
  6 19  2  0  0  0  0
  6 21  1  0  0  0  0
  7  9  1  0  0  0  0
  7 22  1  0  0  0  0
  7 23  1  0  0  0  0
  8 10  1  0  0  0  0
  8 24  1  0  0  0  0
  8 25  1  0  0  0  0
  9 26  1  0  0  0  0
  9 27  1  0  0  0  0
 10 28  1  0  0  0  0
 10 29  1  0  0  0  0
 11 12  2  0  0  0  0
 11 13  1  0  0  0  0
 12 15  1  0  0  0  0
 12 30  1  0  0  0  0
 13 16  2  0  0  0  0
 13 31  1  0  0  0  0
 14 15  2  0  0  0  0
 14 16  1  0  0  0  0
 15 32  1  0  0  0  0
 16 33  1  0  0  0  0
 17 18  1  0  0  0  0
 18 19  1  0  0  0  0
 19 35  1  0  0  0  0
 20 21  2  0  0  0  0
 20 36  1  0  0  0  0
 21 37  1  0  0  0  0
M  END
> <PUBCHEM_COMPOUND_CID>
7409168

> <PUBCHEM_CONFORMER_RMSD>
0.8

> <PUBCHEM_CONFORMER_DIVERSEORDER>
1
8
7
6
5
4
3
2

> <PUBCHEM_MMFF94_PARTIAL_CHARGES>
29
1 -0.56
10 0.28
11 0.1
12 -0.15
13 -0.15
14 0.12
15 -0.15
16 -0.15
17 0.54
18 0.4
19 0.16
2 -0.57
20 0.16
21 0.16
3 -0.84
30 0.15
31 0.15
32 0.15
33 0.15
34 0.37
35 0.15
36 0.15
37 0.15
4 -0.55
5 -0.62
6 -0.62
7 0.37
8 0.37
9 0.28

> <PUBCHEM_EFFECTIVE_ROTOR_COUNT>
5.2

> <PUBCHEM_PHARMACOPHORE_FEATURES>
9
1 1 acceptor
1 2 acceptor
1 3 cation
1 4 donor
1 5 acceptor
1 6 acceptor
6 1 3 7 8 9 10 rings
6 11 12 13 14 15 16 rings
6 5 6 18 19 20 21 rings

> <PUBCHEM_HEAVY_ATOM_COUNT>
21

> <PUBCHEM_ATOM_DEF_STEREO_COUNT>
0

> <PUBCHEM_ATOM_UDEF_STEREO_COUNT>
0

> <PUBCHEM_BOND_DEF_STEREO_COUNT>
0

> <PUBCHEM_BOND_UDEF_STEREO_COUNT>
0

> <PUBCHEM_ISOTOPIC_ATOM_COUNT>
0

> <PUBCHEM_COMPONENT_COUNT>
1

> <PUBCHEM_CACTVS_TAUTO_COUNT>
2

> <PUBCHEM_CONFORMER_ID>
00710E1000000001

> <PUBCHEM_MMFF94_ENERGY>
75.3602

> <PUBCHEM_FEATURE_SELFOVERLAP>
45.676

> <PUBCHEM_SHAPE_FINGERPRINT>
10299344 5 18343585144091782599
10595046 47 18413388717738695147
10906281 52 18337973245307161831
10968037 39 18407759248686023471
11315181 36 18130788976021295353
11524674 6 15841549691292064223
12091667 2 17967814938493350437
12107183 9 17548702880714969715
12166972 35 18187086148506261572
12236239 1 18342739615581759431
12516196 113 18343581854115425873
13167372 99 18340771442629330680
13288520 33 18343581854964342549
13533116 47 17385997322484495018
13862211 1 18335136488132989691
1420 363 17822014198416841864
14251732 16 18410856598505556891
14251764 18 18343867727924228291
14251764 46 18410291414968636034
14528608 73 18413107286160050332
14933364 13 18272653445591968001
15048467 5 18059859441678602241
15183329 4 18411134731786649611
15716309 27 18412545405637706843
17834072 33 18201718470137361032
17834076 25 18344146994533465712
19489759 90 14345792738904166189
200 152 18272367572631887312
20281389 69 18334574642028647264
21150785 3 18272362088781473141
21236236 1 18337390448922295573
21267235 1 18336833005211354046
21315763 28 18411136930815186416
220451 1 17917992771687046391
23035841 295 18342457041056660155
23081809 10 18342455941275890103
23402539 116 18343298163383704093
23522609 53 18198931208161923721
23536379 177 18273496758183456211
23559900 14 18267578181971153113
29717793 49 18060144232723376382
3004659 81 18408604747795777266
34797466 226 16845017913351545204
3545911 37 18260267447774789414
397830 11 15865215652171775376
4073 2 18041565848936413402
42788 4 18410856555344828768
4325135 7 18411418414450468740
4340502 62 16370725924378343786
4463277 17 18410292506212309941
5104073 3 17969782977701160872
542803 24 18131631179466819994
59755656 520 17095237051091273195
9996256 80 18413387622564226066

> <PUBCHEM_SHAPE_MULTIPOLES>
400.51
18.35
1.51
0.72
2.46
0.02
0
0.2
0.2
0.29
-0.01
-0.53
0
-0.93

> <PUBCHEM_SHAPE_SELFOVERLAP>
859.728

> <PUBCHEM_SHAPE_VOLUME>
219.3

> <PUBCHEM_COORDINATE_TYPE>
2
5
10

$$$$
