46943660
  -OEChem-01171810183D

 48 50  0     1  0  0  0  0  0999 V2000
    0.1716   -1.2636   -0.8516 O   0  0  0  0  0  0  0  0  0  0  0  0
    6.6597    0.1383   -0.0840 O   0  0  0  0  0  0  0  0  0  0  0  0
   -2.9459    0.6943    1.7057 O   0  0  0  0  0  0  0  0  0  0  0  0
    4.4750   -0.5903   -0.3883 N   0  0  0  0  0  0  0  0  0  0  0  0
   -1.1860   -0.9672   -0.8627 N   0  0  0  0  0  0  0  0  0  0  0  0
   -3.7391   -0.1360   -0.3407 N   0  0  0  0  0  0  0  0  0  0  0  0
    2.2077   -1.0424    0.4857 C   0  0  1  0  0  0  0  0  0  0  0  0
    2.5478   -2.5444    0.5319 C   0  0  0  0  0  0  0  0  0  0  0  0
    3.0433   -0.3293   -0.5926 C   0  0  0  0  0  0  0  0  0  0  0  0
    4.0530   -2.7571    0.7011 C   0  0  0  0  0  0  0  0  0  0  0  0
    4.8409   -2.0077   -0.3695 C   0  0  0  0  0  0  0  0  0  0  0  0
    0.7213   -0.8045    0.3016 C   0  0  0  0  0  0  0  0  0  0  0  0
    5.4606    0.3844   -0.2376 C   0  0  0  0  0  0  0  0  0  0  0  0
    5.0008    1.8201   -0.2654 C   0  0  0  0  0  0  0  0  0  0  0  0
   -0.2445   -0.2045    1.0657 C   0  0  0  0  0  0  0  0  0  0  0  0
    6.1817    2.7591   -0.0898 C   0  0  0  0  0  0  0  0  0  0  0  0
   -1.4110   -0.3347    0.2925 C   0  0  0  0  0  0  0  0  0  0  0  0
    5.7875    4.2270   -0.1728 C   0  0  0  0  0  0  0  0  0  0  0  0
   -2.7322    0.1211    0.6137 C   0  0  0  0  0  0  0  0  0  0  0  0
   -5.1211    0.1709   -0.2900 C   0  0  0  0  0  0  0  0  0  0  0  0
   -5.6514    0.8198    0.8251 C   0  0  0  0  0  0  0  0  0  0  0  0
   -5.9518   -0.1762   -1.3555 C   0  0  0  0  0  0  0  0  0  0  0  0
   -7.0123    1.1218    0.8745 C   0  0  0  0  0  0  0  0  0  0  0  0
   -7.3127    0.1260   -1.3060 C   0  0  0  0  0  0  0  0  0  0  0  0
   -7.8430    0.7750   -0.1911 C   0  0  0  0  0  0  0  0  0  0  0  0
    2.4850   -0.6128    1.4595 H   0  0  0  0  0  0  0  0  0  0  0  0
    2.0129   -3.0285    1.3580 H   0  0  0  0  0  0  0  0  0  0  0  0
    2.2140   -3.0372   -0.3905 H   0  0  0  0  0  0  0  0  0  0  0  0
    2.8170    0.7391   -0.5888 H   0  0  0  0  0  0  0  0  0  0  0  0
    2.7894   -0.7003   -1.5938 H   0  0  0  0  0  0  0  0  0  0  0  0
    4.2848   -3.8268    0.6543 H   0  0  0  0  0  0  0  0  0  0  0  0
    4.3565   -2.4017    1.6937 H   0  0  0  0  0  0  0  0  0  0  0  0
    4.6231   -2.4160   -1.3634 H   0  0  0  0  0  0  0  0  0  0  0  0
    5.9139   -2.1317   -0.1924 H   0  0  0  0  0  0  0  0  0  0  0  0
    4.5159    2.0186   -1.2276 H   0  0  0  0  0  0  0  0  0  0  0  0
    4.2793    1.9823    0.5429 H   0  0  0  0  0  0  0  0  0  0  0  0
   -0.1178    0.2558    2.0346 H   0  0  0  0  0  0  0  0  0  0  0  0
    6.9389    2.5627   -0.8593 H   0  0  0  0  0  0  0  0  0  0  0  0
    6.6637    2.5791    0.8793 H   0  0  0  0  0  0  0  0  0  0  0  0
    5.0607    4.4804    0.6054 H   0  0  0  0  0  0  0  0  0  0  0  0
    6.6667    4.8649   -0.0390 H   0  0  0  0  0  0  0  0  0  0  0  0
    5.3437    4.4580   -1.1464 H   0  0  0  0  0  0  0  0  0  0  0  0
   -3.4431   -0.6128   -1.1904 H   0  0  0  0  0  0  0  0  0  0  0  0
   -5.0731    1.1197    1.6872 H   0  0  0  0  0  0  0  0  0  0  0  0
   -5.5516   -0.6822   -2.2303 H   0  0  0  0  0  0  0  0  0  0  0  0
   -7.4266    1.6271    1.7422 H   0  0  0  0  0  0  0  0  0  0  0  0
   -7.9596   -0.1441   -2.1356 H   0  0  0  0  0  0  0  0  0  0  0  0
   -8.9026    1.0102   -0.1525 H   0  0  0  0  0  0  0  0  0  0  0  0
  1  5  1  0  0  0  0
  1 12  1  0  0  0  0
  2 13  2  0  0  0  0
  3 19  2  0  0  0  0
  4  9  1  0  0  0  0
  4 11  1  0  0  0  0
  4 13  1  0  0  0  0
  5 17  2  0  0  0  0
  6 19  1  0  0  0  0
  6 20  1  0  0  0  0
  6 43  1  0  0  0  0
  7  8  1  0  0  0  0
  7  9  1  0  0  0  0
  7 12  1  0  0  0  0
  7 26  1  0  0  0  0
  8 10  1  0  0  0  0
  8 27  1  0  0  0  0
  8 28  1  0  0  0  0
  9 29  1  0  0  0  0
  9 30  1  0  0  0  0
 10 11  1  0  0  0  0
 10 31  1  0  0  0  0
 10 32  1  0  0  0  0
 11 33  1  0  0  0  0
 11 34  1  0  0  0  0
 12 15  2  0  0  0  0
 13 14  1  0  0  0  0
 14 16  1  0  0  0  0
 14 35  1  0  0  0  0
 14 36  1  0  0  0  0
 15 17  1  0  0  0  0
 15 37  1  0  0  0  0
 16 18  1  0  0  0  0
 16 38  1  0  0  0  0
 16 39  1  0  0  0  0
 17 19  1  0  0  0  0
 18 40  1  0  0  0  0
 18 41  1  0  0  0  0
 18 42  1  0  0  0  0
 20 21  2  0  0  0  0
 20 22  1  0  0  0  0
 21 23  1  0  0  0  0
 21 44  1  0  0  0  0
 22 24  2  0  0  0  0
 22 45  1  0  0  0  0
 23 25  2  0  0  0  0
 23 46  1  0  0  0  0
 24 25  1  0  0  0  0
 24 47  1  0  0  0  0
 25 48  1  0  0  0  0
M  END
> <PUBCHEM_COMPOUND_CID>
46943660

> <PUBCHEM_CONFORMER_RMSD>
1

> <PUBCHEM_CONFORMER_DIVERSEORDER>
1
121
12
47
122
78
9
35
56
105
63
81
8
120
127
80
26
79
88
7
92
51
64
117
20
17
71
25
101
68
85
59
99
84
94
62
61
19
53
75
67
124
52
22
37
42
60
111
15
103
28
43
130
126
125
48
112
108
41
69
114
95
96
109
34
55
72
49
115
123
77
87
118
10
38
128
44
89
18
21
32
16
73
93
90
33
76
13
98
5
97
110
113
91
119
6
70
27
82
24
3
54
50
29
11
46
74
116
104
66
106
57
2
102
39
14
30
58
86
40
83
31
65
45
23
107
129
4
100
36

> <PUBCHEM_MMFF94_PARTIAL_CHARGES>
28
1 -0.02
11 0.3
12 -0.04
13 0.57
14 0.06
15 -0.15
17 0.2
19 0.72
2 -0.57
20 0.12
21 -0.15
22 -0.15
23 -0.15
24 -0.15
25 -0.15
3 -0.57
37 0.15
4 -0.66
43 0.37
44 0.15
45 0.15
46 0.15
47 0.15
48 0.15
5 -0.41
6 -0.55
7 0.18
9 0.3

> <PUBCHEM_EFFECTIVE_ROTOR_COUNT>
8.2

> <PUBCHEM_PHARMACOPHORE_FEATURES>
8
1 18 hydrophobe
1 2 acceptor
1 3 acceptor
1 5 acceptor
1 6 donor
5 1 5 12 15 17 rings
6 20 21 22 23 24 25 rings
6 4 7 8 9 10 11 rings

> <PUBCHEM_HEAVY_ATOM_COUNT>
25

> <PUBCHEM_ATOM_DEF_STEREO_COUNT>
0

> <PUBCHEM_ATOM_UDEF_STEREO_COUNT>
1

> <PUBCHEM_BOND_DEF_STEREO_COUNT>
0

> <PUBCHEM_BOND_UDEF_STEREO_COUNT>
0

> <PUBCHEM_ISOTOPIC_ATOM_COUNT>
0

> <PUBCHEM_COMPONENT_COUNT>
1

> <PUBCHEM_CACTVS_TAUTO_COUNT>
2

> <PUBCHEM_CONFORMER_ID>
02CC4DAC00000001

> <PUBCHEM_MMFF94_ENERGY>
45.114

> <PUBCHEM_FEATURE_SELFOVERLAP>
40.597

> <PUBCHEM_SHAPE_FINGERPRINT>
10 15 15430045365489341287
10299344 5 18060416894538108111
10411042 1 17976819788887212762
10595046 47 18270962341432951987
10638233 991 18412827967199250833
10835480 77 18335139825348796723
10906281 52 17774735186250124715
11101153 10 18412266108320964857
11315181 36 18413669103202149271
11719270 70 13262396644350656297
12236239 1 18201719518489462303
12821665 9 18269271438641721687
13533116 47 18042123163534221450
13955234 65 18041554733645726946
14117953 113 18337960095331475660
14142895 15 18338234976989041567
14170010 4 17894353263247276783
14429380 56 18408877451642466716
14461889 52 17240775007429223043
14598715 104 17168129132158852253
14931854 50 17845387690385604056
15183329 4 17561085808791145473
15276724 80 18338232666202366469
15352257 5 11455883676759076613
155225 6 17898861416174192436
16079462 125 17458341935942994879
16120349 18 18408880733398244765
18335252 114 18412266134622875556
19301679 30 8069485720017486244
19427546 62 18408325510371180914
20157964 124 18408886226766904790
20554085 129 16225758623565733185
20771845 171 17561090172050553630
21033648 29 17168140127158701637
21049683 118 18042670875613155170
21150785 3 18202560692350663511
21267235 1 16845565440847228175
21298829 104 18339081622260010356
21344244 78 18196354941792783202
21521721 280 18407762521641299763
220451 1 17775000151420074191
2297311 6 15195285314123730539
23081809 10 17989203712297523019
23522609 53 17702685288593177561
23569914 2 17173722360019706452
23845131 108 18187366584296234554
249057 25 17845662447473483010
255183 451 17842567245623810246
27425 322 18341896350810276174
29717793 49 18059860515299431718
300161 21 18040152907659199611
3004659 81 17131826565028102835
328310 630 18342748429203369329
335352 9 17203601551326138841
3472631 163 18272093837813952988
34797466 226 18271812293490206439
397830 11 17750529527605106233
4072396 5 13767927905503704202
4073 2 18261675986183588803
4325135 7 17989487402833552876
4340502 62 17385725781318967658
44555599 121 18200883876762585801
445580 126 18410846690744304472
445580 37 16486980553643878521
474 4 18338802316736649418
5312510 48 18339643446995017664
57634706 306 18187638158575936773
58902169 19 18131910477306854852
6327066 14 18192997248045964396
6328613 192 18343020017038237677
6898599 12 18056479680236836990

> <PUBCHEM_SHAPE_MULTIPOLES>
481.94
22.78
2.91
1.1
22.52
2.2
-0.04
13.21
3.43
-9.47
-0.17
1.53
-0.04
-1.04

> <PUBCHEM_SHAPE_SELFOVERLAP>
1012.932

> <PUBCHEM_SHAPE_VOLUME>
269.8

> <PUBCHEM_COORDINATE_TYPE>
2
5
10

$$$$
