5309397
  -OEChem-01171809193D

 49 51  0     0  0  0  0  0  0999 V2000
    5.3893   -4.7004    0.1183 Cl  0  0  0  0  0  0  0  0  0  0  0  0
    0.1691    3.1163   -0.1800 S   0  0  0  0  0  0  0  0  0  0  0  0
   -2.6199    2.3068   -0.6503 O   0  0  0  0  0  0  0  0  0  0  0  0
   -5.8651   -0.7887    0.0735 N   0  0  0  0  0  0  0  0  0  0  0  0
    2.9564    2.9007    0.2052 N   0  0  0  0  0  0  0  0  0  0  0  0
   -2.3181    0.0212   -0.7124 N   0  0  0  0  0  0  0  0  0  0  0  0
    3.8312    1.8563    0.2695 N   0  0  0  0  0  0  0  0  0  0  0  0
   -4.4591   -0.4915    0.3454 C   0  0  0  0  0  0  0  0  0  0  0  0
   -3.6976   -0.2998   -0.9580 C   0  0  0  0  0  0  0  0  0  0  0  0
   -6.6075   -0.9359    1.3249 C   0  0  0  0  0  0  0  0  0  0  0  0
   -5.9841   -2.0002   -0.7369 C   0  0  0  0  0  0  0  0  0  0  0  0
    1.7378    1.1512   -0.0700 C   0  0  0  0  0  0  0  0  0  0  0  0
    1.6896    2.4835    0.0001 C   0  0  0  0  0  0  0  0  0  0  0  0
    3.0534    0.7684    0.0956 C   0  0  0  0  0  0  0  0  0  0  0  0
   -0.4257    1.4975   -0.3584 C   0  0  0  0  0  0  0  0  0  0  0  0
    0.5222    0.5149   -0.2800 C   0  0  0  0  0  0  0  0  0  0  0  0
   -1.8702    1.3340   -0.5732 C   0  0  0  0  0  0  0  0  0  0  0  0
   -6.4948    0.3146    2.1804 C   0  0  0  0  0  0  0  0  0  0  0  0
   -7.4353   -2.2904   -1.0806 C   0  0  0  0  0  0  0  0  0  0  0  0
    3.6178   -0.5539    0.1003 C   0  0  0  0  0  0  0  0  0  0  0  0
    3.4360    4.2529    0.3512 C   0  0  0  0  0  0  0  0  0  0  0  0
    2.8551   -1.6343    0.5405 C   0  0  0  0  0  0  0  0  0  0  0  0
    4.9274   -0.7529   -0.3344 C   0  0  0  0  0  0  0  0  0  0  0  0
    3.4032   -2.9170    0.5464 C   0  0  0  0  0  0  0  0  0  0  0  0
    5.4755   -2.0356   -0.3288 C   0  0  0  0  0  0  0  0  0  0  0  0
    4.7134   -3.1178    0.1116 C   0  0  0  0  0  0  0  0  0  0  0  0
   -3.9881   -1.2826    0.9444 H   0  0  0  0  0  0  0  0  0  0  0  0
   -4.3511    0.4433    0.9056 H   0  0  0  0  0  0  0  0  0  0  0  0
   -4.1508    0.4907   -1.5673 H   0  0  0  0  0  0  0  0  0  0  0  0
   -3.6481   -1.2118   -1.5577 H   0  0  0  0  0  0  0  0  0  0  0  0
   -7.6766   -1.0626    1.1260 H   0  0  0  0  0  0  0  0  0  0  0  0
   -6.2720   -1.8073    1.9014 H   0  0  0  0  0  0  0  0  0  0  0  0
   -5.4982   -1.8787   -1.7085 H   0  0  0  0  0  0  0  0  0  0  0  0
   -5.5351   -2.8722   -0.2452 H   0  0  0  0  0  0  0  0  0  0  0  0
    0.3482   -0.5456   -0.3846 H   0  0  0  0  0  0  0  0  0  0  0  0
   -1.6724   -0.7569   -0.6367 H   0  0  0  0  0  0  0  0  0  0  0  0
   -7.2449    0.2793    2.9789 H   0  0  0  0  0  0  0  0  0  0  0  0
   -6.6823    1.2247    1.6001 H   0  0  0  0  0  0  0  0  0  0  0  0
   -5.5222    0.3985    2.6751 H   0  0  0  0  0  0  0  0  0  0  0  0
   -7.4813   -3.0536   -1.8660 H   0  0  0  0  0  0  0  0  0  0  0  0
   -7.9490   -1.4008   -1.4610 H   0  0  0  0  0  0  0  0  0  0  0  0
   -7.9956   -2.6882   -0.2289 H   0  0  0  0  0  0  0  0  0  0  0  0
    4.1618    4.4463   -0.4425 H   0  0  0  0  0  0  0  0  0  0  0  0
    2.6032    4.9549    0.2726 H   0  0  0  0  0  0  0  0  0  0  0  0
    3.9084    4.3446    1.3324 H   0  0  0  0  0  0  0  0  0  0  0  0
    1.8502   -1.5188    0.9324 H   0  0  0  0  0  0  0  0  0  0  0  0
    5.5428    0.0696   -0.6906 H   0  0  0  0  0  0  0  0  0  0  0  0
    2.8015   -3.7497    0.9020 H   0  0  0  0  0  0  0  0  0  0  0  0
    6.4970   -2.1775   -0.6720 H   0  0  0  0  0  0  0  0  0  0  0  0
  1 26  1  0  0  0  0
  2 13  1  0  0  0  0
  2 15  1  0  0  0  0
  3 17  2  0  0  0  0
  4  8  1  0  0  0  0
  4 10  1  0  0  0  0
  4 11  1  0  0  0  0
  5  7  1  0  0  0  0
  5 13  1  0  0  0  0
  5 21  1  0  0  0  0
  6  9  1  0  0  0  0
  6 17  1  0  0  0  0
  6 36  1  0  0  0  0
  7 14  2  0  0  0  0
  8  9  1  0  0  0  0
  8 27  1  0  0  0  0
  8 28  1  0  0  0  0
  9 29  1  0  0  0  0
  9 30  1  0  0  0  0
 10 18  1  0  0  0  0
 10 31  1  0  0  0  0
 10 32  1  0  0  0  0
 11 19  1  0  0  0  0
 11 33  1  0  0  0  0
 11 34  1  0  0  0  0
 12 13  2  0  0  0  0
 12 14  1  0  0  0  0
 12 16  1  0  0  0  0
 14 20  1  0  0  0  0
 15 16  2  0  0  0  0
 15 17  1  0  0  0  0
 16 35  1  0  0  0  0
 18 37  1  0  0  0  0
 18 38  1  0  0  0  0
 18 39  1  0  0  0  0
 19 40  1  0  0  0  0
 19 41  1  0  0  0  0
 19 42  1  0  0  0  0
 20 22  2  0  0  0  0
 20 23  1  0  0  0  0
 21 43  1  0  0  0  0
 21 44  1  0  0  0  0
 21 45  1  0  0  0  0
 22 24  1  0  0  0  0
 22 46  1  0  0  0  0
 23 25  2  0  0  0  0
 23 47  1  0  0  0  0
 24 26  2  0  0  0  0
 24 48  1  0  0  0  0
 25 26  1  0  0  0  0
 25 49  1  0  0  0  0
M  END
> <PUBCHEM_COMPOUND_CID>
5309397

> <PUBCHEM_CONFORMER_RMSD>
0.8

> <PUBCHEM_CONFORMER_DIVERSEORDER>
2
18
58
30
34
38
25
51
69
31
83
63
15
72
39
12
23
87
1
68
47
59
8
20
36
61
32
67
54
40
37
66
65
50
77
13
71
60
26
33
35
56
52
28
14
88
19
17
80
49
29
43
10
62
7
6
53
74
9
78
57
75
22
5
45
4
82
81
16
70
3
24
79
27
85
41
11
46
84
21
76
42
90
73
44
86
64
55
48
89

> <PUBCHEM_MMFF94_PARTIAL_CHARGES>
29
1 -0.18
10 0.27
11 0.27
13 -0.11
14 0.23
15 -0.05
16 -0.15
17 0.71
2 -0.08
20 0.05
21 0.26
22 -0.15
23 -0.15
24 -0.15
25 -0.15
26 0.18
3 -0.57
35 0.15
36 0.37
4 -0.81
46 0.15
47 0.15
48 0.15
49 0.15
5 0.31
6 -0.73
7 -0.71
8 0.27
9 0.3

> <PUBCHEM_EFFECTIVE_ROTOR_COUNT>
8

> <PUBCHEM_PHARMACOPHORE_FEATURES>
7
1 3 acceptor
1 4 cation
1 6 donor
1 7 acceptor
5 2 12 13 15 16 rings
5 5 7 12 13 14 rings
6 20 22 23 24 25 26 rings

> <PUBCHEM_HEAVY_ATOM_COUNT>
26

> <PUBCHEM_ATOM_DEF_STEREO_COUNT>
0

> <PUBCHEM_ATOM_UDEF_STEREO_COUNT>
0

> <PUBCHEM_BOND_DEF_STEREO_COUNT>
0

> <PUBCHEM_BOND_UDEF_STEREO_COUNT>
0

> <PUBCHEM_ISOTOPIC_ATOM_COUNT>
0

> <PUBCHEM_COMPONENT_COUNT>
1

> <PUBCHEM_CACTVS_TAUTO_COUNT>
2

> <PUBCHEM_CONFORMER_ID>
005103D500000002

> <PUBCHEM_MMFF94_ENERGY>
55.8532

> <PUBCHEM_FEATURE_SELFOVERLAP>
35.76

> <PUBCHEM_SHAPE_FINGERPRINT>
10050765 1 18411132515948470389
10319688 140 18408605890072448884
10411042 1 18339075970251262470
10571361 74 18057031618469839103
10951579 204 16951664945372482343
11059845 2 17415293728217883033
11200772 71 11458723758670349041
114674 6 18187361060535073602
117089 54 18124040031300076422
11991303 11 17243853460231976397
12107183 9 18271254798973653625
12422481 6 17775008942980538623
12596602 18 17632581595357824827
12623949 98 18412550915759040550
13533116 47 18340488962561506041
13540713 4 18263341655852603452
1361 87 17604162475418292995
13690498 29 18042688303804224247
13782708 43 17894910689751656723
13785724 45 18128550262087043294
13911852 28 18410852149225484431
13955234 65 18270112543520377640
13989917 61 18265051521441585387
14347424 109 18343026588539135297
14565420 104 17699558444843332432
14863182 85 18117558642382589364
15475509 84 17988933223473395961
15483637 11 17903635533715339979
15728490 83 17977105664955110435
15927050 60 18053100907054033766
17492 89 18411131403292854100
17859628 70 18410570717235493188
19301676 85 17329135881049075359
19319366 153 18055349408016785540
19427546 62 17832701649303661196
19841028 212 18337665434631034195
20028762 73 18272930535734910039
20165401 70 18341608274479971831
20775438 99 18191572258431080546
21033650 10 16081923729403446229
21049683 271 18334301972689909948
21065198 48 18130231570717938545
21130935 74 18339644551297218627
21279426 13 18187634779301922965
21682296 61 18407760322887160183
22033318 11 17985576419274814849
221490 88 18336823100864152532
22950370 63 18266743480989027052
23522609 53 18123222114870892613
23559900 14 18266443348274144596
23569914 152 17615648914748677335
23845131 108 17476349977864813440
239999 70 17604142752506449960
24893989 43 17843967176495739798
3421961 26 18410853274311925312
345986 75 17917713491480913441
3663271 9 18059582455385613353
4073 2 18048598411312164907
439807 62 18042127570086023811
46194498 28 17385445444698027212
465052 167 18343302539860693358
5104073 3 18201997677498479808
513202 73 18334294233031670077
5309563 4 18338795594353805854
70251023 43 18408324363335052488
7970288 3 18266735775596957462
86090 222 17458349675685222371
8863177 126 18335703823443010619
88748 71 18336827485613869934
9555976 147 17489599939894595795

> <PUBCHEM_SHAPE_MULTIPOLES>
514.99
18
5.23
1.07
30.25
0.15
0.37
19.29
2.25
-9.42
0.09
2.26
0.18
-0.79

> <PUBCHEM_SHAPE_SELFOVERLAP>
1079.916

> <PUBCHEM_SHAPE_VOLUME>
296.7

> <PUBCHEM_COORDINATE_TYPE>
2
5
10

$$$$
