2402238
  -OEChem-01171809373D

 57 59  0     0  0  0  0  0  0999 V2000
   -3.1452   -1.1688   -0.7447 O   0  0  0  0  0  0  0  0  0  0  0  0
    0.2666    2.2327   -1.7955 O   0  0  0  0  0  0  0  0  0  0  0  0
    3.2705   -3.5817    0.7875 O   0  0  0  0  0  0  0  0  0  0  0  0
    2.8332   -4.9137   -1.0382 O   0  0  0  0  0  0  0  0  0  0  0  0
    1.1805    2.1017    0.3492 N   0  0  0  0  0  0  0  0  0  0  0  0
   -1.4684    1.2012    2.5377 N   0  0  0  0  0  0  0  0  0  0  0  0
    2.5409    2.4285    0.1176 C   0  0  0  0  0  0  0  0  0  0  0  0
    3.4422    1.4164   -0.1702 C   0  0  0  0  0  0  0  0  0  0  0  0
    2.9414    3.7530    0.1846 C   0  0  0  0  0  0  0  0  0  0  0  0
    4.7805    1.7377   -0.3973 C   0  0  0  0  0  0  0  0  0  0  0  0
    4.2796    4.0744   -0.0426 C   0  0  0  0  0  0  0  0  0  0  0  0
   -1.5130   -2.6423    0.1614 C   0  0  0  0  0  0  0  0  0  0  0  0
   -2.9075   -2.1266    0.2796 C   0  0  0  0  0  0  0  0  0  0  0  0
   -3.5961    1.1780   -0.4903 C   0  0  0  0  0  0  0  0  0  0  0  0
   -4.0112   -0.1495   -0.4475 C   0  0  0  0  0  0  0  0  0  0  0  0
    5.1992    3.0666   -0.3335 C   0  0  0  0  0  0  0  0  0  0  0  0
    3.0243   -0.0165   -0.2457 C   0  0  0  0  0  0  0  0  0  0  0  0
    1.9803    4.8550    0.4937 C   0  0  0  0  0  0  0  0  0  0  0  0
    0.1576    2.0247   -0.5897 C   0  0  0  0  0  0  0  0  0  0  0  0
   -2.2298    1.5318   -0.8509 C   0  0  0  0  0  0  0  0  0  0  0  0
   -0.7162   -2.7669    1.2993 C   0  0  0  0  0  0  0  0  0  0  0  0
   -1.0056   -2.9993   -1.0878 C   0  0  0  0  0  0  0  0  0  0  0  0
   -1.1830    1.6474    0.0037 C   0  0  0  0  0  0  0  0  0  0  0  0
   -4.4986    2.1962   -0.1831 C   0  0  0  0  0  0  0  0  0  0  0  0
   -5.3207   -0.4683   -0.1003 C   0  0  0  0  0  0  0  0  0  0  0  0
    1.0957   -3.6053   -0.0611 C   0  0  0  0  0  0  0  0  0  0  0  0
    0.5882   -3.2482    1.1881 C   0  0  0  0  0  0  0  0  0  0  0  0
    0.2989   -3.4808   -1.1991 C   0  0  0  0  0  0  0  0  0  0  0  0
   -5.8122    1.8821    0.1653 C   0  0  0  0  0  0  0  0  0  0  0  0
   -6.2234    0.5500    0.2067 C   0  0  0  0  0  0  0  0  0  0  0  0
    2.4552   -4.1090   -0.1764 C   0  0  0  0  0  0  0  0  0  0  0  0
   -1.3433    1.4012    1.4013 C   0  0  0  0  0  0  0  0  0  0  0  0
    4.6392   -4.0016    0.7780 C   0  0  0  0  0  0  0  0  0  0  0  0
    5.5102    0.9654   -0.6259 H   0  0  0  0  0  0  0  0  0  0  0  0
    4.6231    5.1045    0.0022 H   0  0  0  0  0  0  0  0  0  0  0  0
    0.9784    1.9041    1.3255 H   0  0  0  0  0  0  0  0  0  0  0  0
   -3.6112   -2.9595    0.1645 H   0  0  0  0  0  0  0  0  0  0  0  0
   -3.0637   -1.6788    1.2700 H   0  0  0  0  0  0  0  0  0  0  0  0
    6.2411    3.3169   -0.5108 H   0  0  0  0  0  0  0  0  0  0  0  0
    3.8793   -0.6835   -0.4022 H   0  0  0  0  0  0  0  0  0  0  0  0
    2.3315   -0.1699   -1.0795 H   0  0  0  0  0  0  0  0  0  0  0  0
    2.5414   -0.3266    0.6871 H   0  0  0  0  0  0  0  0  0  0  0  0
    1.4614    4.6605    1.4385 H   0  0  0  0  0  0  0  0  0  0  0  0
    1.2434    4.9548   -0.3099 H   0  0  0  0  0  0  0  0  0  0  0  0
    2.4869    5.8207    0.5980 H   0  0  0  0  0  0  0  0  0  0  0  0
   -2.1008    1.7125   -1.9160 H   0  0  0  0  0  0  0  0  0  0  0  0
   -1.0989   -2.4953    2.2796 H   0  0  0  0  0  0  0  0  0  0  0  0
   -1.6146   -2.9152   -1.9840 H   0  0  0  0  0  0  0  0  0  0  0  0
   -4.1949    3.2400   -0.2109 H   0  0  0  0  0  0  0  0  0  0  0  0
   -5.6576   -1.5008   -0.0725 H   0  0  0  0  0  0  0  0  0  0  0  0
    1.1813   -3.3455    2.0937 H   0  0  0  0  0  0  0  0  0  0  0  0
    0.6794   -3.7530   -2.1802 H   0  0  0  0  0  0  0  0  0  0  0  0
   -6.5152    2.6749    0.4040 H   0  0  0  0  0  0  0  0  0  0  0  0
   -7.2467    0.3058    0.4761 H   0  0  0  0  0  0  0  0  0  0  0  0
    4.7029   -5.0834    0.9276 H   0  0  0  0  0  0  0  0  0  0  0  0
    5.1150   -3.7124   -0.1637 H   0  0  0  0  0  0  0  0  0  0  0  0
    5.1546   -3.5004    1.6016 H   0  0  0  0  0  0  0  0  0  0  0  0
  1 13  1  0  0  0  0
  1 15  1  0  0  0  0
  2 19  2  0  0  0  0
  3 31  1  0  0  0  0
  3 33  1  0  0  0  0
  4 31  2  0  0  0  0
  5  7  1  0  0  0  0
  5 19  1  0  0  0  0
  5 36  1  0  0  0  0
  6 32  3  0  0  0  0
  7  8  2  0  0  0  0
  7  9  1  0  0  0  0
  8 10  1  0  0  0  0
  8 17  1  0  0  0  0
  9 11  2  0  0  0  0
  9 18  1  0  0  0  0
 10 16  2  0  0  0  0
 10 34  1  0  0  0  0
 11 16  1  0  0  0  0
 11 35  1  0  0  0  0
 12 13  1  0  0  0  0
 12 21  2  0  0  0  0
 12 22  1  0  0  0  0
 13 37  1  0  0  0  0
 13 38  1  0  0  0  0
 14 15  1  0  0  0  0
 14 20  1  0  0  0  0
 14 24  2  0  0  0  0
 15 25  2  0  0  0  0
 16 39  1  0  0  0  0
 17 40  1  0  0  0  0
 17 41  1  0  0  0  0
 17 42  1  0  0  0  0
 18 43  1  0  0  0  0
 18 44  1  0  0  0  0
 18 45  1  0  0  0  0
 19 23  1  0  0  0  0
 20 23  2  0  0  0  0
 20 46  1  0  0  0  0
 21 27  1  0  0  0  0
 21 47  1  0  0  0  0
 22 28  2  0  0  0  0
 22 48  1  0  0  0  0
 23 32  1  0  0  0  0
 24 29  1  0  0  0  0
 24 49  1  0  0  0  0
 25 30  1  0  0  0  0
 25 50  1  0  0  0  0
 26 27  2  0  0  0  0
 26 28  1  0  0  0  0
 26 31  1  0  0  0  0
 27 51  1  0  0  0  0
 28 52  1  0  0  0  0
 29 30  2  0  0  0  0
 29 53  1  0  0  0  0
 30 54  1  0  0  0  0
 33 55  1  0  0  0  0
 33 56  1  0  0  0  0
 33 57  1  0  0  0  0
M  END
> <PUBCHEM_COMPOUND_CID>
2402238

> <PUBCHEM_CONFORMER_RMSD>
1

> <PUBCHEM_CONFORMER_DIVERSEORDER>
1
181
138
59
140
21
201
255
24
41
104
58
250
157
151
266
109
226
190
222
49
254
108
237
248
229
260
263
119
154
249
191
56
223
117
264
89
265
125
167
171
241
213
105
43
177
243
186
225
228
202
196
252
212
234
101
267
251
175
224
26
235
8
161
50
172
244
269
134
180
233
238
246
262
192
36
30
133
144
253
123
114
214
189
221
182
55
176
230
174
2
100
124
165
74
153
88
127
116
270
170
9
169
149
271
137
256
91
141
209
146
51
195
5
162
220
204
148
70
216
145
143
268
11
219
106
163
147
208
64
188
227
173
259
239
69
23
160
217
53
118
184
218
54
75
99
198
81
48
78
158
112
4
164
61
57
136
247
211
155
19
207
197
115
194
45
113
95
168
111
193
52
159
67
187
129
28
68
139
77
84
245
83
98
33
183
25
178
240
132
44
121
215
120
32
79
94
85
156
90
258
203
142
257
131
242
42
12
63
34
60
126
27
38
20
261
166
87
82
97
66
150
122
185
22
205
14
71
65
15
76
39
47
210
232
231
135
29
179
200
107
96
110
40
13
80
18
46
31
37
103
130
73
7
3
93
35
152
199
6
72
128
86
236
92
102
17
62
10
16
206

> <PUBCHEM_MMFF94_PARTIAL_CHARGES>
46
1 -0.36
10 -0.15
11 -0.15
12 -0.14
13 0.42
14 0.03
15 0.08
16 -0.15
17 0.14
18 0.14
19 0.62
2 -0.57
20 -0.18
21 -0.15
22 -0.15
23 0.08
24 -0.15
25 -0.15
26 0.09
27 -0.15
28 -0.15
29 -0.15
3 -0.43
30 -0.15
31 0.63
32 0.49
33 0.28
34 0.15
35 0.15
36 0.37
39 0.15
4 -0.57
46 0.15
47 0.15
48 0.15
49 0.15
5 -0.55
50 0.15
51 0.15
52 0.15
53 0.15
54 0.15
6 -0.56
7 0.12
8 -0.14
9 -0.14

> <PUBCHEM_EFFECTIVE_ROTOR_COUNT>
9

> <PUBCHEM_PHARMACOPHORE_FEATURES>
8
1 1 acceptor
1 2 acceptor
1 4 acceptor
1 5 donor
1 6 acceptor
6 12 21 22 26 27 28 rings
6 14 15 24 25 29 30 rings
6 7 8 9 10 11 16 rings

> <PUBCHEM_HEAVY_ATOM_COUNT>
33

> <PUBCHEM_ATOM_DEF_STEREO_COUNT>
0

> <PUBCHEM_ATOM_UDEF_STEREO_COUNT>
0

> <PUBCHEM_BOND_DEF_STEREO_COUNT>
1

> <PUBCHEM_BOND_UDEF_STEREO_COUNT>
0

> <PUBCHEM_ISOTOPIC_ATOM_COUNT>
0

> <PUBCHEM_COMPONENT_COUNT>
1

> <PUBCHEM_CACTVS_TAUTO_COUNT>
2

> <PUBCHEM_CONFORMER_ID>
0024A7BE00000001

> <PUBCHEM_MMFF94_ENERGY>
125.7183

> <PUBCHEM_FEATURE_SELFOVERLAP>
40.598

> <PUBCHEM_SHAPE_FINGERPRINT>
10032420 55 17099185195735919147
10050765 1 18338516336650858277
11513181 2 18272368728147694854
12788726 201 17544460307798859763
138480 1 18194681458323053710
14028597 1 17702407164038682155
14394314 77 18051417262720538464
14415361 192 17098329792937709882
14659021 117 17261298719132747608
14790565 3 18266461103489266876
14937079 2 18121781622190280445
15274700 242 17243555771452912960
15320467 1 18338796702460279230
15400415 2 18267020746434616341
15439362 3 18335979779898936125
15927050 60 18341331206038953791
15961568 22 18052818040371340558
16067689 302 18411419545304254079
16112460 7 18341907315355347824
16719943 64 18193273228972974082
17627616 140 18408611344744523518
20771845 165 17969203570135077981
21133410 171 16470310037706979074
21344244 246 18338221744427411687
21796203 349 17761532138711808170
23516275 137 18261127270205266456
3298306 158 18410858784617575895
4073 2 18048596216563667600
463206 1 18048042878197596978
5080951 261 17465910042181954240
5265222 85 18120948461989065076
5309563 4 17977944584105504744
653340 110 17763175143780053848

> <PUBCHEM_SHAPE_MULTIPOLES>
645.69
11.17
7.86
1.22
6
6.36
0.33
-8.2
-0.36
-10.62
0.08
0.23
0.26
-0.43

> <PUBCHEM_SHAPE_SELFOVERLAP>
1389.632

> <PUBCHEM_SHAPE_VOLUME>
354.3

> <PUBCHEM_COORDINATE_TYPE>
2
5
10

$$$$
