6619798
  -OEChem-01171809483D

 45 49  0     0  0  0  0  0  0999 V2000
    1.0574    0.6247   -0.6557 O   0  0  0  0  0  0  0  0  0  0  0  0
   -5.4819    3.1824   -0.1893 O   0  0  0  0  0  0  0  0  0  0  0  0
    0.0654   -1.3567   -0.1899 N   0  0  0  0  0  0  0  0  0  0  0  0
    5.1287    0.8347   -1.8562 N   0  0  0  0  0  0  0  0  0  0  0  0
   -1.7177    0.3066   -0.2239 N   0  0  0  0  0  0  0  0  0  0  0  0
    0.1943   -2.6917    0.0149 N   0  0  0  0  0  0  0  0  0  0  0  0
   -1.4095   -4.3966    0.5136 N   0  0  0  0  0  0  0  0  0  0  0  0
    3.6311   -0.3756   -0.7953 C   0  0  0  0  0  0  0  0  0  0  0  0
    2.4945   -1.3160   -0.5265 C   0  0  0  0  0  0  0  0  0  0  0  0
    4.3925    0.2992    0.1805 C   0  0  0  0  0  0  0  0  0  0  0  0
   -1.2486   -0.9452   -0.0803 C   0  0  0  0  0  0  0  0  0  0  0  0
   -1.9927   -2.0747    0.2071 C   0  0  0  0  0  0  0  0  0  0  0  0
    5.3353    1.0601   -0.5140 C   0  0  0  0  0  0  0  0  0  0  0  0
    1.1901   -0.5768   -0.4730 C   0  0  0  0  0  0  0  0  0  0  0  0
   -3.9120   -0.6363    0.2282 C   0  0  0  0  0  0  0  0  0  0  0  0
    4.0905   -0.0400   -2.0338 C   0  0  0  0  0  0  0  0  0  0  0  0
   -3.3729   -1.9242    0.3682 C   0  0  0  0  0  0  0  0  0  0  0  0
   -3.0433    0.4411   -0.0668 C   0  0  0  0  0  0  0  0  0  0  0  0
   -1.0492   -3.1128    0.2521 C   0  0  0  0  0  0  0  0  0  0  0  0
    4.3854    0.3484    1.5886 C   0  0  0  0  0  0  0  0  0  0  0  0
    6.2752    1.8711    0.1321 C   0  0  0  0  0  0  0  0  0  0  0  0
   -5.2909   -0.4150    0.3779 C   0  0  0  0  0  0  0  0  0  0  0  0
   -3.6036    1.7072   -0.1995 C   0  0  0  0  0  0  0  0  0  0  0  0
    5.3197    1.1552    2.2484 C   0  0  0  0  0  0  0  0  0  0  0  0
    6.2491    1.9041    1.5292 C   0  0  0  0  0  0  0  0  0  0  0  0
   -4.9754    1.9266   -0.0502 C   0  0  0  0  0  0  0  0  0  0  0  0
   -5.8207    0.8640    0.2388 C   0  0  0  0  0  0  0  0  0  0  0  0
   -6.8908    3.3360   -0.0253 C   0  0  0  0  0  0  0  0  0  0  0  0
    2.4510   -2.0673   -1.3244 H   0  0  0  0  0  0  0  0  0  0  0  0
    2.6662   -1.8322    0.4251 H   0  0  0  0  0  0  0  0  0  0  0  0
    3.7834   -0.3349   -3.0275 H   0  0  0  0  0  0  0  0  0  0  0  0
   -4.0038   -2.7790    0.5948 H   0  0  0  0  0  0  0  0  0  0  0  0
    5.6660    1.2547   -2.6021 H   0  0  0  0  0  0  0  0  0  0  0  0
    3.6670   -0.2277    2.1648 H   0  0  0  0  0  0  0  0  0  0  0  0
    6.9992    2.4544   -0.4269 H   0  0  0  0  0  0  0  0  0  0  0  0
   -5.9622   -1.2408    0.6047 H   0  0  0  0  0  0  0  0  0  0  0  0
   -2.9598    2.5564   -0.4265 H   0  0  0  0  0  0  0  0  0  0  0  0
    5.3186    1.1975    3.3343 H   0  0  0  0  0  0  0  0  0  0  0  0
    6.9657    2.5241    2.0619 H   0  0  0  0  0  0  0  0  0  0  0  0
   -6.8931    0.9580    0.3682 H   0  0  0  0  0  0  0  0  0  0  0  0
   -0.7271   -5.1476    0.5463 H   0  0  0  0  0  0  0  0  0  0  0  0
   -2.3692   -4.6779    0.6896 H   0  0  0  0  0  0  0  0  0  0  0  0
   -7.2085    3.0759    0.9902 H   0  0  0  0  0  0  0  0  0  0  0  0
   -7.4476    2.7821   -0.7887 H   0  0  0  0  0  0  0  0  0  0  0  0
   -7.1194    4.3970   -0.1698 H   0  0  0  0  0  0  0  0  0  0  0  0
  1 14  2  0  0  0  0
  2 26  1  0  0  0  0
  2 28  1  0  0  0  0
  3  6  1  0  0  0  0
  3 11  1  0  0  0  0
  3 14  1  0  0  0  0
  4 13  1  0  0  0  0
  4 16  1  0  0  0  0
  4 33  1  0  0  0  0
  5 11  1  0  0  0  0
  5 18  2  0  0  0  0
  6 19  2  0  0  0  0
  7 19  1  0  0  0  0
  7 41  1  0  0  0  0
  7 42  1  0  0  0  0
  8  9  1  0  0  0  0
  8 10  1  0  0  0  0
  8 16  2  0  0  0  0
  9 14  1  0  0  0  0
  9 29  1  0  0  0  0
  9 30  1  0  0  0  0
 10 13  1  0  0  0  0
 10 20  2  0  0  0  0
 11 12  2  0  0  0  0
 12 17  1  0  0  0  0
 12 19  1  0  0  0  0
 13 21  2  0  0  0  0
 15 17  2  0  0  0  0
 15 18  1  0  0  0  0
 15 22  1  0  0  0  0
 16 31  1  0  0  0  0
 17 32  1  0  0  0  0
 18 23  1  0  0  0  0
 20 24  1  0  0  0  0
 20 34  1  0  0  0  0
 21 25  1  0  0  0  0
 21 35  1  0  0  0  0
 22 27  2  0  0  0  0
 22 36  1  0  0  0  0
 23 26  2  0  0  0  0
 23 37  1  0  0  0  0
 24 25  2  0  0  0  0
 24 38  1  0  0  0  0
 25 39  1  0  0  0  0
 26 27  1  0  0  0  0
 27 40  1  0  0  0  0
 28 43  1  0  0  0  0
 28 44  1  0  0  0  0
 28 45  1  0  0  0  0
M  END
> <PUBCHEM_COMPOUND_CID>
6619798

> <PUBCHEM_CONFORMER_RMSD>
0.8

> <PUBCHEM_CONFORMER_DIVERSEORDER>
1
79
23
49
16
5
105
95
32
39
82
90
112
36
9
48
51
60
97
20
28
57
64
103
2
92
85
77
10
56
101
27
108
111
109
52
7
89
61
71
99
58
44
11
66
19
54
8
107
34
17
47
100
40
35
98
26
59
31
65
110
96
43
80
37
33
25
102
24
62
12
84
55
18
83
72
87
113
6
14
53
73
74
67
63
45
75
4
15
91
104
86
68
3
88
13
76
30
21
50
106
78
70
46
94
22
29
42
38
93
41
69
81

> <PUBCHEM_MMFF94_PARTIAL_CHARGES>
37
1 -0.57
11 0.11
13 -0.15
14 0.52
16 -0.3
17 -0.15
18 0.31
19 0.37
2 -0.36
20 -0.15
21 -0.15
22 -0.15
23 -0.15
24 -0.15
25 -0.15
26 0.08
27 -0.15
28 0.28
3 0.56
31 0.15
32 0.15
33 0.27
34 0.15
35 0.15
36 0.15
37 0.15
38 0.15
39 0.15
4 0.03
40 0.15
41 0.4
42 0.4
5 -0.57
6 -0.71
7 -0.88
8 -0.18
9 0.24

> <PUBCHEM_EFFECTIVE_ROTOR_COUNT>
4

> <PUBCHEM_PHARMACOPHORE_FEATURES>
12
1 1 acceptor
1 2 acceptor
1 4 cation
1 4 donor
1 5 acceptor
1 7 donor
3 6 7 19 cation
5 3 6 11 12 19 rings
5 4 8 10 13 16 rings
6 10 13 20 21 24 25 rings
6 15 18 22 23 26 27 rings
6 5 11 12 15 17 18 rings

> <PUBCHEM_HEAVY_ATOM_COUNT>
28

> <PUBCHEM_ATOM_DEF_STEREO_COUNT>
0

> <PUBCHEM_ATOM_UDEF_STEREO_COUNT>
0

> <PUBCHEM_BOND_DEF_STEREO_COUNT>
0

> <PUBCHEM_BOND_UDEF_STEREO_COUNT>
0

> <PUBCHEM_ISOTOPIC_ATOM_COUNT>
0

> <PUBCHEM_COMPONENT_COUNT>
1

> <PUBCHEM_CACTVS_TAUTO_COUNT>
2

> <PUBCHEM_CONFORMER_ID>
0065029600000001

> <PUBCHEM_MMFF94_ENERGY>
73.8501

> <PUBCHEM_FEATURE_SELFOVERLAP>
61.133

> <PUBCHEM_SHAPE_FINGERPRINT>
10 15 18187932814812800697
10319926 262 18339635742240166954
10411042 1 17689160436647475883
10692045 39 18263635178845309498
10981352 41 11891348555400824249
12107183 9 18189603970199317178
12236239 1 17531244024005207838
12390115 104 18341065038151099267
12403259 415 18272660047062248862
12422481 6 17168700817442295959
12596602 18 16950285151782647552
12616971 3 16733537343006013942
12623949 98 11675174635257252810
12778500 126 18336255770602797960
13402501 40 18131066069604350368
13540713 4 18266761124705058447
14251764 30 8718824301463836313
14739800 52 18339630175218363386
14790565 3 18335710403528288565
15238133 3 18334013917590815956
15513586 35 17098074998234831685
16079462 125 17988924500520514416
19246450 95 16953342765324575832
19304671 126 17773321128160407085
20554085 129 18340193108313947953
20715895 44 18412543198051397336
21033648 29 18410859853985447593
21424621 283 18411981338992827713
21585481 104 15697727978643396977
21859007 373 17751346288619294806
23522609 53 17459201832078836772
23559900 14 18341063964731470958
23929065 36 18196922491065626387
2748736 6 18336257964572047589
2838139 119 18200868483472526887
2916195 48 18272086106355919985
3388396 114 12894217608332418242
341906 21 18410012178334570294
3459 39 18335405864234495140
34797466 226 17275389806677421117
3680242 22 18187366493637262000
376196 1 18342178808722983039
3918712 181 18341041922469418361
4371632 12 14474967904837588354
44249763 50 17702932759817575430
465052 167 11025803085135958784
495365 180 17775283851121389686
508706 21 18198616820855318786
5104073 3 18114747036393919483
5219985 13 18410573951266778623
59682541 52 16056598703497140068
636775 72 18268991063214244104
6371009 1 18261106413833468645
653340 110 18191866725894916732
6697151 62 16916243065987803630
7808743 9 18409165549500952146
7970288 3 9583226228576079469
9658208 31 18411708681447345462
9849439 229 18337386054869590843
9981440 41 18261680298837195491

> <PUBCHEM_SHAPE_MULTIPOLES>
539.58
17.64
3.63
1.33
2.7
1.63
-0.08
-18.35
-2.31
-5.54
-0.6
3.16
-0.37
1.65

> <PUBCHEM_SHAPE_SELFOVERLAP>
1229.141

> <PUBCHEM_SHAPE_VOLUME>
282.1

> <PUBCHEM_COORDINATE_TYPE>
2
5
10

$$$$
