5729167
  -OEChem-01171809423D

 62 66  0     0  0  0  0  0  0999 V2000
    2.6670   -3.0418    0.2203 O   0  0  0  0  0  0  0  0  0  0  0  0
   -2.5683    4.2384    0.9443 O   0  0  0  0  0  0  0  0  0  0  0  0
   -5.5743   -1.2699    0.1269 O   0  0  0  0  0  0  0  0  0  0  0  0
   -2.9610    1.7843   -0.4431 N   0  0  0  0  0  0  0  0  0  0  0  0
    3.3315   -0.7651    0.0041 C   0  0  0  0  0  0  0  0  0  0  0  0
    5.7947   -0.2142   -0.0238 C   0  0  0  0  0  0  0  0  0  0  0  0
    4.1598    1.3766    1.0522 C   0  0  0  0  0  0  0  0  0  0  0  0
    4.1911    1.1055   -1.4556 C   0  0  0  0  0  0  0  0  0  0  0  0
    4.7576   -1.3455    0.0847 C   0  0  0  0  0  0  0  0  0  0  0  0
    3.1291    0.2390    1.1563 C   0  0  0  0  0  0  0  0  0  0  0  0
    3.1605   -0.0316   -1.3406 C   0  0  0  0  0  0  0  0  0  0  0  0
    5.5772    0.7831    1.1274 C   0  0  0  0  0  0  0  0  0  0  0  0
    5.6089    0.5141   -1.3663 C   0  0  0  0  0  0  0  0  0  0  0  0
    3.9829    2.0958   -0.2966 C   0  0  0  0  0  0  0  0  0  0  0  0
    2.3185   -1.8698    0.0980 C   0  0  0  0  0  0  0  0  0  0  0  0
    0.8841   -1.4658    0.0645 C   0  0  0  0  0  0  0  0  0  0  0  0
   -0.0813   -2.3912    0.1587 C   0  0  0  0  0  0  0  0  0  0  0  0
   -1.5241   -2.0936    0.1459 C   0  0  0  0  0  0  0  0  0  0  0  0
   -1.9632   -0.8862   -0.3729 C   0  0  0  0  0  0  0  0  0  0  0  0
   -2.4137   -3.0257    0.6549 C   0  0  0  0  0  0  0  0  0  0  0  0
   -3.3291   -0.6033   -0.3830 C   0  0  0  0  0  0  0  0  0  0  0  0
   -3.8016    0.6980   -0.9421 C   0  0  0  0  0  0  0  0  0  0  0  0
   -3.7796   -2.7428    0.6448 C   0  0  0  0  0  0  0  0  0  0  0  0
   -4.2373   -1.5317    0.1258 C   0  0  0  0  0  0  0  0  0  0  0  0
   -3.3702    3.0702   -1.0249 C   0  0  0  0  0  0  0  0  0  0  0  0
   -3.0160    1.8551    1.0236 C   0  0  0  0  0  0  0  0  0  0  0  0
   -2.4867    4.1890   -0.4807 C   0  0  0  0  0  0  0  0  0  0  0  0
   -2.1418    3.0032    1.5202 C   0  0  0  0  0  0  0  0  0  0  0  0
   -6.3147   -1.6738   -1.0231 C   0  0  0  0  0  0  0  0  0  0  0  0
    6.8061   -0.6317    0.0341 H   0  0  0  0  0  0  0  0  0  0  0  0
    4.0124    2.0870    1.8733 H   0  0  0  0  0  0  0  0  0  0  0  0
    4.0662    1.6236   -2.4129 H   0  0  0  0  0  0  0  0  0  0  0  0
    4.9260   -2.0740   -0.7196 H   0  0  0  0  0  0  0  0  0  0  0  0
    4.9026   -1.8860    1.0296 H   0  0  0  0  0  0  0  0  0  0  0  0
    3.2314   -0.2692    2.1245 H   0  0  0  0  0  0  0  0  0  0  0  0
    2.1266    0.6817    1.1502 H   0  0  0  0  0  0  0  0  0  0  0  0
    3.2864   -0.7336   -2.1757 H   0  0  0  0  0  0  0  0  0  0  0  0
    2.1573    0.3963   -1.4517 H   0  0  0  0  0  0  0  0  0  0  0  0
    6.3224    1.5862    1.0725 H   0  0  0  0  0  0  0  0  0  0  0  0
    5.7218    0.2798    2.0913 H   0  0  0  0  0  0  0  0  0  0  0  0
    5.7767   -0.1826   -2.1967 H   0  0  0  0  0  0  0  0  0  0  0  0
    6.3543    1.3128   -1.4651 H   0  0  0  0  0  0  0  0  0  0  0  0
    4.7001    2.9219   -0.3769 H   0  0  0  0  0  0  0  0  0  0  0  0
    2.9806    2.5373   -0.3568 H   0  0  0  0  0  0  0  0  0  0  0  0
    0.6627   -0.4106   -0.0161 H   0  0  0  0  0  0  0  0  0  0  0  0
    0.1764   -3.4424    0.2645 H   0  0  0  0  0  0  0  0  0  0  0  0
   -1.2762   -0.1718   -0.8160 H   0  0  0  0  0  0  0  0  0  0  0  0
   -2.0727   -3.9728    1.0646 H   0  0  0  0  0  0  0  0  0  0  0  0
   -4.8516    0.8956   -0.6953 H   0  0  0  0  0  0  0  0  0  0  0  0
   -3.7340    0.6378   -2.0359 H   0  0  0  0  0  0  0  0  0  0  0  0
   -4.4813   -3.4700    1.0445 H   0  0  0  0  0  0  0  0  0  0  0  0
   -3.2751    3.0410   -2.1163 H   0  0  0  0  0  0  0  0  0  0  0  0
   -4.4191    3.2831   -0.7801 H   0  0  0  0  0  0  0  0  0  0  0  0
   -4.0500    2.0225    1.3543 H   0  0  0  0  0  0  0  0  0  0  0  0
   -2.6537    0.9460    1.5131 H   0  0  0  0  0  0  0  0  0  0  0  0
   -2.8278    5.1548   -0.8672 H   0  0  0  0  0  0  0  0  0  0  0  0
   -1.4401    4.0616   -0.7832 H   0  0  0  0  0  0  0  0  0  0  0  0
   -1.0830    2.8358    1.2870 H   0  0  0  0  0  0  0  0  0  0  0  0
   -2.2307    3.0966    2.6073 H   0  0  0  0  0  0  0  0  0  0  0  0
   -5.9134   -1.2102   -1.9298 H   0  0  0  0  0  0  0  0  0  0  0  0
   -7.3510   -1.3494   -0.8944 H   0  0  0  0  0  0  0  0  0  0  0  0
   -6.2992   -2.7638   -1.1219 H   0  0  0  0  0  0  0  0  0  0  0  0
  1 15  2  0  0  0  0
  2 27  1  0  0  0  0
  2 28  1  0  0  0  0
  3 24  1  0  0  0  0
  3 29  1  0  0  0  0
  4 22  1  0  0  0  0
  4 25  1  0  0  0  0
  4 26  1  0  0  0  0
  5  9  1  0  0  0  0
  5 10  1  0  0  0  0
  5 11  1  0  0  0  0
  5 15  1  0  0  0  0
  6  9  1  0  0  0  0
  6 12  1  0  0  0  0
  6 13  1  0  0  0  0
  6 30  1  0  0  0  0
  7 10  1  0  0  0  0
  7 12  1  0  0  0  0
  7 14  1  0  0  0  0
  7 31  1  0  0  0  0
  8 11  1  0  0  0  0
  8 13  1  0  0  0  0
  8 14  1  0  0  0  0
  8 32  1  0  0  0  0
  9 33  1  0  0  0  0
  9 34  1  0  0  0  0
 10 35  1  0  0  0  0
 10 36  1  0  0  0  0
 11 37  1  0  0  0  0
 11 38  1  0  0  0  0
 12 39  1  0  0  0  0
 12 40  1  0  0  0  0
 13 41  1  0  0  0  0
 13 42  1  0  0  0  0
 14 43  1  0  0  0  0
 14 44  1  0  0  0  0
 15 16  1  0  0  0  0
 16 17  2  0  0  0  0
 16 45  1  0  0  0  0
 17 18  1  0  0  0  0
 17 46  1  0  0  0  0
 18 19  2  0  0  0  0
 18 20  1  0  0  0  0
 19 21  1  0  0  0  0
 19 47  1  0  0  0  0
 20 23  2  0  0  0  0
 20 48  1  0  0  0  0
 21 22  1  0  0  0  0
 21 24  2  0  0  0  0
 22 49  1  0  0  0  0
 22 50  1  0  0  0  0
 23 24  1  0  0  0  0
 23 51  1  0  0  0  0
 25 27  1  0  0  0  0
 25 52  1  0  0  0  0
 25 53  1  0  0  0  0
 26 28  1  0  0  0  0
 26 54  1  0  0  0  0
 26 55  1  0  0  0  0
 27 56  1  0  0  0  0
 27 57  1  0  0  0  0
 28 58  1  0  0  0  0
 28 59  1  0  0  0  0
 29 60  1  0  0  0  0
 29 61  1  0  0  0  0
 29 62  1  0  0  0  0
M  END
> <PUBCHEM_COMPOUND_CID>
5729167

> <PUBCHEM_CONFORMER_RMSD>
1

> <PUBCHEM_CONFORMER_DIVERSEORDER>
1
4
24
2
15
12
8
29
30
31
27
7
25
3
19
22
23
21
17
6
9
18
26
28
10
20
13
14
5
11
16

> <PUBCHEM_MMFF94_PARTIAL_CHARGES>
25
1 -0.57
15 0.49
16 -0.14
17 -0.18
18 0.03
19 -0.15
2 -0.56
20 -0.15
21 -0.14
22 0.41
23 -0.15
24 0.08
25 0.27
26 0.27
27 0.28
28 0.28
29 0.28
3 -0.36
4 -0.81
45 0.15
46 0.15
47 0.15
48 0.15
5 0.06
51 0.15

> <PUBCHEM_EFFECTIVE_ROTOR_COUNT>
8.4

> <PUBCHEM_PHARMACOPHORE_FEATURES>
10
1 1 acceptor
1 2 acceptor
1 3 acceptor
1 4 cation
6 18 19 20 21 23 24 rings
6 2 4 25 26 27 28 rings
6 5 6 7 9 10 12 rings
6 5 6 8 9 11 13 rings
6 5 7 8 10 11 14 rings
6 6 7 8 12 13 14 rings

> <PUBCHEM_HEAVY_ATOM_COUNT>
29

> <PUBCHEM_ATOM_DEF_STEREO_COUNT>
0

> <PUBCHEM_ATOM_UDEF_STEREO_COUNT>
0

> <PUBCHEM_BOND_DEF_STEREO_COUNT>
1

> <PUBCHEM_BOND_UDEF_STEREO_COUNT>
0

> <PUBCHEM_ISOTOPIC_ATOM_COUNT>
0

> <PUBCHEM_COMPONENT_COUNT>
1

> <PUBCHEM_CACTVS_TAUTO_COUNT>
1

> <PUBCHEM_CONFORMER_ID>
00576B8F00000001

> <PUBCHEM_MMFF94_ENERGY>
94.5398

> <PUBCHEM_FEATURE_SELFOVERLAP>
63.294

> <PUBCHEM_SHAPE_FINGERPRINT>
100830 39 18409446990813970664
10670039 82 18410583889947585180
10937287 8 17977948982294908457
11059048 146 18197227953149601512
11513181 2 18129377103299993606
12107183 9 17827909629847979482
12596602 18 16588303959545895650
12788726 201 18334849520462963235
12925494 130 18265327301227812325
12978246 48 18335145237018762584
13402501 40 18272083945966297409
13560911 43 17968935413345412528
13617811 41 18335127744212597373
14251764 38 18339082583941430446
14363568 33 17543646673805849097
15001296 14 18116152362288330812
16992787 43 18338227152197639989
17844677 252 18338240371115277710
19611394 137 17825961587507402915
21033650 10 18190205471705321006
21049683 271 18190461744262071831
21315764 268 18342169003654855496
221357 26 18201721777568283530
22393880 68 18270405988612470878
283562 15 18336542725794780019
4144715 1 18335427807792831106
4197921 191 18187367644999506182
46194498 28 17703799154117376020
469060 322 18263943157948535633
5048184 11 18265901246049630488
508706 21 18412265017103359112
5895379 119 18335713741055552924
6371009 1 18335691767585985334

> <PUBCHEM_SHAPE_MULTIPOLES>
574.22
14.44
4.63
1.26
5.31
3.85
-0.03
-0.65
-1.96
-6.22
0.81
0.47
0.66
-0.19

> <PUBCHEM_SHAPE_SELFOVERLAP>
1245.498

> <PUBCHEM_SHAPE_VOLUME>
307.8

> <PUBCHEM_COORDINATE_TYPE>
2
5
10

$$$$
