1088432
  -OEChem-01171809453D

 32 34  0     0  0  0  0  0  0999 V2000
    0.1812   -2.7692    0.0396 O   0  0  0  0  0  0  0  0  0  0  0  0
   -1.1197   -0.9262    0.0186 N   0  0  0  0  0  0  0  0  0  0  0  0
   -3.3568   -0.7385   -0.0196 N   0  0  0  0  0  0  0  0  0  0  0  0
   -2.4178   -2.9206   -0.0250 N   0  0  0  0  0  0  0  0  0  0  0  0
   -1.4036    0.4350    0.0088 C   0  0  0  0  0  0  0  0  0  0  0  0
   -2.7971    0.5101   -0.0094 C   0  0  0  0  0  0  0  0  0  0  0  0
   -2.3403   -1.5675   -0.0119 C   0  0  0  0  0  0  0  0  0  0  0  0
    0.1449   -1.5431    0.0182 C   0  0  0  0  0  0  0  0  0  0  0  0
    1.4317   -0.8210    0.0071 C   0  0  0  0  0  0  0  0  0  0  0  0
   -0.6046    1.5878    0.0259 C   0  0  0  0  0  0  0  0  0  0  0  0
   -3.4300    1.7659   -0.0169 C   0  0  0  0  0  0  0  0  0  0  0  0
    2.0404   -0.4726    1.2100 C   0  0  0  0  0  0  0  0  0  0  0  0
    2.0318   -0.4929   -1.2058 C   0  0  0  0  0  0  0  0  0  0  0  0
   -1.2506    2.8292    0.0177 C   0  0  0  0  0  0  0  0  0  0  0  0
    3.8617    0.5393   -0.0131 C   0  0  0  0  0  0  0  0  0  0  0  0
   -2.6405    2.9191   -0.0040 C   0  0  0  0  0  0  0  0  0  0  0  0
    3.2575    0.2086    1.1998 C   0  0  0  0  0  0  0  0  0  0  0  0
    3.2488    0.1885   -1.2159 C   0  0  0  0  0  0  0  0  0  0  0  0
    5.1629    1.2681   -0.0241 C   0  0  0  0  0  0  0  0  0  0  0  0
    0.4750    1.5671    0.0452 H   0  0  0  0  0  0  0  0  0  0  0  0
   -4.5128    1.8432   -0.0325 H   0  0  0  0  0  0  0  0  0  0  0  0
    1.5770   -0.7251    2.1600 H   0  0  0  0  0  0  0  0  0  0  0  0
    1.5614   -0.7613   -2.1480 H   0  0  0  0  0  0  0  0  0  0  0  0
   -0.6557    3.7391    0.0293 H   0  0  0  0  0  0  0  0  0  0  0  0
   -3.1172    3.8956   -0.0095 H   0  0  0  0  0  0  0  0  0  0  0  0
    3.7241    0.4784    2.1436 H   0  0  0  0  0  0  0  0  0  0  0  0
    3.7085    0.4424   -2.1674 H   0  0  0  0  0  0  0  0  0  0  0  0
   -3.3153   -3.3945   -0.0450 H   0  0  0  0  0  0  0  0  0  0  0  0
   -1.6044   -3.5267   -0.0165 H   0  0  0  0  0  0  0  0  0  0  0  0
    4.9880    2.3485   -0.0355 H   0  0  0  0  0  0  0  0  0  0  0  0
    5.7630    1.0189    0.8577 H   0  0  0  0  0  0  0  0  0  0  0  0
    5.7588    0.9995   -0.9030 H   0  0  0  0  0  0  0  0  0  0  0  0
  1  8  2  0  0  0  0
  2  5  1  0  0  0  0
  2  7  1  0  0  0  0
  2  8  1  0  0  0  0
  3  6  1  0  0  0  0
  3  7  2  0  0  0  0
  4  7  1  0  0  0  0
  4 28  1  0  0  0  0
  4 29  1  0  0  0  0
  5  6  1  0  0  0  0
  5 10  2  0  0  0  0
  6 11  2  0  0  0  0
  8  9  1  0  0  0  0
  9 12  2  0  0  0  0
  9 13  1  0  0  0  0
 10 14  1  0  0  0  0
 10 20  1  0  0  0  0
 11 16  1  0  0  0  0
 11 21  1  0  0  0  0
 12 17  1  0  0  0  0
 12 22  1  0  0  0  0
 13 18  2  0  0  0  0
 13 23  1  0  0  0  0
 14 16  2  0  0  0  0
 14 24  1  0  0  0  0
 15 17  2  0  0  0  0
 15 18  1  0  0  0  0
 15 19  1  0  0  0  0
 16 25  1  0  0  0  0
 17 26  1  0  0  0  0
 18 27  1  0  0  0  0
 19 30  1  0  0  0  0
 19 31  1  0  0  0  0
 19 32  1  0  0  0  0
M  END
> <PUBCHEM_COMPOUND_CID>
1088432

> <PUBCHEM_CONFORMER_RMSD>
0.6

> <PUBCHEM_CONFORMER_DIVERSEORDER>
2
5
1
6
3
4

> <PUBCHEM_MMFF94_PARTIAL_CHARGES>
29
1 -0.57
10 -0.15
11 -0.15
12 -0.15
13 -0.15
14 -0.15
15 -0.14
16 -0.15
17 -0.15
18 -0.15
19 0.14
2 0.29
20 0.15
21 0.15
22 0.15
23 0.15
24 0.15
25 0.15
26 0.15
27 0.15
28 0.4
29 0.4
3 -0.57
4 -0.88
5 -0.15
6 0.23
7 0.27
8 0.49
9 0.09

> <PUBCHEM_EFFECTIVE_ROTOR_COUNT>
2

> <PUBCHEM_PHARMACOPHORE_FEATURES>
5
1 1 acceptor
1 4 donor
5 2 3 5 6 7 rings
6 5 6 10 11 14 16 rings
6 9 12 13 15 17 18 rings

> <PUBCHEM_HEAVY_ATOM_COUNT>
19

> <PUBCHEM_ATOM_DEF_STEREO_COUNT>
0

> <PUBCHEM_ATOM_UDEF_STEREO_COUNT>
0

> <PUBCHEM_BOND_DEF_STEREO_COUNT>
0

> <PUBCHEM_BOND_UDEF_STEREO_COUNT>
0

> <PUBCHEM_ISOTOPIC_ATOM_COUNT>
0

> <PUBCHEM_COMPONENT_COUNT>
1

> <PUBCHEM_CACTVS_TAUTO_COUNT>
2

> <PUBCHEM_CONFORMER_ID>
00109BB000000002

> <PUBCHEM_MMFF94_ENERGY>
55.1816

> <PUBCHEM_FEATURE_SELFOVERLAP>
25.476

> <PUBCHEM_SHAPE_FINGERPRINT>
10319926 262 18269536357052152864
10411042 1 17906172115508935627
10493431 412 18341342080801247169
10498660 4 18410856521006683292
10646746 165 18411982434420562612
10759866 29 18261392213847312928
11640471 11 17822298950590931340
11725454 13 16841871055238139794
12107183 9 17974557010809182018
12173636 292 18266458711572310917
12236239 1 17676764357612703314
12390115 104 18128553590887417465
12403814 3 17458061543583094205
12553582 1 18265898141210333635
12788726 201 17246137463494045234
13140716 1 18193846066257479323
13583140 156 16877664539420376941
13764800 53 18337117769594988937
13965767 371 17679863709024614820
14739800 52 18121203532546174256
14787075 74 17461448206309707211
14790565 3 18339375088985773913
16945 1 18410855447712875251
17357779 13 17986656263914518975
18186145 218 17988094296274552750
20510252 161 18341899592734714737
20671657 1 17976543801759633802
20715895 44 17392459019093110909
21524375 3 18118408336635524331
23114952 82 17773890696467923478
23227448 37 18411982485359296925
2334 1 18050285070564943473
23402539 116 18269268122721364302
23557571 272 18272377507054740878
23559900 14 18272092644071682758
2748010 2 18124020493634978721
350125 39 17977954483846944419
3524813 1 18059849614608877824
474 4 17241335819000873804
526903 126 18340488859382252409
633830 44 17698159548283126229
7097593 13 17754152220776779922
7364860 26 17909265776151554262
77492 1 17676203598060986890
7808743 9 18410294701083523304
81228 2 18411706495503702843
9925002 15 16980670344784748222
9981440 41 18335135371531411122

> <PUBCHEM_SHAPE_MULTIPOLES>
370.2
7.43
3.01
0.92
6.02
0.07
0
-3.22
0.08
-3.09
-0.01
0.86
0.02
-0.01

> <PUBCHEM_SHAPE_SELFOVERLAP>
823.233

> <PUBCHEM_SHAPE_VOLUME>
200.1

> <PUBCHEM_COORDINATE_TYPE>
2
5
10

$$$$
