6619702
  -OEChem-01171809393D

 62 66  0     1  0  0  0  0  0999 V2000
    0.6531   -3.3640   -1.9460 O   0  0  0  0  0  0  0  0  0  0  0  0
    2.8294   -2.5722   -0.2292 O   0  0  0  0  0  0  0  0  0  0  0  0
   -4.7067   -0.1126    2.1420 O   0  0  0  0  0  0  0  0  0  0  0  0
   -0.3566    1.8067   -0.0496 N   0  0  0  0  0  0  0  0  0  0  0  0
   -3.2519   -0.9500    0.5376 N   0  0  0  0  0  0  0  0  0  0  0  0
   -0.9840    1.8358   -2.3653 N   0  0  0  0  0  0  0  0  0  0  0  0
    0.7680    1.7431    0.7201 N   0  0  0  0  0  0  0  0  0  0  0  0
   -2.6838    1.9529   -0.5281 C   0  0  0  0  0  0  0  0  0  0  0  0
   -4.1527    2.0785   -0.2594 C   0  0  0  0  0  0  0  0  0  0  0  0
   -1.6925    1.8883    0.3883 C   0  0  0  0  0  0  0  0  0  0  0  0
   -2.5399   -1.8613    1.4032 C   0  0  2  0  0  0  0  0  0  0  0  0
   -4.8451    0.7260   -0.1282 C   0  0  0  0  0  0  0  0  0  0  0  0
   -2.2198    1.9085   -1.9692 C   0  0  0  0  0  0  0  0  0  0  0  0
   -1.1237   -2.0486    0.9489 C   0  0  0  0  0  0  0  0  0  0  0  0
   -0.0305    1.7863   -1.4026 C   0  0  0  0  0  0  0  0  0  0  0  0
   -4.2876   -0.1439    0.9882 C   0  0  0  0  0  0  0  0  0  0  0  0
   -1.9009    1.8910    1.8803 C   0  0  0  0  0  0  0  0  0  0  0  0
   -3.2934   -3.1839    1.5273 C   0  0  0  0  0  0  0  0  0  0  0  0
    1.3411    1.7088   -1.4799 C   0  0  0  0  0  0  0  0  0  0  0  0
   -0.8605   -2.6353   -0.2890 C   0  0  0  0  0  0  0  0  0  0  0  0
    1.7737    1.6857   -0.1503 C   0  0  0  0  0  0  0  0  0  0  0  0
    0.4586   -2.8006   -0.7120 C   0  0  0  0  0  0  0  0  0  0  0  0
   -0.0708   -1.6304    1.7633 C   0  0  0  0  0  0  0  0  0  0  0  0
   -3.2714    1.9558   -3.0578 C   0  0  0  0  0  0  0  0  0  0  0  0
    1.5133   -2.4067    0.1153 C   0  0  0  0  0  0  0  0  0  0  0  0
    1.2489   -1.8077    1.3472 C   0  0  0  0  0  0  0  0  0  0  0  0
    3.1351    1.6088    0.3106 C   0  0  0  0  0  0  0  0  0  0  0  0
    1.9895   -3.1689   -2.4168 C   0  0  0  0  0  0  0  0  0  0  0  0
    2.9849   -3.4865   -1.3179 C   0  0  0  0  0  0  0  0  0  0  0  0
    4.0918    0.9487   -0.4576 C   0  0  0  0  0  0  0  0  0  0  0  0
    3.4916    2.1945    1.5235 C   0  0  0  0  0  0  0  0  0  0  0  0
    5.4112    0.8738   -0.0106 C   0  0  0  0  0  0  0  0  0  0  0  0
    4.8108    2.1198    1.9704 C   0  0  0  0  0  0  0  0  0  0  0  0
    5.7706    1.4596    1.2033 C   0  0  0  0  0  0  0  0  0  0  0  0
   -4.6542    2.6775   -1.0259 H   0  0  0  0  0  0  0  0  0  0  0  0
   -4.3116    2.6492    0.6635 H   0  0  0  0  0  0  0  0  0  0  0  0
   -2.5340   -1.4122    2.4050 H   0  0  0  0  0  0  0  0  0  0  0  0
   -4.8098    0.1693   -1.0713 H   0  0  0  0  0  0  0  0  0  0  0  0
   -5.9090    0.8848    0.0875 H   0  0  0  0  0  0  0  0  0  0  0  0
   -3.0071   -0.9293   -0.4484 H   0  0  0  0  0  0  0  0  0  0  0  0
   -2.9437    2.0095    2.1790 H   0  0  0  0  0  0  0  0  0  0  0  0
   -1.3538    2.7259    2.3332 H   0  0  0  0  0  0  0  0  0  0  0  0
   -1.5332    0.9638    2.3274 H   0  0  0  0  0  0  0  0  0  0  0  0
   -3.4360   -3.6688    0.5550 H   0  0  0  0  0  0  0  0  0  0  0  0
   -4.2900   -3.0254    1.9545 H   0  0  0  0  0  0  0  0  0  0  0  0
   -2.7571   -3.8841    2.1774 H   0  0  0  0  0  0  0  0  0  0  0  0
    1.9236    1.6789   -2.3901 H   0  0  0  0  0  0  0  0  0  0  0  0
   -1.6726   -2.9532   -0.9380 H   0  0  0  0  0  0  0  0  0  0  0  0
   -0.2601   -1.1707    2.7295 H   0  0  0  0  0  0  0  0  0  0  0  0
   -2.8046    1.8025   -4.0365 H   0  0  0  0  0  0  0  0  0  0  0  0
   -4.0143    1.1689   -2.9189 H   0  0  0  0  0  0  0  0  0  0  0  0
   -3.7539    2.9367   -3.0660 H   0  0  0  0  0  0  0  0  0  0  0  0
    2.0631   -1.4862    1.9909 H   0  0  0  0  0  0  0  0  0  0  0  0
    2.1418   -3.8344   -3.2722 H   0  0  0  0  0  0  0  0  0  0  0  0
    2.0901   -2.1335   -2.7656 H   0  0  0  0  0  0  0  0  0  0  0  0
    4.0085   -3.3868   -1.6922 H   0  0  0  0  0  0  0  0  0  0  0  0
    2.8564   -4.5080   -0.9389 H   0  0  0  0  0  0  0  0  0  0  0  0
    3.8401    0.4716   -1.4014 H   0  0  0  0  0  0  0  0  0  0  0  0
    2.7679    2.7227    2.1396 H   0  0  0  0  0  0  0  0  0  0  0  0
    6.1580    0.3569   -0.6061 H   0  0  0  0  0  0  0  0  0  0  0  0
    5.0914    2.5770    2.9148 H   0  0  0  0  0  0  0  0  0  0  0  0
    6.7977    1.4009    1.5513 H   0  0  0  0  0  0  0  0  0  0  0  0
  1 22  1  0  0  0  0
  1 28  1  0  0  0  0
  2 25  1  0  0  0  0
  2 29  1  0  0  0  0
  3 16  2  0  0  0  0
  4  7  1  0  0  0  0
  4 10  1  0  0  0  0
  4 15  1  0  0  0  0
  5 11  1  0  0  0  0
  5 16  1  0  0  0  0
  5 40  1  0  0  0  0
  6 13  2  0  0  0  0
  6 15  1  0  0  0  0
  7 21  2  0  0  0  0
  8  9  1  0  0  0  0
  8 10  2  0  0  0  0
  8 13  1  0  0  0  0
  9 12  1  0  0  0  0
  9 35  1  0  0  0  0
  9 36  1  0  0  0  0
 10 17  1  0  0  0  0
 11 14  1  0  0  0  0
 11 18  1  0  0  0  0
 11 37  1  0  0  0  0
 12 16  1  0  0  0  0
 12 38  1  0  0  0  0
 12 39  1  0  0  0  0
 13 24  1  0  0  0  0
 14 20  2  0  0  0  0
 14 23  1  0  0  0  0
 15 19  2  0  0  0  0
 17 41  1  0  0  0  0
 17 42  1  0  0  0  0
 17 43  1  0  0  0  0
 18 44  1  0  0  0  0
 18 45  1  0  0  0  0
 18 46  1  0  0  0  0
 19 21  1  0  0  0  0
 19 47  1  0  0  0  0
 20 22  1  0  0  0  0
 20 48  1  0  0  0  0
 21 27  1  0  0  0  0
 22 25  2  0  0  0  0
 23 26  2  0  0  0  0
 23 49  1  0  0  0  0
 24 50  1  0  0  0  0
 24 51  1  0  0  0  0
 24 52  1  0  0  0  0
 25 26  1  0  0  0  0
 26 53  1  0  0  0  0
 27 30  2  0  0  0  0
 27 31  1  0  0  0  0
 28 29  1  0  0  0  0
 28 54  1  0  0  0  0
 28 55  1  0  0  0  0
 29 56  1  0  0  0  0
 29 57  1  0  0  0  0
 30 32  1  0  0  0  0
 30 58  1  0  0  0  0
 31 33  2  0  0  0  0
 31 59  1  0  0  0  0
 32 34  2  0  0  0  0
 32 60  1  0  0  0  0
 33 34  1  0  0  0  0
 33 61  1  0  0  0  0
 34 62  1  0  0  0  0
M  END
> <PUBCHEM_COMPOUND_CID>
6619702

> <PUBCHEM_CONFORMER_RMSD>
1

> <PUBCHEM_CONFORMER_DIVERSEORDER>
1
175
163
58
150
85
98
136
130
158
90
45
86
22
132
68
142
25
21
113
31
18
96
93
87
202
4
170
196
188
71
38
173
27
165
39
105
123
47
169
53
197
138
126
56
12
48
89
29
161
177
77
108
144
116
2
64
134
133
179
61
81
168
94
6
147
78
125
172
109
11
187
36
35
24
42
194
110
79
106
141
34
84
41
20
156
76
152
154
37
17
122
174
5
149
151
69
13
104
157
124
59
186
8
82
60
181
114
120
200
201
40
131
171
3
88
10
91
164
9
155
99
16
119
167
46
62
100
43
63
92
7
80
128
95
72
51
191
180
65
153
166
67
52
189
148
26
70
83
19
23
185
50
121
182
32
44
55
129
30
97
162
118
107
195
54
66
193
143
178
73
111
117
75
28
74
190
199
159
102
101
183
112
135
145
140
146
14
192
137
176
115
160
15
49
139
184
103
33
127
198
57

> <PUBCHEM_MMFF94_PARTIAL_CHARGES>
43
1 -0.36
10 -0.17
11 0.44
12 0.06
13 0.37
14 -0.14
15 -0.03
16 0.57
17 0.14
19 -0.15
2 -0.36
20 -0.15
21 0.23
22 0.08
23 -0.15
24 0.06
25 0.08
26 -0.15
27 0.05
28 0.28
29 0.28
3 -0.57
30 -0.15
31 -0.15
32 -0.15
33 -0.15
34 -0.15
4 0.6
40 0.37
47 0.15
48 0.15
49 0.15
5 -0.73
53 0.15
58 0.15
59 0.15
6 -0.58
60 0.15
61 0.15
62 0.15
7 -0.71
8 -0.12
9 0.14

> <PUBCHEM_EFFECTIVE_ROTOR_COUNT>
7.8

> <PUBCHEM_PHARMACOPHORE_FEATURES>
11
1 1 acceptor
1 2 acceptor
1 3 acceptor
1 5 donor
1 6 acceptor
1 7 acceptor
5 4 7 15 19 21 rings
6 1 2 22 25 28 29 rings
6 14 20 22 23 25 26 rings
6 27 30 31 32 33 34 rings
6 4 6 8 10 13 15 rings

> <PUBCHEM_HEAVY_ATOM_COUNT>
34

> <PUBCHEM_ATOM_DEF_STEREO_COUNT>
0

> <PUBCHEM_ATOM_UDEF_STEREO_COUNT>
1

> <PUBCHEM_BOND_DEF_STEREO_COUNT>
0

> <PUBCHEM_BOND_UDEF_STEREO_COUNT>
0

> <PUBCHEM_ISOTOPIC_ATOM_COUNT>
0

> <PUBCHEM_COMPONENT_COUNT>
1

> <PUBCHEM_CACTVS_TAUTO_COUNT>
2

> <PUBCHEM_CONFORMER_ID>
0065023600000001

> <PUBCHEM_MMFF94_ENERGY>
88.7067

> <PUBCHEM_FEATURE_SELFOVERLAP>
55.993

> <PUBCHEM_SHAPE_FINGERPRINT>
10675989 125 16888605573507357189
11112241 14 17917419986285014760
11488393 25 18268714901000951498
11513181 2 18273497862354756799
11524674 6 18201147841294227908
11607047 141 17342976701392144899
12156800 1 17095244670447269054
12422481 6 18335697261012746194
12597179 24 18188472593612923557
13149001 5 18120663422342115358
13383668 90 15000486836369680642
13402501 40 18336272253933126166
13642711 20 17489583510694824032
14040221 304 14928958193292502743
14068700 675 15610452482393795486
144659 39 18189872298096083224
14747281 78 17104231897993801388
15664445 248 17187253809056181045
20691752 17 17313967233385215241
20775438 99 18120343546427166183
20905425 154 18263094347825476595
22182313 1 18187082798130563853
23419403 2 18267031565324463486
23566358 2 18336547118686064927
238918 7 18410859901383211522
3052486 1 17604160297595001510
3298306 158 18410289207619495276
4093350 32 18129660790975592677
4112364 45 17199424433083685769
469060 322 17532358945474378112
484985 159 16519017088044981690
5080951 261 17830976408760212824
508706 21 18113899364093841391
5265222 85 18122638403709850068
56638632 33 15797904323460532339
57527585 103 17243043369027516739
59755656 215 18408044000364195256
6287921 2 17700958964647266142
9862522 239 18337095882383587242

> <PUBCHEM_SHAPE_MULTIPOLES>
662.17
9.46
4.8
2.45
4.68
4.07
0.98
-5.15
-3.46
0.94
1.42
-0.83
-0.08
3.78

> <PUBCHEM_SHAPE_SELFOVERLAP>
1449.933

> <PUBCHEM_SHAPE_VOLUME>
356.3

> <PUBCHEM_COORDINATE_TYPE>
2
5
10

$$$$
