4011720
  -OEChem-01171810093D

 50 52  0     1  0  0  0  0  0999 V2000
    2.1632   -4.5461    0.7266 Br  0  0  0  0  0  0  0  0  0  0  0  0
   -5.1785   -1.3284    2.4692 Cl  0  0  0  0  0  0  0  0  0  0  0  0
   -1.6798    0.4477   -2.4473 S   0  0  0  0  0  0  0  0  0  0  0  0
    3.8045    0.2142    1.7035 O   0  0  0  0  0  0  0  0  0  0  0  0
    2.4378    2.0751   -2.1482 O   0  0  0  0  0  0  0  0  0  0  0  0
   -1.6937   -0.6612   -3.3840 O   0  0  0  0  0  0  0  0  0  0  0  0
   -2.1660    1.7460   -2.8771 O   0  0  0  0  0  0  0  0  0  0  0  0
   -4.9320    2.1849    2.0115 O   0  5  0  0  0  0  0  0  0  0  0  0
   -3.1235    1.5081    3.0556 O   0  0  0  0  0  0  0  0  0  0  0  0
    2.2860    2.1195    0.1717 N   0  0  0  0  0  0  0  0  0  0  0  0
   -0.0849    0.5908   -1.7665 N   0  0  1  0  0  0  0  0  0  0  0  0
   -3.9272    1.4412    2.0965 N   0  3  0  0  0  0  0  0  0  0  0  0
    4.3787    0.9441    0.6062 C   0  0  2  0  0  0  0  0  0  0  0  0
    5.8628    1.0623    0.9070 C   0  0  0  0  0  0  0  0  0  0  0  0
    6.1297   -0.2404    1.6187 C   0  0  0  0  0  0  0  0  0  0  0  0
    4.8670   -0.4151    2.4354 C   0  0  0  0  0  0  0  0  0  0  0  0
    3.6828    2.2832    0.4585 C   0  0  0  0  0  0  0  0  0  0  0  0
    0.2717    1.8572   -1.1097 C   0  0  0  0  0  0  0  0  0  0  0  0
    1.7693    2.0275   -1.1189 C   0  0  0  0  0  0  0  0  0  0  0  0
    0.4492   -0.6287   -1.1745 C   0  0  0  0  0  0  0  0  0  0  0  0
   -2.6634   -0.0389   -1.0552 C   0  0  0  0  0  0  0  0  0  0  0  0
   -2.9158    0.8695   -0.0271 C   0  0  0  0  0  0  0  0  0  0  0  0
    0.1324   -0.9613    0.1427 C   0  0  0  0  0  0  0  0  0  0  0  0
    1.2769   -1.4638   -1.9249 C   0  0  0  0  0  0  0  0  0  0  0  0
   -3.1857   -1.3305   -0.9883 C   0  0  0  0  0  0  0  0  0  0  0  0
   -3.6906    0.4863    1.0676 C   0  0  0  0  0  0  0  0  0  0  0  0
   -3.9605   -1.7138    0.1064 C   0  0  0  0  0  0  0  0  0  0  0  0
    0.6433   -2.1289    0.7094 C   0  0  0  0  0  0  0  0  0  0  0  0
    1.7880   -2.6313   -1.3582 C   0  0  0  0  0  0  0  0  0  0  0  0
   -4.2129   -0.8053    1.1343 C   0  0  0  0  0  0  0  0  0  0  0  0
    1.4713   -2.9639   -0.0411 C   0  0  0  0  0  0  0  0  0  0  0  0
    4.2267    0.3332   -0.2929 H   0  0  0  0  0  0  0  0  0  0  0  0
    6.4694    1.1983    0.0074 H   0  0  0  0  0  0  0  0  0  0  0  0
    6.0616    1.9001    1.5864 H   0  0  0  0  0  0  0  0  0  0  0  0
    7.0357   -0.2313    2.2299 H   0  0  0  0  0  0  0  0  0  0  0  0
    6.2173   -1.0524    0.8871 H   0  0  0  0  0  0  0  0  0  0  0  0
    4.6215   -1.4666    2.6092 H   0  0  0  0  0  0  0  0  0  0  0  0
    4.9481    0.0899    3.4037 H   0  0  0  0  0  0  0  0  0  0  0  0
    3.7402    2.8534    1.3922 H   0  0  0  0  0  0  0  0  0  0  0  0
    4.1482    2.8724   -0.3389 H   0  0  0  0  0  0  0  0  0  0  0  0
    1.6563    2.0526    0.9658 H   0  0  0  0  0  0  0  0  0  0  0  0
   -0.1320    2.7079   -1.6690 H   0  0  0  0  0  0  0  0  0  0  0  0
   -0.1368    1.9075   -0.0969 H   0  0  0  0  0  0  0  0  0  0  0  0
   -2.5210    1.8810   -0.0824 H   0  0  0  0  0  0  0  0  0  0  0  0
   -0.4813   -0.3163    0.7624 H   0  0  0  0  0  0  0  0  0  0  0  0
    1.5298   -1.2119   -2.9514 H   0  0  0  0  0  0  0  0  0  0  0  0
   -3.0024   -2.0592   -1.7722 H   0  0  0  0  0  0  0  0  0  0  0  0
   -4.3589   -2.7246    0.1435 H   0  0  0  0  0  0  0  0  0  0  0  0
    0.3926   -2.3698    1.7393 H   0  0  0  0  0  0  0  0  0  0  0  0
    2.4319   -3.2708   -1.9564 H   0  0  0  0  0  0  0  0  0  0  0  0
  1 31  1  0  0  0  0
  2 30  1  0  0  0  0
  3  6  2  0  0  0  0
  3  7  2  0  0  0  0
  3 11  1  0  0  0  0
  3 21  1  0  0  0  0
  4 13  1  0  0  0  0
  4 16  1  0  0  0  0
  5 19  2  0  0  0  0
  8 12  1  0  0  0  0
  9 12  2  0  0  0  0
 10 17  1  0  0  0  0
 10 19  1  0  0  0  0
 10 41  1  0  0  0  0
 11 18  1  0  0  0  0
 11 20  1  0  0  0  0
 12 26  1  0  0  0  0
 13 14  1  0  0  0  0
 13 17  1  0  0  0  0
 13 32  1  0  0  0  0
 14 15  1  0  0  0  0
 14 33  1  0  0  0  0
 14 34  1  0  0  0  0
 15 16  1  0  0  0  0
 15 35  1  0  0  0  0
 15 36  1  0  0  0  0
 16 37  1  0  0  0  0
 16 38  1  0  0  0  0
 17 39  1  0  0  0  0
 17 40  1  0  0  0  0
 18 19  1  0  0  0  0
 18 42  1  0  0  0  0
 18 43  1  0  0  0  0
 20 23  2  0  0  0  0
 20 24  1  0  0  0  0
 21 22  2  0  0  0  0
 21 25  1  0  0  0  0
 22 26  1  0  0  0  0
 22 44  1  0  0  0  0
 23 28  1  0  0  0  0
 23 45  1  0  0  0  0
 24 29  2  0  0  0  0
 24 46  1  0  0  0  0
 25 27  2  0  0  0  0
 25 47  1  0  0  0  0
 26 30  2  0  0  0  0
 27 30  1  0  0  0  0
 27 48  1  0  0  0  0
 28 31  2  0  0  0  0
 28 49  1  0  0  0  0
 29 31  1  0  0  0  0
 29 50  1  0  0  0  0
M  CHG  2   8  -1  12   1
M  END
> <PUBCHEM_COMPOUND_CID>
4011720

> <PUBCHEM_CONFORMER_RMSD>
1.2

> <PUBCHEM_CONFORMER_DIVERSEORDER>
2
22
79
116
17
136
154
95
105
111
43
147
57
98
138
160
86
34
76
151
58
85
157
82
141
108
55
159
143
119
28
24
118
56
153
38
77
33
87
150
64
167
3
158
169
123
51
129
61
103
72
115
71
146
110
113
117
47
96
125
93
99
50
32
162
31
130
145
155
11
102
126
122
44
65
30
80
156
139
20
75
18
104
165
63
46
112
7
137
45
69
83
124
120
4
49
60
106
52
8
35
148
166
13
73
163
1
42
140
132
66
12
128
91
62
19
68
134
54
37
97
36
5
168
39
26
131
127
92
16
84
21
100
90
53
109
81
59
23
15
142
89
135
25
107
10
94
144
40
161
14
133
164
70
6
149
78
114
74
27
88
29
121
152
9
41
101
67
48

> <PUBCHEM_MMFF94_PARTIAL_CHARGES>
37
1 -0.11
10 -0.73
11 -0.69
12 0.91
13 0.28
16 0.28
17 0.3
18 0.42
19 0.57
2 -0.18
20 0.2
21 -0.01
22 -0.15
23 -0.15
24 -0.15
25 -0.15
26 0.13
27 -0.15
28 -0.15
29 -0.15
3 1.45
30 0.18
31 0.11
4 -0.56
41 0.37
44 0.15
45 0.15
46 0.15
47 0.15
48 0.15
49 0.15
5 -0.57
50 0.15
6 -0.65
7 -0.65
8 -0.52
9 -0.52

> <PUBCHEM_EFFECTIVE_ROTOR_COUNT>
10

> <PUBCHEM_PHARMACOPHORE_FEATURES>
12
1 1 hydrophobe
1 10 donor
1 4 acceptor
1 5 acceptor
1 6 acceptor
1 7 acceptor
1 8 acceptor
1 8 anion
1 9 acceptor
5 4 13 14 15 16 rings
6 20 23 24 28 29 31 rings
6 21 22 25 26 27 30 rings

> <PUBCHEM_HEAVY_ATOM_COUNT>
31

> <PUBCHEM_ATOM_DEF_STEREO_COUNT>
0

> <PUBCHEM_ATOM_UDEF_STEREO_COUNT>
1

> <PUBCHEM_BOND_DEF_STEREO_COUNT>
0

> <PUBCHEM_BOND_UDEF_STEREO_COUNT>
0

> <PUBCHEM_ISOTOPIC_ATOM_COUNT>
0

> <PUBCHEM_COMPONENT_COUNT>
1

> <PUBCHEM_CACTVS_TAUTO_COUNT>
2

> <PUBCHEM_CONFORMER_ID>
003D36C800000002

> <PUBCHEM_MMFF94_ENERGY>
75.615

> <PUBCHEM_FEATURE_SELFOVERLAP>
60.999

> <PUBCHEM_SHAPE_FINGERPRINT>
11115154 58 16473711969047858622
11135609 12 14273743915131557705
11135609 201 15554179099221713771
11578080 2 18117833309561283277
12422481 6 18269830931135666714
12633257 1 18114185258565311512
12788726 201 17406278101794364014
131258 38 16390993570000877655
13512321 179 16267732303803926938
13782708 43 15720216303209216042
14020679 6 17038651479963323860
14040221 10 16699738214098478362
14114211 80 18338520846102937226
14251751 93 15554152791824273579
14739800 52 17489585615118003131
16112460 7 18199736107483444344
17974551 9 17901983784282602561
20101258 96 17475501790980958826
20715895 44 13542198198855236074
20775438 99 11138516079182870458
3459 110 18187640289016891737
392239 28 18263071129390770530
563151 74 18341326696296496717

> <PUBCHEM_SHAPE_MULTIPOLES>
599.47
11.26
3.67
3.11
4.92
3.25
-0.02
-1.09
-10.92
2.49
0.59
-2.48
-0.86
0.16

> <PUBCHEM_SHAPE_SELFOVERLAP>
1232.976

> <PUBCHEM_SHAPE_VOLUME>
351.3

> <PUBCHEM_COORDINATE_TYPE>
2
5
10

$$$$
