1518975
  -OEChem-01171809233D

 44 47  0     0  0  0  0  0  0999 V2000
   -2.4534    3.9866   -2.2905 Cl  0  0  0  0  0  0  0  0  0  0  0  0
   -1.9958   -0.7103    0.1262 S   0  0  0  0  0  0  0  0  0  0  0  0
   -4.5761    4.2332   -0.2365 F   0  0  0  0  0  0  0  0  0  0  0  0
    4.0513    2.4187   -0.8066 O   0  0  0  0  0  0  0  0  0  0  0  0
    5.6416    0.7734   -1.5626 O   0  0  0  0  0  0  0  0  0  0  0  0
    1.2073   -3.5101    1.2451 O   0  0  0  0  0  0  0  0  0  0  0  0
   -2.5112   -4.0967   -1.5176 O   0  0  0  0  0  0  0  0  0  0  0  0
   -4.1408   -2.6340   -0.7666 O   0  0  0  0  0  0  0  0  0  0  0  0
    0.4193   -1.3028    1.2654 N   0  0  0  0  0  0  0  0  0  0  0  0
   -0.3966    0.9444    1.2749 N   0  0  0  0  0  0  0  0  0  0  0  0
    1.6239   -0.8601    1.9745 C   0  0  0  0  0  0  0  0  0  0  0  0
    2.7182   -0.4555    1.0229 C   0  0  0  0  0  0  0  0  0  0  0  0
    2.7935    0.8652    0.5947 C   0  0  0  0  0  0  0  0  0  0  0  0
    3.8132    1.1879   -0.2769 C   0  0  0  0  0  0  0  0  0  0  0  0
    4.7213    0.2484   -0.7087 C   0  0  0  0  0  0  0  0  0  0  0  0
    3.6364   -1.4190    0.5901 C   0  0  0  0  0  0  0  0  0  0  0  0
   -0.5280   -0.3054    0.9666 C   0  0  0  0  0  0  0  0  0  0  0  0
    4.6597   -1.0656   -0.2927 C   0  0  0  0  0  0  0  0  0  0  0  0
    0.3453   -2.6749    0.9631 C   0  0  0  0  0  0  0  0  0  0  0  0
    5.2115    2.1488   -1.6197 C   0  0  0  0  0  0  0  0  0  0  0  0
   -0.8578   -3.1629    0.2494 C   0  0  0  0  0  0  0  0  0  0  0  0
   -1.8719   -2.3879   -0.1273 C   0  0  0  0  0  0  0  0  0  0  0  0
   -1.4560    1.7796    0.8869 C   0  0  0  0  0  0  0  0  0  0  0  0
   -2.9883   -3.0308   -0.8268 C   0  0  0  0  0  0  0  0  0  0  0  0
   -1.4312    2.3955   -0.3616 C   0  0  0  0  0  0  0  0  0  0  0  0
   -2.5260    1.9877    1.7533 C   0  0  0  0  0  0  0  0  0  0  0  0
   -2.4840    3.2255   -0.7465 C   0  0  0  0  0  0  0  0  0  0  0  0
   -3.5787    2.8178    1.3683 C   0  0  0  0  0  0  0  0  0  0  0  0
   -3.5577    3.4366    0.1184 C   0  0  0  0  0  0  0  0  0  0  0  0
   -3.4891   -4.8333   -2.2592 C   0  0  0  0  0  0  0  0  0  0  0  0
    1.9840   -1.6644    2.6287 H   0  0  0  0  0  0  0  0  0  0  0  0
    1.3865   -0.0269    2.6477 H   0  0  0  0  0  0  0  0  0  0  0  0
    2.1026    1.6271    0.9335 H   0  0  0  0  0  0  0  0  0  0  0  0
    3.5774   -2.4458    0.9385 H   0  0  0  0  0  0  0  0  0  0  0  0
    5.3783   -1.8021   -0.6335 H   0  0  0  0  0  0  0  0  0  0  0  0
    6.0345    2.7883   -1.2804 H   0  0  0  0  0  0  0  0  0  0  0  0
    4.9767    2.4001   -2.6605 H   0  0  0  0  0  0  0  0  0  0  0  0
   -0.8487   -4.2368    0.0798 H   0  0  0  0  0  0  0  0  0  0  0  0
   -0.5892    2.2315   -1.0308 H   0  0  0  0  0  0  0  0  0  0  0  0
   -2.5497    1.5138    2.7311 H   0  0  0  0  0  0  0  0  0  0  0  0
   -4.4142    2.9833    2.0421 H   0  0  0  0  0  0  0  0  0  0  0  0
   -2.9812   -5.6580   -2.7660 H   0  0  0  0  0  0  0  0  0  0  0  0
   -3.9554   -4.1914   -3.0127 H   0  0  0  0  0  0  0  0  0  0  0  0
   -4.2436   -5.2473   -1.5835 H   0  0  0  0  0  0  0  0  0  0  0  0
  1 27  1  0  0  0  0
  2 17  1  0  0  0  0
  2 22  1  0  0  0  0
  3 29  1  0  0  0  0
  4 14  1  0  0  0  0
  4 20  1  0  0  0  0
  5 15  1  0  0  0  0
  5 20  1  0  0  0  0
  6 19  2  0  0  0  0
  7 24  1  0  0  0  0
  7 30  1  0  0  0  0
  8 24  2  0  0  0  0
  9 11  1  0  0  0  0
  9 17  1  0  0  0  0
  9 19  1  0  0  0  0
 10 17  2  0  0  0  0
 10 23  1  0  0  0  0
 11 12  1  0  0  0  0
 11 31  1  0  0  0  0
 11 32  1  0  0  0  0
 12 13  2  0  0  0  0
 12 16  1  0  0  0  0
 13 14  1  0  0  0  0
 13 33  1  0  0  0  0
 14 15  2  0  0  0  0
 15 18  1  0  0  0  0
 16 18  2  0  0  0  0
 16 34  1  0  0  0  0
 18 35  1  0  0  0  0
 19 21  1  0  0  0  0
 20 36  1  0  0  0  0
 20 37  1  0  0  0  0
 21 22  2  0  0  0  0
 21 38  1  0  0  0  0
 22 24  1  0  0  0  0
 23 25  2  0  0  0  0
 23 26  1  0  0  0  0
 25 27  1  0  0  0  0
 25 39  1  0  0  0  0
 26 28  2  0  0  0  0
 26 40  1  0  0  0  0
 27 29  2  0  0  0  0
 28 29  1  0  0  0  0
 28 41  1  0  0  0  0
 30 42  1  0  0  0  0
 30 43  1  0  0  0  0
 30 44  1  0  0  0  0
M  END
> <PUBCHEM_COMPOUND_CID>
1518975

> <PUBCHEM_CONFORMER_RMSD>
0.8

> <PUBCHEM_CONFORMER_DIVERSEORDER>
1
47
59
68
60
16
53
36
37
56
67
11
35
31
58
50
57
51
13
23
34
41
12
40
66
25
46
61
65
21
20
63
52
33
49
42
9
38
19
45
62
64
48
10
22
39
24
18
55
17
44
14
4
15
43
54
28
6
27
32
29
2
3
26
5
8
30
7

> <PUBCHEM_MMFF94_PARTIAL_CHARGES>
37
1 -0.18
10 -0.63
11 0.44
12 -0.14
13 -0.15
14 0.08
15 0.08
16 -0.15
17 0.65
18 -0.15
19 0.62
2 -0.24
20 0.56
21 -0.14
22 0.12
23 0.18
24 0.71
25 -0.15
26 -0.15
27 0.18
28 -0.15
29 0.19
3 -0.19
30 0.28
33 0.15
34 0.15
35 0.15
38 0.15
39 0.15
4 -0.36
40 0.15
41 0.15
5 -0.36
6 -0.57
7 -0.43
8 -0.57
9 -0.42

> <PUBCHEM_EFFECTIVE_ROTOR_COUNT>
5.6

> <PUBCHEM_PHARMACOPHORE_FEATURES>
8
1 4 acceptor
1 5 acceptor
1 6 acceptor
1 8 acceptor
5 4 5 14 15 20 rings
6 12 13 14 15 16 18 rings
6 2 9 17 19 21 22 rings
6 23 25 26 27 28 29 rings

> <PUBCHEM_HEAVY_ATOM_COUNT>
30

> <PUBCHEM_ATOM_DEF_STEREO_COUNT>
0

> <PUBCHEM_ATOM_UDEF_STEREO_COUNT>
0

> <PUBCHEM_BOND_DEF_STEREO_COUNT>
0

> <PUBCHEM_BOND_UDEF_STEREO_COUNT>
0

> <PUBCHEM_ISOTOPIC_ATOM_COUNT>
0

> <PUBCHEM_COMPONENT_COUNT>
1

> <PUBCHEM_CACTVS_TAUTO_COUNT>
1

> <PUBCHEM_CONFORMER_ID>
00172D7F00000001

> <PUBCHEM_MMFF94_ENERGY>
97.1531

> <PUBCHEM_FEATURE_SELFOVERLAP>
40.755

> <PUBCHEM_SHAPE_FINGERPRINT>
10871710 139 18262246611158794953
10940486 97 18051674569795696026
11115154 58 17769093781135431095
11445158 3 17686613550799023751
11578080 2 14202239306385372737
12788726 201 18337949111870374410
13540713 5 18260258643229308010
13583140 156 16519054265113103515
14251757 5 18341888632574449759
1454969 45 18409457960419343257
14840074 17 18336839636757112033
14955137 171 17978240670910038995
151778 21 18119251653754666576
15210252 30 17756131642011238028
15276724 80 18339655532599867819
16988056 13 17547545529569999695
21641784 216 18262801894495178053
22907989 373 18340195349975393117
26353 1 17979344592824876359
3057174 1 17910951349289109015
3388396 114 17687202189179079548
340366 18 18051132493483124514
3552219 110 15363092950200206850
38695281 34 18121783820147919104
4066623 53 17979611748343621108
4353968 344 18124886913821407500
46194498 28 17325763683329372293
469060 322 14925079360286680778
5252454 2 18337677403886970712
563151 97 18261682567006850618
6371009 1 17829050158925563828
7164475 11 18339633538420731986

> <PUBCHEM_SHAPE_MULTIPOLES>
576.52
9.95
6.71
1.91
11.14
2.77
0.46
-5.47
4.59
-10.89
3.74
-0.56
0.03
-3.47

> <PUBCHEM_SHAPE_SELFOVERLAP>
1250.753

> <PUBCHEM_SHAPE_VOLUME>
319.9

> <PUBCHEM_COORDINATE_TYPE>
2
5
10

$$$$
