9454677
  -OEChem-01171810113D

 42 43  0     0  0  0  0  0  0999 V2000
   -1.1035    0.2157   -0.4317 O   0  0  0  0  0  0  0  0  0  0  0  0
    0.9319    1.4839    0.7002 O   0  0  0  0  0  0  0  0  0  0  0  0
   -2.0405   -1.3778   -1.8033 O   0  0  0  0  0  0  0  0  0  0  0  0
   -4.2640   -1.7618    2.2880 O   0  5  0  0  0  0  0  0  0  0  0  0
   -2.5145   -1.8974    0.9690 O   0  0  0  0  0  0  0  0  0  0  0  0
    4.8618    0.2298    0.0026 N   0  0  0  0  0  0  0  0  0  0  0  0
   -3.6078   -1.3766    1.2921 N   0  3  0  0  0  0  0  0  0  0  0  0
    3.7070    0.8469    0.4071 C   0  0  0  0  0  0  0  0  0  0  0  0
    4.5577   -0.8025   -0.8461 C   0  0  0  0  0  0  0  0  0  0  0  0
    2.6861    0.1900   -0.1975 C   0  0  0  0  0  0  0  0  0  0  0  0
    6.1984    0.6092    0.4094 C   0  0  0  0  0  0  0  0  0  0  0  0
    3.1881   -0.8443   -0.9860 C   0  0  0  0  0  0  0  0  0  0  0  0
    3.7200    2.0016    1.3314 C   0  0  0  0  0  0  0  0  0  0  0  0
    5.5976   -1.6603   -1.4508 C   0  0  0  0  0  0  0  0  0  0  0  0
    1.2676    0.5452   -0.0236 C   0  0  0  0  0  0  0  0  0  0  0  0
    6.6443   -0.1164    1.6673 C   0  0  0  0  0  0  0  0  0  0  0  0
    0.2065   -0.2639   -0.7535 C   0  0  0  0  0  0  0  0  0  0  0  0
   -3.4299    0.1543   -0.6172 C   0  0  0  0  0  0  0  0  0  0  0  0
   -2.1554   -0.4263   -1.0228 C   0  0  0  0  0  0  0  0  0  0  0  0
   -4.1218   -0.3114    0.5009 C   0  0  0  0  0  0  0  0  0  0  0  0
   -3.9550    1.1999   -1.3767 C   0  0  0  0  0  0  0  0  0  0  0  0
   -5.3388    0.2685    0.8594 C   0  0  0  0  0  0  0  0  0  0  0  0
   -5.1720    1.7797   -1.0180 C   0  0  0  0  0  0  0  0  0  0  0  0
   -5.8639    1.3140    0.0999 C   0  0  0  0  0  0  0  0  0  0  0  0
    6.8867    0.3887   -0.4134 H   0  0  0  0  0  0  0  0  0  0  0  0
    6.2382    1.6948    0.5419 H   0  0  0  0  0  0  0  0  0  0  0  0
    2.6433   -1.5525   -1.5950 H   0  0  0  0  0  0  0  0  0  0  0  0
    2.9109    1.9279    2.0648 H   0  0  0  0  0  0  0  0  0  0  0  0
    3.5920    2.9347    0.7729 H   0  0  0  0  0  0  0  0  0  0  0  0
    4.6354    2.0850    1.9220 H   0  0  0  0  0  0  0  0  0  0  0  0
    5.1424   -2.4716   -2.0292 H   0  0  0  0  0  0  0  0  0  0  0  0
    6.2312   -2.1216   -0.6875 H   0  0  0  0  0  0  0  0  0  0  0  0
    6.2300   -1.0862   -2.1355 H   0  0  0  0  0  0  0  0  0  0  0  0
    6.6467   -1.2016    1.5249 H   0  0  0  0  0  0  0  0  0  0  0  0
    7.6582    0.1914    1.9414 H   0  0  0  0  0  0  0  0  0  0  0  0
    5.9830    0.1043    2.5116 H   0  0  0  0  0  0  0  0  0  0  0  0
    0.3702   -0.1631   -1.8319 H   0  0  0  0  0  0  0  0  0  0  0  0
    0.2890   -1.3110   -0.4432 H   0  0  0  0  0  0  0  0  0  0  0  0
   -3.4255    1.5720   -2.2501 H   0  0  0  0  0  0  0  0  0  0  0  0
   -5.9086   -0.0651    1.7229 H   0  0  0  0  0  0  0  0  0  0  0  0
   -5.5809    2.5938   -1.6093 H   0  0  0  0  0  0  0  0  0  0  0  0
   -6.8114    1.7659    0.3787 H   0  0  0  0  0  0  0  0  0  0  0  0
  1 17  1  0  0  0  0
  1 19  1  0  0  0  0
  2 15  2  0  0  0  0
  3 19  2  0  0  0  0
  4  7  1  0  0  0  0
  5  7  2  0  0  0  0
  6  8  1  0  0  0  0
  6  9  1  0  0  0  0
  6 11  1  0  0  0  0
  7 20  1  0  0  0  0
  8 10  2  0  0  0  0
  8 13  1  0  0  0  0
  9 12  2  0  0  0  0
  9 14  1  0  0  0  0
 10 12  1  0  0  0  0
 10 15  1  0  0  0  0
 11 16  1  0  0  0  0
 11 25  1  0  0  0  0
 11 26  1  0  0  0  0
 12 27  1  0  0  0  0
 13 28  1  0  0  0  0
 13 29  1  0  0  0  0
 13 30  1  0  0  0  0
 14 31  1  0  0  0  0
 14 32  1  0  0  0  0
 14 33  1  0  0  0  0
 15 17  1  0  0  0  0
 16 34  1  0  0  0  0
 16 35  1  0  0  0  0
 16 36  1  0  0  0  0
 17 37  1  0  0  0  0
 17 38  1  0  0  0  0
 18 19  1  0  0  0  0
 18 20  1  0  0  0  0
 18 21  2  0  0  0  0
 20 22  2  0  0  0  0
 21 23  1  0  0  0  0
 21 39  1  0  0  0  0
 22 24  1  0  0  0  0
 22 40  1  0  0  0  0
 23 24  2  0  0  0  0
 23 41  1  0  0  0  0
 24 42  1  0  0  0  0
M  CHG  2   4  -1   7   1
M  END
> <PUBCHEM_COMPOUND_CID>
9454677

> <PUBCHEM_CONFORMER_RMSD>
0.8

> <PUBCHEM_CONFORMER_DIVERSEORDER>
1
149
352
127
253
355
138
349
37
270
229
143
101
281
119
277
316
135
242
266
338
203
321
146
320
17
341
55
291
322
284
108
195
331
107
222
43
134
217
342
325
306
244
150
25
311
243
310
211
197
319
249
4
254
256
202
133
200
267
332
33
347
20
330
221
301
153
98
226
265
225
335
40
118
68
63
57
123
53
60
356
137
41
298
3
353
175
205
117
131
324
317
112
111
261
144
52
66
156
96
94
231
168
48
73
251
177
64
183
67
31
62
39
292
303
294
116
61
172
233
115
110
186
99
44
125
2
139
129
26
218
5
83
287
334
297
280
165
49
36
345
34
12
283
120
189
58
354
208
227
232
184
269
263
304
220
9
69
313
258
219
72
343
223
93
348
84
182
214
340
209
103
259
8
358
336
178
132
88
246
206
228
16
326
351
309
234
257
329
27
314
15
81
104
126
140
339
241
7
45
193
29
130
194
75
344
250
272
198
264
136
13
148
239
65
295
32
18
235
315
245
160
275
50
327
78
176
76
105
155
91
161
163
86
337
308
71
179
97
28
237
328
290
22
238
85
224
318
54
350
92
77
346
230
173
212
271
174
124
236
276
10
252
312
159
157
47
154
21
240
6
192
23
82
56
122
333
11
268
357
289
300
307
279
273
204
14
106
70
158
190
296
95
90
87
74
51
30
285
305
42
288
162
293
151
46
38
282
121
210
278
248
215
260
164
24
286
100
102
35
188
302
196
109
201
128
80
169
142
181
207
187
59
89
171
262
147
113
19
79
216
299
166
191
145
185
141
247
255
323
274
213
167
180
170
152
114
199

> <PUBCHEM_MMFF94_PARTIAL_CHARGES>
28
1 -0.43
10 -0.09
11 0.26
12 -0.15
13 0.18
14 0.18
15 0.6
17 0.34
18 0.09
19 0.63
2 -0.57
20 0.13
21 -0.15
22 -0.15
23 -0.15
24 -0.15
27 0.15
3 -0.57
39 0.15
4 -0.52
40 0.15
41 0.15
42 0.15
5 -0.52
6 0.05
7 0.91
8 -0.33
9 -0.33

> <PUBCHEM_EFFECTIVE_ROTOR_COUNT>
7

> <PUBCHEM_PHARMACOPHORE_FEATURES>
8
1 2 acceptor
1 3 acceptor
1 4 acceptor
1 4 anion
1 5 acceptor
1 6 cation
5 6 8 9 10 12 rings
6 18 20 21 22 23 24 rings

> <PUBCHEM_HEAVY_ATOM_COUNT>
24

> <PUBCHEM_ATOM_DEF_STEREO_COUNT>
0

> <PUBCHEM_ATOM_UDEF_STEREO_COUNT>
0

> <PUBCHEM_BOND_DEF_STEREO_COUNT>
0

> <PUBCHEM_BOND_UDEF_STEREO_COUNT>
0

> <PUBCHEM_ISOTOPIC_ATOM_COUNT>
0

> <PUBCHEM_COMPONENT_COUNT>
1

> <PUBCHEM_CACTVS_TAUTO_COUNT>
2

> <PUBCHEM_CONFORMER_ID>
0090445500000001

> <PUBCHEM_MMFF94_ENERGY>
61.33

> <PUBCHEM_FEATURE_SELFOVERLAP>
40.681

> <PUBCHEM_SHAPE_FINGERPRINT>
10 15 18410008866746187976
10912923 1 15482671269244722870
11089746 13 15482666901352608304
11315181 36 17095242544812730605
11405975 8 18187643639154926304
11545043 162 18261395576184154993
11796584 16 18113896044801735042
12107183 9 13898854339898424719
12166972 35 16558739149011862905
12236239 1 16056878013794074117
12516196 113 17060613404394449976
12596602 18 16558746827822836638
13675066 3 18410857693553483925
14251758 9 18273217482435762004
14251764 18 17275098444612258965
14856354 85 17313111851656160663
15142383 8 18334569106311603612
15183329 4 17346878927333927132
15348495 7 18261955249283491640
15537594 2 15719391741674639137
15788980 27 18343582953874655292
15799311 1 17022908917289541498
15961568 22 12750936850497154490
17093844 174 18336818766714370432
17349148 13 15339120156255922677
17844677 252 17894634772563204884
19377110 9 14851601107310934036
20511986 3 16128363836010466868
21033648 29 18271232876933170793
21150785 3 9799402361259472994
21315759 148 18114472256970308778
21315763 191 16950284013874887178
21792961 116 18270970034389156134
220451 1 16660364766778250562
22950370 63 16226049998067092156
23081809 10 15936414450751041446
23402539 116 13623523554396153479
23522609 53 15648201584901350284
23559900 14 18334298652014882444
2838139 119 17703512070193601137
300161 21 17060614508380087870
4073 2 18342171224216484886
4169191 19 17273967112215852888
4325135 7 12901547931583355929
5104073 3 17987787652874104890
5364581 5 18044093685818527864
5385378 56 18116438042565084227
57724786 102 18131358543918615481
602551 16 17604153721826219018
633830 44 18261946444610830932
7495541 125 17167865305086436452
90127 26 18410572907241533301

> <PUBCHEM_SHAPE_MULTIPOLES>
454.6
17.32
1.76
1.61
6.81
0.03
0.9
2.74
2.01
1.46
-0.13
-2.37
-0.35
2.08

> <PUBCHEM_SHAPE_SELFOVERLAP>
969.816

> <PUBCHEM_SHAPE_VOLUME>
254.8

> <PUBCHEM_COORDINATE_TYPE>
2
5
10

$$$$
