4872337
  -OEChem-01171810003D

 45 46  0     0  0  0  0  0  0999 V2000
    3.0348    3.2198    0.0677 O   0  5  0  0  0  0  0  0  0  0  0  0
    3.4093    1.0883   -0.3003 O   0  0  0  0  0  0  0  0  0  0  0  0
    1.5939   -0.5525   -0.4488 N   0  0  0  0  0  0  0  0  0  0  0  0
   -0.6155    0.2496   -0.1778 N   0  0  0  0  0  0  0  0  0  0  0  0
   -2.8008    1.0599    0.0929 N   0  0  0  0  0  0  0  0  0  0  0  0
   -1.0265    2.5895    0.2264 N   0  0  0  0  0  0  0  0  0  0  0  0
    2.6267    2.0460   -0.0957 N   0  3  0  0  0  0  0  0  0  0  0  0
    0.7730    4.1201    0.3580 N   0  0  0  0  0  0  0  0  0  0  0  0
   -6.9658   -1.4963   -0.0516 N   0  0  0  0  0  0  0  0  0  0  0  0
    1.1561   -1.9364   -0.6440 C   0  0  0  0  0  0  0  0  0  0  0  0
    0.8198   -2.5827    0.7065 C   0  0  0  0  0  0  0  0  0  0  0  0
    2.2423   -2.7394   -1.3721 C   0  0  0  0  0  0  0  0  0  0  0  0
    2.0563   -2.8217    1.5743 C   0  0  0  0  0  0  0  0  0  0  0  0
    3.4820   -2.9791   -0.5093 C   0  0  0  0  0  0  0  0  0  0  0  0
    3.1204   -3.6214    0.8274 C   0  0  0  0  0  0  0  0  0  0  0  0
    0.7253    0.5011   -0.2230 C   0  0  0  0  0  0  0  0  0  0  0  0
    1.2279    1.7919   -0.0470 C   0  0  0  0  0  0  0  0  0  0  0  0
   -1.4125    1.3121    0.0445 C   0  0  0  0  0  0  0  0  0  0  0  0
    0.3060    2.7945    0.1741 C   0  0  0  0  0  0  0  0  0  0  0  0
   -3.3583   -0.2446   -0.0821 C   0  0  0  0  0  0  0  0  0  0  0  0
   -4.8808   -0.2089    0.0323 C   0  0  0  0  0  0  0  0  0  0  0  0
   -5.5136   -1.5896   -0.1523 C   0  0  0  0  0  0  0  0  0  0  0  0
    0.2624   -1.9433   -1.2809 H   0  0  0  0  0  0  0  0  0  0  0  0
    0.1018   -1.9739    1.2675 H   0  0  0  0  0  0  0  0  0  0  0  0
    0.3302   -3.5478    0.5220 H   0  0  0  0  0  0  0  0  0  0  0  0
    2.5394   -2.2229   -2.2929 H   0  0  0  0  0  0  0  0  0  0  0  0
    1.8274   -3.7101   -1.6722 H   0  0  0  0  0  0  0  0  0  0  0  0
    2.4770   -1.8616    1.8962 H   0  0  0  0  0  0  0  0  0  0  0  0
    1.7661   -3.3597    2.4841 H   0  0  0  0  0  0  0  0  0  0  0  0
    4.1794   -3.6303   -1.0489 H   0  0  0  0  0  0  0  0  0  0  0  0
    4.0108   -2.0354   -0.3336 H   0  0  0  0  0  0  0  0  0  0  0  0
    4.0186   -3.7111    1.4487 H   0  0  0  0  0  0  0  0  0  0  0  0
    2.7518   -4.6398    0.6521 H   0  0  0  0  0  0  0  0  0  0  0  0
    2.5285   -0.4505   -0.0716 H   0  0  0  0  0  0  0  0  0  0  0  0
   -2.9588   -0.9291    0.6763 H   0  0  0  0  0  0  0  0  0  0  0  0
   -3.0820   -0.6419   -1.0664 H   0  0  0  0  0  0  0  0  0  0  0  0
   -3.4008    1.8596    0.2592 H   0  0  0  0  0  0  0  0  0  0  0  0
   -5.2837    0.4847   -0.7179 H   0  0  0  0  0  0  0  0  0  0  0  0
   -5.1605    0.1983    1.0132 H   0  0  0  0  0  0  0  0  0  0  0  0
   -5.2484   -1.9961   -1.1341 H   0  0  0  0  0  0  0  0  0  0  0  0
   -5.1387   -2.2819    0.6093 H   0  0  0  0  0  0  0  0  0  0  0  0
    0.0604    4.8173    0.5406 H   0  0  0  0  0  0  0  0  0  0  0  0
    1.5792    4.4251   -0.1727 H   0  0  0  0  0  0  0  0  0  0  0  0
   -7.3698   -2.4291   -0.1248 H   0  0  0  0  0  0  0  0  0  0  0  0
   -7.2241   -1.1448    0.8696 H   0  0  0  0  0  0  0  0  0  0  0  0
  1  7  1  0  0  0  0
  2  7  2  0  0  0  0
  3 10  1  0  0  0  0
  3 16  1  0  0  0  0
  3 34  1  0  0  0  0
  4 16  2  0  0  0  0
  4 18  1  0  0  0  0
  5 18  1  0  0  0  0
  5 20  1  0  0  0  0
  5 37  1  0  0  0  0
  6 18  2  0  0  0  0
  6 19  1  0  0  0  0
  7 17  1  0  0  0  0
  8 19  1  0  0  0  0
  8 42  1  0  0  0  0
  8 43  1  0  0  0  0
  9 22  1  0  0  0  0
  9 44  1  0  0  0  0
  9 45  1  0  0  0  0
 10 11  1  0  0  0  0
 10 12  1  0  0  0  0
 10 23  1  0  0  0  0
 11 13  1  0  0  0  0
 11 24  1  0  0  0  0
 11 25  1  0  0  0  0
 12 14  1  0  0  0  0
 12 26  1  0  0  0  0
 12 27  1  0  0  0  0
 13 15  1  0  0  0  0
 13 28  1  0  0  0  0
 13 29  1  0  0  0  0
 14 15  1  0  0  0  0
 14 30  1  0  0  0  0
 14 31  1  0  0  0  0
 15 32  1  0  0  0  0
 15 33  1  0  0  0  0
 16 17  1  0  0  0  0
 17 19  2  0  0  0  0
 20 21  1  0  0  0  0
 20 35  1  0  0  0  0
 20 36  1  0  0  0  0
 21 22  1  0  0  0  0
 21 38  1  0  0  0  0
 21 39  1  0  0  0  0
 22 40  1  0  0  0  0
 22 41  1  0  0  0  0
M  CHG  2   1  -1   7   1
M  END
> <PUBCHEM_COMPOUND_CID>
4872337

> <PUBCHEM_CONFORMER_RMSD>
0.8

> <PUBCHEM_CONFORMER_DIVERSEORDER>
1
39
108
107
156
113
15
146
19
78
61
25
152
136
44
154
29
143
109
151
119
60
134
111
57
82
100
101
157
132
76
77
41
96
64
59
87
135
125
51
93
94
71
90
18
68
53
27
118
72
79
142
83
23
148
67
99
48
55
147
123
126
11
116
17
97
120
73
122
88
117
36
33
145
30
43
115
149
46
10
40
84
89
95
47
45
137
37
98
62
139
75
12
70
7
80
104
49
144
112
24
26
85
114
92
69
81
65
127
138
35
141
110
133
3
31
74
5
32
16
66
86
6
20
91
21
124
54
52
9
63
121
105
8
13
2
103
129
131
153
4
38
42
102
128
34
130
155
106
140
56
22
50
14
150
28
58

> <PUBCHEM_MMFF94_PARTIAL_CHARGES>
22
1 -0.52
10 0.37
16 0.41
17 0.13
18 0.72
19 0.41
2 -0.52
20 0.37
22 0.27
3 -0.87
34 0.4
37 0.4
4 -0.62
42 0.4
43 0.4
44 0.36
45 0.36
5 -0.87
6 -0.62
7 0.91
8 -0.9
9 -0.99

> <PUBCHEM_EFFECTIVE_ROTOR_COUNT>
8.2

> <PUBCHEM_PHARMACOPHORE_FEATURES>
12
1 1 acceptor
1 1 anion
1 2 acceptor
1 3 donor
1 5 donor
1 8 cation
1 8 donor
1 9 cation
1 9 donor
4 4 5 6 18 cation
6 10 11 12 13 14 15 rings
6 4 6 16 17 18 19 rings

> <PUBCHEM_HEAVY_ATOM_COUNT>
22

> <PUBCHEM_ATOM_DEF_STEREO_COUNT>
0

> <PUBCHEM_ATOM_UDEF_STEREO_COUNT>
0

> <PUBCHEM_BOND_DEF_STEREO_COUNT>
0

> <PUBCHEM_BOND_UDEF_STEREO_COUNT>
0

> <PUBCHEM_ISOTOPIC_ATOM_COUNT>
0

> <PUBCHEM_COMPONENT_COUNT>
1

> <PUBCHEM_CACTVS_TAUTO_COUNT>
25

> <PUBCHEM_CONFORMER_ID>
004A589100000001

> <PUBCHEM_MMFF94_ENERGY>
67.9862

> <PUBCHEM_FEATURE_SELFOVERLAP>
60.978

> <PUBCHEM_SHAPE_FINGERPRINT>
10411042 1 18267586810128154782
1100329 8 18266171915326019730
114674 6 18260832635269522555
11578080 2 17460591416638047044
12293681 25 17896339037340364283
12553582 1 17978517429642684907
12788726 201 17686915920690980307
13083527 12 18335972078478839882
13140716 1 18052248798047620321
13533116 47 18340769338870646739
138480 1 18411138000510170839
13955234 65 18268711783017744465
14787075 74 18189348887685915702
14844126 61 17397263832912729699
14863182 85 18338524139271487894
16728300 4 17753291410957974504
20028762 73 17839178854958996727
20510252 161 16397459119774224704
20567600 347 18262235658907618827
20567600 70 18335414643264024347
20645477 70 18410572899252868591
20905425 154 18198346152638745756
21197605 99 17761501691942639851
21421861 104 18339651053297209441
21452121 199 18338508625828632456
21650355 55 17472409959660897304
22956985 138 18188757354603690682
23184049 29 18122343471703399148
23557571 272 17264117369015359214
23559900 14 18265884766528920213
33824 294 18338517555513851613
3421961 26 18412544306273856579
5902787 121 18049442543683393198
59755656 215 18336833086093182886
7970288 3 18267303123882103383
9709674 26 18335425690536652683

> <PUBCHEM_SHAPE_MULTIPOLES>
406.14
9.18
5.37
0.92
19.49
2.72
-0.07
-9.58
0.36
-4.82
-0.78
-0.76
-0.78
-0.41

> <PUBCHEM_SHAPE_SELFOVERLAP>
831.628

> <PUBCHEM_SHAPE_VOLUME>
230.7

> <PUBCHEM_COORDINATE_TYPE>
2
5
10

$$$$
