2295300
  -OEChem-01171809283D

 46 47  0     0  0  0  0  0  0999 V2000
    0.1463   -0.6581    1.5218 O   0  0  0  0  0  0  0  0  0  0  0  0
    1.5719   -2.4087   -0.0985 O   0  0  0  0  0  0  0  0  0  0  0  0
   -2.2534   -1.4739    0.8879 O   0  0  0  0  0  0  0  0  0  0  0  0
    4.7740    0.9076   -2.3471 O   0  5  0  0  0  0  0  0  0  0  0  0
    4.7208    2.7018   -1.0707 O   0  0  0  0  0  0  0  0  0  0  0  0
   -3.0242    0.6923    0.3929 N   0  0  0  0  0  0  0  0  0  0  0  0
    5.1296    1.5666   -1.3582 N   0  3  0  0  0  0  0  0  0  0  0  0
    1.4693   -0.4492    1.2728 C   0  0  0  0  0  0  0  0  0  0  0  0
    2.1853   -1.3286    0.4607 C   0  0  0  0  0  0  0  0  0  0  0  0
   -4.3690    0.4770    0.0092 C   0  0  0  0  0  0  0  0  0  0  0  0
   -5.1690    1.5467   -0.3597 C   0  0  0  0  0  0  0  0  0  0  0  0
    4.1785   -0.0010    0.7804 C   0  0  0  0  0  0  0  0  0  0  0  0
    3.5399   -1.1044    0.2144 C   0  0  0  0  0  0  0  0  0  0  0  0
   -0.7588    0.3681    1.1197 C   0  0  0  0  0  0  0  0  0  0  0  0
    2.1078    0.6543    1.8386 C   0  0  0  0  0  0  0  0  0  0  0  0
    3.4625    0.8784    1.5926 C   0  0  0  0  0  0  0  0  0  0  0  0
   -2.0943   -0.2612    0.7876 C   0  0  0  0  0  0  0  0  0  0  0  0
   -4.8584   -0.8200    0.0128 C   0  0  0  0  0  0  0  0  0  0  0  0
   -6.4923    1.3143   -0.7344 C   0  0  0  0  0  0  0  0  0  0  0  0
   -4.6533    2.9492   -0.3683 C   0  0  0  0  0  0  0  0  0  0  0  0
   -6.1816   -1.0526   -0.3621 C   0  0  0  0  0  0  0  0  0  0  0  0
   -6.9987    0.0145   -0.7356 C   0  0  0  0  0  0  0  0  0  0  0  0
    1.5664   -2.4858   -1.5226 C   0  0  0  0  0  0  0  0  0  0  0  0
    5.5909    0.2324    0.5240 C   0  0  0  0  0  0  0  0  0  0  0  0
    0.3296   -3.2347   -1.9711 C   0  0  0  0  0  0  0  0  0  0  0  0
    6.0801    0.9749   -0.4869 C   0  0  0  0  0  0  0  0  0  0  0  0
    4.0998   -1.7957   -0.4119 H   0  0  0  0  0  0  0  0  0  0  0  0
   -0.3923    0.8947    0.2296 H   0  0  0  0  0  0  0  0  0  0  0  0
   -0.8919    1.0763    1.9447 H   0  0  0  0  0  0  0  0  0  0  0  0
    1.5649    1.3433    2.4798 H   0  0  0  0  0  0  0  0  0  0  0  0
   -2.7038    1.6567    0.3760 H   0  0  0  0  0  0  0  0  0  0  0  0
    3.9463    1.7418    2.0433 H   0  0  0  0  0  0  0  0  0  0  0  0
   -4.2963   -1.7000    0.2861 H   0  0  0  0  0  0  0  0  0  0  0  0
   -7.1428    2.1337   -1.0284 H   0  0  0  0  0  0  0  0  0  0  0  0
   -5.4222    3.6624   -0.6858 H   0  0  0  0  0  0  0  0  0  0  0  0
   -4.3320    3.2477    0.6351 H   0  0  0  0  0  0  0  0  0  0  0  0
   -3.8153    3.0473   -1.0663 H   0  0  0  0  0  0  0  0  0  0  0  0
   -6.5774   -2.0641   -0.3639 H   0  0  0  0  0  0  0  0  0  0  0  0
   -8.0290   -0.1669   -1.0275 H   0  0  0  0  0  0  0  0  0  0  0  0
    2.4644   -3.0185   -1.8537 H   0  0  0  0  0  0  0  0  0  0  0  0
    1.5636   -1.4842   -1.9704 H   0  0  0  0  0  0  0  0  0  0  0  0
    6.2838   -0.2402    1.2146 H   0  0  0  0  0  0  0  0  0  0  0  0
   -0.5757   -2.7198   -1.6324 H   0  0  0  0  0  0  0  0  0  0  0  0
    0.3067   -4.2386   -1.5345 H   0  0  0  0  0  0  0  0  0  0  0  0
    0.2990   -3.3227   -3.0607 H   0  0  0  0  0  0  0  0  0  0  0  0
    7.1067    1.1899   -0.7361 H   0  0  0  0  0  0  0  0  0  0  0  0
  1  8  1  0  0  0  0
  1 14  1  0  0  0  0
  2  9  1  0  0  0  0
  2 23  1  0  0  0  0
  3 17  2  0  0  0  0
  4  7  1  0  0  0  0
  5  7  2  0  0  0  0
  6 10  1  0  0  0  0
  6 17  1  0  0  0  0
  6 31  1  0  0  0  0
  7 26  1  0  0  0  0
  8  9  2  0  0  0  0
  8 15  1  0  0  0  0
  9 13  1  0  0  0  0
 10 11  1  0  0  0  0
 10 18  2  0  0  0  0
 11 19  2  0  0  0  0
 11 20  1  0  0  0  0
 12 13  2  0  0  0  0
 12 16  1  0  0  0  0
 12 24  1  0  0  0  0
 13 27  1  0  0  0  0
 14 17  1  0  0  0  0
 14 28  1  0  0  0  0
 14 29  1  0  0  0  0
 15 16  2  0  0  0  0
 15 30  1  0  0  0  0
 16 32  1  0  0  0  0
 18 21  1  0  0  0  0
 18 33  1  0  0  0  0
 19 22  1  0  0  0  0
 19 34  1  0  0  0  0
 20 35  1  0  0  0  0
 20 36  1  0  0  0  0
 20 37  1  0  0  0  0
 21 22  2  0  0  0  0
 21 38  1  0  0  0  0
 22 39  1  0  0  0  0
 23 25  1  0  0  0  0
 23 40  1  0  0  0  0
 23 41  1  0  0  0  0
 24 26  2  0  0  0  0
 24 42  1  0  0  0  0
 25 43  1  0  0  0  0
 25 44  1  0  0  0  0
 25 45  1  0  0  0  0
 26 46  1  0  0  0  0
M  CHG  2   4  -1   7   1
M  END
> <PUBCHEM_COMPOUND_CID>
2295300

> <PUBCHEM_CONFORMER_RMSD>
1

> <PUBCHEM_CONFORMER_DIVERSEORDER>
1
4
18
79
42
110
107
77
31
57
27
54
99
97
103
6
73
87
19
15
33
94
85
36
66
5
92
29
51
74
13
11
108
61
49
62
75
46
39
50
58
109
2
34
21
78
81
90
17
63
10
47
22
43
60
80
41
64
8
40
32
98
9
48
59
105
20
38
71
70
65
76
88
35
68
104
37
55
102
26
53
82
91
23
7
106
101
67
14
86
28
89
45
25
56
95
44
69
3
96
84
93
100
24
72
83
52
12
30
16

> <PUBCHEM_MMFF94_PARTIAL_CHARGES>
35
1 -0.36
10 0.12
11 -0.14
12 0.03
13 -0.15
14 0.34
15 -0.15
16 -0.15
17 0.57
18 -0.15
19 -0.15
2 -0.36
20 0.14
21 -0.15
22 -0.15
23 0.28
24 -0.18
26 0.05
27 0.15
3 -0.57
30 0.15
31 0.37
32 0.15
33 0.15
34 0.15
38 0.15
39 0.15
4 -0.52
42 0.15
46 0.15
5 -0.52
6 -0.55
7 0.84
8 0.08
9 0.08

> <PUBCHEM_EFFECTIVE_ROTOR_COUNT>
9

> <PUBCHEM_PHARMACOPHORE_FEATURES>
9
1 1 acceptor
1 2 acceptor
1 3 acceptor
1 4 acceptor
1 4 anion
1 5 acceptor
1 6 donor
6 10 11 18 19 21 22 rings
6 8 9 12 13 15 16 rings

> <PUBCHEM_HEAVY_ATOM_COUNT>
26

> <PUBCHEM_ATOM_DEF_STEREO_COUNT>
0

> <PUBCHEM_ATOM_UDEF_STEREO_COUNT>
0

> <PUBCHEM_BOND_DEF_STEREO_COUNT>
1

> <PUBCHEM_BOND_UDEF_STEREO_COUNT>
0

> <PUBCHEM_ISOTOPIC_ATOM_COUNT>
0

> <PUBCHEM_COMPONENT_COUNT>
1

> <PUBCHEM_CACTVS_TAUTO_COUNT>
4

> <PUBCHEM_CONFORMER_ID>
0023060400000001

> <PUBCHEM_MMFF94_ENERGY>
97.8086

> <PUBCHEM_FEATURE_SELFOVERLAP>
45.767

> <PUBCHEM_SHAPE_FINGERPRINT>
10 15 11891337551688700194
10591671 39 18340771532902680551
10595046 47 18261105249870697459
10688039 33 8286207179355453315
10693767 8 16773520958701286726
11545043 162 9871457739068005979
11646440 116 12901542438288620462
11719270 70 17988349374340856850
12596602 18 16805322206430690369
12730499 353 18131345311055538323
13668630 136 15984814965881000565
13782708 43 9871741395703616705
13836976 161 18201717353931401242
13968360 50 18201717319756863934
14251751 18 10735881655515596749
14347332 77 13758085068927082849
14528608 73 18335700559051925841
14617045 38 17846777417147856439
15082195 135 18413110567357322344
15183329 4 18335422369783628025
15348495 7 7925614627749522125
15420108 30 13841986710264184362
15475509 35 11455893521145320436
15537594 2 16844998053533317879
15961568 22 18186519886795471133
17980427 23 16009036136845612667
18335252 114 18186518805101495940
20465049 17 17203607111857977142
20567600 247 13398632736212265460
20645477 70 17916860219303312123
21150785 3 18113614612832362003
21304303 94 17131838646829551414
21344244 181 15985112937379014918
22393880 68 17489293226809020071
23559900 14 17842550748174072363
23576562 1 18196655322930778028
2838139 119 18260266382290856980
3004659 81 18338792295861160034
33382 64 12463579465302681456
3472631 163 17822012020768228522
4058900 60 18342182124580017283
4325135 7 18259981574398250237
465052 167 10015868678591981832
59755656 215 17846778511784066775
8509985 295 11169917177631319514

> <PUBCHEM_SHAPE_MULTIPOLES>
495.76
17.77
2.72
1.69
14.48
1.12
-0.4
-8.54
-6.19
-0.26
-1.66
-2.24
-0.07
-0.07

> <PUBCHEM_SHAPE_SELFOVERLAP>
1045.103

> <PUBCHEM_SHAPE_VOLUME>
278.4

> <PUBCHEM_COORDINATE_TYPE>
2
5
10

$$$$
