950649
  -OEChem-01171809223D

 43 45  0     0  0  0  0  0  0999 V2000
    2.9993   -0.5450   -0.1312 N   0  0  0  0  0  0  0  0  0  0  0  0
    0.7133    0.0906   -0.0338 N   0  0  0  0  0  0  0  0  0  0  0  0
    0.1274    2.4190    0.1723 N   0  0  0  0  0  0  0  0  0  0  0  0
   -1.5323    0.7638    0.0656 N   0  0  0  0  0  0  0  0  0  0  0  0
    5.1680   -2.4405    0.0032 C   0  0  0  0  0  0  0  0  0  0  0  0
    4.0188   -2.4688    1.0062 C   0  0  0  0  0  0  0  0  0  0  0  0
    5.3751   -1.0270   -0.5310 C   0  0  0  0  0  0  0  0  0  0  0  0
    2.7436   -1.8905    0.3988 C   0  0  0  0  0  0  0  0  0  0  0  0
    4.0855   -0.4465   -1.1118 C   0  0  0  0  0  0  0  0  0  0  0  0
    2.0348    0.4325   -0.0309 C   0  0  0  0  0  0  0  0  0  0  0  0
    2.4410    1.7631    0.0722 C   0  0  0  0  0  0  0  0  0  0  0  0
    1.4444    2.7123    0.1713 C   0  0  0  0  0  0  0  0  0  0  0  0
   -0.1629    1.1081    0.0681 C   0  0  0  0  0  0  0  0  0  0  0  0
   -1.9920   -0.5855   -0.0385 C   0  0  0  0  0  0  0  0  0  0  0  0
    1.8104    4.1541    0.2848 C   0  0  0  0  0  0  0  0  0  0  0  0
   -3.4949   -0.6310   -0.0502 C   0  0  0  0  0  0  0  0  0  0  0  0
   -4.1866   -0.7429    1.1490 C   0  0  0  0  0  0  0  0  0  0  0  0
   -4.1734   -0.5610   -1.2600 C   0  0  0  0  0  0  0  0  0  0  0  0
   -5.5809   -0.7855    1.1382 C   0  0  0  0  0  0  0  0  0  0  0  0
   -5.5675   -0.6035   -1.2709 C   0  0  0  0  0  0  0  0  0  0  0  0
   -6.2712   -0.7158   -0.0717 C   0  0  0  0  0  0  0  0  0  0  0  0
    6.0876   -2.7973    0.4799 H   0  0  0  0  0  0  0  0  0  0  0  0
    4.9491   -3.1211   -0.8285 H   0  0  0  0  0  0  0  0  0  0  0  0
    4.2988   -1.8871    1.8936 H   0  0  0  0  0  0  0  0  0  0  0  0
    3.8392   -3.4976    1.3375 H   0  0  0  0  0  0  0  0  0  0  0  0
    6.1571   -1.0316   -1.2985 H   0  0  0  0  0  0  0  0  0  0  0  0
    5.7276   -0.3824    0.2841 H   0  0  0  0  0  0  0  0  0  0  0  0
    2.3709   -2.5368   -0.4053 H   0  0  0  0  0  0  0  0  0  0  0  0
    1.9764   -1.8669    1.1827 H   0  0  0  0  0  0  0  0  0  0  0  0
    4.2794    0.5849   -1.4260 H   0  0  0  0  0  0  0  0  0  0  0  0
    3.7999   -0.9991   -2.0157 H   0  0  0  0  0  0  0  0  0  0  0  0
    3.4864    2.0503    0.0971 H   0  0  0  0  0  0  0  0  0  0  0  0
   -2.1886    1.5324    0.1463 H   0  0  0  0  0  0  0  0  0  0  0  0
   -1.6158   -1.1877    0.7987 H   0  0  0  0  0  0  0  0  0  0  0  0
   -1.6093   -1.0563   -0.9535 H   0  0  0  0  0  0  0  0  0  0  0  0
    2.3805    4.4726   -0.5938 H   0  0  0  0  0  0  0  0  0  0  0  0
    0.9165    4.7829    0.3530 H   0  0  0  0  0  0  0  0  0  0  0  0
    2.4121    4.3248    1.1831 H   0  0  0  0  0  0  0  0  0  0  0  0
   -3.6588   -0.7960    2.0972 H   0  0  0  0  0  0  0  0  0  0  0  0
   -3.6354   -0.4716   -2.1996 H   0  0  0  0  0  0  0  0  0  0  0  0
   -6.1289   -0.8724    2.0719 H   0  0  0  0  0  0  0  0  0  0  0  0
   -6.1053   -0.5487   -2.2129 H   0  0  0  0  0  0  0  0  0  0  0  0
   -7.3568   -0.7487   -0.0801 H   0  0  0  0  0  0  0  0  0  0  0  0
  1  8  1  0  0  0  0
  1  9  1  0  0  0  0
  1 10  1  0  0  0  0
  2 10  2  0  0  0  0
  2 13  1  0  0  0  0
  3 12  1  0  0  0  0
  3 13  2  0  0  0  0
  4 13  1  0  0  0  0
  4 14  1  0  0  0  0
  4 33  1  0  0  0  0
  5  6  1  0  0  0  0
  5  7  1  0  0  0  0
  5 22  1  0  0  0  0
  5 23  1  0  0  0  0
  6  8  1  0  0  0  0
  6 24  1  0  0  0  0
  6 25  1  0  0  0  0
  7  9  1  0  0  0  0
  7 26  1  0  0  0  0
  7 27  1  0  0  0  0
  8 28  1  0  0  0  0
  8 29  1  0  0  0  0
  9 30  1  0  0  0  0
  9 31  1  0  0  0  0
 10 11  1  0  0  0  0
 11 12  2  0  0  0  0
 11 32  1  0  0  0  0
 12 15  1  0  0  0  0
 14 16  1  0  0  0  0
 14 34  1  0  0  0  0
 14 35  1  0  0  0  0
 15 36  1  0  0  0  0
 15 37  1  0  0  0  0
 15 38  1  0  0  0  0
 16 17  2  0  0  0  0
 16 18  1  0  0  0  0
 17 19  1  0  0  0  0
 17 39  1  0  0  0  0
 18 20  2  0  0  0  0
 18 40  1  0  0  0  0
 19 21  2  0  0  0  0
 19 41  1  0  0  0  0
 20 21  1  0  0  0  0
 20 42  1  0  0  0  0
 21 43  1  0  0  0  0
M  END
> <PUBCHEM_COMPOUND_CID>
950649

> <PUBCHEM_CONFORMER_RMSD>
0.8

> <PUBCHEM_CONFORMER_DIVERSEORDER>
1
23
6
24
28
20
30
17
16
11
13
31
26
5
19
10
12
15
2
27
18
9
29
7
4
14
25
8
3
22
21

> <PUBCHEM_MMFF94_PARTIAL_CHARGES>
25
1 -0.84
10 0.41
11 -0.15
12 0.17
13 0.72
14 0.51
15 0.14
16 -0.14
17 -0.15
18 -0.15
19 -0.15
2 -0.62
20 -0.15
21 -0.15
3 -0.62
32 0.15
33 0.4
39 0.15
4 -0.87
40 0.15
41 0.15
42 0.15
43 0.15
8 0.37
9 0.37

> <PUBCHEM_EFFECTIVE_ROTOR_COUNT>
5.2

> <PUBCHEM_PHARMACOPHORE_FEATURES>
5
1 4 donor
4 2 3 4 13 cation
6 1 5 6 7 8 9 rings
6 16 17 18 19 20 21 rings
6 2 3 10 11 12 13 rings

> <PUBCHEM_HEAVY_ATOM_COUNT>
21

> <PUBCHEM_ATOM_DEF_STEREO_COUNT>
0

> <PUBCHEM_ATOM_UDEF_STEREO_COUNT>
0

> <PUBCHEM_BOND_DEF_STEREO_COUNT>
0

> <PUBCHEM_BOND_UDEF_STEREO_COUNT>
0

> <PUBCHEM_ISOTOPIC_ATOM_COUNT>
0

> <PUBCHEM_COMPONENT_COUNT>
1

> <PUBCHEM_CACTVS_TAUTO_COUNT>
3

> <PUBCHEM_CONFORMER_ID>
000E817900000001

> <PUBCHEM_MMFF94_ENERGY>
63.1286

> <PUBCHEM_FEATURE_SELFOVERLAP>
25.373

> <PUBCHEM_SHAPE_FINGERPRINT>
10411042 1 18339643335351494504
10447042 23 18333729088044446950
11265709 11 18341332206322780032
11796584 16 17385721387345793370
12107183 9 18270973324002178841
12236239 1 17703512172929255387
12516196 113 18411980243602275698
12553582 1 18412820261991102494
12596602 18 16773791506738091299
12616971 3 17917716833788005663
12633257 1 18273497888134850183
12760667 363 18338235959888179747
12841375 25 18411139125823244412
13533116 47 18340770455092489377
13544592 145 18113335340857421491
13631057 29 18265336106601579754
13685833 64 18408326592475722491
13911852 28 18268429036182750214
13955234 65 18268710700085203304
14739800 52 16486120872082940121
14767858 380 18262536848717830326
15042514 8 18051980216689326216
15183329 4 16950559931179799391
15188451 53 16486678247965187903
15537594 2 18411421725992190462
15927050 60 17908989047709480038
17349148 13 17775289374232625583
17844677 252 18411141364092107853
1813 80 18202011997008679972
18222031 100 18201718436009867838
19319366 153 18113617894077567658
19784866 140 18114462279829910267
20028762 73 17917706920424148103
20369508 70 18409728482427166534
20645477 70 18337103583486769629
20832881 197 18334857191073755699
21033650 10 15792006723910498965
21049683 271 18260840336156550788
21267235 1 18339649949680764966
21478907 32 18338797801803420208
221357 26 18261387837111990917
2215653 11 18186795890474112311
22182313 1 18116128091401761333
23559900 14 18336542823945551057
25147074 1 18271544034165379841
3004659 81 17894912884981429610
314173 41 18411425020395344198
314194 84 18410295804552358818
329604 57 18187649063962365470
3421961 26 18411417336588004016
345986 75 18201715103067715603
34797466 226 16370734768064185095
351380 3 18343302548139605615
46194498 28 17385726932343361884
465052 167 18342181067711945246
5281201 14 18260543463806363021
573450 72 17060625529672409495
7471813 234 18059856181582504137
77188 2 18411699855653717676
7970288 3 18340483366125037830
8863177 126 18115318911453282379
9841814 1 18335692862823849176
9971528 1 18272364308441223561

> <PUBCHEM_SHAPE_MULTIPOLES>
412.25
14.23
3.31
1.03
13.59
3.67
0.08
-11.04
1.17
-5.5
-0.73
0.85
-0.34
-0.12

> <PUBCHEM_SHAPE_SELFOVERLAP>
870

> <PUBCHEM_SHAPE_VOLUME>
221.8

> <PUBCHEM_COORDINATE_TYPE>
2
5
10

$$$$
