617341
  -OEChem-01171809443D

 29 31  0     0  0  0  0  0  0999 V2000
   -1.6928   -3.1203    1.6275 Cl  0  0  0  0  0  0  0  0  0  0  0  0
   -0.2909   -3.6771   -0.8802 Cl  0  0  0  0  0  0  0  0  0  0  0  0
   -5.5912    0.8612   -0.1402 Cl  0  0  0  0  0  0  0  0  0  0  0  0
    0.2784    1.3249   -0.0492 N   0  0  0  0  0  0  0  0  0  0  0  0
    0.5010   -1.0744   -0.0205 N   0  0  0  0  0  0  0  0  0  0  0  0
   -1.6873   -0.0489   -0.0660 C   0  0  0  0  0  0  0  0  0  0  0  0
   -1.0609    1.2082   -0.0693 C   0  0  0  0  0  0  0  0  0  0  0  0
   -0.8427   -1.1552   -0.0410 C   0  0  0  0  0  0  0  0  0  0  0  0
    0.9865    0.1775   -0.0260 C   0  0  0  0  0  0  0  0  0  0  0  0
    2.4199    0.3112   -0.0041 C   0  0  0  0  0  0  0  0  0  0  0  0
   -3.0885   -0.1588   -0.0872 C   0  0  0  0  0  0  0  0  0  0  0  0
   -1.8734    2.3390   -0.0941 C   0  0  0  0  0  0  0  0  0  0  0  0
   -1.3819   -2.5496   -0.0329 C   0  0  0  0  0  0  0  0  0  0  0  0
   -3.8762    0.9878   -0.1119 C   0  0  0  0  0  0  0  0  0  0  0  0
   -3.2676    2.2380   -0.1154 C   0  0  0  0  0  0  0  0  0  0  0  0
    3.0145    1.4245    0.5984 C   0  0  0  0  0  0  0  0  0  0  0  0
    3.2284   -0.6713   -0.5845 C   0  0  0  0  0  0  0  0  0  0  0  0
    4.4031    1.5541    0.6200 C   0  0  0  0  0  0  0  0  0  0  0  0
    4.6170   -0.5417   -0.5628 C   0  0  0  0  0  0  0  0  0  0  0  0
    5.2044    0.5710    0.0395 C   0  0  0  0  0  0  0  0  0  0  0  0
   -3.5923   -1.1202   -0.0710 H   0  0  0  0  0  0  0  0  0  0  0  0
   -1.4217    3.3292   -0.0974 H   0  0  0  0  0  0  0  0  0  0  0  0
   -2.3153   -2.6376   -0.5905 H   0  0  0  0  0  0  0  0  0  0  0  0
   -3.8628    3.1475   -0.1348 H   0  0  0  0  0  0  0  0  0  0  0  0
    2.4189    2.2035    1.0686 H   0  0  0  0  0  0  0  0  0  0  0  0
    2.8018   -1.5459   -1.0702 H   0  0  0  0  0  0  0  0  0  0  0  0
    4.8610    2.4192    1.0908 H   0  0  0  0  0  0  0  0  0  0  0  0
    5.2413   -1.3059   -1.0165 H   0  0  0  0  0  0  0  0  0  0  0  0
    6.2856    0.6718    0.0564 H   0  0  0  0  0  0  0  0  0  0  0  0
  1 13  1  0  0  0  0
  2 13  1  0  0  0  0
  3 14  1  0  0  0  0
  4  7  1  0  0  0  0
  4  9  2  0  0  0  0
  5  8  2  0  0  0  0
  5  9  1  0  0  0  0
  6  7  2  0  0  0  0
  6  8  1  0  0  0  0
  6 11  1  0  0  0  0
  7 12  1  0  0  0  0
  8 13  1  0  0  0  0
  9 10  1  0  0  0  0
 10 16  2  0  0  0  0
 10 17  1  0  0  0  0
 11 14  2  0  0  0  0
 11 21  1  0  0  0  0
 12 15  2  0  0  0  0
 12 22  1  0  0  0  0
 13 23  1  0  0  0  0
 14 15  1  0  0  0  0
 15 24  1  0  0  0  0
 16 18  1  0  0  0  0
 16 25  1  0  0  0  0
 17 19  2  0  0  0  0
 17 26  1  0  0  0  0
 18 20  2  0  0  0  0
 18 27  1  0  0  0  0
 19 20  1  0  0  0  0
 19 28  1  0  0  0  0
 20 29  1  0  0  0  0
M  END
> <PUBCHEM_COMPOUND_CID>
617341

> <PUBCHEM_CONFORMER_RMSD>
0.6

> <PUBCHEM_CONFORMER_DIVERSEORDER>
1
3
2

> <PUBCHEM_MMFF94_PARTIAL_CHARGES>
26
1 -0.29
11 -0.15
12 -0.15
13 0.72
14 0.18
15 -0.15
16 -0.15
17 -0.15
18 -0.15
19 -0.15
2 -0.29
20 -0.15
21 0.15
22 0.15
24 0.15
25 0.15
26 0.15
27 0.15
28 0.15
29 0.15
3 -0.18
4 -0.62
5 -0.62
7 0.31
8 0.17
9 0.62

> <PUBCHEM_EFFECTIVE_ROTOR_COUNT>
2

> <PUBCHEM_PHARMACOPHORE_FEATURES>
5
1 5 acceptor
3 4 5 9 cation
6 10 16 17 18 19 20 rings
6 4 5 6 7 8 9 rings
6 6 7 11 12 14 15 rings

> <PUBCHEM_HEAVY_ATOM_COUNT>
20

> <PUBCHEM_ATOM_DEF_STEREO_COUNT>
0

> <PUBCHEM_ATOM_UDEF_STEREO_COUNT>
0

> <PUBCHEM_BOND_DEF_STEREO_COUNT>
0

> <PUBCHEM_BOND_UDEF_STEREO_COUNT>
0

> <PUBCHEM_ISOTOPIC_ATOM_COUNT>
0

> <PUBCHEM_COMPONENT_COUNT>
1

> <PUBCHEM_CACTVS_TAUTO_COUNT>
1

> <PUBCHEM_CONFORMER_ID>
00096B7D00000001

> <PUBCHEM_MMFF94_ENERGY>
57.7393

> <PUBCHEM_FEATURE_SELFOVERLAP>
25.403

> <PUBCHEM_SHAPE_FINGERPRINT>
10319926 262 18268690862670058432
10411042 1 17690278639318555982
10608611 8 18343016740105194224
10616163 171 18338237180207485542
107951 10 18041003937922277770
11405975 8 18336260228483432208
11578080 2 16771529935778336298
12173636 292 18411132502772944220
12236239 1 17385724690354900500
12390115 104 18200046027285095145
12403259 415 18338511950223659381
12500047 106 18412822508458971052
12592029 89 18338517409126651107
12788726 201 18118393184012633690
12969540 114 18263906813877397469
13140716 1 18120380010340286345
13544592 145 18271253725009971622
138480 1 17475797550475499182
14178342 30 18188761873035691410
14787075 74 18273208699528627073
14790565 3 18412550881753534825
15042514 8 18263086677040194835
15131766 46 15865496045517705596
15196674 1 18412824702654671764
15375358 24 18273496780132955468
19591789 44 18267303136117067350
200 152 16988840562198165500
20028762 73 18129665348131813695
20510252 161 18271807891244069793
20602899 9 16343702149002534663
20645477 56 18410855481893492920
20645477 70 17274830108573282492
21033648 29 18337657646795133953
21041028 32 17684938290199459795
21065198 57 18340204189545693176
21236236 1 18341331197491099919
21267235 1 18412270510160769972
21521239 73 17988913453959731335
21521721 280 18272934942813778713
21524375 3 18336828580804390351
22182313 1 18269580323636050383
22224240 67 18410018724260524801
23227448 37 18339921644605551148
23366157 5 17683251261347144455
23402539 116 18341887515655982661
23419403 2 17197469582449739135
23557571 272 18269002053881683742
23558518 356 17828478407844836384
23559900 14 18343021095502335916
23598288 3 18045510964827827847
266924 87 18122336883693527109
2748010 2 18269010802329645767
283562 15 18339641132123709265
3091708 16 9197188786969379059
335352 9 18412545384574502886
34934 24 18335134319596446506
352729 6 18337966665649268999
3545911 37 18342176670314124276
3759504 43 18113337513994958523
43471831 8 18191021210253132883
474229 33 18410292506491663957
495365 180 17274808178422808904
5104073 3 18337949112693158376
5364581 5 17982149422146659464
59755656 215 18338519638747382247
59755656 520 18260542316501455503
6138700 20 17980204089397338486
633830 44 18057599876253166861
69090 78 18342453742410890236
7364860 26 17908422446659440567
81228 2 18118674650504267675
9709674 26 18343023319905161270

> <PUBCHEM_SHAPE_MULTIPOLES>
407.24
9.56
3.38
0.88
4.52
3.36
-0.2
-5.41
0.2
-2.28
-0.22
0
0.58
1.02

> <PUBCHEM_SHAPE_SELFOVERLAP>
872.044

> <PUBCHEM_SHAPE_VOLUME>
225.6

> <PUBCHEM_COORDINATE_TYPE>
2
5
10

$$$$
