1077343
  -OEChem-01171810053D

 57 61  0     0  0  0  0  0  0999 V2000
    1.1609    3.5931   -1.0752 O   0  0  0  0  0  0  0  0  0  0  0  0
    0.3436   -3.1177    0.8090 O   0  0  0  0  0  0  0  0  0  0  0  0
   -2.6604    0.9755    3.1024 O   0  0  0  0  0  0  0  0  0  0  0  0
    1.3740    1.5305    0.9321 N   0  0  0  0  0  0  0  0  0  0  0  0
    2.5102   -2.4526    0.2670 N   0  0  0  0  0  0  0  0  0  0  0  0
    3.0485   -0.1440    0.3192 N   0  0  0  0  0  0  0  0  0  0  0  0
   -3.1954    1.1549    0.8405 N   0  0  0  0  0  0  0  0  0  0  0  0
   -0.3736    3.0782    1.5387 N   0  0  0  0  0  0  0  0  0  0  0  0
    1.7593    0.1733    0.7056 C   0  0  0  0  0  0  0  0  0  0  0  0
    0.8278   -0.7992    0.8786 C   0  0  0  0  0  0  0  0  0  0  0  0
    2.3611    2.6062    0.7578 C   0  0  0  0  0  0  0  0  0  0  0  0
    0.0596    1.8653    1.3205 C   0  0  0  0  0  0  0  0  0  0  0  0
   -0.9471    0.7721    1.5078 C   0  0  0  0  0  0  0  0  0  0  0  0
    3.3882   -1.3787    0.1170 C   0  0  0  0  0  0  0  0  0  0  0  0
   -0.5320   -0.4810    1.2852 C   0  0  0  0  0  0  0  0  0  0  0  0
    1.1876   -2.2354    0.6527 C   0  0  0  0  0  0  0  0  0  0  0  0
    4.8004   -1.6969   -0.3035 C   0  0  0  0  0  0  0  0  0  0  0  0
    2.3445    3.1126   -0.6578 C   0  0  0  0  0  0  0  0  0  0  0  0
   -2.3399    0.9757    1.9139 C   0  0  0  0  0  0  0  0  0  0  0  0
    2.9349   -3.7552    0.0358 C   0  0  0  0  0  0  0  0  0  0  0  0
   -4.6167    1.3710    0.9904 C   0  0  0  0  0  0  0  0  0  0  0  0
    5.1382   -2.9783   -0.5083 C   0  0  0  0  0  0  0  0  0  0  0  0
   -5.3745    0.0441    0.9875 C   0  0  0  0  0  0  0  0  0  0  0  0
    4.1868   -4.0385   -0.3359 C   0  0  0  0  0  0  0  0  0  0  0  0
    5.7632   -0.5633   -0.4744 C   0  0  0  0  0  0  0  0  0  0  0  0
    3.3047    3.1792   -1.6078 C   0  0  0  0  0  0  0  0  0  0  0  0
   -5.2216   -0.7223   -0.3037 C   0  0  0  0  0  0  0  0  0  0  0  0
    2.6696    3.7563   -2.7332 C   0  0  0  0  0  0  0  0  0  0  0  0
    1.3669    3.9898   -2.3586 C   0  0  0  0  0  0  0  0  0  0  0  0
   -6.1269   -0.5096   -1.3316 C   0  0  0  0  0  0  0  0  0  0  0  0
   -4.1784   -1.6250   -0.4390 C   0  0  0  0  0  0  0  0  0  0  0  0
   -5.9857   -1.2177   -2.5249 C   0  0  0  0  0  0  0  0  0  0  0  0
   -4.0372   -2.3330   -1.6325 C   0  0  0  0  0  0  0  0  0  0  0  0
   -4.9408   -2.1293   -2.6755 C   0  0  0  0  0  0  0  0  0  0  0  0
    2.1534    3.4410    1.4387 H   0  0  0  0  0  0  0  0  0  0  0  0
    3.3693    2.2643    1.0224 H   0  0  0  0  0  0  0  0  0  0  0  0
   -1.2252   -1.3075    1.4134 H   0  0  0  0  0  0  0  0  0  0  0  0
    2.2103   -4.5512    0.1677 H   0  0  0  0  0  0  0  0  0  0  0  0
   -4.8017    1.9033    1.9295 H   0  0  0  0  0  0  0  0  0  0  0  0
   -4.9381    2.0113    0.1622 H   0  0  0  0  0  0  0  0  0  0  0  0
    6.1422   -3.2558   -0.8120 H   0  0  0  0  0  0  0  0  0  0  0  0
   -2.8199    1.1363   -0.1037 H   0  0  0  0  0  0  0  0  0  0  0  0
   -6.4392    0.2368    1.1714 H   0  0  0  0  0  0  0  0  0  0  0  0
   -5.0396   -0.5842    1.8235 H   0  0  0  0  0  0  0  0  0  0  0  0
    4.5048   -5.0591   -0.5129 H   0  0  0  0  0  0  0  0  0  0  0  0
    5.4068    0.1302   -1.2430 H   0  0  0  0  0  0  0  0  0  0  0  0
    6.7555   -0.9131   -0.7789 H   0  0  0  0  0  0  0  0  0  0  0  0
    5.8802   -0.0140    0.4654 H   0  0  0  0  0  0  0  0  0  0  0  0
    4.3332    2.8592   -1.5246 H   0  0  0  0  0  0  0  0  0  0  0  0
   -1.3590    3.1062    1.8109 H   0  0  0  0  0  0  0  0  0  0  0  0
    3.1065    3.9743   -3.6970 H   0  0  0  0  0  0  0  0  0  0  0  0
    0.5078    4.4090   -2.8616 H   0  0  0  0  0  0  0  0  0  0  0  0
   -6.9424    0.1999   -1.2247 H   0  0  0  0  0  0  0  0  0  0  0  0
   -3.4741   -1.7984    0.3687 H   0  0  0  0  0  0  0  0  0  0  0  0
   -6.6889   -1.0588   -3.3373 H   0  0  0  0  0  0  0  0  0  0  0  0
   -3.2245   -3.0440   -1.7490 H   0  0  0  0  0  0  0  0  0  0  0  0
   -4.8308   -2.6807   -3.6047 H   0  0  0  0  0  0  0  0  0  0  0  0
  1 18  1  0  0  0  0
  1 29  1  0  0  0  0
  2 16  2  0  0  0  0
  3 19  2  0  0  0  0
  4  9  1  0  0  0  0
  4 11  1  0  0  0  0
  4 12  1  0  0  0  0
  5 14  1  0  0  0  0
  5 16  1  0  0  0  0
  5 20  1  0  0  0  0
  6  9  1  0  0  0  0
  6 14  2  0  0  0  0
  7 19  1  0  0  0  0
  7 21  1  0  0  0  0
  7 42  1  0  0  0  0
  8 12  2  0  0  0  0
  8 50  1  0  0  0  0
  9 10  2  0  0  0  0
 10 15  1  0  0  0  0
 10 16  1  0  0  0  0
 11 18  1  0  0  0  0
 11 35  1  0  0  0  0
 11 36  1  0  0  0  0
 12 13  1  0  0  0  0
 13 15  2  0  0  0  0
 13 19  1  0  0  0  0
 14 17  1  0  0  0  0
 15 37  1  0  0  0  0
 17 22  2  0  0  0  0
 17 25  1  0  0  0  0
 18 26  2  0  0  0  0
 20 24  2  0  0  0  0
 20 38  1  0  0  0  0
 21 23  1  0  0  0  0
 21 39  1  0  0  0  0
 21 40  1  0  0  0  0
 22 24  1  0  0  0  0
 22 41  1  0  0  0  0
 23 27  1  0  0  0  0
 23 43  1  0  0  0  0
 23 44  1  0  0  0  0
 24 45  1  0  0  0  0
 25 46  1  0  0  0  0
 25 47  1  0  0  0  0
 25 48  1  0  0  0  0
 26 28  1  0  0  0  0
 26 49  1  0  0  0  0
 27 30  2  0  0  0  0
 27 31  1  0  0  0  0
 28 29  2  0  0  0  0
 28 51  1  0  0  0  0
 29 52  1  0  0  0  0
 30 32  1  0  0  0  0
 30 53  1  0  0  0  0
 31 33  2  0  0  0  0
 31 54  1  0  0  0  0
 32 34  2  0  0  0  0
 32 55  1  0  0  0  0
 33 34  1  0  0  0  0
 33 56  1  0  0  0  0
 34 57  1  0  0  0  0
M  END
> <PUBCHEM_COMPOUND_CID>
1077343

> <PUBCHEM_CONFORMER_RMSD>
1

> <PUBCHEM_CONFORMER_DIVERSEORDER>
1
23
34
50
67
59
77
76
49
38
66
3
37
56
41
26
54
24
14
52
8
68
19
44
51
70
32
6
15
42
7
43
75
53
78
69
45
73
48
16
71
58
28
2
17
60
47
33
12
63
11
46
62
57
65
29
22
25
55
64
31
18
20
39
5
74
13
9
40
35
61
30
4
72
27
21
36
10

> <PUBCHEM_MMFF94_PARTIAL_CHARGES>
48
1 -0.28
10 0.01
11 0.55
12 0.49
13 0.03
14 0.5
15 -0.15
16 0.62
17 -0.12
18 -0.04
19 0.62
2 -0.57
20 -0.04
21 0.3
22 -0.15
23 0.14
24 -0.15
25 0.14
26 -0.15
27 -0.14
28 -0.15
29 -0.01
3 -0.57
30 -0.15
31 -0.15
32 -0.15
33 -0.15
34 -0.15
37 0.15
38 0.15
4 -0.52
41 0.15
42 0.37
45 0.15
49 0.15
5 -0.23
50 0.4
51 0.15
52 0.15
53 0.15
54 0.15
55 0.15
56 0.15
57 0.15
6 -0.62
7 -0.73
8 -0.85
9 0.27

> <PUBCHEM_EFFECTIVE_ROTOR_COUNT>
7

> <PUBCHEM_PHARMACOPHORE_FEATURES>
11
1 1 acceptor
1 2 acceptor
1 3 acceptor
1 7 donor
1 8 donor
3 4 8 12 cation
5 1 18 26 28 29 rings
6 27 30 31 32 33 34 rings
6 4 9 10 12 13 15 rings
6 5 14 17 20 22 24 rings
6 5 6 9 10 14 16 rings

> <PUBCHEM_HEAVY_ATOM_COUNT>
34

> <PUBCHEM_ATOM_DEF_STEREO_COUNT>
0

> <PUBCHEM_ATOM_UDEF_STEREO_COUNT>
0

> <PUBCHEM_BOND_DEF_STEREO_COUNT>
0

> <PUBCHEM_BOND_UDEF_STEREO_COUNT>
0

> <PUBCHEM_ISOTOPIC_ATOM_COUNT>
0

> <PUBCHEM_COMPONENT_COUNT>
1

> <PUBCHEM_CACTVS_TAUTO_COUNT>
2

> <PUBCHEM_CONFORMER_ID>
0010705F00000001

> <PUBCHEM_MMFF94_ENERGY>
90.3212

> <PUBCHEM_FEATURE_SELFOVERLAP>
55.88

> <PUBCHEM_SHAPE_FINGERPRINT>
10622 236 18129650907987514375
10677394 325 18338242682397735246
10928967 22 17414148342276994231
10930396 42 18042384921439157480
10940486 97 18055639421541253713
11045515 52 18045788892451338376
11227688 84 17982734370827487955
11763715 3 17917724469459637296
12128747 34 12678090868336079011
14068700 675 18201152174852809394
14289585 56 18188205377964253807
14674994 50 17907013972074952965
14747281 78 16950833727250701173
15320294 125 17702945817225420487
16989713 51 17764026870777906662
21223535 225 17677592200144052837
23559900 14 18410574024043774795
24771293 8 18413103966667523040
249057 3 18268710507576370849
25222932 49 16987138629899250929
4353968 344 17975421210112532454
46194498 28 18113608019793805869
5081480 168 17675929785353535629
5223283 242 17897144850994221461
6086070 43 17676481782971573258

> <PUBCHEM_SHAPE_MULTIPOLES>
657.19
13.1
5.61
2.47
13.9
1.63
0.81
-9.19
6.85
-8.26
3.02
2.79
1.75
-4.11

> <PUBCHEM_SHAPE_SELFOVERLAP>
1449.032

> <PUBCHEM_SHAPE_VOLUME>
348.4

> <PUBCHEM_COORDINATE_TYPE>
2
5
10

$$$$
