7110055
  -OEChem-01171809353D

 37 40  0     0  0  0  0  0  0999 V2000
    1.2756   -2.0455   -0.3336 S   0  0  0  0  0  0  0  0  0  0  0  0
   -3.9515   -2.1330   -0.1829 S   0  0  0  0  0  0  0  0  0  0  0  0
   -8.3438    0.6003    0.2263 F   0  0  0  0  0  0  0  0  0  0  0  0
    6.3106   -0.2733    0.3318 O   0  0  0  0  0  0  0  0  0  0  0  0
    6.3258    1.8168   -0.6119 O   0  0  0  0  0  0  0  0  0  0  0  0
   -1.3443   -1.6326   -0.2135 N   0  0  0  0  0  0  0  0  0  0  0  0
    0.0964    0.2334   -0.0728 N   0  0  0  0  0  0  0  0  0  0  0  0
   -2.8361    0.1842    0.0127 N   0  0  0  0  0  0  0  0  0  0  0  0
    2.2730   -0.6432   -0.2254 C   0  0  0  0  0  0  0  0  0  0  0  0
    1.4603    0.4864   -0.0897 C   0  0  0  0  0  0  0  0  0  0  0  0
   -0.1129   -1.0567   -0.1942 C   0  0  0  0  0  0  0  0  0  0  0  0
    4.2554    0.7166   -0.1523 C   0  0  0  0  0  0  0  0  0  0  0  0
    3.6737   -0.5493   -0.2588 C   0  0  0  0  0  0  0  0  0  0  0  0
    2.0739    1.7538    0.0157 C   0  0  0  0  0  0  0  0  0  0  0  0
   -4.9873   -0.7649   -0.0147 C   0  0  0  0  0  0  0  0  0  0  0  0
   -4.2064    0.3913    0.0764 C   0  0  0  0  0  0  0  0  0  0  0  0
   -2.6102   -1.0901   -0.1206 C   0  0  0  0  0  0  0  0  0  0  0  0
    3.4678    1.8545   -0.0168 C   0  0  0  0  0  0  0  0  0  0  0  0
   -6.3899   -0.7180    0.0337 C   0  0  0  0  0  0  0  0  0  0  0  0
   -4.8547    1.6372    0.2213 C   0  0  0  0  0  0  0  0  0  0  0  0
    5.7045    0.8433   -0.1837 C   0  0  0  0  0  0  0  0  0  0  0  0
   -7.0065    0.5275    0.1775 C   0  0  0  0  0  0  0  0  0  0  0  0
   -6.2508    1.6911    0.2704 C   0  0  0  0  0  0  0  0  0  0  0  0
    7.7426   -0.2643    0.3541 C   0  0  0  0  0  0  0  0  0  0  0  0
    8.2347   -1.5656    0.9511 C   0  0  0  0  0  0  0  0  0  0  0  0
    4.2710   -1.4486   -0.3786 H   0  0  0  0  0  0  0  0  0  0  0  0
    1.4678    2.6489    0.1227 H   0  0  0  0  0  0  0  0  0  0  0  0
    3.9216    2.8391    0.0690 H   0  0  0  0  0  0  0  0  0  0  0  0
   -1.3348   -2.6465   -0.3142 H   0  0  0  0  0  0  0  0  0  0  0  0
   -6.9865   -1.6221   -0.0380 H   0  0  0  0  0  0  0  0  0  0  0  0
   -4.2740    2.5524    0.2947 H   0  0  0  0  0  0  0  0  0  0  0  0
   -6.7479    2.6508    0.3819 H   0  0  0  0  0  0  0  0  0  0  0  0
    8.1222   -0.1587   -0.6682 H   0  0  0  0  0  0  0  0  0  0  0  0
    8.0923    0.5778    0.9617 H   0  0  0  0  0  0  0  0  0  0  0  0
    9.3274   -1.5929    0.9831 H   0  0  0  0  0  0  0  0  0  0  0  0
    7.8476   -1.6940    1.9673 H   0  0  0  0  0  0  0  0  0  0  0  0
    7.8765   -2.4180    0.3646 H   0  0  0  0  0  0  0  0  0  0  0  0
  1  9  1  0  0  0  0
  1 11  1  0  0  0  0
  2 15  1  0  0  0  0
  2 17  1  0  0  0  0
  3 22  1  0  0  0  0
  4 21  1  0  0  0  0
  4 24  1  0  0  0  0
  5 21  2  0  0  0  0
  6 11  1  0  0  0  0
  6 17  1  0  0  0  0
  6 29  1  0  0  0  0
  7 10  1  0  0  0  0
  7 11  2  0  0  0  0
  8 16  1  0  0  0  0
  8 17  2  0  0  0  0
  9 10  2  0  0  0  0
  9 13  1  0  0  0  0
 10 14  1  0  0  0  0
 12 13  2  0  0  0  0
 12 18  1  0  0  0  0
 12 21  1  0  0  0  0
 13 26  1  0  0  0  0
 14 18  2  0  0  0  0
 14 27  1  0  0  0  0
 15 16  2  0  0  0  0
 15 19  1  0  0  0  0
 16 20  1  0  0  0  0
 18 28  1  0  0  0  0
 19 22  2  0  0  0  0
 19 30  1  0  0  0  0
 20 23  2  0  0  0  0
 20 31  1  0  0  0  0
 22 23  1  0  0  0  0
 23 32  1  0  0  0  0
 24 25  1  0  0  0  0
 24 33  1  0  0  0  0
 24 34  1  0  0  0  0
 25 35  1  0  0  0  0
 25 36  1  0  0  0  0
 25 37  1  0  0  0  0
M  END
> <PUBCHEM_COMPOUND_CID>
7110055

> <PUBCHEM_CONFORMER_RMSD>
0.8

> <PUBCHEM_CONFORMER_DIVERSEORDER>
1
21
35
26
46
10
17
40
38
44
36
34
45
32
37
16
18
29
9
22
42
7
23
27
41
24
15
33
28
5
12
39
2
20
30
13
19
8
14
6
3
47
4
11
25
43
31

> <PUBCHEM_MMFF94_PARTIAL_CHARGES>
31
1 -0.08
10 0.23
11 0.46
12 0.09
13 -0.15
14 -0.15
15 0.04
16 0.23
17 0.46
18 -0.15
19 -0.15
2 -0.08
20 -0.15
21 0.63
22 0.19
23 -0.15
24 0.28
26 0.15
27 0.15
28 0.15
29 0.4
3 -0.19
30 0.15
31 0.15
32 0.15
4 -0.43
5 -0.57
6 -0.57
7 -0.57
8 -0.57
9 0.04

> <PUBCHEM_EFFECTIVE_ROTOR_COUNT>
5

> <PUBCHEM_PHARMACOPHORE_FEATURES>
8
1 5 acceptor
1 6 donor
3 6 7 11 cation
3 6 8 17 cation
5 1 7 9 10 11 rings
5 2 8 15 16 17 rings
6 15 16 19 20 22 23 rings
6 9 10 12 13 14 18 rings

> <PUBCHEM_HEAVY_ATOM_COUNT>
25

> <PUBCHEM_ATOM_DEF_STEREO_COUNT>
0

> <PUBCHEM_ATOM_UDEF_STEREO_COUNT>
0

> <PUBCHEM_BOND_DEF_STEREO_COUNT>
0

> <PUBCHEM_BOND_UDEF_STEREO_COUNT>
0

> <PUBCHEM_ISOTOPIC_ATOM_COUNT>
0

> <PUBCHEM_COMPONENT_COUNT>
1

> <PUBCHEM_CACTVS_TAUTO_COUNT>
4

> <PUBCHEM_CONFORMER_ID>
006C7DA700000001

> <PUBCHEM_MMFF94_ENERGY>
50.9787

> <PUBCHEM_FEATURE_SELFOVERLAP>
41.122

> <PUBCHEM_SHAPE_FINGERPRINT>
10 15 18187369848059149273
100830 39 18409166584973510413
10299344 5 18186521008092411036
10666366 153 18059867130318980454
10674148 151 18260827108326672514
10730089 173 18343585144788140857
11089746 13 18060415841511484797
11719270 70 18131633370655074070
12236239 1 18335983151242034850
12838862 33 18341597214680065153
13167372 99 18410576197539903396
13685833 64 8574714598324610719
14251764 18 18335137604982657774
14251764 46 18272932722072833226
14257110 125 18411136940201829471
14347424 109 18411975885160003960
14933364 13 18410858776080466613
15183329 4 18343592841147911228
15419008 145 18263073336993398264
15461852 350 17132109186492036823
1577012 14 18338236076416299300
15840311 113 17967255329861300132
15927050 60 18408039636752523074
18335252 98 18341056290010138195
18608769 82 18339929324777209707
19611394 137 17970642985706137611
20281389 69 18334011709434430308
20554085 129 17060327510345343154
21033648 29 18058719338272642584
21130935 74 18338513144994571274
21150785 3 11024104352645734234
21315763 28 18410292549103908679
21774942 28 17202775799542316416
21792934 111 18342728621246639264
22224240 67 15430036586760876217
23081809 10 18262799687441364942
23522609 53 18042428922625373660
23559900 14 18200870781544151249
2838139 119 18272365399790158725
3009799 131 16343703235882103962
3103668 31 18115867395893911292
335352 9 18411702101973516966
350125 39 18410574007048885092
3545911 37 18413672418120388221
397830 11 15069484793572924276
4073 2 18041848423081964330
4325135 7 18273493495047444207
4340502 62 16587739850520893450
5104073 3 18334853978042670722
59755656 215 18342745095902013750
59755656 520 17749387100675262067
6299153 45 18409731716748615338
6328613 192 18262806284369090012

> <PUBCHEM_SHAPE_MULTIPOLES>
488.23
23.68
2.1
0.69
5.36
0.09
-0.03
-3.11
-4.03
-0.01
0.06
0.42
0.06
-1.12

> <PUBCHEM_SHAPE_SELFOVERLAP>
1056.232

> <PUBCHEM_SHAPE_VOLUME>
273.1

> <PUBCHEM_COORDINATE_TYPE>
2
5
10

$$$$
