6875173
  -OEChem-01171810073D

 31 32  0     0  0  0  0  0  0999 V2000
    5.0281    2.0726    0.3927 S   0  0  0  0  0  0  0  0  0  0  0  0
   -3.6239    0.6454   -0.1224 O   0  0  0  0  0  0  0  0  0  0  0  0
    2.1224   -1.8456    0.4801 O   0  0  0  0  0  0  0  0  0  0  0  0
   -7.0795    0.1084   -0.1296 O   0  5  0  0  0  0  0  0  0  0  0  0
   -5.8864    1.9339   -0.3802 O   0  0  0  0  0  0  0  0  0  0  0  0
    0.9377    0.1028    0.0803 N   0  0  0  0  0  0  0  0  0  0  0  0
   -0.2554   -0.5346    0.1473 N   0  0  0  0  0  0  0  0  0  0  0  0
   -5.9528    0.6837   -0.1888 N   0  3  0  0  0  0  0  0  0  0  0  0
    4.6218   -0.3825   -0.2456 C   0  0  0  0  0  0  0  0  0  0  0  0
    3.3651    0.1247    0.1942 C   0  0  0  0  0  0  0  0  0  0  0  0
    5.6132    0.5723   -0.1891 C   0  0  0  0  0  0  0  0  0  0  0  0
    4.8393   -1.7752   -0.7106 C   0  0  0  0  0  0  0  0  0  0  0  0
    3.4438    1.4477    0.5701 C   0  0  0  0  0  0  0  0  0  0  0  0
    7.0427    0.4506   -0.5537 C   0  0  0  0  0  0  0  0  0  0  0  0
    2.1303   -0.6141    0.2579 C   0  0  0  0  0  0  0  0  0  0  0  0
   -2.6589   -0.2636    0.0433 C   0  0  0  0  0  0  0  0  0  0  0  0
   -3.1101   -1.5149    0.2255 C   0  0  0  0  0  0  0  0  0  0  0  0
   -4.7815   -0.0617   -0.0425 C   0  0  0  0  0  0  0  0  0  0  0  0
   -4.5192   -1.3951    0.1709 C   0  0  0  0  0  0  0  0  0  0  0  0
   -1.2767    0.2452    0.0000 C   0  0  0  0  0  0  0  0  0  0  0  0
    4.0654   -2.0743   -1.4254 H   0  0  0  0  0  0  0  0  0  0  0  0
    5.8022   -1.8991   -1.2159 H   0  0  0  0  0  0  0  0  0  0  0  0
    4.8177   -2.4680    0.1370 H   0  0  0  0  0  0  0  0  0  0  0  0
    2.6636    2.0914    0.9523 H   0  0  0  0  0  0  0  0  0  0  0  0
    7.5014   -0.3949   -0.0299 H   0  0  0  0  0  0  0  0  0  0  0  0
    7.1473    0.2823   -1.6308 H   0  0  0  0  0  0  0  0  0  0  0  0
    7.6235    1.3439   -0.3003 H   0  0  0  0  0  0  0  0  0  0  0  0
    0.9256    1.1002   -0.1094 H   0  0  0  0  0  0  0  0  0  0  0  0
   -2.5348   -2.4163    0.3799 H   0  0  0  0  0  0  0  0  0  0  0  0
   -5.2477   -2.1869    0.2748 H   0  0  0  0  0  0  0  0  0  0  0  0
   -1.1686    1.3336   -0.1646 H   0  0  0  0  0  0  0  0  0  0  0  0
  1 11  1  0  0  0  0
  1 13  1  0  0  0  0
  2 16  1  0  0  0  0
  2 18  1  0  0  0  0
  3 15  2  0  0  0  0
  4  8  1  0  0  0  0
  5  8  2  0  0  0  0
  6  7  1  0  0  0  0
  6 15  1  0  0  0  0
  6 28  1  0  0  0  0
  7 20  2  0  0  0  0
  8 18  1  0  0  0  0
  9 10  1  0  0  0  0
  9 11  2  0  0  0  0
  9 12  1  0  0  0  0
 10 13  2  0  0  0  0
 10 15  1  0  0  0  0
 11 14  1  0  0  0  0
 12 21  1  0  0  0  0
 12 22  1  0  0  0  0
 12 23  1  0  0  0  0
 13 24  1  0  0  0  0
 14 25  1  0  0  0  0
 14 26  1  0  0  0  0
 14 27  1  0  0  0  0
 16 17  2  0  0  0  0
 16 20  1  0  0  0  0
 17 19  1  0  0  0  0
 17 29  1  0  0  0  0
 18 19  2  0  0  0  0
 19 30  1  0  0  0  0
 20 31  1  0  0  0  0
M  CHG  2   4  -1   8   1
M  END
> <PUBCHEM_COMPOUND_CID>
6875173

> <PUBCHEM_CONFORMER_RMSD>
0.8

> <PUBCHEM_CONFORMER_DIVERSEORDER>
1
10
6
9
11
5
2
7
4
3
8

> <PUBCHEM_MMFF94_PARTIAL_CHARGES>
25
1 -0.08
10 -0.09
11 -0.14
12 0.18
13 -0.11
14 0.18
15 0.72
16 0.05
17 -0.15
18 0.22
19 -0.15
2 -0.28
20 0.47
24 0.15
28 0.37
29 0.15
3 -0.57
30 0.15
31 0.06
4 -0.52
5 -0.52
6 -0.37
7 -0.51
8 0.96
9 -0.18

> <PUBCHEM_EFFECTIVE_ROTOR_COUNT>
5

> <PUBCHEM_PHARMACOPHORE_FEATURES>
9
1 2 acceptor
1 3 acceptor
1 4 acceptor
1 4 anion
1 5 acceptor
1 6 donor
1 7 acceptor
5 1 9 10 11 13 rings
5 2 16 17 18 19 rings

> <PUBCHEM_HEAVY_ATOM_COUNT>
20

> <PUBCHEM_ATOM_DEF_STEREO_COUNT>
0

> <PUBCHEM_ATOM_UDEF_STEREO_COUNT>
0

> <PUBCHEM_BOND_DEF_STEREO_COUNT>
1

> <PUBCHEM_BOND_UDEF_STEREO_COUNT>
0

> <PUBCHEM_ISOTOPIC_ATOM_COUNT>
0

> <PUBCHEM_COMPONENT_COUNT>
1

> <PUBCHEM_CACTVS_TAUTO_COUNT>
2

> <PUBCHEM_CONFORMER_ID>
0068E82500000001

> <PUBCHEM_MMFF94_ENERGY>
33.9848

> <PUBCHEM_FEATURE_SELFOVERLAP>
45.77

> <PUBCHEM_SHAPE_FINGERPRINT>
10411042 1 18053386501690780310
10968037 39 18409449194126938215
11315181 36 17846785134655065131
11719270 70 18201435849323033926
12091667 2 18335703866772706171
12107183 9 17693946189327765474
12730499 353 18334582330278680842
13167372 99 18342177717668992328
13533116 47 18131069290750609658
13668630 136 16200436883493849884
14251764 46 16805323297151779963
14528608 73 18412260666237970366
14933364 13 18410577296650559045
15048467 5 18334011688001479949
15183329 4 18201723933314753920
15475509 35 12750968646930447788
15716309 27 11169913892461204137
17834072 33 18201718478801382622
17834076 25 17385724698849558283
17844677 252 18341621437804926360
18222031 100 14405185075359916858
20281389 69 18187643583658007053
20645477 56 18187079542951366405
20645477 70 18272938189935882246
21150785 3 16558745745675369301
21315763 28 18410853261479478607
220451 1 16660358203815028162
221357 26 18272653429077042408
22289505 5 18272933830390965912
23559900 14 18341326773125931833
239999 70 18341897381576078686
29717793 49 17418099802024372180
300161 21 18186795877293616315
3004659 81 18411420584036901810
3014965 18 18270962345511972854
34797466 226 18131357422604486253
3545911 37 18408040715014777153
4073 2 18041565844414592762
4214541 1 18410855473392852401
5104073 3 18113899334461626739
542803 24 16950281818967068734
59755656 215 18411704266526439622
59755656 520 17603862343130093458

> <PUBCHEM_SHAPE_MULTIPOLES>
377.02
19.37
1.77
0.69
11.16
0.09
0
4.9
2.81
-0.79
-0.05
-0.36
-0.01
0.95

> <PUBCHEM_SHAPE_SELFOVERLAP>
791.939

> <PUBCHEM_SHAPE_VOLUME>
215.6

> <PUBCHEM_COORDINATE_TYPE>
2
5
10

$$$$
