972247
  -OEChem-01171809183D

 40 42  0     0  0  0  0  0  0999 V2000
    2.8293   -1.3770   -0.0211 S   0  0  0  0  0  0  0  0  0  0  0  0
    2.4208   -1.8778    1.2781 O   0  0  0  0  0  0  0  0  0  0  0  0
    4.0004   -1.9325   -0.6717 O   0  0  0  0  0  0  0  0  0  0  0  0
   -1.8493   -0.6243   -0.1170 N   0  0  0  0  0  0  0  0  0  0  0  0
    1.4822   -1.4142   -1.1169 N   0  0  0  0  0  0  0  0  0  0  0  0
   -1.7365   -1.8151    0.5092 N   0  0  0  0  0  0  0  0  0  0  0  0
    0.1806   -1.2953   -0.6187 C   0  0  0  0  0  0  0  0  0  0  0  0
   -0.7177   -0.2737   -0.8078 C   0  0  0  0  0  0  0  0  0  0  0  0
   -0.5007   -2.2162    0.1995 C   0  0  0  0  0  0  0  0  0  0  0  0
   -3.0206    0.1043   -0.0210 C   0  0  0  0  0  0  0  0  0  0  0  0
   -0.6020    0.9851   -1.5721 C   0  0  0  0  0  0  0  0  0  0  0  0
    3.0864    0.3649    0.1586 C   0  0  0  0  0  0  0  0  0  0  0  0
   -0.0083   -3.5059    0.7162 C   0  0  0  0  0  0  0  0  0  0  0  0
   -2.9824    1.4973   -0.0852 C   0  0  0  0  0  0  0  0  0  0  0  0
   -4.2406   -0.5534    0.1365 C   0  0  0  0  0  0  0  0  0  0  0  0
    2.4218    1.0438    1.1638 C   0  0  0  0  0  0  0  0  0  0  0  0
    3.9466    1.0119   -0.7101 C   0  0  0  0  0  0  0  0  0  0  0  0
   -4.1641    2.2325    0.0083 C   0  0  0  0  0  0  0  0  0  0  0  0
   -5.4223    0.1820    0.2299 C   0  0  0  0  0  0  0  0  0  0  0  0
    2.6240    2.4167    1.3051 C   0  0  0  0  0  0  0  0  0  0  0  0
    4.1489    2.3848   -0.5686 C   0  0  0  0  0  0  0  0  0  0  0  0
   -5.3840    1.5748    0.1658 C   0  0  0  0  0  0  0  0  0  0  0  0
    3.4875    3.0871    0.4391 C   0  0  0  0  0  0  0  0  0  0  0  0
    1.6511   -0.8389   -1.9539 H   0  0  0  0  0  0  0  0  0  0  0  0
   -1.5014    1.2439   -2.1375 H   0  0  0  0  0  0  0  0  0  0  0  0
    0.1769    0.8711   -2.3370 H   0  0  0  0  0  0  0  0  0  0  0  0
   -0.2645    1.8148   -0.9442 H   0  0  0  0  0  0  0  0  0  0  0  0
    0.8497   -3.8763    0.1471 H   0  0  0  0  0  0  0  0  0  0  0  0
    0.2813   -3.4168    1.7678 H   0  0  0  0  0  0  0  0  0  0  0  0
   -0.7897   -4.2714    0.6501 H   0  0  0  0  0  0  0  0  0  0  0  0
   -2.0739    2.0825   -0.0782 H   0  0  0  0  0  0  0  0  0  0  0  0
   -4.3055   -1.6378    0.1790 H   0  0  0  0  0  0  0  0  0  0  0  0
    1.7395    0.5419    1.8427 H   0  0  0  0  0  0  0  0  0  0  0  0
    4.4638    0.4835   -1.5048 H   0  0  0  0  0  0  0  0  0  0  0  0
   -4.1330    3.3180   -0.0129 H   0  0  0  0  0  0  0  0  0  0  0  0
   -6.3726   -0.3298    0.3515 H   0  0  0  0  0  0  0  0  0  0  0  0
    2.1071    2.9640    2.0879 H   0  0  0  0  0  0  0  0  0  0  0  0
    4.8195    2.9077   -1.2442 H   0  0  0  0  0  0  0  0  0  0  0  0
   -6.3034    2.1475    0.2447 H   0  0  0  0  0  0  0  0  0  0  0  0
    3.6439    4.1563    0.5483 H   0  0  0  0  0  0  0  0  0  0  0  0
  1  2  2  0  0  0  0
  1  3  2  0  0  0  0
  1  5  1  0  0  0  0
  1 12  1  0  0  0  0
  4  6  1  0  0  0  0
  4  8  1  0  0  0  0
  4 10  1  0  0  0  0
  5  7  1  0  0  0  0
  5 24  1  0  0  0  0
  6  9  2  0  0  0  0
  7  8  2  0  0  0  0
  7  9  1  0  0  0  0
  8 11  1  0  0  0  0
  9 13  1  0  0  0  0
 10 14  2  0  0  0  0
 10 15  1  0  0  0  0
 11 25  1  0  0  0  0
 11 26  1  0  0  0  0
 11 27  1  0  0  0  0
 12 16  2  0  0  0  0
 12 17  1  0  0  0  0
 13 28  1  0  0  0  0
 13 29  1  0  0  0  0
 13 30  1  0  0  0  0
 14 18  1  0  0  0  0
 14 31  1  0  0  0  0
 15 19  2  0  0  0  0
 15 32  1  0  0  0  0
 16 20  1  0  0  0  0
 16 33  1  0  0  0  0
 17 21  2  0  0  0  0
 17 34  1  0  0  0  0
 18 22  2  0  0  0  0
 18 35  1  0  0  0  0
 19 22  1  0  0  0  0
 19 36  1  0  0  0  0
 20 23  2  0  0  0  0
 20 37  1  0  0  0  0
 21 23  1  0  0  0  0
 21 38  1  0  0  0  0
 22 39  1  0  0  0  0
 23 40  1  0  0  0  0
M  END
> <PUBCHEM_COMPOUND_CID>
972247

> <PUBCHEM_CONFORMER_RMSD>
0.6

> <PUBCHEM_CONFORMER_DIVERSEORDER>
12
19
1
21
26
3
24
2
7
18
6
28
8
23
27
10
25
5
22
14
11
15
13
16
20
9
17
4

> <PUBCHEM_MMFF94_PARTIAL_CHARGES>
34
1 1.45
10 -0.02
11 0.18
12 -0.01
13 0.18
14 -0.15
15 -0.15
16 -0.15
17 -0.15
18 -0.15
19 -0.15
2 -0.65
20 -0.15
21 -0.15
22 -0.15
23 -0.15
24 0.42
3 -0.65
31 0.15
32 0.15
33 0.15
34 0.15
35 0.15
36 0.15
37 0.15
38 0.15
39 0.15
4 0.59
40 0.15
5 -0.7
6 -0.71
7 0.14
8 -0.33
9 0.11

> <PUBCHEM_EFFECTIVE_ROTOR_COUNT>
4

> <PUBCHEM_PHARMACOPHORE_FEATURES>
7
1 2 acceptor
1 3 acceptor
1 5 donor
1 6 acceptor
5 4 6 7 8 9 rings
6 10 14 15 18 19 22 rings
6 12 16 17 20 21 23 rings

> <PUBCHEM_HEAVY_ATOM_COUNT>
23

> <PUBCHEM_ATOM_DEF_STEREO_COUNT>
0

> <PUBCHEM_ATOM_UDEF_STEREO_COUNT>
0

> <PUBCHEM_BOND_DEF_STEREO_COUNT>
0

> <PUBCHEM_BOND_UDEF_STEREO_COUNT>
0

> <PUBCHEM_ISOTOPIC_ATOM_COUNT>
0

> <PUBCHEM_COMPONENT_COUNT>
1

> <PUBCHEM_CACTVS_TAUTO_COUNT>
1

> <PUBCHEM_CONFORMER_ID>
000ED5D70000000C

> <PUBCHEM_MMFF94_ENERGY>
59.6039

> <PUBCHEM_FEATURE_SELFOVERLAP>
35.541

> <PUBCHEM_SHAPE_FINGERPRINT>
10165383 225 18187655704192613676
10366900 7 17968949565230608259
11045977 3 18335425625769128299
11595378 159 16660638519040260349
11796584 16 13696168258364597761
12173636 292 18266452285942156447
12363563 72 9439133090598154752
12403259 226 17972876960424504951
12403259 415 18186801332012897981
12596602 18 16588310539757799713
12617007 42 17987807293991599614
12633257 1 18189315975155763112
12769317 202 18341887450994284333
12788726 201 17703520921388053568
13140716 1 18334009488788755723
13878862 14 18191281820421619205
13965767 371 18042949026032281660
14178342 30 18045215205190349350
14251764 38 18342179912798402177
14466204 15 18121210979290782930
14468879 13 18262522627195006929
14787075 74 18271803571128831731
14848178 96 18411133628328694893
151778 21 18408038511622993680
15238133 3 18411696583014667320
15475509 84 17038100620347849561
17868525 174 17973995155238996856
20775530 9 8212495924303620552
21475661 188 18339918208626374357
21503847 285 18340487768439076918
21756936 100 18198053884330202764
23227448 37 18200871876691811127
23558518 356 18118118306364099986
23559900 14 18200878348896861431
2637199 183 18412830209224848800
340366 18 17560800987961221406
34797466 226 17775012284633704949
350125 39 18334858269152926772
392239 28 18411990131096734281
474 4 18412823564831080345
495365 180 17775278396127230026
5104073 3 18334864888045521161
633830 44 18341326713181071039
6442390 28 18335140924781614891
7808743 9 18119812662567577260
9999458 23 18336547110059506134

> <PUBCHEM_SHAPE_MULTIPOLES>
450.5
10.28
3.56
1.1
8.03
0.64
-0.03
-6.91
0.5
-2.36
0.78
-0.67
-0.1
0.46

> <PUBCHEM_SHAPE_SELFOVERLAP>
965.346

> <PUBCHEM_SHAPE_VOLUME>
250.6

> <PUBCHEM_COORDINATE_TYPE>
2
5
10

$$$$
