5057111
  -OEChem-01171810143D

 48 50  0     1  0  0  0  0  0999 V2000
   -4.3525    0.0515   -2.4280 Br  0  0  0  0  0  0  0  0  0  0  0  0
    4.8039    1.4231    0.6748 O   0  0  0  0  0  0  0  0  0  0  0  0
   -0.4346    1.0543   -0.7241 O   0  0  0  0  0  0  0  0  0  0  0  0
   -2.5777   -0.2470    0.1154 O   0  0  0  0  0  0  0  0  0  0  0  0
   -3.7069   -2.0600    0.9742 O   0  0  0  0  0  0  0  0  0  0  0  0
    3.3546   -0.7782   -0.5349 N   0  0  0  0  0  0  0  0  0  0  0  0
    5.4638    0.2017    0.3016 C   0  0  2  0  0  0  0  0  0  0  0  0
    6.9010    0.5771   -0.0155 C   0  0  0  0  0  0  0  0  0  0  0  0
    4.7357   -0.4419   -0.8624 C   0  0  0  0  0  0  0  0  0  0  0  0
    7.1408    1.7001    0.9620 C   0  0  0  0  0  0  0  0  0  0  0  0
    5.8053    2.4132    0.9529 C   0  0  0  0  0  0  0  0  0  0  0  0
    2.2867    0.0522   -0.7115 C   0  0  0  0  0  0  0  0  0  0  0  0
    2.9470   -1.9685   -0.0073 C   0  0  0  0  0  0  0  0  0  0  0  0
    1.1635   -0.6227   -0.2870 C   0  0  0  0  0  0  0  0  0  0  0  0
    1.5812   -1.9012    0.1584 C   0  0  0  0  0  0  0  0  0  0  0  0
    2.4293    1.4147   -1.2693 C   0  0  0  0  0  0  0  0  0  0  0  0
    3.8840   -3.0699    0.2955 C   0  0  0  0  0  0  0  0  0  0  0  0
   -0.1711   -0.0961   -0.3068 C   0  0  0  0  0  0  0  0  0  0  0  0
   -1.3516   -0.9477    0.1952 C   0  0  0  0  0  0  0  0  0  0  0  0
   -3.6875   -0.9193    0.5386 C   0  0  0  0  0  0  0  0  0  0  0  0
   -4.9038   -0.0786    0.4026 C   0  0  0  0  0  0  0  0  0  0  0  0
   -5.3046    0.4080   -0.8257 C   0  0  0  0  0  0  0  0  0  0  0  0
   -5.6094    0.1896    1.5610 C   0  0  0  0  0  0  0  0  0  0  0  0
   -6.4548    1.1935   -0.9007 C   0  0  0  0  0  0  0  0  0  0  0  0
   -6.7597    0.9751    1.4859 C   0  0  0  0  0  0  0  0  0  0  0  0
   -7.1824    1.4771    0.2551 C   0  0  0  0  0  0  0  0  0  0  0  0
    5.4367   -0.4496    1.1838 H   0  0  0  0  0  0  0  0  0  0  0  0
    7.5951   -0.2594    0.1042 H   0  0  0  0  0  0  0  0  0  0  0  0
    6.9924    0.9562   -1.0406 H   0  0  0  0  0  0  0  0  0  0  0  0
    5.2440   -1.3642   -1.1650 H   0  0  0  0  0  0  0  0  0  0  0  0
    4.7335    0.1920   -1.7538 H   0  0  0  0  0  0  0  0  0  0  0  0
    7.9746    2.3519    0.6886 H   0  0  0  0  0  0  0  0  0  0  0  0
    7.3389    1.2893    1.9590 H   0  0  0  0  0  0  0  0  0  0  0  0
    5.5843    2.9034    1.9051 H   0  0  0  0  0  0  0  0  0  0  0  0
    5.7614    3.1624    0.1554 H   0  0  0  0  0  0  0  0  0  0  0  0
    0.9613   -2.6925    0.5578 H   0  0  0  0  0  0  0  0  0  0  0  0
    2.0370    2.1510   -0.5588 H   0  0  0  0  0  0  0  0  0  0  0  0
    1.8480    1.4999   -2.1942 H   0  0  0  0  0  0  0  0  0  0  0  0
    3.4444    1.7297   -1.5101 H   0  0  0  0  0  0  0  0  0  0  0  0
    4.6852   -2.7430    0.9650 H   0  0  0  0  0  0  0  0  0  0  0  0
    3.3632   -3.8964    0.7912 H   0  0  0  0  0  0  0  0  0  0  0  0
    4.3301   -3.4681   -0.6214 H   0  0  0  0  0  0  0  0  0  0  0  0
   -1.4055   -1.8487   -0.4265 H   0  0  0  0  0  0  0  0  0  0  0  0
   -1.1543   -1.2167    1.2391 H   0  0  0  0  0  0  0  0  0  0  0  0
   -5.2873   -0.1952    2.5244 H   0  0  0  0  0  0  0  0  0  0  0  0
   -6.8001    1.5936   -1.8507 H   0  0  0  0  0  0  0  0  0  0  0  0
   -7.3260    1.1962    2.3858 H   0  0  0  0  0  0  0  0  0  0  0  0
   -8.0780    2.0887    0.1970 H   0  0  0  0  0  0  0  0  0  0  0  0
  1 22  1  0  0  0  0
  2  7  1  0  0  0  0
  2 11  1  0  0  0  0
  3 18  2  0  0  0  0
  4 19  1  0  0  0  0
  4 20  1  0  0  0  0
  5 20  2  0  0  0  0
  6  9  1  0  0  0  0
  6 12  1  0  0  0  0
  6 13  1  0  0  0  0
  7  8  1  0  0  0  0
  7  9  1  0  0  0  0
  7 27  1  0  0  0  0
  8 10  1  0  0  0  0
  8 28  1  0  0  0  0
  8 29  1  0  0  0  0
  9 30  1  0  0  0  0
  9 31  1  0  0  0  0
 10 11  1  0  0  0  0
 10 32  1  0  0  0  0
 10 33  1  0  0  0  0
 11 34  1  0  0  0  0
 11 35  1  0  0  0  0
 12 14  2  0  0  0  0
 12 16  1  0  0  0  0
 13 15  2  0  0  0  0
 13 17  1  0  0  0  0
 14 15  1  0  0  0  0
 14 18  1  0  0  0  0
 15 36  1  0  0  0  0
 16 37  1  0  0  0  0
 16 38  1  0  0  0  0
 16 39  1  0  0  0  0
 17 40  1  0  0  0  0
 17 41  1  0  0  0  0
 17 42  1  0  0  0  0
 18 19  1  0  0  0  0
 19 43  1  0  0  0  0
 19 44  1  0  0  0  0
 20 21  1  0  0  0  0
 21 22  1  0  0  0  0
 21 23  2  0  0  0  0
 22 24  2  0  0  0  0
 23 25  1  0  0  0  0
 23 45  1  0  0  0  0
 24 26  1  0  0  0  0
 24 46  1  0  0  0  0
 25 26  2  0  0  0  0
 25 47  1  0  0  0  0
 26 48  1  0  0  0  0
M  END
> <PUBCHEM_COMPOUND_CID>
5057111

> <PUBCHEM_CONFORMER_RMSD>
1.2

> <PUBCHEM_CONFORMER_DIVERSEORDER>
4
196
236
36
184
79
181
176
170
52
243
183
13
33
103
3
242
195
54
57
208
140
24
147
199
244
180
239
8
100
179
172
92
47
63
202
29
11
123
71
174
127
146
17
35
14
145
81
215
82
162
192
128
40
114
106
200
211
219
53
1
185
68
21
197
139
32
130
59
10
56
124
157
122
38
194
227
76
99
173
178
115
86
116
235
70
69
142
156
161
225
112
118
120
221
62
27
168
42
34
107
224
98
214
73
169
210
64
45
96
129
238
43
137
144
217
78
65
159
134
74
153
230
141
85
61
44
104
110
154
232
51
188
84
113
191
22
151
89
203
25
177
229
6
245
60
148
160
111
19
90
136
212
121
37
220
105
31
206
55
167
20
94
75
152
88
213
131
49
228
72
138
58
218
171
93
190
46
66
234
237
2
182
198
109
119
216
77
91
41
149
209
12
201
117
164
101
5
204
205
222
231
126
133
87
9
26
165
163
207
166
48
186
102
39
193
233
155
240
189
97
125
15
135
175
16
158
80
83
241
223
108
67
28
7
30
23
95
226
50
187
150
132
18
143

> <PUBCHEM_MMFF94_PARTIAL_CHARGES>
29
1 -0.11
11 0.28
12 -0.33
13 -0.33
14 -0.09
15 -0.15
16 0.18
17 0.18
18 0.6
19 0.34
2 -0.56
20 0.63
21 0.09
22 0.11
23 -0.15
24 -0.15
25 -0.15
26 -0.15
3 -0.57
36 0.15
4 -0.43
45 0.15
46 0.15
47 0.15
48 0.15
5 -0.57
6 0.05
7 0.28
9 0.26

> <PUBCHEM_EFFECTIVE_ROTOR_COUNT>
8

> <PUBCHEM_PHARMACOPHORE_FEATURES>
8
1 1 hydrophobe
1 2 acceptor
1 3 acceptor
1 5 acceptor
1 6 cation
5 2 7 8 10 11 rings
5 6 12 13 14 15 rings
6 21 22 23 24 25 26 rings

> <PUBCHEM_HEAVY_ATOM_COUNT>
26

> <PUBCHEM_ATOM_DEF_STEREO_COUNT>
0

> <PUBCHEM_ATOM_UDEF_STEREO_COUNT>
1

> <PUBCHEM_BOND_DEF_STEREO_COUNT>
0

> <PUBCHEM_BOND_UDEF_STEREO_COUNT>
0

> <PUBCHEM_ISOTOPIC_ATOM_COUNT>
0

> <PUBCHEM_COMPONENT_COUNT>
1

> <PUBCHEM_CACTVS_TAUTO_COUNT>
2

> <PUBCHEM_CONFORMER_ID>
004D2A5700000004

> <PUBCHEM_MMFF94_ENERGY>
56.8576

> <PUBCHEM_FEATURE_SELFOVERLAP>
40.597

> <PUBCHEM_SHAPE_FINGERPRINT>
10 15 17312827095034240285
10411042 1 17837213676474719550
10693767 8 9078851653771723196
10835480 77 18410853257163399467
11089746 13 17775283884742207753
11297750 10 17826790340402233390
11315181 36 13398629455495404947
11646440 116 18113900459495579596
12236239 1 17846498123623947335
12516196 113 18341896281779250373
12616971 3 16805328833264644911
13073987 5 18114745911196668813
13533116 47 18337674096841189314
13668630 136 9223226339349489897
13782708 43 10303814284814818965
15183329 4 18040438785040205173
15276724 80 18200594679624606385
15352257 5 11746936490400368481
15475509 35 16733535006865929650
1577012 14 17917428693000868215
16079462 125 18260822700556031215
16994733 274 16987988522976690704
18335252 114 16988565715321402384
20511986 3 18411694392143743131
21033648 144 18410285909501285447
21033648 29 17676482801442915253
21130935 74 18335707105226183243
21150785 3 17275100648442015709
21792934 111 18042116579148318080
21859007 373 17459175288653114885
23081809 10 15984829194596267367
23559900 14 18407761447387480123
24771293 8 18338512075547714604
255183 451 17272304444787520310
300161 21 18410856555751393971
328310 630 18060426845508120681
394071 54 18412549807910853936
4073 2 18334299811308471122
4093350 32 17917436393323647694
4169191 19 18412263977531811225
4340502 62 17675924292217081330
5104073 3 18042681702513641920
6328613 192 17775566450846405025
9995097 60 18186802478484069295

> <PUBCHEM_SHAPE_MULTIPOLES>
512.55
21.7
2.25
1.44
5.13
0.77
-0.47
-11.92
4.79
-3.39
0.59
2.17
-0.28
0.89

> <PUBCHEM_SHAPE_SELFOVERLAP>
1080.104

> <PUBCHEM_SHAPE_VOLUME>
294.2

> <PUBCHEM_COORDINATE_TYPE>
2
5
10

$$$$
