1741763
  -OEChem-01171809263D

 55 58  0     0  0  0  0  0  0999 V2000
   -3.4844    3.0079    1.8686 S   0  0  0  0  0  0  0  0  0  0  0  0
   -7.4477   -0.0815   -1.5368 F   0  0  0  0  0  0  0  0  0  0  0  0
   -6.1880   -1.5225   -2.5677 F   0  0  0  0  0  0  0  0  0  0  0  0
   -6.8707   -1.9316   -0.5382 F   0  0  0  0  0  0  0  0  0  0  0  0
    7.2165    1.3733   -2.8029 O   0  0  0  0  0  0  0  0  0  0  0  0
    2.3262   -3.3458    1.1122 O   0  0  0  0  0  0  0  0  0  0  0  0
    6.3181    0.2523   -0.3457 N   0  0  0  0  0  0  0  0  0  0  0  0
    2.9253   -1.2529    1.9136 N   0  0  0  0  0  0  0  0  0  0  0  0
   -3.0742   -0.2122   -0.0366 N   0  0  0  0  0  0  0  0  0  0  0  0
   -4.0603   -0.9743   -0.5397 N   0  0  0  0  0  0  0  0  0  0  0  0
    5.3322    0.0900    0.7207 C   0  0  0  0  0  0  0  0  0  0  0  0
    6.7649    1.6494   -0.4350 C   0  0  0  0  0  0  0  0  0  0  0  0
    5.7672   -0.1837   -1.6364 C   0  0  0  0  0  0  0  0  0  0  0  0
    5.2724   -1.3716    1.1678 C   0  0  0  0  0  0  0  0  0  0  0  0
    7.7830    1.7968   -1.5622 C   0  0  0  0  0  0  0  0  0  0  0  0
    6.8096    0.0062   -2.7346 C   0  0  0  0  0  0  0  0  0  0  0  0
    4.2684   -1.5934    2.2954 C   0  0  0  0  0  0  0  0  0  0  0  0
    2.0509   -2.1716    1.3444 C   0  0  0  0  0  0  0  0  0  0  0  0
    0.7057   -1.6562    0.9815 C   0  0  0  0  0  0  0  0  0  0  0  0
   -1.8214   -0.6904    0.3005 C   0  0  0  0  0  0  0  0  0  0  0  0
   -3.6292    1.0011    0.0233 C   0  0  0  0  0  0  0  0  0  0  0  0
   -0.0166   -2.2580   -0.0490 C   0  0  0  0  0  0  0  0  0  0  0  0
    0.1642   -0.5715    1.6716 C   0  0  0  0  0  0  0  0  0  0  0  0
   -1.2802   -1.7752   -0.3895 C   0  0  0  0  0  0  0  0  0  0  0  0
   -1.0992   -0.0886    1.3310 C   0  0  0  0  0  0  0  0  0  0  0  0
   -4.9593    1.0138   -0.4378 C   0  0  0  0  0  0  0  0  0  0  0  0
   -5.2104   -0.2877   -0.7975 C   0  0  0  0  0  0  0  0  0  0  0  0
   -2.9174    2.1355    0.5086 C   0  0  0  0  0  0  0  0  0  0  0  0
   -6.3998   -0.9391   -1.3496 C   0  0  0  0  0  0  0  0  0  0  0  0
   -1.7532    2.6691    0.0008 C   0  0  0  0  0  0  0  0  0  0  0  0
   -1.3211    3.8091    0.7382 C   0  0  0  0  0  0  0  0  0  0  0  0
   -2.1714    4.1034    1.7813 C   0  0  0  0  0  0  0  0  0  0  0  0
    4.3476    0.4625    0.4123 H   0  0  0  0  0  0  0  0  0  0  0  0
    5.6295    0.6819    1.5967 H   0  0  0  0  0  0  0  0  0  0  0  0
    7.2338    1.9623    0.5049 H   0  0  0  0  0  0  0  0  0  0  0  0
    5.9088    2.3098   -0.6258 H   0  0  0  0  0  0  0  0  0  0  0  0
    4.8711    0.4001   -1.8854 H   0  0  0  0  0  0  0  0  0  0  0  0
    5.4863   -1.2411   -1.6169 H   0  0  0  0  0  0  0  0  0  0  0  0
    4.9985   -2.0245    0.3317 H   0  0  0  0  0  0  0  0  0  0  0  0
    6.2636   -1.6924    1.5124 H   0  0  0  0  0  0  0  0  0  0  0  0
    8.6954    1.2220   -1.3613 H   0  0  0  0  0  0  0  0  0  0  0  0
    8.0708    2.8475   -1.6695 H   0  0  0  0  0  0  0  0  0  0  0  0
    6.3809   -0.2615   -3.7057 H   0  0  0  0  0  0  0  0  0  0  0  0
    7.6883   -0.6302   -2.5733 H   0  0  0  0  0  0  0  0  0  0  0  0
    4.2973   -2.6420    2.6113 H   0  0  0  0  0  0  0  0  0  0  0  0
    4.5266   -0.9768    3.1629 H   0  0  0  0  0  0  0  0  0  0  0  0
    2.6536   -0.2817    2.0222 H   0  0  0  0  0  0  0  0  0  0  0  0
    0.3906   -3.1001   -0.6023 H   0  0  0  0  0  0  0  0  0  0  0  0
    0.6720   -0.1081    2.5124 H   0  0  0  0  0  0  0  0  0  0  0  0
   -1.8178   -2.2575   -1.2021 H   0  0  0  0  0  0  0  0  0  0  0  0
   -1.5032    0.6878    1.9684 H   0  0  0  0  0  0  0  0  0  0  0  0
   -5.6104    1.8755   -0.4878 H   0  0  0  0  0  0  0  0  0  0  0  0
   -1.2306    2.2747   -0.8623 H   0  0  0  0  0  0  0  0  0  0  0  0
   -0.4327    4.3849    0.5140 H   0  0  0  0  0  0  0  0  0  0  0  0
   -2.0844    4.9096    2.4960 H   0  0  0  0  0  0  0  0  0  0  0  0
  1 28  1  0  0  0  0
  1 32  1  0  0  0  0
  2 29  1  0  0  0  0
  3 29  1  0  0  0  0
  4 29  1  0  0  0  0
  5 15  1  0  0  0  0
  5 16  1  0  0  0  0
  6 18  2  0  0  0  0
  7 11  1  0  0  0  0
  7 12  1  0  0  0  0
  7 13  1  0  0  0  0
  8 17  1  0  0  0  0
  8 18  1  0  0  0  0
  8 47  1  0  0  0  0
  9 10  1  0  0  0  0
  9 20  1  0  0  0  0
  9 21  1  0  0  0  0
 10 27  2  0  0  0  0
 11 14  1  0  0  0  0
 11 33  1  0  0  0  0
 11 34  1  0  0  0  0
 12 15  1  0  0  0  0
 12 35  1  0  0  0  0
 12 36  1  0  0  0  0
 13 16  1  0  0  0  0
 13 37  1  0  0  0  0
 13 38  1  0  0  0  0
 14 17  1  0  0  0  0
 14 39  1  0  0  0  0
 14 40  1  0  0  0  0
 15 41  1  0  0  0  0
 15 42  1  0  0  0  0
 16 43  1  0  0  0  0
 16 44  1  0  0  0  0
 17 45  1  0  0  0  0
 17 46  1  0  0  0  0
 18 19  1  0  0  0  0
 19 22  2  0  0  0  0
 19 23  1  0  0  0  0
 20 24  2  0  0  0  0
 20 25  1  0  0  0  0
 21 26  2  0  0  0  0
 21 28  1  0  0  0  0
 22 24  1  0  0  0  0
 22 48  1  0  0  0  0
 23 25  2  0  0  0  0
 23 49  1  0  0  0  0
 24 50  1  0  0  0  0
 25 51  1  0  0  0  0
 26 27  1  0  0  0  0
 26 52  1  0  0  0  0
 27 29  1  0  0  0  0
 28 30  2  0  0  0  0
 30 31  1  0  0  0  0
 30 53  1  0  0  0  0
 31 32  2  0  0  0  0
 31 54  1  0  0  0  0
 32 55  1  0  0  0  0
M  END
> <PUBCHEM_COMPOUND_CID>
1741763

> <PUBCHEM_CONFORMER_RMSD>
1

> <PUBCHEM_CONFORMER_DIVERSEORDER>
1
57
27
24
18
76
21
45
54
19
51
48
97
95
83
93
39
38
100
88
13
28
4
62
44
14
42
72
58
43
9
78
6
87
66
25
71
81
29
92
22
47
36
67
35
56
106
103
15
40
55
90
82
94
75
16
104
63
17
85
3
59
50
52
98
65
41
7
11
30
32
91
101
68
70
102
64
23
20
37
96
74
86
84
61
79
8
12
99
26
73
5
2
53
31
10
49
69
89
60
34
33
46
105
80
77

> <PUBCHEM_MMFF94_PARTIAL_CHARGES>
40
1 -0.08
10 -0.71
11 0.27
12 0.27
13 0.27
15 0.28
16 0.28
17 0.3
18 0.54
19 0.09
2 -0.34
20 -0.02
21 -0.15
22 -0.15
23 -0.15
24 -0.15
25 -0.15
26 -0.15
27 0.11
28 0.04
29 1.2
3 -0.34
30 -0.15
31 -0.15
32 -0.11
4 -0.34
47 0.37
48 0.15
49 0.15
5 -0.56
50 0.15
51 0.15
52 0.15
53 0.15
54 0.15
55 0.15
6 -0.57
7 -0.81
8 -0.73
9 0.59

> <PUBCHEM_EFFECTIVE_ROTOR_COUNT>
10.2

> <PUBCHEM_PHARMACOPHORE_FEATURES>
9
1 10 acceptor
1 5 acceptor
1 6 acceptor
1 7 cation
1 8 donor
5 1 28 30 31 32 rings
5 9 10 21 26 27 rings
6 19 20 22 23 24 25 rings
6 5 7 12 13 15 16 rings

> <PUBCHEM_HEAVY_ATOM_COUNT>
32

> <PUBCHEM_ATOM_DEF_STEREO_COUNT>
0

> <PUBCHEM_ATOM_UDEF_STEREO_COUNT>
0

> <PUBCHEM_BOND_DEF_STEREO_COUNT>
0

> <PUBCHEM_BOND_UDEF_STEREO_COUNT>
0

> <PUBCHEM_ISOTOPIC_ATOM_COUNT>
0

> <PUBCHEM_COMPONENT_COUNT>
1

> <PUBCHEM_CACTVS_TAUTO_COUNT>
2

> <PUBCHEM_CONFORMER_ID>
001A93C300000001

> <PUBCHEM_MMFF94_ENERGY>
75.7361

> <PUBCHEM_FEATURE_SELFOVERLAP>
45.672

> <PUBCHEM_SHAPE_FINGERPRINT>
10319688 67 12179841706251571973
10533779 1 17459754916629984380
10670039 82 18341895143765774600
11387372 6 14548727448406911085
131258 43 17916582201891118025
13383665 225 18058458621305779413
13782708 43 16486963003563533559
13911987 19 18334571348321617683
14400156 162 14117527571174883991
14400156 266 17775278349801189141
14415361 349 16915917713472106351
14556957 393 18335129848462054653
14767858 380 18335975428484882171
14840074 17 17604161358853220820
14931854 50 18408323289609046156
15163728 17 18268724813906555994
15183329 4 18341618109922417312
15357212 105 17769954384600505041
15685185 35 17823987929896488908
15705408 1 17908956015237859197
16991971 28 17987225802865029663
21033648 29 14634874128080804586
21049683 271 18334849568034507581
21362857 166 18200868483905953566
21641784 216 18341605980259917289
21796203 349 18268726068570153235
23516275 100 18126553755874517504
23522609 53 18269284469298347609
249057 25 18261948527997225482
34797466 226 17203035379297673202
3552219 110 18335144176968656817
3918712 181 18042123323260602580
4258327 124 17240771721579059906
46194498 28 17060044978821710208
513202 73 13542466440710738611
6058803 2 18049435938113467467
6608658 132 18410294688003247620
6636735 143 13767933450628340328
6700243 42 17560806489729670964
70634741 139 17313107501376848299

> <PUBCHEM_SHAPE_MULTIPOLES>
608.91
20.81
3.92
2.4
20.33
3.33
-0.74
2.08
-17.21
-2.67
1.82
2.88
-0.18
-5.74

> <PUBCHEM_SHAPE_SELFOVERLAP>
1298.27

> <PUBCHEM_SHAPE_VOLUME>
343.2

> <PUBCHEM_COORDINATE_TYPE>
2
5
10

$$$$
