3120536
  -OEChem-01171809583D

 25 26  0     0  0  0  0  0  0999 V2000
   -1.5942    2.7392    0.1937 Cl  0  0  0  0  0  0  0  0  0  0  0  0
   -1.5131   -2.7200    0.2603 Cl  0  0  0  0  0  0  0  0  0  0  0  0
   -0.0162    0.0505    1.8288 O   0  0  0  0  0  0  0  0  0  0  0  0
    0.6744    0.0119   -0.4133 N   0  0  0  0  0  0  0  0  0  0  0  0
    4.8528   -0.0083   -0.0998 N   0  0  0  0  0  0  0  0  0  0  0  0
   -1.6693    0.0077    0.1928 C   0  0  0  0  0  0  0  0  0  0  0  0
   -0.2707    0.0336    0.6174 C   0  0  0  0  0  0  0  0  0  0  0  0
    2.0869    0.0046   -0.3072 C   0  0  0  0  0  0  0  0  0  0  0  0
   -2.3553    1.2029   -0.0228 C   0  0  0  0  0  0  0  0  0  0  0  0
   -2.3185   -1.2126    0.0057 C   0  0  0  0  0  0  0  0  0  0  0  0
   -3.6905    1.1779   -0.4257 C   0  0  0  0  0  0  0  0  0  0  0  0
   -3.6536   -1.2377   -0.3974 C   0  0  0  0  0  0  0  0  0  0  0  0
   -4.3396   -0.0424   -0.6129 C   0  0  0  0  0  0  0  0  0  0  0  0
    2.6716    0.0201    0.9424 C   0  0  0  0  0  0  0  0  0  0  0  0
    2.8513   -0.0173   -1.4557 C   0  0  0  0  0  0  0  0  0  0  0  0
    4.0562    0.0127    0.9924 C   0  0  0  0  0  0  0  0  0  0  0  0
    4.2278   -0.0229   -1.2986 C   0  0  0  0  0  0  0  0  0  0  0  0
    0.3150   -0.0044   -1.3658 H   0  0  0  0  0  0  0  0  0  0  0  0
   -4.2397    2.1001   -0.5985 H   0  0  0  0  0  0  0  0  0  0  0  0
   -4.1746   -2.1799   -0.5479 H   0  0  0  0  0  0  0  0  0  0  0  0
   -5.3792   -0.0620   -0.9267 H   0  0  0  0  0  0  0  0  0  0  0  0
    2.1515    0.0373    1.8867 H   0  0  0  0  0  0  0  0  0  0  0  0
    2.4096   -0.0296   -2.4458 H   0  0  0  0  0  0  0  0  0  0  0  0
    4.5787    0.0240    1.9433 H   0  0  0  0  0  0  0  0  0  0  0  0
    4.8853   -0.0396   -2.1616 H   0  0  0  0  0  0  0  0  0  0  0  0
  1  9  1  0  0  0  0
  2 10  1  0  0  0  0
  3  7  2  0  0  0  0
  4  7  1  0  0  0  0
  4  8  1  0  0  0  0
  4 18  1  0  0  0  0
  5 16  2  0  0  0  0
  5 17  1  0  0  0  0
  6  7  1  0  0  0  0
  6  9  2  0  0  0  0
  6 10  1  0  0  0  0
  8 14  2  0  0  0  0
  8 15  1  0  0  0  0
  9 11  1  0  0  0  0
 10 12  2  0  0  0  0
 11 13  2  0  0  0  0
 11 19  1  0  0  0  0
 12 13  1  0  0  0  0
 12 20  1  0  0  0  0
 13 21  1  0  0  0  0
 14 16  1  0  0  0  0
 14 22  1  0  0  0  0
 15 17  2  0  0  0  0
 15 23  1  0  0  0  0
 16 24  1  0  0  0  0
 17 25  1  0  0  0  0
M  END
> <PUBCHEM_COMPOUND_CID>
3120536

> <PUBCHEM_CONFORMER_RMSD>
0.6

> <PUBCHEM_CONFORMER_DIVERSEORDER>
1
2

> <PUBCHEM_MMFF94_PARTIAL_CHARGES>
25
1 -0.18
10 0.18
11 -0.15
12 -0.15
13 -0.15
14 -0.15
15 -0.15
16 0.16
17 0.16
18 0.37
19 0.15
2 -0.18
20 0.15
21 0.15
22 0.15
23 0.15
24 0.15
25 0.15
3 -0.57
4 -0.55
5 -0.62
6 0.09
7 0.54
8 0.12
9 0.18

> <PUBCHEM_EFFECTIVE_ROTOR_COUNT>
3

> <PUBCHEM_PHARMACOPHORE_FEATURES>
5
1 3 acceptor
1 4 donor
1 5 acceptor
6 5 8 14 15 16 17 rings
6 6 9 10 11 12 13 rings

> <PUBCHEM_HEAVY_ATOM_COUNT>
17

> <PUBCHEM_ATOM_DEF_STEREO_COUNT>
0

> <PUBCHEM_ATOM_UDEF_STEREO_COUNT>
0

> <PUBCHEM_BOND_DEF_STEREO_COUNT>
0

> <PUBCHEM_BOND_UDEF_STEREO_COUNT>
0

> <PUBCHEM_ISOTOPIC_ATOM_COUNT>
0

> <PUBCHEM_COMPONENT_COUNT>
1

> <PUBCHEM_CACTVS_TAUTO_COUNT>
3

> <PUBCHEM_CONFORMER_ID>
002F9D9800000001

> <PUBCHEM_MMFF94_ENERGY>
54.0386

> <PUBCHEM_FEATURE_SELFOVERLAP>
25.371

> <PUBCHEM_SHAPE_FINGERPRINT>
10366900 7 17846501439396578862
12119455 92 14201394988908362609
12173636 292 18266453218287825885
12236239 1 17603862295626229755
12500047 106 18411133632581321278
13296908 3 17275107219298814672
14386348 63 17561084726137457950
15309172 13 14923946742897616137
15375358 24 17846495954565268222
15961568 22 18266170807431237968
16752209 62 18335409158774740851
17870717 6 18201171987178464342
18186145 218 17988927738530112993
187816 3 18410570691570898759
19141452 34 17417530328253284751
19489759 90 18342172246265233152
200 152 17894628170997464822
20279233 1 17846501443591481894
20300324 65 18408606958976291853
20645476 183 17894625981060522875
20645477 56 18411423877717726529
20645477 70 16630251312336295134
20871999 31 18342177760866357517
21079973 296 18130784594226140910
22094290 60 18341895177619233937
2297311 6 18342186573864786645
23175994 123 17203892980928993249
23366157 5 17681834008134159043
23402539 116 18411972560016371365
23402655 69 17313105267718995078
23557571 272 18201999919592655744
23559900 14 18272651225758455726
26918003 58 16917067754730618358
2838139 119 16082189828750132879
3268164 11 18340197514602409517
4175511 318 18113894957826537647
474 4 16877663452645412506
573450 72 18261382330626430834
77492 1 17676198065979391161
81228 2 18200328640364374713
9709674 26 18343589533691284494
9971528 1 17313099740512667036

> <PUBCHEM_SHAPE_MULTIPOLES>
337.76
8.94
1.95
1.19
6.09
0.01
0.06
-0.02
-2.03
-2.51
0.17
1.04
0
0.02

> <PUBCHEM_SHAPE_SELFOVERLAP>
711.112

> <PUBCHEM_SHAPE_VOLUME>
190.9

> <PUBCHEM_COORDINATE_TYPE>
2
5
10

$$$$
