1516852
  -OEChem-01171809173D

 35 37  0     0  0  0  0  0  0999 V2000
    6.8406   -0.6962    0.2217 F   0  0  0  0  0  0  0  0  0  0  0  0
    0.5696   -0.5443   -0.2225 O   0  0  0  0  0  0  0  0  0  0  0  0
   -3.3974    0.9071   -0.3499 N   0  0  0  0  0  0  0  0  0  0  0  0
   -1.7228   -0.7080   -0.4053 N   0  0  0  0  0  0  0  0  0  0  0  0
   -0.5575    1.3850   -0.1129 N   0  0  0  0  0  0  0  0  0  0  0  0
    0.7894    1.6694    0.0134 N   0  0  0  0  0  0  0  0  0  0  0  0
   -6.0217   -0.6500    0.7374 C   0  0  0  0  0  0  0  0  0  0  0  0
   -4.8824   -1.6590    0.6121 C   0  0  0  0  0  0  0  0  0  0  0  0
   -5.5671    0.8061    0.8207 C   0  0  0  0  0  0  0  0  0  0  0  0
   -4.0459   -1.4618   -0.6465 C   0  0  0  0  0  0  0  0  0  0  0  0
   -4.8084    1.2740   -0.4167 C   0  0  0  0  0  0  0  0  0  0  0  0
   -3.0435   -0.3325   -0.4625 C   0  0  0  0  0  0  0  0  0  0  0  0
   -0.6038    0.1073   -0.2435 C   0  0  0  0  0  0  0  0  0  0  0  0
    1.4088    0.5143   -0.0560 C   0  0  0  0  0  0  0  0  0  0  0  0
    2.8068    0.2027    0.0153 C   0  0  0  0  0  0  0  0  0  0  0  0
    3.2405   -1.1239   -0.0846 C   0  0  0  0  0  0  0  0  0  0  0  0
    3.7497    1.2225    0.1852 C   0  0  0  0  0  0  0  0  0  0  0  0
    4.6005   -1.4268   -0.0152 C   0  0  0  0  0  0  0  0  0  0  0  0
    5.1096    0.9194    0.2549 C   0  0  0  0  0  0  0  0  0  0  0  0
    5.5349   -0.4052    0.1548 C   0  0  0  0  0  0  0  0  0  0  0  0
   -6.7081   -0.7688   -0.1103 H   0  0  0  0  0  0  0  0  0  0  0  0
   -6.6001   -0.8870    1.6387 H   0  0  0  0  0  0  0  0  0  0  0  0
   -5.3218   -2.6636    0.5864 H   0  0  0  0  0  0  0  0  0  0  0  0
   -4.2479   -1.6118    1.5055 H   0  0  0  0  0  0  0  0  0  0  0  0
   -6.4641    1.4275    0.9328 H   0  0  0  0  0  0  0  0  0  0  0  0
   -4.9612    0.9574    1.7224 H   0  0  0  0  0  0  0  0  0  0  0  0
   -4.6711   -1.2657   -1.5239 H   0  0  0  0  0  0  0  0  0  0  0  0
   -3.5022   -2.3909   -0.8553 H   0  0  0  0  0  0  0  0  0  0  0  0
   -5.2772    0.9323   -1.3466 H   0  0  0  0  0  0  0  0  0  0  0  0
   -4.8486    2.3692   -0.4477 H   0  0  0  0  0  0  0  0  0  0  0  0
   -1.5234   -1.7028   -0.4887 H   0  0  0  0  0  0  0  0  0  0  0  0
    2.5433   -1.9475   -0.2174 H   0  0  0  0  0  0  0  0  0  0  0  0
    3.4420    2.2626    0.2657 H   0  0  0  0  0  0  0  0  0  0  0  0
    4.9325   -2.4580   -0.0931 H   0  0  0  0  0  0  0  0  0  0  0  0
    5.8376    1.7145    0.3870 H   0  0  0  0  0  0  0  0  0  0  0  0
  1 20  1  0  0  0  0
  2 13  1  0  0  0  0
  2 14  1  0  0  0  0
  3 11  1  0  0  0  0
  3 12  2  0  0  0  0
  4 12  1  0  0  0  0
  4 13  1  0  0  0  0
  4 31  1  0  0  0  0
  5  6  1  0  0  0  0
  5 13  2  0  0  0  0
  6 14  2  0  0  0  0
  7  8  1  0  0  0  0
  7  9  1  0  0  0  0
  7 21  1  0  0  0  0
  7 22  1  0  0  0  0
  8 10  1  0  0  0  0
  8 23  1  0  0  0  0
  8 24  1  0  0  0  0
  9 11  1  0  0  0  0
  9 25  1  0  0  0  0
  9 26  1  0  0  0  0
 10 12  1  0  0  0  0
 10 27  1  0  0  0  0
 10 28  1  0  0  0  0
 11 29  1  0  0  0  0
 11 30  1  0  0  0  0
 14 15  1  0  0  0  0
 15 16  2  0  0  0  0
 15 17  1  0  0  0  0
 16 18  1  0  0  0  0
 16 32  1  0  0  0  0
 17 19  2  0  0  0  0
 17 33  1  0  0  0  0
 18 20  2  0  0  0  0
 18 34  1  0  0  0  0
 19 20  1  0  0  0  0
 19 35  1  0  0  0  0
M  END
> <PUBCHEM_COMPOUND_CID>
1516852

> <PUBCHEM_CONFORMER_RMSD>
0.6

> <PUBCHEM_CONFORMER_DIVERSEORDER>
1
27
23
41
25
22
3
7
17
10
21
6
20
46
5
19
42
45
31
2
24
15
32
4
34
9
30
18
29
8
35
14
26
11
40
47
28
12
33
43
37
39
16
44
38
13
36

> <PUBCHEM_MMFF94_PARTIAL_CHARGES>
22
1 -0.19
10 0.06
11 0.25
12 0.44
13 0.56
14 0.43
15 0.05
16 -0.15
17 -0.15
18 -0.15
19 -0.15
2 -0.28
20 0.19
3 -0.7
31 0.4
32 0.15
33 0.15
34 0.15
35 0.15
4 -0.53
5 -0.34
6 -0.34

> <PUBCHEM_EFFECTIVE_ROTOR_COUNT>
4

> <PUBCHEM_PHARMACOPHORE_FEATURES>
6
1 4 donor
3 3 4 12 cation
3 4 5 13 cation
5 2 5 6 13 14 rings
6 15 16 17 18 19 20 rings
7 3 7 8 9 10 11 12 rings

> <PUBCHEM_HEAVY_ATOM_COUNT>
20

> <PUBCHEM_ATOM_DEF_STEREO_COUNT>
0

> <PUBCHEM_ATOM_UDEF_STEREO_COUNT>
0

> <PUBCHEM_BOND_DEF_STEREO_COUNT>
0

> <PUBCHEM_BOND_UDEF_STEREO_COUNT>
0

> <PUBCHEM_ISOTOPIC_ATOM_COUNT>
0

> <PUBCHEM_COMPONENT_COUNT>
1

> <PUBCHEM_CACTVS_TAUTO_COUNT>
3

> <PUBCHEM_CONFORMER_ID>
0017253400000001

> <PUBCHEM_MMFF94_ENERGY>
36.9946

> <PUBCHEM_FEATURE_SELFOVERLAP>
30.855

> <PUBCHEM_SHAPE_FINGERPRINT>
11089746 13 16200425871018231097
11287383 113 18260548943793917304
11315181 36 18273213115039603729
12091667 2 16226046678389701109
12107183 9 17693098461451640851
12236239 1 18131351933583404266
12516196 113 18131628993407769736
12596602 18 17274821410510750938
12616971 3 17917706946156313476
13167823 11 18409727374257318175
13288520 33 18260267460754649847
13533116 47 14332858045607990838
13668630 136 14634874132280833131
13675066 3 18341610442962714757
13685833 64 18334016107285580811
14123256 10 10665231453672856075
1420 363 18040155127756046570
14251764 18 18272933847375259959
14341114 176 18410016550421464553
14933364 13 18410577292429490232
15196674 1 18411416223969642310
15348495 7 17916578872795513698
15716309 27 18187366540871001859
15788980 27 18187083957718895277
17093844 174 18408315584516617409
17834072 33 18411419539895482252
17844677 252 18408047320469237381
1813 80 17385446509575531869
19141452 34 18273210928052151767
200 152 18272084998586608560
20281389 69 18343863320892709081
20645477 70 18411982434436640374
21150785 3 15647059282941872342
21267235 1 18412548683256929470
21623969 137 18342183266729938630
220451 1 18343024410515630998
22950370 63 18335421274487209653
23035841 295 18260830392795122042
23402539 116 17917988391221045349
23522609 53 18191616157318115213
23536379 177 18411419501019113826
23559900 14 18343574161981979688
239999 70 18342461426819883782
300161 21 12895077301480200861
3004659 81 18260547819087323294
4073 2 18113904904781203026
4214541 1 18410854360970150397
4463277 17 18412262844039681476
465052 167 18341614798529291926
5104073 3 18412541024354308337
542803 24 16845574231405631721
9995097 60 18341330011546895741

> <PUBCHEM_SHAPE_MULTIPOLES>
378.52
16.61
1.62
0.75
2
0.03
-0.04
2.93
-2.99
-0.51
0
-0.63
0.04
0.21

> <PUBCHEM_SHAPE_SELFOVERLAP>
812.839

> <PUBCHEM_SHAPE_VOLUME>
208.2

> <PUBCHEM_COORDINATE_TYPE>
2
5
10

$$$$
