2957586
  -OEChem-01171809313D

 34 35  0     0  0  0  0  0  0999 V2000
   -5.4313    2.7060   -0.0342 Cl  0  0  0  0  0  0  0  0  0  0  0  0
   -7.5197   -1.4305    0.8493 F   0  0  0  0  0  0  0  0  0  0  0  0
   -6.2562   -2.4580   -0.5919 F   0  0  0  0  0  0  0  0  0  0  0  0
   -5.9114   -0.2582   -0.1822 O   0  0  0  0  0  0  0  0  0  0  0  0
    0.5073   -0.9005   -0.0931 O   0  0  0  0  0  0  0  0  0  0  0  0
    7.9818    0.0994    0.0979 O   0  5  0  0  0  0  0  0  0  0  0  0
    7.2699   -1.9740   -0.0159 O   0  0  0  0  0  0  0  0  0  0  0  0
   -0.5563    1.1820   -0.0162 N   0  0  0  0  0  0  0  0  0  0  0  0
    1.7501    1.0817    0.0216 N   0  0  0  0  0  0  0  0  0  0  0  0
    7.0506   -0.7396    0.0384 N   0  3  0  0  0  0  0  0  0  0  0  0
   -1.9097    0.8265   -0.0578 C   0  0  0  0  0  0  0  0  0  0  0  0
    3.0695    0.6283    0.0246 C   0  0  0  0  0  0  0  0  0  0  0  0
   -2.8879    1.8172   -0.0293 C   0  0  0  0  0  0  0  0  0  0  0  0
   -2.2707   -0.5167   -0.1274 C   0  0  0  0  0  0  0  0  0  0  0  0
   -4.6017    0.1177   -0.1405 C   0  0  0  0  0  0  0  0  0  0  0  0
   -4.2363    1.4622   -0.0706 C   0  0  0  0  0  0  0  0  0  0  0  0
   -3.6188   -0.8716   -0.1688 C   0  0  0  0  0  0  0  0  0  0  0  0
    4.1208    1.5426    0.0889 C   0  0  0  0  0  0  0  0  0  0  0  0
    3.3373   -0.7394   -0.0355 C   0  0  0  0  0  0  0  0  0  0  0  0
    0.5546    0.3241   -0.0360 C   0  0  0  0  0  0  0  0  0  0  0  0
    5.7079   -0.2782    0.0327 C   0  0  0  0  0  0  0  0  0  0  0  0
    5.4400    1.0895    0.0928 C   0  0  0  0  0  0  0  0  0  0  0  0
    4.6565   -1.1927   -0.0316 C   0  0  0  0  0  0  0  0  0  0  0  0
   -6.2465   -1.5180    0.3849 C   0  0  0  0  0  0  0  0  0  0  0  0
   -2.6003    2.8650    0.0252 H   0  0  0  0  0  0  0  0  0  0  0  0
   -1.5773   -1.3438   -0.1611 H   0  0  0  0  0  0  0  0  0  0  0  0
   -0.3619    2.1788    0.0339 H   0  0  0  0  0  0  0  0  0  0  0  0
    1.6352    2.0912    0.0672 H   0  0  0  0  0  0  0  0  0  0  0  0
   -3.8565   -1.9278   -0.2536 H   0  0  0  0  0  0  0  0  0  0  0  0
    3.9263    2.6111    0.1365 H   0  0  0  0  0  0  0  0  0  0  0  0
    2.5805   -1.5090   -0.0873 H   0  0  0  0  0  0  0  0  0  0  0  0
    6.2337    1.8306    0.1440 H   0  0  0  0  0  0  0  0  0  0  0  0
    4.8288   -2.2650   -0.0793 H   0  0  0  0  0  0  0  0  0  0  0  0
   -5.6098   -1.8292    1.2206 H   0  0  0  0  0  0  0  0  0  0  0  0
  1 16  1  0  0  0  0
  2 24  1  0  0  0  0
  3 24  1  0  0  0  0
  4 15  1  0  0  0  0
  4 24  1  0  0  0  0
  5 20  2  0  0  0  0
  6 10  1  0  0  0  0
  7 10  2  0  0  0  0
  8 11  1  0  0  0  0
  8 20  1  0  0  0  0
  8 27  1  0  0  0  0
  9 12  1  0  0  0  0
  9 20  1  0  0  0  0
  9 28  1  0  0  0  0
 10 21  1  0  0  0  0
 11 13  2  0  0  0  0
 11 14  1  0  0  0  0
 12 18  2  0  0  0  0
 12 19  1  0  0  0  0
 13 16  1  0  0  0  0
 13 25  1  0  0  0  0
 14 17  2  0  0  0  0
 14 26  1  0  0  0  0
 15 16  2  0  0  0  0
 15 17  1  0  0  0  0
 17 29  1  0  0  0  0
 18 22  1  0  0  0  0
 18 30  1  0  0  0  0
 19 23  2  0  0  0  0
 19 31  1  0  0  0  0
 21 22  2  0  0  0  0
 21 23  1  0  0  0  0
 22 32  1  0  0  0  0
 23 33  1  0  0  0  0
 24 34  1  0  0  0  0
M  CHG  2   6  -1  10   1
M  END
> <PUBCHEM_COMPOUND_CID>
2957586

> <PUBCHEM_CONFORMER_RMSD>
0.8

> <PUBCHEM_CONFORMER_DIVERSEORDER>
1
17
11
12
16
22
6
15
5
19
2
21
14
18
7
10
3
13
9
20
4
8

> <PUBCHEM_MMFF94_PARTIAL_CHARGES>
33
1 -0.18
10 0.91
11 0.12
12 0.12
13 -0.15
14 -0.15
15 0.08
16 0.18
17 -0.15
18 -0.15
19 -0.15
2 -0.34
20 0.69
21 0.13
22 -0.15
23 -0.15
24 0.96
25 0.15
26 0.15
27 0.37
28 0.37
29 0.15
3 -0.34
30 0.15
31 0.15
32 0.15
33 0.15
4 -0.36
5 -0.57
6 -0.52
7 -0.52
8 -0.55
9 -0.55

> <PUBCHEM_EFFECTIVE_ROTOR_COUNT>
7

> <PUBCHEM_PHARMACOPHORE_FEATURES>
9
1 4 acceptor
1 5 acceptor
1 6 acceptor
1 6 anion
1 7 acceptor
1 8 donor
1 9 donor
6 11 13 14 15 16 17 rings
6 12 18 19 21 22 23 rings

> <PUBCHEM_HEAVY_ATOM_COUNT>
24

> <PUBCHEM_ATOM_DEF_STEREO_COUNT>
0

> <PUBCHEM_ATOM_UDEF_STEREO_COUNT>
0

> <PUBCHEM_BOND_DEF_STEREO_COUNT>
0

> <PUBCHEM_BOND_UDEF_STEREO_COUNT>
0

> <PUBCHEM_ISOTOPIC_ATOM_COUNT>
0

> <PUBCHEM_COMPONENT_COUNT>
1

> <PUBCHEM_CACTVS_TAUTO_COUNT>
3

> <PUBCHEM_CONFORMER_ID>
002D211200000001

> <PUBCHEM_MMFF94_ENERGY>
80.5811

> <PUBCHEM_FEATURE_SELFOVERLAP>
45.802

> <PUBCHEM_SHAPE_FINGERPRINT>
100830 39 18338517431266710105
10299344 5 18334860511009622116
10411042 1 18266458884304445085
10595046 47 18407761434787830500
11315181 36 18334858312245297157
11524674 6 16559032722684762647
11646440 116 16702302356390808506
11719270 70 18131065988421958358
12091667 2 16732985297758415797
12107183 9 17618220603125096968
12166972 35 18335423499433970860
12236239 1 18335139782689579276
12516196 113 18273211989647714296
12616971 3 14836119996460860681
13073987 5 18411698768382900608
13288520 33 18410573990259029157
13668630 136 18040434395172379450
13685833 64 18412546513712908498
13885169 127 18410292475873420641
14178184 131 18127975419997868599
14251764 18 18409731772667527372
14933364 13 18411700976370695384
15183329 4 18260824860882539056
15196674 1 18411136918225982485
15716309 27 18342459270476970155
15778101 99 18339643331252485625
17093844 174 18408602531366325617
17844677 252 18411425020100237305
18681886 176 18410287034598145968
21130935 74 18341892940622047378
21150785 3 16370727049659703166
21236236 1 18411419506216336313
21267235 1 18410015446129462313
21315763 129 18411138030343255732
21315763 28 18409729573174968244
21623969 137 17846783996594480174
23035841 295 18342458162037921115
23081809 10 17895198787763246580
23522609 53 18123783995171884729
23536379 177 18411136914152541928
23559900 14 18342448244906148728
23569943 247 17461430339868313746
3004659 81 18334011679860107304
34797466 226 17775014539328589460
3545911 37 18413387631634319012
4073 2 18113623425984070866
4214541 1 18411418388617835341
4325135 7 18409729573470341583
4340502 62 15123510303248660284
465052 167 18273216387767617412
5104073 3 18342735191707760905
559249 180 18410572856034118221
59755656 520 17530684294839474146
636775 8 18114191868895202043
9996256 80 18411136943705376043
999808 66 18187654634841046811

> <PUBCHEM_SHAPE_MULTIPOLES>
442.81
22.56
2.18
0.63
12.24
0.18
0.01
-8.13
1.29
-3.18
-0.02
-0.3
-0.04
0.27

> <PUBCHEM_SHAPE_SELFOVERLAP>
939.138

> <PUBCHEM_SHAPE_VOLUME>
247.6

> <PUBCHEM_COORDINATE_TYPE>
2
5
10

$$$$
