667046
  -OEChem-01171809163D

 42 45  0     0  0  0  0  0  0999 V2000
    2.1847    0.6449   -0.2771 N   0  0  0  0  0  0  0  0  0  0  0  0
   -0.1622    0.5288   -0.2027 N   0  0  0  0  0  0  0  0  0  0  0  0
   -2.4612    1.0202   -0.2220 N   0  0  0  0  0  0  0  0  0  0  0  0
    1.2960   -1.3651    0.0544 N   0  0  0  0  0  0  0  0  0  0  0  0
   -1.8991   -1.1066    0.0942 N   0  0  0  0  0  0  0  0  0  0  0  0
    2.2742    2.0718   -0.4993 C   0  0  0  0  0  0  0  0  0  0  0  0
    3.2493   -0.2128   -0.1695 C   0  0  0  0  0  0  0  0  0  0  0  0
    1.1228   -0.1325   -0.1321 C   0  0  0  0  0  0  0  0  0  0  0  0
    2.6685   -1.4609    0.0370 C   0  0  0  0  0  0  0  0  0  0  0  0
    2.3422    2.8540    0.8103 C   0  0  0  0  0  0  0  0  0  0  0  0
   -1.4469    0.1110   -0.1055 C   0  0  0  0  0  0  0  0  0  0  0  0
   -3.6468    0.3443   -0.0885 C   0  0  0  0  0  0  0  0  0  0  0  0
   -3.2692   -0.9811    0.1079 C   0  0  0  0  0  0  0  0  0  0  0  0
    4.6282   -0.0102   -0.2332 C   0  0  0  0  0  0  0  0  0  0  0  0
    3.4976   -2.5849    0.1912 C   0  0  0  0  0  0  0  0  0  0  0  0
    2.4241    4.3505    0.5577 C   0  0  0  0  0  0  0  0  0  0  0  0
   -2.3256    2.4432   -0.4464 C   0  0  0  0  0  0  0  0  0  0  0  0
    5.4384   -1.1398   -0.0774 C   0  0  0  0  0  0  0  0  0  0  0  0
   -4.9765    0.7655   -0.1219 C   0  0  0  0  0  0  0  0  0  0  0  0
    4.8851   -2.4052    0.1310 C   0  0  0  0  0  0  0  0  0  0  0  0
   -4.2641   -1.9577    0.2835 C   0  0  0  0  0  0  0  0  0  0  0  0
   -5.9536   -0.2197    0.0545 C   0  0  0  0  0  0  0  0  0  0  0  0
   -5.6059   -1.5577    0.2537 C   0  0  0  0  0  0  0  0  0  0  0  0
    3.1777    2.2579   -1.0925 H   0  0  0  0  0  0  0  0  0  0  0  0
    1.4431    2.3978   -1.1322 H   0  0  0  0  0  0  0  0  0  0  0  0
    3.2141    2.5374    1.3950 H   0  0  0  0  0  0  0  0  0  0  0  0
    1.4577    2.6411    1.4227 H   0  0  0  0  0  0  0  0  0  0  0  0
   -0.0767    1.5343   -0.3210 H   0  0  0  0  0  0  0  0  0  0  0  0
    5.0633    0.9699   -0.3915 H   0  0  0  0  0  0  0  0  0  0  0  0
    3.0774   -3.5723    0.3537 H   0  0  0  0  0  0  0  0  0  0  0  0
    3.3172    4.6018   -0.0232 H   0  0  0  0  0  0  0  0  0  0  0  0
    2.4722    4.8931    1.5069 H   0  0  0  0  0  0  0  0  0  0  0  0
    1.5454    4.7038    0.0086 H   0  0  0  0  0  0  0  0  0  0  0  0
   -1.7732    2.8742    0.3930 H   0  0  0  0  0  0  0  0  0  0  0  0
   -1.7878    2.5960   -1.3860 H   0  0  0  0  0  0  0  0  0  0  0  0
   -3.3058    2.9177   -0.5136 H   0  0  0  0  0  0  0  0  0  0  0  0
    6.5192   -1.0296   -0.1188 H   0  0  0  0  0  0  0  0  0  0  0  0
   -5.2571    1.8009   -0.2755 H   0  0  0  0  0  0  0  0  0  0  0  0
    5.5406   -3.2643    0.2487 H   0  0  0  0  0  0  0  0  0  0  0  0
   -4.0042   -2.9999    0.4389 H   0  0  0  0  0  0  0  0  0  0  0  0
   -7.0035    0.0621    0.0361 H   0  0  0  0  0  0  0  0  0  0  0  0
   -6.3878   -2.3008    0.3879 H   0  0  0  0  0  0  0  0  0  0  0  0
  1  6  1  0  0  0  0
  1  7  1  0  0  0  0
  1  8  1  0  0  0  0
  2  8  1  0  0  0  0
  2 11  1  0  0  0  0
  2 28  1  0  0  0  0
  3 11  1  0  0  0  0
  3 12  1  0  0  0  0
  3 17  1  0  0  0  0
  4  8  2  0  0  0  0
  4  9  1  0  0  0  0
  5 11  2  0  0  0  0
  5 13  1  0  0  0  0
  6 10  1  0  0  0  0
  6 24  1  0  0  0  0
  6 25  1  0  0  0  0
  7  9  1  0  0  0  0
  7 14  2  0  0  0  0
  9 15  2  0  0  0  0
 10 16  1  0  0  0  0
 10 26  1  0  0  0  0
 10 27  1  0  0  0  0
 12 13  1  0  0  0  0
 12 19  2  0  0  0  0
 13 21  2  0  0  0  0
 14 18  1  0  0  0  0
 14 29  1  0  0  0  0
 15 20  1  0  0  0  0
 15 30  1  0  0  0  0
 16 31  1  0  0  0  0
 16 32  1  0  0  0  0
 16 33  1  0  0  0  0
 17 34  1  0  0  0  0
 17 35  1  0  0  0  0
 17 36  1  0  0  0  0
 18 20  2  0  0  0  0
 18 37  1  0  0  0  0
 19 22  1  0  0  0  0
 19 38  1  0  0  0  0
 20 39  1  0  0  0  0
 21 23  1  0  0  0  0
 21 40  1  0  0  0  0
 22 23  2  0  0  0  0
 22 41  1  0  0  0  0
 23 42  1  0  0  0  0
M  END
> <PUBCHEM_COMPOUND_CID>
667046

> <PUBCHEM_CONFORMER_RMSD>
0.6

> <PUBCHEM_CONFORMER_DIVERSEORDER>
1
37
31
29
9
35
24
28
36
3
34
8
30
18
27
22
26
7
25
32
6
33
5
20
19
21
2
38
4
40
39
15
23
13
16
12
17
14
10
11

> <PUBCHEM_MMFF94_PARTIAL_CHARGES>
30
1 0.05
11 0.27
12 -0.15
13 0.23
14 -0.15
15 -0.15
17 0.26
18 -0.15
19 -0.15
2 -0.57
20 -0.15
21 -0.15
22 -0.15
23 -0.15
28 0.4
29 0.15
3 0.05
30 0.15
37 0.15
38 0.15
39 0.15
4 -0.57
40 0.15
41 0.15
42 0.15
5 -0.57
6 0.26
7 -0.15
8 0.27
9 0.23

> <PUBCHEM_EFFECTIVE_ROTOR_COUNT>
4

> <PUBCHEM_PHARMACOPHORE_FEATURES>
8
1 16 hydrophobe
1 2 donor
4 1 2 4 8 cation
4 2 3 5 11 cation
5 1 4 7 8 9 rings
5 3 5 11 12 13 rings
6 12 13 19 21 22 23 rings
6 7 9 14 15 18 20 rings

> <PUBCHEM_HEAVY_ATOM_COUNT>
23

> <PUBCHEM_ATOM_DEF_STEREO_COUNT>
0

> <PUBCHEM_ATOM_UDEF_STEREO_COUNT>
0

> <PUBCHEM_BOND_DEF_STEREO_COUNT>
0

> <PUBCHEM_BOND_UDEF_STEREO_COUNT>
0

> <PUBCHEM_ISOTOPIC_ATOM_COUNT>
0

> <PUBCHEM_COMPONENT_COUNT>
1

> <PUBCHEM_CACTVS_TAUTO_COUNT>
3

> <PUBCHEM_CONFORMER_ID>
000A2DA600000001

> <PUBCHEM_MMFF94_ENERGY>
51.9871

> <PUBCHEM_FEATURE_SELFOVERLAP>
40.831

> <PUBCHEM_SHAPE_FINGERPRINT>
10366900 7 18114188548520835842
10411042 1 18267586806840431110
11405975 8 18412548725784551065
12107183 9 17470444032533136003
12166972 35 18131632279089289648
12236239 1 18202566163606404403
12403259 226 18335978692533725580
12516196 113 18340485578470168002
12616971 3 17917429865263261167
12633257 1 18270692969595025161
12916754 54 18410576193350281785
13167823 11 18408322168364183703
13533116 47 18410576231867746357
138480 1 18411418436216221776
13955234 65 18268711782585513672
14341114 176 18410297990590043927
14849402 71 18266742562014556824
14866123 147 16827276940765283178
14955137 171 18202568354598693566
15196674 1 18408042892368342247
15352361 1 18408886204769789951
15927050 60 17910111653571494500
17492 89 18336828701364505811
17844677 252 18341338855280404881
17857418 61 18408885122675765407
18681886 176 18343297081078761018
18785283 64 18264483065577025784
200 152 18343581828778054179
20369508 70 18411700993645159468
21033648 29 17344886564982788434
21049683 271 18334585672164235284
21065198 57 18411136969928795539
21133410 127 17824252928989464621
21267235 1 18338242570286012014
21859007 373 17751333154789184317
221357 26 18408322155283570423
221490 88 18335988648425770434
23402539 116 18408318874567067863
23522609 53 18120407338964613317
23559900 14 18410004442834830209
239999 70 18201446916936083158
3004659 81 18113903706976106206
3286 77 18335139791194877796
335352 9 18336827490610600421
3411729 13 18265044920545895496
3421961 26 18411417336661941336
350125 39 18409732867378182029
4015057 19 18340195393473795881
4073 2 17968666028648711131
4214541 1 18336265644057410013
465052 167 18342181059259180182
5104073 3 18340204098528369969
57124632 79 18127398176155435376
59755656 215 18338238296862280252
67856867 119 18341891952125155449
7495541 125 18410294718035863490
9709674 26 18261959651688448819
9981440 41 17762612198301149968

> <PUBCHEM_SHAPE_MULTIPOLES>
448.42
13.27
3.58
0.69
8.76
3.63
-0.03
-6.79
-0.37
-4
-0.7
-0.1
0.18
0.66

> <PUBCHEM_SHAPE_SELFOVERLAP>
993.226

> <PUBCHEM_SHAPE_VOLUME>
240.2

> <PUBCHEM_COORDINATE_TYPE>
2
5
10

$$$$
