3232131
  -OEChem-01171809443D

 61 65  0     0  0  0  0  0  0999 V2000
   -6.8435    3.2769   -2.8463 F   0  0  0  0  0  0  0  0  0  0  0  0
    0.5890   -3.9230   -0.8764 O   0  0  0  0  0  0  0  0  0  0  0  0
   -4.1669    1.1710    3.2468 O   0  0  0  0  0  0  0  0  0  0  0  0
    4.7292   -0.1711   -1.1328 N   0  0  0  0  0  0  0  0  0  0  0  0
    1.7421   -2.0613   -0.1135 N   0  0  0  0  0  0  0  0  0  0  0  0
   -4.1039   -0.4075    1.4682 N   0  0  0  0  0  0  0  0  0  0  0  0
   -2.1628    0.1631    2.4983 N   0  0  0  0  0  0  0  0  0  0  0  0
    3.0602   -2.5078   -0.5054 C   0  0  0  0  0  0  0  0  0  0  0  0
    3.3823   -2.0848   -1.9407 C   0  0  0  0  0  0  0  0  0  0  0  0
    4.1300   -1.9766    0.4514 C   0  0  0  0  0  0  0  0  0  0  0  0
    3.6588   -0.5820   -2.0512 C   0  0  0  0  0  0  0  0  0  0  0  0
    4.3812   -0.4774    0.2611 C   0  0  0  0  0  0  0  0  0  0  0  0
    5.0171    1.2547   -1.2873 C   0  0  0  0  0  0  0  0  0  0  0  0
    6.1686    1.6916   -0.4211 C   0  0  0  0  0  0  0  0  0  0  0  0
    0.6034   -2.8198   -0.3367 C   0  0  0  0  0  0  0  0  0  0  0  0
   -0.6783   -2.2092    0.1009 C   0  0  0  0  0  0  0  0  0  0  0  0
   -3.0589   -1.1229    0.8631 C   0  0  0  0  0  0  0  0  0  0  0  0
   -1.8717   -0.7676    1.5004 C   0  0  0  0  0  0  0  0  0  0  0  0
    5.9212    2.1425    0.8679 C   0  0  0  0  0  0  0  0  0  0  0  0
    7.4611    1.6374   -0.9239 C   0  0  0  0  0  0  0  0  0  0  0  0
   -0.6527   -1.2975    1.1400 C   0  0  0  0  0  0  0  0  0  0  0  0
   -1.8504   -2.5856   -0.5574 C   0  0  0  0  0  0  0  0  0  0  0  0
   -3.0768   -2.0332   -0.1731 C   0  0  0  0  0  0  0  0  0  0  0  0
   -5.4948   -0.4875    1.1030 C   0  0  0  0  0  0  0  0  0  0  0  0
   -3.5652    0.4101    2.5017 C   0  0  0  0  0  0  0  0  0  0  0  0
    6.9878    2.5473    1.6705 C   0  0  0  0  0  0  0  0  0  0  0  0
    8.5276    2.0422   -0.1212 C   0  0  0  0  0  0  0  0  0  0  0  0
    8.2911    2.4971    1.1759 C   0  0  0  0  0  0  0  0  0  0  0  0
   -5.8557    0.5204    0.0445 C   0  0  0  0  0  0  0  0  0  0  0  0
   -5.7481    0.1738   -1.2949 C   0  0  0  0  0  0  0  0  0  0  0  0
   -6.2912    1.7820    0.4241 C   0  0  0  0  0  0  0  0  0  0  0  0
   -6.0827    1.1084   -2.2748 C   0  0  0  0  0  0  0  0  0  0  0  0
   -6.6257    2.7166   -0.5558 C   0  0  0  0  0  0  0  0  0  0  0  0
   -6.5214    2.3798   -1.9053 C   0  0  0  0  0  0  0  0  0  0  0  0
    3.0639   -3.6036   -0.4571 H   0  0  0  0  0  0  0  0  0  0  0  0
    2.5621   -2.3542   -2.6169 H   0  0  0  0  0  0  0  0  0  0  0  0
    4.2688   -2.6343   -2.2840 H   0  0  0  0  0  0  0  0  0  0  0  0
    5.0678   -2.5205    0.2757 H   0  0  0  0  0  0  0  0  0  0  0  0
    3.8406   -2.1696    1.4916 H   0  0  0  0  0  0  0  0  0  0  0  0
    3.9565   -0.3688   -3.0851 H   0  0  0  0  0  0  0  0  0  0  0  0
    2.7371   -0.0179   -1.8574 H   0  0  0  0  0  0  0  0  0  0  0  0
    3.5092    0.0998    0.5934 H   0  0  0  0  0  0  0  0  0  0  0  0
    5.2082   -0.2597    0.9418 H   0  0  0  0  0  0  0  0  0  0  0  0
    5.2692    1.4736   -2.3337 H   0  0  0  0  0  0  0  0  0  0  0  0
    4.1334    1.8685   -1.0620 H   0  0  0  0  0  0  0  0  0  0  0  0
    1.6608   -1.1107    0.2297 H   0  0  0  0  0  0  0  0  0  0  0  0
    0.2389   -1.0148    1.6851 H   0  0  0  0  0  0  0  0  0  0  0  0
    4.9108    2.2029    1.2623 H   0  0  0  0  0  0  0  0  0  0  0  0
    7.6571    1.2828   -1.9319 H   0  0  0  0  0  0  0  0  0  0  0  0
   -1.8359   -3.3045   -1.3725 H   0  0  0  0  0  0  0  0  0  0  0  0
   -3.9887   -2.3362   -0.6709 H   0  0  0  0  0  0  0  0  0  0  0  0
   -5.7420   -1.5061    0.7811 H   0  0  0  0  0  0  0  0  0  0  0  0
   -6.0962   -0.2993    2.0016 H   0  0  0  0  0  0  0  0  0  0  0  0
   -1.4785    0.5861    3.1132 H   0  0  0  0  0  0  0  0  0  0  0  0
    6.8033    2.9049    2.6793 H   0  0  0  0  0  0  0  0  0  0  0  0
    9.5425    2.0028   -0.5061 H   0  0  0  0  0  0  0  0  0  0  0  0
    9.1216    2.8130    1.8005 H   0  0  0  0  0  0  0  0  0  0  0  0
   -5.4244   -0.8146   -1.6019 H   0  0  0  0  0  0  0  0  0  0  0  0
   -6.3769    2.0559    1.4717 H   0  0  0  0  0  0  0  0  0  0  0  0
   -6.0052    0.8454   -3.3257 H   0  0  0  0  0  0  0  0  0  0  0  0
   -6.9676    3.7064   -0.2683 H   0  0  0  0  0  0  0  0  0  0  0  0
  1 34  1  0  0  0  0
  2 15  2  0  0  0  0
  3 25  2  0  0  0  0
  4 11  1  0  0  0  0
  4 12  1  0  0  0  0
  4 13  1  0  0  0  0
  5  8  1  0  0  0  0
  5 15  1  0  0  0  0
  5 46  1  0  0  0  0
  6 17  1  0  0  0  0
  6 24  1  0  0  0  0
  6 25  1  0  0  0  0
  7 18  1  0  0  0  0
  7 25  1  0  0  0  0
  7 54  1  0  0  0  0
  8  9  1  0  0  0  0
  8 10  1  0  0  0  0
  8 35  1  0  0  0  0
  9 11  1  0  0  0  0
  9 36  1  0  0  0  0
  9 37  1  0  0  0  0
 10 12  1  0  0  0  0
 10 38  1  0  0  0  0
 10 39  1  0  0  0  0
 11 40  1  0  0  0  0
 11 41  1  0  0  0  0
 12 42  1  0  0  0  0
 12 43  1  0  0  0  0
 13 14  1  0  0  0  0
 13 44  1  0  0  0  0
 13 45  1  0  0  0  0
 14 19  2  0  0  0  0
 14 20  1  0  0  0  0
 15 16  1  0  0  0  0
 16 21  2  0  0  0  0
 16 22  1  0  0  0  0
 17 18  2  0  0  0  0
 17 23  1  0  0  0  0
 18 21  1  0  0  0  0
 19 26  1  0  0  0  0
 19 48  1  0  0  0  0
 20 27  2  0  0  0  0
 20 49  1  0  0  0  0
 21 47  1  0  0  0  0
 22 23  2  0  0  0  0
 22 50  1  0  0  0  0
 23 51  1  0  0  0  0
 24 29  1  0  0  0  0
 24 52  1  0  0  0  0
 24 53  1  0  0  0  0
 26 28  2  0  0  0  0
 26 55  1  0  0  0  0
 27 28  1  0  0  0  0
 27 56  1  0  0  0  0
 28 57  1  0  0  0  0
 29 30  2  0  0  0  0
 29 31  1  0  0  0  0
 30 32  1  0  0  0  0
 30 58  1  0  0  0  0
 31 33  2  0  0  0  0
 31 59  1  0  0  0  0
 32 34  2  0  0  0  0
 32 60  1  0  0  0  0
 33 34  1  0  0  0  0
 33 61  1  0  0  0  0
M  END
> <PUBCHEM_COMPOUND_CID>
3232131

> <PUBCHEM_CONFORMER_RMSD>
1

> <PUBCHEM_CONFORMER_DIVERSEORDER>
1
266
233
208
179
271
238
259
239
246
49
196
135
270
277
87
14
245
105
99
227
67
116
65
176
291
209
164
102
214
205
89
133
90
249
280
36
114
154
125
20
171
85
78
104
219
250
47
229
175
263
257
172
39
21
275
237
64
217
191
218
152
58
287
222
77
50
126
258
75
243
174
28
68
107
148
278
108
297
203
156
281
228
9
124
300
216
187
128
129
170
95
22
269
155
86
188
4
256
165
181
177
122
110
236
106
166
295
118
100
182
101
81
264
198
235
285
42
112
32
51
24
204
290
296
153
210
253
120
26
142
34
226
284
98
96
92
248
200
167
149
207
132
123
52
91
146
163
255
59
220
31
134
180
145
138
160
79
288
60
261
19
244
57
276
247
294
113
197
202
40
27
127
54
97
140
144
56
299
69
38
55
225
273
267
83
190
72
240
94
157
305
150
272
232
241
195
282
223
173
66
230
286
103
41
260
265
168
141
192
53
194
212
183
251
254
62
304
131
231
71
162
161
185
301
221
193
23
48
61
137
302
293
74
143
44
33
115
45
186
35
17
169
93
292
242
201
111
46
88
268
30
82
189
37
73
262
15
184
199
213
158
10
3
25
279
151
76
70
283
121
109
80
29
298
274
211
303
18
7
234
8
117
12
11
16
178
43
159
84
139
215
5
289
206
252
147
13
6
63
2
136
130
119
224

> <PUBCHEM_MMFF94_PARTIAL_CHARGES>
46
1 -0.19
11 0.27
12 0.27
13 0.41
14 -0.14
15 0.54
16 0.09
17 0.12
18 0.12
19 -0.15
2 -0.57
20 -0.15
21 -0.15
22 -0.15
23 -0.15
24 0.44
25 0.69
26 -0.15
27 -0.15
28 -0.15
29 -0.14
3 -0.57
30 -0.15
31 -0.15
32 -0.15
33 -0.15
34 0.19
4 -0.81
46 0.37
47 0.15
48 0.15
49 0.15
5 -0.73
50 0.15
51 0.15
54 0.37
55 0.15
56 0.15
57 0.15
58 0.15
59 0.15
6 -0.48
60 0.15
61 0.15
7 -0.55
8 0.3

> <PUBCHEM_EFFECTIVE_ROTOR_COUNT>
8.2

> <PUBCHEM_PHARMACOPHORE_FEATURES>
10
1 2 acceptor
1 3 acceptor
1 4 cation
1 5 donor
1 7 donor
5 6 7 17 18 25 rings
6 14 19 20 26 27 28 rings
6 16 17 18 21 22 23 rings
6 29 30 31 32 33 34 rings
6 4 8 9 10 11 12 rings

> <PUBCHEM_HEAVY_ATOM_COUNT>
34

> <PUBCHEM_ATOM_DEF_STEREO_COUNT>
0

> <PUBCHEM_ATOM_UDEF_STEREO_COUNT>
0

> <PUBCHEM_BOND_DEF_STEREO_COUNT>
0

> <PUBCHEM_BOND_UDEF_STEREO_COUNT>
0

> <PUBCHEM_ISOTOPIC_ATOM_COUNT>
0

> <PUBCHEM_COMPONENT_COUNT>
1

> <PUBCHEM_CACTVS_TAUTO_COUNT>
4

> <PUBCHEM_CONFORMER_ID>
0031518300000001

> <PUBCHEM_MMFF94_ENERGY>
92.1924

> <PUBCHEM_FEATURE_SELFOVERLAP>
50.85

> <PUBCHEM_SHAPE_FINGERPRINT>
10049733 73 8645899188974629745
10554248 39 18129944460100953982
10952577 141 15624565384135317275
11211813 15 18060416958192309044
11476731 99 17973996263589623061
11505856 67 16557088674367690329
11621639 307 17916596310859303289
131258 43 12319446744912634498
13560911 23 16588599706751509263
13878862 14 18339074896482935190
14598715 104 18333167275766521197
14931854 50 17561368387574081368
15082195 135 17203329979430962062
15289351 153 17917437528175864194
15350500 185 18412819201081413340
15350500 55 18260264157766771060
15530120 55 16558470760483927261
15684393 108 17275384296846206805
15705408 1 16695573134238392030
16989378 47 15554151637005857969
16993089 31 10591755485514794633
18608769 82 17701271453678462122
19246450 95 13335279954694557719
19304144 158 18408323302515241871
195137 95 18261106383673842380
20511986 3 18413106186743887718
21033648 144 18411990165245962627
21033648 29 17676213463427240854
21298829 104 18410294726689433124
21585482 310 9007061275149467240
21792938 324 17387114409403055318
21792965 106 18261388889158361220
21814621 53 17313957311610134411
25269216 80 16057160619265061853
2748736 6 18412260631730422002
2838139 119 18042119852704838231
3862424 121 13038610920998912029
3918712 181 18272370849718860712
393628 179 18342449379067859936
3991529 202 17387111115342494514
4173938 306 18270950337036965392
4394409 98 18409732901943882412
44249763 50 18259990383735156415
5104073 3 14129644188706086051
5372103 7 18411411796133050373
563151 74 17168137932051047442
56633871 153 11746939827605268587
6695519 79 18045815392595449547
6697151 62 17760089519011216259
9555976 147 15647350666234133841
9980921 177 16588863451971490129
999808 66 7925640998516436104

> <PUBCHEM_SHAPE_MULTIPOLES>
660.77
25.3
4.06
2.47
19.76
0.82
-0.33
-30.93
4.55
1.09
1.26
-3.53
-1.36
4.38

> <PUBCHEM_SHAPE_SELFOVERLAP>
1445.498

> <PUBCHEM_SHAPE_VOLUME>
358.8

> <PUBCHEM_COORDINATE_TYPE>
2
5
10

$$$$
