2815170
  -OEChem-01171809543D

 38 41  0     0  0  0  0  0  0999 V2000
    2.1998    1.0002    0.9268 S   0  0  0  0  0  0  0  0  0  0  0  0
    2.3335    1.1446    2.3601 O   0  0  0  0  0  0  0  0  0  0  0  0
    1.4684    1.9315    0.0956 O   0  0  0  0  0  0  0  0  0  0  0  0
   -4.7383    1.1670   -1.4704 O   0  0  0  0  0  0  0  0  0  0  0  0
   -5.9517   -0.0762    0.8302 O   0  0  0  0  0  0  0  0  0  0  0  0
    2.7357   -2.5256   -0.5101 O   0  0  0  0  0  0  0  0  0  0  0  0
   -0.1048   -0.8238   -1.4691 O   0  0  0  0  0  0  0  0  0  0  0  0
    1.7716   -0.6192    0.5280 N   0  0  0  0  0  0  0  0  0  0  0  0
    3.7906    0.7929    0.2473 C   0  0  0  0  0  0  0  0  0  0  0  0
    3.9775   -0.4884   -0.2708 C   0  0  0  0  0  0  0  0  0  0  0  0
    0.4300   -1.1186    0.8613 C   0  0  0  0  0  0  0  0  0  0  0  0
    2.8024   -1.3709   -0.1299 C   0  0  0  0  0  0  0  0  0  0  0  0
   -0.4978   -0.8446   -0.3049 C   0  0  0  0  0  0  0  0  0  0  0  0
    4.7706    1.7632    0.2111 C   0  0  0  0  0  0  0  0  0  0  0  0
    5.1834   -0.8381   -0.8530 C   0  0  0  0  0  0  0  0  0  0  0  0
   -1.9228   -0.6399   -0.0296 C   0  0  0  0  0  0  0  0  0  0  0  0
   -4.0407    0.3662   -0.6043 C   0  0  0  0  0  0  0  0  0  0  0  0
    5.9888    1.4166   -0.3748 C   0  0  0  0  0  0  0  0  0  0  0  0
   -2.6824    0.1812   -0.8633 C   0  0  0  0  0  0  0  0  0  0  0  0
    6.1939    0.1281   -0.9020 C   0  0  0  0  0  0  0  0  0  0  0  0
   -4.6313   -0.2451    0.5044 C   0  0  0  0  0  0  0  0  0  0  0  0
   -2.5188   -1.2721    1.0621 C   0  0  0  0  0  0  0  0  0  0  0  0
   -3.8741   -1.0767    1.3297 C   0  0  0  0  0  0  0  0  0  0  0  0
   -6.1521    1.0095   -1.3211 C   0  0  0  0  0  0  0  0  0  0  0  0
   -6.5314    1.0384    0.1467 C   0  0  0  0  0  0  0  0  0  0  0  0
    0.4656   -2.1955    1.0529 H   0  0  0  0  0  0  0  0  0  0  0  0
    0.0787   -0.6165    1.7682 H   0  0  0  0  0  0  0  0  0  0  0  0
    4.6108    2.7550    0.6177 H   0  0  0  0  0  0  0  0  0  0  0  0
    5.3524   -1.8282   -1.2627 H   0  0  0  0  0  0  0  0  0  0  0  0
   -2.2284    0.6758   -1.7188 H   0  0  0  0  0  0  0  0  0  0  0  0
    6.7903    2.1489   -0.4256 H   0  0  0  0  0  0  0  0  0  0  0  0
    7.1515   -0.1183   -1.3534 H   0  0  0  0  0  0  0  0  0  0  0  0
   -1.9562   -1.9328    1.7157 H   0  0  0  0  0  0  0  0  0  0  0  0
   -4.3295   -1.5688    2.1848 H   0  0  0  0  0  0  0  0  0  0  0  0
   -6.4520    0.0680   -1.7977 H   0  0  0  0  0  0  0  0  0  0  0  0
   -6.6369    1.8325   -1.8553 H   0  0  0  0  0  0  0  0  0  0  0  0
   -6.1940    1.9619    0.6334 H   0  0  0  0  0  0  0  0  0  0  0  0
   -7.6178    0.9698    0.2599 H   0  0  0  0  0  0  0  0  0  0  0  0
  1  2  2  0  0  0  0
  1  3  2  0  0  0  0
  1  8  1  0  0  0  0
  1  9  1  0  0  0  0
  4 17  1  0  0  0  0
  4 24  1  0  0  0  0
  5 21  1  0  0  0  0
  5 25  1  0  0  0  0
  6 12  2  0  0  0  0
  7 13  2  0  0  0  0
  8 11  1  0  0  0  0
  8 12  1  0  0  0  0
  9 10  1  0  0  0  0
  9 14  2  0  0  0  0
 10 12  1  0  0  0  0
 10 15  2  0  0  0  0
 11 13  1  0  0  0  0
 11 26  1  0  0  0  0
 11 27  1  0  0  0  0
 13 16  1  0  0  0  0
 14 18  1  0  0  0  0
 14 28  1  0  0  0  0
 15 20  1  0  0  0  0
 15 29  1  0  0  0  0
 16 19  2  0  0  0  0
 16 22  1  0  0  0  0
 17 19  1  0  0  0  0
 17 21  2  0  0  0  0
 18 20  2  0  0  0  0
 18 31  1  0  0  0  0
 19 30  1  0  0  0  0
 20 32  1  0  0  0  0
 21 23  1  0  0  0  0
 22 23  2  0  0  0  0
 22 33  1  0  0  0  0
 23 34  1  0  0  0  0
 24 25  1  0  0  0  0
 24 35  1  0  0  0  0
 24 36  1  0  0  0  0
 25 37  1  0  0  0  0
 25 38  1  0  0  0  0
M  END
> <PUBCHEM_COMPOUND_CID>
2815170

> <PUBCHEM_CONFORMER_RMSD>
0.8

> <PUBCHEM_CONFORMER_DIVERSEORDER>
1
48
23
17
70
68
24
74
2
40
7
44
67
72
37
15
65
71
32
16
56
28
31
12
34
46
53
38
11
58
3
22
47
35
18
60
4
30
59
42
19
6
49
26
13
62
21
14
66
10
27
73
69
50
5
61
52
20
51
41
63
25
39
64
29
45
8
54
43
55
33
9
36
57

> <PUBCHEM_MMFF94_PARTIAL_CHARGES>
32
1 1.45
10 0.09
11 0.42
12 0.72
13 0.42
14 -0.15
15 -0.15
16 0.09
17 0.08
18 -0.15
19 -0.15
2 -0.65
20 -0.15
21 0.08
22 -0.15
23 -0.15
24 0.28
25 0.28
28 0.15
29 0.15
3 -0.65
30 0.15
31 0.15
32 0.15
33 0.15
34 0.15
4 -0.36
5 -0.36
6 -0.57
7 -0.57
8 -0.73
9 -0.01

> <PUBCHEM_EFFECTIVE_ROTOR_COUNT>
4

> <PUBCHEM_PHARMACOPHORE_FEATURES>
10
1 2 acceptor
1 3 acceptor
1 4 acceptor
1 5 acceptor
1 6 acceptor
1 7 acceptor
5 1 8 9 10 12 rings
6 16 17 19 21 22 23 rings
6 4 5 17 21 24 25 rings
6 9 10 14 15 18 20 rings

> <PUBCHEM_HEAVY_ATOM_COUNT>
25

> <PUBCHEM_ATOM_DEF_STEREO_COUNT>
0

> <PUBCHEM_ATOM_UDEF_STEREO_COUNT>
0

> <PUBCHEM_BOND_DEF_STEREO_COUNT>
0

> <PUBCHEM_BOND_UDEF_STEREO_COUNT>
0

> <PUBCHEM_ISOTOPIC_ATOM_COUNT>
0

> <PUBCHEM_COMPONENT_COUNT>
1

> <PUBCHEM_CACTVS_TAUTO_COUNT>
2

> <PUBCHEM_CONFORMER_ID>
002AF4C200000001

> <PUBCHEM_MMFF94_ENERGY>
67.1483

> <PUBCHEM_FEATURE_SELFOVERLAP>
50.876

> <PUBCHEM_SHAPE_FINGERPRINT>
10 15 17095527313618056405
106641 1 15719401650559959473
10673678 19 17970366999687328588
10763959 59 18413386557523886057
11089746 13 17203326723681812352
11421498 54 14635138011140957564
11595378 159 15936680481041160717
12166972 35 16630238195332385537
12236239 1 16487255469641077051
12730499 353 18335144176457129298
12788726 201 18335130943494384505
13402501 40 18261110776897826661
14341114 176 18260271836872825641
14341114 328 14996003254725156618
14933364 13 18260270745708383573
15183329 4 17060342924518108340
15475509 35 12678908858079738126
15788980 27 14261354673469481862
1601671 61 18259982691190168980
16988056 13 18059847424334728808
17349148 13 14979961388560383103
18222031 100 14476965597158075938
18608769 82 18261397797341993915
19377110 9 14345791639012782181
21033648 144 17703217529102994713
21033648 29 18337102462183905097
21641784 216 18270702891170698900
21792961 116 18337116666537636006
221357 26 18060417993343205096
22224240 67 12179850524278496372
22289505 5 18413105035518117796
23402539 116 14333131862114608731
23559900 14 18409167714370054667
29717793 49 16415484848370146340
300161 21 16081081568094755431
3004659 81 14692568831800311152
3545911 37 18408606972061400419
4073 2 17749116633726001034
4340502 62 14201399378502173864
465052 167 9223235144163964752
5104073 3 17168142270400149721
5718773 13 11095626459089261884
5758199 1 14779271934306750252
58260988 393 15357971235822387428
59755656 215 18408323267912338668
59755656 520 17846501461241148591

> <PUBCHEM_SHAPE_MULTIPOLES>
478.14
16.65
1.76
1.35
7.48
0.1
0.28
-6.21
-3
-1.02
0
0.32
-0.13
1.73

> <PUBCHEM_SHAPE_SELFOVERLAP>
1046.504

> <PUBCHEM_SHAPE_VOLUME>
259.5

> <PUBCHEM_COORDINATE_TYPE>
2
5
10

$$$$
