16189420
  -OEChem-01171809423D

 55 59  0     1  0  0  0  0  0999 V2000
   -0.4927    3.0541   -1.3557 O   0  0  0  0  0  0  0  0  0  0  0  0
    4.2526    2.3983    0.6734 O   0  0  0  0  0  0  0  0  0  0  0  0
    2.0115    3.6880   -0.4228 O   0  0  0  0  0  0  0  0  0  0  0  0
    2.8290    0.5035    0.6639 N   0  0  0  0  0  0  0  0  0  0  0  0
   -3.2479   -0.1518   -0.9833 N   0  0  0  0  0  0  0  0  0  0  0  0
    0.5112    0.5992    2.4670 N   0  0  0  0  0  0  0  0  0  0  0  0
   -2.4974   -0.9795   -1.7304 N   0  0  0  0  0  0  0  0  0  0  0  0
    6.3000   -1.2123   -1.5225 N   0  0  0  0  0  0  0  0  0  0  0  0
    1.4478    0.1958    0.2707 C   0  0  2  0  0  0  0  0  0  0  0  0
    0.9515    1.5035   -0.2900 C   0  0  0  0  0  0  0  0  0  0  0  0
    3.7249   -0.5285    1.1522 C   0  0  0  0  0  0  0  0  0  0  0  0
    3.2088    1.8157    0.4651 C   0  0  0  0  0  0  0  0  0  0  0  0
    2.0186    2.5125   -0.1361 C   0  0  0  0  0  0  0  0  0  0  0  0
    0.6320   -0.2634    1.4330 C   0  0  0  0  0  0  0  0  0  0  0  0
   -0.2194    1.7826   -0.8666 C   0  0  0  0  0  0  0  0  0  0  0  0
   -1.3069    0.8477   -1.0508 C   0  0  0  0  0  0  0  0  0  0  0  0
    4.4164   -1.1696   -0.0075 C   0  0  0  0  0  0  0  0  0  0  0  0
   -2.5818    0.9574   -0.5516 C   0  0  0  0  0  0  0  0  0  0  0  0
    0.0508   -1.5209    1.4000 C   0  0  0  0  0  0  0  0  0  0  0  0
   -1.3128   -0.3638   -1.7680 C   0  0  0  0  0  0  0  0  0  0  0  0
    3.8695   -2.2780   -0.6445 C   0  0  0  0  0  0  0  0  0  0  0  0
   -3.2117    2.0018    0.2840 C   0  0  0  0  0  0  0  0  0  0  0  0
   -0.7026   -1.9186    2.4990 C   0  0  0  0  0  0  0  0  0  0  0  0
    5.6229   -0.6795   -0.4807 C   0  0  0  0  0  0  0  0  0  0  0  0
   -4.5797   -0.4728   -0.7202 C   0  0  0  0  0  0  0  0  0  0  0  0
   -0.2282    0.1776    3.5173 C   0  0  0  0  0  0  0  0  0  0  0  0
   -0.8496   -1.0590    3.5819 C   0  0  0  0  0  0  0  0  0  0  0  0
    4.5364   -2.8541   -1.7202 C   0  0  0  0  0  0  0  0  0  0  0  0
   -5.5984    0.3874   -1.1301 C   0  0  0  0  0  0  0  0  0  0  0  0
   -4.8931   -1.6555   -0.0500 C   0  0  0  0  0  0  0  0  0  0  0  0
    5.7375   -2.2886   -2.1167 C   0  0  0  0  0  0  0  0  0  0  0  0
   -6.9303    0.0653   -0.8699 C   0  0  0  0  0  0  0  0  0  0  0  0
   -6.2252   -1.9776    0.2101 C   0  0  0  0  0  0  0  0  0  0  0  0
   -7.2437   -1.1172   -0.1999 C   0  0  0  0  0  0  0  0  0  0  0  0
    1.4954   -0.5511   -0.5295 H   0  0  0  0  0  0  0  0  0  0  0  0
    3.1754   -1.2618    1.7511 H   0  0  0  0  0  0  0  0  0  0  0  0
    4.4667   -0.0649    1.8138 H   0  0  0  0  0  0  0  0  0  0  0  0
    0.1717   -2.1875    0.5531 H   0  0  0  0  0  0  0  0  0  0  0  0
   -0.5069   -0.8276   -2.3193 H   0  0  0  0  0  0  0  0  0  0  0  0
    2.9272   -2.7035   -0.3107 H   0  0  0  0  0  0  0  0  0  0  0  0
   -3.8049    2.6864   -0.3299 H   0  0  0  0  0  0  0  0  0  0  0  0
   -3.8547    1.5732    1.0595 H   0  0  0  0  0  0  0  0  0  0  0  0
   -2.4542    2.5992    0.8027 H   0  0  0  0  0  0  0  0  0  0  0  0
   -1.1746   -2.8964    2.5111 H   0  0  0  0  0  0  0  0  0  0  0  0
    6.1020    0.1817   -0.0255 H   0  0  0  0  0  0  0  0  0  0  0  0
    0.2675    3.6381   -1.2079 H   0  0  0  0  0  0  0  0  0  0  0  0
   -0.3126    0.8851    4.3356 H   0  0  0  0  0  0  0  0  0  0  0  0
   -1.4327   -1.3477    4.4488 H   0  0  0  0  0  0  0  0  0  0  0  0
    4.1292   -3.7188   -2.2314 H   0  0  0  0  0  0  0  0  0  0  0  0
   -5.3780    1.3058   -1.6683 H   0  0  0  0  0  0  0  0  0  0  0  0
   -4.1116   -2.3354    0.2807 H   0  0  0  0  0  0  0  0  0  0  0  0
    6.2968   -2.7006   -2.9502 H   0  0  0  0  0  0  0  0  0  0  0  0
   -7.7237    0.7332   -1.1922 H   0  0  0  0  0  0  0  0  0  0  0  0
   -6.4694   -2.8978    0.7326 H   0  0  0  0  0  0  0  0  0  0  0  0
   -8.2809   -1.3684    0.0021 H   0  0  0  0  0  0  0  0  0  0  0  0
  1 15  1  0  0  0  0
  1 46  1  0  0  0  0
  2 12  2  0  0  0  0
  3 13  2  0  0  0  0
  4  9  1  0  0  0  0
  4 11  1  0  0  0  0
  4 12  1  0  0  0  0
  5  7  1  0  0  0  0
  5 18  1  0  0  0  0
  5 25  1  0  0  0  0
  6 14  1  0  0  0  0
  6 26  2  0  0  0  0
  7 20  2  0  0  0  0
  8 24  1  0  0  0  0
  8 31  2  0  0  0  0
  9 10  1  0  0  0  0
  9 14  1  0  0  0  0
  9 35  1  0  0  0  0
 10 13  1  0  0  0  0
 10 15  2  0  0  0  0
 11 17  1  0  0  0  0
 11 36  1  0  0  0  0
 11 37  1  0  0  0  0
 12 13  1  0  0  0  0
 14 19  2  0  0  0  0
 15 16  1  0  0  0  0
 16 18  2  0  0  0  0
 16 20  1  0  0  0  0
 17 21  1  0  0  0  0
 17 24  2  0  0  0  0
 18 22  1  0  0  0  0
 19 23  1  0  0  0  0
 19 38  1  0  0  0  0
 20 39  1  0  0  0  0
 21 28  2  0  0  0  0
 21 40  1  0  0  0  0
 22 41  1  0  0  0  0
 22 42  1  0  0  0  0
 22 43  1  0  0  0  0
 23 27  2  0  0  0  0
 23 44  1  0  0  0  0
 24 45  1  0  0  0  0
 25 29  2  0  0  0  0
 25 30  1  0  0  0  0
 26 27  1  0  0  0  0
 26 47  1  0  0  0  0
 27 48  1  0  0  0  0
 28 31  1  0  0  0  0
 28 49  1  0  0  0  0
 29 32  1  0  0  0  0
 29 50  1  0  0  0  0
 30 33  2  0  0  0  0
 30 51  1  0  0  0  0
 31 52  1  0  0  0  0
 32 34  2  0  0  0  0
 32 53  1  0  0  0  0
 33 34  1  0  0  0  0
 33 54  1  0  0  0  0
 34 55  1  0  0  0  0
M  END
> <PUBCHEM_COMPOUND_CID>
16189420

> <PUBCHEM_CONFORMER_RMSD>
0.8

> <PUBCHEM_CONFORMER_DIVERSEORDER>
1
34
121
117
37
66
131
107
43
134
102
105
73
124
125
95
133
11
126
89
25
109
91
17
64
118
12
127
103
110
26
52
128
16
90
92
112
123
38
86
93
13
39
77
84
40
42
113
129
101
32
50
41
58
130
15
136
76
49
47
75
111
132
99
10
78
57
96
108
9
79
59
104
70
14
115
71
94
74
100
65
120
80
53
48
67
18
106
62
119
46
87
85
44
63
33
60
56
82
45
61
116
69
21
36
122
135
83
23
114
27
68
28
81
29
97
72
31
35
19
54
98
22
20
55
7
24
8
88
51
30
3
6
4
2
5

> <PUBCHEM_MMFF94_PARTIAL_CHARGES>
49
1 -0.53
10 -0.12
11 0.44
12 0.63
13 0.56
14 0.17
15 0.12
16 -0.05
17 -0.14
18 -0.33
19 -0.15
2 -0.57
20 0.14
21 -0.15
22 0.18
23 -0.15
24 0.16
25 -0.02
26 0.16
27 -0.15
28 -0.15
29 -0.15
3 -0.57
30 -0.15
31 0.16
32 -0.15
33 -0.15
34 -0.15
38 0.15
39 0.15
4 -0.66
40 0.15
44 0.15
45 0.15
46 0.45
47 0.15
48 0.15
49 0.15
5 0.59
50 0.15
51 0.15
52 0.15
53 0.15
54 0.15
55 0.15
6 -0.62
7 -0.71
8 -0.62
9 0.58

> <PUBCHEM_EFFECTIVE_ROTOR_COUNT>
5.4

> <PUBCHEM_PHARMACOPHORE_FEATURES>
11
1 1 donor
1 2 acceptor
1 3 acceptor
1 6 acceptor
1 7 acceptor
1 8 acceptor
5 4 9 10 12 13 rings
5 5 7 16 18 20 rings
6 25 29 30 32 33 34 rings
6 6 14 19 23 26 27 rings
6 8 17 21 24 28 31 rings

> <PUBCHEM_HEAVY_ATOM_COUNT>
34

> <PUBCHEM_ATOM_DEF_STEREO_COUNT>
0

> <PUBCHEM_ATOM_UDEF_STEREO_COUNT>
1

> <PUBCHEM_BOND_DEF_STEREO_COUNT>
1

> <PUBCHEM_BOND_UDEF_STEREO_COUNT>
0

> <PUBCHEM_ISOTOPIC_ATOM_COUNT>
0

> <PUBCHEM_COMPONENT_COUNT>
1

> <PUBCHEM_CACTVS_TAUTO_COUNT>
3

> <PUBCHEM_CONFORMER_ID>
00F707EC00000001

> <PUBCHEM_MMFF94_ENERGY>
98.0894

> <PUBCHEM_FEATURE_SELFOVERLAP>
55.829

> <PUBCHEM_SHAPE_FINGERPRINT>
11456790 92 16702312265514103475
11513181 2 17684097155151213263
11578080 2 17097231630262104668
117089 54 17913781513826652294
11961588 58 16370734746668248606
12166972 35 17632576041442734737
13149001 5 17604159202642312388
13533116 47 17988639726660864820
1361 2 18412544323401290406
13617811 41 16225760822530648471
13782708 43 17632568362711415407
13911987 19 15719401607314783711
15721738 202 18060702775460388946
16728300 4 16486133855948326319
17492 54 16515409551185777651
17909252 39 18413106135167025572
21344244 181 18260834812438438867
22393880 68 17822556249671506085
22956985 138 15143732430416583817
23559900 14 18411128127060722791
23569914 2 11309815563075825843
2838139 119 12685093687335968534
3380486 77 16128659699080457979
345986 75 16916215551493985162
3886686 26 14543997134335114894
404807 14 17554909671478921622
4093350 32 18271518801548520472
4144715 1 18335140938616108629
437795 70 17968385631840881219
46194498 28 18410852166563745916
563151 40 17753057089831067741
57527295 17 17971762073599779874
58260988 114 16555950607204145038
58260988 647 18343311331500732610
70251023 43 18271247123856162360
8509985 295 16128649786591091143

> <PUBCHEM_SHAPE_MULTIPOLES>
657.19
14.79
3.09
2.62
10.91
1.53
-2.7
-9.46
8.46
-2.8
0.8
-0.66
-1.19
2.29

> <PUBCHEM_SHAPE_SELFOVERLAP>
1462.346

> <PUBCHEM_SHAPE_VOLUME>
347.4

> <PUBCHEM_COORDINATE_TYPE>
2
5
10

$$$$
