2269538
  -OEChem-01171809423D

 42 43  0     0  0  0  0  0  0999 V2000
   -1.1041    0.7996    0.2903 S   0  0  0  0  0  0  0  0  0  0  0  0
   -0.2416   -0.5092   -0.1752 O   0  0  0  0  0  0  0  0  0  0  0  0
   -0.9082    1.8658   -0.6782 O   0  0  0  0  0  0  0  0  0  0  0  0
   -0.8602    1.0137    1.7084 O   0  0  0  0  0  0  0  0  0  0  0  0
    5.9239    1.5080    0.4857 O   0  0  0  0  0  0  0  0  0  0  0  0
    5.3020   -0.6381   -0.2666 N   0  0  0  0  0  0  0  0  0  0  0  0
   -2.7776    0.2981    0.1267 C   0  0  0  0  0  0  0  0  0  0  0  0
   -3.7452    1.2184   -0.2763 C   0  0  0  0  0  0  0  0  0  0  0  0
   -3.1401   -1.0211    0.3984 C   0  0  0  0  0  0  0  0  0  0  0  0
   -5.4379   -0.4997   -0.1359 C   0  0  0  0  0  0  0  0  0  0  0  0
   -5.0755    0.8195   -0.4075 C   0  0  0  0  0  0  0  0  0  0  0  0
   -4.4702   -1.4201    0.2670 C   0  0  0  0  0  0  0  0  0  0  0  0
   -3.3946    2.6394   -0.5766 C   0  0  0  0  0  0  0  0  0  0  0  0
   -2.1312   -2.0345    0.8322 C   0  0  0  0  0  0  0  0  0  0  0  0
   -6.8600   -0.9267   -0.2766 C   0  0  0  0  0  0  0  0  0  0  0  0
    1.1316   -0.5416   -0.1966 C   0  0  0  0  0  0  0  0  0  0  0  0
    1.8492    0.5818    0.1922 C   0  0  0  0  0  0  0  0  0  0  0  0
    1.7829   -1.6967   -0.6084 C   0  0  0  0  0  0  0  0  0  0  0  0
    3.9074   -0.6059   -0.2430 C   0  0  0  0  0  0  0  0  0  0  0  0
    3.2435    0.5495    0.1688 C   0  0  0  0  0  0  0  0  0  0  0  0
    3.1771   -1.7291   -0.6317 C   0  0  0  0  0  0  0  0  0  0  0  0
    6.1970    0.3816    0.0840 C   0  0  0  0  0  0  0  0  0  0  0  0
    7.6319   -0.0526   -0.0811 C   0  0  0  0  0  0  0  0  0  0  0  0
   -5.8335    1.5316   -0.7255 H   0  0  0  0  0  0  0  0  0  0  0  0
   -4.7574   -2.4485    0.4731 H   0  0  0  0  0  0  0  0  0  0  0  0
   -2.7916    3.0947    0.2153 H   0  0  0  0  0  0  0  0  0  0  0  0
   -2.9227    2.7354   -1.5589 H   0  0  0  0  0  0  0  0  0  0  0  0
   -4.3030    3.2541   -0.6202 H   0  0  0  0  0  0  0  0  0  0  0  0
   -1.5837   -2.4390   -0.0239 H   0  0  0  0  0  0  0  0  0  0  0  0
   -1.4577   -1.6586    1.6072 H   0  0  0  0  0  0  0  0  0  0  0  0
   -2.6344   -2.8911    1.2992 H   0  0  0  0  0  0  0  0  0  0  0  0
   -7.1036   -1.7286    0.4287 H   0  0  0  0  0  0  0  0  0  0  0  0
   -7.5445   -0.0978   -0.0667 H   0  0  0  0  0  0  0  0  0  0  0  0
   -7.0454   -1.2857   -1.2938 H   0  0  0  0  0  0  0  0  0  0  0  0
    1.3933    1.5084    0.5197 H   0  0  0  0  0  0  0  0  0  0  0  0
    1.2168   -2.5727   -0.9116 H   0  0  0  0  0  0  0  0  0  0  0  0
    3.7404    1.4569    0.4827 H   0  0  0  0  0  0  0  0  0  0  0  0
    3.6813   -2.6363   -0.9550 H   0  0  0  0  0  0  0  0  0  0  0  0
    5.7109   -1.5164   -0.5791 H   0  0  0  0  0  0  0  0  0  0  0  0
    7.8408   -0.8968    0.5820 H   0  0  0  0  0  0  0  0  0  0  0  0
    8.3010    0.7740    0.1735 H   0  0  0  0  0  0  0  0  0  0  0  0
    7.8132   -0.3485   -1.1183 H   0  0  0  0  0  0  0  0  0  0  0  0
  1  2  1  0  0  0  0
  1  3  2  0  0  0  0
  1  4  2  0  0  0  0
  1  7  1  0  0  0  0
  2 16  1  0  0  0  0
  5 22  2  0  0  0  0
  6 19  1  0  0  0  0
  6 22  1  0  0  0  0
  6 39  1  0  0  0  0
  7  8  2  0  0  0  0
  7  9  1  0  0  0  0
  8 11  1  0  0  0  0
  8 13  1  0  0  0  0
  9 12  2  0  0  0  0
  9 14  1  0  0  0  0
 10 11  2  0  0  0  0
 10 12  1  0  0  0  0
 10 15  1  0  0  0  0
 11 24  1  0  0  0  0
 12 25  1  0  0  0  0
 13 26  1  0  0  0  0
 13 27  1  0  0  0  0
 13 28  1  0  0  0  0
 14 29  1  0  0  0  0
 14 30  1  0  0  0  0
 14 31  1  0  0  0  0
 15 32  1  0  0  0  0
 15 33  1  0  0  0  0
 15 34  1  0  0  0  0
 16 17  2  0  0  0  0
 16 18  1  0  0  0  0
 17 20  1  0  0  0  0
 17 35  1  0  0  0  0
 18 21  2  0  0  0  0
 18 36  1  0  0  0  0
 19 20  2  0  0  0  0
 19 21  1  0  0  0  0
 20 37  1  0  0  0  0
 21 38  1  0  0  0  0
 22 23  1  0  0  0  0
 23 40  1  0  0  0  0
 23 41  1  0  0  0  0
 23 42  1  0  0  0  0
M  END
> <PUBCHEM_COMPOUND_CID>
2269538

> <PUBCHEM_CONFORMER_RMSD>
0.8

> <PUBCHEM_CONFORMER_DIVERSEORDER>
9
6
13
4
16
2
12
7
15
1
5
14
8
11
10
3

> <PUBCHEM_MMFF94_PARTIAL_CHARGES>
30
1 1.49
10 -0.14
11 -0.15
12 -0.15
13 0.14
14 0.14
15 0.14
16 0.08
17 -0.15
18 -0.15
19 0.12
2 -0.27
20 -0.15
21 -0.15
22 0.57
23 0.06
24 0.15
25 0.15
3 -0.65
35 0.15
36 0.15
37 0.15
38 0.15
39 0.37
4 -0.65
5 -0.57
6 -0.55
7 -0.01
8 -0.14
9 -0.14

> <PUBCHEM_EFFECTIVE_ROTOR_COUNT>
5

> <PUBCHEM_PHARMACOPHORE_FEATURES>
6
1 3 acceptor
1 4 acceptor
1 5 acceptor
1 6 donor
6 16 17 18 19 20 21 rings
6 7 8 9 10 11 12 rings

> <PUBCHEM_HEAVY_ATOM_COUNT>
23

> <PUBCHEM_ATOM_DEF_STEREO_COUNT>
0

> <PUBCHEM_ATOM_UDEF_STEREO_COUNT>
0

> <PUBCHEM_BOND_DEF_STEREO_COUNT>
0

> <PUBCHEM_BOND_UDEF_STEREO_COUNT>
0

> <PUBCHEM_ISOTOPIC_ATOM_COUNT>
0

> <PUBCHEM_COMPONENT_COUNT>
1

> <PUBCHEM_CACTVS_TAUTO_COUNT>
2

> <PUBCHEM_CONFORMER_ID>
0022A16200000009

> <PUBCHEM_MMFF94_ENERGY>
68.6606

> <PUBCHEM_FEATURE_SELFOVERLAP>
30.462

> <PUBCHEM_SHAPE_FINGERPRINT>
10 15 18340477968210126200
10366900 7 17561080289526048850
10411042 1 18046069534996288795
10835480 77 18340482253601316485
10968037 39 18411700993745568135
11089746 13 15285361729954594828
11315181 36 17458350757568379069
11719270 70 18271803489699364494
12107183 9 17467058657832332464
12166972 35 18410014351699532408
12236239 1 14261348072199693651
12516196 113 17989487432903806577
13073987 5 18187927222834024499
13288520 33 18409729578345440541
13402501 40 18411981377214893170
13914758 101 15647041634346155989
14123256 10 18342175578711656895
15196674 1 18339081480003154855
17093844 174 9871461006767855428
18681886 176 18412541046493892976
19489759 90 17894631448115631449
200 152 17846497006800425347
20511986 3 17749374949827529619
20645477 70 17774445967120455726
21236236 1 18411138005258916193
21267235 1 18334299803593625299
21315763 129 18335138691958030676
21365058 27 15482673498490999588
23402539 116 18040714770832426926
23557571 272 18409168783574441629
23559900 14 18340198682886274329
283562 15 18335983061517415217
3004659 81 18187081780007108224
34797466 226 17846224371314920012
350125 39 18341050808903647324
3545911 37 18342739615750635966
4073 2 17968382346607378090
4214541 1 18409731716738247373
4325135 7 18342457053783209406
474229 33 18343585153098747542
5104073 3 18264212421879692538
5283173 99 18335980865787209705
5486654 2 18130791191654987150
59755656 215 18411985746004092694
59755656 520 18114175367472796418
67856867 119 18114750446376581660
9709674 26 18339088094659290975

> <PUBCHEM_SHAPE_MULTIPOLES>
448.72
17.07
2.02
0.84
16.03
0.37
0.15
-0.32
-1.09
-1.51
-0.15
-0.15
0.04
1

> <PUBCHEM_SHAPE_SELFOVERLAP>
942.654

> <PUBCHEM_SHAPE_VOLUME>
254.4

> <PUBCHEM_COORDINATE_TYPE>
2
5
10

$$$$
