2823045
  -OEChem-01171810013D

 40 42  0     1  0  0  0  0  0999 V2000
    4.2059    0.6086   -0.0773 S   0  0  0  0  0  0  0  0  0  0  0  0
   -2.1856   -0.6101   -0.3876 O   0  0  0  0  0  0  0  0  0  0  0  0
   -3.7700    1.6519    0.4503 O   0  0  0  0  0  0  0  0  0  0  0  0
    4.7090    1.2222   -1.3056 O   0  0  0  0  0  0  0  0  0  0  0  0
    4.6166    1.1354    1.2241 O   0  0  0  0  0  0  0  0  0  0  0  0
    0.2960    0.2415    0.8060 N   0  0  0  0  0  0  0  0  0  0  0  0
    0.4826    1.1357   -1.4240 N   0  0  0  0  0  0  0  0  0  0  0  0
    2.2389   -0.2576    2.0633 N   0  0  0  0  0  0  0  0  0  0  0  0
   -1.7179    0.7447   -0.4622 C   0  0  1  0  0  0  0  0  0  0  0  0
    4.6363   -1.1242   -0.1137 C   0  0  0  0  0  0  0  0  0  0  0  0
    2.4668    0.6336   -0.1571 C   0  0  0  0  0  0  0  0  0  0  0  0
   -2.3534    1.5804    0.6435 C   0  0  0  0  0  0  0  0  0  0  0  0
   -0.2108    0.7045   -0.3528 C   0  0  0  0  0  0  0  0  0  0  0  0
    6.1417   -1.3219   -0.0503 C   0  0  0  0  0  0  0  0  0  0  0  0
    1.6436    0.2197    0.8700 C   0  0  0  0  0  0  0  0  0  0  0  0
   -3.5426   -0.6773   -0.2073 C   0  0  0  0  0  0  0  0  0  0  0  0
    1.8244    1.0864   -1.2915 C   0  0  0  0  0  0  0  0  0  0  0  0
   -4.3112    0.4207    0.1871 C   0  0  0  0  0  0  0  0  0  0  0  0
    6.5114   -2.7949   -0.1011 C   0  0  0  0  0  0  0  0  0  0  0  0
   -4.1511   -1.9129   -0.4292 C   0  0  0  0  0  0  0  0  0  0  0  0
   -5.6945    0.2941    0.3175 C   0  0  0  0  0  0  0  0  0  0  0  0
   -5.5325   -2.0418   -0.2848 C   0  0  0  0  0  0  0  0  0  0  0  0
   -6.3037   -0.9387    0.0828 C   0  0  0  0  0  0  0  0  0  0  0  0
   -2.0004    1.1403   -1.4478 H   0  0  0  0  0  0  0  0  0  0  0  0
    4.2292   -1.5386   -1.0419 H   0  0  0  0  0  0  0  0  0  0  0  0
    4.1547   -1.6154    0.7357 H   0  0  0  0  0  0  0  0  0  0  0  0
   -2.1634    1.1662    1.6425 H   0  0  0  0  0  0  0  0  0  0  0  0
   -1.9657    2.6051    0.6293 H   0  0  0  0  0  0  0  0  0  0  0  0
    6.6260   -0.8006   -0.8841 H   0  0  0  0  0  0  0  0  0  0  0  0
    6.5411   -0.8816    0.8707 H   0  0  0  0  0  0  0  0  0  0  0  0
    2.3634    1.4357   -2.1655 H   0  0  0  0  0  0  0  0  0  0  0  0
    7.5984   -2.9149   -0.0543 H   0  0  0  0  0  0  0  0  0  0  0  0
    6.0732   -3.3386    0.7418 H   0  0  0  0  0  0  0  0  0  0  0  0
    6.1584   -3.2562   -1.0289 H   0  0  0  0  0  0  0  0  0  0  0  0
   -3.5592   -2.7749   -0.7247 H   0  0  0  0  0  0  0  0  0  0  0  0
   -6.3017    1.1458    0.6115 H   0  0  0  0  0  0  0  0  0  0  0  0
    1.6035   -0.5627    2.7909 H   0  0  0  0  0  0  0  0  0  0  0  0
    3.1239    0.1365    2.3561 H   0  0  0  0  0  0  0  0  0  0  0  0
   -6.0092   -3.0013   -0.4632 H   0  0  0  0  0  0  0  0  0  0  0  0
   -7.3797   -1.0410    0.1903 H   0  0  0  0  0  0  0  0  0  0  0  0
  1  4  2  0  0  0  0
  1  5  2  0  0  0  0
  1 10  1  0  0  0  0
  1 11  1  0  0  0  0
  2  9  1  0  0  0  0
  2 16  1  0  0  0  0
  3 12  1  0  0  0  0
  3 18  1  0  0  0  0
  6 13  1  0  0  0  0
  6 15  2  0  0  0  0
  7 13  2  0  0  0  0
  7 17  1  0  0  0  0
  8 15  1  0  0  0  0
  8 37  1  0  0  0  0
  8 38  1  0  0  0  0
  9 12  1  0  0  0  0
  9 13  1  0  0  0  0
  9 24  1  0  0  0  0
 10 14  1  0  0  0  0
 10 25  1  0  0  0  0
 10 26  1  0  0  0  0
 11 15  1  0  0  0  0
 11 17  2  0  0  0  0
 12 27  1  0  0  0  0
 12 28  1  0  0  0  0
 14 19  1  0  0  0  0
 14 29  1  0  0  0  0
 14 30  1  0  0  0  0
 16 18  1  0  0  0  0
 16 20  2  0  0  0  0
 17 31  1  0  0  0  0
 18 21  2  0  0  0  0
 19 32  1  0  0  0  0
 19 33  1  0  0  0  0
 19 34  1  0  0  0  0
 20 22  1  0  0  0  0
 20 35  1  0  0  0  0
 21 23  1  0  0  0  0
 21 36  1  0  0  0  0
 22 23  2  0  0  0  0
 22 39  1  0  0  0  0
 23 40  1  0  0  0  0
M  END
> <PUBCHEM_COMPOUND_CID>
2823045

> <PUBCHEM_CONFORMER_RMSD>
0.8

> <PUBCHEM_CONFORMER_DIVERSEORDER>
1
62
43
37
45
24
59
61
40
39
47
11
64
67
29
22
54
41
13
6
35
38
65
63
10
53
66
7
56
23
44
5
2
46
20
51
21
55
42
33
4
68
27
30
28
18
31
3
19
36
58
14
60
17
50
49
34
25
12
69
9
52
8
32
15
48
26
57
16

> <PUBCHEM_MMFF94_PARTIAL_CHARGES>
28
1 1.2
10 0.11
11 -0.01
12 0.28
13 0.48
15 0.41
16 0.08
17 0.16
18 0.08
2 -0.36
20 -0.15
21 -0.15
22 -0.15
23 -0.15
3 -0.36
31 0.15
35 0.15
36 0.15
37 0.4
38 0.4
39 0.15
4 -0.65
40 0.15
5 -0.65
6 -0.62
7 -0.62
8 -0.9
9 0.42

> <PUBCHEM_EFFECTIVE_ROTOR_COUNT>
4.8

> <PUBCHEM_PHARMACOPHORE_FEATURES>
11
1 19 hydrophobe
1 2 acceptor
1 3 acceptor
1 4 acceptor
1 5 acceptor
1 8 donor
3 6 7 13 cation
3 6 8 15 cation
6 16 18 20 21 22 23 rings
6 2 3 9 12 16 18 rings
6 6 7 11 13 15 17 rings

> <PUBCHEM_HEAVY_ATOM_COUNT>
23

> <PUBCHEM_ATOM_DEF_STEREO_COUNT>
0

> <PUBCHEM_ATOM_UDEF_STEREO_COUNT>
1

> <PUBCHEM_BOND_DEF_STEREO_COUNT>
0

> <PUBCHEM_BOND_UDEF_STEREO_COUNT>
0

> <PUBCHEM_ISOTOPIC_ATOM_COUNT>
0

> <PUBCHEM_COMPONENT_COUNT>
1

> <PUBCHEM_CACTVS_TAUTO_COUNT>
3

> <PUBCHEM_CONFORMER_ID>
002B138500000001

> <PUBCHEM_MMFF94_ENERGY>
59.7515

> <PUBCHEM_FEATURE_SELFOVERLAP>
56.015

> <PUBCHEM_SHAPE_FINGERPRINT>
10 15 16200428091848703962
10299344 5 18410299095008685830
10319926 262 18059847320969553008
10595046 47 18410862087838206380
10670039 82 14635148972287757446
10693767 8 17749382625609626714
10730089 47 18412544293399653650
11524674 6 16558751226370359031
11545043 162 18131066013373740225
117890 112 9295283941829431986
11796584 16 18202567245969993710
12107183 9 17834114148003278889
12166972 35 18335707156180097860
12236239 1 18259988193180418621
12596602 18 18413105082488685841
12616971 3 17968105252465576109
12633257 1 16056594395602451783
13073987 5 18202281399222874144
13167823 11 18410011043793252182
13288520 33 18411700985208290013
13533116 47 18409168839946904644
13540713 5 15866021371584467112
13668630 136 17822291323309541667
13782708 43 17346314946926127455
13911987 19 14851613154419567642
14211702 104 18337681896301591967
14251751 18 18273214179764543550
14251764 30 18412542085627967706
14341114 176 18130787884123955041
14347332 77 17968651597958977046
14386348 63 17203619211324038813
14556957 393 15647632033958306710
15183329 4 18335707126505411538
15475509 35 18131061611818784546
15880784 105 18411702088571890760
17834072 33 18334859449862920109
17844677 252 18202286913380873848
17857418 61 18411700967622537806
1813 80 17748828501185620996
18222031 100 17676485047352419916
19784866 240 18186805785666961503
200 152 17458340871134217773
20028762 73 18408884019228347234
20567600 247 18261954034340990618
20645477 70 15719658901361984673
21033648 29 15267069103695929473
21267235 1 18187089459983412619
21344244 181 18041005041998022106
21637258 2 18411973642437949902
21641784 216 15068618236982109710
2297311 6 18059868289416954101
23035841 295 18410294709693978811
23402539 116 18413106191223159829
23522609 53 18124629506602031641
23536379 177 18413109454923446976
23559900 14 18269829964863457977
23569943 247 17897724250230197906
29717793 49 18113617897733283340
3004659 81 18334857204185809474
33382 64 18343302535887647890
3472631 163 8718826496318634178
351380 3 18259982704212129859
4072396 5 15626222399476468148
4340502 62 18060128886968712570
465052 167 18059858346862829502
5104073 3 17775284950236930832
559249 180 18409449155440636111
67856867 119 18192715768078168757
7495541 125 17703789257927397304

> <PUBCHEM_SHAPE_MULTIPOLES>
438.76
16.68
2.05
1.13
2.64
1.18
-0.15
10.14
-0.21
0.93
0.19
0.92
-0.31
-0.67

> <PUBCHEM_SHAPE_SELFOVERLAP>
929.788

> <PUBCHEM_SHAPE_VOLUME>
247.5

> <PUBCHEM_COORDINATE_TYPE>
2
5
10

$$$$
