5350830
  -OEChem-01171809433D

 37 39  0     0  0  0  0  0  0999 V2000
    1.3578    1.0499   -1.8510 O   0  0  0  0  0  0  0  0  0  0  0  0
   -0.4857   -1.8561   -1.9169 O   0  0  0  0  0  0  0  0  0  0  0  0
    2.7440   -1.2693    1.1465 N   0  0  0  0  0  0  0  0  0  0  0  0
    3.5459   -0.2107    0.7107 C   0  0  0  0  0  0  0  0  0  0  0  0
    3.1039    0.6179   -0.3291 C   0  0  0  0  0  0  0  0  0  0  0  0
    1.5089   -1.5486    0.5939 C   0  0  0  0  0  0  0  0  0  0  0  0
    0.9841   -0.8077   -0.4081 C   0  0  0  0  0  0  0  0  0  0  0  0
    1.7809    0.3468   -0.9406 C   0  0  0  0  0  0  0  0  0  0  0  0
    3.8911    1.6807   -0.7821 C   0  0  0  0  0  0  0  0  0  0  0  0
    4.7929    0.0395    1.2937 C   0  0  0  0  0  0  0  0  0  0  0  0
    0.8126   -2.7473    1.1908 C   0  0  0  0  0  0  0  0  0  0  0  0
   -0.3472   -1.0993   -0.9639 C   0  0  0  0  0  0  0  0  0  0  0  0
    5.1316    1.9183   -0.1912 C   0  0  0  0  0  0  0  0  0  0  0  0
    5.5818    1.0999    0.8442 C   0  0  0  0  0  0  0  0  0  0  0  0
   -1.4709   -0.4101   -0.2785 C   0  0  0  0  0  0  0  0  0  0  0  0
   -2.7267   -0.5955   -0.7111 C   0  0  0  0  0  0  0  0  0  0  0  0
   -3.9189    0.0384   -0.1204 C   0  0  0  0  0  0  0  0  0  0  0  0
   -3.8520    0.5388    1.1696 C   0  0  0  0  0  0  0  0  0  0  0  0
   -5.0829    0.1218   -0.8669 C   0  0  0  0  0  0  0  0  0  0  0  0
   -4.9801    1.1393    1.7287 C   0  0  0  0  0  0  0  0  0  0  0  0
   -6.2111    0.7224   -0.3080 C   0  0  0  0  0  0  0  0  0  0  0  0
   -6.1597    1.2311    0.9899 C   0  0  0  0  0  0  0  0  0  0  0  0
    3.0779   -1.8619    1.8960 H   0  0  0  0  0  0  0  0  0  0  0  0
    3.5572    2.3289   -1.5872 H   0  0  0  0  0  0  0  0  0  0  0  0
    5.1590   -0.5894    2.1015 H   0  0  0  0  0  0  0  0  0  0  0  0
   -0.1265   -3.0058    0.6948 H   0  0  0  0  0  0  0  0  0  0  0  0
    0.5886   -2.5619    2.2470 H   0  0  0  0  0  0  0  0  0  0  0  0
    1.4616   -3.6279    1.1277 H   0  0  0  0  0  0  0  0  0  0  0  0
    5.7485    2.7423   -0.5380 H   0  0  0  0  0  0  0  0  0  0  0  0
    6.5487    1.2877    1.3021 H   0  0  0  0  0  0  0  0  0  0  0  0
   -1.2148    0.2449    0.5460 H   0  0  0  0  0  0  0  0  0  0  0  0
   -2.9206   -1.2448   -1.5620 H   0  0  0  0  0  0  0  0  0  0  0  0
   -2.9631    0.4701    1.7885 H   0  0  0  0  0  0  0  0  0  0  0  0
   -5.1384   -0.2685   -1.8797 H   0  0  0  0  0  0  0  0  0  0  0  0
   -4.9422    1.5311    2.7410 H   0  0  0  0  0  0  0  0  0  0  0  0
   -7.1296    0.7940   -0.8831 H   0  0  0  0  0  0  0  0  0  0  0  0
   -7.0384    1.6976    1.4255 H   0  0  0  0  0  0  0  0  0  0  0  0
  1  8  2  0  0  0  0
  2 12  2  0  0  0  0
  3  4  1  0  0  0  0
  3  6  1  0  0  0  0
  3 23  1  0  0  0  0
  4  5  1  0  0  0  0
  4 10  2  0  0  0  0
  5  8  1  0  0  0  0
  5  9  2  0  0  0  0
  6  7  2  0  0  0  0
  6 11  1  0  0  0  0
  7  8  1  0  0  0  0
  7 12  1  0  0  0  0
  9 13  1  0  0  0  0
  9 24  1  0  0  0  0
 10 14  1  0  0  0  0
 10 25  1  0  0  0  0
 11 26  1  0  0  0  0
 11 27  1  0  0  0  0
 11 28  1  0  0  0  0
 12 15  1  0  0  0  0
 13 14  2  0  0  0  0
 13 29  1  0  0  0  0
 14 30  1  0  0  0  0
 15 16  2  0  0  0  0
 15 31  1  0  0  0  0
 16 17  1  0  0  0  0
 16 32  1  0  0  0  0
 17 18  2  0  0  0  0
 17 19  1  0  0  0  0
 18 20  1  0  0  0  0
 18 33  1  0  0  0  0
 19 21  2  0  0  0  0
 19 34  1  0  0  0  0
 20 22  2  0  0  0  0
 20 35  1  0  0  0  0
 21 22  1  0  0  0  0
 21 36  1  0  0  0  0
 22 37  1  0  0  0  0
M  END
> <PUBCHEM_COMPOUND_CID>
5350830

> <PUBCHEM_CONFORMER_RMSD>
0.6

> <PUBCHEM_CONFORMER_DIVERSEORDER>
2
18
15
5
16
4
14
17
1
6
13
9
7
3
11
10
8
12

> <PUBCHEM_MMFF94_PARTIAL_CHARGES>
34
1 -0.57
10 -0.15
11 0.14
12 0.54
13 -0.15
14 -0.15
15 -0.14
16 -0.18
17 0.03
18 -0.15
19 -0.15
2 -0.57
20 -0.15
21 -0.15
22 -0.15
23 0.4
24 0.15
25 0.15
29 0.15
3 -0.6
30 0.15
31 0.15
32 0.15
33 0.15
34 0.15
35 0.15
36 0.15
37 0.15
4 0.1
5 0.09
6 -0.04
7 0.03
8 0.47
9 -0.15

> <PUBCHEM_EFFECTIVE_ROTOR_COUNT>
3

> <PUBCHEM_PHARMACOPHORE_FEATURES>
8
1 1 acceptor
1 2 acceptor
1 3 cation
1 3 donor
1 7 anion
6 17 18 19 20 21 22 rings
6 3 4 5 6 7 8 rings
6 4 5 9 10 13 14 rings

> <PUBCHEM_HEAVY_ATOM_COUNT>
22

> <PUBCHEM_ATOM_DEF_STEREO_COUNT>
0

> <PUBCHEM_ATOM_UDEF_STEREO_COUNT>
0

> <PUBCHEM_BOND_DEF_STEREO_COUNT>
1

> <PUBCHEM_BOND_UDEF_STEREO_COUNT>
0

> <PUBCHEM_ISOTOPIC_ATOM_COUNT>
0

> <PUBCHEM_COMPONENT_COUNT>
1

> <PUBCHEM_CACTVS_TAUTO_COUNT>
17

> <PUBCHEM_CONFORMER_ID>
0051A5AE00000002

> <PUBCHEM_MMFF94_ENERGY>
74.5888

> <PUBCHEM_FEATURE_SELFOVERLAP>
40.619

> <PUBCHEM_SHAPE_FINGERPRINT>
10 15 17095520729744564388
10498660 4 16916790630866898593
10591671 39 17560798870900598143
10670039 82 17418103078520391216
10674148 151 18411144650259034756
10693767 8 11023837149735234964
11724838 91 18335422404912999543
11796584 16 12685077177512778721
11961588 58 16200143335479945398
12236239 1 18341887506681120791
12596602 18 18410856568836503083
12633257 1 16950568821614090857
13631057 29 18267578204021411591
13668630 136 9511457832166506985
14251751 18 13912326793729125065
14341114 176 17095242514283872164
14341114 328 18410292514817906611
14576447 43 10087647004923309108
14739800 52 17703211962904410258
15183329 4 13038915417047340403
15188451 53 15575006121732018729
15238133 3 18200871890025612600
15348495 7 16515692181888934241
15475509 35 14996825625737008240
15475509 8 18337688455623488844
15475509 84 18118107092452481736
17349148 13 10737284623826079249
17857418 61 11241970386866243489
1813 80 8358263669580927146
18222031 100 9583523096614611638
18785283 64 16371582529988721196
19377110 9 18410579513713702483
19784866 240 10809343334866558645
1979834 28 17749116560447532927
20511986 3 18270386223294625173
21637258 2 10953733430513332872
221357 26 12679463071436974771
22393880 68 13830119603359750517
22950370 63 11818994076079748981
23559900 14 16226617247863616467
26918003 58 16515683338672188381
2767999 5 18202561787245901777
2838139 119 17632292402035044536
3009799 131 14045741526485903882
314194 84 9511466640664246868
3178227 256 17530677698592289536
3472631 163 17917146212527556680
34797466 226 15195282071059671817
351380 3 7853582296303404629
4340502 62 18041000639608446739
465052 167 15140681375954281682
474 4 18408040723251426963
5104073 3 17751346508158641928
5281201 14 13398629442214877587
5924683 9 17313677069990631467
59682541 52 13182745797104638497
7808743 9 17775564247733637475
960060 61 11671780472610496672

> <PUBCHEM_SHAPE_MULTIPOLES>
436.03
14.72
1.96
1.56
11.83
0.78
-0.03
-9.62
4.48
-1.49
0.23
0.37
0.09
-1.51

> <PUBCHEM_SHAPE_SELFOVERLAP>
955.784

> <PUBCHEM_SHAPE_VOLUME>
234.6

> <PUBCHEM_COORDINATE_TYPE>
2
5
10

$$$$
