16746425
  -OEChem-01171809563D

 53 57  0     1  0  0  0  0  0999 V2000
   -2.5179   -1.4375    1.8894 O   0  0  0  0  0  0  0  0  0  0  0  0
   -1.2327    0.1082    0.6477 N   0  0  0  0  0  0  0  0  0  0  0  0
   -0.8528   -2.1598    0.2471 C   0  0  2  0  0  0  0  0  0  0  0  0
   -0.5696   -1.3378   -1.0271 C   0  0  1  0  0  0  0  0  0  0  0  0
   -0.2917    0.0657   -0.4757 C   0  0  2  0  0  0  0  0  0  0  0  0
   -1.4141   -3.5248   -0.1458 C   0  0  1  0  0  0  0  0  0  0  0  0
   -1.6843   -1.1666    1.0403 C   0  0  0  0  0  0  0  0  0  0  0  0
   -0.3509   -4.2629   -1.0079 C   0  0  0  0  0  0  0  0  0  0  0  0
    0.3891   -2.0417   -1.9297 C   0  0  0  0  0  0  0  0  0  0  0  0
    1.1134    0.2639   -0.0131 C   0  0  0  0  0  0  0  0  0  0  0  0
    0.4679   -3.3817   -1.9214 C   0  0  0  0  0  0  0  0  0  0  0  0
   -1.7921   -4.3875    1.0573 C   0  0  0  0  0  0  0  0  0  0  0  0
   -1.7090    1.3602    1.1993 C   0  0  0  0  0  0  0  0  0  0  0  0
    2.0549    0.8370   -0.8685 C   0  0  0  0  0  0  0  0  0  0  0  0
    1.4834   -0.1223    1.2718 C   0  0  0  0  0  0  0  0  0  0  0  0
   -2.9089    1.8497    0.4368 C   0  0  0  0  0  0  0  0  0  0  0  0
    3.3809    1.0308   -0.4483 C   0  0  0  0  0  0  0  0  0  0  0  0
    2.7963    0.0629    1.7060 C   0  0  0  0  0  0  0  0  0  0  0  0
    3.7572    0.6378    0.8581 C   0  0  0  0  0  0  0  0  0  0  0  0
   -2.7402    2.6839   -0.6683 C   0  0  0  0  0  0  0  0  0  0  0  0
   -4.1907    1.4698    0.8346 C   0  0  0  0  0  0  0  0  0  0  0  0
    4.3418    1.6060   -1.2959 C   0  0  0  0  0  0  0  0  0  0  0  0
    5.0830    0.8316    1.2786 C   0  0  0  0  0  0  0  0  0  0  0  0
   -3.8532    3.1380   -1.3757 C   0  0  0  0  0  0  0  0  0  0  0  0
   -5.3038    1.9240    0.1270 C   0  0  0  0  0  0  0  0  0  0  0  0
    5.6546    1.7909   -0.8616 C   0  0  0  0  0  0  0  0  0  0  0  0
    6.0247    1.4043    0.4232 C   0  0  0  0  0  0  0  0  0  0  0  0
   -5.1351    2.7580   -0.9781 C   0  0  0  0  0  0  0  0  0  0  0  0
    0.0643   -2.3365    0.8243 H   0  0  0  0  0  0  0  0  0  0  0  0
   -1.5100   -1.2531   -1.5984 H   0  0  0  0  0  0  0  0  0  0  0  0
   -0.5745    0.8283   -1.2093 H   0  0  0  0  0  0  0  0  0  0  0  0
   -2.3200   -3.3824   -0.7506 H   0  0  0  0  0  0  0  0  0  0  0  0
   -0.8539   -5.0290   -1.6102 H   0  0  0  0  0  0  0  0  0  0  0  0
    0.3542   -4.7910   -0.3529 H   0  0  0  0  0  0  0  0  0  0  0  0
    0.9775   -1.4695   -2.6390 H   0  0  0  0  0  0  0  0  0  0  0  0
    1.1553   -3.8747   -2.6029 H   0  0  0  0  0  0  0  0  0  0  0  0
   -0.9515   -4.4949    1.7511 H   0  0  0  0  0  0  0  0  0  0  0  0
   -2.6336   -3.9569    1.6072 H   0  0  0  0  0  0  0  0  0  0  0  0
   -2.0938   -5.3896    0.7338 H   0  0  0  0  0  0  0  0  0  0  0  0
   -0.8997    2.0988    1.1883 H   0  0  0  0  0  0  0  0  0  0  0  0
   -1.9823    1.1976    2.2487 H   0  0  0  0  0  0  0  0  0  0  0  0
    1.7560    1.1361   -1.8718 H   0  0  0  0  0  0  0  0  0  0  0  0
    0.7910   -0.5561    1.9850 H   0  0  0  0  0  0  0  0  0  0  0  0
    3.0632   -0.2430    2.7156 H   0  0  0  0  0  0  0  0  0  0  0  0
   -1.7479    2.9924   -0.9859 H   0  0  0  0  0  0  0  0  0  0  0  0
   -4.3375    0.8218    1.6944 H   0  0  0  0  0  0  0  0  0  0  0  0
    4.0751    1.9155   -2.3043 H   0  0  0  0  0  0  0  0  0  0  0  0
    5.3945    0.5370    2.2787 H   0  0  0  0  0  0  0  0  0  0  0  0
   -3.7220    3.7886   -2.2355 H   0  0  0  0  0  0  0  0  0  0  0  0
   -6.3019    1.6284    0.4368 H   0  0  0  0  0  0  0  0  0  0  0  0
    6.3881    2.2368   -1.5271 H   0  0  0  0  0  0  0  0  0  0  0  0
    7.0470    1.5485    0.7606 H   0  0  0  0  0  0  0  0  0  0  0  0
   -6.0017    3.1119   -1.5287 H   0  0  0  0  0  0  0  0  0  0  0  0
  1  7  2  0  0  0  0
  2  5  1  0  0  0  0
  2  7  1  0  0  0  0
  2 13  1  0  0  0  0
  3  4  1  0  0  0  0
  3  6  1  0  0  0  0
  3  7  1  0  0  0  0
  3 29  1  0  0  0  0
  4  5  1  0  0  0  0
  4  9  1  0  0  0  0
  4 30  1  0  0  0  0
  5 10  1  0  0  0  0
  5 31  1  0  0  0  0
  6  8  1  0  0  0  0
  6 12  1  0  0  0  0
  6 32  1  0  0  0  0
  8 11  1  0  0  0  0
  8 33  1  0  0  0  0
  8 34  1  0  0  0  0
  9 11  2  0  0  0  0
  9 35  1  0  0  0  0
 10 14  2  0  0  0  0
 10 15  1  0  0  0  0
 11 36  1  0  0  0  0
 12 37  1  0  0  0  0
 12 38  1  0  0  0  0
 12 39  1  0  0  0  0
 13 16  1  0  0  0  0
 13 40  1  0  0  0  0
 13 41  1  0  0  0  0
 14 17  1  0  0  0  0
 14 42  1  0  0  0  0
 15 18  2  0  0  0  0
 15 43  1  0  0  0  0
 16 20  2  0  0  0  0
 16 21  1  0  0  0  0
 17 19  1  0  0  0  0
 17 22  2  0  0  0  0
 18 19  1  0  0  0  0
 18 44  1  0  0  0  0
 19 23  2  0  0  0  0
 20 24  1  0  0  0  0
 20 45  1  0  0  0  0
 21 25  2  0  0  0  0
 21 46  1  0  0  0  0
 22 26  1  0  0  0  0
 22 47  1  0  0  0  0
 23 27  1  0  0  0  0
 23 48  1  0  0  0  0
 24 28  2  0  0  0  0
 24 49  1  0  0  0  0
 25 28  1  0  0  0  0
 25 50  1  0  0  0  0
 26 27  2  0  0  0  0
 26 51  1  0  0  0  0
 27 52  1  0  0  0  0
 28 53  1  0  0  0  0
M  END
> <PUBCHEM_COMPOUND_CID>
16746425

> <PUBCHEM_CONFORMER_RMSD>
0.8

> <PUBCHEM_CONFORMER_DIVERSEORDER>
1
3
12
6
15
10
13
8
5
16
11
14
2
7
9
17
4

> <PUBCHEM_MMFF94_PARTIAL_CHARGES>
38
1 -0.57
10 -0.14
11 -0.29
13 0.44
14 -0.15
15 -0.15
16 -0.14
18 -0.15
2 -0.66
20 -0.15
21 -0.15
22 -0.15
23 -0.15
24 -0.15
25 -0.15
26 -0.15
27 -0.15
28 -0.15
3 0.06
35 0.15
36 0.15
4 0.14
42 0.15
43 0.15
44 0.15
45 0.15
46 0.15
47 0.15
48 0.15
49 0.15
5 0.44
50 0.15
51 0.15
52 0.15
53 0.15
7 0.57
8 0.14
9 -0.29

> <PUBCHEM_EFFECTIVE_ROTOR_COUNT>
3.8

> <PUBCHEM_PHARMACOPHORE_FEATURES>
6
1 1 acceptor
5 2 3 4 5 7 rings
6 10 14 15 17 18 19 rings
6 16 20 21 24 25 28 rings
6 17 19 22 23 26 27 rings
6 3 4 6 8 9 11 rings

> <PUBCHEM_HEAVY_ATOM_COUNT>
28

> <PUBCHEM_ATOM_DEF_STEREO_COUNT>
4

> <PUBCHEM_ATOM_UDEF_STEREO_COUNT>
0

> <PUBCHEM_BOND_DEF_STEREO_COUNT>
0

> <PUBCHEM_BOND_UDEF_STEREO_COUNT>
0

> <PUBCHEM_ISOTOPIC_ATOM_COUNT>
0

> <PUBCHEM_COMPONENT_COUNT>
1

> <PUBCHEM_CACTVS_TAUTO_COUNT>
2

> <PUBCHEM_CONFORMER_ID>
00FF87B900000001

> <PUBCHEM_MMFF94_ENERGY>
82.8221

> <PUBCHEM_FEATURE_SELFOVERLAP>
30.547

> <PUBCHEM_SHAPE_FINGERPRINT>
10074138 170 18263349451386180363
10369192 42 18411421687654177645
105312 117 18413390942685027780
10764073 3 15434790642900187573
10815517 723 17843120561933742991
11763715 3 17467371335794193782
11991303 11 18410012147637167278
12160290 23 18129373968115979603
12597179 24 18341616984124196551
12788726 201 18192413380736784699
13004483 165 17835802271819156711
13257819 37 18413389847552503549
133893 2 17768261106617993427
13583140 156 17774437317504142432
13911987 19 18413106135104488601
14114206 34 17833814342280890830
14202776 33 17975434699976522788
15131766 46 14853036043252522324
15163728 17 18339931398513015033
15439362 3 18196089945977397214
16752209 62 18199174251886605814
17980427 23 17458351827638085821
1813 80 17407115934055450958
20511986 3 17822279215507006360
20554085 129 17916002608374955208
21033648 29 18341036446217207160
22149856 69 18047501962777514681
22182313 1 18120966978114843123
23559900 14 17758679949804302893
23598288 3 18264489670967149550
249057 3 18340204099683572320
3759504 43 18342174483605746652
4015057 19 16056880282185802656
4058900 60 18268435624646602353
4371632 12 16630233805896674010
4409770 3 18338796848758433023
44249763 50 18198335355392442912
44802255 64 18340219578365854150
4938544 92 18340197614035438408
5080951 261 17202751743652082926
59444896 2 17907253798975379599
59755656 520 18410283697044456196
6669772 16 18271526381891621318
9862522 239 18340774826741624414
9981440 41 18335424513467739753

> <PUBCHEM_SHAPE_MULTIPOLES>
565.38
10.62
5.02
1.74
7.65
6.28
0.09
-14.18
-0.22
-5.36
1.67
0.26
0.57
1.1

> <PUBCHEM_SHAPE_SELFOVERLAP>
1252.806

> <PUBCHEM_SHAPE_VOLUME>
303.5

> <PUBCHEM_COORDINATE_TYPE>
2
5
10

$$$$
