2407399
  -OEChem-01171809493D

 45 46  0     0  0  0  0  0  0999 V2000
   -2.8764    3.3551   -0.5077 Cl  0  0  0  0  0  0  0  0  0  0  0  0
    0.2447   -1.8732   -0.3840 O   0  0  0  0  0  0  0  0  0  0  0  0
    3.4975    1.6775   -1.5018 O   0  0  0  0  0  0  0  0  0  0  0  0
    1.4810   -1.2941   -2.2376 O   0  0  0  0  0  0  0  0  0  0  0  0
   -1.9333   -3.1595    0.7117 O   0  0  0  0  0  0  0  0  0  0  0  0
   -1.3318    2.8734    2.6562 O   0  5  0  0  0  0  0  0  0  0  0  0
   -2.1389    0.9432    1.9912 O   0  0  0  0  0  0  0  0  0  0  0  0
   -3.2765   -2.1512   -0.8976 N   0  0  0  0  0  0  0  0  0  0  0  0
   -1.4312    1.9601    1.8040 N   0  3  0  0  0  0  0  0  0  0  0  0
    3.1212   -0.0292    0.0527 C   0  0  0  0  0  0  0  0  0  0  0  0
    2.4981   -1.2699   -0.0813 C   0  0  0  0  0  0  0  0  0  0  0  0
   -4.5553   -2.4435   -0.2918 C   0  0  0  0  0  0  0  0  0  0  0  0
   -5.0097   -1.3461    0.6631 C   0  0  0  0  0  0  0  0  0  0  0  0
    1.3121    1.6694   -0.6678 C   0  0  0  0  0  0  0  0  0  0  0  0
    2.6982    1.1197   -0.7374 C   0  0  0  0  0  0  0  0  0  0  0  0
    4.1720    0.1296    0.9561 C   0  0  0  0  0  0  0  0  0  0  0  0
    2.9258   -2.3518    0.6883 C   0  0  0  0  0  0  0  0  0  0  0  0
    0.5790    1.5661    0.5143 C   0  0  0  0  0  0  0  0  0  0  0  0
    1.3771   -1.4711   -1.0338 C   0  0  0  0  0  0  0  0  0  0  0  0
   -0.8940   -2.0993   -1.1873 C   0  0  0  0  0  0  0  0  0  0  0  0
    0.7511    2.2889   -1.7846 C   0  0  0  0  0  0  0  0  0  0  0  0
   -5.1840   -0.0007   -0.0271 C   0  0  0  0  0  0  0  0  0  0  0  0
   -2.0684   -2.5378   -0.3387 C   0  0  0  0  0  0  0  0  0  0  0  0
    4.5996   -0.9524    1.7257 C   0  0  0  0  0  0  0  0  0  0  0  0
   -0.7151    2.0825    0.5797 C   0  0  0  0  0  0  0  0  0  0  0  0
    3.9765   -2.1930    1.5918 C   0  0  0  0  0  0  0  0  0  0  0  0
   -0.5430    2.8052   -1.7193 C   0  0  0  0  0  0  0  0  0  0  0  0
   -1.2761    2.7020   -0.5370 C   0  0  0  0  0  0  0  0  0  0  0  0
   -5.2788   -2.5691   -1.1044 H   0  0  0  0  0  0  0  0  0  0  0  0
   -4.4845   -3.3946    0.2471 H   0  0  0  0  0  0  0  0  0  0  0  0
   -5.9629   -1.6401    1.1172 H   0  0  0  0  0  0  0  0  0  0  0  0
   -4.2844   -1.2362    1.4779 H   0  0  0  0  0  0  0  0  0  0  0  0
    4.6657    1.0911    1.0724 H   0  0  0  0  0  0  0  0  0  0  0  0
   -3.2802   -1.6421   -1.7767 H   0  0  0  0  0  0  0  0  0  0  0  0
    2.4518   -3.3254    0.5923 H   0  0  0  0  0  0  0  0  0  0  0  0
    1.0106    1.0962    1.3953 H   0  0  0  0  0  0  0  0  0  0  0  0
   -1.1455   -1.1767   -1.7233 H   0  0  0  0  0  0  0  0  0  0  0  0
   -0.6915   -2.8971   -1.9111 H   0  0  0  0  0  0  0  0  0  0  0  0
   -4.2370    0.3645   -0.4358 H   0  0  0  0  0  0  0  0  0  0  0  0
   -5.9083   -0.0706   -0.8448 H   0  0  0  0  0  0  0  0  0  0  0  0
   -5.5493    0.7443    0.6870 H   0  0  0  0  0  0  0  0  0  0  0  0
    1.3046    2.3736   -2.7160 H   0  0  0  0  0  0  0  0  0  0  0  0
    5.4175   -0.8288    2.4295 H   0  0  0  0  0  0  0  0  0  0  0  0
    4.3099   -3.0355    2.1907 H   0  0  0  0  0  0  0  0  0  0  0  0
   -0.9660    3.2832   -2.5993 H   0  0  0  0  0  0  0  0  0  0  0  0
  1 28  1  0  0  0  0
  2 19  1  0  0  0  0
  2 20  1  0  0  0  0
  3 15  2  0  0  0  0
  4 19  2  0  0  0  0
  5 23  2  0  0  0  0
  6  9  1  0  0  0  0
  7  9  2  0  0  0  0
  8 12  1  0  0  0  0
  8 23  1  0  0  0  0
  8 34  1  0  0  0  0
  9 25  1  0  0  0  0
 10 11  1  0  0  0  0
 10 15  1  0  0  0  0
 10 16  2  0  0  0  0
 11 17  2  0  0  0  0
 11 19  1  0  0  0  0
 12 13  1  0  0  0  0
 12 29  1  0  0  0  0
 12 30  1  0  0  0  0
 13 22  1  0  0  0  0
 13 31  1  0  0  0  0
 13 32  1  0  0  0  0
 14 15  1  0  0  0  0
 14 18  2  0  0  0  0
 14 21  1  0  0  0  0
 16 24  1  0  0  0  0
 16 33  1  0  0  0  0
 17 26  1  0  0  0  0
 17 35  1  0  0  0  0
 18 25  1  0  0  0  0
 18 36  1  0  0  0  0
 20 23  1  0  0  0  0
 20 37  1  0  0  0  0
 20 38  1  0  0  0  0
 21 27  2  0  0  0  0
 21 42  1  0  0  0  0
 22 39  1  0  0  0  0
 22 40  1  0  0  0  0
 22 41  1  0  0  0  0
 24 26  2  0  0  0  0
 24 43  1  0  0  0  0
 25 28  2  0  0  0  0
 26 44  1  0  0  0  0
 27 28  1  0  0  0  0
 27 45  1  0  0  0  0
M  CHG  2   6  -1   9   1
M  END
> <PUBCHEM_COMPOUND_CID>
2407399

> <PUBCHEM_CONFORMER_RMSD>
1.2

> <PUBCHEM_CONFORMER_DIVERSEORDER>
1
55
15
4
71
6
8
28
52
45
19
41
68
31
9
23
77
10
35
11
22
83
5
89
33
34
56
62
87
59
49
73
16
81
14
65
44
3
57
20
2
79
18
84
82
86
32
37
43
54
42
90
40
24
53
46
67
30
76
21
80
48
36
39
92
78
27
12
50
29
51
74
85
69
13
64
72
91
17
7
61
66
38
88
70
60
47
63
58
75
26
25

> <PUBCHEM_MMFF94_PARTIAL_CHARGES>
34
1 -0.18
10 0.09
11 0.09
12 0.3
14 0.09
15 0.4
16 -0.15
17 -0.15
18 -0.15
19 0.63
2 -0.43
20 0.34
21 -0.15
23 0.57
24 -0.15
25 0.13
26 -0.15
27 -0.15
28 0.18
3 -0.57
33 0.15
34 0.37
35 0.15
36 0.15
4 -0.57
42 0.15
43 0.15
44 0.15
45 0.15
5 -0.57
6 -0.52
7 -0.52
8 -0.73
9 0.91

> <PUBCHEM_EFFECTIVE_ROTOR_COUNT>
10

> <PUBCHEM_PHARMACOPHORE_FEATURES>
10
1 22 hydrophobe
1 3 acceptor
1 4 acceptor
1 5 acceptor
1 6 acceptor
1 6 anion
1 7 acceptor
1 8 donor
6 10 11 16 17 24 26 rings
6 14 18 21 25 27 28 rings

> <PUBCHEM_HEAVY_ATOM_COUNT>
28

> <PUBCHEM_ATOM_DEF_STEREO_COUNT>
0

> <PUBCHEM_ATOM_UDEF_STEREO_COUNT>
0

> <PUBCHEM_BOND_DEF_STEREO_COUNT>
0

> <PUBCHEM_BOND_UDEF_STEREO_COUNT>
0

> <PUBCHEM_ISOTOPIC_ATOM_COUNT>
0

> <PUBCHEM_COMPONENT_COUNT>
1

> <PUBCHEM_CACTVS_TAUTO_COUNT>
2

> <PUBCHEM_CONFORMER_ID>
0024BBE700000001

> <PUBCHEM_MMFF94_ENERGY>
76.0765

> <PUBCHEM_FEATURE_SELFOVERLAP>
50.829

> <PUBCHEM_SHAPE_FINGERPRINT>
10064457 181 17698463030550305704
104564 63 18341618165171469164
10688039 33 18113606907128335335
12035759 4 18190478231924207172
12422481 6 18343018848622724955
12788726 201 18200607963683568433
13004483 165 18261380157193520385
14178342 30 17767131903665346993
14787075 74 17556825106259137700
14790565 3 17467636331018878564
15297060 5 17272047274323452307
16728300 4 15873341764702733539
18336668 15 18339355374810714747
18603816 31 16231648497161041970
20600515 1 18339357564943979119
20715895 44 18265046921947543933
21421861 104 18334585658519158062
23419403 2 17912325953208404536
3052486 1 18263089829292904926
35225 105 17346331340378316193
3680242 22 18337399249357576323
4340502 62 17841420441504339469
57527573 199 16257020264368105105
7064713 232 18059305240615618257
81228 2 18339376157788773015
8509985 295 18263638618871344583

> <PUBCHEM_SHAPE_MULTIPOLES>
532.92
8.6
4.57
1.93
3.11
0.76
-0.51
-5.53
-2.71
3.25
0.41
-0.39
0.87
-1.55

> <PUBCHEM_SHAPE_SELFOVERLAP>
1121.193

> <PUBCHEM_SHAPE_VOLUME>
300.6

> <PUBCHEM_COORDINATE_TYPE>
2
5
10

$$$$
