11208732
  -OEChem-01171810113D

 33 35  0     0  0  0  0  0  0999 V2000
    2.2711    2.1637    0.0461 F   0  0  0  0  0  0  0  0  0  0  0  0
    2.1019   -1.9923   -0.0535 O   0  0  0  0  0  0  0  0  0  0  0  0
   -5.3054    1.2577   -0.4635 O   0  0  0  0  0  0  0  0  0  0  0  0
   -3.6265    2.3418    0.6790 O   0  0  0  0  0  0  0  0  0  0  0  0
    0.8412   -0.1423    0.0183 N   0  0  0  0  0  0  0  0  0  0  0  0
    0.7709   -2.4283   -0.0374 N   0  0  0  0  0  0  0  0  0  0  0  0
   -1.3453   -1.2343    0.0344 C   0  0  0  0  0  0  0  0  0  0  0  0
    0.0899   -1.2802    0.0047 C   0  0  0  0  0  0  0  0  0  0  0  0
   -2.0037   -0.0053    0.0779 C   0  0  0  0  0  0  0  0  0  0  0  0
    3.3238    0.0322   -0.0276 C   0  0  0  0  0  0  0  0  0  0  0  0
   -3.3977    0.0385    0.1065 C   0  0  0  0  0  0  0  0  0  0  0  0
    2.0536   -0.6348   -0.0182 C   0  0  0  0  0  0  0  0  0  0  0  0
   -2.0808   -2.4194    0.0196 C   0  0  0  0  0  0  0  0  0  0  0  0
   -4.1330   -1.1468    0.0916 C   0  0  0  0  0  0  0  0  0  0  0  0
   -3.4747   -2.3757    0.0482 C   0  0  0  0  0  0  0  0  0  0  0  0
    3.3925    1.4293    0.0054 C   0  0  0  0  0  0  0  0  0  0  0  0
    4.5072   -0.7129   -0.0697 C   0  0  0  0  0  0  0  0  0  0  0  0
    4.6299    2.0732   -0.0035 C   0  0  0  0  0  0  0  0  0  0  0  0
    5.7444   -0.0688   -0.0787 C   0  0  0  0  0  0  0  0  0  0  0  0
   -4.0848    1.3193    0.1518 C   0  0  0  0  0  0  0  0  0  0  0  0
    5.8058    1.3242   -0.0456 C   0  0  0  0  0  0  0  0  0  0  0  0
   -6.0803    2.4613   -0.4858 C   0  0  0  0  0  0  0  0  0  0  0  0
   -1.4430    0.9271    0.0865 H   0  0  0  0  0  0  0  0  0  0  0  0
   -1.6029   -3.3953   -0.0134 H   0  0  0  0  0  0  0  0  0  0  0  0
   -5.2193   -1.1446    0.1256 H   0  0  0  0  0  0  0  0  0  0  0  0
   -4.0474   -3.2986    0.0395 H   0  0  0  0  0  0  0  0  0  0  0  0
    4.5023   -1.7999   -0.0963 H   0  0  0  0  0  0  0  0  0  0  0  0
    4.6775    3.1578    0.0223 H   0  0  0  0  0  0  0  0  0  0  0  0
    6.6603   -0.6516   -0.1115 H   0  0  0  0  0  0  0  0  0  0  0  0
    6.7691    1.8257   -0.0527 H   0  0  0  0  0  0  0  0  0  0  0  0
   -5.5430    3.2456   -1.0270 H   0  0  0  0  0  0  0  0  0  0  0  0
   -6.3075    2.7822    0.5351 H   0  0  0  0  0  0  0  0  0  0  0  0
   -7.0184    2.2527   -1.0067 H   0  0  0  0  0  0  0  0  0  0  0  0
  1 16  1  0  0  0  0
  2  6  1  0  0  0  0
  2 12  1  0  0  0  0
  3 20  1  0  0  0  0
  3 22  1  0  0  0  0
  4 20  2  0  0  0  0
  5  8  1  0  0  0  0
  5 12  2  0  0  0  0
  6  8  2  0  0  0  0
  7  8  1  0  0  0  0
  7  9  2  0  0  0  0
  7 13  1  0  0  0  0
  9 11  1  0  0  0  0
  9 23  1  0  0  0  0
 10 12  1  0  0  0  0
 10 16  1  0  0  0  0
 10 17  2  0  0  0  0
 11 14  2  0  0  0  0
 11 20  1  0  0  0  0
 13 15  2  0  0  0  0
 13 24  1  0  0  0  0
 14 15  1  0  0  0  0
 14 25  1  0  0  0  0
 15 26  1  0  0  0  0
 16 18  2  0  0  0  0
 17 19  1  0  0  0  0
 17 27  1  0  0  0  0
 18 21  1  0  0  0  0
 18 28  1  0  0  0  0
 19 21  2  0  0  0  0
 19 29  1  0  0  0  0
 21 30  1  0  0  0  0
 22 31  1  0  0  0  0
 22 32  1  0  0  0  0
 22 33  1  0  0  0  0
M  END
> <PUBCHEM_COMPOUND_CID>
11208732

> <PUBCHEM_CONFORMER_RMSD>
0.6

> <PUBCHEM_CONFORMER_DIVERSEORDER>
2
23
12
18
14
15
25
9
6
17
21
7
8
5
24
20
16
1
26
13
19
3
11
22
4
10

> <PUBCHEM_MMFF94_PARTIAL_CHARGES>
30
1 -0.19
10 0.05
11 0.09
12 0.43
13 -0.15
14 -0.15
15 -0.15
16 0.19
17 -0.15
18 -0.15
19 -0.15
2 -0.02
20 0.63
21 -0.15
22 0.28
23 0.15
24 0.15
25 0.15
26 0.15
27 0.15
28 0.15
29 0.15
3 -0.43
30 0.15
4 -0.57
5 -0.57
6 -0.41
7 0.05
8 0.46
9 -0.15

> <PUBCHEM_EFFECTIVE_ROTOR_COUNT>
4

> <PUBCHEM_PHARMACOPHORE_FEATURES>
5
1 4 acceptor
3 5 6 8 cation
5 2 5 6 8 12 rings
6 10 16 17 18 19 21 rings
6 7 9 11 13 14 15 rings

> <PUBCHEM_HEAVY_ATOM_COUNT>
22

> <PUBCHEM_ATOM_DEF_STEREO_COUNT>
0

> <PUBCHEM_ATOM_UDEF_STEREO_COUNT>
0

> <PUBCHEM_BOND_DEF_STEREO_COUNT>
0

> <PUBCHEM_BOND_UDEF_STEREO_COUNT>
0

> <PUBCHEM_ISOTOPIC_ATOM_COUNT>
0

> <PUBCHEM_COMPONENT_COUNT>
1

> <PUBCHEM_CACTVS_TAUTO_COUNT>
1

> <PUBCHEM_CONFORMER_ID>
00AB081C00000002

> <PUBCHEM_MMFF94_ENERGY>
52.7115

> <PUBCHEM_FEATURE_SELFOVERLAP>
25.373

> <PUBCHEM_SHAPE_FINGERPRINT>
10014705 185 18409730660197281075
10411042 1 17762056949504314019
10498660 4 18341899597003503073
10595046 47 18264768938378454494
11595378 159 16443333231154041788
12107183 9 18191014600356909418
12390115 104 18341629108932800795
12403259 415 18129941307763127184
12788726 201 17560239086037855409
13073987 5 18334855078198155642
13402501 40 18408884014495367741
13785724 45 17977379440036842666
14251764 38 18263086689592839268
14466204 15 18410851075642039632
14767858 380 18200013102919677709
14790565 3 18263931102139112380
14931854 50 18130506323554353397
15183329 4 18341336604812240288
15196674 1 18410856598748221360
15778101 99 18410014334038946231
17834072 32 18410857633872217505
17844677 252 18337399360752120170
20645477 56 18334577911078638039
20715895 44 18338796719355597609
21033648 144 18261668174149163463
21033648 29 18271516611146776688
21065198 48 18260259763540831146
21236236 1 18411418449248134735
21279426 13 18342183245919214526
21315763 129 18340205297220059086
21421861 104 17749938952796862898
21709351 56 18412823620560199486
22289505 5 18273498966540451316
23227448 37 18411981373505417143
23402539 116 18343298206259576030
23402655 69 18343580741792599806
23559900 14 18200314308338485190
245318 6 16450110913376547156
2838139 119 18410004404227811869
2916195 48 18128813222060815672
335352 9 18411137996800811870
3472631 163 18412263909186101709
350125 39 18339928233253772371
3545911 37 18411421700485454785
4073 2 18040721419901172698
4214541 1 18410575114754223762
441001 317 18412263951988152643
465052 167 10881398721444433464
5104073 3 18187080654804967658
59682541 35 18187660094292905065
5969126 39 18197773505077068199
59755656 215 18341056203593275838
6327066 14 18336260138268442301
6328613 192 18261683674913572476
633830 44 18408599292945212206
77779 3 18338518642156733034
7808743 9 18409163303623303521
90127 26 18335995258813170186
9981440 41 18335421304737266875

> <PUBCHEM_SHAPE_MULTIPOLES>
417.91
14.22
2.96
0.63
2.52
0.25
0
9.41
-0.89
-2.73
-0.02
-0.16
0.07
0.28

> <PUBCHEM_SHAPE_SELFOVERLAP>
922.761

> <PUBCHEM_SHAPE_VOLUME>
225.9

> <PUBCHEM_COORDINATE_TYPE>
2
5
10

$$$$
