329304
  -OEChem-01171810183D

 25 26  0     0  0  0  0  0  0999 V2000
    1.4834   -1.1402   -1.2856 S   0  0  0  0  0  0  0  0  0  0  0  0
   -1.8452   -3.1193    0.7404 O   0  5  0  0  0  0  0  0  0  0  0  0
    0.1589   -3.0875   -0.1550 O   0  0  0  0  0  0  0  0  0  0  0  0
   -3.8551    2.6735    0.0059 O   0  5  0  0  0  0  0  0  0  0  0  0
   -4.5788    0.7829    0.8549 O   0  0  0  0  0  0  0  0  0  0  0  0
   -0.9120   -2.5186    0.1595 N   0  3  0  0  0  0  0  0  0  0  0  0
   -3.6946    1.4586    0.2752 N   0  3  0  0  0  0  0  0  0  0  0  0
    2.4993   -0.1391    0.9784 N   0  0  0  0  0  0  0  0  0  0  0  0
    4.3605    1.3868    1.1006 N   0  0  0  0  0  0  0  0  0  0  0  0
   -0.0777   -0.4075   -0.8011 C   0  0  0  0  0  0  0  0  0  0  0  0
   -1.0745   -1.1391   -0.1554 C   0  0  0  0  0  0  0  0  0  0  0  0
   -2.4748    0.8287   -0.0878 C   0  0  0  0  0  0  0  0  0  0  0  0
   -2.2731   -0.5210    0.2012 C   0  0  0  0  0  0  0  0  0  0  0  0
   -0.2796    0.9422   -1.0901 C   0  0  0  0  0  0  0  0  0  0  0  0
   -1.4781    1.5603   -0.7335 C   0  0  0  0  0  0  0  0  0  0  0  0
    2.6328   -0.1330   -0.3632 C   0  0  0  0  0  0  0  0  0  0  0  0
    3.5897    0.5954   -1.0378 C   0  0  0  0  0  0  0  0  0  0  0  0
    4.4354    1.3448   -0.2458 C   0  0  0  0  0  0  0  0  0  0  0  0
    3.3836    0.6322    1.6392 C   0  0  0  0  0  0  0  0  0  0  0  0
   -3.0550   -1.0845    0.7050 H   0  0  0  0  0  0  0  0  0  0  0  0
    0.4764    1.5344   -1.6000 H   0  0  0  0  0  0  0  0  0  0  0  0
   -1.6011    2.6127   -0.9760 H   0  0  0  0  0  0  0  0  0  0  0  0
    3.6874    0.5935   -2.1162 H   0  0  0  0  0  0  0  0  0  0  0  0
    5.2203    1.9512   -0.6855 H   0  0  0  0  0  0  0  0  0  0  0  0
    3.3001    0.6473    2.7189 H   0  0  0  0  0  0  0  0  0  0  0  0
  1 10  1  0  0  0  0
  1 16  1  0  0  0  0
  2  6  1  0  0  0  0
  3  6  2  0  0  0  0
  4  7  1  0  0  0  0
  5  7  2  0  0  0  0
  6 11  1  0  0  0  0
  7 12  1  0  0  0  0
  8 16  2  0  0  0  0
  8 19  1  0  0  0  0
  9 18  1  0  0  0  0
  9 19  2  0  0  0  0
 10 11  2  0  0  0  0
 10 14  1  0  0  0  0
 11 13  1  0  0  0  0
 12 13  2  0  0  0  0
 12 15  1  0  0  0  0
 13 20  1  0  0  0  0
 14 15  2  0  0  0  0
 14 21  1  0  0  0  0
 15 22  1  0  0  0  0
 16 17  1  0  0  0  0
 17 18  2  0  0  0  0
 17 23  1  0  0  0  0
 18 24  1  0  0  0  0
 19 25  1  0  0  0  0
M  CHG  4   2  -1   4  -1   6   1   7   1
M  END
> <PUBCHEM_COMPOUND_CID>
329304

> <PUBCHEM_CONFORMER_RMSD>
0.6

> <PUBCHEM_CONFORMER_DIVERSEORDER>
2
1
7
8
9
3
10
4
5
6

> <PUBCHEM_MMFF94_PARTIAL_CHARGES>
25
1 -0.2
10 0.1
11 0.13
12 0.13
13 -0.15
14 -0.15
15 -0.15
16 0.41
17 -0.15
18 0.16
19 0.47
2 -0.52
20 0.15
21 0.15
22 0.15
23 0.15
24 0.15
25 0.15
3 -0.52
4 -0.52
5 -0.52
6 0.91
7 0.91
8 -0.62
9 -0.62

> <PUBCHEM_EFFECTIVE_ROTOR_COUNT>
4

> <PUBCHEM_PHARMACOPHORE_FEATURES>
10
1 2 acceptor
1 2 anion
1 3 acceptor
1 4 acceptor
1 4 anion
1 5 acceptor
1 8 acceptor
3 8 9 19 cation
6 10 11 12 13 14 15 rings
6 8 9 16 17 18 19 rings

> <PUBCHEM_HEAVY_ATOM_COUNT>
19

> <PUBCHEM_ATOM_DEF_STEREO_COUNT>
0

> <PUBCHEM_ATOM_UDEF_STEREO_COUNT>
0

> <PUBCHEM_BOND_DEF_STEREO_COUNT>
0

> <PUBCHEM_BOND_UDEF_STEREO_COUNT>
0

> <PUBCHEM_ISOTOPIC_ATOM_COUNT>
0

> <PUBCHEM_COMPONENT_COUNT>
1

> <PUBCHEM_CACTVS_TAUTO_COUNT>
1

> <PUBCHEM_CONFORMER_ID>
0005065800000002

> <PUBCHEM_MMFF94_ENERGY>
67.927

> <PUBCHEM_FEATURE_SELFOVERLAP>
50.911

> <PUBCHEM_SHAPE_FINGERPRINT>
11132069 177 18335138691509287061
11265709 11 17832988626091150079
11543360 7 16056586647750728685
12173636 292 18411131446189513428
122479 349 18272086115088305524
12251169 10 18259984902945384676
12500047 106 18413389856337623190
12633257 1 18335971047971882784
12788726 201 17753909507542441491
13140716 1 17902805389898944915
13583140 156 16298099912904202085
13764800 53 18272933868702422816
13878862 14 17399511226713324869
14178342 30 18261677072783953518
14341114 328 17822571733102870356
14787075 74 18202560696693337345
15295992 7 18060412526266139970
15422964 175 13768196156671443824
1741750 31 18412260649184669394
18219364 16 17059497486260446634
19862831 5 13183019614001374372
204376 136 18409448059854755949
20510252 161 18342184387963725249
212916 134 18412254030371170976
21524375 3 18200311000801587262
22079108 93 18272371975543227329
23402539 116 18268420416589433031
23493267 7 18412826919506428706
23557571 272 18269854157991976966
23559900 14 18341062843549535606
23598294 1 18189332532101968026
25 1 17775003458017027104
27216 239 17842822576590426152
2748010 2 17753899298900466631
4072396 5 17603865555886436525
427121 178 18339089193722071090
4463277 69 12252197272198729769
49207404 50 18262246508216548161
495365 180 17632291238336141078
5104073 3 18046922485319991577
58807428 26 18333732386151737667
633830 44 18128816335511555469
6442390 28 18341619221681078727
7097593 13 17968639563582095698
7364860 26 17835804093054186479
7808743 9 18337114574535472724
81228 2 18191858127142906455
84936 182 17983299218475576041
90316 7 17821998831166743348

> <PUBCHEM_SHAPE_MULTIPOLES>
351.46
7.96
2.75
1.22
2.01
1.92
-0.11
-5.96
-2.31
-2.37
-0.26
0.98
-0.1
0.57

> <PUBCHEM_SHAPE_SELFOVERLAP>
745.36

> <PUBCHEM_SHAPE_VOLUME>
196.6

> <PUBCHEM_COORDINATE_TYPE>
2
5
10

$$$$
