15945544
  -OEChem-01171809393D

 62 66  0     1  0  0  0  0  0999 V2000
    6.1645    0.1863   -0.6210 F   0  0  0  0  0  0  0  0  0  0  0  0
    0.4791   -3.3708   -1.9228 O   0  0  0  0  0  0  0  0  0  0  0  0
    2.6321   -2.5987   -0.1679 O   0  0  0  0  0  0  0  0  0  0  0  0
   -4.9243   -0.0860    2.0802 O   0  0  0  0  0  0  0  0  0  0  0  0
   -0.5233    1.8040   -0.0339 N   0  0  0  0  0  0  0  0  0  0  0  0
   -3.4489   -0.9316    0.4991 N   0  0  0  0  0  0  0  0  0  0  0  0
   -1.1112    1.8420   -2.3598 N   0  0  0  0  0  0  0  0  0  0  0  0
    0.5876    1.7305    0.7546 N   0  0  0  0  0  0  0  0  0  0  0  0
   -2.8409    1.9688   -0.5513 C   0  0  0  0  0  0  0  0  0  0  0  0
   -4.3131    2.1050   -0.3073 C   0  0  0  0  0  0  0  0  0  0  0  0
   -1.8658    1.8950    0.3815 C   0  0  0  0  0  0  0  0  0  0  0  0
   -2.7586   -1.8498    1.3748 C   0  0  2  0  0  0  0  0  0  0  0  0
   -5.0179    0.7576   -0.1903 C   0  0  0  0  0  0  0  0  0  0  0  0
   -2.3530    1.9234   -1.9845 C   0  0  0  0  0  0  0  0  0  0  0  0
   -1.3363   -2.0471    0.9442 C   0  0  0  0  0  0  0  0  0  0  0  0
   -0.1745    1.7836   -1.3812 C   0  0  0  0  0  0  0  0  0  0  0  0
   -4.4859   -0.1185    0.9337 C   0  0  0  0  0  0  0  0  0  0  0  0
   -2.0993    1.8966    1.8698 C   0  0  0  0  0  0  0  0  0  0  0  0
   -3.5241   -3.1669    1.4837 C   0  0  0  0  0  0  0  0  0  0  0  0
    1.1976    1.6957   -1.4355 C   0  0  0  0  0  0  0  0  0  0  0  0
    1.6075    1.6670   -0.0988 C   0  0  0  0  0  0  0  0  0  0  0  0
   -1.0566   -2.6336   -0.2903 C   0  0  0  0  0  0  0  0  0  0  0  0
    0.2681   -2.8081   -0.6912 C   0  0  0  0  0  0  0  0  0  0  0  0
   -0.2942   -1.6384    1.7770 C   0  0  0  0  0  0  0  0  0  0  0  0
   -3.3856    1.9806   -3.0906 C   0  0  0  0  0  0  0  0  0  0  0  0
    1.3116   -2.4238    0.1546 C   0  0  0  0  0  0  0  0  0  0  0  0
    1.0310   -1.8249    1.3830 C   0  0  0  0  0  0  0  0  0  0  0  0
    2.9602    1.5789    0.3849 C   0  0  0  0  0  0  0  0  0  0  0  0
    1.8248   -3.1851   -2.3706 C   0  0  0  0  0  0  0  0  0  0  0  0
    2.7990   -3.5122   -1.2556 C   0  0  0  0  0  0  0  0  0  0  0  0
    3.9245    0.9123   -0.3681 C   0  0  0  0  0  0  0  0  0  0  0  0
    3.3006    2.1602    1.6044 C   0  0  0  0  0  0  0  0  0  0  0  0
    5.2353    0.8265    0.1007 C   0  0  0  0  0  0  0  0  0  0  0  0
    4.6114    2.0742    2.0733 C   0  0  0  0  0  0  0  0  0  0  0  0
    5.5788    1.4074    1.3215 C   0  0  0  0  0  0  0  0  0  0  0  0
   -4.7971    2.7092   -1.0811 H   0  0  0  0  0  0  0  0  0  0  0  0
   -4.4833    2.6753    0.6138 H   0  0  0  0  0  0  0  0  0  0  0  0
   -2.7662   -1.4025    2.3775 H   0  0  0  0  0  0  0  0  0  0  0  0
   -4.9709    0.2023   -1.1338 H   0  0  0  0  0  0  0  0  0  0  0  0
   -6.0841    0.9241    0.0076 H   0  0  0  0  0  0  0  0  0  0  0  0
   -3.1873   -0.9111   -0.4827 H   0  0  0  0  0  0  0  0  0  0  0  0
   -3.1462    2.0224    2.1511 H   0  0  0  0  0  0  0  0  0  0  0  0
   -1.5538    2.7267    2.3334 H   0  0  0  0  0  0  0  0  0  0  0  0
   -1.7462    0.9659    2.3212 H   0  0  0  0  0  0  0  0  0  0  0  0
   -3.0041   -3.8723    2.1414 H   0  0  0  0  0  0  0  0  0  0  0  0
   -4.5265   -3.0017    1.8942 H   0  0  0  0  0  0  0  0  0  0  0  0
   -3.6539   -3.6490    0.5082 H   0  0  0  0  0  0  0  0  0  0  0  0
    1.7951    1.6630   -2.3358 H   0  0  0  0  0  0  0  0  0  0  0  0
   -1.8601   -2.9441   -0.9534 H   0  0  0  0  0  0  0  0  0  0  0  0
   -0.4964   -1.1789    2.7407 H   0  0  0  0  0  0  0  0  0  0  0  0
   -3.8606    2.9652   -3.1052 H   0  0  0  0  0  0  0  0  0  0  0  0
   -4.1367    1.1990   -2.9657 H   0  0  0  0  0  0  0  0  0  0  0  0
   -2.9035    1.8255   -4.0616 H   0  0  0  0  0  0  0  0  0  0  0  0
    1.8366   -1.5108    2.0410 H   0  0  0  0  0  0  0  0  0  0  0  0
    1.9864   -3.8502   -3.2245 H   0  0  0  0  0  0  0  0  0  0  0  0
    1.9391   -2.1499   -2.7157 H   0  0  0  0  0  0  0  0  0  0  0  0
    3.8295   -3.4195   -1.6123 H   0  0  0  0  0  0  0  0  0  0  0  0
    2.6564   -4.5333   -0.8807 H   0  0  0  0  0  0  0  0  0  0  0  0
    3.6854    0.4391   -1.3169 H   0  0  0  0  0  0  0  0  0  0  0  0
    2.5708    2.6933    2.2090 H   0  0  0  0  0  0  0  0  0  0  0  0
    4.8797    2.5279    3.0229 H   0  0  0  0  0  0  0  0  0  0  0  0
    6.5996    1.3407    1.6861 H   0  0  0  0  0  0  0  0  0  0  0  0
  1 33  1  0  0  0  0
  2 23  1  0  0  0  0
  2 29  1  0  0  0  0
  3 26  1  0  0  0  0
  3 30  1  0  0  0  0
  4 17  2  0  0  0  0
  5  8  1  0  0  0  0
  5 11  1  0  0  0  0
  5 16  1  0  0  0  0
  6 12  1  0  0  0  0
  6 17  1  0  0  0  0
  6 41  1  0  0  0  0
  7 14  2  0  0  0  0
  7 16  1  0  0  0  0
  8 21  2  0  0  0  0
  9 10  1  0  0  0  0
  9 11  2  0  0  0  0
  9 14  1  0  0  0  0
 10 13  1  0  0  0  0
 10 36  1  0  0  0  0
 10 37  1  0  0  0  0
 11 18  1  0  0  0  0
 12 15  1  0  0  0  0
 12 19  1  0  0  0  0
 12 38  1  0  0  0  0
 13 17  1  0  0  0  0
 13 39  1  0  0  0  0
 13 40  1  0  0  0  0
 14 25  1  0  0  0  0
 15 22  2  0  0  0  0
 15 24  1  0  0  0  0
 16 20  2  0  0  0  0
 18 42  1  0  0  0  0
 18 43  1  0  0  0  0
 18 44  1  0  0  0  0
 19 45  1  0  0  0  0
 19 46  1  0  0  0  0
 19 47  1  0  0  0  0
 20 21  1  0  0  0  0
 20 48  1  0  0  0  0
 21 28  1  0  0  0  0
 22 23  1  0  0  0  0
 22 49  1  0  0  0  0
 23 26  2  0  0  0  0
 24 27  2  0  0  0  0
 24 50  1  0  0  0  0
 25 51  1  0  0  0  0
 25 52  1  0  0  0  0
 25 53  1  0  0  0  0
 26 27  1  0  0  0  0
 27 54  1  0  0  0  0
 28 31  2  0  0  0  0
 28 32  1  0  0  0  0
 29 30  1  0  0  0  0
 29 55  1  0  0  0  0
 29 56  1  0  0  0  0
 30 57  1  0  0  0  0
 30 58  1  0  0  0  0
 31 33  1  0  0  0  0
 31 59  1  0  0  0  0
 32 34  2  0  0  0  0
 32 60  1  0  0  0  0
 33 35  2  0  0  0  0
 34 35  1  0  0  0  0
 34 61  1  0  0  0  0
 35 62  1  0  0  0  0
M  END
> <PUBCHEM_COMPOUND_CID>
15945544

> <PUBCHEM_CONFORMER_RMSD>
1

> <PUBCHEM_CONFORMER_DIVERSEORDER>
1
5
305
413
173
309
283
110
368
251
312
427
101
162
257
213
201
180
277
315
392
86
437
72
407
450
321
35
387
359
16
40
10
205
44
435
316
94
365
218
25
163
378
29
302
462
367
33
417
89
134
158
440
123
90
125
17
114
455
168
249
370
71
420
229
99
236
240
464
270
271
92
18
458
61
55
336
174
245
84
285
187
150
131
448
65
301
128
153
286
9
66
98
19
349
226
459
232
276
289
24
258
203
323
465
454
217
107
281
436
284
202
78
266
127
197
432
446
129
48
361
96
91
109
28
37
404
51
324
111
371
332
39
234
21
369
88
339
36
282
443
273
31
314
405
49
135
171
424
45
354
53
268
300
389
189
59
124
159
206
30
421
154
47
190
360
374
434
469
467
255
353
126
430
8
372
335
165
352
357
298
156
341
93
195
87
116
442
379
425
80
69
241
74
385
83
151
170
63
340
2
233
38
138
70
106
145
452
445
409
433
468
224
12
147
67
256
220
186
398
64
23
325
227
470
318
344
456
85
265
79
214
250
364
161
4
393
172
287
113
343
155
68
60
380
82
192
355
119
81
238
275
54
179
248
178
394
7
461
121
384
381
260
219
120
264
42
451
56
52
169
416
382
148
391
6
272
447
412
244
471
32
58
414
278
403
20
146
406
3
333
210
130
57
152
34
313
177
444
351
338
415
475
457
342
117
243
296
439
149
390
199
383
41
345
274
310
14
297
215
198
290
176
326
196
11
293
228
188
143
140
237
362
75
164
428
317
474
242
104
328
76
200
254
157
429
62
308
22
50
418
160
320
141
102
182
246
108
358
327
115
441
15
103
247
331
460
377
194
13
185
423
399
97
366
431
230
175
207
449
216
208
348
426
27
346
77
142
144
221
43
73
422
401
253
231
319
46
193
402
133
279
166
239
419
350
388
204
347
269
267
100
235
112
330
122
183
334
288
373
395
400
306
26
438
386
139
472
463
304
363
167
303
212
252
291
311
473
453
209
337
307
118
397
262
105
411
396
191
410
322
356
292
137
280
181
259
299
376
184
211
132
375
261
466
95
225
136
263
295
329
223
294
222
408

> <PUBCHEM_MMFF94_PARTIAL_CHARGES>
43
1 -0.19
10 0.14
11 -0.17
12 0.44
13 0.06
14 0.37
15 -0.14
16 -0.03
17 0.57
18 0.14
2 -0.36
20 -0.15
21 0.23
22 -0.15
23 0.08
24 -0.15
25 0.06
26 0.08
27 -0.15
28 0.05
29 0.28
3 -0.36
30 0.28
31 -0.15
32 -0.15
33 0.19
34 -0.15
35 -0.15
4 -0.57
41 0.37
48 0.15
49 0.15
5 0.6
50 0.15
54 0.15
59 0.15
6 -0.73
60 0.15
61 0.15
62 0.15
7 -0.58
8 -0.71
9 -0.12

> <PUBCHEM_EFFECTIVE_ROTOR_COUNT>
7.8

> <PUBCHEM_PHARMACOPHORE_FEATURES>
11
1 2 acceptor
1 3 acceptor
1 4 acceptor
1 6 donor
1 7 acceptor
1 8 acceptor
5 5 8 16 20 21 rings
6 15 22 23 24 26 27 rings
6 2 3 23 26 29 30 rings
6 28 31 32 33 34 35 rings
6 5 7 9 11 14 16 rings

> <PUBCHEM_HEAVY_ATOM_COUNT>
35

> <PUBCHEM_ATOM_DEF_STEREO_COUNT>
0

> <PUBCHEM_ATOM_UDEF_STEREO_COUNT>
1

> <PUBCHEM_BOND_DEF_STEREO_COUNT>
0

> <PUBCHEM_BOND_UDEF_STEREO_COUNT>
0

> <PUBCHEM_ISOTOPIC_ATOM_COUNT>
0

> <PUBCHEM_COMPONENT_COUNT>
1

> <PUBCHEM_CACTVS_TAUTO_COUNT>
2

> <PUBCHEM_CONFORMER_ID>
00F34F4800000001

> <PUBCHEM_MMFF94_ENERGY>
88.7412

> <PUBCHEM_FEATURE_SELFOVERLAP>
55.993

> <PUBCHEM_SHAPE_FINGERPRINT>
10675989 125 16816266495966061573
11112241 14 17845360188865540952
11488393 25 18196657298315112146
11513181 2 18273495659068195487
11524674 6 18272923955907477652
11578080 2 17024297527392491071
12156800 1 17095243570835446950
12422481 6 18334859441394084338
12597179 24 18188472585102103733
13149001 5 18120942698079299114
13383661 66 17625517353192801135
13383668 90 15000486832027292570
13402501 40 18336553733162606078
13642711 20 17489582411046039696
14068700 675 15682510076394839134
144659 39 18190435247991443296
14747281 78 17176012415280877805
17852330 162 18192458410597600140
20691752 17 17314247604639726857
20775438 99 18120343542242955687
20905425 154 18262810669609657891
22182313 1 18187364268875584757
23566358 2 18336829684631967511
238918 7 18410859896919471650
3052486 1 17676497163280861214
3298306 158 18410570678306422444
4093350 32 18130225939983846605
4112364 45 17127086455054082889
469060 322 17531795986883516944
5080951 261 17903033994176518680
508706 21 18186800287876895807
5265222 85 18194415613671577180
57527585 103 17243327038801067939
59755656 215 18408324371486825104
6287921 2 17629180637893724406
9862522 239 18337094782750666162

> <PUBCHEM_SHAPE_MULTIPOLES>
675.48
10.05
4.72
2.42
5.84
4.02
0.91
-5.01
-3.05
0.36
1.35
-0.88
-0.18
3.74

> <PUBCHEM_SHAPE_SELFOVERLAP>
1480.934

> <PUBCHEM_SHAPE_VOLUME>
365.7

> <PUBCHEM_COORDINATE_TYPE>
2
5
10

$$$$
