3236720
  -OEChem-01171810133D

 51 52  0     0  0  0  0  0  0999 V2000
   -0.0728    2.0258    0.0847 O   0  0  0  0  0  0  0  0  0  0  0  0
    5.6832   -0.3163    0.6434 O   0  0  0  0  0  0  0  0  0  0  0  0
    5.6943   -0.1033   -1.6486 O   0  0  0  0  0  0  0  0  0  0  0  0
   -4.6337    1.1078    0.3127 N   0  0  0  0  0  0  0  0  0  0  0  0
   -3.1189   -0.6507   -0.0226 N   0  0  0  0  0  0  0  0  0  0  0  0
   -2.3456    1.6096    0.2030 N   0  0  0  0  0  0  0  0  0  0  0  0
   -1.5565   -2.3675   -0.3558 N   0  0  0  0  0  0  0  0  0  0  0  0
   -0.7712   -0.1686   -0.1388 N   0  0  0  0  0  0  0  0  0  0  0  0
   -5.7792    0.2157    0.2855 C   0  0  0  0  0  0  0  0  0  0  0  0
   -7.0531    1.0420    0.4840 C   0  0  0  0  0  0  0  0  0  0  0  0
   -5.8114   -0.4920   -1.0711 C   0  0  0  0  0  0  0  0  0  0  0  0
   -5.6349   -0.8075    1.4155 C   0  0  0  0  0  0  0  0  0  0  0  0
   -3.3303    0.6771    0.1600 C   0  0  0  0  0  0  0  0  0  0  0  0
   -1.8288   -0.9955   -0.1628 C   0  0  0  0  0  0  0  0  0  0  0  0
   -1.1055    1.1185    0.0481 C   0  0  0  0  0  0  0  0  0  0  0  0
    1.2044    1.5327   -0.0733 C   0  0  0  0  0  0  0  0  0  0  0  0
   -0.1934   -2.8261   -0.5300 C   0  0  0  0  0  0  0  0  0  0  0  0
   -2.6380   -3.3303   -0.3956 C   0  0  0  0  0  0  0  0  0  0  0  0
    1.7449    1.4397   -1.3464 C   0  0  0  0  0  0  0  0  0  0  0  0
    1.9245    1.1392    1.0440 C   0  0  0  0  0  0  0  0  0  0  0  0
    3.7740    0.5413   -0.3910 C   0  0  0  0  0  0  0  0  0  0  0  0
    3.0377    0.9409   -1.5063 C   0  0  0  0  0  0  0  0  0  0  0  0
    3.2173    0.6404    0.8841 C   0  0  0  0  0  0  0  0  0  0  0  0
    5.1215    0.0206   -0.5579 C   0  0  0  0  0  0  0  0  0  0  0  0
    7.0145   -0.8418    0.6105 C   0  0  0  0  0  0  0  0  0  0  0  0
    7.4573   -1.1517    2.0246 C   0  0  0  0  0  0  0  0  0  0  0  0
   -7.1627    1.7954   -0.3049 H   0  0  0  0  0  0  0  0  0  0  0  0
   -7.9471    0.4089    0.4696 H   0  0  0  0  0  0  0  0  0  0  0  0
   -7.0341    1.5745    1.4421 H   0  0  0  0  0  0  0  0  0  0  0  0
   -5.0501   -1.2640   -1.2006 H   0  0  0  0  0  0  0  0  0  0  0  0
   -5.7053    0.2226   -1.8962 H   0  0  0  0  0  0  0  0  0  0  0  0
   -6.7732   -1.0018   -1.2079 H   0  0  0  0  0  0  0  0  0  0  0  0
   -5.4094   -0.3164    2.3698 H   0  0  0  0  0  0  0  0  0  0  0  0
   -6.5742   -1.3583    1.5492 H   0  0  0  0  0  0  0  0  0  0  0  0
   -4.8697   -1.5678    1.2456 H   0  0  0  0  0  0  0  0  0  0  0  0
   -4.7772    2.1020    0.4482 H   0  0  0  0  0  0  0  0  0  0  0  0
    0.2603   -2.3665   -1.4151 H   0  0  0  0  0  0  0  0  0  0  0  0
    0.4148   -2.5781    0.3469 H   0  0  0  0  0  0  0  0  0  0  0  0
   -0.1385   -3.9116   -0.6647 H   0  0  0  0  0  0  0  0  0  0  0  0
   -2.2723   -4.3522   -0.5427 H   0  0  0  0  0  0  0  0  0  0  0  0
   -3.2004   -3.3231    0.5443 H   0  0  0  0  0  0  0  0  0  0  0  0
   -3.3229   -3.1114   -1.2218 H   0  0  0  0  0  0  0  0  0  0  0  0
    1.1752    1.7507   -2.2172 H   0  0  0  0  0  0  0  0  0  0  0  0
    1.4946    1.2160    2.0385 H   0  0  0  0  0  0  0  0  0  0  0  0
    3.4522    0.8719   -2.5086 H   0  0  0  0  0  0  0  0  0  0  0  0
    3.7528    0.3414    1.7808 H   0  0  0  0  0  0  0  0  0  0  0  0
    7.6869   -0.1007    0.1644 H   0  0  0  0  0  0  0  0  0  0  0  0
    7.0296   -1.7562    0.0075 H   0  0  0  0  0  0  0  0  0  0  0  0
    8.4732   -1.5562    2.0366 H   0  0  0  0  0  0  0  0  0  0  0  0
    7.4284   -0.2491    2.6438 H   0  0  0  0  0  0  0  0  0  0  0  0
    6.7818   -1.8775    2.4893 H   0  0  0  0  0  0  0  0  0  0  0  0
  1 15  1  0  0  0  0
  1 16  1  0  0  0  0
  2 24  1  0  0  0  0
  2 25  1  0  0  0  0
  3 24  2  0  0  0  0
  4  9  1  0  0  0  0
  4 13  1  0  0  0  0
  4 36  1  0  0  0  0
  5 13  2  0  0  0  0
  5 14  1  0  0  0  0
  6 13  1  0  0  0  0
  6 15  2  0  0  0  0
  7 14  1  0  0  0  0
  7 17  1  0  0  0  0
  7 18  1  0  0  0  0
  8 14  2  0  0  0  0
  8 15  1  0  0  0  0
  9 10  1  0  0  0  0
  9 11  1  0  0  0  0
  9 12  1  0  0  0  0
 10 27  1  0  0  0  0
 10 28  1  0  0  0  0
 10 29  1  0  0  0  0
 11 30  1  0  0  0  0
 11 31  1  0  0  0  0
 11 32  1  0  0  0  0
 12 33  1  0  0  0  0
 12 34  1  0  0  0  0
 12 35  1  0  0  0  0
 16 19  2  0  0  0  0
 16 20  1  0  0  0  0
 17 37  1  0  0  0  0
 17 38  1  0  0  0  0
 17 39  1  0  0  0  0
 18 40  1  0  0  0  0
 18 41  1  0  0  0  0
 18 42  1  0  0  0  0
 19 22  1  0  0  0  0
 19 43  1  0  0  0  0
 20 23  2  0  0  0  0
 20 44  1  0  0  0  0
 21 22  2  0  0  0  0
 21 23  1  0  0  0  0
 21 24  1  0  0  0  0
 22 45  1  0  0  0  0
 23 46  1  0  0  0  0
 25 26  1  0  0  0  0
 25 47  1  0  0  0  0
 25 48  1  0  0  0  0
 26 49  1  0  0  0  0
 26 50  1  0  0  0  0
 26 51  1  0  0  0  0
M  END
> <PUBCHEM_COMPOUND_CID>
3236720

> <PUBCHEM_CONFORMER_RMSD>
0.8

> <PUBCHEM_CONFORMER_DIVERSEORDER>
2
44
38
64
76
70
53
66
86
72
12
46
90
75
11
58
4
49
8
78
73
16
1
74
80
63
33
15
32
69
40
88
35
68
39
60
13
18
82
89
50
45
65
52
20
17
36
85
57
23
56
27
31
51
42
81
47
84
24
21
67
71
34
22
59
41
61
54
14
87
19
62
6
3
26
29
55
77
9
7
10
30
43
79
37
83
28
92
91
48
25
5

> <PUBCHEM_MMFF94_PARTIAL_CHARGES>
27
1 -0.17
13 0.72
14 0.72
15 0.7
16 0.08
17 0.37
18 0.37
19 -0.15
2 -0.43
20 -0.15
21 0.09
22 -0.15
23 -0.15
24 0.63
25 0.28
3 -0.57
36 0.4
4 -0.87
43 0.15
44 0.15
45 0.15
46 0.15
5 -0.62
6 -0.62
7 -0.84
8 -0.62
9 0.37

> <PUBCHEM_EFFECTIVE_ROTOR_COUNT>
8

> <PUBCHEM_PHARMACOPHORE_FEATURES>
7
1 3 acceptor
1 4 donor
4 4 5 6 13 cation
4 5 7 8 14 cation
4 9 10 11 12 hydrophobe
6 16 19 20 21 22 23 rings
6 5 6 8 13 14 15 rings

> <PUBCHEM_HEAVY_ATOM_COUNT>
26

> <PUBCHEM_ATOM_DEF_STEREO_COUNT>
0

> <PUBCHEM_ATOM_UDEF_STEREO_COUNT>
0

> <PUBCHEM_BOND_DEF_STEREO_COUNT>
0

> <PUBCHEM_BOND_UDEF_STEREO_COUNT>
0

> <PUBCHEM_ISOTOPIC_ATOM_COUNT>
0

> <PUBCHEM_COMPONENT_COUNT>
1

> <PUBCHEM_CACTVS_TAUTO_COUNT>
4

> <PUBCHEM_CONFORMER_ID>
0031637000000002

> <PUBCHEM_MMFF94_ENERGY>
94.2701

> <PUBCHEM_FEATURE_SELFOVERLAP>
35.562

> <PUBCHEM_SHAPE_FINGERPRINT>
10 15 16200423672786331304
106641 1 15338826591015001500
11524674 6 17846497036812793815
11646440 116 17917723408707722577
11796584 16 18342183306085887846
12236239 1 17894917334140163460
12838862 33 18340751672509517696
13402501 40 18201728335867371894
13533116 47 17059507231625819766
13862211 1 18412262861383003101
14251752 14 17894625933398865468
14251764 18 18343299284491636816
14866123 147 18339079410335996067
15042514 8 18266746964508470267
15183329 4 18411422812639476102
15320294 125 18188479212901896438
15439362 3 17326602610263827685
15537594 2 18040991847942325746
15849732 13 18040436598564475188
16994733 274 15051738551636673443
20721686 56 18337957779478939634
21130935 74 16128662924663993814
21403212 168 18342173337308401475
21781051 124 18117864255238786691
21781055 127 17773344294802349984
21859007 373 18189034452677060277
22224240 67 15841544172433317324
23402539 116 18131351925764070909
23559900 14 18129100189731505040
23569917 315 18412546548495796695
3004659 81 18336838550082900388
335352 9 18412546530840140973
3383291 50 18343303682127328027
340366 18 18188215419598090701
404807 14 14758488767512210135
4098825 35 13912867680472138648
465052 167 17895486907207189001
5104073 3 18129103501039884480
5385378 56 18269567048614298771
54039377 194 17458623364450876586
559249 180 18260263027741914305
59755656 215 18343027661753191767
6138700 20 18412548686934770319
7226269 152 17918280852835135537

> <PUBCHEM_SHAPE_MULTIPOLES>
492.55
18.17
2.41
1.31
8.61
2.04
-0.08
2.66
-5.58
-1.43
0.35
1.64
0.09
-1.46

> <PUBCHEM_SHAPE_SELFOVERLAP>
1026.702

> <PUBCHEM_SHAPE_VOLUME>
278

> <PUBCHEM_COORDINATE_TYPE>
2
5
10

$$$$
