16022921
  -OEChem-01171810033D

 71 75  0     0  0  0  0  0  0999 V2000
    2.9427    1.7584    1.0448 O   0  0  0  0  0  0  0  0  0  0  0  0
    5.6687    1.8628   -1.0921 O   0  0  0  0  0  0  0  0  0  0  0  0
   -0.3558   -1.5808    0.5253 N   0  0  0  0  0  0  0  0  0  0  0  0
    4.4691    0.0997    1.6258 N   0  0  0  0  0  0  0  0  0  0  0  0
   -1.7216   -3.5011   -0.0918 N   0  0  0  0  0  0  0  0  0  0  0  0
   -4.3423    0.0066   -0.1233 N   0  0  0  0  0  0  0  0  0  0  0  0
   -3.0292   -0.1233    0.1535 N   0  0  0  0  0  0  0  0  0  0  0  0
   -2.9780   -4.1422   -0.4795 N   0  0  0  0  0  0  0  0  0  0  0  0
    2.1523   -0.4619    1.4143 C   0  0  0  0  0  0  0  0  0  0  0  0
    0.8164    0.1555    1.8214 C   0  0  0  0  0  0  0  0  0  0  0  0
    2.0213   -1.1420    0.0536 C   0  0  0  0  0  0  0  0  0  0  0  0
   -0.2998   -0.8869    1.8199 C   0  0  0  0  0  0  0  0  0  0  0  0
    0.8977   -2.1777    0.0507 C   0  0  0  0  0  0  0  0  0  0  0  0
    3.2085    0.5971    1.3434 C   0  0  0  0  0  0  0  0  0  0  0  0
   -1.5765   -2.1592    0.1563 C   0  0  0  0  0  0  0  0  0  0  0  0
   -2.7783   -1.4349    0.0000 C   0  0  0  0  0  0  0  0  0  0  0  0
   -3.9964   -2.1051   -0.3836 C   0  0  0  0  0  0  0  0  0  0  0  0
   -4.9753   -1.1568   -0.4537 C   0  0  0  0  0  0  0  0  0  0  0  0
   -4.1445   -3.4608   -0.6347 C   0  0  0  0  0  0  0  0  0  0  0  0
    5.6633    0.9131    1.6025 C   0  0  0  0  0  0  0  0  0  0  0  0
   -6.4125   -1.2242   -0.7893 C   0  0  0  0  0  0  0  0  0  0  0  0
   -4.9312    1.2704   -0.0557 C   0  0  0  0  0  0  0  0  0  0  0  0
    6.6458    0.4394    0.5706 C   0  0  0  0  0  0  0  0  0  0  0  0
   -5.3664   -4.2033   -1.0325 C   0  0  0  0  0  0  0  0  0  0  0  0
    6.6002    0.9380   -0.7268 C   0  0  0  0  0  0  0  0  0  0  0  0
   -6.2729    1.3831    0.2830 C   0  0  0  0  0  0  0  0  0  0  0  0
   -4.1667    2.3968   -0.3276 C   0  0  0  0  0  0  0  0  0  0  0  0
    7.6008   -0.5045    0.9332 C   0  0  0  0  0  0  0  0  0  0  0  0
   -6.8612    2.6462    0.3510 C   0  0  0  0  0  0  0  0  0  0  0  0
   -4.7548    3.6598   -0.2595 C   0  0  0  0  0  0  0  0  0  0  0  0
   -6.1020    3.7844    0.0797 C   0  0  0  0  0  0  0  0  0  0  0  0
    7.5204    0.4872   -1.6731 C   0  0  0  0  0  0  0  0  0  0  0  0
    8.5210   -0.9553   -0.0133 C   0  0  0  0  0  0  0  0  0  0  0  0
    8.4809   -0.4595   -1.3164 C   0  0  0  0  0  0  0  0  0  0  0  0
   -6.7306    5.1348    0.1526 C   0  0  0  0  0  0  0  0  0  0  0  0
    4.7730    1.5007   -2.1412 C   0  0  0  0  0  0  0  0  0  0  0  0
    3.8138    2.6456   -2.3876 C   0  0  0  0  0  0  0  0  0  0  0  0
    2.4335   -1.2082    2.1693 H   0  0  0  0  0  0  0  0  0  0  0  0
    0.5407    0.9634    1.1302 H   0  0  0  0  0  0  0  0  0  0  0  0
    0.8955    0.6090    2.8169 H   0  0  0  0  0  0  0  0  0  0  0  0
    2.9647   -1.6270   -0.2256 H   0  0  0  0  0  0  0  0  0  0  0  0
    1.8208   -0.3887   -0.7205 H   0  0  0  0  0  0  0  0  0  0  0  0
   -0.1249   -1.6240    2.6140 H   0  0  0  0  0  0  0  0  0  0  0  0
   -1.2405   -0.3807    2.0605 H   0  0  0  0  0  0  0  0  0  0  0  0
    0.7787   -2.5557   -0.9722 H   0  0  0  0  0  0  0  0  0  0  0  0
    1.1644   -3.0288    0.6892 H   0  0  0  0  0  0  0  0  0  0  0  0
    4.5751   -0.8817    1.8663 H   0  0  0  0  0  0  0  0  0  0  0  0
    5.4087    1.9678    1.4489 H   0  0  0  0  0  0  0  0  0  0  0  0
    6.1079    0.8518    2.6030 H   0  0  0  0  0  0  0  0  0  0  0  0
   -7.0269   -1.4236    0.0938 H   0  0  0  0  0  0  0  0  0  0  0  0
   -6.7800   -0.3588   -1.3473 H   0  0  0  0  0  0  0  0  0  0  0  0
   -6.6106   -2.0407   -1.4877 H   0  0  0  0  0  0  0  0  0  0  0  0
   -6.1905   -4.0070   -0.3410 H   0  0  0  0  0  0  0  0  0  0  0  0
   -5.6593   -3.9444   -2.0538 H   0  0  0  0  0  0  0  0  0  0  0  0
   -5.1782   -5.2824   -1.0111 H   0  0  0  0  0  0  0  0  0  0  0  0
   -6.8868    0.5691    0.6428 H   0  0  0  0  0  0  0  0  0  0  0  0
   -3.1179    2.3322   -0.6055 H   0  0  0  0  0  0  0  0  0  0  0  0
    7.6414   -0.9002    1.9443 H   0  0  0  0  0  0  0  0  0  0  0  0
   -7.9032    2.7340    0.6473 H   0  0  0  0  0  0  0  0  0  0  0  0
   -4.1534    4.5394   -0.4737 H   0  0  0  0  0  0  0  0  0  0  0  0
    7.5182    0.8740   -2.6882 H   0  0  0  0  0  0  0  0  0  0  0  0
    9.2690   -1.6920    0.2645 H   0  0  0  0  0  0  0  0  0  0  0  0
    9.2001   -0.8075   -2.0520 H   0  0  0  0  0  0  0  0  0  0  0  0
   -7.7953    5.0894   -0.1006 H   0  0  0  0  0  0  0  0  0  0  0  0
   -6.6276    5.5430    1.1629 H   0  0  0  0  0  0  0  0  0  0  0  0
   -6.2625    5.8273   -0.5553 H   0  0  0  0  0  0  0  0  0  0  0  0
    4.2137    0.6034   -1.8523 H   0  0  0  0  0  0  0  0  0  0  0  0
    5.3197    1.2945   -3.0676 H   0  0  0  0  0  0  0  0  0  0  0  0
    3.1048    2.3971   -3.1823 H   0  0  0  0  0  0  0  0  0  0  0  0
    3.2540    2.8861   -1.4786 H   0  0  0  0  0  0  0  0  0  0  0  0
    4.3603    3.5508   -2.6724 H   0  0  0  0  0  0  0  0  0  0  0  0
  1 14  2  0  0  0  0
  2 25  1  0  0  0  0
  2 36  1  0  0  0  0
  3 12  1  0  0  0  0
  3 13  1  0  0  0  0
  3 15  1  0  0  0  0
  4 14  1  0  0  0  0
  4 20  1  0  0  0  0
  4 47  1  0  0  0  0
  5  8  1  0  0  0  0
  5 15  2  0  0  0  0
  6  7  1  0  0  0  0
  6 18  1  0  0  0  0
  6 22  1  0  0  0  0
  7 16  2  0  0  0  0
  8 19  2  0  0  0  0
  9 10  1  0  0  0  0
  9 11  1  0  0  0  0
  9 14  1  0  0  0  0
  9 38  1  0  0  0  0
 10 12  1  0  0  0  0
 10 39  1  0  0  0  0
 10 40  1  0  0  0  0
 11 13  1  0  0  0  0
 11 41  1  0  0  0  0
 11 42  1  0  0  0  0
 12 43  1  0  0  0  0
 12 44  1  0  0  0  0
 13 45  1  0  0  0  0
 13 46  1  0  0  0  0
 15 16  1  0  0  0  0
 16 17  1  0  0  0  0
 17 18  2  0  0  0  0
 17 19  1  0  0  0  0
 18 21  1  0  0  0  0
 19 24  1  0  0  0  0
 20 23  1  0  0  0  0
 20 48  1  0  0  0  0
 20 49  1  0  0  0  0
 21 50  1  0  0  0  0
 21 51  1  0  0  0  0
 21 52  1  0  0  0  0
 22 26  2  0  0  0  0
 22 27  1  0  0  0  0
 23 25  1  0  0  0  0
 23 28  2  0  0  0  0
 24 53  1  0  0  0  0
 24 54  1  0  0  0  0
 24 55  1  0  0  0  0
 25 32  2  0  0  0  0
 26 29  1  0  0  0  0
 26 56  1  0  0  0  0
 27 30  2  0  0  0  0
 27 57  1  0  0  0  0
 28 33  1  0  0  0  0
 28 58  1  0  0  0  0
 29 31  2  0  0  0  0
 29 59  1  0  0  0  0
 30 31  1  0  0  0  0
 30 60  1  0  0  0  0
 31 35  1  0  0  0  0
 32 34  1  0  0  0  0
 32 61  1  0  0  0  0
 33 34  2  0  0  0  0
 33 62  1  0  0  0  0
 34 63  1  0  0  0  0
 35 64  1  0  0  0  0
 35 65  1  0  0  0  0
 35 66  1  0  0  0  0
 36 37  1  0  0  0  0
 36 67  1  0  0  0  0
 36 68  1  0  0  0  0
 37 69  1  0  0  0  0
 37 70  1  0  0  0  0
 37 71  1  0  0  0  0
M  END
> <PUBCHEM_COMPOUND_CID>
16022921

> <PUBCHEM_CONFORMER_RMSD>
1

> <PUBCHEM_CONFORMER_DIVERSEORDER>
12
250
220
94
152
159
215
90
132
36
144
79
183
180
118
139
170
219
53
86
147
178
120
179
102
151
101
258
207
233
192
191
39
127
111
264
222
167
164
126
236
64
136
198
13
184
257
100
129
161
130
154
213
42
142
235
51
106
103
38
252
263
135
157
8
175
155
190
211
145
260
83
185
173
228
239
216
58
121
109
112
59
1
146
156
209
63
74
212
21
140
171
231
56
97
29
116
89
176
57
107
150
182
223
15
148
124
143
49
10
113
85
18
251
165
240
47
30
248
166
95
217
77
221
119
141
104
78
2
105
196
227
5
69
224
232
226
234
208
254
253
169
160
242
72
177
245
193
195
138
243
256
6
25
82
238
96
187
225
84
68
75
92
197
26
108
229
3
137
249
204
134
259
91
50
201
133
188
117
62
199
214
218
262
71
14
46
93
131
115
186
19
206
122
80
17
125
76
168
37
128
246
181
158
174
81
31
153
230
194
54
65
9
24
27
61
261
23
203
87
7
172
28
241
20
40
45
200
237
73
11
114
88
123
202
22
149
162
244
44
110
35
52
48
4
33
67
32
60
70
210
16
247
41
43
189
66
205
163
98
55
99
255
34

> <PUBCHEM_MMFF94_PARTIAL_CHARGES>
42
1 -0.57
12 0.37
13 0.37
14 0.57
15 0.41
16 0.29
18 -0.33
19 0.17
2 -0.36
20 0.44
21 0.18
22 -0.02
23 -0.14
24 0.14
25 0.08
26 -0.15
27 -0.15
28 -0.15
29 -0.15
3 -0.84
30 -0.15
31 -0.14
32 -0.15
33 -0.15
34 -0.15
35 0.14
36 0.28
4 -0.73
47 0.37
5 -0.31
56 0.15
57 0.15
58 0.15
59 0.15
6 0.59
60 0.15
61 0.15
62 0.15
63 0.15
7 -0.71
8 -0.31
9 0.06

> <PUBCHEM_EFFECTIVE_ROTOR_COUNT>
9.2

> <PUBCHEM_PHARMACOPHORE_FEATURES>
11
1 1 acceptor
1 2 acceptor
1 4 donor
1 7 acceptor
1 8 acceptor
3 3 5 15 cation
5 6 7 16 17 18 rings
6 22 26 27 29 30 31 rings
6 23 25 28 32 33 34 rings
6 3 9 10 11 12 13 rings
6 5 8 15 16 17 19 rings

> <PUBCHEM_HEAVY_ATOM_COUNT>
37

> <PUBCHEM_ATOM_DEF_STEREO_COUNT>
0

> <PUBCHEM_ATOM_UDEF_STEREO_COUNT>
0

> <PUBCHEM_BOND_DEF_STEREO_COUNT>
0

> <PUBCHEM_BOND_UDEF_STEREO_COUNT>
0

> <PUBCHEM_ISOTOPIC_ATOM_COUNT>
0

> <PUBCHEM_COMPONENT_COUNT>
1

> <PUBCHEM_CACTVS_TAUTO_COUNT>
2

> <PUBCHEM_CONFORMER_ID>
00F47D890000000C

> <PUBCHEM_MMFF94_ENERGY>
129.4268

> <PUBCHEM_FEATURE_SELFOVERLAP>
55.961

> <PUBCHEM_SHAPE_FINGERPRINT>
10411042 1 17979626064678666983
10670039 82 18409726270767175861
10864689 126 18270673173701349233
10951579 204 18342746187256963932
11103572 95 18270394994166898738
11211813 163 18411700958974437962
11410812 94 18410578410112972036
1200032 147 18263648364204588633
12013929 112 18265063444702621582
13627175 23 17385726897862504813
13782708 43 17558549364078008374
14294032 229 18188203209006431668
14512766 119 18337943571658253909
14664723 55 18334012770386363213
14747281 78 17059231232937989861
14856354 85 18338516456087282791
15064981 113 18342729728520046551
15064981 194 18187926244346449807
15183329 4 17822568408892836494
15198563 99 18126827500320272167
15230672 131 18340480067726869554
15297060 5 18271807870096365641
15419008 42 17846224328243986734
15419008 91 17774704451569468768
15448158 71 17970622992454422277
15513586 35 17460044083317939533
15890870 6 18268423548111429353
16992727 255 18411703149545136752
16992828 155 17822842083987892821
19302320 297 17895490149554843020
19304152 47 17531811239056547441
21033650 10 18408889563619267579
21133410 127 17756987814268795237
21315764 119 18413113853671772894
21772528 278 16805329885362535722
21927370 108 18122067765955451347
22033318 11 17895185538026775640
23522609 53 17967819345040164308
23569914 152 16984633672128567902
24771750 20 18057322787192790415
249057 25 17968645133716815610
3552219 110 17750517459412265783
38570 142 17748827427686357562
3882209 13 11716502502913486065
4107672 100 18411982472437010402
44880568 143 18341894138860011176
508180 173 18341895207953512344
58902169 19 18113339700565893940
5911458 16 18041002812777865848
59521120 56 18413389860680225917
6697151 62 16128650852228505522
6700243 42 17769119035073406895
7808743 9 18339630180072421763
9896288 288 18335422396297490755
99344 41 18410575072738831854

> <PUBCHEM_SHAPE_MULTIPOLES>
719.82
25.83
5.26
1.64
31.48
0.76
-0.16
13.5
-5.78
-16.04
-1.51
3.35
0.54
-2.86

> <PUBCHEM_SHAPE_SELFOVERLAP>
1554.367

> <PUBCHEM_SHAPE_VOLUME>
394.4

> <PUBCHEM_COORDINATE_TYPE>
2
5
10

$$$$
