575337
  -OEChem-01171809493D

 61 63  0     1  0  0  0  0  0999 V2000
   -3.0676   -1.1221    0.6187 O   0  0  0  0  0  0  0  0  0  0  0  0
    3.0162   -0.9903   -0.0454 N   0  0  0  0  0  0  0  0  0  0  0  0
    4.9117    1.9908    0.1926 N   0  0  0  0  0  0  0  0  0  0  0  0
   -1.2620   -0.1604   -0.7581 C   0  0  2  0  0  0  0  0  0  0  0  0
   -1.6356   -0.9471    0.5205 C   0  0  2  0  0  0  0  0  0  0  0  0
    0.2721   -0.1203   -1.0069 C   0  0  1  0  0  0  0  0  0  0  0  0
    0.8601   -1.5680   -1.0703 C   0  0  2  0  0  0  0  0  0  0  0  0
    0.4517   -2.4122    0.1689 C   0  0  1  0  0  0  0  0  0  0  0  0
   -1.0655   -2.3706    0.3986 C   0  0  0  0  0  0  0  0  0  0  0  0
   -1.9198    1.2279   -0.7161 C   0  0  0  0  0  0  0  0  0  0  0  0
    2.3897   -1.5470   -1.2296 C   0  0  0  0  0  0  0  0  0  0  0  0
   -1.1517   -0.3038    1.8371 C   0  0  0  0  0  0  0  0  0  0  0  0
    0.5991    0.6735   -2.2835 C   0  0  0  0  0  0  0  0  0  0  0  0
    0.8841   -3.8810    0.0549 C   0  0  0  0  0  0  0  0  0  0  0  0
   -3.3539    1.1283   -0.2774 C   0  0  0  0  0  0  0  0  0  0  0  0
   -3.8388   -0.0223    0.3522 C   0  0  0  0  0  0  0  0  0  0  0  0
   -4.2220    2.2091   -0.4847 C   0  0  0  0  0  0  0  0  0  0  0  0
   -5.1807   -0.1061    0.7327 C   0  0  0  0  0  0  0  0  0  0  0  0
    4.4677   -0.9532   -0.1850 C   0  0  0  0  0  0  0  0  0  0  0  0
   -5.5588    2.1291   -0.0934 C   0  0  0  0  0  0  0  0  0  0  0  0
   -6.0389    0.9698    0.5111 C   0  0  0  0  0  0  0  0  0  0  0  0
    5.1016   -0.3233    1.0565 C   0  0  0  0  0  0  0  0  0  0  0  0
    4.6187    1.1059    1.3135 C   0  0  0  0  0  0  0  0  0  0  0  0
    6.3550    2.0651   -0.0420 C   0  0  0  0  0  0  0  0  0  0  0  0
    4.3677    3.3281    0.4352 C   0  0  0  0  0  0  0  0  0  0  0  0
   -1.7195   -0.6889   -1.6103 H   0  0  0  0  0  0  0  0  0  0  0  0
    0.7374    0.4200   -0.1731 H   0  0  0  0  0  0  0  0  0  0  0  0
    0.4438   -2.0555   -1.9637 H   0  0  0  0  0  0  0  0  0  0  0  0
    0.9101   -2.0118    1.0784 H   0  0  0  0  0  0  0  0  0  0  0  0
   -1.5755   -2.8911   -0.4251 H   0  0  0  0  0  0  0  0  0  0  0  0
   -1.3268   -2.9469    1.2971 H   0  0  0  0  0  0  0  0  0  0  0  0
   -1.8995    1.6770   -1.7156 H   0  0  0  0  0  0  0  0  0  0  0  0
   -1.3802    1.8957   -0.0343 H   0  0  0  0  0  0  0  0  0  0  0  0
    2.6788   -0.9865   -2.1236 H   0  0  0  0  0  0  0  0  0  0  0  0
    2.7542   -2.5662   -1.4045 H   0  0  0  0  0  0  0  0  0  0  0  0
   -0.0706   -0.1467    1.8630 H   0  0  0  0  0  0  0  0  0  0  0  0
   -1.6316    0.6624    2.0234 H   0  0  0  0  0  0  0  0  0  0  0  0
   -1.4225   -0.9366    2.6909 H   0  0  0  0  0  0  0  0  0  0  0  0
    1.6758    0.7937   -2.4279 H   0  0  0  0  0  0  0  0  0  0  0  0
    0.1844    0.1829   -3.1702 H   0  0  0  0  0  0  0  0  0  0  0  0
    0.2019    1.6915   -2.2389 H   0  0  0  0  0  0  0  0  0  0  0  0
    1.9724   -3.9844    0.0861 H   0  0  0  0  0  0  0  0  0  0  0  0
    0.4870   -4.4700    0.8891 H   0  0  0  0  0  0  0  0  0  0  0  0
    0.5219   -4.3296   -0.8762 H   0  0  0  0  0  0  0  0  0  0  0  0
    2.7926   -1.5449    0.7779 H   0  0  0  0  0  0  0  0  0  0  0  0
   -3.8615    3.1182   -0.9598 H   0  0  0  0  0  0  0  0  0  0  0  0
   -5.5620   -1.0046    1.2108 H   0  0  0  0  0  0  0  0  0  0  0  0
    4.8587   -1.9719   -0.2963 H   0  0  0  0  0  0  0  0  0  0  0  0
    4.7564   -0.3939   -1.0821 H   0  0  0  0  0  0  0  0  0  0  0  0
   -6.2252    2.9697   -0.2630 H   0  0  0  0  0  0  0  0  0  0  0  0
   -7.0802    0.9052    0.8128 H   0  0  0  0  0  0  0  0  0  0  0  0
    4.8434   -0.9310    1.9346 H   0  0  0  0  0  0  0  0  0  0  0  0
    6.1933   -0.3777    0.9848 H   0  0  0  0  0  0  0  0  0  0  0  0
    5.0885    1.4742    2.2356 H   0  0  0  0  0  0  0  0  0  0  0  0
    3.5386    1.0924    1.5067 H   0  0  0  0  0  0  0  0  0  0  0  0
    6.7566    1.1264   -0.4349 H   0  0  0  0  0  0  0  0  0  0  0  0
    6.9111    2.3420    0.8610 H   0  0  0  0  0  0  0  0  0  0  0  0
    6.5762    2.8141   -0.8122 H   0  0  0  0  0  0  0  0  0  0  0  0
    3.2818    3.2820    0.5750 H   0  0  0  0  0  0  0  0  0  0  0  0
    4.5431    3.9783   -0.4290 H   0  0  0  0  0  0  0  0  0  0  0  0
    4.8104    3.8008    1.3194 H   0  0  0  0  0  0  0  0  0  0  0  0
  1  5  1  0  0  0  0
  1 16  1  0  0  0  0
  2 11  1  0  0  0  0
  2 19  1  0  0  0  0
  2 45  1  0  0  0  0
  3 23  1  0  0  0  0
  3 24  1  0  0  0  0
  3 25  1  0  0  0  0
  4  5  1  0  0  0  0
  4  6  1  0  0  0  0
  4 10  1  0  0  0  0
  4 26  1  0  0  0  0
  5  9  1  0  0  0  0
  5 12  1  0  0  0  0
  6  7  1  0  0  0  0
  6 13  1  0  0  0  0
  6 27  1  0  0  0  0
  7  8  1  0  0  0  0
  7 11  1  0  0  0  0
  7 28  1  0  0  0  0
  8  9  1  0  0  0  0
  8 14  1  0  0  0  0
  8 29  1  0  0  0  0
  9 30  1  0  0  0  0
  9 31  1  0  0  0  0
 10 15  1  0  0  0  0
 10 32  1  0  0  0  0
 10 33  1  0  0  0  0
 11 34  1  0  0  0  0
 11 35  1  0  0  0  0
 12 36  1  0  0  0  0
 12 37  1  0  0  0  0
 12 38  1  0  0  0  0
 13 39  1  0  0  0  0
 13 40  1  0  0  0  0
 13 41  1  0  0  0  0
 14 42  1  0  0  0  0
 14 43  1  0  0  0  0
 14 44  1  0  0  0  0
 15 16  1  0  0  0  0
 15 17  2  0  0  0  0
 16 18  2  0  0  0  0
 17 20  1  0  0  0  0
 17 46  1  0  0  0  0
 18 21  1  0  0  0  0
 18 47  1  0  0  0  0
 19 22  1  0  0  0  0
 19 48  1  0  0  0  0
 19 49  1  0  0  0  0
 20 21  2  0  0  0  0
 20 50  1  0  0  0  0
 21 51  1  0  0  0  0
 22 23  1  0  0  0  0
 22 52  1  0  0  0  0
 22 53  1  0  0  0  0
 23 54  1  0  0  0  0
 23 55  1  0  0  0  0
 24 56  1  0  0  0  0
 24 57  1  0  0  0  0
 24 58  1  0  0  0  0
 25 59  1  0  0  0  0
 25 60  1  0  0  0  0
 25 61  1  0  0  0  0
M  END
> <PUBCHEM_COMPOUND_CID>
575337

> <PUBCHEM_CONFORMER_RMSD>
1

> <PUBCHEM_CONFORMER_DIVERSEORDER>
33
223
166
198
52
43
110
285
104
46
449
307
457
418
230
114
245
565
62
268
383
141
94
520
538
228
168
58
304
143
363
40
322
443
247
297
142
154
278
342
19
28
179
4
242
413
81
127
132
59
48
249
306
264
507
20
125
229
18
421
162
21
73
515
311
450
254
88
51
185
124
453
426
475
243
200
314
396
126
216
56
173
218
347
1
96
570
548
134
321
272
284
70
115
90
39
313
41
568
534
286
149
205
120
155
5
476
6
380
209
550
504
222
204
130
112
30
327
266
160
192
54
146
27
505
502
7
214
174
76
289
24
14
63
49
299
477
178
276
107
435
37
463
374
3
44
175
29
516
139
420
71
31
17
331
488
2
442
102
519
275
74
270
26
82
364
277
237
32
194
15
91
208
236
459
336
34
317
261
373
225
79
10
190
100
358
496
16
68
25
23
296
50
207
47
239
38
9
64
258
269
77
355
233
13
136
36
281
541
362
189
545
341
215
416
491
148
67
543

> <PUBCHEM_MMFF94_PARTIAL_CHARGES>
21
1 -0.36
10 0.14
11 0.27
15 -0.14
16 0.08
17 -0.15
18 -0.15
19 0.27
2 -0.9
20 -0.15
21 -0.15
23 0.27
24 0.27
25 0.27
3 -0.81
45 0.36
46 0.15
47 0.15
5 0.28
50 0.15
51 0.15

> <PUBCHEM_EFFECTIVE_ROTOR_COUNT>
7.2

> <PUBCHEM_PHARMACOPHORE_FEATURES>
7
1 1 acceptor
1 2 cation
1 2 donor
1 3 cation
6 1 4 5 10 15 16 rings
6 15 16 17 18 20 21 rings
6 4 5 6 7 8 9 rings

> <PUBCHEM_HEAVY_ATOM_COUNT>
25

> <PUBCHEM_ATOM_DEF_STEREO_COUNT>
0

> <PUBCHEM_ATOM_UDEF_STEREO_COUNT>
5

> <PUBCHEM_BOND_DEF_STEREO_COUNT>
0

> <PUBCHEM_BOND_UDEF_STEREO_COUNT>
0

> <PUBCHEM_ISOTOPIC_ATOM_COUNT>
0

> <PUBCHEM_COMPONENT_COUNT>
1

> <PUBCHEM_CACTVS_TAUTO_COUNT>
1

> <PUBCHEM_CONFORMER_ID>
0008C76900000021

> <PUBCHEM_MMFF94_ENERGY>
69.5391

> <PUBCHEM_FEATURE_SELFOVERLAP>
35.57

> <PUBCHEM_SHAPE_FINGERPRINT>
10 15 18259708904157315609
10693767 8 8790599261132284153
10906281 52 17388007229291643799
11578080 2 18271534126324044731
12403259 415 18339091422863020542
12422481 6 17530963540643476269
12596602 18 17530682125786200088
12633257 1 18335404795557440770
12760667 363 7853583412920749732
13402501 40 18410572877335355616
14251751 18 9439412319903172480
14251764 38 18271530788554823864
14739800 52 17969493806596586905
14787075 74 18201714089518950791
14951699 99 18114188592067056084
15342168 16 18272368706988589326
15840311 113 18127422163943136201
17980427 23 18260829340849745645
1813 80 15574712500070992804
20567600 234 18412261761576047577
21033648 29 18340481257775214712
21315764 119 11671795857304904465
21452121 103 18190459359569142475
21475661 188 18412822482668126688
21637258 2 12612755735022843189
21792934 111 18114473276022945337
21859007 373 17241595140467836965
22950370 63 9079117777769835822
23227448 37 18271802470921131766
23559900 14 18195532497534898838
2838139 119 18341322319076021220
2916195 48 18409166576472765897
3004659 81 11383837065421619828
3298306 158 18201994473516121856
33382 64 10881405313707568684
345986 75 13839977798955265212
34797466 226 17988365863051888167
3493558 16 18269841904229579825
392239 28 18340489971762730833
4340502 62 18339925918071552143
474 4 18201719531384757802
5104073 3 17972045739078078331
7808743 9 18266174118876214816
9981440 41 18262245516274340347

> <PUBCHEM_SHAPE_MULTIPOLES>
498.66
13.61
3.42
1.37
3.27
0.72
0.25
-12.34
-3.63
2.76
-0.11
0.4
-0.03
1.15

> <PUBCHEM_SHAPE_SELFOVERLAP>
1028.169

> <PUBCHEM_SHAPE_VOLUME>
286

> <PUBCHEM_COORDINATE_TYPE>
2
5
10

$$$$
