2096694
  -OEChem-01171809493D

 43 44  0     0  0  0  0  0  0999 V2000
    3.5678    2.3220    0.6855 S   0  0  0  0  0  0  0  0  0  0  0  0
    0.7589    3.1882    1.4307 S   0  0  0  0  0  0  0  0  0  0  0  0
    2.0938   -2.0905   -1.0268 O   0  0  0  0  0  0  0  0  0  0  0  0
    3.0092   -3.1070    0.8312 O   0  0  0  0  0  0  0  0  0  0  0  0
   -3.6204   -1.8888   -0.0095 O   0  0  0  0  0  0  0  0  0  0  0  0
    0.4271   -1.1334    0.9729 O   0  0  0  0  0  0  0  0  0  0  0  0
   -2.3192   -0.6370    1.4105 O   0  0  0  0  0  0  0  0  0  0  0  0
    1.3281    1.8564   -0.7034 N   0  0  0  0  0  0  0  0  0  0  0  0
   -1.3830   -2.0934   -0.1464 N   0  0  0  0  0  0  0  0  0  0  0  0
    4.1013   -0.1022   -0.6034 C   0  0  0  0  0  0  0  0  0  0  0  0
    4.3391   -1.6129   -0.5542 C   0  0  0  0  0  0  0  0  0  0  0  0
    3.7795    0.5186    0.7557 C   0  0  0  0  0  0  0  0  0  0  0  0
    3.0947   -2.3657   -0.1381 C   0  0  0  0  0  0  0  0  0  0  0  0
    1.7893    2.4057    0.3602 C   0  0  0  0  0  0  0  0  0  0  0  0
   -0.5449    2.7763    0.3803 C   0  0  0  0  0  0  0  0  0  0  0  0
   -0.0437    2.0621   -0.7121 C   0  0  0  0  0  0  0  0  0  0  0  0
   -1.9128    3.0644    0.5135 C   0  0  0  0  0  0  0  0  0  0  0  0
   -0.9456    1.6219   -1.7050 C   0  0  0  0  0  0  0  0  0  0  0  0
    0.8464   -2.7442   -0.7720 C   0  0  0  0  0  0  0  0  0  0  0  0
   -2.7838    2.6172   -0.4831 C   0  0  0  0  0  0  0  0  0  0  0  0
   -2.3087    1.9052   -1.5789 C   0  0  0  0  0  0  0  0  0  0  0  0
   -0.0290   -1.8939    0.1237 C   0  0  0  0  0  0  0  0  0  0  0  0
   -4.7965   -1.3149    0.5718 C   0  0  0  0  0  0  0  0  0  0  0  0
   -2.4304   -1.4592    0.5070 C   0  0  0  0  0  0  0  0  0  0  0  0
   -6.0172   -1.8948   -0.1103 C   0  0  0  0  0  0  0  0  0  0  0  0
    5.0113    0.3641   -1.0028 H   0  0  0  0  0  0  0  0  0  0  0  0
    3.3007    0.1202   -1.3182 H   0  0  0  0  0  0  0  0  0  0  0  0
    5.1378   -1.8464    0.1588 H   0  0  0  0  0  0  0  0  0  0  0  0
    4.6564   -1.9887   -1.5331 H   0  0  0  0  0  0  0  0  0  0  0  0
    4.6099    0.3218    1.4428 H   0  0  0  0  0  0  0  0  0  0  0  0
    2.8897    0.0633    1.2010 H   0  0  0  0  0  0  0  0  0  0  0  0
   -2.2911    3.6191    1.3668 H   0  0  0  0  0  0  0  0  0  0  0  0
   -0.5853    1.0627   -2.5639 H   0  0  0  0  0  0  0  0  0  0  0  0
    0.9798   -3.7352   -0.3239 H   0  0  0  0  0  0  0  0  0  0  0  0
    0.3646   -2.8858   -1.7451 H   0  0  0  0  0  0  0  0  0  0  0  0
   -3.8467    2.8278   -0.3984 H   0  0  0  0  0  0  0  0  0  0  0  0
   -3.0014    1.5632   -2.3429 H   0  0  0  0  0  0  0  0  0  0  0  0
   -1.6404   -2.7559   -0.8732 H   0  0  0  0  0  0  0  0  0  0  0  0
   -4.8250   -1.5471    1.6423 H   0  0  0  0  0  0  0  0  0  0  0  0
   -4.7774   -0.2279    0.4352 H   0  0  0  0  0  0  0  0  0  0  0  0
   -6.9359   -1.4769    0.3106 H   0  0  0  0  0  0  0  0  0  0  0  0
   -5.9936   -1.6860   -1.1849 H   0  0  0  0  0  0  0  0  0  0  0  0
   -6.0402   -2.9838    0.0015 H   0  0  0  0  0  0  0  0  0  0  0  0
  1 12  1  0  0  0  0
  1 14  1  0  0  0  0
  2 14  1  0  0  0  0
  2 15  1  0  0  0  0
  3 13  1  0  0  0  0
  3 19  1  0  0  0  0
  4 13  2  0  0  0  0
  5 23  1  0  0  0  0
  5 24  1  0  0  0  0
  6 22  2  0  0  0  0
  7 24  2  0  0  0  0
  8 14  2  0  0  0  0
  8 16  1  0  0  0  0
  9 22  1  0  0  0  0
  9 24  1  0  0  0  0
  9 38  1  0  0  0  0
 10 11  1  0  0  0  0
 10 12  1  0  0  0  0
 10 26  1  0  0  0  0
 10 27  1  0  0  0  0
 11 13  1  0  0  0  0
 11 28  1  0  0  0  0
 11 29  1  0  0  0  0
 12 30  1  0  0  0  0
 12 31  1  0  0  0  0
 15 16  1  0  0  0  0
 15 17  2  0  0  0  0
 16 18  2  0  0  0  0
 17 20  1  0  0  0  0
 17 32  1  0  0  0  0
 18 21  1  0  0  0  0
 18 33  1  0  0  0  0
 19 22  1  0  0  0  0
 19 34  1  0  0  0  0
 19 35  1  0  0  0  0
 20 21  2  0  0  0  0
 20 36  1  0  0  0  0
 21 37  1  0  0  0  0
 23 25  1  0  0  0  0
 23 39  1  0  0  0  0
 23 40  1  0  0  0  0
 25 41  1  0  0  0  0
 25 42  1  0  0  0  0
 25 43  1  0  0  0  0
M  END
> <PUBCHEM_COMPOUND_CID>
2096694

> <PUBCHEM_CONFORMER_RMSD>
1.2

> <PUBCHEM_CONFORMER_DIVERSEORDER>
2
324
331
78
44
136
497
441
1
435
271
7
16
195
428
403
174
519
145
434
330
12
3
242
490
184
186
433
130
296
68
252
129
310
181
28
162
244
179
221
192
18
319
101
107
474
448
42
471
406
178
353
276
50
71
48
303
194
86
277
17
47
238
150
15
502
54
156
269
38
104
93
27
35
341
292
199
77
20
96
9
439
84
8
257
60
30
513
478
335
76
214
102
307
135
245
122
322
282
45
113
255
517
193
58
457
149
297
43
385
120
261
40
294
327
57
390
264
378
177
463
108
151
85
509
362
72
305
26
90
387
46
446
116
350
25
444
22
11
375
19
51
80
4
21
160
235
183
39
249
230
291

> <PUBCHEM_MMFF94_PARTIAL_CHARGES>
28
1 -0.29
11 0.06
12 0.23
13 0.66
14 0.43
15 0.04
16 0.23
17 -0.15
18 -0.15
19 0.34
2 -0.08
20 -0.15
21 -0.15
22 0.57
23 0.28
24 0.78
3 -0.43
32 0.15
33 0.15
36 0.15
37 0.15
38 0.37
4 -0.57
5 -0.43
6 -0.57
7 -0.57
8 -0.57
9 -0.49

> <PUBCHEM_EFFECTIVE_ROTOR_COUNT>
12

> <PUBCHEM_PHARMACOPHORE_FEATURES>
8
1 4 acceptor
1 6 acceptor
1 7 acceptor
1 8 acceptor
1 9 donor
4 1 10 11 12 hydrophobe
5 2 8 14 15 16 rings
6 15 16 17 18 20 21 rings

> <PUBCHEM_HEAVY_ATOM_COUNT>
25

> <PUBCHEM_ATOM_DEF_STEREO_COUNT>
0

> <PUBCHEM_ATOM_UDEF_STEREO_COUNT>
0

> <PUBCHEM_BOND_DEF_STEREO_COUNT>
0

> <PUBCHEM_BOND_UDEF_STEREO_COUNT>
0

> <PUBCHEM_ISOTOPIC_ATOM_COUNT>
0

> <PUBCHEM_COMPONENT_COUNT>
1

> <PUBCHEM_CACTVS_TAUTO_COUNT>
3

> <PUBCHEM_CONFORMER_ID>
001FFE3600000002

> <PUBCHEM_MMFF94_ENERGY>
35.0577

> <PUBCHEM_FEATURE_SELFOVERLAP>
40.675

> <PUBCHEM_SHAPE_FINGERPRINT>
1100329 8 18051130290001079073
12422481 6 18264230066349266585
13075007 39 17753348744191383571
13402501 40 18337388343728333332
14790565 3 16535106546295390917
15420108 30 17843685697176009959
17093844 170 18263924513152851916
17357779 13 18335695061810064295
20600515 1 16661484185358021095
20764821 26 18338233748143137066
20905425 154 18411142428404993580
21279426 13 18335975411980285653
21285901 2 18042116708282251853
23352939 185 18342746221437010219
23419403 2 18188755215403866407
23557571 272 18267594519874026134
3014063 31 18411139155602971007
59755656 215 18337672026328777189
6443956 14 18265899244652477077

> <PUBCHEM_SHAPE_MULTIPOLES>
482.88
8.61
5.07
1.27
5.92
0.76
0.17
-5.89
-0.6
-0.55
-0.37
0.15
0.54
1.38

> <PUBCHEM_SHAPE_SELFOVERLAP>
972.245

> <PUBCHEM_SHAPE_VOLUME>
283.2

> <PUBCHEM_COORDINATE_TYPE>
2
5
10

$$$$
