5338376
  -OEChem-01171809323D

 40 42  0     0  0  0  0  0  0999 V2000
   -7.3959    2.0437    0.3659 Br  0  0  0  0  0  0  0  0  0  0  0  0
    0.0515   -2.7625   -0.5687 O   0  0  0  0  0  0  0  0  0  0  0  0
    3.8663   -1.1932    0.5130 N   0  0  0  0  0  0  0  0  0  0  0  0
    4.5206    2.9531   -0.0573 C   0  0  0  0  0  0  0  0  0  0  0  0
    5.6736    1.9859   -0.2984 C   0  0  0  0  0  0  0  0  0  0  0  0
    3.2155    2.3805   -0.6086 C   0  0  0  0  0  0  0  0  0  0  0  0
    5.4224    0.6692    0.4331 C   0  0  0  0  0  0  0  0  0  0  0  0
    2.9988    0.9382   -0.2395 C   0  0  0  0  0  0  0  0  0  0  0  0
    4.0395    0.1175    0.2063 C   0  0  0  0  0  0  0  0  0  0  0  0
    1.7367    0.3583   -0.3992 C   0  0  0  0  0  0  0  0  0  0  0  0
    1.5404   -0.9835   -0.0972 C   0  0  0  0  0  0  0  0  0  0  0  0
    2.6279   -1.7089    0.3521 C   0  0  0  0  0  0  0  0  0  0  0  0
    2.4816   -3.1553    0.6971 C   0  0  0  0  0  0  0  0  0  0  0  0
    0.2212   -1.5763   -0.2558 C   0  0  0  0  0  0  0  0  0  0  0  0
   -0.9921   -0.7043   -0.0700 C   0  0  0  0  0  0  0  0  0  0  0  0
   -2.2264   -1.2031   -0.2358 C   0  0  0  0  0  0  0  0  0  0  0  0
   -3.4682   -0.4231   -0.0914 C   0  0  0  0  0  0  0  0  0  0  0  0
   -3.4446    0.7636    0.6231 C   0  0  0  0  0  0  0  0  0  0  0  0
   -4.6351   -0.8917   -0.6730 C   0  0  0  0  0  0  0  0  0  0  0  0
   -4.6202    1.5019    0.7601 C   0  0  0  0  0  0  0  0  0  0  0  0
   -5.8105   -0.1533   -0.5362 C   0  0  0  0  0  0  0  0  0  0  0  0
   -5.8032    1.0434    0.1805 C   0  0  0  0  0  0  0  0  0  0  0  0
    4.7293    3.9182   -0.5322 H   0  0  0  0  0  0  0  0  0  0  0  0
    4.4194    3.1403    1.0194 H   0  0  0  0  0  0  0  0  0  0  0  0
    6.6152    2.4261    0.0485 H   0  0  0  0  0  0  0  0  0  0  0  0
    5.7804    1.8021   -1.3750 H   0  0  0  0  0  0  0  0  0  0  0  0
    2.3806    2.9902   -0.2432 H   0  0  0  0  0  0  0  0  0  0  0  0
    3.2244    2.4534   -1.7034 H   0  0  0  0  0  0  0  0  0  0  0  0
    6.1693   -0.0683    0.1171 H   0  0  0  0  0  0  0  0  0  0  0  0
    5.5497    0.8223    1.5120 H   0  0  0  0  0  0  0  0  0  0  0  0
    0.9396    0.9791   -0.7991 H   0  0  0  0  0  0  0  0  0  0  0  0
    2.3208   -3.7572   -0.2024 H   0  0  0  0  0  0  0  0  0  0  0  0
    1.6682   -3.3155    1.4119 H   0  0  0  0  0  0  0  0  0  0  0  0
    3.3965   -3.5277    1.1723 H   0  0  0  0  0  0  0  0  0  0  0  0
   -0.8268    0.3253    0.2174 H   0  0  0  0  0  0  0  0  0  0  0  0
   -2.3635   -2.2419   -0.5268 H   0  0  0  0  0  0  0  0  0  0  0  0
   -2.5557    1.1487    1.1120 H   0  0  0  0  0  0  0  0  0  0  0  0
   -4.6567   -1.8214   -1.2354 H   0  0  0  0  0  0  0  0  0  0  0  0
   -4.5991    2.4298    1.3260 H   0  0  0  0  0  0  0  0  0  0  0  0
   -6.7237   -0.5242   -0.9944 H   0  0  0  0  0  0  0  0  0  0  0  0
  1 22  1  0  0  0  0
  2 14  2  0  0  0  0
  3  9  2  0  0  0  0
  3 12  1  0  0  0  0
  4  5  1  0  0  0  0
  4  6  1  0  0  0  0
  4 23  1  0  0  0  0
  4 24  1  0  0  0  0
  5  7  1  0  0  0  0
  5 25  1  0  0  0  0
  5 26  1  0  0  0  0
  6  8  1  0  0  0  0
  6 27  1  0  0  0  0
  6 28  1  0  0  0  0
  7  9  1  0  0  0  0
  7 29  1  0  0  0  0
  7 30  1  0  0  0  0
  8  9  1  0  0  0  0
  8 10  2  0  0  0  0
 10 11  1  0  0  0  0
 10 31  1  0  0  0  0
 11 12  2  0  0  0  0
 11 14  1  0  0  0  0
 12 13  1  0  0  0  0
 13 32  1  0  0  0  0
 13 33  1  0  0  0  0
 13 34  1  0  0  0  0
 14 15  1  0  0  0  0
 15 16  2  0  0  0  0
 15 35  1  0  0  0  0
 16 17  1  0  0  0  0
 16 36  1  0  0  0  0
 17 18  2  0  0  0  0
 17 19  1  0  0  0  0
 18 20  1  0  0  0  0
 18 37  1  0  0  0  0
 19 21  2  0  0  0  0
 19 38  1  0  0  0  0
 20 22  2  0  0  0  0
 20 39  1  0  0  0  0
 21 22  1  0  0  0  0
 21 40  1  0  0  0  0
M  END
> <PUBCHEM_COMPOUND_CID>
5338376

> <PUBCHEM_CONFORMER_RMSD>
0.6

> <PUBCHEM_CONFORMER_DIVERSEORDER>
4
19
23
20
8
25
6
15
7
22
24
9
5
1
18
11
2
13
14
12
3
21
10
17
16

> <PUBCHEM_MMFF94_PARTIAL_CHARGES>
27
1 -0.11
10 -0.15
11 0.09
12 0.17
13 0.14
14 0.47
15 -0.14
16 -0.18
17 0.03
18 -0.15
19 -0.15
2 -0.57
20 -0.15
21 -0.15
22 0.11
3 -0.62
31 0.15
35 0.15
36 0.15
37 0.15
38 0.15
39 0.15
40 0.15
6 0.14
7 0.14
8 -0.14
9 0.17

> <PUBCHEM_EFFECTIVE_ROTOR_COUNT>
3.8

> <PUBCHEM_PHARMACOPHORE_FEATURES>
6
1 1 hydrophobe
1 2 acceptor
1 3 acceptor
6 17 18 19 20 21 22 rings
6 3 8 9 10 11 12 rings
6 4 5 6 7 8 9 rings

> <PUBCHEM_HEAVY_ATOM_COUNT>
22

> <PUBCHEM_ATOM_DEF_STEREO_COUNT>
0

> <PUBCHEM_ATOM_UDEF_STEREO_COUNT>
0

> <PUBCHEM_BOND_DEF_STEREO_COUNT>
1

> <PUBCHEM_BOND_UDEF_STEREO_COUNT>
0

> <PUBCHEM_ISOTOPIC_ATOM_COUNT>
0

> <PUBCHEM_COMPONENT_COUNT>
1

> <PUBCHEM_CACTVS_TAUTO_COUNT>
1

> <PUBCHEM_CONFORMER_ID>
0051750800000004

> <PUBCHEM_MMFF94_ENERGY>
61.7653

> <PUBCHEM_FEATURE_SELFOVERLAP>
30.472

> <PUBCHEM_SHAPE_FINGERPRINT>
10411042 1 17833267515904074794
10554248 39 18058157325086172791
10595046 47 18412539934213739047
11089746 13 18272366520750184084
11578080 2 13480286954101278068
12107183 9 17763745386751078347
12236239 1 18272929414842689367
12596602 18 18113618989150823115
12633257 1 16009311036316336076
12788726 201 17560809788349210785
13167372 99 18411699855257637201
13533116 47 17459186279332409827
13685833 64 9367344838665672629
13785724 45 17907295456048020522
13878862 14 18191282941228553437
13955234 65 18114457847403244354
14251764 75 18263934404420726588
14528608 73 18342457062483874653
14739800 52 18059840801520525200
14767858 380 18129929192230292519
14790565 3 18337393863199710956
15142526 21 18188206632100167242
15188451 53 15358270402444220651
15419008 145 18116421562649449568
15475509 35 16081921530527682746
15475509 8 18341343193724972758
17810953 82 18409169913409335820
19427546 20 18201150049624882359
19427546 62 18409731746782517027
20157964 124 18409449155176787963
20511986 3 18270949198738255885
21033648 144 18260259768241766239
21033650 10 15051464769431485171
21298829 104 18411702101436375305
21315764 268 18117275861872593797
21421861 104 18040984104353512090
21859007 373 17169539707003790829
221357 26 10807937050672635425
23559900 14 17631454462627186711
23845131 108 18186801421669849194
245318 6 17897460598855958445
25147074 1 18269254885353050838
268830 7 18334847291380217295
270888 7 18412545443918268901
2838139 119 18270960257872952300
335352 9 18409730686679183254
3472631 163 18273217504063676965
34797466 226 17917720102057625759
397830 11 18114197337031427547
4073 2 18186808002092132755
4340502 62 17240201032094351034
465052 167 10809340031699325600
474 4 18335701662890130386
5104073 3 18113902663193344611
59124914 9 18338517547103668064
59682541 52 16916519068490260036
633830 44 18413669114800609910
67856867 119 18411975841376841971
8272917 22 18409729547927722302

> <PUBCHEM_SHAPE_MULTIPOLES>
447.84
17.05
3.13
0.8
19.29
0.23
0.02
-13.06
1.18
-3.23
0.09
0.21
0.02
-1.58

> <PUBCHEM_SHAPE_SELFOVERLAP>
952.555

> <PUBCHEM_SHAPE_VOLUME>
254.6

> <PUBCHEM_COORDINATE_TYPE>
2
5
10

$$$$
