3093461
  -OEChem-01171809313D

 38 39  0     1  0  0  0  0  0999 V2000
    0.3180    2.0962    2.4046 Cl  0  0  0  0  0  0  0  0  0  0  0  0
   -1.4631    3.8645    0.9289 Cl  0  0  0  0  0  0  0  0  0  0  0  0
    1.3764    3.8925    0.3679 Cl  0  0  0  0  0  0  0  0  0  0  0  0
    4.2416   -3.0005   -1.6185 Cl  0  0  0  0  0  0  0  0  0  0  0  0
   -3.5751   -3.5120    1.9616 Cl  0  0  0  0  0  0  0  0  0  0  0  0
    0.6803    0.3050   -3.0810 S   0  0  0  0  0  0  0  0  0  0  0  0
   -2.6174    1.3010   -1.8503 O   0  0  0  0  0  0  0  0  0  0  0  0
   -1.3212    0.8534    0.0231 N   0  0  0  0  0  0  0  0  0  0  0  0
    1.0225    0.9239   -0.4538 N   0  0  0  0  0  0  0  0  0  0  0  0
    2.6621   -0.4044   -1.5129 N   0  0  0  0  0  0  0  0  0  0  0  0
   -0.1957    1.7353   -0.2900 C   0  0  2  0  0  0  0  0  0  0  0  0
   -0.0042    2.8229    0.7957 C   0  0  0  0  0  0  0  0  0  0  0  0
   -2.4360    0.7139   -0.7873 C   0  0  0  0  0  0  0  0  0  0  0  0
   -3.4610   -0.2452   -0.3063 C   0  0  0  0  0  0  0  0  0  0  0  0
    1.4836    0.3116   -1.5996 C   0  0  0  0  0  0  0  0  0  0  0  0
    3.5371   -0.6479   -0.4257 C   0  0  0  0  0  0  0  0  0  0  0  0
   -3.0687   -1.2937    0.5010 C   0  0  0  0  0  0  0  0  0  0  0  0
   -4.7765   -0.0588   -0.6803 C   0  0  0  0  0  0  0  0  0  0  0  0
    4.3027   -1.8013   -0.3762 C   0  0  0  0  0  0  0  0  0  0  0  0
    3.6007    0.3029    0.5808 C   0  0  0  0  0  0  0  0  0  0  0  0
   -4.0330   -2.1941    0.9538 C   0  0  0  0  0  0  0  0  0  0  0  0
   -5.7407   -0.9594   -0.2277 C   0  0  0  0  0  0  0  0  0  0  0  0
   -5.3690   -2.0270    0.5894 C   0  0  0  0  0  0  0  0  0  0  0  0
    5.1546   -2.0103    0.7083 C   0  0  0  0  0  0  0  0  0  0  0  0
    4.4525    0.0940    1.6654 C   0  0  0  0  0  0  0  0  0  0  0  0
    5.2295   -1.0627    1.7291 C   0  0  0  0  0  0  0  0  0  0  0  0
   -0.4021    2.2327   -1.2441 H   0  0  0  0  0  0  0  0  0  0  0  0
   -1.2567    0.3631    0.9078 H   0  0  0  0  0  0  0  0  0  0  0  0
    1.3447    0.5479    0.4269 H   0  0  0  0  0  0  0  0  0  0  0  0
    2.8562   -0.9790   -2.3306 H   0  0  0  0  0  0  0  0  0  0  0  0
   -2.0315   -1.4706    0.7688 H   0  0  0  0  0  0  0  0  0  0  0  0
   -5.0830    0.7703   -1.3110 H   0  0  0  0  0  0  0  0  0  0  0  0
    3.1292    1.2762    0.5298 H   0  0  0  0  0  0  0  0  0  0  0  0
   -6.7812   -0.8285   -0.5102 H   0  0  0  0  0  0  0  0  0  0  0  0
   -6.1312   -2.7206    0.9348 H   0  0  0  0  0  0  0  0  0  0  0  0
    5.7680   -2.9055    0.7726 H   0  0  0  0  0  0  0  0  0  0  0  0
    4.5337    0.8452    2.4458 H   0  0  0  0  0  0  0  0  0  0  0  0
    5.8980   -1.2219    2.5701 H   0  0  0  0  0  0  0  0  0  0  0  0
  1 12  1  0  0  0  0
  2 12  1  0  0  0  0
  3 12  1  0  0  0  0
  4 19  1  0  0  0  0
  5 21  1  0  0  0  0
  6 15  2  0  0  0  0
  7 13  2  0  0  0  0
  8 11  1  0  0  0  0
  8 13  1  0  0  0  0
  8 28  1  0  0  0  0
  9 11  1  0  0  0  0
  9 15  1  0  0  0  0
  9 29  1  0  0  0  0
 10 15  1  0  0  0  0
 10 16  1  0  0  0  0
 10 30  1  0  0  0  0
 11 12  1  0  0  0  0
 11 27  1  0  0  0  0
 13 14  1  0  0  0  0
 14 17  2  0  0  0  0
 14 18  1  0  0  0  0
 16 19  1  0  0  0  0
 16 20  2  0  0  0  0
 17 21  1  0  0  0  0
 17 31  1  0  0  0  0
 18 22  2  0  0  0  0
 18 32  1  0  0  0  0
 19 24  2  0  0  0  0
 20 25  1  0  0  0  0
 20 33  1  0  0  0  0
 21 23  2  0  0  0  0
 22 23  1  0  0  0  0
 22 34  1  0  0  0  0
 23 35  1  0  0  0  0
 24 26  1  0  0  0  0
 24 36  1  0  0  0  0
 25 26  2  0  0  0  0
 25 37  1  0  0  0  0
 26 38  1  0  0  0  0
M  END
> <PUBCHEM_COMPOUND_CID>
3093461

> <PUBCHEM_CONFORMER_RMSD>
0.8

> <PUBCHEM_CONFORMER_DIVERSEORDER>
2
43
288
270
125
218
154
344
29
164
92
290
63
227
272
112
278
260
28
266
207
209
340
251
131
19
253
281
263
180
295
237
314
175
223
258
269
188
104
85
176
53
273
230
261
309
21
143
279
185
334
68
114
317
46
241
62
335
308
38
282
264
286
203
174
191
234
285
42
149
152
134
233
231
300
6
215
100
254
299
54
116
49
9
283
208
204
301
224
166
239
27
284
202
55
321
287
167
159
31
293
199
123
306
8
245
250
87
280
228
61
274
236
178
93
141
256
177
247
36
119
212
183
182
333
109
57
343
45
277
259
268
115
91
30
337
145
198
156
75
240
341
14
132
153
168
311
315
307
56
86
144
336
220
13
190
74
238
98
316
328
139
323
78
170
196
303
69
332
72
48
242
216
262
47
65
128
276
89
111
126
158
267
325
155
211
110
34
225
96
318
304
347
73
41
97
235
179
142
59
88
331
124
338
320
248
214
32
289
147
275
67
192
194
294
5
222
232
326
319
292
52
99
122
249
169
140
201
16
157
205
118
302
189
22
33
184
217
243
329
102
58
324
148
127
257
81
346
291
37
322
24
60
206
35
298
160
130
3
77
103
136
244
345
310
82
121
51
252
330
221
7
129
101
90
305
226
210
15
83
229
39
10
342
297
11
181
271
95
17
71
76
312
162
120
44
255
18
246
20
50
296
313
1
197
23
193
113
327
26
187
165
163
12
105
339
40
107
94
106
200
80
25
108
84
138
173
4
195
70
66
172
161
265
133
150
219
64
146
213
117
79
135
137
186
171
151

> <PUBCHEM_MMFF94_PARTIAL_CHARGES>
37
1 -0.29
10 -0.55
11 0.6
12 0.87
13 0.54
14 0.09
15 0.5
16 0.12
17 -0.15
18 -0.15
19 0.18
2 -0.29
20 -0.15
21 0.18
22 -0.15
23 -0.15
24 -0.15
25 -0.15
26 -0.15
28 0.37
29 0.37
3 -0.29
30 0.37
31 0.15
32 0.15
33 0.15
34 0.15
35 0.15
36 0.15
37 0.15
38 0.15
4 -0.18
5 -0.18
6 -0.38
7 -0.57
8 -0.73
9 -0.73

> <PUBCHEM_EFFECTIVE_ROTOR_COUNT>
8

> <PUBCHEM_PHARMACOPHORE_FEATURES>
7
1 10 donor
1 6 acceptor
1 7 acceptor
1 8 donor
1 9 donor
6 14 17 18 21 22 23 rings
6 16 19 20 24 25 26 rings

> <PUBCHEM_HEAVY_ATOM_COUNT>
26

> <PUBCHEM_ATOM_DEF_STEREO_COUNT>
0

> <PUBCHEM_ATOM_UDEF_STEREO_COUNT>
1

> <PUBCHEM_BOND_DEF_STEREO_COUNT>
0

> <PUBCHEM_BOND_UDEF_STEREO_COUNT>
0

> <PUBCHEM_ISOTOPIC_ATOM_COUNT>
0

> <PUBCHEM_COMPONENT_COUNT>
1

> <PUBCHEM_CACTVS_TAUTO_COUNT>
6

> <PUBCHEM_CONFORMER_ID>
002F33D500000002

> <PUBCHEM_MMFF94_ENERGY>
76.1309

> <PUBCHEM_FEATURE_SELFOVERLAP>
35.592

> <PUBCHEM_SHAPE_FINGERPRINT>
11796584 16 18113332011951896303
12363563 72 18341906202937276941
12422481 6 17346321453506174897
12633257 1 17916311713319411895
12895836 83 9078819801866273630
12895837 130 10734716238269383034
13544653 18 18343578534168886148
13782708 43 18189057659207916283
14251751 18 18040428927779206139
14341114 328 14405179577638383790
14840074 17 17417806309539698312
14848178 5 18187644717060043703
14866123 147 18196097638607008345
19611394 137 18410846686538566642
1979834 28 17203337718671522335
20567600 70 18334292115148511130
20626108 58 17603581967311010662
21049683 118 16907200487985321296
21315763 87 17988921210454967479
21344244 78 17131566049955890697
23559900 14 17968934331540655237
23572383 38 18411134714765809135
25222932 49 17980490283909663190
2838139 119 10087642567758147970
3004659 81 18040442091864732542
3380486 145 17202748329016159685
44062 13 17676488371805157323
463206 1 18335140942310254587
5104073 3 18196948867002499899
613672 6 18412260636036432510
6371380 46 18334569123987260297
960060 61 15502382214264825022
9841814 1 18128272248853933925
9981440 41 16123852385468098924

> <PUBCHEM_SHAPE_MULTIPOLES>
527.45
12.29
4.35
2.29
1.9
2.4
0.69
-13.07
-2.92
0.57
-1.99
-1.11
-0.22
2.13

> <PUBCHEM_SHAPE_SELFOVERLAP>
1051.241

> <PUBCHEM_SHAPE_VOLUME>
314.8

> <PUBCHEM_COORDINATE_TYPE>
2
5
10

$$$$
