16012865
  -OEChem-01171810033D

 48 50  0     1  0  0  0  0  0999 V2000
    3.9092    3.0513    2.0821 Cl  0  0  0  0  0  0  0  0  0  0  0  0
   -4.5818    1.3611   -0.9570 S   0  0  0  0  0  0  0  0  0  0  0  0
    5.6962   -1.8577   -1.1144 S   0  0  0  0  0  0  0  0  0  0  0  0
   -5.1223    1.9745    0.2525 O   0  0  0  0  0  0  0  0  0  0  0  0
   -4.8565    2.0042   -2.2383 O   0  0  0  0  0  0  0  0  0  0  0  0
    1.5738    0.9081    1.9878 O   0  0  0  0  0  0  0  0  0  0  0  0
    5.0064   -1.8608   -2.4039 O   0  0  0  0  0  0  0  0  0  0  0  0
    7.1569   -1.9415   -1.0943 O   0  0  0  0  0  0  0  0  0  0  0  0
   -5.1110   -0.2938   -1.0217 N   0  0  2  0  0  0  0  0  0  0  0  0
    1.3017    0.9555   -0.3337 N   0  0  0  0  0  0  0  0  0  0  0  0
    3.8541   -0.3375   -0.0362 N   0  0  0  0  0  0  0  0  0  0  0  0
    6.1500    0.3435    0.2333 N   0  0  0  0  0  0  0  0  0  0  0  0
   -2.8500    1.2423   -0.7733 C   0  0  0  0  0  0  0  0  0  0  0  0
   -4.8047   -1.0998    0.1438 C   0  0  0  0  0  0  0  0  0  0  0  0
   -2.2856    1.1888    0.5011 C   0  0  0  0  0  0  0  0  0  0  0  0
   -2.0306    1.2005   -1.9013 C   0  0  0  0  0  0  0  0  0  0  0  0
   -0.0822    1.0517   -0.4803 C   0  0  0  0  0  0  0  0  0  0  0  0
   -5.0264   -0.9825   -2.3366 C   0  0  0  0  0  0  0  0  0  0  0  0
   -0.9016    1.0935    0.6477 C   0  0  0  0  0  0  0  0  0  0  0  0
   -0.6466    1.1052   -1.7548 C   0  0  0  0  0  0  0  0  0  0  0  0
   -3.9052   -2.1449    0.0249 C   0  0  0  0  0  0  0  0  0  0  0  0
   -5.4182   -0.8053    1.3488 C   0  0  0  0  0  0  0  0  0  0  0  0
   -3.6098   -2.9200    1.1464 C   0  0  0  0  0  0  0  0  0  0  0  0
   -5.1229   -1.5802    2.4704 C   0  0  0  0  0  0  0  0  0  0  0  0
    2.0493    0.8898    0.8561 C   0  0  0  0  0  0  0  0  0  0  0  0
   -4.2187   -2.6376    2.3691 C   0  0  0  0  0  0  0  0  0  0  0  0
    3.5033    0.7499    0.6688 C   0  0  0  0  0  0  0  0  0  0  0  0
    5.1815   -0.4778   -0.2150 C   0  0  0  0  0  0  0  0  0  0  0  0
    4.3804    1.6692    1.1847 C   0  0  0  0  0  0  0  0  0  0  0  0
    5.0993   -3.2610   -0.1891 C   0  0  0  0  0  0  0  0  0  0  0  0
    5.7124    1.4114    0.9322 C   0  0  0  0  0  0  0  0  0  0  0  0
   -2.9037    1.2192    1.3940 H   0  0  0  0  0  0  0  0  0  0  0  0
   -2.4490    1.2345   -2.9032 H   0  0  0  0  0  0  0  0  0  0  0  0
   -5.4877   -1.9747   -2.2882 H   0  0  0  0  0  0  0  0  0  0  0  0
   -3.9915   -1.0753   -2.6769 H   0  0  0  0  0  0  0  0  0  0  0  0
   -5.5919   -0.4138   -3.0815 H   0  0  0  0  0  0  0  0  0  0  0  0
   -0.5463    1.0567    1.6672 H   0  0  0  0  0  0  0  0  0  0  0  0
   -0.0201    1.0718   -2.6425 H   0  0  0  0  0  0  0  0  0  0  0  0
   -3.3981   -2.3820   -0.9046 H   0  0  0  0  0  0  0  0  0  0  0  0
   -6.1480   -0.0074    1.4415 H   0  0  0  0  0  0  0  0  0  0  0  0
    1.8299    0.9238   -1.2035 H   0  0  0  0  0  0  0  0  0  0  0  0
   -2.9025   -3.7405    1.0691 H   0  0  0  0  0  0  0  0  0  0  0  0
   -5.6020   -1.3648    3.4210 H   0  0  0  0  0  0  0  0  0  0  0  0
   -3.9891   -3.2412    3.2423 H   0  0  0  0  0  0  0  0  0  0  0  0
    4.0095   -3.2211   -0.1437 H   0  0  0  0  0  0  0  0  0  0  0  0
    5.4170   -4.1681   -0.7079 H   0  0  0  0  0  0  0  0  0  0  0  0
    5.5325   -3.2325    0.8126 H   0  0  0  0  0  0  0  0  0  0  0  0
    6.4982    2.0693    1.2905 H   0  0  0  0  0  0  0  0  0  0  0  0
  1 29  1  0  0  0  0
  2  4  2  0  0  0  0
  2  5  2  0  0  0  0
  2  9  1  0  0  0  0
  2 13  1  0  0  0  0
  3  7  2  0  0  0  0
  3  8  2  0  0  0  0
  3 28  1  0  0  0  0
  3 30  1  0  0  0  0
  6 25  2  0  0  0  0
  9 14  1  0  0  0  0
  9 18  1  0  0  0  0
 10 17  1  0  0  0  0
 10 25  1  0  0  0  0
 10 41  1  0  0  0  0
 11 27  2  0  0  0  0
 11 28  1  0  0  0  0
 12 28  2  0  0  0  0
 12 31  1  0  0  0  0
 13 15  2  0  0  0  0
 13 16  1  0  0  0  0
 14 21  2  0  0  0  0
 14 22  1  0  0  0  0
 15 19  1  0  0  0  0
 15 32  1  0  0  0  0
 16 20  2  0  0  0  0
 16 33  1  0  0  0  0
 17 19  2  0  0  0  0
 17 20  1  0  0  0  0
 18 34  1  0  0  0  0
 18 35  1  0  0  0  0
 18 36  1  0  0  0  0
 19 37  1  0  0  0  0
 20 38  1  0  0  0  0
 21 23  1  0  0  0  0
 21 39  1  0  0  0  0
 22 24  2  0  0  0  0
 22 40  1  0  0  0  0
 23 26  2  0  0  0  0
 23 42  1  0  0  0  0
 24 26  1  0  0  0  0
 24 43  1  0  0  0  0
 25 27  1  0  0  0  0
 26 44  1  0  0  0  0
 27 29  1  0  0  0  0
 29 31  2  0  0  0  0
 30 45  1  0  0  0  0
 30 46  1  0  0  0  0
 30 47  1  0  0  0  0
 31 48  1  0  0  0  0
M  END
> <PUBCHEM_COMPOUND_CID>
16012865

> <PUBCHEM_CONFORMER_RMSD>
1

> <PUBCHEM_CONFORMER_DIVERSEORDER>
1
39
21
53
22
48
35
7
54
38
46
20
16
52
9
44
49
5
43
51
12
41
29
14
23
24
27
36
4
3
26
32
25
42
30
8
19
50
11
13
34
47
45
31
55
37
40
28
17
10
6
18
15
33
2

> <PUBCHEM_MMFF94_PARTIAL_CHARGES>
42
1 -0.18
10 -0.55
11 -0.62
12 -0.62
13 -0.01
14 0.2
15 -0.15
16 -0.15
17 0.12
18 0.36
19 -0.15
2 1.45
20 -0.15
21 -0.15
22 -0.15
23 -0.15
24 -0.15
25 0.54
26 -0.15
27 0.4
28 0.61
29 0.18
3 1.2
30 0.11
31 0.16
32 0.15
33 0.15
37 0.15
38 0.15
39 0.15
4 -0.65
40 0.15
41 0.37
42 0.15
43 0.15
44 0.15
48 0.15
5 -0.65
6 -0.57
7 -0.65
8 -0.65
9 -0.69

> <PUBCHEM_EFFECTIVE_ROTOR_COUNT>
7

> <PUBCHEM_PHARMACOPHORE_FEATURES>
11
1 10 donor
1 11 acceptor
1 4 acceptor
1 5 acceptor
1 6 acceptor
1 7 acceptor
1 8 acceptor
3 11 12 28 cation
6 11 12 27 28 29 31 rings
6 13 15 16 17 19 20 rings
6 14 21 22 23 24 26 rings

> <PUBCHEM_HEAVY_ATOM_COUNT>
31

> <PUBCHEM_ATOM_DEF_STEREO_COUNT>
0

> <PUBCHEM_ATOM_UDEF_STEREO_COUNT>
0

> <PUBCHEM_BOND_DEF_STEREO_COUNT>
0

> <PUBCHEM_BOND_UDEF_STEREO_COUNT>
0

> <PUBCHEM_ISOTOPIC_ATOM_COUNT>
0

> <PUBCHEM_COMPONENT_COUNT>
1

> <PUBCHEM_CACTVS_TAUTO_COUNT>
2

> <PUBCHEM_CONFORMER_ID>
00F4564100000001

> <PUBCHEM_MMFF94_ENERGY>
88.0142

> <PUBCHEM_FEATURE_SELFOVERLAP>
55.861

> <PUBCHEM_SHAPE_FINGERPRINT>
10673678 19 18192997235214225788
11135609 12 18041575710249578051
11315621 246 17385725785550345551
11370993 144 18201725089225277169
12655364 131 15840719448518166335
13782708 43 18408322164527944626
13941219 33 18272380784552878339
14910302 57 18113892720022008214
14950920 106 17346324855315511075
15347590 135 14902223889458258714
15352257 5 18335424539132203722
15361156 5 18412544297135699341
15510800 12 18188213229634741787
17844677 252 18059852895827306761
18927931 339 17749110006902335297
19958102 18 18187638089973043751
21315759 148 18410012164943545936
21623969 137 18131070442081199238
2303208 19 18410014338333984972
23522609 53 16486142858279309344
23559900 14 18410287012659397304
249057 3 17603857919698699333
25122255 55 18409172125069469319
25223398 141 18114185220470359966
25269216 80 17168443634748363682
3089732 80 18408892832247797202
3383291 50 18041557062066555979
392239 28 17632300046897555230
397830 11 18264201594410090080
4073 2 18409165515436573912
4435113 14 18263381242745550826
46194498 28 18334853923311317964
5104073 3 16056588893976029986
513202 73 17988932136993706505
6608658 132 15936688172921354654
7918774 8 18335991934054620374
8863177 126 18412549821075467002
999808 66 18272379637796811598

> <PUBCHEM_SHAPE_MULTIPOLES>
598.26
18.59
3.31
2.37
13.61
1.69
0.04
8.03
0.97
1.03
-0.71
-1.81
0.2
6.07

> <PUBCHEM_SHAPE_SELFOVERLAP>
1252.305

> <PUBCHEM_SHAPE_VOLUME>
339.6

> <PUBCHEM_COORDINATE_TYPE>
2
5
10

$$$$
