2409986
  -OEChem-01171809263D

 45 47  0     0  0  0  0  0  0999 V2000
    6.6972    1.5451   -0.1439 S   0  0  0  0  0  0  0  0  0  0  0  0
   -2.5174   -0.0809    0.1902 O   0  0  0  0  0  0  0  0  0  0  0  0
   -0.3667    1.4128    0.6099 O   0  0  0  0  0  0  0  0  0  0  0  0
   -3.6094   -2.0716   -0.1881 O   0  0  0  0  0  0  0  0  0  0  0  0
   -5.8845   -1.5445   -1.6217 O   0  0  0  0  0  0  0  0  0  0  0  0
    3.4102   -0.3566    0.9397 N   0  0  0  0  0  0  0  0  0  0  0  0
    2.3255    0.4789    0.8801 C   0  0  0  0  0  0  0  0  0  0  0  0
    3.0034   -1.6514    0.7484 C   0  0  0  0  0  0  0  0  0  0  0  0
    1.2447   -0.3073    0.6499 C   0  0  0  0  0  0  0  0  0  0  0  0
    4.7764    0.0633    1.1711 C   0  0  0  0  0  0  0  0  0  0  0  0
    1.6386   -1.6419    0.5631 C   0  0  0  0  0  0  0  0  0  0  0  0
    2.4555    1.9425    1.0510 C   0  0  0  0  0  0  0  0  0  0  0  0
    3.9494   -2.7867    0.7591 C   0  0  0  0  0  0  0  0  0  0  0  0
    5.4739    0.3640   -0.1267 C   0  0  0  0  0  0  0  0  0  0  0  0
   -0.1284    0.2078    0.5163 C   0  0  0  0  0  0  0  0  0  0  0  0
   -1.2644   -0.7700    0.2575 C   0  0  0  0  0  0  0  0  0  0  0  0
    5.2493   -0.2051   -1.3442 C   0  0  0  0  0  0  0  0  0  0  0  0
    6.1109    0.3434   -2.3375 C   0  0  0  0  0  0  0  0  0  0  0  0
    6.9498    1.3059   -1.8205 C   0  0  0  0  0  0  0  0  0  0  0  0
   -3.6289   -0.8438   -0.0390 C   0  0  0  0  0  0  0  0  0  0  0  0
   -4.8350   -0.0290   -0.0865 C   0  0  0  0  0  0  0  0  0  0  0  0
   -5.9226   -0.4050   -0.8750 C   0  0  0  0  0  0  0  0  0  0  0  0
   -4.8934    1.1420    0.6693 C   0  0  0  0  0  0  0  0  0  0  0  0
   -7.0684    0.3901   -0.9075 C   0  0  0  0  0  0  0  0  0  0  0  0
   -6.0391    1.9370    0.6366 C   0  0  0  0  0  0  0  0  0  0  0  0
   -7.1265    1.5610   -0.1518 C   0  0  0  0  0  0  0  0  0  0  0  0
    5.3050   -0.7398    1.6966 H   0  0  0  0  0  0  0  0  0  0  0  0
    4.7693    0.9163    1.8579 H   0  0  0  0  0  0  0  0  0  0  0  0
    1.0255   -2.5152    0.3874 H   0  0  0  0  0  0  0  0  0  0  0  0
    2.1843    2.2299    2.0720 H   0  0  0  0  0  0  0  0  0  0  0  0
    3.4598    2.3220    0.8483 H   0  0  0  0  0  0  0  0  0  0  0  0
    1.8017    2.4813    0.3582 H   0  0  0  0  0  0  0  0  0  0  0  0
    4.7775   -2.6522    0.0598 H   0  0  0  0  0  0  0  0  0  0  0  0
    4.3622   -2.9355    1.7624 H   0  0  0  0  0  0  0  0  0  0  0  0
    3.4390   -3.7145    0.4779 H   0  0  0  0  0  0  0  0  0  0  0  0
   -1.2992   -1.4927    1.0797 H   0  0  0  0  0  0  0  0  0  0  0  0
   -1.0810   -1.2745   -0.6973 H   0  0  0  0  0  0  0  0  0  0  0  0
    4.5150   -0.9681   -1.5613 H   0  0  0  0  0  0  0  0  0  0  0  0
    6.1140    0.0485   -3.3788 H   0  0  0  0  0  0  0  0  0  0  0  0
    7.6985    1.8805   -2.3473 H   0  0  0  0  0  0  0  0  0  0  0  0
   -4.0688    1.4558    1.3041 H   0  0  0  0  0  0  0  0  0  0  0  0
   -7.9231    0.1096   -1.5172 H   0  0  0  0  0  0  0  0  0  0  0  0
   -6.0860    2.8471    1.2274 H   0  0  0  0  0  0  0  0  0  0  0  0
   -8.0188    2.1797   -0.1766 H   0  0  0  0  0  0  0  0  0  0  0  0
   -6.7259   -1.6390   -2.1003 H   0  0  0  0  0  0  0  0  0  0  0  0
  1 14  1  0  0  0  0
  1 19  1  0  0  0  0
  2 16  1  0  0  0  0
  2 20  1  0  0  0  0
  3 15  2  0  0  0  0
  4 20  2  0  0  0  0
  5 22  1  0  0  0  0
  5 45  1  0  0  0  0
  6  7  1  0  0  0  0
  6  8  1  0  0  0  0
  6 10  1  0  0  0  0
  7  9  2  0  0  0  0
  7 12  1  0  0  0  0
  8 11  2  0  0  0  0
  8 13  1  0  0  0  0
  9 11  1  0  0  0  0
  9 15  1  0  0  0  0
 10 14  1  0  0  0  0
 10 27  1  0  0  0  0
 10 28  1  0  0  0  0
 11 29  1  0  0  0  0
 12 30  1  0  0  0  0
 12 31  1  0  0  0  0
 12 32  1  0  0  0  0
 13 33  1  0  0  0  0
 13 34  1  0  0  0  0
 13 35  1  0  0  0  0
 14 17  2  0  0  0  0
 15 16  1  0  0  0  0
 16 36  1  0  0  0  0
 16 37  1  0  0  0  0
 17 18  1  0  0  0  0
 17 38  1  0  0  0  0
 18 19  2  0  0  0  0
 18 39  1  0  0  0  0
 19 40  1  0  0  0  0
 20 21  1  0  0  0  0
 21 22  1  0  0  0  0
 21 23  2  0  0  0  0
 22 24  2  0  0  0  0
 23 25  1  0  0  0  0
 23 41  1  0  0  0  0
 24 26  1  0  0  0  0
 24 42  1  0  0  0  0
 25 26  2  0  0  0  0
 25 43  1  0  0  0  0
 26 44  1  0  0  0  0
M  END
> <PUBCHEM_COMPOUND_CID>
2409986

> <PUBCHEM_CONFORMER_RMSD>
1.2

> <PUBCHEM_CONFORMER_DIVERSEORDER>
1
8
51
104
79
129
49
43
16
96
76
62
151
27
175
19
73
162
66
91
22
176
87
113
23
142
152
165
181
20
36
164
100
120
83
146
4
41
60
53
42
133
78
24
82
50
155
127
132
124
178
93
81
38
69
9
123
55
167
168
115
184
185
47
48
77
182
92
95
17
37
136
159
102
150
74
58
131
72
39
54
25
105
112
179
135
110
117
143
172
13
101
154
30
5
170
153
121
12
75
138
34
61
137
118
29
18
40
80
71
44
46
28
45
166
177
134
163
122
59
68
84
56
130
125
35
139
26
140
158
2
15
99
85
169
149
106
103
32
126
65
111
156
180
11
70
144
141
57
67
183
52
94
114
109
173
157
89
86
161
6
64
116
147
107
63
97
10
31
3
98
21
14
145
33
160
119
7
128
88
148
90
171
174
108

> <PUBCHEM_MMFF94_PARTIAL_CHARGES>
35
1 -0.08
10 0.44
11 -0.15
12 0.18
13 0.18
14 -0.14
15 0.6
16 0.34
17 -0.15
18 -0.15
19 -0.11
2 -0.43
20 0.63
21 0.09
22 0.08
23 -0.15
24 -0.15
25 -0.15
26 -0.15
29 0.15
3 -0.57
38 0.15
39 0.15
4 -0.57
40 0.15
41 0.15
42 0.15
43 0.15
44 0.15
45 0.45
5 -0.53
6 0.05
7 -0.33
8 -0.33
9 -0.09

> <PUBCHEM_EFFECTIVE_ROTOR_COUNT>
7

> <PUBCHEM_PHARMACOPHORE_FEATURES>
7
1 3 acceptor
1 4 acceptor
1 5 donor
1 6 cation
5 1 14 17 18 19 rings
5 6 7 8 9 11 rings
6 21 22 23 24 25 26 rings

> <PUBCHEM_HEAVY_ATOM_COUNT>
26

> <PUBCHEM_ATOM_DEF_STEREO_COUNT>
0

> <PUBCHEM_ATOM_UDEF_STEREO_COUNT>
0

> <PUBCHEM_BOND_DEF_STEREO_COUNT>
0

> <PUBCHEM_BOND_UDEF_STEREO_COUNT>
0

> <PUBCHEM_ISOTOPIC_ATOM_COUNT>
0

> <PUBCHEM_COMPONENT_COUNT>
1

> <PUBCHEM_CACTVS_TAUTO_COUNT>
8

> <PUBCHEM_CONFORMER_ID>
0024C60200000001

> <PUBCHEM_MMFF94_ENERGY>
54.1207

> <PUBCHEM_FEATURE_SELFOVERLAP>
35.522

> <PUBCHEM_SHAPE_FINGERPRINT>
10 15 13767931234166434540
10554248 39 18189881046507238735
10638233 991 18113622304444179781
106641 1 9295283916682023318
10693767 8 17988648446347056478
10906281 52 18187938260804938914
11646440 116 12468355747908397606
12166972 35 12751232618934862123
125118 31 16515681109162357645
13540713 5 18124884456603430026
13668630 136 16702300178784405895
13782708 43 13110966405093387760
13914758 101 13830140451563417691
14251757 52 16950279581663946693
14251764 18 18411697678431501835
14461889 52 12468360154170803200
14849402 71 8141784089859712158
14904525 67 17022895710518886181
15064981 113 16916780714210256205
15183329 4 18202283580870873513
15276724 80 18114178588750711365
15352257 5 15698282217690563501
15475509 35 13901912159962384182
1577012 14 18411979131833292249
18335252 114 17822012026160474716
18681886 176 17632288016630394016
19377110 9 8070028874313776629
1979834 28 11602810303667316752
20157964 124 16950279603555183058
20567600 75 16271932588229744569
21150785 3 18272370888494384949
21641784 216 18187654557194519132
21987483 16 10518828177810691357
220451 1 18272087180583216283
22061861 79 15985106301380007652
2215653 11 16988566801251386742
22224240 67 14707208816872464289
23081809 10 18336257973135400547
23522609 53 18267885907477110881
23559900 14 17988349460466316065
23576562 1 18196091268389923333
255183 451 18050568444514311350
29717793 49 17346880061247478184
3004659 81 17918270956940133617
328310 630 17603591854325700469
34797466 226 17203603834929487528
397830 11 15213598822065327337
4073 2 18113338617976101915
4325135 7 18113335293480880044
4340502 62 13262395570809402520
445580 37 18272939301942028193
465052 167 11887959848290363912
5364581 5 13552058662014180853
59682541 52 17203616973772483508
59755656 215 17346321470653980166
6328613 192 18407762529925246289

> <PUBCHEM_SHAPE_MULTIPOLES>
510.46
22.41
2.12
1.46
15.15
0.69
-0.71
-8.77
-9.39
-0.69
0.33
-1.85
-0.21
-2.13

> <PUBCHEM_SHAPE_SELFOVERLAP>
1093.371

> <PUBCHEM_SHAPE_VOLUME>
284.9

> <PUBCHEM_COORDINATE_TYPE>
2
5
10

$$$$
