11957301
  -OEChem-01171809273D

 40 44  0     1  0  0  0  0  0999 V2000
   -0.3007    2.7559    0.3833 O   0  0  0  0  0  0  0  0  0  0  0  0
   -2.6349    3.2862    0.2206 O   0  0  0  0  0  0  0  0  0  0  0  0
    4.2511    1.2423   -0.2745 O   0  0  0  0  0  0  0  0  0  0  0  0
    4.8131   -1.3802    0.4411 O   0  0  0  0  0  0  0  0  0  0  0  0
   -2.2319   -3.0744    0.0398 N   0  0  0  0  0  0  0  0  0  0  0  0
   -1.1530   -2.1206   -0.2578 C   0  0  1  0  0  0  0  0  0  0  0  0
   -1.5825   -0.6668   -0.1246 C   0  0  0  0  0  0  0  0  0  0  0  0
    0.0306   -2.4082    0.6793 C   0  0  0  0  0  0  0  0  0  0  0  0
   -0.5837    0.3312    0.0410 C   0  0  0  0  0  0  0  0  0  0  0  0
   -2.9599   -0.3363   -0.2184 C   0  0  0  0  0  0  0  0  0  0  0  0
   -3.9997   -1.4210   -0.3501 C   0  0  0  0  0  0  0  0  0  0  0  0
    1.1511   -1.4219    0.4364 C   0  0  0  0  0  0  0  0  0  0  0  0
   -3.4119   -2.7683   -0.7665 C   0  0  0  0  0  0  0  0  0  0  0  0
    0.8403   -0.0777    0.1184 C   0  0  0  0  0  0  0  0  0  0  0  0
   -1.0508    1.6383    0.1538 C   0  0  0  0  0  0  0  0  0  0  0  0
   -3.3665    0.9962   -0.1126 C   0  0  0  0  0  0  0  0  0  0  0  0
   -2.3934    1.9534    0.0750 C   0  0  0  0  0  0  0  0  0  0  0  0
    2.4834   -1.8445    0.5584 C   0  0  0  0  0  0  0  0  0  0  0  0
    1.9154    0.7921   -0.1326 C   0  0  0  0  0  0  0  0  0  0  0  0
    3.2414    0.3607   -0.0259 C   0  0  0  0  0  0  0  0  0  0  0  0
    3.5254   -0.9531    0.3277 C   0  0  0  0  0  0  0  0  0  0  0  0
   -1.3015    3.7885    0.4068 C   0  0  0  0  0  0  0  0  0  0  0  0
    4.7186    1.3284   -1.6187 C   0  0  0  0  0  0  0  0  0  0  0  0
   -0.8273   -2.2740   -1.2967 H   0  0  0  0  0  0  0  0  0  0  0  0
    0.3876   -3.4322    0.5101 H   0  0  0  0  0  0  0  0  0  0  0  0
   -0.2665   -2.3311    1.7340 H   0  0  0  0  0  0  0  0  0  0  0  0
   -4.5025   -1.5271    0.6198 H   0  0  0  0  0  0  0  0  0  0  0  0
   -4.7554   -1.1224   -1.0865 H   0  0  0  0  0  0  0  0  0  0  0  0
   -2.4717   -3.0278    1.0302 H   0  0  0  0  0  0  0  0  0  0  0  0
   -4.1624   -3.5542   -0.6285 H   0  0  0  0  0  0  0  0  0  0  0  0
   -3.1517   -2.7672   -1.8325 H   0  0  0  0  0  0  0  0  0  0  0  0
   -4.4154    1.2696   -0.1588 H   0  0  0  0  0  0  0  0  0  0  0  0
    2.7061   -2.8748    0.8258 H   0  0  0  0  0  0  0  0  0  0  0  0
    1.7449    1.8220   -0.4334 H   0  0  0  0  0  0  0  0  0  0  0  0
   -1.0817    4.5098   -0.3886 H   0  0  0  0  0  0  0  0  0  0  0  0
   -1.2510    4.3047    1.3721 H   0  0  0  0  0  0  0  0  0  0  0  0
    5.4047   -0.6248    0.2820 H   0  0  0  0  0  0  0  0  0  0  0  0
    5.0844    0.3571   -1.9665 H   0  0  0  0  0  0  0  0  0  0  0  0
    5.5449    2.0439   -1.6489 H   0  0  0  0  0  0  0  0  0  0  0  0
    3.9215    1.6867   -2.2779 H   0  0  0  0  0  0  0  0  0  0  0  0
  1 15  1  0  0  0  0
  1 22  1  0  0  0  0
  2 17  1  0  0  0  0
  2 22  1  0  0  0  0
  3 20  1  0  0  0  0
  3 23  1  0  0  0  0
  4 21  1  0  0  0  0
  4 37  1  0  0  0  0
  5  6  1  0  0  0  0
  5 13  1  0  0  0  0
  5 29  1  0  0  0  0
  6  7  1  0  0  0  0
  6  8  1  0  0  0  0
  6 24  1  0  0  0  0
  7  9  2  0  0  0  0
  7 10  1  0  0  0  0
  8 12  1  0  0  0  0
  8 25  1  0  0  0  0
  8 26  1  0  0  0  0
  9 14  1  0  0  0  0
  9 15  1  0  0  0  0
 10 11  1  0  0  0  0
 10 16  2  0  0  0  0
 11 13  1  0  0  0  0
 11 27  1  0  0  0  0
 11 28  1  0  0  0  0
 12 14  1  0  0  0  0
 12 18  2  0  0  0  0
 13 30  1  0  0  0  0
 13 31  1  0  0  0  0
 14 19  2  0  0  0  0
 15 17  2  0  0  0  0
 16 17  1  0  0  0  0
 16 32  1  0  0  0  0
 18 21  1  0  0  0  0
 18 33  1  0  0  0  0
 19 20  1  0  0  0  0
 19 34  1  0  0  0  0
 20 21  2  0  0  0  0
 22 35  1  0  0  0  0
 22 36  1  0  0  0  0
 23 38  1  0  0  0  0
 23 39  1  0  0  0  0
 23 40  1  0  0  0  0
M  END
> <PUBCHEM_COMPOUND_CID>
11957301

> <PUBCHEM_CONFORMER_RMSD>
0.6

> <PUBCHEM_CONFORMER_DIVERSEORDER>
1

> <PUBCHEM_MMFF94_PARTIAL_CHARGES>
26
1 -0.36
10 -0.14
11 0.14
12 -0.14
13 0.27
15 0.08
16 -0.15
17 0.08
18 -0.15
19 -0.15
2 -0.36
20 0.08
21 0.08
22 0.56
23 0.28
29 0.36
3 -0.36
32 0.15
33 0.15
34 0.15
37 0.45
4 -0.53
5 -0.9
6 0.41
7 -0.14
8 0.14

> <PUBCHEM_EFFECTIVE_ROTOR_COUNT>
2.4

> <PUBCHEM_PHARMACOPHORE_FEATURES>
11
1 1 acceptor
1 2 acceptor
1 3 acceptor
1 4 donor
1 5 cation
1 5 donor
5 1 2 15 17 22 rings
6 12 14 18 19 20 21 rings
6 5 6 7 10 11 13 rings
6 6 7 8 9 12 14 rings
6 7 9 10 15 16 17 rings

> <PUBCHEM_HEAVY_ATOM_COUNT>
23

> <PUBCHEM_ATOM_DEF_STEREO_COUNT>
1

> <PUBCHEM_ATOM_UDEF_STEREO_COUNT>
0

> <PUBCHEM_BOND_DEF_STEREO_COUNT>
0

> <PUBCHEM_BOND_UDEF_STEREO_COUNT>
0

> <PUBCHEM_ISOTOPIC_ATOM_COUNT>
0

> <PUBCHEM_COMPONENT_COUNT>
1

> <PUBCHEM_CACTVS_TAUTO_COUNT>
9

> <PUBCHEM_CONFORMER_ID>
00B6743500000001

> <PUBCHEM_MMFF94_ENERGY>
72.4722

> <PUBCHEM_FEATURE_SELFOVERLAP>
56.067

> <PUBCHEM_SHAPE_FINGERPRINT>
10319926 262 18054478393756261482
10369192 42 16339454899357514432
10411042 1 18267578198998528371
10498660 4 18410572915942101364
10616163 171 18412261696967279166
10670039 82 18335150821330550060
10871710 139 18336557083047433389
10906281 52 18342466898723938493
10967382 1 17834389408199066019
1100329 8 18411984702242760601
11578080 2 17390184352419646620
11680986 33 17617938475571683211
12107183 9 17831572081816008058
12173636 292 18268421348117041189
12553582 1 18267861860239602107
12788726 201 18410296934123008842
12954195 1 18269574809519761668
13027679 85 18338514270053826301
13140716 1 18410292544846001475
138480 1 16034361867152161705
14081887 123 18270101505074229144
14178342 30 18192972856446532458
14787075 74 17969507185203715179
14790565 3 18197222451819215689
15042514 8 18411139117534094259
15196674 1 18409164424224775570
15442244 35 18192425278065018586
16087824 20 18339920417262951005
16752209 62 18340475669394949827
16945 1 18195523688794007123
17492 89 18337389349015438258
18785283 64 17043184766705435521
19591789 44 18339078297785712531
20510252 161 18342738494416031929
20642791 35 18197217172765727921
20775438 99 16688454205219391719
21029758 11 18267015253460724591
21049683 271 17755587393010270023
21267235 1 18409171012662851434
2334 1 18410285947871192995
23352939 185 18128261284097696755
23402539 116 18342728633203035127
23557571 272 18202013148112669260
23558518 356 18191870028539728475
23559900 14 18342450440208839096
238 59 16527753519407929917
25147074 1 18113899347842269938
2748010 2 16821645847898306475
3091708 16 9276834170953614097
335352 9 17906449922693799950
350125 39 18265615368615065712
352729 6 18124870158235424667
474 4 17458633362791440820
5104073 3 18410007737022031994
532947 4 17476356574707167673
6034566 193 15868326248656465748
7097593 13 17901372403919755570
7164475 11 18411416215891683510
7364860 26 17619624022596724147
9709674 26 18271246019548953302
9981440 41 18044094786199905800

> <PUBCHEM_SHAPE_MULTIPOLES>
444.87
7.8
4.02
0.83
7.12
1.96
-0.19
-0.96
-1.86
-3.32
0.41
0.52
0.01
-1.45

> <PUBCHEM_SHAPE_SELFOVERLAP>
1008.575

> <PUBCHEM_SHAPE_VOLUME>
231.9

> <PUBCHEM_COORDINATE_TYPE>
2
5
10

$$$$
