972733
  -OEChem-01171809183D

 37 39  0     0  0  0  0  0  0999 V2000
    1.7190    1.5932   -0.4186 S   0  0  0  0  0  0  0  0  0  0  0  0
   -3.4392    0.5660    0.8868 S   0  0  0  0  0  0  0  0  0  0  0  0
   -0.9874    2.3257   -0.6190 O   0  0  0  0  0  0  0  0  0  0  0  0
   -0.3888    0.0430   -0.5848 N   0  0  0  0  0  0  0  0  0  0  0  0
    1.1904   -3.4547   -0.4524 N   0  0  0  0  0  0  0  0  0  0  0  0
   -5.9740   -0.1443    1.4582 N   0  0  0  0  0  0  0  0  0  0  0  0
   -5.5754   -0.0968   -0.6898 N   0  0  0  0  0  0  0  0  0  0  0  0
   -7.1504   -0.4989    0.9195 N   0  0  0  0  0  0  0  0  0  0  0  0
    6.1236    0.1907    0.9928 C   0  0  0  0  0  0  0  0  0  0  0  0
    5.2925   -1.0943    1.0562 C   0  0  0  0  0  0  0  0  0  0  0  0
    5.3183    1.4920    1.0570 C   0  0  0  0  0  0  0  0  0  0  0  0
    4.4518   -1.3602   -0.1933 C   0  0  0  0  0  0  0  0  0  0  0  0
    4.4904    1.7817   -0.1960 C   0  0  0  0  0  0  0  0  0  0  0  0
    3.2435   -0.4802   -0.2914 C   0  0  0  0  0  0  0  0  0  0  0  0
    3.2805    0.9034   -0.2910 C   0  0  0  0  0  0  0  0  0  0  0  0
    1.8980   -0.9607   -0.3994 C   0  0  0  0  0  0  0  0  0  0  0  0
    0.9760    0.0578   -0.4747 C   0  0  0  0  0  0  0  0  0  0  0  0
    1.5072   -2.3384   -0.4287 C   0  0  0  0  0  0  0  0  0  0  0  0
   -1.2901    1.1359   -0.6585 C   0  0  0  0  0  0  0  0  0  0  0  0
   -2.7397    0.7156   -0.7750 C   0  0  0  0  0  0  0  0  0  0  0  0
   -5.0898    0.0791    0.4838 C   0  0  0  0  0  0  0  0  0  0  0  0
   -6.8565   -0.4554   -0.3816 C   0  0  0  0  0  0  0  0  0  0  0  0
    6.8121    0.1834    1.8474 H   0  0  0  0  0  0  0  0  0  0  0  0
    6.7510    0.1847    0.0931 H   0  0  0  0  0  0  0  0  0  0  0  0
    4.6593   -1.0859    1.9521 H   0  0  0  0  0  0  0  0  0  0  0  0
    5.9916   -1.9320    1.1746 H   0  0  0  0  0  0  0  0  0  0  0  0
    6.0335    2.3150    1.1824 H   0  0  0  0  0  0  0  0  0  0  0  0
    4.6811    1.4929    1.9501 H   0  0  0  0  0  0  0  0  0  0  0  0
    4.1540   -2.4148   -0.1778 H   0  0  0  0  0  0  0  0  0  0  0  0
    5.0647   -1.2326   -1.0946 H   0  0  0  0  0  0  0  0  0  0  0  0
    5.1050    1.6535   -1.0956 H   0  0  0  0  0  0  0  0  0  0  0  0
    4.1925    2.8375   -0.1729 H   0  0  0  0  0  0  0  0  0  0  0  0
   -0.8020   -0.8862   -0.6150 H   0  0  0  0  0  0  0  0  0  0  0  0
   -3.2773    1.4749   -1.3523 H   0  0  0  0  0  0  0  0  0  0  0  0
   -2.8126   -0.2377   -1.3084 H   0  0  0  0  0  0  0  0  0  0  0  0
   -5.8809   -0.0860    2.4658 H   0  0  0  0  0  0  0  0  0  0  0  0
   -7.5992   -0.6920   -1.1289 H   0  0  0  0  0  0  0  0  0  0  0  0
  1 15  1  0  0  0  0
  1 17  1  0  0  0  0
  2 20  1  0  0  0  0
  2 21  1  0  0  0  0
  3 19  2  0  0  0  0
  4 17  1  0  0  0  0
  4 19  1  0  0  0  0
  4 33  1  0  0  0  0
  5 18  3  0  0  0  0
  6  8  1  0  0  0  0
  6 21  1  0  0  0  0
  6 36  1  0  0  0  0
  7 21  2  0  0  0  0
  7 22  1  0  0  0  0
  8 22  2  0  0  0  0
  9 10  1  0  0  0  0
  9 11  1  0  0  0  0
  9 23  1  0  0  0  0
  9 24  1  0  0  0  0
 10 12  1  0  0  0  0
 10 25  1  0  0  0  0
 10 26  1  0  0  0  0
 11 13  1  0  0  0  0
 11 27  1  0  0  0  0
 11 28  1  0  0  0  0
 12 14  1  0  0  0  0
 12 29  1  0  0  0  0
 12 30  1  0  0  0  0
 13 15  1  0  0  0  0
 13 31  1  0  0  0  0
 13 32  1  0  0  0  0
 14 15  2  0  0  0  0
 14 16  1  0  0  0  0
 16 17  2  0  0  0  0
 16 18  1  0  0  0  0
 19 20  1  0  0  0  0
 20 34  1  0  0  0  0
 20 35  1  0  0  0  0
 22 37  1  0  0  0  0
M  END
> <PUBCHEM_COMPOUND_CID>
972733

> <PUBCHEM_CONFORMER_RMSD>
0.8

> <PUBCHEM_CONFORMER_DIVERSEORDER>
1
17
65
176
179
77
132
136
56
108
26
180
23
123
166
119
109
44
82
101
28
142
100
122
38
131
165
69
98
148
137
97
169
94
76
138
168
133
67
84
42
149
184
183
20
178
11
27
24
181
91
121
107
172
112
125
30
151
8
7
66
140
89
156
73
173
163
4
40
116
36
3
63
47
135
134
86
103
126
90
130
60
85
50
128
111
55
52
159
127
39
143
49
175
34
96
99
171
59
120
150
13
22
80
152
83
78
102
61
113
174
15
124
106
118
14
35
147
146
92
53
145
110
74
64
72
79
144
31
2
21
162
81
177
58
158
45
29
48
182
10
62
12
25
37
93
153
68
19
141
161
185
87
154
160
157
16
170
32
18
117
41
129
51
75
139
70
33
54
71
155
115
105
95
5
88
43
104
167
114
46
6
9
164
57

> <PUBCHEM_MMFF94_PARTIAL_CHARGES>
22
1 -0.08
12 0.18
13 0.18
14 -0.18
15 -0.14
16 0.02
17 0.1
18 0.54
19 0.57
2 -0.29
20 0.29
21 0.24
22 0.37
3 -0.57
33 0.37
36 0.27
37 0.15
4 -0.49
5 -0.56
6 0.3
7 -0.57
8 -0.71

> <PUBCHEM_EFFECTIVE_ROTOR_COUNT>
6

> <PUBCHEM_PHARMACOPHORE_FEATURES>
9
1 3 acceptor
1 4 donor
1 5 acceptor
1 6 donor
3 6 7 21 cation
3 7 8 22 cation
5 1 14 15 16 17 rings
5 6 7 8 21 22 rings
7 9 10 11 12 13 14 15 rings

> <PUBCHEM_HEAVY_ATOM_COUNT>
22

> <PUBCHEM_ATOM_DEF_STEREO_COUNT>
0

> <PUBCHEM_ATOM_UDEF_STEREO_COUNT>
0

> <PUBCHEM_BOND_DEF_STEREO_COUNT>
0

> <PUBCHEM_BOND_UDEF_STEREO_COUNT>
0

> <PUBCHEM_ISOTOPIC_ATOM_COUNT>
0

> <PUBCHEM_COMPONENT_COUNT>
1

> <PUBCHEM_CACTVS_TAUTO_COUNT>
9

> <PUBCHEM_CONFORMER_ID>
000ED7BD00000001

> <PUBCHEM_MMFF94_ENERGY>
30.7532

> <PUBCHEM_FEATURE_SELFOVERLAP>
48.543

> <PUBCHEM_SHAPE_FINGERPRINT>
10 15 18260541264967736624
106641 1 18113893884691576424
10693767 8 11314296265994852624
11421498 54 17560805368474194738
11719270 70 18409164407050317591
11724838 91 18341888628226559284
11796584 16 15357704101593706920
12236239 1 17775288261978403765
12516196 113 18342178882232746857
12596602 18 17346604049838316475
12916748 109 15698005123733318984
13402501 40 18187368740047407251
13533116 47 18273216374571673898
14251752 14 14201390582757154935
14341114 328 17704077295909255697
146900 427 18131630101456487185
14848160 23 17675924300711771225
14849402 71 17845648286919595576
14933364 13 10952052264961413129
15183329 4 11386362643234852585
15188451 53 16877936127471770448
15475509 35 16878488065630134120
16988056 13 9799395707623097266
17834072 8 9007060170999973781
18222031 100 16225770700987096812
18335252 114 8646496176890953467
190975 80 18335140946883984683
19377110 9 18059855043505354185
19489759 90 16298383548808592469
20028762 73 18343301453049851326
20511986 3 18059850650339294589
20735858 18 18410852170483932536
21150785 3 14129062508727016246
21197605 99 18338520836632404883
21267235 1 18410293572039179388
21304304 249 17967250880190830594
21315763 178 18131632271221950079
21521721 280 18271806864925863864
21623969 137 18408323285218795415
22079108 93 18059851783699022752
2215653 11 8286200560894564088
22224240 67 18271520983217527848
22956985 138 17607516930934447138
23198884 109 12540698124543485369
23559900 14 15575007224990396749
29717793 49 13045941287711467192
3004659 81 13839986620485670713
33824 294 18408889516274211599
42630746 31 18343021086506271590
4340502 62 18343863329434806942
465052 167 17894629241040368570
5104073 3 18266456512174561073
5283173 99 17604422991133908237
5758199 1 18130507521775759016
59682541 35 18336259128914178704
59682541 52 8214152832386043969

> <PUBCHEM_SHAPE_MULTIPOLES>
429.67
17.46
2.25
1.07
24.51
1.27
0.26
0.63
6.55
-2.56
-0.44
0.3
-0.07
0.36

> <PUBCHEM_SHAPE_SELFOVERLAP>
887.149

> <PUBCHEM_SHAPE_VOLUME>
246

> <PUBCHEM_COORDINATE_TYPE>
2
5
10

$$$$
