44142177
  -OEChem-01171810113D

 41 42  0     1  0  0  0  0  0999 V2000
    2.1773    2.3433    1.7996 Br  0  0  0  0  0  0  0  0  0  0  0  0
   -1.7514    1.7540    0.4930 S   0  0  0  0  0  0  0  0  0  0  0  0
   -1.9905   -0.0372   -2.4237 O   0  0  0  0  0  0  0  0  0  0  0  0
   -2.0630    1.6307    1.9053 O   0  0  0  0  0  0  0  0  0  0  0  0
   -1.5405    3.0530   -0.1150 O   0  0  0  0  0  0  0  0  0  0  0  0
   -0.4018    0.6986    0.1398 N   0  0  1  0  0  0  0  0  0  0  0  0
   -0.9502   -0.6435   -0.3292 C   0  0  2  0  0  0  0  0  0  0  0  0
   -2.2858   -0.3538   -1.0648 C   0  0  1  0  0  0  0  0  0  0  0  0
   -1.1324   -1.5420    0.8909 C   0  0  0  0  0  0  0  0  0  0  0  0
   -2.9146    0.8388   -0.4115 C   0  0  0  0  0  0  0  0  0  0  0  0
   -1.3292   -3.0241    0.5349 C   0  0  0  0  0  0  0  0  0  0  0  0
    0.6388    1.2333   -0.7764 C   0  0  0  0  0  0  0  0  0  0  0  0
   -0.1408   -3.6031   -0.2341 C   0  0  0  0  0  0  0  0  0  0  0  0
   -1.5634   -3.8348    1.8118 C   0  0  0  0  0  0  0  0  0  0  0  0
    1.9915    0.6332   -0.5137 C   0  0  0  0  0  0  0  0  0  0  0  0
   -4.2016    1.1881   -0.3776 C   0  0  0  0  0  0  0  0  0  0  0  0
    2.7721    1.0235    0.5743 C   0  0  0  0  0  0  0  0  0  0  0  0
    2.4609   -0.3405   -1.3952 C   0  0  0  0  0  0  0  0  0  0  0  0
    4.0221    0.4400    0.7810 C   0  0  0  0  0  0  0  0  0  0  0  0
    3.7110   -0.9240   -1.1887 C   0  0  0  0  0  0  0  0  0  0  0  0
    4.4916   -0.5337   -0.1007 C   0  0  0  0  0  0  0  0  0  0  0  0
   -0.2375   -1.0870   -1.0272 H   0  0  0  0  0  0  0  0  0  0  0  0
   -2.9592   -1.2159   -1.0641 H   0  0  0  0  0  0  0  0  0  0  0  0
   -0.2481   -1.4518    1.5370 H   0  0  0  0  0  0  0  0  0  0  0  0
   -1.9803   -1.1976    1.4963 H   0  0  0  0  0  0  0  0  0  0  0  0
   -2.2238   -3.1337   -0.0892 H   0  0  0  0  0  0  0  0  0  0  0  0
    0.7257    2.3208   -0.6822 H   0  0  0  0  0  0  0  0  0  0  0  0
    0.3409    1.0718   -1.8197 H   0  0  0  0  0  0  0  0  0  0  0  0
    0.8043   -3.4008    0.2812 H   0  0  0  0  0  0  0  0  0  0  0  0
   -0.0758   -3.1956   -1.2469 H   0  0  0  0  0  0  0  0  0  0  0  0
   -0.2394   -4.6892   -0.3393 H   0  0  0  0  0  0  0  0  0  0  0  0
   -0.6958   -3.7862    2.4787 H   0  0  0  0  0  0  0  0  0  0  0  0
   -1.7509   -4.8879    1.5763 H   0  0  0  0  0  0  0  0  0  0  0  0
   -2.4339   -3.4572    2.3587 H   0  0  0  0  0  0  0  0  0  0  0  0
   -1.5939   -0.8276   -2.8281 H   0  0  0  0  0  0  0  0  0  0  0  0
   -4.5439    2.0615    0.1670 H   0  0  0  0  0  0  0  0  0  0  0  0
   -4.9468    0.6004   -0.9030 H   0  0  0  0  0  0  0  0  0  0  0  0
    1.8685   -0.6559   -2.2500 H   0  0  0  0  0  0  0  0  0  0  0  0
    4.6446    0.7311    1.6232 H   0  0  0  0  0  0  0  0  0  0  0  0
    4.0766   -1.6820   -1.8752 H   0  0  0  0  0  0  0  0  0  0  0  0
    5.4649   -0.9881    0.0600 H   0  0  0  0  0  0  0  0  0  0  0  0
  1 17  1  0  0  0  0
  2  4  2  0  0  0  0
  2  5  2  0  0  0  0
  2  6  1  0  0  0  0
  2 10  1  0  0  0  0
  3  8  1  0  0  0  0
  3 35  1  0  0  0  0
  6  7  1  0  0  0  0
  6 12  1  0  0  0  0
  7  8  1  0  0  0  0
  7  9  1  0  0  0  0
  7 22  1  0  0  0  0
  8 10  1  0  0  0  0
  8 23  1  0  0  0  0
  9 11  1  0  0  0  0
  9 24  1  0  0  0  0
  9 25  1  0  0  0  0
 10 16  2  0  0  0  0
 11 13  1  0  0  0  0
 11 14  1  0  0  0  0
 11 26  1  0  0  0  0
 12 15  1  0  0  0  0
 12 27  1  0  0  0  0
 12 28  1  0  0  0  0
 13 29  1  0  0  0  0
 13 30  1  0  0  0  0
 13 31  1  0  0  0  0
 14 32  1  0  0  0  0
 14 33  1  0  0  0  0
 14 34  1  0  0  0  0
 15 17  1  0  0  0  0
 15 18  2  0  0  0  0
 16 36  1  0  0  0  0
 16 37  1  0  0  0  0
 17 19  2  0  0  0  0
 18 20  1  0  0  0  0
 18 38  1  0  0  0  0
 19 21  1  0  0  0  0
 19 39  1  0  0  0  0
 20 21  2  0  0  0  0
 20 40  1  0  0  0  0
 21 41  1  0  0  0  0
M  END
> <PUBCHEM_COMPOUND_CID>
44142177

> <PUBCHEM_CONFORMER_RMSD>
0.8

> <PUBCHEM_CONFORMER_DIVERSEORDER>
1
4
19
20
22
24
12
21
6
9
25
27
26
23
2
3
13
15
18
14
16
10
5
7
8
17
11

> <PUBCHEM_MMFF94_PARTIAL_CHARGES>
24
1 -0.11
10 -0.16
12 0.5
15 -0.14
16 -0.3
17 0.11
18 -0.15
19 -0.15
2 1.45
20 -0.15
21 -0.15
3 -0.68
35 0.4
36 0.15
37 0.15
38 0.15
39 0.15
4 -0.65
40 0.15
41 0.15
5 -0.65
6 -0.85
7 0.36
8 0.42

> <PUBCHEM_EFFECTIVE_ROTOR_COUNT>
4.6

> <PUBCHEM_PHARMACOPHORE_FEATURES>
8
1 1 hydrophobe
1 3 acceptor
1 3 donor
1 4 acceptor
1 5 acceptor
3 11 13 14 hydrophobe
5 2 6 7 8 10 rings
6 15 17 18 19 20 21 rings

> <PUBCHEM_HEAVY_ATOM_COUNT>
21

> <PUBCHEM_ATOM_DEF_STEREO_COUNT>
2

> <PUBCHEM_ATOM_UDEF_STEREO_COUNT>
0

> <PUBCHEM_BOND_DEF_STEREO_COUNT>
0

> <PUBCHEM_BOND_UDEF_STEREO_COUNT>
0

> <PUBCHEM_ISOTOPIC_ATOM_COUNT>
0

> <PUBCHEM_COMPONENT_COUNT>
1

> <PUBCHEM_CACTVS_TAUTO_COUNT>
1

> <PUBCHEM_CONFORMER_ID>
02A18E6100000001

> <PUBCHEM_MMFF94_ENERGY>
51.3265

> <PUBCHEM_FEATURE_SELFOVERLAP>
40.613

> <PUBCHEM_SHAPE_FINGERPRINT>
10366900 7 18131064991635883492
11322862 65 18334015029428371383
12553582 1 17400087864167679974
12592029 89 17676767561573838907
12788726 201 17826246364727991834
13083527 12 16896216912442329530
13140716 1 18266184013842619834
133893 2 17318720271443250067
14115302 16 18261117382831672252
14178342 30 18115575097545853266
14223421 5 18126285487514630240
15295992 7 18201727279168020177
15309172 13 18114471050068745389
16752209 62 18114176505675676587
16945 1 18263663804295538372
18186145 218 18337375089681122685
20600515 1 18190438623657097368
20832881 197 18057043506278774200
20905425 154 17621886387571145580
21524375 3 18128544764766332757
23184049 29 18119251920073949522
23402539 116 18342725317461863533
23419403 2 16675799981032792925
23526113 38 17988087677798579838
23557571 272 18194116550180770960
23558518 356 18202286909170432513
23559900 14 18342731962288226320
2748010 2 18125443257059403534
3380486 145 17476630357434627771
4340502 62 18335427812360974239
43471831 8 18118685409544939699
465052 167 17023488398925616521
69090 78 17703783678833503653
74978 22 18260553363447309316
81228 2 17972316484614988491
8809292 202 18342455954535481300
9709674 26 18272083954851533486
9981440 41 17126169732074559832

> <PUBCHEM_SHAPE_MULTIPOLES>
419.37
6.67
3.84
1.71
4.65
3.34
-0.11
-1.15
0.58
-2.73
-2
-0.16
0.09
1.6

> <PUBCHEM_SHAPE_SELFOVERLAP>
837.986

> <PUBCHEM_SHAPE_VOLUME>
252.5

> <PUBCHEM_COORDINATE_TYPE>
2
5
10

$$$$
