831190
  -OEChem-01171809583D

 40 42  0     0  0  0  0  0  0999 V2000
   -3.8859    2.8886    0.0807 O   0  0  0  0  0  0  0  0  0  0  0  0
    5.9781    0.3936    0.6468 O   0  0  0  0  0  0  0  0  0  0  0  0
    0.5475    0.4299   -0.5504 N   0  0  0  0  0  0  0  0  0  0  0  0
   -2.4469   -2.4492    0.0493 N   0  0  0  0  0  0  0  0  0  0  0  0
   -1.8131   -0.1322   -0.1434 C   0  0  0  0  0  0  0  0  0  0  0  0
   -0.4819   -0.5198   -0.3481 C   0  0  0  0  0  0  0  0  0  0  0  0
   -2.7764   -1.1437    0.0538 C   0  0  0  0  0  0  0  0  0  0  0  0
   -0.1395   -1.8642   -0.3531 C   0  0  0  0  0  0  0  0  0  0  0  0
   -2.1924    1.2207   -0.1327 C   0  0  0  0  0  0  0  0  0  0  0  0
   -1.1511   -2.7811   -0.1514 C   0  0  0  0  0  0  0  0  0  0  0  0
    1.9197    0.4212   -0.2480 C   0  0  0  0  0  0  0  0  0  0  0  0
   -4.0986   -0.7582    0.2568 C   0  0  0  0  0  0  0  0  0  0  0  0
   -3.5219    1.5780    0.0725 C   0  0  0  0  0  0  0  0  0  0  0  0
   -4.4760    0.5869    0.2674 C   0  0  0  0  0  0  0  0  0  0  0  0
   -0.8295   -4.2384   -0.1496 C   0  0  0  0  0  0  0  0  0  0  0  0
    2.8200    1.1311   -1.0467 C   0  0  0  0  0  0  0  0  0  0  0  0
    2.3917   -0.2986    0.8530 C   0  0  0  0  0  0  0  0  0  0  0  0
    4.1823    1.1215   -0.7469 C   0  0  0  0  0  0  0  0  0  0  0  0
    3.7539   -0.3083    1.1530 C   0  0  0  0  0  0  0  0  0  0  0  0
    4.6493    0.4018    0.3531 C   0  0  0  0  0  0  0  0  0  0  0  0
   -5.2668    3.1785    0.2954 C   0  0  0  0  0  0  0  0  0  0  0  0
    6.8376    1.1421   -0.2116 C   0  0  0  0  0  0  0  0  0  0  0  0
    0.8745   -2.2056   -0.5330 H   0  0  0  0  0  0  0  0  0  0  0  0
    0.2633    1.2268   -1.1118 H   0  0  0  0  0  0  0  0  0  0  0  0
   -1.4696    2.0203   -0.2733 H   0  0  0  0  0  0  0  0  0  0  0  0
   -4.8643   -1.5164    0.4118 H   0  0  0  0  0  0  0  0  0  0  0  0
   -5.5293    0.7859    0.4332 H   0  0  0  0  0  0  0  0  0  0  0  0
   -1.7277   -4.8395    0.0264 H   0  0  0  0  0  0  0  0  0  0  0  0
   -0.4079   -4.5365   -1.1149 H   0  0  0  0  0  0  0  0  0  0  0  0
   -0.1094   -4.4684    0.6421 H   0  0  0  0  0  0  0  0  0  0  0  0
    2.4688    1.6950   -1.9075 H   0  0  0  0  0  0  0  0  0  0  0  0
    1.7163   -0.8412    1.5089 H   0  0  0  0  0  0  0  0  0  0  0  0
    4.8220    1.6941   -1.4097 H   0  0  0  0  0  0  0  0  0  0  0  0
    4.1113   -0.8662    2.0144 H   0  0  0  0  0  0  0  0  0  0  0  0
   -5.3762    4.2676    0.2703 H   0  0  0  0  0  0  0  0  0  0  0  0
   -5.5982    2.8461    1.2850 H   0  0  0  0  0  0  0  0  0  0  0  0
   -5.8920    2.7754   -0.5086 H   0  0  0  0  0  0  0  0  0  0  0  0
    6.6060    2.2121   -0.1793 H   0  0  0  0  0  0  0  0  0  0  0  0
    6.8303    0.7463   -1.2328 H   0  0  0  0  0  0  0  0  0  0  0  0
    7.8573    1.0242    0.1695 H   0  0  0  0  0  0  0  0  0  0  0  0
  1 13  1  0  0  0  0
  1 21  1  0  0  0  0
  2 20  1  0  0  0  0
  2 22  1  0  0  0  0
  3  6  1  0  0  0  0
  3 11  1  0  0  0  0
  3 24  1  0  0  0  0
  4  7  2  0  0  0  0
  4 10  1  0  0  0  0
  5  6  2  0  0  0  0
  5  7  1  0  0  0  0
  5  9  1  0  0  0  0
  6  8  1  0  0  0  0
  7 12  1  0  0  0  0
  8 10  2  0  0  0  0
  8 23  1  0  0  0  0
  9 13  2  0  0  0  0
  9 25  1  0  0  0  0
 10 15  1  0  0  0  0
 11 16  2  0  0  0  0
 11 17  1  0  0  0  0
 12 14  2  0  0  0  0
 12 26  1  0  0  0  0
 13 14  1  0  0  0  0
 14 27  1  0  0  0  0
 15 28  1  0  0  0  0
 15 29  1  0  0  0  0
 15 30  1  0  0  0  0
 16 18  1  0  0  0  0
 16 31  1  0  0  0  0
 17 19  2  0  0  0  0
 17 32  1  0  0  0  0
 18 20  2  0  0  0  0
 18 33  1  0  0  0  0
 19 20  1  0  0  0  0
 19 34  1  0  0  0  0
 21 35  1  0  0  0  0
 21 36  1  0  0  0  0
 21 37  1  0  0  0  0
 22 38  1  0  0  0  0
 22 39  1  0  0  0  0
 22 40  1  0  0  0  0
M  END
> <PUBCHEM_COMPOUND_CID>
831190

> <PUBCHEM_CONFORMER_RMSD>
0.6

> <PUBCHEM_CONFORMER_DIVERSEORDER>
1
12
15
16
11
2
6
10
4
14
9
3
13
7
8
5

> <PUBCHEM_MMFF94_PARTIAL_CHARGES>
30
1 -0.36
10 0.17
11 0.1
12 -0.15
13 0.08
14 -0.15
15 0.14
16 -0.15
17 -0.15
18 -0.15
19 -0.15
2 -0.36
20 0.08
21 0.28
22 0.28
23 0.15
24 0.4
25 0.15
26 0.15
27 0.15
3 -0.6
31 0.15
32 0.15
33 0.15
34 0.15
4 -0.62
6 0.1
7 0.31
8 -0.15
9 -0.15

> <PUBCHEM_EFFECTIVE_ROTOR_COUNT>
4

> <PUBCHEM_PHARMACOPHORE_FEATURES>
8
1 1 acceptor
1 2 acceptor
1 3 cation
1 3 donor
1 4 acceptor
6 11 16 17 18 19 20 rings
6 4 5 6 7 8 10 rings
6 5 7 9 12 13 14 rings

> <PUBCHEM_HEAVY_ATOM_COUNT>
22

> <PUBCHEM_ATOM_DEF_STEREO_COUNT>
0

> <PUBCHEM_ATOM_UDEF_STEREO_COUNT>
0

> <PUBCHEM_BOND_DEF_STEREO_COUNT>
0

> <PUBCHEM_BOND_UDEF_STEREO_COUNT>
0

> <PUBCHEM_ISOTOPIC_ATOM_COUNT>
0

> <PUBCHEM_COMPONENT_COUNT>
1

> <PUBCHEM_CACTVS_TAUTO_COUNT>
8

> <PUBCHEM_CONFORMER_ID>
000CAED600000001

> <PUBCHEM_MMFF94_ENERGY>
99.2363

> <PUBCHEM_FEATURE_SELFOVERLAP>
40.628

> <PUBCHEM_SHAPE_FINGERPRINT>
10319926 262 18199169854657409336
10411042 1 17834957847517369871
10616163 171 18265051512999083922
11049842 53 18119841073702018078
11315181 36 18114741646278371700
12107183 9 18118957002139759850
12166972 35 12535336913956544842
12173636 292 18411414050995921479
12236239 1 18113335332325535080
12390115 104 18271818882344682161
12500047 106 18342452664580002594
12788726 201 17973738157313106555
13140716 1 17976826711588042683
13540713 4 18121798144918827539
14294032 229 18273214193318897147
14420673 8 18263643970828214138
14466204 15 18339078194469646905
14508225 48 17768235066701321959
15042514 8 18192999450857979779
15230672 131 18338240371964837950
15927050 60 18413107238600100974
16752209 62 18340757243319789307
1813 80 16732985302280126494
19489759 90 18202281428675429260
20510252 161 18343310275254658929
20554085 129 18057864880346587889
20645477 56 18342459265638567056
20681677 155 18408885157472918658
21065198 48 18259979362384481106
21065198 57 18268708484472415112
21279426 13 18128827356608451718
212916 134 18270666598094732433
21315764 119 18267044812164057062
21421861 104 17823406107962121290
21756936 100 18342449352964902300
23366157 5 17900265208838196587
23402539 116 18343296002540394245
23559900 14 18202013088463084302
23728640 28 18337392763498309027
4214541 1 18410011083001956276
5104073 3 18260831449404459299
5265222 85 18198351852582483326
5385378 56 18196380208631489833
58260988 114 16298959782557882027
6327066 14 18263357006703788909
7064713 232 18408598145750821132
7226269 152 18060421304868433720
7364860 26 17908705030075479495
77188 2 17474949208862273343
7808743 9 18410855464439239408
9981440 41 18336834108954854075

> <PUBCHEM_SHAPE_MULTIPOLES>
431.05
12.7
3.51
0.84
14.74
2.49
-0.04
-10.29
-1.61
-5.42
0.17
0.67
-0.06
-0.71

> <PUBCHEM_SHAPE_SELFOVERLAP>
940.543

> <PUBCHEM_SHAPE_VOLUME>
235

> <PUBCHEM_COORDINATE_TYPE>
2
5
10

$$$$
