367339
  -OEChem-01171810203D

 34 35  0     0  0  0  0  0  0999 V2000
   -1.8634   -0.9877   -2.3157 O   0  0  0  0  0  0  0  0  0  0  0  0
   -0.5762   -0.6472    1.9168 O   0  0  0  0  0  0  0  0  0  0  0  0
    5.5420    2.4730   -0.3476 N   0  0  0  0  0  0  0  0  0  0  0  0
   -0.5078   -0.4233   -0.4634 C   0  0  0  0  0  0  0  0  0  0  0  0
    1.9815   -0.7862   -0.4358 C   0  0  0  0  0  0  0  0  0  0  0  0
    0.6406   -0.8292   -1.0387 C   0  0  0  0  0  0  0  0  0  0  0  0
   -3.0449   -0.0571   -0.5006 C   0  0  0  0  0  0  0  0  0  0  0  0
   -1.8113   -0.5195   -1.1833 C   0  0  0  0  0  0  0  0  0  0  0  0
    2.7718    0.3402   -0.6094 C   0  0  0  0  0  0  0  0  0  0  0  0
    2.4333   -1.8739    0.2967 C   0  0  0  0  0  0  0  0  0  0  0  0
   -0.4353    0.0930    0.9445 C   0  0  0  0  0  0  0  0  0  0  0  0
   -3.4333    1.2597   -0.6430 C   0  0  0  0  0  0  0  0  0  0  0  0
   -3.7671   -0.9578    0.2560 C   0  0  0  0  0  0  0  0  0  0  0  0
    4.0433    0.3798   -0.0372 C   0  0  0  0  0  0  0  0  0  0  0  0
    3.7048   -1.8341    0.8690 C   0  0  0  0  0  0  0  0  0  0  0  0
    4.5097   -0.7073    0.7020 C   0  0  0  0  0  0  0  0  0  0  0  0
   -4.5932    1.6945   -0.0014 C   0  0  0  0  0  0  0  0  0  0  0  0
   -4.9269   -0.5231    0.8975 C   0  0  0  0  0  0  0  0  0  0  0  0
   -5.3399    0.8031    0.7687 C   0  0  0  0  0  0  0  0  0  0  0  0
   -0.1968    1.5698    1.1331 C   0  0  0  0  0  0  0  0  0  0  0  0
    4.8692    1.5334   -0.2083 C   0  0  0  0  0  0  0  0  0  0  0  0
    0.6352   -1.2241   -2.0526 H   0  0  0  0  0  0  0  0  0  0  0  0
    2.4057    1.1868   -1.1869 H   0  0  0  0  0  0  0  0  0  0  0  0
    1.8159   -2.7576    0.4341 H   0  0  0  0  0  0  0  0  0  0  0  0
   -2.8558    1.9584   -1.2412 H   0  0  0  0  0  0  0  0  0  0  0  0
   -3.4503   -1.9914    0.3599 H   0  0  0  0  0  0  0  0  0  0  0  0
    4.0678   -2.6805    1.4446 H   0  0  0  0  0  0  0  0  0  0  0  0
    5.4985   -0.6915    1.1542 H   0  0  0  0  0  0  0  0  0  0  0  0
   -4.9146    2.7271   -0.1013 H   0  0  0  0  0  0  0  0  0  0  0  0
   -5.5083   -1.2171    1.4974 H   0  0  0  0  0  0  0  0  0  0  0  0
   -6.2429    1.1415    1.2684 H   0  0  0  0  0  0  0  0  0  0  0  0
   -1.0359    2.0018    1.6847 H   0  0  0  0  0  0  0  0  0  0  0  0
    0.7338    1.7173    1.6871 H   0  0  0  0  0  0  0  0  0  0  0  0
   -0.1155    2.0802    0.1693 H   0  0  0  0  0  0  0  0  0  0  0  0
  1  8  2  0  0  0  0
  2 11  2  0  0  0  0
  3 21  3  0  0  0  0
  4  6  2  0  0  0  0
  4  8  1  0  0  0  0
  4 11  1  0  0  0  0
  5  6  1  0  0  0  0
  5  9  2  0  0  0  0
  5 10  1  0  0  0  0
  6 22  1  0  0  0  0
  7  8  1  0  0  0  0
  7 12  2  0  0  0  0
  7 13  1  0  0  0  0
  9 14  1  0  0  0  0
  9 23  1  0  0  0  0
 10 15  2  0  0  0  0
 10 24  1  0  0  0  0
 11 20  1  0  0  0  0
 12 17  1  0  0  0  0
 12 25  1  0  0  0  0
 13 18  2  0  0  0  0
 13 26  1  0  0  0  0
 14 16  2  0  0  0  0
 14 21  1  0  0  0  0
 15 16  1  0  0  0  0
 15 27  1  0  0  0  0
 16 28  1  0  0  0  0
 17 19  2  0  0  0  0
 17 29  1  0  0  0  0
 18 19  1  0  0  0  0
 18 30  1  0  0  0  0
 19 31  1  0  0  0  0
 20 32  1  0  0  0  0
 20 33  1  0  0  0  0
 20 34  1  0  0  0  0
M  END
> <PUBCHEM_COMPOUND_CID>
367339

> <PUBCHEM_CONFORMER_RMSD>
0.6

> <PUBCHEM_CONFORMER_DIVERSEORDER>
1
72
67
54
33
32
52
12
5
41
30
66
60
10
35
2
47
56
27
24
73
57
69
59
31
55
6
17
28
11
65
29
62
70
9
39
7
74
8
48
44
46
21
58
64
4
19
23
3
36
25
49
14
18
40
71
42
34
63
68
26
20
13
61
15
53
50
16
38
43
37
51
22
45

> <PUBCHEM_MMFF94_PARTIAL_CHARGES>
31
1 -0.57
10 -0.15
11 0.49
12 -0.15
13 -0.15
14 0.07
15 -0.15
16 -0.15
17 -0.15
18 -0.15
19 -0.15
2 -0.57
20 0.06
21 0.48
22 0.15
23 0.15
24 0.15
25 0.15
26 0.15
27 0.15
28 0.15
29 0.15
3 -0.56
30 0.15
31 0.15
4 0.03
5 0.03
6 -0.18
7 0.09
8 0.47
9 -0.15

> <PUBCHEM_EFFECTIVE_ROTOR_COUNT>
4

> <PUBCHEM_PHARMACOPHORE_FEATURES>
6
1 1 acceptor
1 2 acceptor
1 3 acceptor
1 4 anion
6 5 9 10 14 15 16 rings
6 7 12 13 17 18 19 rings

> <PUBCHEM_HEAVY_ATOM_COUNT>
21

> <PUBCHEM_ATOM_DEF_STEREO_COUNT>
0

> <PUBCHEM_ATOM_UDEF_STEREO_COUNT>
0

> <PUBCHEM_BOND_DEF_STEREO_COUNT>
0

> <PUBCHEM_BOND_UDEF_STEREO_COUNT>
1

> <PUBCHEM_ISOTOPIC_ATOM_COUNT>
0

> <PUBCHEM_COMPONENT_COUNT>
1

> <PUBCHEM_CACTVS_TAUTO_COUNT>
2

> <PUBCHEM_CONFORMER_ID>
00059AEB00000001

> <PUBCHEM_MMFF94_ENERGY>
66.5104

> <PUBCHEM_FEATURE_SELFOVERLAP>
30.447

> <PUBCHEM_SHAPE_FINGERPRINT>
10498660 4 16845288376031725578
10670039 82 16916521271882523856
10906281 52 17631466575046572825
12236239 1 18201997729570524870
12403259 415 17168137910765737790
12403814 3 18340480089380592853
12596602 18 18334861606410919017
12616971 3 18342165666560244534
12670546 56 18114460072453986223
12788726 201 17560808684194410552
12839892 36 13406786727149633585
12892183 10 18114186306853927343
12969540 114 15267050398892023381
13533116 47 17968096370409885234
13675066 3 18337106765862532727
14251764 75 17608104379360317132
14341114 176 18260555506535639589
14341114 328 18413109467618607123
14787075 74 18411698824513036979
15209289 33 16588034485208541025
15375358 24 15267051549658285798
15788980 27 18272365339270206807
1601671 61 17346881139131145648
17349148 13 12612756791516154969
17844677 252 18334862662440285692
17862501 102 12396294863577269957
17959699 21 18343584057824097160
18186145 218 17530959133943992894
18785283 64 17242185758088947404
19377110 9 18335973276585084050
20715895 44 17981039709328008717
21682296 61 12180382631724190808
23402539 116 13840266966397789495
23559900 14 18267585698079810610
23569914 2 17466172674747326357
2916195 48 17967531285325038721
296302 2 18411421712953781171
350125 39 16700348403758539726
4340502 62 17967820456772186178
474 4 18261111928513551396
5104073 3 18040435460287255345
542803 24 18342176669907533270
59755656 520 18261674878678073318
633830 44 18412821383220238326
69090 78 16732985331616987922
6913067 236 15647047188087262931
8272917 22 18409730626112096254
960060 61 12751239233611245592

> <PUBCHEM_SHAPE_MULTIPOLES>
415.45
12.05
1.9
1.37
0.54
0.62
-0.17
4.5
1.62
1.87
0.1
-0.65
-0.32
-0.71

> <PUBCHEM_SHAPE_SELFOVERLAP>
894.608

> <PUBCHEM_SHAPE_VOLUME>
226

> <PUBCHEM_COORDINATE_TYPE>
2
5
10

$$$$
