971004
  -OEChem-01171809443D

 40 42  0     0  0  0  0  0  0999 V2000
    0.1844   -1.2102   -0.6968 S   0  0  0  0  0  0  0  0  0  0  0  0
    4.8121    2.0632   -1.4970 O   0  0  0  0  0  0  0  0  0  0  0  0
    6.7460    1.0649   -0.8415 O   0  0  0  0  0  0  0  0  0  0  0  0
   -1.8031    0.4269    0.0077 N   0  0  0  0  0  0  0  0  0  0  0  0
   -2.4275   -1.7347   -0.8488 N   0  0  0  0  0  0  0  0  0  0  0  0
   -5.8362    1.3927    0.8526 C   0  0  0  0  0  0  0  0  0  0  0  0
   -4.8690    2.5194    0.5044 C   0  0  0  0  0  0  0  0  0  0  0  0
   -5.5864    0.1741   -0.0360 C   0  0  0  0  0  0  0  0  0  0  0  0
   -3.4266    2.0774    0.7474 C   0  0  0  0  0  0  0  0  0  0  0  0
   -4.1317   -0.1665   -0.1632 C   0  0  0  0  0  0  0  0  0  0  0  0
   -3.1145    0.7285    0.1558 C   0  0  0  0  0  0  0  0  0  0  0  0
   -3.7183   -1.3865   -0.6755 C   0  0  0  0  0  0  0  0  0  0  0  0
   -1.5358   -0.7947   -0.4910 C   0  0  0  0  0  0  0  0  0  0  0  0
   -4.7135   -2.4207   -1.0917 C   0  0  0  0  0  0  0  0  0  0  0  0
    0.9590   -0.2472    0.6327 C   0  0  0  0  0  0  0  0  0  0  0  0
    2.4510   -0.4317    0.6718 C   0  0  0  0  0  0  0  0  0  0  0  0
    3.2659    0.4169   -0.0660 C   0  0  0  0  0  0  0  0  0  0  0  0
    2.9956   -1.4492    1.4443 C   0  0  0  0  0  0  0  0  0  0  0  0
    4.6497    0.2451   -0.0308 C   0  0  0  0  0  0  0  0  0  0  0  0
    4.3794   -1.6211    1.4795 C   0  0  0  0  0  0  0  0  0  0  0  0
    5.2065   -0.7740    0.7420 C   0  0  0  0  0  0  0  0  0  0  0  0
    5.5129    1.1274   -0.7998 C   0  0  0  0  0  0  0  0  0  0  0  0
   -6.8715    1.7309    0.7323 H   0  0  0  0  0  0  0  0  0  0  0  0
   -5.7093    1.1164    1.9073 H   0  0  0  0  0  0  0  0  0  0  0  0
   -5.0890    3.4065    1.1088 H   0  0  0  0  0  0  0  0  0  0  0  0
   -5.0009    2.8044   -0.5471 H   0  0  0  0  0  0  0  0  0  0  0  0
   -5.9824    0.3767   -1.0390 H   0  0  0  0  0  0  0  0  0  0  0  0
   -6.1493   -0.6672    0.3834 H   0  0  0  0  0  0  0  0  0  0  0  0
   -3.2396    2.0222    1.8269 H   0  0  0  0  0  0  0  0  0  0  0  0
   -2.7430    2.8281    0.3344 H   0  0  0  0  0  0  0  0  0  0  0  0
   -5.4038   -2.0187   -1.8399 H   0  0  0  0  0  0  0  0  0  0  0  0
   -4.2130   -3.2859   -1.5404 H   0  0  0  0  0  0  0  0  0  0  0  0
   -5.2795   -2.7806   -0.2269 H   0  0  0  0  0  0  0  0  0  0  0  0
    0.5220   -0.5421    1.5943 H   0  0  0  0  0  0  0  0  0  0  0  0
    0.7321    0.8173    0.5007 H   0  0  0  0  0  0  0  0  0  0  0  0
    2.8019    1.2002   -0.6594 H   0  0  0  0  0  0  0  0  0  0  0  0
    2.3609   -2.1155    2.0218 H   0  0  0  0  0  0  0  0  0  0  0  0
    4.8127   -2.4148    2.0810 H   0  0  0  0  0  0  0  0  0  0  0  0
    6.2821   -0.9248    0.7828 H   0  0  0  0  0  0  0  0  0  0  0  0
    5.4031    2.6526   -2.0125 H   0  0  0  0  0  0  0  0  0  0  0  0
  1 13  1  0  0  0  0
  1 15  1  0  0  0  0
  2 22  1  0  0  0  0
  2 40  1  0  0  0  0
  3 22  2  0  0  0  0
  4 11  2  0  0  0  0
  4 13  1  0  0  0  0
  5 12  1  0  0  0  0
  5 13  2  0  0  0  0
  6  7  1  0  0  0  0
  6  8  1  0  0  0  0
  6 23  1  0  0  0  0
  6 24  1  0  0  0  0
  7  9  1  0  0  0  0
  7 25  1  0  0  0  0
  7 26  1  0  0  0  0
  8 10  1  0  0  0  0
  8 27  1  0  0  0  0
  8 28  1  0  0  0  0
  9 11  1  0  0  0  0
  9 29  1  0  0  0  0
  9 30  1  0  0  0  0
 10 11  1  0  0  0  0
 10 12  2  0  0  0  0
 12 14  1  0  0  0  0
 14 31  1  0  0  0  0
 14 32  1  0  0  0  0
 14 33  1  0  0  0  0
 15 16  1  0  0  0  0
 15 34  1  0  0  0  0
 15 35  1  0  0  0  0
 16 17  2  0  0  0  0
 16 18  1  0  0  0  0
 17 19  1  0  0  0  0
 17 36  1  0  0  0  0
 18 20  2  0  0  0  0
 18 37  1  0  0  0  0
 19 21  2  0  0  0  0
 19 22  1  0  0  0  0
 20 21  1  0  0  0  0
 20 38  1  0  0  0  0
 21 39  1  0  0  0  0
M  END
> <PUBCHEM_COMPOUND_CID>
971004

> <PUBCHEM_CONFORMER_RMSD>
0.8

> <PUBCHEM_CONFORMER_DIVERSEORDER>
1
34
18
30
6
48
37
51
55
28
8
58
42
5
10
39
21
53
3
13
46
44
52
22
27
31
4
15
59
60
56
40
2
36
16
25
29
54
45
41
19
43
49
23
7
24
12
47
50
33
57
11
32
20
9
38
35
17
26
14

> <PUBCHEM_MMFF94_PARTIAL_CHARGES>
25
1 -0.33
10 -0.14
11 0.17
12 0.17
13 0.72
14 0.14
15 0.37
16 -0.14
17 -0.15
18 -0.15
19 0.09
2 -0.65
20 -0.15
21 -0.15
22 0.63
3 -0.57
36 0.15
37 0.15
38 0.15
39 0.15
4 -0.62
40 0.5
5 -0.62
8 0.14
9 0.14

> <PUBCHEM_EFFECTIVE_ROTOR_COUNT>
4.8

> <PUBCHEM_PHARMACOPHORE_FEATURES>
8
1 2 acceptor
1 3 acceptor
1 4 acceptor
3 2 3 22 anion
3 4 5 13 cation
6 16 17 18 19 20 21 rings
6 4 5 10 11 12 13 rings
6 6 7 8 9 10 11 rings

> <PUBCHEM_HEAVY_ATOM_COUNT>
22

> <PUBCHEM_ATOM_DEF_STEREO_COUNT>
0

> <PUBCHEM_ATOM_UDEF_STEREO_COUNT>
0

> <PUBCHEM_BOND_DEF_STEREO_COUNT>
0

> <PUBCHEM_BOND_UDEF_STEREO_COUNT>
0

> <PUBCHEM_ISOTOPIC_ATOM_COUNT>
0

> <PUBCHEM_COMPONENT_COUNT>
1

> <PUBCHEM_CACTVS_TAUTO_COUNT>
1

> <PUBCHEM_CONFORMER_ID>
000ED0FC00000001

> <PUBCHEM_MMFF94_ENERGY>
50.966

> <PUBCHEM_FEATURE_SELFOVERLAP>
40.68

> <PUBCHEM_SHAPE_FINGERPRINT>
10 15 18410302385401910865
10411042 1 17912356830862893735
10554248 39 18196358248131422511
10595046 47 18408881867058744154
10730089 173 18343868809491531056
10912923 1 18261383451565701634
11056379 131 18130504240753483351
11273773 42 18115881857137882860
12107183 9 17833542401672245658
12236239 1 18334574637648900715
12390115 104 17489034734967214945
12403259 415 16988556939674484018
12596602 18 17894633639107992281
12616971 3 18114455678570736290
12788726 201 18201164247653022784
13167823 11 18408597050513334722
13631057 29 17751923764126562195
13785724 45 17760926239144325626
13955234 65 17313093121942022250
14251752 14 18059861636749684318
14251764 75 16446189943590453300
14341114 328 18335136470905686883
14528608 73 18334857255682881188
15183329 4 18272652346122505692
15238133 3 18271517633602090234
15250474 111 18337656577337682330
1577012 14 18410291402078452876
17844677 252 17917425483869079154
18927931 339 17845928632999966815
19377110 9 18114451319300094592
21033648 29 16486964094485265506
21065198 48 18408036312415141218
2297311 6 17775006834019622847
2303208 19 16343704369426734326
23081809 10 18408315597106250026
23522609 53 18336846232967489788
23559900 14 17561365088733515216
23569914 152 13968932718723322753
3004659 81 18271527486421006266
3298306 158 17275103916390408790
34797466 226 17131552851099786136
38570 142 18041580104291006252
474 4 17604430825174821908
497634 4 18187919621190433847
504579 68 18411410730854365815
5104073 3 18335693953545160610
542803 24 18408602552297440250
543368 44 18334295417551366396
5758199 1 18041281058767007236
633830 44 18334012757443627098
7062679 6 18341614802254384305
7808743 9 18342740676650029097

> <PUBCHEM_SHAPE_MULTIPOLES>
434.9
17.01
2.34
1.22
7.86
0.26
0.07
5.63
-0.84
-2.39
-0.27
1.23
-0.13
-3.62

> <PUBCHEM_SHAPE_SELFOVERLAP>
920.536

> <PUBCHEM_SHAPE_VOLUME>
245.5

> <PUBCHEM_COORDINATE_TYPE>
2
5
10

$$$$
