1479791
  -OEChem-01171809473D

 19 19  0     0  0  0  0  0  0999 V2000
    2.7702   -2.1199   -0.3557 Br  0  0  0  0  0  0  0  0  0  0  0  0
    3.8623    1.2072   -0.4960 Br  0  0  0  0  0  0  0  0  0  0  0  0
   -0.1472   -2.0433    0.3886 O   0  0  0  0  0  0  0  0  0  0  0  0
   -4.0701   -0.0220   -0.1234 O   0  0  0  0  0  0  0  0  0  0  0  0
   -0.5341    0.2245    0.5866 N   0  0  0  0  0  0  0  0  0  0  0  0
   -0.0879    1.5102    0.5278 N   0  0  0  0  0  0  0  0  0  0  0  0
   -1.9385    0.0883    0.9382 C   0  0  0  0  0  0  0  0  0  0  0  0
    0.2659   -0.8836    0.3345 C   0  0  0  0  0  0  0  0  0  0  0  0
   -2.8508    0.0922   -0.2711 C   0  0  0  0  0  0  0  0  0  0  0  0
    1.6976   -0.6183   -0.0194 C   0  0  0  0  0  0  0  0  0  0  0  0
    2.1401    0.6427   -0.0794 C   0  0  0  0  0  0  0  0  0  0  0  0
    1.1503    1.6885    0.2186 C   0  0  0  0  0  0  0  0  0  0  0  0
   -2.2579    0.2335   -1.6493 C   0  0  0  0  0  0  0  0  0  0  0  0
   -2.0853   -0.8610    1.4638 H   0  0  0  0  0  0  0  0  0  0  0  0
   -2.2239    0.9126    1.6005 H   0  0  0  0  0  0  0  0  0  0  0  0
    1.5163    2.7276    0.1693 H   0  0  0  0  0  0  0  0  0  0  0  0
   -3.0636    0.2252   -2.3901 H   0  0  0  0  0  0  0  0  0  0  0  0
   -1.7273    1.1840   -1.7381 H   0  0  0  0  0  0  0  0  0  0  0  0
   -1.5928   -0.6059   -1.8634 H   0  0  0  0  0  0  0  0  0  0  0  0
  1 10  1  0  0  0  0
  2 11  1  0  0  0  0
  3  8  2  0  0  0  0
  4  9  2  0  0  0  0
  5  6  1  0  0  0  0
  5  7  1  0  0  0  0
  5  8  1  0  0  0  0
  6 12  2  0  0  0  0
  7  9  1  0  0  0  0
  7 14  1  0  0  0  0
  7 15  1  0  0  0  0
  8 10  1  0  0  0  0
  9 13  1  0  0  0  0
 10 11  2  0  0  0  0
 11 12  1  0  0  0  0
 12 16  1  0  0  0  0
 13 17  1  0  0  0  0
 13 18  1  0  0  0  0
 13 19  1  0  0  0  0
M  END
> <PUBCHEM_COMPOUND_CID>
1479791

> <PUBCHEM_CONFORMER_RMSD>
0.6

> <PUBCHEM_CONFORMER_DIVERSEORDER>
1
10
7
4
9
11
3
2
8
5
6

> <PUBCHEM_MMFF94_PARTIAL_CHARGES>
14
1 -0.11
10 0.12
11 0.12
12 0.38
13 0.06
16 0.06
2 -0.11
3 -0.57
4 -0.57
5 -0.3
6 -0.51
7 0.36
8 0.62
9 0.45

> <PUBCHEM_EFFECTIVE_ROTOR_COUNT>
2

> <PUBCHEM_PHARMACOPHORE_FEATURES>
6
1 1 hydrophobe
1 2 hydrophobe
1 3 acceptor
1 4 acceptor
1 6 acceptor
6 5 6 8 10 11 12 rings

> <PUBCHEM_HEAVY_ATOM_COUNT>
13

> <PUBCHEM_ATOM_DEF_STEREO_COUNT>
0

> <PUBCHEM_ATOM_UDEF_STEREO_COUNT>
0

> <PUBCHEM_BOND_DEF_STEREO_COUNT>
0

> <PUBCHEM_BOND_UDEF_STEREO_COUNT>
0

> <PUBCHEM_ISOTOPIC_ATOM_COUNT>
0

> <PUBCHEM_COMPONENT_COUNT>
1

> <PUBCHEM_CACTVS_TAUTO_COUNT>
3

> <PUBCHEM_CONFORMER_ID>
0016946F00000001

> <PUBCHEM_MMFF94_ENERGY>
27.5673

> <PUBCHEM_FEATURE_SELFOVERLAP>
30.447

> <PUBCHEM_SHAPE_FINGERPRINT>
11031198 65 18336269023774769916
11206711 2 17974582303301849494
11471102 20 18410007711310171605
12138202 97 18115026432400638946
12423570 1 12001341976340043426
12932764 1 17418369190514816481
13380535 76 18410295852255629722
14251717 144 18412544288814516494
14576447 43 18059000813223135255
14617773 55 17844822390498834032
14897335 6 18411139177663493362
14911166 2 18340495559800207636
14993402 34 17846782926873232148
15219456 202 18041000630891586435
15775835 57 18408884070355634447
16945 1 18340775926596104784
18186145 218 18041278755656656255
19422 9 18059577953874946711
20201158 50 18408888455501393144
20645477 70 18340204098913770583
20671657 53 18118405042923369310
21293036 1 18409731793731102076
21501502 16 18198071278805378760
22112679 90 17703232784689485536
22802520 49 17751628849969620893
23114952 82 18114187376342982486
23235685 24 18410291458129578456
23402539 116 18273214192855102340
23402655 69 18412257329565476221
23557571 272 17168438154691431369
23559900 14 18199200667080591484
23598291 2 17773332139917801515
25 1 18409445920692049588
2748010 2 17908149029194377496
528886 8 18412261774165459689
63268167 104 18342175565842481857
77492 1 17704076170527513059

> <PUBCHEM_SHAPE_MULTIPOLES>
257.72
5.9
1.96
1
1.58
0.69
-0.3
-0.61
-1.47
-1.97
0.06
0.55
-0.06
0.04

> <PUBCHEM_SHAPE_SELFOVERLAP>
498.968

> <PUBCHEM_SHAPE_VOLUME>
159.5

> <PUBCHEM_COORDINATE_TYPE>
2
5
10

$$$$
