16014490
  -OEChem-01171810043D

 50 52  0     0  0  0  0  0  0999 V2000
    3.0924    4.1116   -0.9125 Cl  0  0  0  0  0  0  0  0  0  0  0  0
   -2.4217    1.6879    0.1965 S   0  0  0  0  0  0  0  0  0  0  0  0
   -2.7792    2.0531    1.5569 O   0  0  0  0  0  0  0  0  0  0  0  0
   -3.2913    2.0515   -0.9096 O   0  0  0  0  0  0  0  0  0  0  0  0
    2.5133   -2.3862   -1.3999 O   0  0  0  0  0  0  0  0  0  0  0  0
    3.3257    1.8567    1.2884 O   0  0  0  0  0  0  0  0  0  0  0  0
    0.1967    1.6297    0.2826 N   0  0  0  0  0  0  0  0  0  0  0  0
   -0.8360    3.5627   -0.7193 N   0  0  0  0  0  0  0  0  0  0  0  0
    2.6237    0.1012   -0.1011 N   0  0  0  0  0  0  0  0  0  0  0  0
   -2.1572   -0.0543    0.1263 C   0  0  0  0  0  0  0  0  0  0  0  0
   -3.4633   -0.7275    0.3830 C   0  0  0  0  0  0  0  0  0  0  0  0
   -4.3135   -1.0299   -0.6807 C   0  0  0  0  0  0  0  0  0  0  0  0
   -0.8244    2.3782   -0.1187 C   0  0  0  0  0  0  0  0  0  0  0  0
   -3.8350   -1.0536    1.6873 C   0  0  0  0  0  0  0  0  0  0  0  0
   -5.5352   -1.6587   -0.4400 C   0  0  0  0  0  0  0  0  0  0  0  0
   -5.0566   -1.6823    1.9280 C   0  0  0  0  0  0  0  0  0  0  0  0
   -5.9066   -1.9849    0.8643 C   0  0  0  0  0  0  0  0  0  0  0  0
    1.3992    2.1856    0.0268 C   0  0  0  0  0  0  0  0  0  0  0  0
   -6.4449   -1.9814   -1.5771 C   0  0  0  0  0  0  0  0  0  0  0  0
    3.5938   -0.9014    0.1443 C   0  0  0  0  0  0  0  0  0  0  0  0
    2.5351    1.3829    0.4580 C   0  0  0  0  0  0  0  0  0  0  0  0
    1.5627    3.4092   -0.5898 C   0  0  0  0  0  0  0  0  0  0  0  0
    3.5122   -2.1183   -0.5119 C   0  0  0  0  0  0  0  0  0  0  0  0
    0.3982    4.0592   -0.9444 C   0  0  0  0  0  0  0  0  0  0  0  0
    4.6112   -0.6341    1.0458 C   0  0  0  0  0  0  0  0  0  0  0  0
    4.4750   -3.0956   -0.2598 C   0  0  0  0  0  0  0  0  0  0  0  0
    5.5739   -1.6116    1.2979 C   0  0  0  0  0  0  0  0  0  0  0  0
    5.5058   -2.8423    0.6452 C   0  0  0  0  0  0  0  0  0  0  0  0
    1.6625   -3.4912   -1.1032 C   0  0  0  0  0  0  0  0  0  0  0  0
    0.2833   -3.2162   -1.6633 C   0  0  0  0  0  0  0  0  0  0  0  0
   -1.7627   -0.3103   -0.8621 H   0  0  0  0  0  0  0  0  0  0  0  0
   -1.4193   -0.3403    0.8821 H   0  0  0  0  0  0  0  0  0  0  0  0
   -4.0240   -0.7786   -1.6985 H   0  0  0  0  0  0  0  0  0  0  0  0
   -3.1820   -0.8240    2.5252 H   0  0  0  0  0  0  0  0  0  0  0  0
   -5.3456   -1.9367    2.9436 H   0  0  0  0  0  0  0  0  0  0  0  0
   -6.8550   -2.4764    1.0649 H   0  0  0  0  0  0  0  0  0  0  0  0
   -7.4918   -1.9970   -1.2557 H   0  0  0  0  0  0  0  0  0  0  0  0
   -6.1924   -2.9615   -1.9936 H   0  0  0  0  0  0  0  0  0  0  0  0
   -6.3648   -1.2303   -2.3704 H   0  0  0  0  0  0  0  0  0  0  0  0
    1.9007   -0.1596   -0.7692 H   0  0  0  0  0  0  0  0  0  0  0  0
    0.4127    5.0277   -1.4350 H   0  0  0  0  0  0  0  0  0  0  0  0
    4.7381    0.2879    1.5919 H   0  0  0  0  0  0  0  0  0  0  0  0
    4.4406   -4.0560   -0.7668 H   0  0  0  0  0  0  0  0  0  0  0  0
    6.3775   -1.4157    2.0019 H   0  0  0  0  0  0  0  0  0  0  0  0
    6.2566   -3.6025    0.8401 H   0  0  0  0  0  0  0  0  0  0  0  0
    1.5856   -3.6504   -0.0203 H   0  0  0  0  0  0  0  0  0  0  0  0
    2.0784   -4.3937   -1.5641 H   0  0  0  0  0  0  0  0  0  0  0  0
   -0.3945   -4.0506   -1.4630 H   0  0  0  0  0  0  0  0  0  0  0  0
   -0.1360   -2.3066   -1.2210 H   0  0  0  0  0  0  0  0  0  0  0  0
    0.3314   -3.0510   -2.7446 H   0  0  0  0  0  0  0  0  0  0  0  0
  1 22  1  0  0  0  0
  2  3  2  0  0  0  0
  2  4  2  0  0  0  0
  2 10  1  0  0  0  0
  2 13  1  0  0  0  0
  5 23  1  0  0  0  0
  5 29  1  0  0  0  0
  6 21  2  0  0  0  0
  7 13  1  0  0  0  0
  7 18  2  0  0  0  0
  8 13  2  0  0  0  0
  8 24  1  0  0  0  0
  9 20  1  0  0  0  0
  9 21  1  0  0  0  0
  9 40  1  0  0  0  0
 10 11  1  0  0  0  0
 10 31  1  0  0  0  0
 10 32  1  0  0  0  0
 11 12  1  0  0  0  0
 11 14  2  0  0  0  0
 12 15  2  0  0  0  0
 12 33  1  0  0  0  0
 14 16  1  0  0  0  0
 14 34  1  0  0  0  0
 15 17  1  0  0  0  0
 15 19  1  0  0  0  0
 16 17  2  0  0  0  0
 16 35  1  0  0  0  0
 17 36  1  0  0  0  0
 18 21  1  0  0  0  0
 18 22  1  0  0  0  0
 19 37  1  0  0  0  0
 19 38  1  0  0  0  0
 19 39  1  0  0  0  0
 20 23  1  0  0  0  0
 20 25  2  0  0  0  0
 22 24  2  0  0  0  0
 23 26  2  0  0  0  0
 24 41  1  0  0  0  0
 25 27  1  0  0  0  0
 25 42  1  0  0  0  0
 26 28  1  0  0  0  0
 26 43  1  0  0  0  0
 27 28  2  0  0  0  0
 27 44  1  0  0  0  0
 28 45  1  0  0  0  0
 29 30  1  0  0  0  0
 29 46  1  0  0  0  0
 29 47  1  0  0  0  0
 30 48  1  0  0  0  0
 30 49  1  0  0  0  0
 30 50  1  0  0  0  0
M  END
> <PUBCHEM_COMPOUND_CID>
16014490

> <PUBCHEM_CONFORMER_RMSD>
1

> <PUBCHEM_CONFORMER_DIVERSEORDER>
1
8
119
105
129
74
64
157
24
141
145
135
14
65
171
41
175
26
97
37
172
132
58
75
83
168
154
68
88
170
161
110
158
156
106
92
113
99
164
102
76
84
95
116
165
19
138
77
147
21
159
125
96
85
134
100
2
69
109
49
61
139
52
28
55
15
44
46
152
124
78
11
126
127
36
111
38
80
70
42
112
163
50
166
150
63
143
133
35
177
93
45
91
94
148
53
57
29
39
118
167
62
98
130
33
13
114
25
67
82
142
160
89
121
103
153
17
54
107
101
34
174
81
90
9
56
128
48
122
173
16
123
86
79
12
72
20
120
27
31
140
10
162
137
136
59
104
32
23
176
71
87
43
51
146
144
5
151
18
47
155
4
108
22
7
60
73
117
131
115
66
169
30
6
3
149
40

> <PUBCHEM_MMFF94_PARTIAL_CHARGES>
39
1 -0.18
10 0.25
11 -0.14
12 -0.15
13 0.61
14 -0.15
15 -0.14
16 -0.15
17 -0.15
18 0.4
19 0.14
2 1.2
20 0.12
21 0.54
22 0.18
23 0.08
24 0.16
25 -0.15
26 -0.15
27 -0.15
28 -0.15
29 0.28
3 -0.65
33 0.15
34 0.15
35 0.15
36 0.15
4 -0.65
40 0.37
41 0.15
42 0.15
43 0.15
44 0.15
45 0.15
5 -0.36
6 -0.57
7 -0.62
8 -0.62
9 -0.55

> <PUBCHEM_EFFECTIVE_ROTOR_COUNT>
8

> <PUBCHEM_PHARMACOPHORE_FEATURES>
10
1 3 acceptor
1 4 acceptor
1 5 acceptor
1 6 acceptor
1 7 acceptor
1 9 donor
3 7 8 13 cation
6 11 12 14 15 16 17 rings
6 20 23 25 26 27 28 rings
6 7 8 13 18 22 24 rings

> <PUBCHEM_HEAVY_ATOM_COUNT>
30

> <PUBCHEM_ATOM_DEF_STEREO_COUNT>
0

> <PUBCHEM_ATOM_UDEF_STEREO_COUNT>
0

> <PUBCHEM_BOND_DEF_STEREO_COUNT>
0

> <PUBCHEM_BOND_UDEF_STEREO_COUNT>
0

> <PUBCHEM_ISOTOPIC_ATOM_COUNT>
0

> <PUBCHEM_COMPONENT_COUNT>
1

> <PUBCHEM_CACTVS_TAUTO_COUNT>
2

> <PUBCHEM_CONFORMER_ID>
00F45C9A00000001

> <PUBCHEM_MMFF94_ENERGY>
85.6894

> <PUBCHEM_FEATURE_SELFOVERLAP>
50.766

> <PUBCHEM_SHAPE_FINGERPRINT>
10429389 16 17969201448605447173
10675989 125 16255300628583209407
10688039 33 18334856078719820174
11135926 11 18119254114544216821
11828532 37 17677344951577497819
12107183 9 18339658737373939233
12422481 6 17917156000752561183
13402501 40 18053095130116882686
1361 2 18268428121576008759
1361 87 17749117720299992659
14114206 34 16950852383803164824
14429380 30 18334577897993685554
1454969 45 18410574033324818068
14725015 67 18336539430626605403
14863182 85 18118974834723289828
17492 89 18335984250574750049
19301679 30 18338248154249334451
19315092 285 17489018370693307371
19319366 153 17837212940863972661
1979834 28 18194962065716695840
20775530 9 18411990130416290929
21033650 10 15864338117776576421
21133410 58 18263911311157315471
21307412 95 18120929516982936877
21315764 119 16009298830373436635
21796203 349 18194714590106853554
23559900 14 18410000032009360441
345986 75 17988376965421445241
373842 8 18196932403876921863
4280585 95 18189606155825746552
437795 96 17908985404913165959
484989 97 17913498944334855278
49967989 163 16400307984541463398
508706 21 17978509728776801582
5309563 4 18410853231077279470

> <PUBCHEM_SHAPE_MULTIPOLES>
584.68
13.76
5.91
1.51
10.32
3.78
-0.17
-14.27
-2.79
-5.35
2.32
1.01
-0.75
-0.31

> <PUBCHEM_SHAPE_SELFOVERLAP>
1235.151

> <PUBCHEM_SHAPE_VOLUME>
329.3

> <PUBCHEM_COORDINATE_TYPE>
2
5
10

$$$$
