263261
  -OEChem-01171809463D

 38 38  0     0  0  0  0  0  0999 V2000
    2.1099    1.3804   -1.5251 O   0  0  0  0  0  0  0  0  0  0  0  0
   -2.7877    0.9564   -0.0523 O   0  0  0  0  0  0  0  0  0  0  0  0
   -1.8594   -1.5629   -0.0195 O   0  0  0  0  0  0  0  0  0  0  0  0
   -1.8666    1.7936    1.8873 O   0  0  0  0  0  0  0  0  0  0  0  0
    0.1425   -1.3039   -1.1432 O   0  0  0  0  0  0  0  0  0  0  0  0
    1.9029    0.2101    0.5629 C   0  0  0  0  0  0  0  0  0  0  0  0
    2.6059    0.5161   -0.5941 C   0  0  0  0  0  0  0  0  0  0  0  0
    0.5885    0.8157    0.8212 C   0  0  0  0  0  0  0  0  0  0  0  0
   -0.6096    0.3236    0.4539 C   0  0  0  0  0  0  0  0  0  0  0  0
    2.4210   -0.6721    1.5013 C   0  0  0  0  0  0  0  0  0  0  0  0
    3.8510   -0.0716   -0.8174 C   0  0  0  0  0  0  0  0  0  0  0  0
    3.6663   -1.2597    1.2781 C   0  0  0  0  0  0  0  0  0  0  0  0
    4.3812   -0.9594    0.1187 C   0  0  0  0  0  0  0  0  0  0  0  0
   -1.8048    1.1091    0.8765 C   0  0  0  0  0  0  0  0  0  0  0  0
   -0.7021   -0.9268   -0.3454 C   0  0  0  0  0  0  0  0  0  0  0  0
   -3.9982    1.6766    0.2030 C   0  0  0  0  0  0  0  0  0  0  0  0
   -2.0900   -2.8030   -0.6955 C   0  0  0  0  0  0  0  0  0  0  0  0
   -4.9811    1.4011   -0.9149 C   0  0  0  0  0  0  0  0  0  0  0  0
   -3.4082   -3.3819   -0.2274 C   0  0  0  0  0  0  0  0  0  0  0  0
    2.4385    2.7587   -1.3680 C   0  0  0  0  0  0  0  0  0  0  0  0
    0.6503    1.7399    1.3934 H   0  0  0  0  0  0  0  0  0  0  0  0
    1.8751   -0.9155    2.4092 H   0  0  0  0  0  0  0  0  0  0  0  0
    4.4136    0.1565   -1.7187 H   0  0  0  0  0  0  0  0  0  0  0  0
    4.0791   -1.9512    2.0068 H   0  0  0  0  0  0  0  0  0  0  0  0
    5.3506   -1.4172   -0.0553 H   0  0  0  0  0  0  0  0  0  0  0  0
   -3.7817    2.7496    0.2500 H   0  0  0  0  0  0  0  0  0  0  0  0
   -4.4229    1.3487    1.1584 H   0  0  0  0  0  0  0  0  0  0  0  0
   -2.1257   -2.6281   -1.7765 H   0  0  0  0  0  0  0  0  0  0  0  0
   -1.2767   -3.5006   -0.4664 H   0  0  0  0  0  0  0  0  0  0  0  0
   -5.1917    0.3289   -0.9866 H   0  0  0  0  0  0  0  0  0  0  0  0
   -4.5632    1.7077   -1.8795 H   0  0  0  0  0  0  0  0  0  0  0  0
   -5.9207    1.9359   -0.7506 H   0  0  0  0  0  0  0  0  0  0  0  0
   -4.2285   -2.6860   -0.4323 H   0  0  0  0  0  0  0  0  0  0  0  0
   -3.3941   -3.5462    0.8551 H   0  0  0  0  0  0  0  0  0  0  0  0
   -3.6175   -4.3321   -0.7265 H   0  0  0  0  0  0  0  0  0  0  0  0
    1.9409    3.3216   -2.1624 H   0  0  0  0  0  0  0  0  0  0  0  0
    2.0906    3.1375   -0.4020 H   0  0  0  0  0  0  0  0  0  0  0  0
    3.5193    2.9060   -1.4603 H   0  0  0  0  0  0  0  0  0  0  0  0
  1  7  1  0  0  0  0
  1 20  1  0  0  0  0
  2 14  1  0  0  0  0
  2 16  1  0  0  0  0
  3 15  1  0  0  0  0
  3 17  1  0  0  0  0
  4 14  2  0  0  0  0
  5 15  2  0  0  0  0
  6  7  1  0  0  0  0
  6  8  1  0  0  0  0
  6 10  2  0  0  0  0
  7 11  2  0  0  0  0
  8  9  2  0  0  0  0
  8 21  1  0  0  0  0
  9 14  1  0  0  0  0
  9 15  1  0  0  0  0
 10 12  1  0  0  0  0
 10 22  1  0  0  0  0
 11 13  1  0  0  0  0
 11 23  1  0  0  0  0
 12 13  2  0  0  0  0
 12 24  1  0  0  0  0
 13 25  1  0  0  0  0
 16 18  1  0  0  0  0
 16 26  1  0  0  0  0
 16 27  1  0  0  0  0
 17 19  1  0  0  0  0
 17 28  1  0  0  0  0
 17 29  1  0  0  0  0
 18 30  1  0  0  0  0
 18 31  1  0  0  0  0
 18 32  1  0  0  0  0
 19 33  1  0  0  0  0
 19 34  1  0  0  0  0
 19 35  1  0  0  0  0
 20 36  1  0  0  0  0
 20 37  1  0  0  0  0
 20 38  1  0  0  0  0
M  END
> <PUBCHEM_COMPOUND_CID>
263261

> <PUBCHEM_CONFORMER_RMSD>
0.8

> <PUBCHEM_CONFORMER_DIVERSEORDER>
2
60
32
50
37
45
15
56
61
40
38
23
14
26
28
42
51
3
16
13
27
6
49
41
59
22
31
7
25
54
19
8
47
29
35
20
48
18
52
57
36
21
17
9
34
4
55
43
1
39
5
44
11
53
30
12
10
24
58
33
46

> <PUBCHEM_MMFF94_PARTIAL_CHARGES>
23
1 -0.36
10 -0.15
11 -0.15
12 -0.15
13 -0.15
14 0.71
15 0.71
16 0.28
17 0.28
2 -0.43
20 0.28
21 0.15
22 0.15
23 0.15
24 0.15
25 0.15
3 -0.43
4 -0.57
5 -0.57
6 0.03
7 0.08
8 -0.18
9 0.03

> <PUBCHEM_EFFECTIVE_ROTOR_COUNT>
8

> <PUBCHEM_PHARMACOPHORE_FEATURES>
5
1 1 acceptor
1 4 acceptor
1 5 acceptor
1 9 anion
6 6 7 10 11 12 13 rings

> <PUBCHEM_HEAVY_ATOM_COUNT>
20

> <PUBCHEM_ATOM_DEF_STEREO_COUNT>
0

> <PUBCHEM_ATOM_UDEF_STEREO_COUNT>
0

> <PUBCHEM_BOND_DEF_STEREO_COUNT>
0

> <PUBCHEM_BOND_UDEF_STEREO_COUNT>
0

> <PUBCHEM_ISOTOPIC_ATOM_COUNT>
0

> <PUBCHEM_COMPONENT_COUNT>
1

> <PUBCHEM_CACTVS_TAUTO_COUNT>
1

> <PUBCHEM_CONFORMER_ID>
0004045D00000002

> <PUBCHEM_MMFF94_ENERGY>
59.734

> <PUBCHEM_FEATURE_SELFOVERLAP>
25.373

> <PUBCHEM_SHAPE_FINGERPRINT>
10756046 5 18264776626037488260
10759866 29 18263086676644198703
11578080 2 18192404537488942284
12236239 1 18334575703412590146
12553582 1 17770218576344252470
12788726 201 18196096757600973427
13052359 8 18412256230096306091
13140716 1 18059291075671005849
13538477 17 18411698794315961882
13583140 156 17676501540042576633
14115302 16 18342172254417597296
14178342 30 18337934754311740274
15099037 8 18335982085789731438
15852999 172 17917151576561628670
16752209 62 18341885342287018631
16945 1 18131079194638810728
17349148 13 18201434736250504461
17980427 26 16733251413499624433
20645476 183 18335703823538060147
22892500 29 17240489078487230868
22907989 373 18199761400144741573
23402539 116 17702652255641039465
23557571 272 18129940221152095512
23558518 356 18189332540349180275
23559900 14 18060418006860641920
23598288 3 18271806894869543159
23598291 2 18260553363499777670
266924 1 18191310579284762180
2748010 2 17701809106479367665
312423 11 18262808500197421262
34934 24 18260833696332107652
352729 6 18272660038751850143
58051976 100 18261112980268576127
6992083 37 18335986355187501920
7164475 11 18265894842268807423
74978 22 18412826897630957944
7615 1 18261954158314085028
7832392 63 18260550039184885148
8272917 22 17533218557403464545

> <PUBCHEM_SHAPE_MULTIPOLES>
382.24
8.38
3.02
1.42
2.4
1.52
0.19
-0.34
-0.94
3.02
-0.85
-0.58
-0.47
-1.66

> <PUBCHEM_SHAPE_SELFOVERLAP>
783.532

> <PUBCHEM_SHAPE_VOLUME>
220.8

> <PUBCHEM_COORDINATE_TYPE>
2
5
10

$$$$
