3177673
  -OEChem-01171810043D

 65 68  0     1  0  0  0  0  0999 V2000
    1.4542    2.3492    2.1734 S   0  0  0  0  0  0  0  0  0  0  0  0
    0.2716   -0.1012   -2.0300 O   0  0  0  0  0  0  0  0  0  0  0  0
   -0.5972    3.5608   -0.3539 O   0  0  0  0  0  0  0  0  0  0  0  0
   -4.6710   -3.4579    2.0285 O   0  0  0  0  0  0  0  0  0  0  0  0
    5.1968    1.5068   -0.6969 O   0  0  0  0  0  0  0  0  0  0  0  0
    0.9078   -1.8038   -0.5834 N   0  0  0  0  0  0  0  0  0  0  0  0
   -1.0127    1.2526   -0.1405 N   0  0  0  0  0  0  0  0  0  0  0  0
    3.0896    2.0703    2.0711 N   0  0  0  0  0  0  0  0  0  0  0  0
    2.4725    1.8675   -1.4976 N   0  0  0  0  0  0  0  0  0  0  0  0
    5.6851    1.5951    1.5279 N   0  0  0  0  0  0  0  0  0  0  0  0
    1.7360   -2.5424   -1.5105 C   0  0  0  0  0  0  0  0  0  0  0  0
    1.6917   -4.0449   -1.2124 C   0  0  0  0  0  0  0  0  0  0  0  0
    3.1753   -2.0167   -1.5027 C   0  0  0  0  0  0  0  0  0  0  0  0
    2.4443   -4.4096    0.0673 C   0  0  0  0  0  0  0  0  0  0  0  0
    3.9255   -2.3848   -0.2226 C   0  0  0  0  0  0  0  0  0  0  0  0
    3.8770   -3.8858    0.0467 C   0  0  0  0  0  0  0  0  0  0  0  0
    0.2393   -0.6355   -0.9231 C   0  0  0  0  0  0  0  0  0  0  0  0
   -0.5172   -0.0417    0.2592 C   0  0  2  0  0  0  0  0  0  0  0  0
   -1.6256   -0.9534    0.7318 C   0  0  0  0  0  0  0  0  0  0  0  0
   -2.3688    1.3602   -0.6793 C   0  0  0  0  0  0  0  0  0  0  0  0
   -0.2121    2.4375   -0.0243 C   0  0  0  0  0  0  0  0  0  0  0  0
   -2.0270   -0.9297    2.0676 C   0  0  0  0  0  0  0  0  0  0  0  0
   -2.2475   -1.8188   -0.1681 C   0  0  0  0  0  0  0  0  0  0  0  0
   -3.3259    2.1589   -0.0536 C   0  0  0  0  0  0  0  0  0  0  0  0
   -2.6988    0.6520   -1.8349 C   0  0  0  0  0  0  0  0  0  0  0  0
    1.1496    2.2559    0.4904 C   0  0  0  0  0  0  0  0  0  0  0  0
   -3.0503   -1.7715    2.5033 C   0  0  0  0  0  0  0  0  0  0  0  0
   -3.2708   -2.6606    0.2675 C   0  0  0  0  0  0  0  0  0  0  0  0
   -4.6131    2.2494   -0.5833 C   0  0  0  0  0  0  0  0  0  0  0  0
   -3.6722   -2.6370    1.6033 C   0  0  0  0  0  0  0  0  0  0  0  0
   -3.0006    2.9282    1.1855 C   0  0  0  0  0  0  0  0  0  0  0  0
   -3.9860    0.7426   -2.3647 C   0  0  0  0  0  0  0  0  0  0  0  0
   -4.9431    1.5413   -1.7390 C   0  0  0  0  0  0  0  0  0  0  0  0
    2.3394    2.0041   -0.1578 C   0  0  0  0  0  0  0  0  0  0  0  0
    3.4007    1.9093    0.7871 C   0  0  0  0  0  0  0  0  0  0  0  0
    4.7832    1.6536    0.4681 C   0  0  0  0  0  0  0  0  0  0  0  0
    1.3207   -2.3807   -2.5131 H   0  0  0  0  0  0  0  0  0  0  0  0
    0.6525   -4.3861   -1.1323 H   0  0  0  0  0  0  0  0  0  0  0  0
    2.1415   -4.5886   -2.0530 H   0  0  0  0  0  0  0  0  0  0  0  0
    3.7133   -2.4433   -2.3590 H   0  0  0  0  0  0  0  0  0  0  0  0
    3.1909   -0.9294   -1.6322 H   0  0  0  0  0  0  0  0  0  0  0  0
    1.9186   -4.0073    0.9412 H   0  0  0  0  0  0  0  0  0  0  0  0
    2.4561   -5.4994    0.1842 H   0  0  0  0  0  0  0  0  0  0  0  0
    4.9690   -2.0595   -0.3035 H   0  0  0  0  0  0  0  0  0  0  0  0
    3.4916   -1.8451    0.6281 H   0  0  0  0  0  0  0  0  0  0  0  0
    4.3637   -4.1049    1.0037 H   0  0  0  0  0  0  0  0  0  0  0  0
    4.4462   -4.4130   -0.7287 H   0  0  0  0  0  0  0  0  0  0  0  0
    0.8750   -2.1189    0.3816 H   0  0  0  0  0  0  0  0  0  0  0  0
    0.2028    0.0430    1.0776 H   0  0  0  0  0  0  0  0  0  0  0  0
   -1.5515   -0.2578    2.7771 H   0  0  0  0  0  0  0  0  0  0  0  0
   -1.9496   -1.8997   -1.2083 H   0  0  0  0  0  0  0  0  0  0  0  0
   -1.9874    0.0528   -2.3856 H   0  0  0  0  0  0  0  0  0  0  0  0
   -3.3592   -1.7477    3.5447 H   0  0  0  0  0  0  0  0  0  0  0  0
   -3.7428   -3.3353   -0.4417 H   0  0  0  0  0  0  0  0  0  0  0  0
   -5.3682    2.8698   -0.1077 H   0  0  0  0  0  0  0  0  0  0  0  0
   -2.6760    3.9436    0.9418 H   0  0  0  0  0  0  0  0  0  0  0  0
   -2.2493    2.4348    1.8086 H   0  0  0  0  0  0  0  0  0  0  0  0
   -3.8918    3.0141    1.8192 H   0  0  0  0  0  0  0  0  0  0  0  0
   -4.2408    0.1989   -3.2697 H   0  0  0  0  0  0  0  0  0  0  0  0
   -5.9444    1.6137   -2.1531 H   0  0  0  0  0  0  0  0  0  0  0  0
   -4.9867   -3.9862    1.2753 H   0  0  0  0  0  0  0  0  0  0  0  0
    3.3651    1.6807   -1.9445 H   0  0  0  0  0  0  0  0  0  0  0  0
    1.6858    1.9397   -2.1361 H   0  0  0  0  0  0  0  0  0  0  0  0
    6.6718    1.4254    1.3636 H   0  0  0  0  0  0  0  0  0  0  0  0
    5.3940    1.7178    2.4925 H   0  0  0  0  0  0  0  0  0  0  0  0
  1  8  1  0  0  0  0
  1 26  1  0  0  0  0
  2 17  2  0  0  0  0
  3 21  2  0  0  0  0
  4 30  1  0  0  0  0
  4 61  1  0  0  0  0
  5 36  2  0  0  0  0
  6 11  1  0  0  0  0
  6 17  1  0  0  0  0
  6 48  1  0  0  0  0
  7 18  1  0  0  0  0
  7 20  1  0  0  0  0
  7 21  1  0  0  0  0
  8 35  2  0  0  0  0
  9 34  1  0  0  0  0
  9 62  1  0  0  0  0
  9 63  1  0  0  0  0
 10 36  1  0  0  0  0
 10 64  1  0  0  0  0
 10 65  1  0  0  0  0
 11 12  1  0  0  0  0
 11 13  1  0  0  0  0
 11 37  1  0  0  0  0
 12 14  1  0  0  0  0
 12 38  1  0  0  0  0
 12 39  1  0  0  0  0
 13 15  1  0  0  0  0
 13 40  1  0  0  0  0
 13 41  1  0  0  0  0
 14 16  1  0  0  0  0
 14 42  1  0  0  0  0
 14 43  1  0  0  0  0
 15 16  1  0  0  0  0
 15 44  1  0  0  0  0
 15 45  1  0  0  0  0
 16 46  1  0  0  0  0
 16 47  1  0  0  0  0
 17 18  1  0  0  0  0
 18 19  1  0  0  0  0
 18 49  1  0  0  0  0
 19 22  2  0  0  0  0
 19 23  1  0  0  0  0
 20 24  1  0  0  0  0
 20 25  2  0  0  0  0
 21 26  1  0  0  0  0
 22 27  1  0  0  0  0
 22 50  1  0  0  0  0
 23 28  2  0  0  0  0
 23 51  1  0  0  0  0
 24 29  2  0  0  0  0
 24 31  1  0  0  0  0
 25 32  1  0  0  0  0
 25 52  1  0  0  0  0
 26 34  2  0  0  0  0
 27 30  2  0  0  0  0
 27 53  1  0  0  0  0
 28 30  1  0  0  0  0
 28 54  1  0  0  0  0
 29 33  1  0  0  0  0
 29 55  1  0  0  0  0
 31 56  1  0  0  0  0
 31 57  1  0  0  0  0
 31 58  1  0  0  0  0
 32 33  2  0  0  0  0
 32 59  1  0  0  0  0
 33 60  1  0  0  0  0
 34 35  1  0  0  0  0
 35 36  1  0  0  0  0
M  END
> <PUBCHEM_COMPOUND_CID>
3177673

> <PUBCHEM_CONFORMER_RMSD>
1

> <PUBCHEM_CONFORMER_DIVERSEORDER>
9
142
7
30
246
67
135
64
162
41
140
73
225
159
243
168
239
194
23
141
145
138
102
174
155
63
173
253
183
46
98
179
201
79
259
181
230
232
161
12
255
119
110
249
180
156
258
233
39
172
215
167
91
108
209
123
121
207
95
99
252
106
158
218
62
247
105
204
150
227
124
74
36
236
238
96
22
128
109
234
111
44
208
211
166
202
17
206
245
200
137
190
139
146
221
177
31
248
80
42
84
143
197
176
45
25
85
131
226
16
241
113
58
210
212
49
129
117
32
220
186
112
24
148
203
175
261
235
151
213
76
228
52
237
251
125
20
154
51
13
242
244
115
14
93
132
114
43
189
40
182
107
134
164
257
195
130
147
11
219
149
256
127
75
61
254
26
163
216
103
1
47
187
83
89
185
224
192
144
214
104
193
222
231
101
81
126
88
87
38
178
196
223
86
15
160
56
77
169
59
54
170
97
66
50
68
240
48
6
65
262
29
118
78
217
57
92
229
53
34
94
153
198
60
199
184
21
19
10
35
100
205
250
70
4
191
260
28
71
37
33
120
122
90
171
69
27
152
18
188
133
82
8
2
72
116
136
165
5
157
3
55

> <PUBCHEM_MMFF94_PARTIAL_CHARGES>
45
1 0.18
10 -0.8
11 0.3
17 0.57
18 0.5
19 -0.14
2 -0.57
20 0.12
21 0.71
22 -0.15
23 -0.15
24 -0.14
25 -0.15
26 -0.05
27 -0.15
28 -0.15
29 -0.15
3 -0.57
30 0.08
31 0.14
32 -0.15
33 -0.15
34 0.08
35 0.2
36 0.72
4 -0.53
48 0.37
5 -0.57
50 0.15
51 0.15
52 0.15
53 0.15
54 0.15
55 0.15
59 0.15
6 -0.73
60 0.15
61 0.45
62 0.4
63 0.4
64 0.37
65 0.37
7 -0.48
8 -0.51
9 -0.88

> <PUBCHEM_EFFECTIVE_ROTOR_COUNT>
10.2

> <PUBCHEM_PHARMACOPHORE_FEATURES>
13
1 10 donor
1 2 acceptor
1 3 acceptor
1 4 donor
1 5 acceptor
1 6 donor
1 8 acceptor
1 9 cation
1 9 donor
5 1 8 26 34 35 rings
6 11 12 13 14 15 16 rings
6 19 22 23 27 28 30 rings
6 20 24 25 29 32 33 rings

> <PUBCHEM_HEAVY_ATOM_COUNT>
36

> <PUBCHEM_ATOM_DEF_STEREO_COUNT>
0

> <PUBCHEM_ATOM_UDEF_STEREO_COUNT>
1

> <PUBCHEM_BOND_DEF_STEREO_COUNT>
0

> <PUBCHEM_BOND_UDEF_STEREO_COUNT>
0

> <PUBCHEM_ISOTOPIC_ATOM_COUNT>
0

> <PUBCHEM_COMPONENT_COUNT>
1

> <PUBCHEM_CACTVS_TAUTO_COUNT>
16

> <PUBCHEM_CONFORMER_ID>
00307CC900000009

> <PUBCHEM_MMFF94_ENERGY>
111.6094

> <PUBCHEM_FEATURE_SELFOVERLAP>
65.974

> <PUBCHEM_SHAPE_FINGERPRINT>
10290309 65 18196092368687715800
10305334 12 17752454669270336362
1100329 8 17479175258791301256
11135609 12 18041573524105930065
11285246 1 16757761417521453166
11578080 2 18336279976194471633
12293681 25 18334289912105016855
12422481 6 18191603037109956209
12597179 24 18335971026243461727
12608794 3 17837512759819461473
13140716 1 18339656528921627578
13149001 5 18190745237203511295
13583140 156 18130222760906408756
14400156 147 15980840346604398470
15420108 30 17773334506788478639
15439362 3 18265890255186518468
15775530 1 18335430066770496203
15815584 197 18343589559639884396
16728300 4 17970324079694167090
20721686 56 18270392782052739970
20764821 26 18410295783072059138
20775438 99 18266714971292120111
21033648 29 17913752075761829752
22182313 1 18340778120991856455
22223350 30 18116730525442663227
23419403 2 18339094717609163395
23559900 14 18262243214177300262
3027735 51 18268420420826189215
3298306 158 18270954743635688350
3380486 145 18267312109095240867
4015057 19 18197208161861056895
45266715 3 18189317001764054239
460360 51 18409454673803717922
469060 322 17910666893779278575
5265222 85 18123475140685640268
56638632 10 17844810489102505880
56638632 33 17909250404901023336
6669772 16 18262223435942618003
9981440 41 18127103446745560065

> <PUBCHEM_SHAPE_MULTIPOLES>
696.33
9.75
5.66
2.22
2.54
3.84
-0.47
-0.77
0.11
2.93
-1.3
-1.62
0.3
3.91

> <PUBCHEM_SHAPE_SELFOVERLAP>
1494.458

> <PUBCHEM_SHAPE_VOLUME>
384.1

> <PUBCHEM_COORDINATE_TYPE>
2
5
10

$$$$
