901979
  -OEChem-01171809263D

 39 40  0     0  0  0  0  0  0999 V2000
   -0.8409    0.1681    1.3480 S   0  0  0  0  0  0  0  0  0  0  0  0
   -0.4637    1.4532    1.9109 O   0  0  0  0  0  0  0  0  0  0  0  0
   -1.1937   -0.9556    2.2003 O   0  0  0  0  0  0  0  0  0  0  0  0
   -0.7031   -2.9475    1.0307 O   0  5  0  0  0  0  0  0  0  0  0  0
    0.9190   -3.9769   -0.0373 O   0  0  0  0  0  0  0  0  0  0  0  0
    1.5096    0.4197   -0.0659 N   0  0  0  0  0  0  0  0  0  0  0  0
    2.1502   -1.6352   -0.6120 N   0  0  0  0  0  0  0  0  0  0  0  0
    0.3753   -2.9147    0.3748 N   0  3  0  0  0  0  0  0  0  0  0  0
    0.5845   -0.4273    0.4350 C   0  0  0  0  0  0  0  0  0  0  0  0
    1.5262    1.8617    0.0306 C   0  0  0  0  0  0  0  0  0  0  0  0
    2.4431   -0.3565   -0.6944 C   0  0  0  0  0  0  0  0  0  0  0  0
    0.9778   -1.6802    0.1003 C   0  0  0  0  0  0  0  0  0  0  0  0
    2.2675    2.3456    1.2749 C   0  0  0  0  0  0  0  0  0  0  0  0
    3.6220    0.2207   -1.3722 C   0  0  0  0  0  0  0  0  0  0  0  0
   -2.1150    0.4472    0.1873 C   0  0  0  0  0  0  0  0  0  0  0  0
    2.2649    3.8627    1.3656 C   0  0  0  0  0  0  0  0  0  0  0  0
    3.3580    0.5432   -2.8473 C   0  0  0  0  0  0  0  0  0  0  0  0
   -3.0057   -0.5783   -0.1307 C   0  0  0  0  0  0  0  0  0  0  0  0
   -2.2423    1.6953   -0.4223 C   0  0  0  0  0  0  0  0  0  0  0  0
   -4.0233   -0.3556   -1.0584 C   0  0  0  0  0  0  0  0  0  0  0  0
   -3.2600    1.9180   -1.3499 C   0  0  0  0  0  0  0  0  0  0  0  0
   -4.1505    0.8925   -1.6679 C   0  0  0  0  0  0  0  0  0  0  0  0
    2.0212    2.2551   -0.8640 H   0  0  0  0  0  0  0  0  0  0  0  0
    0.5155    2.2547   -0.0384 H   0  0  0  0  0  0  0  0  0  0  0  0
    3.3090    2.0030    1.2394 H   0  0  0  0  0  0  0  0  0  0  0  0
    1.8546    1.9230    2.1953 H   0  0  0  0  0  0  0  0  0  0  0  0
    3.9965    1.1134   -0.8618 H   0  0  0  0  0  0  0  0  0  0  0  0
    4.4404   -0.5089   -1.3249 H   0  0  0  0  0  0  0  0  0  0  0  0
    2.7371    4.3101    0.4851 H   0  0  0  0  0  0  0  0  0  0  0  0
    2.8189    4.1908    2.2508 H   0  0  0  0  0  0  0  0  0  0  0  0
    1.2431    4.2479    1.4422 H   0  0  0  0  0  0  0  0  0  0  0  0
    3.0607   -0.3568   -3.3964 H   0  0  0  0  0  0  0  0  0  0  0  0
    4.2636    0.9440   -3.3135 H   0  0  0  0  0  0  0  0  0  0  0  0
    2.5590    1.2828   -2.9594 H   0  0  0  0  0  0  0  0  0  0  0  0
   -2.9306   -1.5578    0.3311 H   0  0  0  0  0  0  0  0  0  0  0  0
   -1.5839    2.5222   -0.1811 H   0  0  0  0  0  0  0  0  0  0  0  0
   -4.7174   -1.1536   -1.3055 H   0  0  0  0  0  0  0  0  0  0  0  0
   -3.3630    2.8914   -1.8205 H   0  0  0  0  0  0  0  0  0  0  0  0
   -4.9439    1.0664   -2.3889 H   0  0  0  0  0  0  0  0  0  0  0  0
  1  2  2  0  0  0  0
  1  3  2  0  0  0  0
  1  9  1  0  0  0  0
  1 15  1  0  0  0  0
  4  8  1  0  0  0  0
  5  8  2  0  0  0  0
  6  9  1  0  0  0  0
  6 10  1  0  0  0  0
  6 11  1  0  0  0  0
  7 11  2  0  0  0  0
  7 12  1  0  0  0  0
  8 12  1  0  0  0  0
  9 12  2  0  0  0  0
 10 13  1  0  0  0  0
 10 23  1  0  0  0  0
 10 24  1  0  0  0  0
 11 14  1  0  0  0  0
 13 16  1  0  0  0  0
 13 25  1  0  0  0  0
 13 26  1  0  0  0  0
 14 17  1  0  0  0  0
 14 27  1  0  0  0  0
 14 28  1  0  0  0  0
 15 18  2  0  0  0  0
 15 19  1  0  0  0  0
 16 29  1  0  0  0  0
 16 30  1  0  0  0  0
 16 31  1  0  0  0  0
 17 32  1  0  0  0  0
 17 33  1  0  0  0  0
 17 34  1  0  0  0  0
 18 20  1  0  0  0  0
 18 35  1  0  0  0  0
 19 21  2  0  0  0  0
 19 36  1  0  0  0  0
 20 22  2  0  0  0  0
 20 37  1  0  0  0  0
 21 22  1  0  0  0  0
 21 38  1  0  0  0  0
 22 39  1  0  0  0  0
M  CHG  2   4  -1   8   1
M  END
> <PUBCHEM_COMPOUND_CID>
901979

> <PUBCHEM_CONFORMER_RMSD>
0.8

> <PUBCHEM_CONFORMER_DIVERSEORDER>
1
4
3
2
7
5
6
8

> <PUBCHEM_MMFF94_PARTIAL_CHARGES>
24
1 1.37
10 0.26
11 0.01
12 0.31
14 0.18
15 -0.01
18 -0.15
19 -0.15
2 -0.65
20 -0.15
21 -0.15
22 -0.15
3 -0.65
35 0.15
36 0.15
37 0.15
38 0.15
39 0.15
4 -0.52
5 -0.52
6 0.05
7 -0.57
8 0.96
9 -0.21

> <PUBCHEM_EFFECTIVE_ROTOR_COUNT>
6

> <PUBCHEM_PHARMACOPHORE_FEATURES>
10
1 16 hydrophobe
1 17 hydrophobe
1 2 acceptor
1 3 acceptor
1 4 acceptor
1 4 anion
1 5 acceptor
3 6 7 11 cation
5 6 7 9 11 12 rings
6 15 18 19 20 21 22 rings

> <PUBCHEM_HEAVY_ATOM_COUNT>
22

> <PUBCHEM_ATOM_DEF_STEREO_COUNT>
0

> <PUBCHEM_ATOM_UDEF_STEREO_COUNT>
0

> <PUBCHEM_BOND_DEF_STEREO_COUNT>
0

> <PUBCHEM_BOND_UDEF_STEREO_COUNT>
0

> <PUBCHEM_ISOTOPIC_ATOM_COUNT>
0

> <PUBCHEM_COMPONENT_COUNT>
1

> <PUBCHEM_CACTVS_TAUTO_COUNT>
2

> <PUBCHEM_CONFORMER_ID>
000DC35B00000001

> <PUBCHEM_MMFF94_ENERGY>
36.5406

> <PUBCHEM_FEATURE_SELFOVERLAP>
50.881

> <PUBCHEM_SHAPE_FINGERPRINT>
11370993 70 18266439074823460821
11578080 2 18045226192060084700
11640471 11 14634874179678544661
12400797 292 18060694005047369717
12788726 201 17119449100393627860
13004483 165 16747594250900856667
13149001 5 18128554828043213916
16945 1 18339636729433428081
17357779 13 16760838439439668239
18186145 218 18341614845235725393
20600515 1 16698612266181661803
20671657 53 17917710141401075892
21285901 2 17478329094314908271
22112679 90 17483685502595175394
22182313 1 18050577540183262890
22907989 373 17753641179512851919
23402539 116 17773056180480874596
23419403 2 17482021181314211932
238 59 18409449176335198047
25 1 18188781517688387433
2748010 2 17836947950313901274
3060560 45 18339065047431692508
3323516 105 18412541033461369293
5262128 65 17632306652572995748
7364860 26 18194378040669462801
81228 2 17471590187611377882

> <PUBCHEM_SHAPE_MULTIPOLES>
418.18
6.26
3.71
2.04
3.5
1.18
-0.56
-2.71
-4.59
-2.16
1.61
-0.79
-0.64
1.61

> <PUBCHEM_SHAPE_SELFOVERLAP>
868.953

> <PUBCHEM_SHAPE_VOLUME>
239.7

> <PUBCHEM_COORDINATE_TYPE>
2
5
10

$$$$
