659663
  -OEChem-01171809163D

 33 34  0     0  0  0  0  0  0999 V2000
    3.1720   -2.1792    0.0416 S   0  0  0  0  0  0  0  0  0  0  0  0
   -3.0029    1.6687   -1.0453 O   0  0  0  0  0  0  0  0  0  0  0  0
   -4.4766    0.3005    1.0204 O   0  0  0  0  0  0  0  0  0  0  0  0
    0.9358   -1.3997   -1.8260 O   0  0  0  0  0  0  0  0  0  0  0  0
    6.0662    2.0882    0.1798 O   0  0  0  0  0  0  0  0  0  0  0  0
    3.8378    2.3357    0.5399 O   0  0  0  0  0  0  0  0  0  0  0  0
   -2.5390    0.5370   -0.4272 C   0  0  0  0  0  0  0  0  0  0  0  0
   -3.2583   -0.1323    0.5662 C   0  0  0  0  0  0  0  0  0  0  0  0
   -0.7701   -1.0958   -0.2452 C   0  0  0  0  0  0  0  0  0  0  0  0
   -4.4032    1.8603   -0.8258 C   0  0  0  0  0  0  0  0  0  0  0  0
   -4.7383    1.6537    0.6384 C   0  0  0  0  0  0  0  0  0  0  0  0
   -1.2876    0.0639   -0.8227 C   0  0  0  0  0  0  0  0  0  0  0  0
   -2.7460   -1.2994    1.1334 C   0  0  0  0  0  0  0  0  0  0  0  0
   -1.5006   -1.7794    0.7274 C   0  0  0  0  0  0  0  0  0  0  0  0
    0.5296   -1.5971   -0.6622 C   0  0  0  0  0  0  0  0  0  0  0  0
    1.3957   -2.3777    0.3386 C   0  0  0  0  0  0  0  0  0  0  0  0
    3.2772   -0.3859    0.2448 C   0  0  0  0  0  0  0  0  0  0  0  0
    4.7066    0.1218    0.1149 C   0  0  0  0  0  0  0  0  0  0  0  0
    4.8018    1.6167    0.3089 C   0  0  0  0  0  0  0  0  0  0  0  0
   -4.9570    1.1655   -1.4692 H   0  0  0  0  0  0  0  0  0  0  0  0
   -4.6513    2.8814   -1.1321 H   0  0  0  0  0  0  0  0  0  0  0  0
   -4.1533    2.3196    1.2849 H   0  0  0  0  0  0  0  0  0  0  0  0
   -5.8000    1.8505    0.8168 H   0  0  0  0  0  0  0  0  0  0  0  0
   -0.7283    0.6022   -1.5842 H   0  0  0  0  0  0  0  0  0  0  0  0
   -3.3060   -1.8349    1.8952 H   0  0  0  0  0  0  0  0  0  0  0  0
   -1.1301   -2.6956    1.1787 H   0  0  0  0  0  0  0  0  0  0  0  0
    1.1432   -3.4388    0.2513 H   0  0  0  0  0  0  0  0  0  0  0  0
    1.1898   -2.0498    1.3618 H   0  0  0  0  0  0  0  0  0  0  0  0
    2.6547    0.1102   -0.5064 H   0  0  0  0  0  0  0  0  0  0  0  0
    2.8802   -0.1206    1.2312 H   0  0  0  0  0  0  0  0  0  0  0  0
    5.3459   -0.3496    0.8705 H   0  0  0  0  0  0  0  0  0  0  0  0
    5.0998   -0.1092   -0.8820 H   0  0  0  0  0  0  0  0  0  0  0  0
    6.1084    3.0609    0.2992 H   0  0  0  0  0  0  0  0  0  0  0  0
  1 16  1  0  0  0  0
  1 17  1  0  0  0  0
  2  7  1  0  0  0  0
  2 10  1  0  0  0  0
  3  8  1  0  0  0  0
  3 11  1  0  0  0  0
  4 15  2  0  0  0  0
  5 19  1  0  0  0  0
  5 33  1  0  0  0  0
  6 19  2  0  0  0  0
  7  8  2  0  0  0  0
  7 12  1  0  0  0  0
  8 13  1  0  0  0  0
  9 12  2  0  0  0  0
  9 14  1  0  0  0  0
  9 15  1  0  0  0  0
 10 11  1  0  0  0  0
 10 20  1  0  0  0  0
 10 21  1  0  0  0  0
 11 22  1  0  0  0  0
 11 23  1  0  0  0  0
 12 24  1  0  0  0  0
 13 14  2  0  0  0  0
 13 25  1  0  0  0  0
 14 26  1  0  0  0  0
 15 16  1  0  0  0  0
 16 27  1  0  0  0  0
 16 28  1  0  0  0  0
 17 18  1  0  0  0  0
 17 29  1  0  0  0  0
 17 30  1  0  0  0  0
 18 19  1  0  0  0  0
 18 31  1  0  0  0  0
 18 32  1  0  0  0  0
M  END
> <PUBCHEM_COMPOUND_CID>
659663

> <PUBCHEM_CONFORMER_RMSD>
0.8

> <PUBCHEM_CONFORMER_DIVERSEORDER>
1
124
37
145
12
44
63
74
147
87
51
148
54
2
127
6
142
158
177
104
88
4
23
140
95
67
184
162
35
180
78
185
16
91
42
144
161
159
149
86
39
129
150
156
137
5
134
171
151
83
59
49
164
163
84
154
179
71
89
169
33
45
178
30
25
170
182
29
175
92
138
94
68
130
100
50
146
18
133
38
21
36
116
93
85
69
176
81
102
22
43
135
121
82
65
26
106
19
80
115
167
172
47
103
14
99
160
58
48
107
98
136
57
17
75
152
125
73
79
77
32
62
41
132
60
3
20
76
111
168
9
173
40
114
155
96
52
34
105
181
10
66
128
141
108
64
183
126
72
118
61
53
70
90
153
174
27
131
122
112
110
117
109
15
24
165
46
143
13
157
113
8
123
56
11
97
55
119
166
139
120
28
101
7
31

> <PUBCHEM_MMFF94_PARTIAL_CHARGES>
23
1 -0.46
10 0.28
11 0.28
12 -0.15
13 -0.15
14 -0.15
15 0.42
16 0.29
17 0.23
18 0.06
19 0.66
2 -0.36
24 0.15
25 0.15
26 0.15
3 -0.36
33 0.5
4 -0.57
5 -0.65
6 -0.57
7 0.08
8 0.08
9 0.09

> <PUBCHEM_EFFECTIVE_ROTOR_COUNT>
6.8

> <PUBCHEM_PHARMACOPHORE_FEATURES>
9
1 2 acceptor
1 3 acceptor
1 4 acceptor
1 5 acceptor
1 6 acceptor
3 5 6 19 anion
4 1 16 17 18 hydrophobe
6 2 3 7 8 10 11 rings
6 7 8 9 12 13 14 rings

> <PUBCHEM_HEAVY_ATOM_COUNT>
19

> <PUBCHEM_ATOM_DEF_STEREO_COUNT>
0

> <PUBCHEM_ATOM_UDEF_STEREO_COUNT>
0

> <PUBCHEM_BOND_DEF_STEREO_COUNT>
0

> <PUBCHEM_BOND_UDEF_STEREO_COUNT>
0

> <PUBCHEM_ISOTOPIC_ATOM_COUNT>
0

> <PUBCHEM_COMPONENT_COUNT>
1

> <PUBCHEM_CACTVS_TAUTO_COUNT>
2

> <PUBCHEM_CONFORMER_ID>
000A10CF00000001

> <PUBCHEM_MMFF94_ENERGY>
50.7011

> <PUBCHEM_FEATURE_SELFOVERLAP>
45.773

> <PUBCHEM_SHAPE_FINGERPRINT>
10319926 262 17968094205741242810
10730089 88 11815896764614299143
11045977 3 18187931621038901346
11595378 159 16443340923482510868
12403259 415 18043253453107948549
12633257 1 18041825230558915050
12769317 202 18343295964450113032
12892183 10 17603585209879645426
13544653 18 10953454129127859534
13675066 3 17605288289378186331
14178342 30 17458355164131784379
1420 369 11458421323978588720
14251751 18 9871750200212532720
14251764 38 18053099527842406953
14251764 75 18342183310059647488
14341114 328 16877947182954765620
14774955 27 18342452625708817828
15342168 16 18201439159813780663
17834072 32 18413107273217132578
17870717 6 11887957648713330953
193927 3 11025789865368910074
20645477 56 18187367584411171015
21033648 29 17386279875028401005
21033650 10 14261086358763781074
21065199 12 18186806867777609234
21475661 188 18407757041152103980
21756936 100 18267297819891800422
22849339 104 14620212179596258693
23227448 37 18340766030564206414
23559900 14 18194119612356277154
27216 239 18335137639173812083
2838139 119 18342450422670377668
4371632 12 17484771021457664089
474 4 18271522000945669178
4990 188 11887374877327927247
5104073 3 18187088312715793251
57724786 102 18129391410014838674
633830 44 18341890771320808038
7808743 9 18192711361889368648

> <PUBCHEM_SHAPE_MULTIPOLES>
365.51
11.83
2.81
1.1
7.48
0.39
-0.21
10.16
2.27
2.27
0.17
-0.66
-0.15
1.23

> <PUBCHEM_SHAPE_SELFOVERLAP>
752.315

> <PUBCHEM_SHAPE_VOLUME>
210.6

> <PUBCHEM_COORDINATE_TYPE>
2
5
10

$$$$
