883460
  -OEChem-01171809323D

 33 34  0     0  0  0  0  0  0999 V2000
   -6.6043   -0.3137   -0.6193 O   0  5  0  0  0  0  0  0  0  0  0  0
   -5.8228    1.3961    0.5282 O   0  0  0  0  0  0  0  0  0  0  0  0
    2.0139   -1.0838   -0.0135 N   0  0  0  0  0  0  0  0  0  0  0  0
   -5.6959    0.3031   -0.0435 N   0  3  0  0  0  0  0  0  0  0  0  0
    0.6647   -0.6725   -0.0139 C   0  0  0  0  0  0  0  0  0  0  0  0
    3.1578   -0.2371   -0.0046 C   0  0  0  0  0  0  0  0  0  0  0  0
    0.3041    0.5357   -0.6103 C   0  0  0  0  0  0  0  0  0  0  0  0
   -0.3088   -1.4738    0.5826 C   0  0  0  0  0  0  0  0  0  0  0  0
    2.3033   -2.5021    0.2544 C   0  0  0  0  0  0  0  0  0  0  0  0
   -2.0036    0.1415   -0.0138 C   0  0  0  0  0  0  0  0  0  0  0  0
   -1.0300    0.9428   -0.6102 C   0  0  0  0  0  0  0  0  0  0  0  0
   -1.6430   -1.0668    0.5826 C   0  0  0  0  0  0  0  0  0  0  0  0
    3.0839    1.0067    0.6079 C   0  0  0  0  0  0  0  0  0  0  0  0
    4.3323   -0.6665   -0.6079 C   0  0  0  0  0  0  0  0  0  0  0  0
    4.2052    1.8365    0.6175 C   0  0  0  0  0  0  0  0  0  0  0  0
    5.4536    0.1631   -0.5983 C   0  0  0  0  0  0  0  0  0  0  0  0
    5.3900    1.4147    0.0143 C   0  0  0  0  0  0  0  0  0  0  0  0
   -3.3947    0.5658   -0.0134 C   0  0  0  0  0  0  0  0  0  0  0  0
   -4.4058   -0.2895   -0.0390 C   0  0  0  0  0  0  0  0  0  0  0  0
    1.0257    1.1662   -1.1219 H   0  0  0  0  0  0  0  0  0  0  0  0
   -0.0776   -2.4126    1.0759 H   0  0  0  0  0  0  0  0  0  0  0  0
    2.1449   -2.7231    1.3172 H   0  0  0  0  0  0  0  0  0  0  0  0
    3.3216   -2.8317    0.0342 H   0  0  0  0  0  0  0  0  0  0  0  0
    1.6524   -3.1503   -0.3453 H   0  0  0  0  0  0  0  0  0  0  0  0
   -1.2949    1.8826   -1.0889 H   0  0  0  0  0  0  0  0  0  0  0  0
   -2.3716   -1.7071    1.0734 H   0  0  0  0  0  0  0  0  0  0  0  0
    2.1931    1.3514    1.1245 H   0  0  0  0  0  0  0  0  0  0  0  0
    4.4109   -1.6053   -1.1468 H   0  0  0  0  0  0  0  0  0  0  0  0
    4.1588    2.8073    1.1024 H   0  0  0  0  0  0  0  0  0  0  0  0
    6.3726   -0.1592   -1.0792 H   0  0  0  0  0  0  0  0  0  0  0  0
    6.2627    2.0611    0.0208 H   0  0  0  0  0  0  0  0  0  0  0  0
   -3.5320    1.6450   -0.0104 H   0  0  0  0  0  0  0  0  0  0  0  0
   -4.4118   -1.3663   -0.1094 H   0  0  0  0  0  0  0  0  0  0  0  0
  1  4  1  0  0  0  0
  2  4  2  0  0  0  0
  3  5  1  0  0  0  0
  3  6  1  0  0  0  0
  3  9  1  0  0  0  0
  4 19  1  0  0  0  0
  5  7  2  0  0  0  0
  5  8  1  0  0  0  0
  6 13  2  0  0  0  0
  6 14  1  0  0  0  0
  7 11  1  0  0  0  0
  7 20  1  0  0  0  0
  8 12  2  0  0  0  0
  8 21  1  0  0  0  0
  9 22  1  0  0  0  0
  9 23  1  0  0  0  0
  9 24  1  0  0  0  0
 10 11  2  0  0  0  0
 10 12  1  0  0  0  0
 10 18  1  0  0  0  0
 11 25  1  0  0  0  0
 12 26  1  0  0  0  0
 13 15  1  0  0  0  0
 13 27  1  0  0  0  0
 14 16  2  0  0  0  0
 14 28  1  0  0  0  0
 15 17  2  0  0  0  0
 15 29  1  0  0  0  0
 16 17  1  0  0  0  0
 16 30  1  0  0  0  0
 17 31  1  0  0  0  0
 18 19  2  0  0  0  0
 18 32  1  0  0  0  0
 19 33  1  0  0  0  0
M  CHG  2   1  -1   4   1
M  END
> <PUBCHEM_COMPOUND_CID>
883460

> <PUBCHEM_CONFORMER_RMSD>
0.6

> <PUBCHEM_CONFORMER_DIVERSEORDER>
5
7
11
3
1
12
6
8
2
13
4
9
10

> <PUBCHEM_MMFF94_PARTIAL_CHARGES>
30
1 -0.52
10 0.03
11 -0.15
12 -0.15
13 -0.15
14 -0.15
15 -0.15
16 -0.15
17 -0.15
18 -0.18
19 0.05
2 -0.52
20 0.15
21 0.15
25 0.15
26 0.15
27 0.15
28 0.15
29 0.15
3 -0.57
30 0.15
31 0.15
32 0.15
33 0.15
4 0.84
5 0.1
6 0.1
7 -0.15
8 -0.15
9 0.37

> <PUBCHEM_EFFECTIVE_ROTOR_COUNT>
4

> <PUBCHEM_PHARMACOPHORE_FEATURES>
6
1 1 acceptor
1 1 anion
1 2 acceptor
1 3 cation
6 5 7 8 10 11 12 rings
6 6 13 14 15 16 17 rings

> <PUBCHEM_HEAVY_ATOM_COUNT>
19

> <PUBCHEM_ATOM_DEF_STEREO_COUNT>
0

> <PUBCHEM_ATOM_UDEF_STEREO_COUNT>
0

> <PUBCHEM_BOND_DEF_STEREO_COUNT>
1

> <PUBCHEM_BOND_UDEF_STEREO_COUNT>
0

> <PUBCHEM_ISOTOPIC_ATOM_COUNT>
0

> <PUBCHEM_COMPONENT_COUNT>
1

> <PUBCHEM_CACTVS_TAUTO_COUNT>
2

> <PUBCHEM_CONFORMER_ID>
000D7B0400000005

> <PUBCHEM_MMFF94_ENERGY>
82.8935

> <PUBCHEM_FEATURE_SELFOVERLAP>
30.525

> <PUBCHEM_SHAPE_FINGERPRINT>
10595046 47 18272931609808120427
10912923 1 18060136497461071427
11401426 45 18040716974514685527
12011746 2 18408326592338351508
12107183 9 17479182959914777955
12236239 1 18060701680544090413
12403259 415 18041274366126357013
12730499 353 18410300207015150202
12969540 114 18335123302836670583
13167372 99 18201443519221683441
13533116 47 17458899336951885234
13955234 65 18336825282560138706
14251732 16 18340486768271041487
14528608 73 18343299279779769319
15048467 5 18342458136431660769
16079462 125 17894900807664950709
17834072 33 18060135449066830495
17980427 23 17386573612168669566
20645477 70 18130229264093712646
21150785 3 15626221359545983728
21618674 25 18335700559294538554
221357 26 18202286879675093828
22224240 67 18260823839218269264
23402539 116 18410008866667034447
23402655 69 18272930526848770351
23536379 177 17489872626608238013
23559900 14 17749682800562642170
2916195 48 18333729118024529553
29717793 49 16845301522990039356
300161 21 18260543420851135503
3004659 81 11743842478260274064
335352 9 18410858768334564126
34797466 226 17704078416843070109
34934 24 18261108590880993619
3545911 37 18334579044317059854
4072396 5 16008741403457177275
42630746 31 18412824673075275374
4325135 7 18343016718751261591
4340502 62 15357699677882575153
465052 167 8430314658133253064
474 4 18409450331729152560
5104073 3 18115309956509130809
5374978 207 17968089807456854280
542803 24 17918275342286287393
59755656 215 18336271163201564582
59755656 520 18040711489462296634
8272917 22 18202286853594041086

> <PUBCHEM_SHAPE_MULTIPOLES>
369.31
14.05
1.76
0.79
13.53
0.53
0
-5.09
-0.99
-1.5
0.31
-0.18
-0.04
0.29

> <PUBCHEM_SHAPE_SELFOVERLAP>
791.188

> <PUBCHEM_SHAPE_VOLUME>
205.3

> <PUBCHEM_COORDINATE_TYPE>
2
5
10

$$$$
