4471967
  -OEChem-01171810123D

 44 46  0     0  0  0  0  0  0999 V2000
   -0.4996   -2.9235   -2.3797 Cl  0  0  0  0  0  0  0  0  0  0  0  0
   -2.0191    3.3067   -0.5326 Cl  0  0  0  0  0  0  0  0  0  0  0  0
    3.7490   -0.6235    1.6058 S   0  0  0  0  0  0  0  0  0  0  0  0
    5.1384    2.2444   -1.5710 O   0  0  0  0  0  0  0  0  0  0  0  0
    3.0460    0.0119    2.6999 O   0  0  0  0  0  0  0  0  0  0  0  0
    4.7247   -1.6642    1.8508 O   0  0  0  0  0  0  0  0  0  0  0  0
   -0.8010    1.0444    1.2067 O   0  0  0  0  0  0  0  0  0  0  0  0
   -7.3387   -0.5853    0.1645 O   0  5  0  0  0  0  0  0  0  0  0  0
   -5.7775   -2.0283    0.7113 O   0  0  0  0  0  0  0  0  0  0  0  0
    4.4588    0.5837    0.6208 N   0  0  0  0  0  0  0  0  0  0  0  0
   -0.9532   -0.6351   -0.4305 N   0  0  0  0  0  0  0  0  0  0  0  0
   -6.1333   -0.8809    0.3490 N   0  3  0  0  0  0  0  0  0  0  0  0
    3.5313    1.6504    0.1424 C   0  0  0  0  0  0  0  0  0  0  0  0
    5.3173    0.0823   -0.4922 C   0  0  0  0  0  0  0  0  0  0  0  0
    4.3523    2.7622   -0.4956 C   0  0  0  0  0  0  0  0  0  0  0  0
    6.0632    1.2602   -1.1030 C   0  0  0  0  0  0  0  0  0  0  0  0
    2.5416   -1.2633    0.4879 C   0  0  0  0  0  0  0  0  0  0  0  0
    1.2742   -0.7045    0.4646 C   0  0  0  0  0  0  0  0  0  0  0  0
    2.8827   -2.3137   -0.3480 C   0  0  0  0  0  0  0  0  0  0  0  0
    0.3212   -1.2103   -0.4195 C   0  0  0  0  0  0  0  0  0  0  0  0
    1.9298   -2.8195   -1.2323 C   0  0  0  0  0  0  0  0  0  0  0  0
    0.6490   -2.2679   -1.2680 C   0  0  0  0  0  0  0  0  0  0  0  0
   -1.4260    0.4220    0.3549 C   0  0  0  0  0  0  0  0  0  0  0  0
   -2.8479    0.7929    0.1308 C   0  0  0  0  0  0  0  0  0  0  0  0
   -3.7948   -0.1915    0.3397 C   0  0  0  0  0  0  0  0  0  0  0  0
   -3.1932    2.0682   -0.2683 C   0  0  0  0  0  0  0  0  0  0  0  0
   -5.1413    0.1136    0.1409 C   0  0  0  0  0  0  0  0  0  0  0  0
   -4.5399    2.3730   -0.4671 C   0  0  0  0  0  0  0  0  0  0  0  0
   -5.5138    1.3958   -0.2623 C   0  0  0  0  0  0  0  0  0  0  0  0
    2.9526    2.0597    0.9756 H   0  0  0  0  0  0  0  0  0  0  0  0
    2.8535    1.2460   -0.6155 H   0  0  0  0  0  0  0  0  0  0  0  0
    4.6932   -0.3830   -1.2614 H   0  0  0  0  0  0  0  0  0  0  0  0
    6.0431   -0.6469   -0.1209 H   0  0  0  0  0  0  0  0  0  0  0  0
    3.6887    3.5298   -0.9062 H   0  0  0  0  0  0  0  0  0  0  0  0
    5.0112    3.2460    0.2353 H   0  0  0  0  0  0  0  0  0  0  0  0
    6.7488    1.7206   -0.3815 H   0  0  0  0  0  0  0  0  0  0  0  0
    6.6561    0.9248   -1.9597 H   0  0  0  0  0  0  0  0  0  0  0  0
    1.0879    0.1116    1.1431 H   0  0  0  0  0  0  0  0  0  0  0  0
    3.8744   -2.7554   -0.3383 H   0  0  0  0  0  0  0  0  0  0  0  0
    2.2016   -3.6431   -1.8877 H   0  0  0  0  0  0  0  0  0  0  0  0
   -1.6029   -1.0446   -1.0987 H   0  0  0  0  0  0  0  0  0  0  0  0
   -3.4827   -1.1818    0.6616 H   0  0  0  0  0  0  0  0  0  0  0  0
   -4.8464    3.3675   -0.7815 H   0  0  0  0  0  0  0  0  0  0  0  0
   -6.5530    1.6693   -0.4268 H   0  0  0  0  0  0  0  0  0  0  0  0
  1 22  1  0  0  0  0
  2 26  1  0  0  0  0
  3  5  2  0  0  0  0
  3  6  2  0  0  0  0
  3 10  1  0  0  0  0
  3 17  1  0  0  0  0
  4 15  1  0  0  0  0
  4 16  1  0  0  0  0
  7 23  2  0  0  0  0
  8 12  1  0  0  0  0
  9 12  2  0  0  0  0
 10 13  1  0  0  0  0
 10 14  1  0  0  0  0
 11 20  1  0  0  0  0
 11 23  1  0  0  0  0
 11 41  1  0  0  0  0
 12 27  1  0  0  0  0
 13 15  1  0  0  0  0
 13 30  1  0  0  0  0
 13 31  1  0  0  0  0
 14 16  1  0  0  0  0
 14 32  1  0  0  0  0
 14 33  1  0  0  0  0
 15 34  1  0  0  0  0
 15 35  1  0  0  0  0
 16 36  1  0  0  0  0
 16 37  1  0  0  0  0
 17 18  2  0  0  0  0
 17 19  1  0  0  0  0
 18 20  1  0  0  0  0
 18 38  1  0  0  0  0
 19 21  2  0  0  0  0
 19 39  1  0  0  0  0
 20 22  2  0  0  0  0
 21 22  1  0  0  0  0
 21 40  1  0  0  0  0
 23 24  1  0  0  0  0
 24 25  1  0  0  0  0
 24 26  2  0  0  0  0
 25 27  2  0  0  0  0
 25 42  1  0  0  0  0
 26 28  1  0  0  0  0
 27 29  1  0  0  0  0
 28 29  2  0  0  0  0
 28 43  1  0  0  0  0
 29 44  1  0  0  0  0
M  CHG  2   8  -1  12   1
M  END
> <PUBCHEM_COMPOUND_CID>
4471967

> <PUBCHEM_CONFORMER_RMSD>
0.8

> <PUBCHEM_CONFORMER_DIVERSEORDER>
1
55
67
69
40
52
7
37
60
73
28
88
71
84
24
92
57
30
93
10
17
79
48
18
66
70
33
77
85
86
83
36
9
29
94
80
87
54
8
22
49
59
2
34
12
56
31
53
68
91
38
78
14
13
62
65
46
58
81
21
19
72
43
27
75
41
76
32
44
89
11
90
25
39
61
74
45
20
6
35
42
63
15
82
51
16
50
4
3
47
23
5
26
64

> <PUBCHEM_MMFF94_PARTIAL_CHARGES>
36
1 -0.18
10 -0.85
11 -0.55
12 0.91
13 0.36
14 0.36
15 0.28
16 0.28
17 -0.01
18 -0.15
19 -0.15
2 -0.18
20 0.12
21 -0.15
22 0.18
23 0.54
24 0.09
25 -0.15
26 0.18
27 0.13
28 -0.15
29 -0.15
3 1.45
38 0.15
39 0.15
4 -0.56
40 0.15
41 0.37
42 0.15
43 0.15
44 0.15
5 -0.65
6 -0.65
7 -0.57
8 -0.52
9 -0.52

> <PUBCHEM_EFFECTIVE_ROTOR_COUNT>
7.2

> <PUBCHEM_PHARMACOPHORE_FEATURES>
11
1 11 donor
1 4 acceptor
1 5 acceptor
1 6 acceptor
1 7 acceptor
1 8 acceptor
1 8 anion
1 9 acceptor
6 17 18 19 20 21 22 rings
6 24 25 26 27 28 29 rings
6 4 10 13 14 15 16 rings

> <PUBCHEM_HEAVY_ATOM_COUNT>
29

> <PUBCHEM_ATOM_DEF_STEREO_COUNT>
0

> <PUBCHEM_ATOM_UDEF_STEREO_COUNT>
0

> <PUBCHEM_BOND_DEF_STEREO_COUNT>
0

> <PUBCHEM_BOND_UDEF_STEREO_COUNT>
0

> <PUBCHEM_ISOTOPIC_ATOM_COUNT>
0

> <PUBCHEM_COMPONENT_COUNT>
1

> <PUBCHEM_CACTVS_TAUTO_COUNT>
2

> <PUBCHEM_CONFORMER_ID>
00443C9F00000001

> <PUBCHEM_MMFF94_ENERGY>
76.103

> <PUBCHEM_FEATURE_SELFOVERLAP>
55.924

> <PUBCHEM_SHAPE_FINGERPRINT>
10670039 82 17988935422860219032
10835480 77 18338232653612675229
10906281 52 18339656564030361441
11488393 25 17273432572648239878
11991303 11 17988644150593894351
12107698 1 17968935284933886480
12403259 118 18264756693131086848
12596602 18 17530962471360123795
128238 76 18339640161149409335
13583140 156 17606376779587033502
14251764 38 18190743033490182252
1454969 45 18342737460067586959
14840074 17 18339364166535163845
15685185 35 17246125390362309788
15849732 13 18340477865220718106
15927050 60 17549824838153927829
15961568 22 18187089437992359164
17349148 13 15719967808774751851
17844677 252 18263085427051497073
18222031 100 13840266944696275250
18681886 176 18341891896960831704
19315092 285 16154244162259705432
19611394 137 17970364808615515651
20465049 17 18341060683370824372
20511986 3 16805312293772868867
20567600 234 16009036136971563660
21344244 181 16558484049118087870
21458453 9 18268152131589007763
21756936 100 18115870883838858112
21781051 124 18130514106114241126
22149856 69 17988372490392329987
23559900 14 18051976918265297311
4325135 7 18335422378800063965
4461854 278 17914351306106347095
5776283 40 18048893067950800012
7288768 16 16881043519647969984
8988823 20 15791728620361451518
9658208 31 17560511923698332350

> <PUBCHEM_SHAPE_MULTIPOLES>
554.24
15.42
3.53
1.6
11.65
0.18
-0.29
4.47
-0.99
-0.74
1.95
-2.06
-0.68
-0.48

> <PUBCHEM_SHAPE_SELFOVERLAP>
1160.102

> <PUBCHEM_SHAPE_VOLUME>
315.1

> <PUBCHEM_COORDINATE_TYPE>
2
5
10

$$$$
