2930948
  -OEChem-01171809563D

 70 71  0     0  0  0  0  0  0999 V2000
    2.6601    0.8667   -1.2555 O   0  0  0  0  0  0  0  0  0  0  0  0
   -2.6015   -0.8773    1.0948 O   0  0  0  0  0  0  0  0  0  0  0  0
    8.9946    0.2943    0.2741 N   0  0  0  0  0  0  0  0  0  0  0  0
   -9.0131   -0.3129   -0.1612 N   0  0  0  0  0  0  0  0  0  0  0  0
    3.6379   -1.1570   -0.5877 N   0  0  0  0  0  0  0  0  0  0  0  0
   -3.6380    1.1533    0.5317 N   0  0  0  0  0  0  0  0  0  0  0  0
    0.0728   -0.1877   -0.8418 C   0  0  0  0  0  0  0  0  0  0  0  0
   -0.0201    0.3431    0.5968 C   0  0  0  0  0  0  0  0  0  0  0  0
    1.2797   -1.0860   -1.1221 C   0  0  0  0  0  0  0  0  0  0  0  0
   -1.2794    1.1300    0.9525 C   0  0  0  0  0  0  0  0  0  0  0  0
    7.6492   -0.0701    0.0579 C   0  0  0  0  0  0  0  0  0  0  0  0
   -7.6627    0.0556    0.0131 C   0  0  0  0  0  0  0  0  0  0  0  0
    9.9631   -0.6950    0.7026 C   0  0  0  0  0  0  0  0  0  0  0  0
    9.4288    1.6600    0.0567 C   0  0  0  0  0  0  0  0  0  0  0  0
   -9.4246   -1.6925    0.0058 C   0  0  0  0  0  0  0  0  0  0  0  0
  -10.0040    0.6808   -0.5233 C   0  0  0  0  0  0  0  0  0  0  0  0
    2.5979   -0.3325   -0.9966 C   0  0  0  0  0  0  0  0  0  0  0  0
   -2.5689    0.3270    0.8655 C   0  0  0  0  0  0  0  0  0  0  0  0
    4.9886   -0.7912   -0.3703 C   0  0  0  0  0  0  0  0  0  0  0  0
   -4.9919    0.7842    0.3571 C   0  0  0  0  0  0  0  0  0  0  0  0
    6.7245    0.8890   -0.3550 C   0  0  0  0  0  0  0  0  0  0  0  0
   -6.7162   -0.9081    0.3611 C   0  0  0  0  0  0  0  0  0  0  0  0
    7.2437   -1.3899    0.2567 C   0  0  0  0  0  0  0  0  0  0  0  0
   -7.2739    1.3836   -0.1629 C   0  0  0  0  0  0  0  0  0  0  0  0
    5.3942    0.5285   -0.5692 C   0  0  0  0  0  0  0  0  0  0  0  0
   -5.3808   -0.5439    0.5330 C   0  0  0  0  0  0  0  0  0  0  0  0
    5.9133   -1.7504    0.0426 C   0  0  0  0  0  0  0  0  0  0  0  0
   -5.9384    1.7478    0.0091 C   0  0  0  0  0  0  0  0  0  0  0  0
    9.8563   -0.9163    2.1992 C   0  0  0  0  0  0  0  0  0  0  0  0
    9.6743    1.9012   -1.4203 C   0  0  0  0  0  0  0  0  0  0  0  0
   -9.1195   -2.4843   -1.2512 C   0  0  0  0  0  0  0  0  0  0  0  0
  -10.4460    1.4499    0.7069 C   0  0  0  0  0  0  0  0  0  0  0  0
   -0.8303   -0.7670   -1.0681 H   0  0  0  0  0  0  0  0  0  0  0  0
    0.0720    0.6638   -1.5336 H   0  0  0  0  0  0  0  0  0  0  0  0
    0.8456    0.9857    0.7974 H   0  0  0  0  0  0  0  0  0  0  0  0
    0.0664   -0.5080    1.2845 H   0  0  0  0  0  0  0  0  0  0  0  0
    1.2646   -1.9417   -0.4376 H   0  0  0  0  0  0  0  0  0  0  0  0
    1.2222   -1.4761   -2.1446 H   0  0  0  0  0  0  0  0  0  0  0  0
   -1.3369    2.0070    0.2968 H   0  0  0  0  0  0  0  0  0  0  0  0
   -1.2002    1.4991    1.9821 H   0  0  0  0  0  0  0  0  0  0  0  0
    9.8846   -1.6345    0.1440 H   0  0  0  0  0  0  0  0  0  0  0  0
   10.9783   -0.3374    0.4857 H   0  0  0  0  0  0  0  0  0  0  0  0
   10.3726    1.8364    0.5894 H   0  0  0  0  0  0  0  0  0  0  0  0
    8.7396    2.3976    0.4827 H   0  0  0  0  0  0  0  0  0  0  0  0
   -8.9928   -2.1594    0.8981 H   0  0  0  0  0  0  0  0  0  0  0  0
  -10.5080   -1.7363    0.1781 H   0  0  0  0  0  0  0  0  0  0  0  0
   -9.6619    1.3488   -1.3217 H   0  0  0  0  0  0  0  0  0  0  0  0
  -10.8873    0.1854   -0.9474 H   0  0  0  0  0  0  0  0  0  0  0  0
    3.4262   -2.1386   -0.4236 H   0  0  0  0  0  0  0  0  0  0  0  0
   -3.4456    2.1426    0.3909 H   0  0  0  0  0  0  0  0  0  0  0  0
    6.9746    1.9304   -0.5244 H   0  0  0  0  0  0  0  0  0  0  0  0
   -6.9534   -1.9549    0.5148 H   0  0  0  0  0  0  0  0  0  0  0  0
    7.9113   -2.1834    0.5729 H   0  0  0  0  0  0  0  0  0  0  0  0
   -7.9573    2.1795   -0.4365 H   0  0  0  0  0  0  0  0  0  0  0  0
    4.7397    1.3278   -0.8862 H   0  0  0  0  0  0  0  0  0  0  0  0
   -4.7067   -1.3446    0.8025 H   0  0  0  0  0  0  0  0  0  0  0  0
    5.6095   -2.7822    0.2001 H   0  0  0  0  0  0  0  0  0  0  0  0
   -5.6477    2.7858   -0.1318 H   0  0  0  0  0  0  0  0  0  0  0  0
   10.6146   -1.6349    2.5268 H   0  0  0  0  0  0  0  0  0  0  0  0
    8.8799   -1.3010    2.5060 H   0  0  0  0  0  0  0  0  0  0  0  0
   10.0252    0.0191    2.7443 H   0  0  0  0  0  0  0  0  0  0  0  0
   10.4308    1.2100   -1.8081 H   0  0  0  0  0  0  0  0  0  0  0  0
    8.7742    1.7750   -2.0282 H   0  0  0  0  0  0  0  0  0  0  0  0
   10.0416    2.9205   -1.5777 H   0  0  0  0  0  0  0  0  0  0  0  0
   -9.4682   -3.5160   -1.1382 H   0  0  0  0  0  0  0  0  0  0  0  0
   -8.0520   -2.5183   -1.4852 H   0  0  0  0  0  0  0  0  0  0  0  0
   -9.6311   -2.0521   -2.1184 H   0  0  0  0  0  0  0  0  0  0  0  0
  -11.2226    2.1731    0.4376 H   0  0  0  0  0  0  0  0  0  0  0  0
   -9.6303    2.0005    1.1831 H   0  0  0  0  0  0  0  0  0  0  0  0
  -10.8666    0.7732    1.4591 H   0  0  0  0  0  0  0  0  0  0  0  0
  1 17  2  0  0  0  0
  2 18  2  0  0  0  0
  3 11  1  0  0  0  0
  3 13  1  0  0  0  0
  3 14  1  0  0  0  0
  4 12  1  0  0  0  0
  4 15  1  0  0  0  0
  4 16  1  0  0  0  0
  5 17  1  0  0  0  0
  5 19  1  0  0  0  0
  5 49  1  0  0  0  0
  6 18  1  0  0  0  0
  6 20  1  0  0  0  0
  6 50  1  0  0  0  0
  7  8  1  0  0  0  0
  7  9  1  0  0  0  0
  7 33  1  0  0  0  0
  7 34  1  0  0  0  0
  8 10  1  0  0  0  0
  8 35  1  0  0  0  0
  8 36  1  0  0  0  0
  9 17  1  0  0  0  0
  9 37  1  0  0  0  0
  9 38  1  0  0  0  0
 10 18  1  0  0  0  0
 10 39  1  0  0  0  0
 10 40  1  0  0  0  0
 11 21  2  0  0  0  0
 11 23  1  0  0  0  0
 12 22  2  0  0  0  0
 12 24  1  0  0  0  0
 13 29  1  0  0  0  0
 13 41  1  0  0  0  0
 13 42  1  0  0  0  0
 14 30  1  0  0  0  0
 14 43  1  0  0  0  0
 14 44  1  0  0  0  0
 15 31  1  0  0  0  0
 15 45  1  0  0  0  0
 15 46  1  0  0  0  0
 16 32  1  0  0  0  0
 16 47  1  0  0  0  0
 16 48  1  0  0  0  0
 19 25  2  0  0  0  0
 19 27  1  0  0  0  0
 20 26  2  0  0  0  0
 20 28  1  0  0  0  0
 21 25  1  0  0  0  0
 21 51  1  0  0  0  0
 22 26  1  0  0  0  0
 22 52  1  0  0  0  0
 23 27  2  0  0  0  0
 23 53  1  0  0  0  0
 24 28  2  0  0  0  0
 24 54  1  0  0  0  0
 25 55  1  0  0  0  0
 26 56  1  0  0  0  0
 27 57  1  0  0  0  0
 28 58  1  0  0  0  0
 29 59  1  0  0  0  0
 29 60  1  0  0  0  0
 29 61  1  0  0  0  0
 30 62  1  0  0  0  0
 30 63  1  0  0  0  0
 30 64  1  0  0  0  0
 31 65  1  0  0  0  0
 31 66  1  0  0  0  0
 31 67  1  0  0  0  0
 32 68  1  0  0  0  0
 32 69  1  0  0  0  0
 32 70  1  0  0  0  0
M  END
> <PUBCHEM_COMPOUND_CID>
2930948

> <PUBCHEM_CONFORMER_RMSD>
1.2

> <PUBCHEM_CONFORMER_DIVERSEORDER>
8
27
20
15
1
7
24
13
3
25
4
21
5
19
29
23
6
12
9
10
26
2
22
14
18
16
28
17
11

> <PUBCHEM_MMFF94_PARTIAL_CHARGES>
36
1 -0.57
10 0.06
11 0.1
12 0.1
13 0.37
14 0.37
15 0.37
16 0.37
17 0.57
18 0.57
19 0.12
2 -0.57
20 0.12
21 -0.15
22 -0.15
23 -0.15
24 -0.15
25 -0.15
26 -0.15
27 -0.15
28 -0.15
3 -0.84
4 -0.84
49 0.37
5 -0.55
50 0.37
51 0.15
52 0.15
53 0.15
54 0.15
55 0.15
56 0.15
57 0.15
58 0.15
6 -0.55
9 0.06

> <PUBCHEM_EFFECTIVE_ROTOR_COUNT>
15

> <PUBCHEM_PHARMACOPHORE_FEATURES>
9
1 1 acceptor
1 2 acceptor
1 3 cation
1 4 cation
1 5 donor
1 6 donor
4 7 8 9 10 hydrophobe
6 11 19 21 23 25 27 rings
6 12 20 22 24 26 28 rings

> <PUBCHEM_HEAVY_ATOM_COUNT>
32

> <PUBCHEM_ATOM_DEF_STEREO_COUNT>
0

> <PUBCHEM_ATOM_UDEF_STEREO_COUNT>
0

> <PUBCHEM_BOND_DEF_STEREO_COUNT>
0

> <PUBCHEM_BOND_UDEF_STEREO_COUNT>
0

> <PUBCHEM_ISOTOPIC_ATOM_COUNT>
0

> <PUBCHEM_COMPONENT_COUNT>
1

> <PUBCHEM_CACTVS_TAUTO_COUNT>
3

> <PUBCHEM_CONFORMER_ID>
002CB90400000008

> <PUBCHEM_MMFF94_ENERGY>
103.0609

> <PUBCHEM_FEATURE_SELFOVERLAP>
45.67

> <PUBCHEM_SHAPE_FINGERPRINT>
10 15 18131632275137323822
10162869 55 18408885161604381772
106641 1 17561081406164602818
10674148 151 18411423879010048001
10883706 142 15574437622891944681
11408170 108 16588584202294306394
12089408 11 18408605842231729104
12202916 173 18259990366006817082
12758862 56 13118291394929583676
14251764 46 17967533467357874617
14400156 96 18042126621748033236
15065858 18 18342738490242585127
15145343 6 17418375822508512921
15183329 4 14634874136712813445
15289351 153 13262391177284517367
15347591 1 16879652589228146865
15840311 113 18410578401829005908
16120349 18 18187367662512042348
16664035 7 18411700976034027205
17686467 74 17489585658664061081
18354007 5 17768803518725258119
20105231 36 11887954336987889557
21362267 313 18263360288058023586
21792934 111 14490473119333633926
232437 2 18335421257956186930
335507 130 14908180850347317641
395649 100 18334577976057626603
44280117 145 18272088323782943567
4874694 18 18334012778607409459
5028188 123 9294993674622312593
59682541 35 17132112450704344907
6081469 158 16732984219726613708
6126387 218 17967814934024550437
6201320 215 16734096852738527285
67123 10 18412545409579252757
9663363 56 17060618885611463817
9937071 3 12324236162393107464

> <PUBCHEM_SHAPE_MULTIPOLES>
626.88
47.24
1.87
1.2
1.78
0.22
0.15
-1.14
2.91
1.25
-0.3
-1.8
0.12
-2.8

> <PUBCHEM_SHAPE_SELFOVERLAP>
1278.99

> <PUBCHEM_SHAPE_VOLUME>
361.9

> <PUBCHEM_COORDINATE_TYPE>
2
5
10

$$$$
