894520
  -OEChem-01171809233D

 50 51  0     0  0  0  0  0  0999 V2000
    0.9605    2.0183   -0.5217 O   0  0  0  0  0  0  0  0  0  0  0  0
   -7.3185   -0.1165   -0.0502 O   0  0  0  0  0  0  0  0  0  0  0  0
   -5.4492   -0.7609   -1.2378 O   0  0  0  0  0  0  0  0  0  0  0  0
    0.4175   -0.0510    0.4421 N   0  0  0  0  0  0  0  0  0  0  0  0
    6.8367   -0.5744   -0.1918 C   0  0  0  0  0  0  0  0  0  0  0  0
    5.3516   -0.1769   -0.1605 C   0  0  0  0  0  0  0  0  0  0  0  0
    7.5329   -0.0834    1.0958 C   0  0  0  0  0  0  0  0  0  0  0  0
    7.5215    0.0699   -1.4166 C   0  0  0  0  0  0  0  0  0  0  0  0
    7.0740   -2.0987   -0.2860 C   0  0  0  0  0  0  0  0  0  0  0  0
    4.4092   -1.1731   -0.2170 C   0  0  0  0  0  0  0  0  0  0  0  0
    5.0357    1.1563   -0.0788 C   0  0  0  0  0  0  0  0  0  0  0  0
    2.7019    0.5328   -0.1066 C   0  0  0  0  0  0  0  0  0  0  0  0
    3.0621   -0.8122   -0.1895 C   0  0  0  0  0  0  0  0  0  0  0  0
    3.6887    1.5170   -0.0512 C   0  0  0  0  0  0  0  0  0  0  0  0
    1.2973    0.9089   -0.0776 C   0  0  0  0  0  0  0  0  0  0  0  0
   -0.9911    0.0229    0.5727 C   0  0  0  0  0  0  0  0  0  0  0  0
   -3.7439    0.1666    0.8283 C   0  0  0  0  0  0  0  0  0  0  0  0
   -1.6764   -1.0489    1.1185 C   0  0  0  0  0  0  0  0  0  0  0  0
   -1.6504    1.1650    0.1517 C   0  0  0  0  0  0  0  0  0  0  0  0
   -5.2269    0.2443    0.9664 C   0  0  0  0  0  0  0  0  0  0  0  0
   -3.0634   -0.9766    1.2472 C   0  0  0  0  0  0  0  0  0  0  0  0
   -3.0375    1.2375    0.2805 C   0  0  0  0  0  0  0  0  0  0  0  0
   -5.9753   -0.2757   -0.2455 C   0  0  0  0  0  0  0  0  0  0  0  0
   -8.1546   -0.5679   -1.1206 C   0  0  0  0  0  0  0  0  0  0  0  0
   -9.6024   -0.3234   -0.7520 C   0  0  0  0  0  0  0  0  0  0  0  0
    7.0468   -0.4946    1.9887 H   0  0  0  0  0  0  0  0  0  0  0  0
    7.5208    1.0081    1.1878 H   0  0  0  0  0  0  0  0  0  0  0  0
    8.5847   -0.3923    1.1178 H   0  0  0  0  0  0  0  0  0  0  0  0
    7.0269   -0.2296   -2.3482 H   0  0  0  0  0  0  0  0  0  0  0  0
    8.5728   -0.2338   -1.4857 H   0  0  0  0  0  0  0  0  0  0  0  0
    7.5095    1.1645   -1.3748 H   0  0  0  0  0  0  0  0  0  0  0  0
    8.1477   -2.3245   -0.3036 H   0  0  0  0  0  0  0  0  0  0  0  0
    6.6569   -2.6332    0.5757 H   0  0  0  0  0  0  0  0  0  0  0  0
    6.6507   -2.5243   -1.2035 H   0  0  0  0  0  0  0  0  0  0  0  0
    4.6323   -2.2297   -0.2906 H   0  0  0  0  0  0  0  0  0  0  0  0
    5.7857    1.9384   -0.0336 H   0  0  0  0  0  0  0  0  0  0  0  0
    2.3305   -1.6104   -0.2741 H   0  0  0  0  0  0  0  0  0  0  0  0
    3.4294    2.5703    0.0189 H   0  0  0  0  0  0  0  0  0  0  0  0
    0.8115   -0.9095    0.8169 H   0  0  0  0  0  0  0  0  0  0  0  0
   -1.1563   -1.9443    1.4473 H   0  0  0  0  0  0  0  0  0  0  0  0
   -1.1770    2.0332   -0.2815 H   0  0  0  0  0  0  0  0  0  0  0  0
   -5.5275    1.2857    1.1355 H   0  0  0  0  0  0  0  0  0  0  0  0
   -5.5497   -0.3325    1.8417 H   0  0  0  0  0  0  0  0  0  0  0  0
   -3.6025   -1.8185    1.6737 H   0  0  0  0  0  0  0  0  0  0  0  0
   -3.5576    2.1324   -0.0512 H   0  0  0  0  0  0  0  0  0  0  0  0
   -7.9904   -1.6386   -1.2856 H   0  0  0  0  0  0  0  0  0  0  0  0
   -7.9071   -0.0166   -2.0346 H   0  0  0  0  0  0  0  0  0  0  0  0
  -10.2711   -0.6576   -1.5502 H   0  0  0  0  0  0  0  0  0  0  0  0
   -9.8601   -0.8539    0.1706 H   0  0  0  0  0  0  0  0  0  0  0  0
   -9.7782    0.7413   -0.5661 H   0  0  0  0  0  0  0  0  0  0  0  0
  1 15  2  0  0  0  0
  2 23  1  0  0  0  0
  2 24  1  0  0  0  0
  3 23  2  0  0  0  0
  4 15  1  0  0  0  0
  4 16  1  0  0  0  0
  4 39  1  0  0  0  0
  5  6  1  0  0  0  0
  5  7  1  0  0  0  0
  5  8  1  0  0  0  0
  5  9  1  0  0  0  0
  6 10  2  0  0  0  0
  6 11  1  0  0  0  0
  7 26  1  0  0  0  0
  7 27  1  0  0  0  0
  7 28  1  0  0  0  0
  8 29  1  0  0  0  0
  8 30  1  0  0  0  0
  8 31  1  0  0  0  0
  9 32  1  0  0  0  0
  9 33  1  0  0  0  0
  9 34  1  0  0  0  0
 10 13  1  0  0  0  0
 10 35  1  0  0  0  0
 11 14  2  0  0  0  0
 11 36  1  0  0  0  0
 12 13  2  0  0  0  0
 12 14  1  0  0  0  0
 12 15  1  0  0  0  0
 13 37  1  0  0  0  0
 14 38  1  0  0  0  0
 16 18  2  0  0  0  0
 16 19  1  0  0  0  0
 17 20  1  0  0  0  0
 17 21  2  0  0  0  0
 17 22  1  0  0  0  0
 18 21  1  0  0  0  0
 18 40  1  0  0  0  0
 19 22  2  0  0  0  0
 19 41  1  0  0  0  0
 20 23  1  0  0  0  0
 20 42  1  0  0  0  0
 20 43  1  0  0  0  0
 21 44  1  0  0  0  0
 22 45  1  0  0  0  0
 24 25  1  0  0  0  0
 24 46  1  0  0  0  0
 24 47  1  0  0  0  0
 25 48  1  0  0  0  0
 25 49  1  0  0  0  0
 25 50  1  0  0  0  0
M  END
> <PUBCHEM_COMPOUND_CID>
894520

> <PUBCHEM_CONFORMER_RMSD>
0.8

> <PUBCHEM_CONFORMER_DIVERSEORDER>
1
6
32
7
34
19
33
10
4
13
28
17
30
14
22
9
12
24
15
3
35
27
20
23
8
18
37
21
29
2
5
36
31
26
16
25
11

> <PUBCHEM_MMFF94_PARTIAL_CHARGES>
30
1 -0.57
10 -0.15
11 -0.15
12 0.09
13 -0.15
14 -0.15
15 0.54
16 0.12
17 -0.14
18 -0.15
19 -0.15
2 -0.43
20 0.2
21 -0.15
22 -0.15
23 0.66
24 0.28
3 -0.57
35 0.15
36 0.15
37 0.15
38 0.15
39 0.37
4 -0.55
40 0.15
41 0.15
44 0.15
45 0.15
5 0.14
6 -0.14

> <PUBCHEM_EFFECTIVE_ROTOR_COUNT>
8

> <PUBCHEM_PHARMACOPHORE_FEATURES>
6
1 1 acceptor
1 3 acceptor
1 4 donor
4 5 7 8 9 hydrophobe
6 16 17 18 19 21 22 rings
6 6 10 11 12 13 14 rings

> <PUBCHEM_HEAVY_ATOM_COUNT>
25

> <PUBCHEM_ATOM_DEF_STEREO_COUNT>
0

> <PUBCHEM_ATOM_UDEF_STEREO_COUNT>
0

> <PUBCHEM_BOND_DEF_STEREO_COUNT>
0

> <PUBCHEM_BOND_UDEF_STEREO_COUNT>
0

> <PUBCHEM_ISOTOPIC_ATOM_COUNT>
0

> <PUBCHEM_COMPONENT_COUNT>
1

> <PUBCHEM_CACTVS_TAUTO_COUNT>
2

> <PUBCHEM_CONFORMER_ID>
000DA63800000001

> <PUBCHEM_MMFF94_ENERGY>
77.2181

> <PUBCHEM_FEATURE_SELFOVERLAP>
30.446

> <PUBCHEM_SHAPE_FINGERPRINT>
10 15 12823293502885439956
10299344 5 17918275350892104815
106641 1 15769771368907186010
10670039 82 17167854237283009541
10835480 77 18115875259799246040
11135609 127 16298679394772146182
11181472 205 15357966812016342133
11315181 36 17894641365490731641
11408170 108 17917158195280955110
11638347 137 14979683174049283260
11719270 70 18410293584840419298
12166972 35 17989489632439148840
12236239 1 17561086895396460416
12516196 113 17847063268569440048
12596602 18 16271930398418883674
12838862 33 18187072975645859674
13668630 136 17489594445860842270
13885169 127 17846782871840679593
13914758 101 18410575054904542521
14123256 10 17989486325445789807
14150022 121 11023840466035686475
14251752 14 16443061690710583778
14251764 18 18412832369408600688
14251764 46 17418374696894783958
14294032 229 15792842322893874053
14617042 71 8862645916268544646
14933364 13 8646769993297098082
15183329 4 17967249784731167705
15198563 99 17603863348015376077
15419008 47 17313380136851986653
15461852 350 17917998265345908645
15690457 1 17703787029176805383
15706992 2 13334738982557814055
15716309 27 15769774654182744420
16120349 18 18342174514515101896
17834072 8 17822012016541826529
18006028 8 18410295804779069176
18335252 98 13398636056232437101
18608769 82 11671773875820694757
20281389 69 11743839132517940098
21095086 128 16773802476790823502
21130935 74 17988647325186232530
21150785 3 17603303752399015943
21267235 1 18260279546112340504
21344244 246 18343022142974209863
21521721 280 9439399125599745404
21792934 111 18040990770623179536
2215653 11 18260270750319849034
22224240 67 17775002389161196038
22956985 138 16125871162115659572
23559900 14 18261677098427150640
23576562 1 16806456988620135951
249057 25 17845949497365924769
249057 3 18408885170347491815
2747138 104 12391517529089896567
28498 318 18114180821800894971
3004659 81 17894352194164767408
3092352 35 13334734635682132697
335352 9 18260270762840734517
34797466 226 7925913690949548442
3633792 109 18335702719942526865
3711267 37 13407078063946366919
4073 2 17677626409615990042
4325135 7 17846499231846757511
4340502 62 14907902657173916844
5283156 175 17917712405354846583
5758199 1 9151174255438091765
59682541 35 12391508702963693583
5969126 39 18341889672078400253
59755656 215 17749390339075036082
6081469 158 17603583006745870054
9663363 56 18113896066598064640
9953998 17 11600001068938716653

> <PUBCHEM_SHAPE_MULTIPOLES>
491.9
27.22
1.46
1.09
23.37
0.08
0
-8.03
8
-1.68
0.07
0.54
-0.17
-0.29

> <PUBCHEM_SHAPE_SELFOVERLAP>
1035.019

> <PUBCHEM_SHAPE_VOLUME>
277.3

> <PUBCHEM_COORDINATE_TYPE>
2
5
10

$$$$
