5412959
  -OEChem-01171809563D

 36 39  0     0  0  0  0  0  0999 V2000
   -0.1417    1.5603   -0.0006 N   0  0  0  0  0  0  0  0  0  0  0  0
    2.1802   -1.8255    0.0007 N   0  0  0  0  0  0  0  0  0  0  0  0
    0.0938   -0.6526   -0.0002 C   0  0  0  0  0  0  0  0  0  0  0  0
   -1.3019   -0.3415   -0.0006 C   0  0  0  0  0  0  0  0  0  0  0  0
    0.7956    0.5514   -0.0003 C   0  0  0  0  0  0  0  0  0  0  0  0
   -1.4171    1.0478   -0.0003 C   0  0  0  0  0  0  0  0  0  0  0  0
    2.2061    0.5903   -0.0002 C   0  0  0  0  0  0  0  0  0  0  0  0
    0.8244   -1.8425    0.0004 C   0  0  0  0  0  0  0  0  0  0  0  0
   -2.4810   -1.1163   -0.0006 C   0  0  0  0  0  0  0  0  0  0  0  0
   -2.6524    1.7056    0.0003 C   0  0  0  0  0  0  0  0  0  0  0  0
   -3.7239   -0.4734   -0.0001 C   0  0  0  0  0  0  0  0  0  0  0  0
   -3.8060    0.9170    0.0007 C   0  0  0  0  0  0  0  0  0  0  0  0
    2.8530   -0.6606    0.0003 C   0  0  0  0  0  0  0  0  0  0  0  0
    2.9295    1.8004   -0.0005 C   0  0  0  0  0  0  0  0  0  0  0  0
    0.1984   -3.1971    0.0002 C   0  0  0  0  0  0  0  0  0  0  0  0
   -4.9611   -1.3121   -0.0011 C   0  0  0  0  0  0  0  0  0  0  0  0
   -5.1354    1.6011    0.0016 C   0  0  0  0  0  0  0  0  0  0  0  0
    4.2443   -0.6551    0.0005 C   0  0  0  0  0  0  0  0  0  0  0  0
    4.3193    1.7649   -0.0003 C   0  0  0  0  0  0  0  0  0  0  0  0
    4.9760    0.5380    0.0002 C   0  0  0  0  0  0  0  0  0  0  0  0
    0.0756    2.5471   -0.0007 H   0  0  0  0  0  0  0  0  0  0  0  0
   -2.4270   -2.2005   -0.0010 H   0  0  0  0  0  0  0  0  0  0  0  0
   -2.7007    2.7900    0.0006 H   0  0  0  0  0  0  0  0  0  0  0  0
    2.4239    2.7619   -0.0009 H   0  0  0  0  0  0  0  0  0  0  0  0
   -0.4197   -3.3316    0.8930 H   0  0  0  0  0  0  0  0  0  0  0  0
   -0.4188   -3.3316   -0.8932 H   0  0  0  0  0  0  0  0  0  0  0  0
    0.9608   -3.9833    0.0006 H   0  0  0  0  0  0  0  0  0  0  0  0
   -5.5616   -1.1151    0.8929 H   0  0  0  0  0  0  0  0  0  0  0  0
   -5.5612   -1.1138   -0.8951 H   0  0  0  0  0  0  0  0  0  0  0  0
   -4.7271   -2.3825   -0.0018 H   0  0  0  0  0  0  0  0  0  0  0  0
   -5.0306    2.6918    0.0030 H   0  0  0  0  0  0  0  0  0  0  0  0
   -5.7076    1.3342   -0.8929 H   0  0  0  0  0  0  0  0  0  0  0  0
   -5.7076    1.3319    0.8954 H   0  0  0  0  0  0  0  0  0  0  0  0
    4.7885   -1.5980    0.0010 H   0  0  0  0  0  0  0  0  0  0  0  0
    4.8894    2.6889   -0.0006 H   0  0  0  0  0  0  0  0  0  0  0  0
    6.0619    0.5046    0.0004 H   0  0  0  0  0  0  0  0  0  0  0  0
  1  5  1  0  0  0  0
  1  6  1  0  0  0  0
  1 21  1  0  0  0  0
  2  8  2  0  0  0  0
  2 13  1  0  0  0  0
  3  4  1  0  0  0  0
  3  5  2  0  0  0  0
  3  8  1  0  0  0  0
  4  6  2  0  0  0  0
  4  9  1  0  0  0  0
  5  7  1  0  0  0  0
  6 10  1  0  0  0  0
  7 13  1  0  0  0  0
  7 14  2  0  0  0  0
  8 15  1  0  0  0  0
  9 11  2  0  0  0  0
  9 22  1  0  0  0  0
 10 12  2  0  0  0  0
 10 23  1  0  0  0  0
 11 12  1  0  0  0  0
 11 16  1  0  0  0  0
 12 17  1  0  0  0  0
 13 18  2  0  0  0  0
 14 19  1  0  0  0  0
 14 24  1  0  0  0  0
 15 25  1  0  0  0  0
 15 26  1  0  0  0  0
 15 27  1  0  0  0  0
 16 28  1  0  0  0  0
 16 29  1  0  0  0  0
 16 30  1  0  0  0  0
 17 31  1  0  0  0  0
 17 32  1  0  0  0  0
 17 33  1  0  0  0  0
 18 20  1  0  0  0  0
 18 34  1  0  0  0  0
 19 20  2  0  0  0  0
 19 35  1  0  0  0  0
 20 36  1  0  0  0  0
M  END
> <PUBCHEM_COMPOUND_CID>
5412959

> <PUBCHEM_CONFORMER_RMSD>
0.6

> <PUBCHEM_CONFORMER_DIVERSEORDER>
1

> <PUBCHEM_MMFF94_PARTIAL_CHARGES>
24
1 0.03
10 -0.15
11 -0.14
12 -0.14
13 0.31
14 -0.15
15 0.14
16 0.14
17 0.14
18 -0.15
19 -0.15
2 -0.62
20 -0.15
21 0.27
22 0.15
23 0.15
24 0.15
34 0.15
35 0.15
36 0.15
5 -0.15
6 -0.15
8 0.17
9 -0.15

> <PUBCHEM_EFFECTIVE_ROTOR_COUNT>
0

> <PUBCHEM_PHARMACOPHORE_FEATURES>
7
1 1 cation
1 1 donor
1 2 acceptor
5 1 3 4 5 6 rings
6 2 3 5 7 8 13 rings
6 4 6 9 10 11 12 rings
6 7 13 14 18 19 20 rings

> <PUBCHEM_HEAVY_ATOM_COUNT>
20

> <PUBCHEM_ATOM_DEF_STEREO_COUNT>
0

> <PUBCHEM_ATOM_UDEF_STEREO_COUNT>
0

> <PUBCHEM_BOND_DEF_STEREO_COUNT>
0

> <PUBCHEM_BOND_UDEF_STEREO_COUNT>
0

> <PUBCHEM_ISOTOPIC_ATOM_COUNT>
0

> <PUBCHEM_COMPONENT_COUNT>
1

> <PUBCHEM_CACTVS_TAUTO_COUNT>
2

> <PUBCHEM_CONFORMER_ID>
0052985F00000001

> <PUBCHEM_MMFF94_ENERGY>
54.107

> <PUBCHEM_FEATURE_SELFOVERLAP>
35.731

> <PUBCHEM_SHAPE_FINGERPRINT>
10608611 8 18336543811593155405
10616163 171 18411419518653066175
10967382 1 18410855434606407782
11471102 20 18339077090546331500
11578080 2 13697598795274042965
12107183 9 17691125933491797609
12403259 226 18263357006661122900
12403259 415 18271804670081810368
12592029 89 18408603634945931242
12788726 201 17058937633195094833
13140716 1 18337953381062228098
138480 1 17762055437063551810
13862211 1 18410851105073982882
14178342 30 17908412564166390296
14528608 73 18412543227730695853
14787075 74 18271805786751818211
14790565 3 18411143566603592365
15196674 1 18410855460149280295
15375358 24 18333733498701085667
15536298 74 18342177743707334030
16945 1 18122624946558680038
18186145 218 18409728439599007972
18681886 176 18411978087971733512
19591789 44 18411698828507167795
19784866 170 18335143068402701761
19784866 9 18411980217610750729
200 152 18202561787319449473
20510252 161 18343867718511790009
20645477 70 18270962345242772215
21267235 1 18411145748404449455
21421861 104 17825948122203752131
21709351 56 18335415768402609125
221490 88 18337962190082882586
23366157 5 17970635086507340626
23402539 116 18342168990252846108
23402655 69 18343299253851814021
23559900 14 18196649601385499410
2748010 2 18409176506009834406
2871803 45 18409162216854185191
335352 9 18410856526066282014
34934 24 18338794516706761535
350125 39 18409448051502340972
3545911 37 18409450259062829093
4214541 1 18410575080653331489
474 4 18114186349503147100
474229 33 18410574032586424211
4990 188 18060709385662685228
5104073 3 18409449167866550873
58051976 378 18341611473422530621
59755656 215 18339647741814088230
6138700 20 18266745676113603918
633830 44 18343582923646399652
69090 78 18411135878896533906
7364860 26 18196653995147508350
77779 3 18411138030406123845
8272917 22 18269840817612493823
9709674 26 18410581668964553423

> <PUBCHEM_SHAPE_MULTIPOLES>
401.63
10.05
2.52
0.61
2.06
1.17
0
-3.22
0
0
0
0.01
0
0

> <PUBCHEM_SHAPE_SELFOVERLAP>
914.779

> <PUBCHEM_SHAPE_VOLUME>
212.1

> <PUBCHEM_COORDINATE_TYPE>
2
5
10

$$$$
