4216259
  -OEChem-01171810013D

 48 50  0     0  0  0  0  0  0999 V2000
   -4.8570   -0.1605    1.9451 Cl  0  0  0  0  0  0  0  0  0  0  0  0
   -5.9954   -0.6692   -1.0939 Cl  0  0  0  0  0  0  0  0  0  0  0  0
    4.5702    1.3338   -0.1067 O   0  0  0  0  0  0  0  0  0  0  0  0
    3.7685   -3.1981   -0.5126 O   0  0  0  0  0  0  0  0  0  0  0  0
   -2.3253    1.2898    1.8164 O   0  0  0  0  0  0  0  0  0  0  0  0
    1.5643    1.6901   -0.2546 N   0  0  0  0  0  0  0  0  0  0  0  0
    1.8983   -1.7930   -0.5102 N   0  0  0  0  0  0  0  0  0  0  0  0
    0.1678   -0.0369   -0.4720 N   0  0  0  0  0  0  0  0  0  0  0  0
    4.1289   -0.9319   -0.3132 N   0  0  0  0  0  0  0  0  0  0  0  0
   -2.1219    1.5135   -0.4799 N   0  0  0  0  0  0  0  0  0  0  0  0
   -2.6183    1.2884   -1.7367 N   0  0  0  0  0  0  0  0  0  0  0  0
    2.3443    0.5714   -0.2981 C   0  0  0  0  0  0  0  0  0  0  0  0
    1.4646   -0.4723   -0.4314 C   0  0  0  0  0  0  0  0  0  0  0  0
    0.2621    1.2727   -0.3631 C   0  0  0  0  0  0  0  0  0  0  0  0
    2.0172    3.0551   -0.1205 C   0  0  0  0  0  0  0  0  0  0  0  0
    0.9342   -2.8751   -0.6502 C   0  0  0  0  0  0  0  0  0  0  0  0
    0.4687   -3.4175    0.6970 C   0  0  0  0  0  0  0  0  0  0  0  0
   -0.8695    2.2230   -0.3525 C   0  0  0  0  0  0  0  0  0  0  0  0
    3.7612    0.4190   -0.2276 C   0  0  0  0  0  0  0  0  0  0  0  0
    2.1159    3.4866    1.3410 C   0  0  0  0  0  0  0  0  0  0  0  0
    3.2862   -2.0637   -0.4510 C   0  0  0  0  0  0  0  0  0  0  0  0
   -0.5239   -4.5736    0.5543 C   0  0  0  0  0  0  0  0  0  0  0  0
    2.5824    4.9280    1.4623 C   0  0  0  0  0  0  0  0  0  0  0  0
   -0.9236   -5.1329    1.9108 C   0  0  0  0  0  0  0  0  0  0  0  0
   -2.7673    1.0908    0.6841 C   0  0  0  0  0  0  0  0  0  0  0  0
   -4.0569    0.3632    0.5087 C   0  0  0  0  0  0  0  0  0  0  0  0
   -3.7373    0.6542   -1.8310 C   0  0  0  0  0  0  0  0  0  0  0  0
   -4.5383    0.1451   -0.7144 C   0  0  0  0  0  0  0  0  0  0  0  0
    2.9824    3.1513   -0.6275 H   0  0  0  0  0  0  0  0  0  0  0  0
    1.3249    3.7038   -0.6679 H   0  0  0  0  0  0  0  0  0  0  0  0
    0.0812   -2.5270   -1.2450 H   0  0  0  0  0  0  0  0  0  0  0  0
    1.4055   -3.6849   -1.2203 H   0  0  0  0  0  0  0  0  0  0  0  0
    0.0064   -2.6101    1.2787 H   0  0  0  0  0  0  0  0  0  0  0  0
    1.3398   -3.7536    1.2738 H   0  0  0  0  0  0  0  0  0  0  0  0
   -0.8716    2.8073    0.5737 H   0  0  0  0  0  0  0  0  0  0  0  0
   -0.7952    2.9247   -1.1912 H   0  0  0  0  0  0  0  0  0  0  0  0
    2.8154    2.8352    1.8786 H   0  0  0  0  0  0  0  0  0  0  0  0
    1.1443    3.3798    1.8372 H   0  0  0  0  0  0  0  0  0  0  0  0
    5.1258   -1.1255   -0.2704 H   0  0  0  0  0  0  0  0  0  0  0  0
   -0.0776   -5.3744   -0.0467 H   0  0  0  0  0  0  0  0  0  0  0  0
   -1.4197   -4.2295    0.0245 H   0  0  0  0  0  0  0  0  0  0  0  0
    3.5705    5.0596    1.0099 H   0  0  0  0  0  0  0  0  0  0  0  0
    2.6498    5.2174    2.5157 H   0  0  0  0  0  0  0  0  0  0  0  0
    1.8833    5.6093    0.9670 H   0  0  0  0  0  0  0  0  0  0  0  0
   -1.3989   -4.3633    2.5274 H   0  0  0  0  0  0  0  0  0  0  0  0
   -1.6345   -5.9558    1.7868 H   0  0  0  0  0  0  0  0  0  0  0  0
   -0.0514   -5.5157    2.4501 H   0  0  0  0  0  0  0  0  0  0  0  0
   -4.1416    0.4700   -2.8402 H   0  0  0  0  0  0  0  0  0  0  0  0
  1 26  1  0  0  0  0
  2 28  1  0  0  0  0
  3 19  2  0  0  0  0
  4 21  2  0  0  0  0
  5 25  2  0  0  0  0
  6 12  1  0  0  0  0
  6 14  1  0  0  0  0
  6 15  1  0  0  0  0
  7 13  1  0  0  0  0
  7 16  1  0  0  0  0
  7 21  1  0  0  0  0
  8 13  1  0  0  0  0
  8 14  2  0  0  0  0
  9 19  1  0  0  0  0
  9 21  1  0  0  0  0
  9 39  1  0  0  0  0
 10 11  1  0  0  0  0
 10 18  1  0  0  0  0
 10 25  1  0  0  0  0
 11 27  2  0  0  0  0
 12 13  2  0  0  0  0
 12 19  1  0  0  0  0
 14 18  1  0  0  0  0
 15 20  1  0  0  0  0
 15 29  1  0  0  0  0
 15 30  1  0  0  0  0
 16 17  1  0  0  0  0
 16 31  1  0  0  0  0
 16 32  1  0  0  0  0
 17 22  1  0  0  0  0
 17 33  1  0  0  0  0
 17 34  1  0  0  0  0
 18 35  1  0  0  0  0
 18 36  1  0  0  0  0
 20 23  1  0  0  0  0
 20 37  1  0  0  0  0
 20 38  1  0  0  0  0
 22 24  1  0  0  0  0
 22 40  1  0  0  0  0
 22 41  1  0  0  0  0
 23 42  1  0  0  0  0
 23 43  1  0  0  0  0
 23 44  1  0  0  0  0
 24 45  1  0  0  0  0
 24 46  1  0  0  0  0
 24 47  1  0  0  0  0
 25 26  1  0  0  0  0
 26 28  2  0  0  0  0
 27 28  1  0  0  0  0
 27 48  1  0  0  0  0
M  END
> <PUBCHEM_COMPOUND_CID>
4216259

> <PUBCHEM_CONFORMER_RMSD>
0.8

> <PUBCHEM_CONFORMER_DIVERSEORDER>
1
115
105
118
100
86
179
147
165
55
186
57
107
94
184
110
151
112
127
104
123
180
50
21
99
167
24
103
53
61
114
154
169
64
77
181
178
15
117
106
88
156
183
63
92
131
45
171
51
11
124
79
56
36
4
76
6
157
159
153
49
182
185
160
81
29
121
187
133
139
93
75
162
26
101
42
137
148
140
44
74
175
134
111
83
152
120
149
113
43
125
54
46
119
150
146
97
9
5
98
174
90
16
78
69
176
70
3
102
136
161
172
66
33
14
122
128
82
138
2
35
60
19
177
158
170
164
142
141
80
168
143
87
40
10
30
31
109
34
62
59
17
71
8
132
84
52
65
39
73
23
95
25
22
91
188
32
68
116
155
18
108
126
13
173
41
67
47
58
12
72
96
144
28
38
163
135
85
48
129
20
89
130
145
166
37
27
7

> <PUBCHEM_MMFF94_PARTIAL_CHARGES>
25
1 -0.14
10 -0.3
11 -0.51
12 -0.24
13 0.29
14 0.01
15 0.26
16 0.3
18 0.48
19 0.71
2 -0.14
21 0.69
25 0.62
26 0.15
27 0.38
28 0.15
3 -0.57
39 0.37
4 -0.57
48 0.06
5 -0.57
6 0.05
7 -0.42
8 -0.57
9 -0.49

> <PUBCHEM_EFFECTIVE_ROTOR_COUNT>
7

> <PUBCHEM_PHARMACOPHORE_FEATURES>
11
1 11 acceptor
1 23 hydrophobe
1 24 hydrophobe
1 3 acceptor
1 4 acceptor
1 5 acceptor
1 9 donor
3 6 8 14 cation
5 6 8 12 13 14 rings
6 10 11 25 26 27 28 rings
6 7 9 12 13 19 21 rings

> <PUBCHEM_HEAVY_ATOM_COUNT>
28

> <PUBCHEM_ATOM_DEF_STEREO_COUNT>
0

> <PUBCHEM_ATOM_UDEF_STEREO_COUNT>
0

> <PUBCHEM_BOND_DEF_STEREO_COUNT>
0

> <PUBCHEM_BOND_UDEF_STEREO_COUNT>
0

> <PUBCHEM_ISOTOPIC_ATOM_COUNT>
0

> <PUBCHEM_COMPONENT_COUNT>
1

> <PUBCHEM_CACTVS_TAUTO_COUNT>
3

> <PUBCHEM_CONFORMER_ID>
004055C300000001

> <PUBCHEM_MMFF94_ENERGY>
41.5477

> <PUBCHEM_FEATURE_SELFOVERLAP>
55.937

> <PUBCHEM_SHAPE_FINGERPRINT>
10074138 170 17258456434098854712
1100329 8 18270396222010275176
114674 6 18408881811240006547
12156800 1 17260707126237979251
12553582 1 17761495789965919727
12788726 201 17045126503670219461
13140716 1 18124314067608928456
13402501 40 18114476595372964155
13583140 156 18269851843627655329
14844126 61 15738806539962535323
17138139 8 17842251930351497415
19591789 44 18265618676077818630
20028762 73 18270112397059440678
20511986 3 17845643773557325817
21197605 99 18052821631174964295
23559900 14 18340473479516062493
283562 15 18050853209250211068
4409770 3 17043144629861234892
463206 1 18265338300707726595
653340 110 17548424060001732401
86090 222 17970374597252704379
9777508 108 18050566545351678858

> <PUBCHEM_SHAPE_MULTIPOLES>
532.47
9.46
6.17
1.56
8.51
5.36
0.48
-2.47
-1.06
-4.88
3.56
1.72
-0.16
2.21

> <PUBCHEM_SHAPE_SELFOVERLAP>
1107.425

> <PUBCHEM_SHAPE_VOLUME>
305.7

> <PUBCHEM_COORDINATE_TYPE>
2
5
10

$$$$
