3241529
  -OEChem-01171809173D

 59 63  0     0  0  0  0  0  0999 V2000
    6.9053    1.7914    0.6482 O   0  0  0  0  0  0  0  0  0  0  0  0
    7.3640    0.9010   -1.4742 O   0  0  0  0  0  0  0  0  0  0  0  0
    3.1386   -2.3830    1.4244 O   0  0  0  0  0  0  0  0  0  0  0  0
    4.1133   -0.3569    0.8386 N   0  0  0  0  0  0  0  0  0  0  0  0
   -2.8769   -0.5181    0.1827 N   0  0  0  0  0  0  0  0  0  0  0  0
   -2.1802   -1.4643   -1.9091 N   0  0  0  0  0  0  0  0  0  0  0  0
   -3.9650    0.0931    0.7342 N   0  0  0  0  0  0  0  0  0  0  0  0
    6.4711    0.8498   -0.3494 C   0  0  0  0  0  0  0  0  0  0  0  0
    6.4922   -0.5680    0.2339 C   0  0  0  0  0  0  0  0  0  0  0  0
    5.0548    1.2221   -0.8045 C   0  0  0  0  0  0  0  0  0  0  0  0
    5.4391   -0.7443    1.3258 C   0  0  0  0  0  0  0  0  0  0  0  0
    4.0267    1.0088    0.3061 C   0  0  0  0  0  0  0  0  0  0  0  0
    8.2113    2.1863    0.2317 C   0  0  0  0  0  0  0  0  0  0  0  0
    8.1438    2.0774   -1.2662 C   0  0  0  0  0  0  0  0  0  0  0  0
    3.0486   -1.2520    0.9400 C   0  0  0  0  0  0  0  0  0  0  0  0
    1.7166   -0.7801    0.4138 C   0  0  0  0  0  0  0  0  0  0  0  0
    0.6615   -1.8580    0.5926 C   0  0  0  0  0  0  0  0  0  0  0  0
   -0.6817   -1.4346    0.0989 C   0  0  0  0  0  0  0  0  0  0  0  0
   -1.6493   -0.8112    0.8072 C   0  0  0  0  0  0  0  0  0  0  0  0
   -1.0433   -1.7360   -1.3408 C   0  0  0  0  0  0  0  0  0  0  0  0
   -3.1186   -0.8499   -1.1472 C   0  0  0  0  0  0  0  0  0  0  0  0
   -1.5213   -0.3867    2.2470 C   0  0  0  0  0  0  0  0  0  0  0  0
   -0.0045   -2.4144   -2.2092 C   0  0  0  0  0  0  0  0  0  0  0  0
   -4.3983   -0.4340   -1.4348 C   0  0  0  0  0  0  0  0  0  0  0  0
   -4.8652    0.1348   -0.2457 C   0  0  0  0  0  0  0  0  0  0  0  0
   -6.1610    0.7209   -0.0228 C   0  0  0  0  0  0  0  0  0  0  0  0
   -6.8386    1.3280   -1.0777 C   0  0  0  0  0  0  0  0  0  0  0  0
   -6.7324    0.6788    1.2471 C   0  0  0  0  0  0  0  0  0  0  0  0
   -8.0940    1.8963   -0.8618 C   0  0  0  0  0  0  0  0  0  0  0  0
   -7.9880    1.2470    1.4628 C   0  0  0  0  0  0  0  0  0  0  0  0
   -8.6687    1.8557    0.4083 C   0  0  0  0  0  0  0  0  0  0  0  0
    6.3180   -1.2956   -0.5694 H   0  0  0  0  0  0  0  0  0  0  0  0
    7.4824   -0.7922    0.6484 H   0  0  0  0  0  0  0  0  0  0  0  0
    4.7828    0.6192   -1.6805 H   0  0  0  0  0  0  0  0  0  0  0  0
    5.0250    2.2706   -1.1251 H   0  0  0  0  0  0  0  0  0  0  0  0
    5.4391   -1.7829    1.6713 H   0  0  0  0  0  0  0  0  0  0  0  0
    5.6675   -0.1131    2.1925 H   0  0  0  0  0  0  0  0  0  0  0  0
    4.2143    1.6932    1.1420 H   0  0  0  0  0  0  0  0  0  0  0  0
    3.0319    1.2408   -0.0771 H   0  0  0  0  0  0  0  0  0  0  0  0
    8.4421    3.1945    0.5841 H   0  0  0  0  0  0  0  0  0  0  0  0
    8.9327    1.4796    0.6558 H   0  0  0  0  0  0  0  0  0  0  0  0
    9.1239    1.9813   -1.7394 H   0  0  0  0  0  0  0  0  0  0  0  0
    7.6084    2.9243   -1.7089 H   0  0  0  0  0  0  0  0  0  0  0  0
    1.4226    0.1194    0.9674 H   0  0  0  0  0  0  0  0  0  0  0  0
    1.8276   -0.5204   -0.6436 H   0  0  0  0  0  0  0  0  0  0  0  0
    0.9771   -2.7932    0.1168 H   0  0  0  0  0  0  0  0  0  0  0  0
    0.5891   -2.1282    1.6544 H   0  0  0  0  0  0  0  0  0  0  0  0
   -1.7297    0.6840    2.3503 H   0  0  0  0  0  0  0  0  0  0  0  0
   -0.5216   -0.5512    2.6568 H   0  0  0  0  0  0  0  0  0  0  0  0
   -2.2300   -0.9410    2.8716 H   0  0  0  0  0  0  0  0  0  0  0  0
   -0.3525   -2.4545   -3.2467 H   0  0  0  0  0  0  0  0  0  0  0  0
    0.9382   -1.8652   -2.1980 H   0  0  0  0  0  0  0  0  0  0  0  0
    0.1510   -3.4413   -1.8676 H   0  0  0  0  0  0  0  0  0  0  0  0
   -4.9021   -0.5455   -2.3849 H   0  0  0  0  0  0  0  0  0  0  0  0
   -6.4127    1.3851   -2.0762 H   0  0  0  0  0  0  0  0  0  0  0  0
   -6.2304    0.2041    2.0865 H   0  0  0  0  0  0  0  0  0  0  0  0
   -8.6233    2.3725   -1.6820 H   0  0  0  0  0  0  0  0  0  0  0  0
   -8.4367    1.2140    2.4513 H   0  0  0  0  0  0  0  0  0  0  0  0
   -9.6462    2.2983    0.5765 H   0  0  0  0  0  0  0  0  0  0  0  0
  1  8  1  0  0  0  0
  1 13  1  0  0  0  0
  2  8  1  0  0  0  0
  2 14  1  0  0  0  0
  3 15  2  0  0  0  0
  4 11  1  0  0  0  0
  4 12  1  0  0  0  0
  4 15  1  0  0  0  0
  5  7  1  0  0  0  0
  5 19  1  0  0  0  0
  5 21  1  0  0  0  0
  6 20  2  0  0  0  0
  6 21  1  0  0  0  0
  7 25  2  0  0  0  0
  8  9  1  0  0  0  0
  8 10  1  0  0  0  0
  9 11  1  0  0  0  0
  9 32  1  0  0  0  0
  9 33  1  0  0  0  0
 10 12  1  0  0  0  0
 10 34  1  0  0  0  0
 10 35  1  0  0  0  0
 11 36  1  0  0  0  0
 11 37  1  0  0  0  0
 12 38  1  0  0  0  0
 12 39  1  0  0  0  0
 13 14  1  0  0  0  0
 13 40  1  0  0  0  0
 13 41  1  0  0  0  0
 14 42  1  0  0  0  0
 14 43  1  0  0  0  0
 15 16  1  0  0  0  0
 16 17  1  0  0  0  0
 16 44  1  0  0  0  0
 16 45  1  0  0  0  0
 17 18  1  0  0  0  0
 17 46  1  0  0  0  0
 17 47  1  0  0  0  0
 18 19  2  0  0  0  0
 18 20  1  0  0  0  0
 19 22  1  0  0  0  0
 20 23  1  0  0  0  0
 21 24  2  0  0  0  0
 22 48  1  0  0  0  0
 22 49  1  0  0  0  0
 22 50  1  0  0  0  0
 23 51  1  0  0  0  0
 23 52  1  0  0  0  0
 23 53  1  0  0  0  0
 24 25  1  0  0  0  0
 24 54  1  0  0  0  0
 25 26  1  0  0  0  0
 26 27  2  0  0  0  0
 26 28  1  0  0  0  0
 27 29  1  0  0  0  0
 27 55  1  0  0  0  0
 28 30  2  0  0  0  0
 28 56  1  0  0  0  0
 29 31  2  0  0  0  0
 29 57  1  0  0  0  0
 30 31  1  0  0  0  0
 30 58  1  0  0  0  0
 31 59  1  0  0  0  0
M  END
> <PUBCHEM_COMPOUND_CID>
3241529

> <PUBCHEM_CONFORMER_RMSD>
0.8

> <PUBCHEM_CONFORMER_DIVERSEORDER>
1
16
40
15
38
17
21
14
12
19
29
33
41
10
13
28
23
4
3
42
30
7
34
31
11
32
2
26
9
36
24
39
18
5
27
25
20
8
22
6
37
35

> <PUBCHEM_MMFF94_PARTIAL_CHARGES>
35
1 -0.56
11 0.3
12 0.3
13 0.28
14 0.28
15 0.57
16 0.06
17 0.14
18 -0.12
19 -0.17
2 -0.56
20 0.37
21 -0.03
22 0.14
23 0.06
24 -0.15
25 0.23
26 0.05
27 -0.15
28 -0.15
29 -0.15
3 -0.57
30 -0.15
31 -0.15
4 -0.66
5 0.6
54 0.15
55 0.15
56 0.15
57 0.15
58 0.15
59 0.15
6 -0.58
7 -0.71
8 0.56

> <PUBCHEM_EFFECTIVE_ROTOR_COUNT>
6.8

> <PUBCHEM_PHARMACOPHORE_FEATURES>
10
1 1 acceptor
1 2 acceptor
1 3 acceptor
1 6 acceptor
1 7 acceptor
5 1 2 8 13 14 rings
5 5 7 21 24 25 rings
6 26 27 28 29 30 31 rings
6 4 8 9 10 11 12 rings
6 5 6 18 19 20 21 rings

> <PUBCHEM_HEAVY_ATOM_COUNT>
31

> <PUBCHEM_ATOM_DEF_STEREO_COUNT>
0

> <PUBCHEM_ATOM_UDEF_STEREO_COUNT>
0

> <PUBCHEM_BOND_DEF_STEREO_COUNT>
0

> <PUBCHEM_BOND_UDEF_STEREO_COUNT>
0

> <PUBCHEM_ISOTOPIC_ATOM_COUNT>
0

> <PUBCHEM_COMPONENT_COUNT>
1

> <PUBCHEM_CACTVS_TAUTO_COUNT>
1

> <PUBCHEM_CONFORMER_ID>
0031763900000001

> <PUBCHEM_MMFF94_ENERGY>
79.1608

> <PUBCHEM_FEATURE_SELFOVERLAP>
50.928

> <PUBCHEM_SHAPE_FINGERPRINT>
10 15 17603304839220888321
10066227 49 11671780464137022277
10190206 1 16128385831060197387
10369192 42 18342175558001621013
10483366 6 17274824645026995057
10670039 82 17060346192914225225
10906281 52 17917434177769564011
10917259 69 12318917777552894571
11181472 205 18129669586372367464
11386260 185 15482379941771265960
11578821 258 18260263011375462101
11973863 73 8358264782942554845
12035758 1 15719392828301696055
12218070 45 16516258464937698275
12539765 74 18410577245143373279
12758862 65 13407087980656529060
12838863 1 12175634941185224260
13383665 225 17416974920695445905
13383668 362 14925377285320203693
13540713 5 16054645889917356899
13668630 136 11312056551801652692
13782708 43 12319451112751292658
14705955 166 16153700982573471573
14849402 71 18041001769280115965
14931854 50 16128378163995323618
15064981 194 18128826432683911768
15183329 4 16845579707853021978
15188451 53 8286204946409575206
15198563 99 15697724718683761225
15347590 135 15213295313769672997
15510800 12 10087642658079581485
15690457 1 9007056855280011568
15706992 2 18261686917159927073
1577012 14 18411693305390267326
16994733 274 18334287657030688241
1754908 1 15213303014925506009
1768 4 18186805790131136465
18393751 57 16805321097902158826
19302320 297 17167865305545782060
2026 5 10807933765424509909
20505436 4 18410851070830860738
20691028 202 17970070152906867356
21033648 29 17240207633749430234
21095123 293 18341334397221046081
21130935 74 16661205833228775867
21307412 95 14764343881599301503
21344244 78 13118002184870195734
21792934 111 14417851432717862671
22002106 203 11167680742134906700
22122407 14 18261403259796881641
22224240 67 16950282889047221075
23559900 14 15769486647157252650
23576562 1 17559379448539321033
24771293 8 17240485823192060631
25269216 80 17703219737312434175
3383291 50 11818998470080122401
3711267 37 18411145722830591193
397830 11 17968105213948144211
3986486 107 16200439061211138568
406291 66 9511472117275225628
4073 2 17967254204321763203
4093350 32 18335984190698447838
4169191 19 18340485570181121597
4403749 210 17967532381533632555
474113 269 14979407158519435732
4760202 170 17703228542639618648
5104073 3 14924765819205086472
54039377 194 9799698104086321376
5718773 13 10519989270462947530
5911458 16 18341336630018269409
59682541 35 16298393452887080641
59682541 52 14836408012735735374
6081469 158 13614520753483641065
6201320 82 18128265476556652537
636775 72 17823694171820422237
9689198 14 18407763633510087431
9953998 17 16877665669460369875

> <PUBCHEM_SHAPE_MULTIPOLES>
600.43
28.35
2.37
1.77
1.99
0.07
0.16
-27.6
1.09
1.55
0.56
-0.6
0.58
-2.01

> <PUBCHEM_SHAPE_SELFOVERLAP>
1303.8

> <PUBCHEM_SHAPE_VOLUME>
325.5

> <PUBCHEM_COORDINATE_TYPE>
2
5
10

$$$$
