4877095
  -OEChem-01171809263D

 44 46  0     1  0  0  0  0  0999 V2000
   -3.4276    1.9717   -0.0355 S   0  0  0  0  0  0  0  0  0  0  0  0
    2.6090   -0.7206   -0.0219 S   0  0  0  0  0  0  0  0  0  0  0  0
   -0.5360    2.6425   -0.0383 O   0  0  0  0  0  0  0  0  0  0  0  0
    5.2668   -1.6663    0.0068 O   0  0  0  0  0  0  0  0  0  0  0  0
    6.3773    0.3499    0.0365 O   0  0  0  0  0  0  0  0  0  0  0  0
    0.2659    0.4549   -0.0444 N   0  0  0  0  0  0  0  0  0  0  0  0
    2.2383    1.8377   -0.0056 N   0  0  0  0  0  0  0  0  0  0  0  0
   -6.1953   -1.6110   -0.3262 C   0  0  1  0  0  0  0  0  0  0  0  0
   -6.7732   -0.3659    0.3815 C   0  0  0  0  0  0  0  0  0  0  0  0
   -4.7151   -1.8282    0.0617 C   0  0  0  0  0  0  0  0  0  0  0  0
   -6.0222    0.9162   -0.0128 C   0  0  0  0  0  0  0  0  0  0  0  0
   -3.9327   -0.5516    0.0129 C   0  0  0  0  0  0  0  0  0  0  0  0
   -4.5443    0.6872    0.0026 C   0  0  0  0  0  0  0  0  0  0  0  0
   -7.0211   -2.8534    0.0006 C   0  0  0  0  0  0  0  0  0  0  0  0
   -2.5107   -0.4290   -0.0021 C   0  0  0  0  0  0  0  0  0  0  0  0
   -2.1025    0.8872   -0.0294 C   0  0  0  0  0  0  0  0  0  0  0  0
   -0.7756    1.4123   -0.0515 C   0  0  0  0  0  0  0  0  0  0  0  0
    1.6463    0.6844   -0.0232 C   0  0  0  0  0  0  0  0  0  0  0  0
    3.6011    1.6127    0.0108 C   0  0  0  0  0  0  0  0  0  0  0  0
    3.9938    0.2908    0.0052 C   0  0  0  0  0  0  0  0  0  0  0  0
    4.4980    2.7864    0.0324 C   0  0  0  0  0  0  0  0  0  0  0  0
    5.2962   -0.2874    0.0172 C   0  0  0  0  0  0  0  0  0  0  0  0
    6.5161   -2.3655    0.0187 C   0  0  0  0  0  0  0  0  0  0  0  0
    6.2477   -3.8552    0.0042 C   0  0  0  0  0  0  0  0  0  0  0  0
   -6.2506   -1.4422   -1.4106 H   0  0  0  0  0  0  0  0  0  0  0  0
   -6.7089   -0.5045    1.4692 H   0  0  0  0  0  0  0  0  0  0  0  0
   -7.8360   -0.2467    0.1395 H   0  0  0  0  0  0  0  0  0  0  0  0
   -4.2647   -2.5688   -0.6103 H   0  0  0  0  0  0  0  0  0  0  0  0
   -4.6493   -2.2314    1.0805 H   0  0  0  0  0  0  0  0  0  0  0  0
   -6.3030    1.7261    0.6701 H   0  0  0  0  0  0  0  0  0  0  0  0
   -6.3244    1.2155   -1.0240 H   0  0  0  0  0  0  0  0  0  0  0  0
   -6.6216   -3.7317   -0.5172 H   0  0  0  0  0  0  0  0  0  0  0  0
   -7.0182   -3.0623    1.0757 H   0  0  0  0  0  0  0  0  0  0  0  0
   -8.0612   -2.7219   -0.3155 H   0  0  0  0  0  0  0  0  0  0  0  0
   -1.8491   -1.2852    0.0098 H   0  0  0  0  0  0  0  0  0  0  0  0
    0.0318   -0.5329   -0.0523 H   0  0  0  0  0  0  0  0  0  0  0  0
    3.9255    3.7198    0.0328 H   0  0  0  0  0  0  0  0  0  0  0  0
    5.1245    2.7796    0.9299 H   0  0  0  0  0  0  0  0  0  0  0  0
    5.1477    2.7944   -0.8485 H   0  0  0  0  0  0  0  0  0  0  0  0
    7.0977   -2.0826   -0.8654 H   0  0  0  0  0  0  0  0  0  0  0  0
    7.0735   -2.0956    0.9222 H   0  0  0  0  0  0  0  0  0  0  0  0
    7.1833   -4.4213    0.0127 H   0  0  0  0  0  0  0  0  0  0  0  0
    5.6493   -4.1472    0.8735 H   0  0  0  0  0  0  0  0  0  0  0  0
    5.6731   -4.1344   -0.8851 H   0  0  0  0  0  0  0  0  0  0  0  0
  1 13  1  0  0  0  0
  1 16  1  0  0  0  0
  2 18  1  0  0  0  0
  2 20  1  0  0  0  0
  3 17  2  0  0  0  0
  4 22  1  0  0  0  0
  4 23  1  0  0  0  0
  5 22  2  0  0  0  0
  6 17  1  0  0  0  0
  6 18  1  0  0  0  0
  6 36  1  0  0  0  0
  7 18  2  0  0  0  0
  7 19  1  0  0  0  0
  8  9  1  0  0  0  0
  8 10  1  0  0  0  0
  8 14  1  0  0  0  0
  8 25  1  0  0  0  0
  9 11  1  0  0  0  0
  9 26  1  0  0  0  0
  9 27  1  0  0  0  0
 10 12  1  0  0  0  0
 10 28  1  0  0  0  0
 10 29  1  0  0  0  0
 11 13  1  0  0  0  0
 11 30  1  0  0  0  0
 11 31  1  0  0  0  0
 12 13  2  0  0  0  0
 12 15  1  0  0  0  0
 14 32  1  0  0  0  0
 14 33  1  0  0  0  0
 14 34  1  0  0  0  0
 15 16  2  0  0  0  0
 15 35  1  0  0  0  0
 16 17  1  0  0  0  0
 19 20  2  0  0  0  0
 19 21  1  0  0  0  0
 20 22  1  0  0  0  0
 21 37  1  0  0  0  0
 21 38  1  0  0  0  0
 21 39  1  0  0  0  0
 23 24  1  0  0  0  0
 23 40  1  0  0  0  0
 23 41  1  0  0  0  0
 24 42  1  0  0  0  0
 24 43  1  0  0  0  0
 24 44  1  0  0  0  0
M  END
> <PUBCHEM_COMPOUND_CID>
4877095

> <PUBCHEM_CONFORMER_RMSD>
0.8

> <PUBCHEM_CONFORMER_DIVERSEORDER>
1
55
42
17
27
33
5
31
46
56
20
57
53
50
3
32
49
19
9
15
51
40
37
28
22
39
6
41
34
11
36
38
4
44
43
54
47
25
23
13
58
52
8
29
24
14
48
12
30
26
21
2
35
10
16
45
7
18

> <PUBCHEM_MMFF94_PARTIAL_CHARGES>
22
1 -0.08
10 0.18
11 0.18
12 -0.18
13 -0.14
15 -0.15
16 -0.05
17 0.71
18 0.44
19 0.05
2 -0.08
20 -0.05
21 0.18
22 0.81
23 0.28
3 -0.57
35 0.15
36 0.37
4 -0.43
5 -0.57
6 -0.49
7 -0.57

> <PUBCHEM_EFFECTIVE_ROTOR_COUNT>
6.8

> <PUBCHEM_PHARMACOPHORE_FEATURES>
6
1 3 acceptor
1 5 acceptor
1 6 donor
5 1 12 13 15 16 rings
5 2 7 18 19 20 rings
6 8 9 10 11 12 13 rings

> <PUBCHEM_HEAVY_ATOM_COUNT>
24

> <PUBCHEM_ATOM_DEF_STEREO_COUNT>
0

> <PUBCHEM_ATOM_UDEF_STEREO_COUNT>
1

> <PUBCHEM_BOND_DEF_STEREO_COUNT>
0

> <PUBCHEM_BOND_UDEF_STEREO_COUNT>
0

> <PUBCHEM_ISOTOPIC_ATOM_COUNT>
0

> <PUBCHEM_COMPONENT_COUNT>
1

> <PUBCHEM_CACTVS_TAUTO_COUNT>
4

> <PUBCHEM_CONFORMER_ID>
004A6B2700000001

> <PUBCHEM_MMFF94_ENERGY>
35.2382

> <PUBCHEM_FEATURE_SELFOVERLAP>
30.502

> <PUBCHEM_SHAPE_FINGERPRINT>
10050765 1 18338516344524056512
10595046 47 18411141367743906096
10622 236 17627493163235886063
11315181 36 18272092725618240497
11524674 6 16845573132490389791
117089 54 17984149154524872358
11719270 70 17988924453060032158
11991303 11 14418146126849218890
12107183 9 18053390894318568505
12166972 35 18187086173664220116
12236239 1 18412265073307251049
12516196 113 18272932764822501097
12616971 3 17418085542232212132
13073987 5 18272088322401400105
13288520 33 18410292541273603381
13533116 47 18410293627451975424
1361 4 18338236084516285723
13685833 64 18411139134133409274
13782708 43 18260544506871141494
13955234 65 18200587129404416464
14211702 104 18412553097497379342
14347332 77 18261951834947878344
14420673 8 18410295787999951283
14461889 52 18193551392593535120
14556957 393 15141536731281375262
15196674 1 18410855490551953813
17492 89 18410854335316482004
17844677 252 18411143540986899297
18335252 98 18264210373138145721
1979834 28 17131552735557760366
20028762 73 18413106130925546314
21033648 29 14045471007791372417
21033650 10 16516245115957548821
21130935 74 18342176700167632859
21197605 99 18342459274741062286
21267235 1 18410579482715072669
21585483 132 18337934758301596423
21682296 61 18408890624739660411
23522609 53 18122660259833639600
23559900 14 18410848889213892697
23569943 247 18116431427783212114
3004659 81 18187080659099758840
3472631 163 8214138569100035424
4073 2 18042690670616086386
4214541 1 18410573977158200141
465052 167 18343866610969033030
5104073 3 18060138725937467600
559249 180 18411417315872504295
5718773 13 18410290298335726478
6138700 20 18408323259612846667
999808 66 17968669323780151443

> <PUBCHEM_SHAPE_MULTIPOLES>
474.04
21.24
3.44
0.62
0.48
1.94
0
16.23
0.39
-3.56
-0.03
0.13
0.02
-0.05

> <PUBCHEM_SHAPE_SELFOVERLAP>
979.811

> <PUBCHEM_SHAPE_VOLUME>
273.8

> <PUBCHEM_COORDINATE_TYPE>
2
5
10

$$$$
