16326659
  -OEChem-01171810103D

 60 64  0     1  0  0  0  0  0999 V2000
   -7.6932   -4.1649    1.3712 Cl  0  0  0  0  0  0  0  0  0  0  0  0
    7.7021   -0.7355    1.3337 S   0  0  0  0  0  0  0  0  0  0  0  0
    7.9835   -1.8061    2.2672 O   0  0  0  0  0  0  0  0  0  0  0  0
    8.3700    0.5476    1.4026 O   0  0  0  0  0  0  0  0  0  0  0  0
   -0.0466    1.9376   -1.8996 O   0  0  0  0  0  0  0  0  0  0  0  0
   -1.9673    4.2126   -0.1001 O   0  0  0  0  0  0  0  0  0  0  0  0
    4.1329   -0.8012   -0.3691 N   0  0  0  0  0  0  0  0  0  0  0  0
    1.5117   -0.1655   -1.4100 N   0  0  0  0  0  0  0  0  0  0  0  0
   -1.9065    0.8809   -1.0288 N   0  0  0  0  0  0  0  0  0  0  0  0
   -2.5109   -0.2935   -0.6867 N   0  0  0  0  0  0  0  0  0  0  0  0
    5.5602   -0.5421   -0.1902 C   0  0  1  0  0  0  0  0  0  0  0  0
    5.9344   -0.4641    1.2906 C   0  0  0  0  0  0  0  0  0  0  0  0
    6.4222   -1.6654   -0.7774 C   0  0  0  0  0  0  0  0  0  0  0  0
    7.8510   -1.3680   -0.3318 C   0  0  0  0  0  0  0  0  0  0  0  0
    3.3300    0.2875    0.2009 C   0  0  0  0  0  0  0  0  0  0  0  0
    3.8107   -0.9869   -1.7893 C   0  0  0  0  0  0  0  0  0  0  0  0
    1.8330    0.0196    0.0105 C   0  0  0  0  0  0  0  0  0  0  0  0
    2.3138   -1.2556   -1.9785 C   0  0  0  0  0  0  0  0  0  0  0  0
    0.0843   -0.4228   -1.5899 C   0  0  0  0  0  0  0  0  0  0  0  0
   -0.6170    0.9119   -1.5254 C   0  0  0  0  0  0  0  0  0  0  0  0
   -2.7837    2.0419   -0.8714 C   0  0  1  0  0  0  0  0  0  0  0  0
   -4.1452    1.4229   -0.5912 C   0  0  0  0  0  0  0  0  0  0  0  0
   -3.7495   -0.0218   -0.4065 C   0  0  0  0  0  0  0  0  0  0  0  0
   -2.2933    2.9404    0.2480 C   0  0  0  0  0  0  0  0  0  0  0  0
   -4.7234   -1.0451    0.0330 C   0  0  0  0  0  0  0  0  0  0  0  0
   -2.0972    2.7428    1.5951 C   0  0  0  0  0  0  0  0  0  0  0  0
   -1.6201    3.9728    2.1075 C   0  0  0  0  0  0  0  0  0  0  0  0
   -6.0465   -0.6845    0.2883 C   0  0  0  0  0  0  0  0  0  0  0  0
   -4.3188   -2.3706    0.1916 C   0  0  0  0  0  0  0  0  0  0  0  0
   -1.5586    4.8344    1.0372 C   0  0  0  0  0  0  0  0  0  0  0  0
   -6.9649   -1.6492    0.7022 C   0  0  0  0  0  0  0  0  0  0  0  0
   -5.2372   -3.3354    0.6055 C   0  0  0  0  0  0  0  0  0  0  0  0
   -6.5602   -2.9747    0.8609 C   0  0  0  0  0  0  0  0  0  0  0  0
    5.8447    0.4017   -0.6787 H   0  0  0  0  0  0  0  0  0  0  0  0
    5.7209    0.5081    1.7416 H   0  0  0  0  0  0  0  0  0  0  0  0
    5.4690   -1.2628    1.8779 H   0  0  0  0  0  0  0  0  0  0  0  0
    6.1082   -2.6408   -0.3840 H   0  0  0  0  0  0  0  0  0  0  0  0
    6.3979   -1.7137   -1.8702 H   0  0  0  0  0  0  0  0  0  0  0  0
    8.4843   -2.2574   -0.3347 H   0  0  0  0  0  0  0  0  0  0  0  0
    8.3006   -0.5841   -0.9484 H   0  0  0  0  0  0  0  0  0  0  0  0
    3.5928    1.2514   -0.2560 H   0  0  0  0  0  0  0  0  0  0  0  0
    3.5000    0.3781    1.2793 H   0  0  0  0  0  0  0  0  0  0  0  0
    4.3242   -1.8600   -2.2041 H   0  0  0  0  0  0  0  0  0  0  0  0
    4.1089   -0.1106   -2.3806 H   0  0  0  0  0  0  0  0  0  0  0  0
    1.2817    0.8742    0.4207 H   0  0  0  0  0  0  0  0  0  0  0  0
    1.5438   -0.8637    0.5967 H   0  0  0  0  0  0  0  0  0  0  0  0
    2.0473   -2.2171   -1.5186 H   0  0  0  0  0  0  0  0  0  0  0  0
    2.1151   -1.3412   -3.0539 H   0  0  0  0  0  0  0  0  0  0  0  0
   -0.2831   -1.1481   -0.8575 H   0  0  0  0  0  0  0  0  0  0  0  0
   -0.1243   -0.8200   -2.5914 H   0  0  0  0  0  0  0  0  0  0  0  0
   -2.7878    2.6068   -1.8114 H   0  0  0  0  0  0  0  0  0  0  0  0
   -4.8003    1.5009   -1.4653 H   0  0  0  0  0  0  0  0  0  0  0  0
   -4.6448    1.8328    0.2902 H   0  0  0  0  0  0  0  0  0  0  0  0
   -2.2744    1.8277    2.1420 H   0  0  0  0  0  0  0  0  0  0  0  0
   -1.3540    4.2024    3.1290 H   0  0  0  0  0  0  0  0  0  0  0  0
   -6.3988    0.3356    0.1708 H   0  0  0  0  0  0  0  0  0  0  0  0
   -3.2942   -2.6773   -0.0004 H   0  0  0  0  0  0  0  0  0  0  0  0
   -1.2615    5.8667    0.9243 H   0  0  0  0  0  0  0  0  0  0  0  0
   -7.9930   -1.3545    0.8965 H   0  0  0  0  0  0  0  0  0  0  0  0
   -4.9079   -4.3645    0.7249 H   0  0  0  0  0  0  0  0  0  0  0  0
  1 33  1  0  0  0  0
  2  3  2  0  0  0  0
  2  4  2  0  0  0  0
  2 12  1  0  0  0  0
  2 14  1  0  0  0  0
  5 20  2  0  0  0  0
  6 24  1  0  0  0  0
  6 30  1  0  0  0  0
  7 11  1  0  0  0  0
  7 15  1  0  0  0  0
  7 16  1  0  0  0  0
  8 17  1  0  0  0  0
  8 18  1  0  0  0  0
  8 19  1  0  0  0  0
  9 10  1  0  0  0  0
  9 20  1  0  0  0  0
  9 21  1  0  0  0  0
 10 23  2  0  0  0  0
 11 12  1  0  0  0  0
 11 13  1  0  0  0  0
 11 34  1  0  0  0  0
 12 35  1  0  0  0  0
 12 36  1  0  0  0  0
 13 14  1  0  0  0  0
 13 37  1  0  0  0  0
 13 38  1  0  0  0  0
 14 39  1  0  0  0  0
 14 40  1  0  0  0  0
 15 17  1  0  0  0  0
 15 41  1  0  0  0  0
 15 42  1  0  0  0  0
 16 18  1  0  0  0  0
 16 43  1  0  0  0  0
 16 44  1  0  0  0  0
 17 45  1  0  0  0  0
 17 46  1  0  0  0  0
 18 47  1  0  0  0  0
 18 48  1  0  0  0  0
 19 20  1  0  0  0  0
 19 49  1  0  0  0  0
 19 50  1  0  0  0  0
 21 22  1  0  0  0  0
 21 24  1  0  0  0  0
 21 51  1  0  0  0  0
 22 23  1  0  0  0  0
 22 52  1  0  0  0  0
 22 53  1  0  0  0  0
 23 25  1  0  0  0  0
 24 26  2  0  0  0  0
 25 28  2  0  0  0  0
 25 29  1  0  0  0  0
 26 27  1  0  0  0  0
 26 54  1  0  0  0  0
 27 30  2  0  0  0  0
 27 55  1  0  0  0  0
 28 31  1  0  0  0  0
 28 56  1  0  0  0  0
 29 32  2  0  0  0  0
 29 57  1  0  0  0  0
 30 58  1  0  0  0  0
 31 33  2  0  0  0  0
 31 59  1  0  0  0  0
 32 33  1  0  0  0  0
 32 60  1  0  0  0  0
M  END
> <PUBCHEM_COMPOUND_CID>
16326659

> <PUBCHEM_CONFORMER_RMSD>
1.2

> <PUBCHEM_CONFORMER_DIVERSEORDER>
1
29
53
108
45
101
63
105
65
3
60
123
84
110
38
125
7
66
49
59
34
119
111
64
41
23
52
127
16
114
46
47
78
126
72
120
80
28
67
20
32
98
99
11
30
25
22
103
8
36
96
102
18
21
51
124
27
104
14
55
118
97
79
57
62
92
17
26
116
6
9
115
85
48
39
68
121
24
81
106
5
117
58
56
76
89
109
90
86
75
69
71
42
95
43
87
35
54
113
112
77
88
33
61
13
100
93
122
37
94
82
40
31
107
15
50
4
10
74
83
73
12
91
70
44
2
19

> <PUBCHEM_MMFF94_PARTIAL_CHARGES>
39
1 -0.18
10 -0.51
11 0.27
12 0.11
14 0.11
15 0.27
16 0.27
17 0.27
18 0.27
19 0.33
2 1.09
20 0.57
21 0.48
22 0.06
23 0.3
24 -0.04
25 0.09
26 -0.15
27 -0.15
28 -0.15
29 -0.15
3 -0.65
30 -0.01
31 -0.15
32 -0.15
33 0.18
4 -0.65
5 -0.57
54 0.15
55 0.15
56 0.15
57 0.15
58 0.15
59 0.15
6 -0.28
60 0.15
7 -0.81
8 -0.81
9 -0.3

> <PUBCHEM_EFFECTIVE_ROTOR_COUNT>
8.6

> <PUBCHEM_PHARMACOPHORE_FEATURES>
12
1 10 acceptor
1 3 acceptor
1 4 acceptor
1 5 acceptor
1 6 acceptor
1 7 cation
1 8 cation
5 2 11 12 13 14 rings
5 6 24 26 27 30 rings
5 9 10 21 22 23 rings
6 25 28 29 31 32 33 rings
6 7 8 15 16 17 18 rings

> <PUBCHEM_HEAVY_ATOM_COUNT>
33

> <PUBCHEM_ATOM_DEF_STEREO_COUNT>
0

> <PUBCHEM_ATOM_UDEF_STEREO_COUNT>
2

> <PUBCHEM_BOND_DEF_STEREO_COUNT>
0

> <PUBCHEM_BOND_UDEF_STEREO_COUNT>
0

> <PUBCHEM_ISOTOPIC_ATOM_COUNT>
0

> <PUBCHEM_COMPONENT_COUNT>
1

> <PUBCHEM_CACTVS_TAUTO_COUNT>
1

> <PUBCHEM_CONFORMER_ID>
00F9200300000001

> <PUBCHEM_MMFF94_ENERGY>
65.0657

> <PUBCHEM_FEATURE_SELFOVERLAP>
60.918

> <PUBCHEM_SHAPE_FINGERPRINT>
10 15 18201711865358718910
10100884 174 18186802513177397290
11146346 171 18341618106456353006
11200772 48 10881404244287098833
11297750 10 18262794211907013725
11399510 152 18058726897711118850
11443803 9 16735224887392250949
12218070 45 16915935356902943863
12342043 65 17128774251903723103
12895837 130 10879697810751772642
13073987 5 18199464373365725990
13540713 4 17487349135832555436
14068700 675 18260271879864579957
15131766 46 14907888341272322243
15183329 4 10665219346318623086
15347590 135 18412544310310913802
15419008 47 18059853978395708960
16990366 60 18191592058884215555
16993427 108 18334569187805602323
17686467 74 18336259116203544428
18603816 31 15285365006772289120
19315092 285 18113901597556294564
19611394 137 18343018908604567680
20721686 146 12031247086925991587
21130935 74 18189327988849924154
21315759 148 18201441316684078542
21344244 78 17273441541652250483
21639891 77 18410009949632302165
21814621 53 17843959248850656290
22956985 138 17907292505499511365
23523787 8 13262950888684911265
23569943 247 17245250926837033010
2747138 104 18272657839860411766
32027 91 18122345950955180983
3383291 50 18041282157361575923
3418910 222 18411708703629472884
3886686 26 17760931736448879791
397830 11 18410849993415528964
406291 66 17821727273043133203
4144715 1 18055642707443903534
50009960 94 18052820536317337951
5104073 3 18056758724710359398
6376802 137 18409739486354971161
96874 4 17530960306570811330
9896288 288 18269276759784200843
9953998 17 18272652338070758163
9962374 69 17913214437142797359

> <PUBCHEM_SHAPE_MULTIPOLES>
641.44
23.36
5.05
1.88
30.61
5.06
0.09
-27.44
12.76
-11.07
2.89
1.87
0.23
1.7

> <PUBCHEM_SHAPE_SELFOVERLAP>
1359.133

> <PUBCHEM_SHAPE_VOLUME>
363

> <PUBCHEM_COORDINATE_TYPE>
2
5
10

$$$$
