49791133
  -OEChem-01171810193D

 54 56  0     1  0  0  0  0  0999 V2000
    2.2593   -3.3341    0.8439 S   0  0  0  0  0  0  0  0  0  0  0  0
   -0.6030    0.0803   -0.5516 O   0  0  0  0  0  0  0  0  0  0  0  0
    4.2734   -0.3983   -2.4315 N   0  0  0  0  0  0  0  0  0  0  0  0
    2.1674   -1.0539   -0.3705 N   0  0  0  0  0  0  0  0  0  0  0  0
    0.0765   -1.9415    0.4323 N   0  0  0  0  0  0  0  0  0  0  0  0
   -2.1761   -1.3294    0.4520 N   0  0  0  0  0  0  0  0  0  0  0  0
    4.6011    0.7969   -0.3227 C   0  0  0  0  0  0  0  0  0  0  0  0
    5.6338    1.6915   -1.0215 C   0  0  0  0  0  0  0  0  0  0  0  0
    4.9278    0.6484    1.1695 C   0  0  0  0  0  0  0  0  0  0  0  0
    5.0590    2.0062    1.8558 C   0  0  0  0  0  0  0  0  0  0  0  0
    5.7639    3.0476   -0.3316 C   0  0  0  0  0  0  0  0  0  0  0  0
    6.0798    2.8957    1.1531 C   0  0  0  0  0  0  0  0  0  0  0  0
    4.5280   -0.5714   -0.9977 C   0  0  1  0  0  0  0  0  0  0  0  0
    3.4859   -1.4656   -0.3535 C   0  0  0  0  0  0  0  0  0  0  0  0
    3.7315   -2.6758    0.2605 C   0  0  0  0  0  0  0  0  0  0  0  0
    1.4314   -1.9609    0.2325 C   0  0  0  0  0  0  0  0  0  0  0  0
   -7.0597    1.4992   -0.3201 C   0  0  0  0  0  0  0  0  0  0  0  0
   -5.7807    0.7592   -0.1173 C   0  0  0  0  0  0  0  0  0  0  0  0
   -0.8853   -0.9519    0.0484 C   0  0  0  0  0  0  0  0  0  0  0  0
   -3.3888   -0.6260    0.2612 C   0  0  0  0  0  0  0  0  0  0  0  0
   -8.0620    0.7157   -1.1887 C   0  0  0  0  0  0  0  0  0  0  0  0
   -7.7241    1.9020    1.0100 C   0  0  0  0  0  0  0  0  0  0  0  0
   -4.5825    1.2943   -0.5901 C   0  0  0  0  0  0  0  0  0  0  0  0
   -5.7831   -0.4688    0.5446 C   0  0  0  0  0  0  0  0  0  0  0  0
   -3.3865    0.6019   -0.4008 C   0  0  0  0  0  0  0  0  0  0  0  0
   -4.5871   -1.1613    0.7338 C   0  0  0  0  0  0  0  0  0  0  0  0
    3.6222    1.2934   -0.4009 H   0  0  0  0  0  0  0  0  0  0  0  0
    6.6138    1.1976   -1.0355 H   0  0  0  0  0  0  0  0  0  0  0  0
    5.3555    1.8904   -2.0619 H   0  0  0  0  0  0  0  0  0  0  0  0
    4.1475    0.0832    1.6909 H   0  0  0  0  0  0  0  0  0  0  0  0
    5.8649    0.0907    1.2947 H   0  0  0  0  0  0  0  0  0  0  0  0
    6.5521    3.6343   -0.8170 H   0  0  0  0  0  0  0  0  0  0  0  0
    4.8289    3.6091   -0.4500 H   0  0  0  0  0  0  0  0  0  0  0  0
    4.0828    2.5067    1.8642 H   0  0  0  0  0  0  0  0  0  0  0  0
    5.3535    1.8635    2.9017 H   0  0  0  0  0  0  0  0  0  0  0  0
    7.0815    2.4643    1.2706 H   0  0  0  0  0  0  0  0  0  0  0  0
    6.0991    3.8825    1.6292 H   0  0  0  0  0  0  0  0  0  0  0  0
    5.5021   -1.0708   -0.9022 H   0  0  0  0  0  0  0  0  0  0  0  0
    4.1540   -1.3137   -2.8661 H   0  0  0  0  0  0  0  0  0  0  0  0
    5.0921    0.0033   -2.8862 H   0  0  0  0  0  0  0  0  0  0  0  0
    4.6726   -3.1906    0.3924 H   0  0  0  0  0  0  0  0  0  0  0  0
   -0.2861   -2.7528    0.9258 H   0  0  0  0  0  0  0  0  0  0  0  0
   -6.8473    2.4338   -0.8571 H   0  0  0  0  0  0  0  0  0  0  0  0
   -8.3976   -0.2044   -0.6983 H   0  0  0  0  0  0  0  0  0  0  0  0
   -7.0309    2.4794    1.6318 H   0  0  0  0  0  0  0  0  0  0  0  0
   -8.6072    2.5233    0.8251 H   0  0  0  0  0  0  0  0  0  0  0  0
   -8.0459    1.0291    1.5880 H   0  0  0  0  0  0  0  0  0  0  0  0
   -7.6119    0.4393   -2.1487 H   0  0  0  0  0  0  0  0  0  0  0  0
   -8.9484    1.3251   -1.3961 H   0  0  0  0  0  0  0  0  0  0  0  0
   -4.5642    2.2498   -1.1079 H   0  0  0  0  0  0  0  0  0  0  0  0
   -6.7046   -0.9044    0.9209 H   0  0  0  0  0  0  0  0  0  0  0  0
   -2.2580   -2.2166    0.9424 H   0  0  0  0  0  0  0  0  0  0  0  0
   -2.5027    1.0821   -0.7954 H   0  0  0  0  0  0  0  0  0  0  0  0
   -4.6026   -2.1173    1.2509 H   0  0  0  0  0  0  0  0  0  0  0  0
  1 15  1  0  0  0  0
  1 16  1  0  0  0  0
  2 19  2  0  0  0  0
  3 13  1  0  0  0  0
  3 39  1  0  0  0  0
  3 40  1  0  0  0  0
  4 14  1  0  0  0  0
  4 16  2  0  0  0  0
  5 16  1  0  0  0  0
  5 19  1  0  0  0  0
  5 42  1  0  0  0  0
  6 19  1  0  0  0  0
  6 20  1  0  0  0  0
  6 52  1  0  0  0  0
  7  8  1  0  0  0  0
  7  9  1  0  0  0  0
  7 13  1  0  0  0  0
  7 27  1  0  0  0  0
  8 11  1  0  0  0  0
  8 28  1  0  0  0  0
  8 29  1  0  0  0  0
  9 10  1  0  0  0  0
  9 30  1  0  0  0  0
  9 31  1  0  0  0  0
 10 12  1  0  0  0  0
 10 34  1  0  0  0  0
 10 35  1  0  0  0  0
 11 12  1  0  0  0  0
 11 32  1  0  0  0  0
 11 33  1  0  0  0  0
 12 36  1  0  0  0  0
 12 37  1  0  0  0  0
 13 14  1  0  0  0  0
 13 38  1  0  0  0  0
 14 15  2  0  0  0  0
 15 41  1  0  0  0  0
 17 18  1  0  0  0  0
 17 21  1  0  0  0  0
 17 22  1  0  0  0  0
 17 43  1  0  0  0  0
 18 23  2  0  0  0  0
 18 24  1  0  0  0  0
 20 25  2  0  0  0  0
 20 26  1  0  0  0  0
 21 44  1  0  0  0  0
 21 48  1  0  0  0  0
 21 49  1  0  0  0  0
 22 45  1  0  0  0  0
 22 46  1  0  0  0  0
 22 47  1  0  0  0  0
 23 25  1  0  0  0  0
 23 50  1  0  0  0  0
 24 26  2  0  0  0  0
 24 51  1  0  0  0  0
 25 53  1  0  0  0  0
 26 54  1  0  0  0  0
M  END
> <PUBCHEM_COMPOUND_CID>
49791133

> <PUBCHEM_CONFORMER_RMSD>
0.8

> <PUBCHEM_CONFORMER_DIVERSEORDER>
1
110
59
83
104
93
101
69
25
105
10
70
91
74
78
54
44
29
88
96
109
76
58
12
103
97
11
107
94
61
37
48
43
81
89
20
36
98
111
47
4
84
99
62
53
35
55
68
72
34
73
27
52
65
75
57
5
64
45
46
30
32
80
82
7
60
41
66
13
56
108
39
26
71
40
63
24
50
86
79
9
2
8
100
31
87
18
85
33
67
17
42
92
19
77
106
38
22
6
95
21
14
102
23
49
16
90
51
15
28
3

> <PUBCHEM_MMFF94_PARTIAL_CHARGES>
27
1 -0.08
13 0.45
14 0.05
15 -0.11
16 0.44
17 0.14
18 -0.14
19 0.69
2 -0.57
20 0.12
23 -0.15
24 -0.15
25 -0.15
26 -0.15
3 -0.99
39 0.36
4 -0.57
40 0.36
41 0.15
42 0.37
5 -0.49
50 0.15
51 0.15
52 0.37
53 0.15
54 0.15
6 -0.55

> <PUBCHEM_EFFECTIVE_ROTOR_COUNT>
8.2

> <PUBCHEM_PHARMACOPHORE_FEATURES>
9
1 2 acceptor
1 3 cation
1 3 donor
1 5 donor
1 6 donor
3 17 21 22 hydrophobe
5 1 4 14 15 16 rings
6 18 20 23 24 25 26 rings
6 7 8 9 10 11 12 rings

> <PUBCHEM_HEAVY_ATOM_COUNT>
26

> <PUBCHEM_ATOM_DEF_STEREO_COUNT>
0

> <PUBCHEM_ATOM_UDEF_STEREO_COUNT>
1

> <PUBCHEM_BOND_DEF_STEREO_COUNT>
0

> <PUBCHEM_BOND_UDEF_STEREO_COUNT>
0

> <PUBCHEM_ISOTOPIC_ATOM_COUNT>
0

> <PUBCHEM_COMPONENT_COUNT>
1

> <PUBCHEM_CACTVS_TAUTO_COUNT>
5

> <PUBCHEM_CONFORMER_ID>
02F7C09D00000001

> <PUBCHEM_MMFF94_ENERGY>
49.6063

> <PUBCHEM_FEATURE_SELFOVERLAP>
45.714

> <PUBCHEM_SHAPE_FINGERPRINT>
10 15 17313108549089917765
10391435 84 17822295721867808251
10411042 1 17832140521018007034
10638233 991 18201441329447537593
10666366 153 10735884959094371617
10835480 77 18335138696326227169
11211813 74 18337950096388835637
11408170 253 17558840481958238073
125118 31 18041562417452638069
12539765 74 17845660240598979047
12661589 4 9871458851000702008
13383661 66 12109435536484343400
13533116 47 18263364685704211707
13782708 43 10375866369010891729
13878862 14 18336529543970105510
13955234 65 18188206473303175506
14211702 104 9367334955940838189
14251757 52 18060137609720528833
14347332 77 9439409029763045219
14461889 52 17822019726467527163
14565420 104 18261105288298991778
14598715 104 17458897147035658933
14931854 50 17774454866567064416
15183329 4 16415483752847745209
15400415 2 18187089421493140467
155225 6 18116439335266571820
18335252 114 17846502530840524788
19301679 30 11170184341866852527
19427546 62 18408041801531714314
1979834 28 17967253083455890438
20511986 3 18186794773735337455
20691028 202 18411139121818557373
20715895 44 18410011078833836584
21033648 29 18187369856306452506
21049683 118 17968085452355456898
21130935 74 18261679173814434571
21150785 3 17346591989802147255
21585482 310 8574440845583606400
21792934 111 17677041331695777125
22864921 267 13984928585518986657
23081809 10 18130499727127625787
23522609 53 17774173301564579673
23559900 14 17968383334023010082
23569914 2 17391304690497212045
249057 25 17560524984466909931
2748736 6 18336822082365936164
3411729 13 18334852827534981442
3472631 163 18272652367803181446
34797466 226 17989211417252522471
3504750 166 11097851900914783435
3918712 181 18338799021954499128
4073 2 18187088381889158147
4093350 32 17703796894442527277
44249763 50 18058440070555843014
44317340 157 18272373061647954326
444735 82 18336547127804221933
44555599 121 18058174929972931449
445580 126 18411973664081461888
445580 167 18341603833725296103
465052 167 8286207149854171634
5104073 3 18113340773917503923
5109719 28 18263374731680040817
5372103 7 15553018131270786440
57091435 61 18410855477835824672
59682541 52 16845300427810289324
6695519 79 18193302833993545691
6898599 12 18201153373202082415
960060 61 14476965597158367854
9658208 31 18262531402526199302
9849439 229 18261673783297447054

> <PUBCHEM_SHAPE_MULTIPOLES>
513.12
22.91
3.38
1.35
30.62
0.36
-0.18
-19.01
-0.21
-6.01
1
-1.58
-0.42
1.16

> <PUBCHEM_SHAPE_SELFOVERLAP>
1059.461

> <PUBCHEM_SHAPE_VOLUME>
295.4

> <PUBCHEM_COORDINATE_TYPE>
2
5
10

$$$$
