5342475
  -OEChem-01171810013D

 42 45  0     0  0  0  0  0  0999 V2000
    6.0355    3.1779   -0.0421 O   0  0  0  0  0  0  0  0  0  0  0  0
   -5.9911    3.1505    0.0764 O   0  0  0  0  0  0  0  0  0  0  0  0
   -1.2054   -0.9391    0.0033 N   0  0  0  0  0  0  0  0  0  0  0  0
    1.1710   -0.9479   -0.0215 N   0  0  0  0  0  0  0  0  0  0  0  0
   -1.3133    0.4372    0.0017 C   0  0  0  0  0  0  0  0  0  0  0  0
    1.1158    0.4377   -0.0318 C   0  0  0  0  0  0  0  0  0  0  0  0
    0.0244   -1.5829   -0.0088 C   0  0  0  0  0  0  0  0  0  0  0  0
   -0.0387    1.1398   -0.0161 C   0  0  0  0  0  0  0  0  0  0  0  0
   -2.4737    1.1102    0.0200 C   0  0  0  0  0  0  0  0  0  0  0  0
    2.4091    1.1584   -0.0338 C   0  0  0  0  0  0  0  0  0  0  0  0
    0.0624   -3.0784   -0.0023 C   0  0  0  0  0  0  0  0  0  0  0  0
   -2.4770    2.5648    0.0217 C   0  0  0  0  0  0  0  0  0  0  0  0
   -3.7377    0.3909    0.0375 C   0  0  0  0  0  0  0  0  0  0  0  0
    3.0280    1.4860    1.1725 C   0  0  0  0  0  0  0  0  0  0  0  0
    3.0090    1.5097   -1.2432 C   0  0  0  0  0  0  0  0  0  0  0  0
    1.1309   -3.7383    0.5956 C   0  0  0  0  0  0  0  0  0  0  0  0
   -0.9713   -3.7970   -0.5937 C   0  0  0  0  0  0  0  0  0  0  0  0
    4.2466    2.1648    1.1696 C   0  0  0  0  0  0  0  0  0  0  0  0
    4.2276    2.1885   -1.2463 C   0  0  0  0  0  0  0  0  0  0  0  0
   -3.6267    3.2518    0.0402 C   0  0  0  0  0  0  0  0  0  0  0  0
   -4.9050    1.0475    0.0562 C   0  0  0  0  0  0  0  0  0  0  0  0
    4.8465    2.5160   -0.0399 C   0  0  0  0  0  0  0  0  0  0  0  0
    1.1663   -5.1326    0.6020 C   0  0  0  0  0  0  0  0  0  0  0  0
   -0.9358   -5.1914   -0.5872 C   0  0  0  0  0  0  0  0  0  0  0  0
   -4.9304    2.5353    0.0593 C   0  0  0  0  0  0  0  0  0  0  0  0
    0.1330   -5.8592    0.0107 C   0  0  0  0  0  0  0  0  0  0  0  0
    0.0461    2.2170   -0.0170 H   0  0  0  0  0  0  0  0  0  0  0  0
   -2.0546   -1.4852    0.0546 H   0  0  0  0  0  0  0  0  0  0  0  0
   -1.5843    3.1724    0.0088 H   0  0  0  0  0  0  0  0  0  0  0  0
   -3.7840   -0.6908    0.0331 H   0  0  0  0  0  0  0  0  0  0  0  0
    2.5730    1.2183    2.1231 H   0  0  0  0  0  0  0  0  0  0  0  0
    2.5391    1.2606   -2.1917 H   0  0  0  0  0  0  0  0  0  0  0  0
    1.9427   -3.1936    1.0697 H   0  0  0  0  0  0  0  0  0  0  0  0
   -1.8066   -3.3048   -1.0831 H   0  0  0  0  0  0  0  0  0  0  0  0
    4.7185    2.4140    2.1163 H   0  0  0  0  0  0  0  0  0  0  0  0
    4.6901    2.4592   -2.1916 H   0  0  0  0  0  0  0  0  0  0  0  0
   -3.6427    4.3356    0.0417 H   0  0  0  0  0  0  0  0  0  0  0  0
   -5.8529    0.5223    0.0682 H   0  0  0  0  0  0  0  0  0  0  0  0
    1.9976   -5.6528    1.0689 H   0  0  0  0  0  0  0  0  0  0  0  0
   -1.7381   -5.7576   -1.0513 H   0  0  0  0  0  0  0  0  0  0  0  0
    0.1609   -6.9449    0.0151 H   0  0  0  0  0  0  0  0  0  0  0  0
    6.3178    3.3221    0.8774 H   0  0  0  0  0  0  0  0  0  0  0  0
  1 22  1  0  0  0  0
  1 42  1  0  0  0  0
  2 25  2  0  0  0  0
  3  5  1  0  0  0  0
  3  7  1  0  0  0  0
  3 28  1  0  0  0  0
  4  6  1  0  0  0  0
  4  7  2  0  0  0  0
  5  8  1  0  0  0  0
  5  9  2  0  0  0  0
  6  8  2  0  0  0  0
  6 10  1  0  0  0  0
  7 11  1  0  0  0  0
  8 27  1  0  0  0  0
  9 12  1  0  0  0  0
  9 13  1  0  0  0  0
 10 14  2  0  0  0  0
 10 15  1  0  0  0  0
 11 16  2  0  0  0  0
 11 17  1  0  0  0  0
 12 20  2  0  0  0  0
 12 29  1  0  0  0  0
 13 21  2  0  0  0  0
 13 30  1  0  0  0  0
 14 18  1  0  0  0  0
 14 31  1  0  0  0  0
 15 19  2  0  0  0  0
 15 32  1  0  0  0  0
 16 23  1  0  0  0  0
 16 33  1  0  0  0  0
 17 24  2  0  0  0  0
 17 34  1  0  0  0  0
 18 22  2  0  0  0  0
 18 35  1  0  0  0  0
 19 22  1  0  0  0  0
 19 36  1  0  0  0  0
 20 25  1  0  0  0  0
 20 37  1  0  0  0  0
 21 25  1  0  0  0  0
 21 38  1  0  0  0  0
 23 26  2  0  0  0  0
 23 39  1  0  0  0  0
 24 26  1  0  0  0  0
 24 40  1  0  0  0  0
 26 41  1  0  0  0  0
M  END
> <PUBCHEM_COMPOUND_CID>
5342475

> <PUBCHEM_CONFORMER_RMSD>
0.6

> <PUBCHEM_CONFORMER_DIVERSEORDER>
1
2
3

> <PUBCHEM_MMFF94_PARTIAL_CHARGES>
41
1 -0.53
10 0.03
11 0.09
12 -0.15
13 -0.15
14 -0.15
15 -0.15
16 -0.15
17 -0.15
18 -0.15
19 -0.15
2 -0.57
20 -0.14
21 -0.14
22 0.08
23 -0.15
24 -0.15
25 0.54
26 -0.15
27 0.15
28 0.4
29 0.15
3 -0.55
30 0.15
31 0.15
32 0.15
33 0.15
34 0.15
35 0.15
36 0.15
37 0.15
38 0.15
39 0.15
4 -0.62
40 0.15
41 0.15
42 0.45
5 0.1
6 0.14
7 0.41
8 -0.15

> <PUBCHEM_EFFECTIVE_ROTOR_COUNT>
2.2

> <PUBCHEM_PHARMACOPHORE_FEATURES>
8
1 1 donor
1 2 acceptor
1 3 donor
3 3 4 7 cation
6 10 14 15 18 19 22 rings
6 11 16 17 23 24 26 rings
6 3 4 5 6 7 8 rings
6 9 12 13 20 21 25 rings

> <PUBCHEM_HEAVY_ATOM_COUNT>
26

> <PUBCHEM_ATOM_DEF_STEREO_COUNT>
0

> <PUBCHEM_ATOM_UDEF_STEREO_COUNT>
0

> <PUBCHEM_BOND_DEF_STEREO_COUNT>
0

> <PUBCHEM_BOND_UDEF_STEREO_COUNT>
0

> <PUBCHEM_ISOTOPIC_ATOM_COUNT>
0

> <PUBCHEM_COMPONENT_COUNT>
1

> <PUBCHEM_CACTVS_TAUTO_COUNT>
7

> <PUBCHEM_CONFORMER_ID>
0051850B00000001

> <PUBCHEM_MMFF94_ENERGY>
91.1657

> <PUBCHEM_FEATURE_SELFOVERLAP>
40.597

> <PUBCHEM_SHAPE_FINGERPRINT>
10050765 1 17978229684837577348
10074138 170 18052230067673773840
10411042 1 17257653314264657947
10721379 63 17982464693397581901
10815517 723 17767701803599007395
10937287 8 18410855464433685119
10940486 97 18189345735438435836
1100329 8 18339921524726489050
11056379 131 18049730921194749204
11763715 3 17108772271531313268
11796584 16 18341057423965666708
12107183 9 18335406973322417288
12160290 23 17898000484881971878
12553582 1 17398957566573100578
12788726 201 17684656810943268154
13140716 1 18410853226829836914
13590594 115 17041210034931542873
13757389 114 18191882321010430300
138480 1 17762338015735230275
13911987 19 18191287459897769077
13955234 65 18194408779850640305
14347424 109 17980220595568463985
14508225 48 17405141219556061391
14790565 3 18410575097547987298
14866123 147 18194963178398237210
14955137 171 18050566236204464274
15042514 8 17977952611109646402
15230672 131 18408328792363998558
15664445 248 17695919830069981198
15842332 3 17679287827441421864
15927050 60 18412262861404751782
16087824 20 18122626322093862423
17539 30 17909267232060922414
17913733 40 18339943532022304937
17980427 26 18268982098978356565
18785283 64 18119806915462939795
19319366 153 18271239431137751357
20101258 96 17472148743913157208
20238998 120 17257366349976325462
20505436 4 17895195541343243936
21033648 29 18342171215242052528
21049683 271 17830751849977679438
21120745 212 17471304314572416212
21133410 127 17897166823320493252
21304303 282 18268693077754928870
21796203 349 17404340333184345003
22149856 69 18191896478219787113
23366157 5 18045505209913912251
23559900 14 17906162959270987953
23598288 3 17754189887518333860
23929065 36 17837474612220624744
249999 5 18266462001575015393
255183 313 18052843599721297403
283562 15 18341611590162042451
3091708 16 9264184263510848810
3103668 31 17976532034304163111
3178227 256 18194699080742836986
3421961 26 17835235641437322587
4058900 60 18341061721883017817
4409770 3 18047747384801443351
5385378 56 18267029358207710657
563151 97 18339067251552087229
59755656 520 18410288151310891444
6058803 2 17913483542296768261
6442390 28 18410859871060107677
6673363 416 17331977023755109286
6679774 75 18115019702678218658
6695519 79 18270420351110015697
6700243 42 17189300438994547060
67856867 119 18194959648235358241
77188 2 17402049998322315814
7808743 9 18265895946508776472
79837 15 18338234989167412442
9658208 31 18342182227859361048
9962374 69 18050559644220137065
9981440 41 18408325497179772313

> <PUBCHEM_SHAPE_MULTIPOLES>
513.37
9.92
8.34
0.89
1.31
17.07
-0.03
-19.39
0.12
-0.36
0.01
-0.85
-0.18
-0.67

> <PUBCHEM_SHAPE_SELFOVERLAP>
1141.653

> <PUBCHEM_SHAPE_VOLUME>
272.2

> <PUBCHEM_COORDINATE_TYPE>
2
5
10

$$$$
