2815964
  -OEChem-01171809553D

 37 39  0     1  0  0  0  0  0999 V2000
   -1.8324   -1.8551    0.3487 S   0  0  0  0  0  0  0  0  0  0  0  0
    3.5420    0.4326   -0.6051 S   0  0  0  0  0  0  0  0  0  0  0  0
    1.0098    1.5798    1.2967 O   0  0  0  0  0  0  0  0  0  0  0  0
    0.4294   -0.5225    0.3949 N   0  0  0  0  0  0  0  0  0  0  0  0
   -0.7786    3.0818   -0.2967 N   0  0  0  0  0  0  0  0  0  0  0  0
    6.0951   -0.0471   -1.3178 N   0  0  0  0  0  0  0  0  0  0  0  0
    5.6208   -0.8007    0.6778 N   0  0  0  0  0  0  0  0  0  0  0  0
    7.2515   -0.5936   -0.9128 N   0  0  0  0  0  0  0  0  0  0  0  0
   -5.6988   -0.8242   -0.5935 C   0  0  1  0  0  0  0  0  0  0  0  0
   -5.5992    0.6241   -0.0661 C   0  0  0  0  0  0  0  0  0  0  0  0
   -4.6149   -1.7231    0.0444 C   0  0  0  0  0  0  0  0  0  0  0  0
   -4.2424    1.2607   -0.4080 C   0  0  0  0  0  0  0  0  0  0  0  0
   -3.1043    0.3321   -0.1224 C   0  0  0  0  0  0  0  0  0  0  0  0
   -3.2903   -1.0250    0.0580 C   0  0  0  0  0  0  0  0  0  0  0  0
   -7.0894   -1.4006   -0.3365 C   0  0  0  0  0  0  0  0  0  0  0  0
   -1.7250    0.6854   -0.0250 C   0  0  0  0  0  0  0  0  0  0  0  0
   -0.9250   -0.4078    0.2293 C   0  0  0  0  0  0  0  0  0  0  0  0
   -1.2021    2.0090   -0.1751 C   0  0  0  0  0  0  0  0  0  0  0  0
    1.3024    0.4501    0.9137 C   0  0  0  0  0  0  0  0  0  0  0  0
    2.7410   -0.0196    0.9525 C   0  0  0  0  0  0  0  0  0  0  0  0
    5.1987   -0.2005   -0.3567 C   0  0  0  0  0  0  0  0  0  0  0  0
    6.9117   -1.0356    0.2998 C   0  0  0  0  0  0  0  0  0  0  0  0
   -5.5369   -0.8015   -1.6802 H   0  0  0  0  0  0  0  0  0  0  0  0
   -5.7373    0.6246    1.0234 H   0  0  0  0  0  0  0  0  0  0  0  0
   -6.4009    1.2413   -0.4887 H   0  0  0  0  0  0  0  0  0  0  0  0
   -4.5507   -2.6666   -0.5108 H   0  0  0  0  0  0  0  0  0  0  0  0
   -4.8911   -1.9674    1.0782 H   0  0  0  0  0  0  0  0  0  0  0  0
   -4.1320    2.1928    0.1577 H   0  0  0  0  0  0  0  0  0  0  0  0
   -4.2233    1.5195   -1.4740 H   0  0  0  0  0  0  0  0  0  0  0  0
   -7.3165   -1.4309    0.7345 H   0  0  0  0  0  0  0  0  0  0  0  0
   -7.8575   -0.7943   -0.8279 H   0  0  0  0  0  0  0  0  0  0  0  0
   -7.1651   -2.4202   -0.7287 H   0  0  0  0  0  0  0  0  0  0  0  0
    0.7823   -1.4740    0.3301 H   0  0  0  0  0  0  0  0  0  0  0  0
    3.2448    0.4646    1.7955 H   0  0  0  0  0  0  0  0  0  0  0  0
    2.7869   -1.1027    1.1037 H   0  0  0  0  0  0  0  0  0  0  0  0
    6.0353    0.3856   -2.2327 H   0  0  0  0  0  0  0  0  0  0  0  0
    7.6277   -1.5446    0.9280 H   0  0  0  0  0  0  0  0  0  0  0  0
  1 14  1  0  0  0  0
  1 17  1  0  0  0  0
  2 20  1  0  0  0  0
  2 21  1  0  0  0  0
  3 19  2  0  0  0  0
  4 17  1  0  0  0  0
  4 19  1  0  0  0  0
  4 33  1  0  0  0  0
  5 18  3  0  0  0  0
  6  8  1  0  0  0  0
  6 21  1  0  0  0  0
  6 36  1  0  0  0  0
  7 21  2  0  0  0  0
  7 22  1  0  0  0  0
  8 22  2  0  0  0  0
  9 10  1  0  0  0  0
  9 11  1  0  0  0  0
  9 15  1  0  0  0  0
  9 23  1  0  0  0  0
 10 12  1  0  0  0  0
 10 24  1  0  0  0  0
 10 25  1  0  0  0  0
 11 14  1  0  0  0  0
 11 26  1  0  0  0  0
 11 27  1  0  0  0  0
 12 13  1  0  0  0  0
 12 28  1  0  0  0  0
 12 29  1  0  0  0  0
 13 14  2  0  0  0  0
 13 16  1  0  0  0  0
 15 30  1  0  0  0  0
 15 31  1  0  0  0  0
 15 32  1  0  0  0  0
 16 17  2  0  0  0  0
 16 18  1  0  0  0  0
 19 20  1  0  0  0  0
 20 34  1  0  0  0  0
 20 35  1  0  0  0  0
 22 37  1  0  0  0  0
M  END
> <PUBCHEM_COMPOUND_CID>
2815964

> <PUBCHEM_CONFORMER_RMSD>
0.8

> <PUBCHEM_CONFORMER_DIVERSEORDER>
25
90
67
170
146
98
21
126
182
183
43
53
180
112
121
78
154
79
15
6
141
147
63
70
74
191
174
148
40
158
156
133
176
56
2
34
193
17
142
27
95
111
20
76
28
110
187
135
85
137
124
72
160
64
94
153
82
11
179
125
177
100
99
50
107
157
39
164
145
199
62
4
49
8
84
144
130
173
113
88
120
138
12
163
92
86
57
58
114
162
171
194
9
104
188
102
97
155
198
196
7
134
87
44
169
75
54
32
117
60
175
80
77
68
165
168
10
96
195
71
83
129
105
23
37
166
172
5
161
18
1
150
140
81
116
16
42
38
93
89
127
149
131
26
189
13
185
14
118
45
36
178
167
52
55
109
143
59
51
33
152
115
35
108
119
123
46
128
181
91
41
132
192
19
151
29
31
24
136
106
22
159
184
3
30
101
139
69
66
47
197
65
186
122
103
190
48
61
73

> <PUBCHEM_MMFF94_PARTIAL_CHARGES>
22
1 -0.08
11 0.18
12 0.18
13 -0.18
14 -0.14
16 0.02
17 0.1
18 0.54
19 0.57
2 -0.29
20 0.29
21 0.24
22 0.37
3 -0.57
33 0.37
36 0.27
37 0.15
4 -0.49
5 -0.56
6 0.3
7 -0.57
8 -0.71

> <PUBCHEM_EFFECTIVE_ROTOR_COUNT>
5.8

> <PUBCHEM_PHARMACOPHORE_FEATURES>
9
1 3 acceptor
1 4 donor
1 5 acceptor
1 6 donor
3 6 7 21 cation
3 7 8 22 cation
5 1 13 14 16 17 rings
5 6 7 8 21 22 rings
6 9 10 11 12 13 14 rings

> <PUBCHEM_HEAVY_ATOM_COUNT>
22

> <PUBCHEM_ATOM_DEF_STEREO_COUNT>
0

> <PUBCHEM_ATOM_UDEF_STEREO_COUNT>
1

> <PUBCHEM_BOND_DEF_STEREO_COUNT>
0

> <PUBCHEM_BOND_UDEF_STEREO_COUNT>
0

> <PUBCHEM_ISOTOPIC_ATOM_COUNT>
0

> <PUBCHEM_COMPONENT_COUNT>
1

> <PUBCHEM_CACTVS_TAUTO_COUNT>
9

> <PUBCHEM_CONFORMER_ID>
002AF7DC00000019

> <PUBCHEM_MMFF94_ENERGY>
35.6644

> <PUBCHEM_FEATURE_SELFOVERLAP>
48.631

> <PUBCHEM_SHAPE_FINGERPRINT>
10595046 47 18260549992456884556
10670039 82 18114175311706300037
11315181 36 18131355219201809001
11524674 6 16917347052196237015
11963148 33 18340759412062925350
12011746 2 18408598184932859103
12166972 35 17749112209788321564
12236239 1 17530964670124870596
12516196 113 17203327814898904634
12788726 201 18261386694144613352
12954195 1 18342458084633889281
13288520 33 18413388744025424487
13402501 40 18131071524101909958
13668630 136 17561369470048615270
13673619 4 18202563990374279424
13685833 64 17561365097439435794
13862211 1 18410572903109933843
14251752 14 18333446530139371991
14347332 77 18189045413743770266
15183329 4 18113618976134181550
1813 80 15338848573143224984
20374829 77 18413388743582416800
21150785 3 17022901268069129907
21267235 1 18409449224371167851
21623969 137 16917353615190620862
22224240 67 8574713490196654979
2297311 6 18411982450983279321
23035841 295 18408040715078145715
23198884 109 17312823775034900819
23402539 116 18409165506529913876
23522609 53 18194430881489569048
23536379 177 18040435478031535314
23559900 14 18267578199203639857
246663 6 18342460365767808515
3004659 81 18334294284386615520
335352 9 18408597060168340685
34797466 226 18131073753864974668
437815 12 17989487432961854969
5758199 1 7997978990000646967
59755656 215 18410575067879556790
59755656 520 16443066105568128475
6138700 20 18410855460539969303

> <PUBCHEM_SHAPE_MULTIPOLES>
429.67
18.53
1.99
0.93
19.18
1.01
0.02
-8.39
-4.78
-1.89
0.03
0.91
0.05
-0.02

> <PUBCHEM_SHAPE_SELFOVERLAP>
892.093

> <PUBCHEM_SHAPE_VOLUME>
246

> <PUBCHEM_COORDINATE_TYPE>
2
5
10

$$$$
