257275
  -OEChem-01171810173D

 37 39  0     1  0  0  0  0  0999 V2000
   -1.8036   -0.9769   -0.8142 O   0  0  0  0  0  0  0  0  0  0  0  0
    2.8651   -0.5642   -1.3711 O   0  0  0  0  0  0  0  0  0  0  0  0
   -0.3028   -2.2838    1.3819 O   0  0  0  0  0  0  0  0  0  0  0  0
   -4.0834   -0.8075   -0.5801 O   0  0  0  0  0  0  0  0  0  0  0  0
    0.6186   -0.9097   -0.4256 C   0  0  2  0  0  0  0  0  0  0  0  0
    1.9612   -0.0881   -0.3612 C   0  0  2  0  0  0  0  0  0  0  0  0
   -0.6714   -0.0861   -0.6574 C   0  0  2  0  0  0  0  0  0  0  0  0
    1.8809    1.4646   -0.5063 C   0  0  1  0  0  0  0  0  0  0  0  0
   -1.0893    0.8773    0.4505 C   0  0  1  0  0  0  0  0  0  0  0  0
    1.0883    2.1957    0.5941 C   0  0  0  0  0  0  0  0  0  0  0  0
   -0.4165    2.2391    0.3616 C   0  0  0  0  0  0  0  0  0  0  0  0
    0.5997   -1.5828    0.9448 C   0  0  0  0  0  0  0  0  0  0  0  0
    0.6846   -2.0697   -1.4521 C   0  0  0  0  0  0  0  0  0  0  0  0
    2.5653   -0.5171    0.9539 C   0  0  0  0  0  0  0  0  0  0  0  0
   -2.5702    0.8866    0.2423 C   0  0  0  0  0  0  0  0  0  0  0  0
    1.8249   -1.3286    1.7067 C   0  0  0  0  0  0  0  0  0  0  0  0
    3.2875    2.1036   -0.5809 C   0  0  0  0  0  0  0  0  0  0  0  0
   -2.9580   -0.3707   -0.4239 C   0  0  0  0  0  0  0  0  0  0  0  0
   -3.4810    1.8182    0.5369 C   0  0  0  0  0  0  0  0  0  0  0  0
   -0.5776    0.4378   -1.6192 H   0  0  0  0  0  0  0  0  0  0  0  0
    1.4236    1.6833   -1.4810 H   0  0  0  0  0  0  0  0  0  0  0  0
   -0.9109    0.4473    1.4433 H   0  0  0  0  0  0  0  0  0  0  0  0
    1.4191    3.2421    0.6396 H   0  0  0  0  0  0  0  0  0  0  0  0
    1.3035    1.7790    1.5843 H   0  0  0  0  0  0  0  0  0  0  0  0
   -0.8458    2.9047    1.1214 H   0  0  0  0  0  0  0  0  0  0  0  0
   -0.6250    2.7104   -0.6079 H   0  0  0  0  0  0  0  0  0  0  0  0
    0.7582   -1.6832   -2.4744 H   0  0  0  0  0  0  0  0  0  0  0  0
    1.5375   -2.7334   -1.2682 H   0  0  0  0  0  0  0  0  0  0  0  0
   -0.2009   -2.7134   -1.4016 H   0  0  0  0  0  0  0  0  0  0  0  0
    3.5454   -0.1851    1.2736 H   0  0  0  0  0  0  0  0  0  0  0  0
    2.0623   -1.7423    2.6707 H   0  0  0  0  0  0  0  0  0  0  0  0
    3.2096    3.1748   -0.7997 H   0  0  0  0  0  0  0  0  0  0  0  0
    3.8317    1.9980    0.3629 H   0  0  0  0  0  0  0  0  0  0  0  0
    3.8923    1.6629   -1.3794 H   0  0  0  0  0  0  0  0  0  0  0  0
    3.2471   -1.4138   -1.0929 H   0  0  0  0  0  0  0  0  0  0  0  0
   -3.2003    2.7467    1.0213 H   0  0  0  0  0  0  0  0  0  0  0  0
   -4.5327    1.6810    0.3082 H   0  0  0  0  0  0  0  0  0  0  0  0
  1  7  1  0  0  0  0
  1 18  1  0  0  0  0
  2  6  1  0  0  0  0
  2 35  1  0  0  0  0
  3 12  2  0  0  0  0
  4 18  2  0  0  0  0
  5  6  1  0  0  0  0
  5  7  1  0  0  0  0
  5 12  1  0  0  0  0
  5 13  1  0  0  0  0
  6  8  1  0  0  0  0
  6 14  1  0  0  0  0
  7  9  1  0  0  0  0
  7 20  1  0  0  0  0
  8 10  1  0  0  0  0
  8 17  1  0  0  0  0
  8 21  1  0  0  0  0
  9 11  1  0  0  0  0
  9 15  1  0  0  0  0
  9 22  1  0  0  0  0
 10 11  1  0  0  0  0
 10 23  1  0  0  0  0
 10 24  1  0  0  0  0
 11 25  1  0  0  0  0
 11 26  1  0  0  0  0
 12 16  1  0  0  0  0
 13 27  1  0  0  0  0
 13 28  1  0  0  0  0
 13 29  1  0  0  0  0
 14 16  2  0  0  0  0
 14 30  1  0  0  0  0
 15 18  1  0  0  0  0
 15 19  2  0  0  0  0
 16 31  1  0  0  0  0
 17 32  1  0  0  0  0
 17 33  1  0  0  0  0
 17 34  1  0  0  0  0
 19 36  1  0  0  0  0
 19 37  1  0  0  0  0
M  END
> <PUBCHEM_COMPOUND_CID>
257275

> <PUBCHEM_CONFORMER_RMSD>
0.6

> <PUBCHEM_CONFORMER_DIVERSEORDER>
7
18
15
11
12
3
6
9
4
19
16
8
20
14
5
17
21
1
10
13
2

> <PUBCHEM_MMFF94_PARTIAL_CHARGES>
19
1 -0.43
12 0.49
14 -0.29
15 -0.12
16 -0.14
18 0.71
19 -0.3
2 -0.68
3 -0.57
30 0.15
31 0.15
35 0.4
36 0.15
37 0.15
4 -0.57
5 0.06
6 0.42
7 0.28
9 0.14

> <PUBCHEM_EFFECTIVE_ROTOR_COUNT>
0.8

> <PUBCHEM_PHARMACOPHORE_FEATURES>
7
1 2 acceptor
1 2 donor
1 3 acceptor
1 4 acceptor
5 1 7 9 15 18 rings
5 5 6 12 14 16 rings
7 5 6 7 8 9 10 11 rings

> <PUBCHEM_HEAVY_ATOM_COUNT>
19

> <PUBCHEM_ATOM_DEF_STEREO_COUNT>
0

> <PUBCHEM_ATOM_UDEF_STEREO_COUNT>
5

> <PUBCHEM_BOND_DEF_STEREO_COUNT>
0

> <PUBCHEM_BOND_UDEF_STEREO_COUNT>
0

> <PUBCHEM_ISOTOPIC_ATOM_COUNT>
0

> <PUBCHEM_COMPONENT_COUNT>
1

> <PUBCHEM_CACTVS_TAUTO_COUNT>
1

> <PUBCHEM_CONFORMER_ID>
0003ECFB00000007

> <PUBCHEM_MMFF94_ENERGY>
60.1896

> <PUBCHEM_FEATURE_SELFOVERLAP>
35.679

> <PUBCHEM_SHAPE_FINGERPRINT>
10863032 1 17968098689359532224
10948715 1 18337674247159581364
10967382 1 18199750400258625789
10980938 120 18412265021419477393
11086676 242 18119248359219156745
11132069 177 18271520901428799265
12382932 28 18127397974106641289
12423570 1 15822454124939072718
12491281 212 17988100961626128296
12654903 92 17989208144255152396
13140716 1 18412540981568665513
13172582 1 18196646307171599897
14178342 30 18129369402908421011
144361 1 18131080350106325920
14787075 74 17685500144993982863
14817 1 8204197794158049922
15375462 189 18189055304879412433
15775835 57 18409169930330794060
15852999 172 16588020242838713395
16945 1 18199472064771139573
1813 80 17100876214840082458
18186145 218 18259988166972648253
19765921 60 18335148612852267520
20559304 39 18411409592593008195
20645477 70 18412820305330743557
20691752 17 18040435486088986249
21501502 16 18409725145543974329
21524375 3 18264768929651318044
22112679 90 18270669883829213457
2334 1 18340766043623434713
23388829 49 18264474097125759408
23402539 116 18340484444551381214
23419403 2 17326116866715462282
23557571 272 17632563955499943291
23559900 14 17986391083938247351
2748010 2 18196666300323523084
298252 57 18128541646746299838
34934 24 18269552732866068525
404807 14 16622400636453799638
4340502 62 17896312700553243203
474 4 18114186396790206509
528886 8 18059579057407125006
5939293 188 18342170042567910337
7364860 26 18200315416096396300
7832392 63 18058173825849785473

> <PUBCHEM_SHAPE_MULTIPOLES>
367.53
5.07
2.61
1.31
3.47
0.58
-0.16
1.3
0.58
-0.65
-0.25
-0.65
-0.69
-0.77

> <PUBCHEM_SHAPE_SELFOVERLAP>
798.307

> <PUBCHEM_SHAPE_VOLUME>
201.7

> <PUBCHEM_COORDINATE_TYPE>
2
5
10

$$$$
