793586
  -OEChem-01171809403D

 29 31  0     0  0  0  0  0  0999 V2000
    0.3013   -1.4074    0.0006 S   0  0  0  0  0  0  0  0  0  0  0  0
   -2.6193   -2.4949   -0.0003 O   0  0  0  0  0  0  0  0  0  0  0  0
   -3.5122   -0.3343   -0.0003 N   0  0  0  0  0  0  0  0  0  0  0  0
   -2.1460    1.6406    0.0000 N   0  0  0  0  0  0  0  0  0  0  0  0
   -4.8242   -0.8075   -0.0006 N   0  0  0  0  0  0  0  0  0  0  0  0
   -1.0555    0.7553    0.0005 C   0  0  0  0  0  0  0  0  0  0  0  0
   -1.1944   -0.6083    0.0003 C   0  0  0  0  0  0  0  0  0  0  0  0
    1.1503    0.0884    0.0007 C   0  0  0  0  0  0  0  0  0  0  0  0
    0.2966    1.1740    0.0006 C   0  0  0  0  0  0  0  0  0  0  0  0
   -2.4693   -1.2757   -0.0002 C   0  0  0  0  0  0  0  0  0  0  0  0
    2.5941    0.0673    0.0007 C   0  0  0  0  0  0  0  0  0  0  0  0
   -3.3108    1.0527   -0.0002 C   0  0  0  0  0  0  0  0  0  0  0  0
   -4.5425    1.9301    0.0003 C   0  0  0  0  0  0  0  0  0  0  0  0
    3.2910    0.0571    1.2082 C   0  0  0  0  0  0  0  0  0  0  0  0
    3.2892    0.0580   -1.2077 C   0  0  0  0  0  0  0  0  0  0  0  0
    4.6857    0.0377    1.2073 C   0  0  0  0  0  0  0  0  0  0  0  0
    4.6840    0.0385   -1.2087 C   0  0  0  0  0  0  0  0  0  0  0  0
    5.3822    0.0284   -0.0011 C   0  0  0  0  0  0  0  0  0  0  0  0
    0.6308    2.2042    0.0005 H   0  0  0  0  0  0  0  0  0  0  0  0
   -5.1441    1.7314   -0.8915 H   0  0  0  0  0  0  0  0  0  0  0  0
   -4.2579    2.9864    0.0005 H   0  0  0  0  0  0  0  0  0  0  0  0
   -5.1437    1.7309    0.8923 H   0  0  0  0  0  0  0  0  0  0  0  0
    2.7634    0.0651    2.1591 H   0  0  0  0  0  0  0  0  0  0  0  0
    2.7605    0.0667   -2.1579 H   0  0  0  0  0  0  0  0  0  0  0  0
   -4.9278   -1.4089   -0.8171 H   0  0  0  0  0  0  0  0  0  0  0  0
   -4.9281   -1.4089    0.8158 H   0  0  0  0  0  0  0  0  0  0  0  0
    5.2295    0.0301    2.1474 H   0  0  0  0  0  0  0  0  0  0  0  0
    5.2264    0.0316   -2.1496 H   0  0  0  0  0  0  0  0  0  0  0  0
    6.4681    0.0134   -0.0019 H   0  0  0  0  0  0  0  0  0  0  0  0
  1  7  1  0  0  0  0
  1  8  1  0  0  0  0
  2 10  2  0  0  0  0
  3  5  1  0  0  0  0
  3 10  1  0  0  0  0
  3 12  1  0  0  0  0
  4  6  1  0  0  0  0
  4 12  2  0  0  0  0
  5 25  1  0  0  0  0
  5 26  1  0  0  0  0
  6  7  2  0  0  0  0
  6  9  1  0  0  0  0
  7 10  1  0  0  0  0
  8  9  2  0  0  0  0
  8 11  1  0  0  0  0
  9 19  1  0  0  0  0
 11 14  2  0  0  0  0
 11 15  1  0  0  0  0
 12 13  1  0  0  0  0
 13 20  1  0  0  0  0
 13 21  1  0  0  0  0
 13 22  1  0  0  0  0
 14 16  1  0  0  0  0
 14 23  1  0  0  0  0
 15 17  2  0  0  0  0
 15 24  1  0  0  0  0
 16 18  2  0  0  0  0
 16 27  1  0  0  0  0
 17 18  1  0  0  0  0
 17 28  1  0  0  0  0
 18 29  1  0  0  0  0
M  END
> <PUBCHEM_COMPOUND_CID>
793586

> <PUBCHEM_CONFORMER_RMSD>
0.6

> <PUBCHEM_CONFORMER_DIVERSEORDER>
1
2

> <PUBCHEM_MMFF94_PARTIAL_CHARGES>
26
1 -0.08
10 0.71
11 0.05
12 0.45
13 0.06
14 -0.15
15 -0.15
16 -0.15
17 -0.15
18 -0.15
19 0.15
2 -0.57
23 0.15
24 0.15
25 0.36
26 0.36
27 0.15
28 0.15
29 0.15
3 -0.11
4 -0.57
5 -0.73
6 0.12
7 -0.05
8 -0.01
9 -0.15

> <PUBCHEM_EFFECTIVE_ROTOR_COUNT>
1

> <PUBCHEM_PHARMACOPHORE_FEATURES>
5
1 2 acceptor
1 5 donor
5 1 6 7 8 9 rings
6 11 14 15 16 17 18 rings
6 3 4 6 7 10 12 rings

> <PUBCHEM_HEAVY_ATOM_COUNT>
18

> <PUBCHEM_ATOM_DEF_STEREO_COUNT>
0

> <PUBCHEM_ATOM_UDEF_STEREO_COUNT>
0

> <PUBCHEM_BOND_DEF_STEREO_COUNT>
0

> <PUBCHEM_BOND_UDEF_STEREO_COUNT>
0

> <PUBCHEM_ISOTOPIC_ATOM_COUNT>
0

> <PUBCHEM_COMPONENT_COUNT>
1

> <PUBCHEM_CACTVS_TAUTO_COUNT>
1

> <PUBCHEM_CONFORMER_ID>
000C1BF200000001

> <PUBCHEM_MMFF94_ENERGY>
49.5453

> <PUBCHEM_FEATURE_SELFOVERLAP>
25.455

> <PUBCHEM_SHAPE_FINGERPRINT>
10062212 137 18113900484995772991
10912923 1 17603586339666787264
11132069 177 18411420596225231028
11796584 16 18342743975665330718
12107183 9 17393026354028150176
12236239 1 17821729429775221488
12390115 104 18129112121720307465
12403259 415 18060697308051306928
12403814 3 17458061539129760925
12616971 3 17240481403812747844
12670546 56 17167857565354928356
13140716 1 18266743661277517961
13167823 11 18040151808189425586
13544592 145 17917439704975547846
13675066 3 17989485259971913050
13760787 19 18186802465694268738
13760787 5 16950282905910227852
13862211 1 18338231682844661835
14386348 63 17847065484640448822
14573314 32 17917434194221160012
15042514 8 18267025153719674571
15196674 1 18338517439149210727
15242439 84 17989489593678499132
15375358 24 17989204832845910012
16752209 62 18337103557374509834
17804303 29 18412825815241209505
19026448 4 17632858637769899914
19026448 5 17603304864726902318
19141452 34 17560521819323880367
200 152 16443056210427253124
20279233 1 17775288261719908470
20645477 56 18411702050123010433
20645477 70 16486980553390541030
21033648 29 17203315706964091480
21065201 7 18413669110943076234
21267235 1 18336835276974948427
22182313 1 18129119873861937759
22646028 1 17967248698246801264
2297311 6 18272099300590561340
23175994 123 17131837589903255177
23402539 116 18412537700086738925
23557571 272 18201449072650924076
23559900 14 18272094855863659326
26918003 58 16487258785514305958
2838139 119 16516510111624468525
293599 30 18340208467133030137
300161 21 17822005419962761132
3004659 81 18335705988908777438
34797466 226 17916320479558925988
3545911 37 18341615880127450492
4214541 1 18410856559766617472
474 4 16879363427088665420
4990 188 18060143115752220014
5104073 3 18337111262704043176
542803 24 17676210165118652140
543368 44 17604725502643864532
559249 180 18261386698750861858
573450 72 18260540130626527706
59755656 215 18341053991648695310
69090 78 17346594201209404822
77492 1 17676205784410161734

> <PUBCHEM_SHAPE_MULTIPOLES>
353.47
10.95
1.66
0.94
3.73
0.36
0
-1.39
0
-2.61
0
1.35
-0.03
0

> <PUBCHEM_SHAPE_SELFOVERLAP>
768.64

> <PUBCHEM_SHAPE_VOLUME>
194.3

> <PUBCHEM_COORDINATE_TYPE>
2
5
10

$$$$
