4869315
  -OEChem-01171810003D

 81 85  0     0  0  0  0  0  0999 V2000
    5.4152   -0.1335    0.3736 O   0  0  0  0  0  0  0  0  0  0  0  0
    5.9966   -2.8203    0.7416 O   0  0  0  0  0  0  0  0  0  0  0  0
   -2.7744   -3.3661   -2.1810 O   0  0  0  0  0  0  0  0  0  0  0  0
    1.3462    3.9340    1.5251 O   0  0  0  0  0  0  0  0  0  0  0  0
    2.4882    4.9946   -0.7758 O   0  0  0  0  0  0  0  0  0  0  0  0
   -4.8213   -1.8400   -1.0046 O   0  0  0  0  0  0  0  0  0  0  0  0
   -0.1773   -2.2834   -0.7791 N   0  0  0  0  0  0  0  0  0  0  0  0
   -3.5276   -2.4096    0.8710 N   0  0  0  0  0  0  0  0  0  0  0  0
   -3.2456    1.0029    3.6191 N   0  0  0  0  0  0  0  0  0  0  0  0
    0.7640   -1.2701   -0.6408 C   0  0  0  0  0  0  0  0  0  0  0  0
    0.1280   -0.0706   -0.8941 C   0  0  0  0  0  0  0  0  0  0  0  0
   -1.2261   -0.3576   -1.1919 C   0  0  0  0  0  0  0  0  0  0  0  0
   -1.3875   -1.7230   -1.1151 C   0  0  0  0  0  0  0  0  0  0  0  0
    2.1417   -1.6310   -0.2817 C   0  0  0  0  0  0  0  0  0  0  0  0
    2.4394   -3.0044   -0.0936 C   0  0  0  0  0  0  0  0  0  0  0  0
    0.7342    1.2324   -0.8603 C   0  0  0  0  0  0  0  0  0  0  0  0
    0.1315   -3.6297   -0.5913 C   0  0  0  0  0  0  0  0  0  0  0  0
   -2.2985    0.5415   -1.5235 C   0  0  0  0  0  0  0  0  0  0  0  0
    1.3751   -4.0167   -0.2617 C   0  0  0  0  0  0  0  0  0  0  0  0
    3.1496   -0.6750   -0.1221 C   0  0  0  0  0  0  0  0  0  0  0  0
   -2.5893   -2.4768   -1.3372 C   0  0  0  0  0  0  0  0  0  0  0  0
    3.7385   -3.3914    0.2501 C   0  0  0  0  0  0  0  0  0  0  0  0
    4.4419   -1.0759    0.2212 C   0  0  0  0  0  0  0  0  0  0  0  0
    0.7500    1.9638    0.3273 C   0  0  0  0  0  0  0  0  0  0  0  0
    1.3069    1.7653   -2.0153 C   0  0  0  0  0  0  0  0  0  0  0  0
    4.7351   -2.4273    0.4065 C   0  0  0  0  0  0  0  0  0  0  0  0
   -2.6823    1.5326   -0.6200 C   0  0  0  0  0  0  0  0  0  0  0  0
   -2.9549    0.4225   -2.7485 C   0  0  0  0  0  0  0  0  0  0  0  0
   -3.7890   -2.2045   -0.4648 C   0  0  0  0  0  0  0  0  0  0  0  0
    1.3384    3.2282    0.3600 C   0  0  0  0  0  0  0  0  0  0  0  0
    1.8952    3.0294   -1.9826 C   0  0  0  0  0  0  0  0  0  0  0  0
    1.9112    3.7608   -0.7950 C   0  0  0  0  0  0  0  0  0  0  0  0
   -4.5158   -2.2065    1.9043 C   0  0  0  0  0  0  0  0  0  0  0  0
   -3.7226    2.4044   -0.9413 C   0  0  0  0  0  0  0  0  0  0  0  0
   -3.9951    1.2944   -3.0699 C   0  0  0  0  0  0  0  0  0  0  0  0
   -4.5081   -0.7798    2.4499 C   0  0  0  0  0  0  0  0  0  0  0  0
   -4.3789    2.2854   -2.1662 C   0  0  0  0  0  0  0  0  0  0  0  0
   -3.1896   -0.3609    3.1065 C   0  0  0  0  0  0  0  0  0  0  0  0
    5.0375    1.2258    0.1673 C   0  0  0  0  0  0  0  0  0  0  0  0
    6.3013   -2.9019    2.1321 C   0  0  0  0  0  0  0  0  0  0  0  0
   -3.9977    1.0517    4.8742 C   0  0  0  0  0  0  0  0  0  0  0  0
   -1.8961    1.5357    3.8153 C   0  0  0  0  0  0  0  0  0  0  0  0
    0.2354    4.7947    1.7689 C   0  0  0  0  0  0  0  0  0  0  0  0
    3.8770    5.0558   -0.4568 C   0  0  0  0  0  0  0  0  0  0  0  0
   -0.6640   -4.3552   -0.7156 H   0  0  0  0  0  0  0  0  0  0  0  0
    1.6160   -5.0633   -0.1137 H   0  0  0  0  0  0  0  0  0  0  0  0
    2.9197    0.3635   -0.2654 H   0  0  0  0  0  0  0  0  0  0  0  0
    3.9806   -4.4417    0.3966 H   0  0  0  0  0  0  0  0  0  0  0  0
    0.3164    1.5515    1.2345 H   0  0  0  0  0  0  0  0  0  0  0  0
    1.3033    1.2081   -2.9491 H   0  0  0  0  0  0  0  0  0  0  0  0
   -2.1991    1.6330    0.3478 H   0  0  0  0  0  0  0  0  0  0  0  0
   -2.6661   -0.3359   -3.4725 H   0  0  0  0  0  0  0  0  0  0  0  0
    2.3393    3.4384   -2.8861 H   0  0  0  0  0  0  0  0  0  0  0  0
   -5.5058   -2.4385    1.4962 H   0  0  0  0  0  0  0  0  0  0  0  0
   -4.3025   -2.9225    2.7047 H   0  0  0  0  0  0  0  0  0  0  0  0
   -2.6040   -2.7197    1.1584 H   0  0  0  0  0  0  0  0  0  0  0  0
   -5.3319   -0.7073    3.1682 H   0  0  0  0  0  0  0  0  0  0  0  0
   -4.7395   -0.0825    1.6340 H   0  0  0  0  0  0  0  0  0  0  0  0
   -4.0244    3.1728   -0.2356 H   0  0  0  0  0  0  0  0  0  0  0  0
   -4.5052    1.2030   -4.0243 H   0  0  0  0  0  0  0  0  0  0  0  0
   -2.4104   -0.4251    2.3355 H   0  0  0  0  0  0  0  0  0  0  0  0
   -2.9061   -1.0759    3.8899 H   0  0  0  0  0  0  0  0  0  0  0  0
   -5.1894    2.9637   -2.4161 H   0  0  0  0  0  0  0  0  0  0  0  0
    4.2961    1.5572    0.9024 H   0  0  0  0  0  0  0  0  0  0  0  0
    4.7187    1.4065   -0.8650 H   0  0  0  0  0  0  0  0  0  0  0  0
    5.9327    1.8354    0.3294 H   0  0  0  0  0  0  0  0  0  0  0  0
    7.3425   -3.2188    2.2368 H   0  0  0  0  0  0  0  0  0  0  0  0
    5.6595   -3.6407    2.6226 H   0  0  0  0  0  0  0  0  0  0  0  0
    6.1832   -1.9247    2.6110 H   0  0  0  0  0  0  0  0  0  0  0  0
   -3.5570    0.4123    5.6479 H   0  0  0  0  0  0  0  0  0  0  0  0
   -4.0254    2.0776    5.2599 H   0  0  0  0  0  0  0  0  0  0  0  0
   -5.0421    0.7579    4.7339 H   0  0  0  0  0  0  0  0  0  0  0  0
   -1.9381    2.5684    4.1793 H   0  0  0  0  0  0  0  0  0  0  0  0
   -1.3162    0.9401    4.5296 H   0  0  0  0  0  0  0  0  0  0  0  0
   -1.3532    1.5645    2.8661 H   0  0  0  0  0  0  0  0  0  0  0  0
    0.3860    5.2832    2.7354 H   0  0  0  0  0  0  0  0  0  0  0  0
   -0.6946    4.2186    1.8090 H   0  0  0  0  0  0  0  0  0  0  0  0
    0.1674    5.5646    0.9939 H   0  0  0  0  0  0  0  0  0  0  0  0
    4.0604    4.6538    0.5446 H   0  0  0  0  0  0  0  0  0  0  0  0
    4.4649    4.5031   -1.1965 H   0  0  0  0  0  0  0  0  0  0  0  0
    4.1872    6.1041   -0.4754 H   0  0  0  0  0  0  0  0  0  0  0  0
  1 23  1  0  0  0  0
  1 39  1  0  0  0  0
  2 26  1  0  0  0  0
  2 40  1  0  0  0  0
  3 21  2  0  0  0  0
  4 30  1  0  0  0  0
  4 43  1  0  0  0  0
  5 32  1  0  0  0  0
  5 44  1  0  0  0  0
  6 29  2  0  0  0  0
  7 10  1  0  0  0  0
  7 13  1  0  0  0  0
  7 17  1  0  0  0  0
  8 29  1  0  0  0  0
  8 33  1  0  0  0  0
  8 56  1  0  0  0  0
  9 38  1  0  0  0  0
  9 41  1  0  0  0  0
  9 42  1  0  0  0  0
 10 11  2  0  0  0  0
 10 14  1  0  0  0  0
 11 12  1  0  0  0  0
 11 16  1  0  0  0  0
 12 13  2  0  0  0  0
 12 18  1  0  0  0  0
 13 21  1  0  0  0  0
 14 15  1  0  0  0  0
 14 20  2  0  0  0  0
 15 19  1  0  0  0  0
 15 22  2  0  0  0  0
 16 24  2  0  0  0  0
 16 25  1  0  0  0  0
 17 19  2  0  0  0  0
 17 45  1  0  0  0  0
 18 27  2  0  0  0  0
 18 28  1  0  0  0  0
 19 46  1  0  0  0  0
 20 23  1  0  0  0  0
 20 47  1  0  0  0  0
 21 29  1  0  0  0  0
 22 26  1  0  0  0  0
 22 48  1  0  0  0  0
 23 26  2  0  0  0  0
 24 30  1  0  0  0  0
 24 49  1  0  0  0  0
 25 31  2  0  0  0  0
 25 50  1  0  0  0  0
 27 34  1  0  0  0  0
 27 51  1  0  0  0  0
 28 35  2  0  0  0  0
 28 52  1  0  0  0  0
 30 32  2  0  0  0  0
 31 32  1  0  0  0  0
 31 53  1  0  0  0  0
 33 36  1  0  0  0  0
 33 54  1  0  0  0  0
 33 55  1  0  0  0  0
 34 37  2  0  0  0  0
 34 59  1  0  0  0  0
 35 37  1  0  0  0  0
 35 60  1  0  0  0  0
 36 38  1  0  0  0  0
 36 57  1  0  0  0  0
 36 58  1  0  0  0  0
 37 63  1  0  0  0  0
 38 61  1  0  0  0  0
 38 62  1  0  0  0  0
 39 64  1  0  0  0  0
 39 65  1  0  0  0  0
 39 66  1  0  0  0  0
 40 67  1  0  0  0  0
 40 68  1  0  0  0  0
 40 69  1  0  0  0  0
 41 70  1  0  0  0  0
 41 71  1  0  0  0  0
 41 72  1  0  0  0  0
 42 73  1  0  0  0  0
 42 74  1  0  0  0  0
 42 75  1  0  0  0  0
 43 76  1  0  0  0  0
 43 77  1  0  0  0  0
 43 78  1  0  0  0  0
 44 79  1  0  0  0  0
 44 80  1  0  0  0  0
 44 81  1  0  0  0  0
M  END
> <PUBCHEM_COMPOUND_CID>
4869315

> <PUBCHEM_CONFORMER_RMSD>
1.2

> <PUBCHEM_CONFORMER_DIVERSEORDER>
1
22
17
16
23
14
2
25
24
18
21
5
12
7
8
13
15
9
6
4
20
11
26
28
3
19
27
10

> <PUBCHEM_MMFF94_PARTIAL_CHARGES>
56
1 -0.36
10 -0.2
11 -0.05
12 -0.05
13 -0.24
14 0.05
15 0.03
16 0.05
17 -0.18
18 0.05
19 -0.18
2 -0.36
20 -0.15
21 0.65
22 -0.15
23 0.08
24 -0.15
25 -0.15
26 0.08
27 -0.15
28 -0.15
29 0.63
3 -0.57
30 0.08
31 -0.15
32 0.08
33 0.3
34 -0.15
35 -0.15
37 -0.15
38 0.27
39 0.28
4 -0.36
40 0.28
41 0.27
42 0.27
43 0.28
44 0.28
45 0.15
46 0.15
47 0.15
48 0.15
49 0.15
5 -0.36
50 0.15
51 0.15
52 0.15
53 0.15
56 0.37
59 0.15
6 -0.57
60 0.15
63 0.15
7 0.33
8 -0.73
9 -0.81

> <PUBCHEM_EFFECTIVE_ROTOR_COUNT>
13

> <PUBCHEM_PHARMACOPHORE_FEATURES>
14
1 1 acceptor
1 2 acceptor
1 3 acceptor
1 4 acceptor
1 5 acceptor
1 6 acceptor
1 7 cation
1 8 donor
1 9 cation
5 7 10 11 12 13 rings
6 14 15 20 22 23 26 rings
6 16 24 25 30 31 32 rings
6 18 27 28 34 35 37 rings
6 7 10 14 15 17 19 rings

> <PUBCHEM_HEAVY_ATOM_COUNT>
44

> <PUBCHEM_ATOM_DEF_STEREO_COUNT>
0

> <PUBCHEM_ATOM_UDEF_STEREO_COUNT>
0

> <PUBCHEM_BOND_DEF_STEREO_COUNT>
0

> <PUBCHEM_BOND_UDEF_STEREO_COUNT>
0

> <PUBCHEM_ISOTOPIC_ATOM_COUNT>
0

> <PUBCHEM_COMPONENT_COUNT>
1

> <PUBCHEM_CACTVS_TAUTO_COUNT>
2

> <PUBCHEM_CONFORMER_ID>
004A4CC300000001

> <PUBCHEM_MMFF94_ENERGY>
158.5659

> <PUBCHEM_FEATURE_SELFOVERLAP>
71.178

> <PUBCHEM_SHAPE_FINGERPRINT>
10010297 198 17535216602476572613
12608794 3 18335155180501075819
12788726 201 17271189809772207833
13140716 1 18191575364050936814
14020679 6 17749948843895418333
14028597 1 17842289338988910048
140371 6 18048313349890037150
14068700 675 17487021584383486925
14295345 954 18260823826312613037
14955137 171 18337686238750359646
16112460 7 18053393373010362152
16114785 44 17623563155688672176
18603816 31 14419266388287356514
19315092 285 17985547990822841407
21796203 349 18118432642441405082
23559900 14 18189594168872438165
3380486 145 18192154797840445799
350125 39 18335695104791327885
5265222 85 17612028575236016804
56638632 10 18200314441144458904

> <PUBCHEM_SHAPE_MULTIPOLES>
855.34
10.91
6.73
3.6
7.37
5.41
4.47
-5.94
4.22
6.05
-0.34
-7.06
1.44
-1.13

> <PUBCHEM_SHAPE_SELFOVERLAP>
1863.633

> <PUBCHEM_SHAPE_VOLUME>
469.9

> <PUBCHEM_COORDINATE_TYPE>
2
5
10

$$$$
