3157647
  -OEChem-01171809453D

 46 49  0     0  0  0  0  0  0999 V2000
    3.8403    2.1710   -0.9094 O   0  0  0  0  0  0  0  0  0  0  0  0
    4.9148   -0.4927   -0.8256 O   0  0  0  0  0  0  0  0  0  0  0  0
   -7.8160    1.2977   -0.9382 O   0  0  0  0  0  0  0  0  0  0  0  0
   -4.8014   -1.6821    0.4313 O   0  0  0  0  0  0  0  0  0  0  0  0
    1.2365    1.0707    0.3753 N   0  0  0  0  0  0  0  0  0  0  0  0
    1.6830   -1.6275   -0.1147 N   0  0  0  0  0  0  0  0  0  0  0  0
   -3.4763    0.2497    0.6405 N   0  0  0  0  0  0  0  0  0  0  0  0
   -5.7762    0.3705    0.8559 N   0  0  0  0  0  0  0  0  0  0  0  0
    0.2094    0.2050    0.3184 C   0  0  0  0  0  0  0  0  0  0  0  0
    0.4354   -1.1614    0.0705 C   0  0  0  0  0  0  0  0  0  0  0  0
    2.4766    0.5846    0.1876 C   0  0  0  0  0  0  0  0  0  0  0  0
    2.6967   -0.7453   -0.0540 C   0  0  0  0  0  0  0  0  0  0  0  0
   -2.1782   -0.2244    0.4512 C   0  0  0  0  0  0  0  0  0  0  0  0
   -1.0964    0.6526    0.5052 C   0  0  0  0  0  0  0  0  0  0  0  0
   -0.6526   -2.0296    0.0185 C   0  0  0  0  0  0  0  0  0  0  0  0
   -1.9553   -1.5713    0.2069 C   0  0  0  0  0  0  0  0  0  0  0  0
    3.5211    1.5724    0.2658 C   0  0  0  0  0  0  0  0  0  0  0  0
    4.0000   -1.3209   -0.2613 C   0  0  0  0  0  0  0  0  0  0  0  0
    4.2932    2.0626    1.2893 C   0  0  0  0  0  0  0  0  0  0  0  0
    4.5465   -2.5549   -0.0116 C   0  0  0  0  0  0  0  0  0  0  0  0
   -7.1424   -0.0979    0.8940 C   0  0  0  0  0  0  0  0  0  0  0  0
   -4.6860   -0.4739    0.6226 C   0  0  0  0  0  0  0  0  0  0  0  0
   -7.7876   -0.0475   -0.4790 C   0  0  0  0  0  0  0  0  0  0  0  0
    5.1467    3.0290    0.7058 C   0  0  0  0  0  0  0  0  0  0  0  0
    5.8896   -2.4832   -0.4519 C   0  0  0  0  0  0  0  0  0  0  0  0
    4.8321    3.0578   -0.6329 C   0  0  0  0  0  0  0  0  0  0  0  0
    6.0644   -1.2086   -0.9385 C   0  0  0  0  0  0  0  0  0  0  0  0
   -8.4178    1.3977   -2.2217 C   0  0  0  0  0  0  0  0  0  0  0  0
   -1.2707    1.7106    0.6969 H   0  0  0  0  0  0  0  0  0  0  0  0
   -0.4907   -3.0887   -0.1727 H   0  0  0  0  0  0  0  0  0  0  0  0
   -2.7323   -2.3202    0.1480 H   0  0  0  0  0  0  0  0  0  0  0  0
   -3.5586    1.2484    0.8141 H   0  0  0  0  0  0  0  0  0  0  0  0
   -7.6757    0.5590    1.5890 H   0  0  0  0  0  0  0  0  0  0  0  0
   -7.1653   -1.1192    1.2876 H   0  0  0  0  0  0  0  0  0  0  0  0
    4.2525    1.7649    2.3275 H   0  0  0  0  0  0  0  0  0  0  0  0
    4.0483   -3.4053    0.4323 H   0  0  0  0  0  0  0  0  0  0  0  0
   -5.6046    1.3618    0.9925 H   0  0  0  0  0  0  0  0  0  0  0  0
   -7.2224   -0.6637   -1.1883 H   0  0  0  0  0  0  0  0  0  0  0  0
   -8.8115   -0.4330   -0.4146 H   0  0  0  0  0  0  0  0  0  0  0  0
    5.8976    3.6291    1.1991 H   0  0  0  0  0  0  0  0  0  0  0  0
    6.6368   -3.2626   -0.4183 H   0  0  0  0  0  0  0  0  0  0  0  0
    5.2024    3.6224   -1.4760 H   0  0  0  0  0  0  0  0  0  0  0  0
    6.9008   -0.6828   -1.3751 H   0  0  0  0  0  0  0  0  0  0  0  0
   -7.8490    0.8216   -2.9580 H   0  0  0  0  0  0  0  0  0  0  0  0
   -8.4137    2.4487   -2.5227 H   0  0  0  0  0  0  0  0  0  0  0  0
   -9.4543    1.0483   -2.1880 H   0  0  0  0  0  0  0  0  0  0  0  0
  1 17  1  0  0  0  0
  1 26  1  0  0  0  0
  2 18  1  0  0  0  0
  2 27  1  0  0  0  0
  3 23  1  0  0  0  0
  3 28  1  0  0  0  0
  4 22  2  0  0  0  0
  5  9  1  0  0  0  0
  5 11  2  0  0  0  0
  6 10  1  0  0  0  0
  6 12  2  0  0  0  0
  7 13  1  0  0  0  0
  7 22  1  0  0  0  0
  7 32  1  0  0  0  0
  8 21  1  0  0  0  0
  8 22  1  0  0  0  0
  8 37  1  0  0  0  0
  9 10  2  0  0  0  0
  9 14  1  0  0  0  0
 10 15  1  0  0  0  0
 11 12  1  0  0  0  0
 11 17  1  0  0  0  0
 12 18  1  0  0  0  0
 13 14  2  0  0  0  0
 13 16  1  0  0  0  0
 14 29  1  0  0  0  0
 15 16  2  0  0  0  0
 15 30  1  0  0  0  0
 16 31  1  0  0  0  0
 17 19  2  0  0  0  0
 18 20  2  0  0  0  0
 19 24  1  0  0  0  0
 19 35  1  0  0  0  0
 20 25  1  0  0  0  0
 20 36  1  0  0  0  0
 21 23  1  0  0  0  0
 21 33  1  0  0  0  0
 21 34  1  0  0  0  0
 23 38  1  0  0  0  0
 23 39  1  0  0  0  0
 24 26  2  0  0  0  0
 24 40  1  0  0  0  0
 25 27  2  0  0  0  0
 25 41  1  0  0  0  0
 26 42  1  0  0  0  0
 27 43  1  0  0  0  0
 28 44  1  0  0  0  0
 28 45  1  0  0  0  0
 28 46  1  0  0  0  0
M  END
> <PUBCHEM_COMPOUND_CID>
3157647

> <PUBCHEM_CONFORMER_RMSD>
1

> <PUBCHEM_CONFORMER_DIVERSEORDER>
1
3
39
31
19
16
32
6
17
36
13
30
38
2
23
42
34
8
7
5
25
37
41
4
28
24
33
22
29
11
35
40
9
27
15
26
12
21
10
14
18
20

> <PUBCHEM_MMFF94_PARTIAL_CHARGES>
39
1 -0.28
10 0.31
11 0.36
12 0.36
13 0.12
14 -0.15
15 -0.15
16 -0.15
17 0.09
18 0.09
19 -0.15
2 -0.28
20 -0.15
21 0.3
22 0.69
23 0.28
24 -0.15
25 -0.15
26 -0.01
27 -0.01
28 0.28
29 0.15
3 -0.56
30 0.15
31 0.15
32 0.37
35 0.15
36 0.15
37 0.37
4 -0.57
40 0.15
41 0.15
42 0.15
43 0.15
5 -0.62
6 -0.62
7 -0.55
8 -0.73
9 0.31

> <PUBCHEM_EFFECTIVE_ROTOR_COUNT>
8

> <PUBCHEM_PHARMACOPHORE_FEATURES>
12
1 1 acceptor
1 2 acceptor
1 3 acceptor
1 4 acceptor
1 5 acceptor
1 6 acceptor
1 7 donor
1 8 donor
5 1 17 19 24 26 rings
5 2 18 20 25 27 rings
6 5 6 9 10 11 12 rings
6 9 10 13 14 15 16 rings

> <PUBCHEM_HEAVY_ATOM_COUNT>
28

> <PUBCHEM_ATOM_DEF_STEREO_COUNT>
0

> <PUBCHEM_ATOM_UDEF_STEREO_COUNT>
0

> <PUBCHEM_BOND_DEF_STEREO_COUNT>
0

> <PUBCHEM_BOND_UDEF_STEREO_COUNT>
0

> <PUBCHEM_ISOTOPIC_ATOM_COUNT>
0

> <PUBCHEM_COMPONENT_COUNT>
1

> <PUBCHEM_CACTVS_TAUTO_COUNT>
5

> <PUBCHEM_CONFORMER_ID>
00302E8F00000001

> <PUBCHEM_MMFF94_ENERGY>
64.3741

> <PUBCHEM_FEATURE_SELFOVERLAP>
60.992

> <PUBCHEM_SHAPE_FINGERPRINT>
10050765 1 18268713981472021418
10411042 1 18124038923963015054
10554248 39 18272365378230582333
10763959 59 18040156219010212021
10835480 77 18410572933443990361
11386260 185 18341898489371712436
12236239 1 17918277563095628987
12403259 415 18187361021774671149
12616971 3 17846495932842440743
12741549 16 17530682079638403332
12788726 201 17059796471512914368
13533116 47 18273218603606907688
13878862 14 18341600534215037932
14170010 4 18342460340340402632
15183329 4 17060340743123095525
15196674 1 18341619264488249123
1577012 14 17632305579675034961
15840311 113 18335988631905245485
18335252 114 18412821382998665813
20157964 124 18413392055218441080
20612939 158 18341901796063454658
21033648 29 17603299371258249623
21267235 1 18341907255009527506
21279426 13 18411143549835024131
21344244 78 17846210013476516600
21792934 111 18341325621863771592
21859007 373 17968363555444911117
22149856 69 18193582140670634827
23081809 10 17489595554426641401
23559900 14 18342740732885589162
249057 25 17489034768741202611
249057 3 18343587335126919278
255183 451 17628088797753559134
29717793 49 17918280835201442455
3004659 81 18413112753664156266
335352 9 18341901775295889742
3411729 13 18339923840129969760
350125 39 18340214011903855544
3633792 109 18413389817303259105
397830 11 17823996712961970355
4073 2 18189341340747940451
5104073 3 18341061799208176003
6698420 124 18336274453879282339

> <PUBCHEM_SHAPE_MULTIPOLES>
532.83
21.55
3
1.12
46.21
1.05
0.37
5.2
6.9
-6.69
0.22
1.5
0.5
2.27

> <PUBCHEM_SHAPE_SELFOVERLAP>
1176.123

> <PUBCHEM_SHAPE_VOLUME>
287.1

> <PUBCHEM_COORDINATE_TYPE>
2
5
10

$$$$
