4880035
  -OEChem-01171810123D

 53 55  0     0  0  0  0  0  0999 V2000
    3.2780   -2.1075    1.6736 O   0  0  0  0  0  0  0  0  0  0  0  0
   -1.0023   -1.5672    0.3744 O   0  0  0  0  0  0  0  0  0  0  0  0
   -7.1754    0.2276   -0.5363 O   0  0  0  0  0  0  0  0  0  0  0  0
    1.3750   -0.7776    1.5609 N   0  0  0  0  0  0  0  0  0  0  0  0
   -1.7361    0.6630    0.4538 N   0  0  0  0  0  0  0  0  0  0  0  0
    3.0310   -0.7818   -0.2785 C   0  0  0  0  0  0  0  0  0  0  0  0
    1.9957   -1.3365   -1.2951 C   0  0  0  0  0  0  0  0  0  0  0  0
    4.3708   -1.4583   -0.6732 C   0  0  0  0  0  0  0  0  0  0  0  0
    2.8184   -1.9636   -2.4134 C   0  0  0  0  0  0  0  0  0  0  0  0
    4.0057   -2.5495   -1.6733 C   0  0  0  0  0  0  0  0  0  0  0  0
    3.2243    0.7338   -0.2584 C   0  0  0  0  0  0  0  0  0  0  0  0
    2.5792   -1.2866    1.0733 C   0  0  0  0  0  0  0  0  0  0  0  0
    3.6049    1.3739    0.9218 C   0  0  0  0  0  0  0  0  0  0  0  0
    3.0210    1.4796   -1.4202 C   0  0  0  0  0  0  0  0  0  0  0  0
    0.5787    0.1943    0.8158 C   0  0  0  0  0  0  0  0  0  0  0  0
    0.8240   -1.1786    2.8490 C   0  0  0  0  0  0  0  0  0  0  0  0
    3.7816    2.7574    0.9402 C   0  0  0  0  0  0  0  0  0  0  0  0
    3.1978    2.8631   -1.4018 C   0  0  0  0  0  0  0  0  0  0  0  0
    3.5780    3.5020   -0.2215 C   0  0  0  0  0  0  0  0  0  0  0  0
   -0.8011   -0.3663    0.5224 C   0  0  0  0  0  0  0  0  0  0  0  0
   -3.1240    0.5524    0.2007 C   0  0  0  0  0  0  0  0  0  0  0  0
   -3.9009    1.6984    0.1705 C   0  0  0  0  0  0  0  0  0  0  0  0
   -3.6759   -0.7003   -0.0101 C   0  0  0  0  0  0  0  0  0  0  0  0
   -5.2691    1.5887   -0.0776 C   0  0  0  0  0  0  0  0  0  0  0  0
   -5.0442   -0.8101   -0.2583 C   0  0  0  0  0  0  0  0  0  0  0  0
   -5.8409    0.3345   -0.2921 C   0  0  0  0  0  0  0  0  0  0  0  0
   -7.6941   -1.0848   -0.7469 C   0  0  0  0  0  0  0  0  0  0  0  0
    1.3825   -2.1350   -0.8565 H   0  0  0  0  0  0  0  0  0  0  0  0
    1.3055   -0.6107   -1.7330 H   0  0  0  0  0  0  0  0  0  0  0  0
    5.0277   -0.7431   -1.1881 H   0  0  0  0  0  0  0  0  0  0  0  0
    4.9654   -1.8590    0.1533 H   0  0  0  0  0  0  0  0  0  0  0  0
    2.2565   -2.7256   -2.9615 H   0  0  0  0  0  0  0  0  0  0  0  0
    3.1506   -1.2039   -3.1295 H   0  0  0  0  0  0  0  0  0  0  0  0
    3.7134   -3.4645   -1.1449 H   0  0  0  0  0  0  0  0  0  0  0  0
    4.8354   -2.7912   -2.3439 H   0  0  0  0  0  0  0  0  0  0  0  0
    3.7969    0.8242    1.8387 H   0  0  0  0  0  0  0  0  0  0  0  0
    2.7421    1.0157   -2.3603 H   0  0  0  0  0  0  0  0  0  0  0  0
    0.9416    0.5611   -0.1296 H   0  0  0  0  0  0  0  0  0  0  0  0
    0.4866    1.0716    1.4693 H   0  0  0  0  0  0  0  0  0  0  0  0
    0.5690   -0.2864    3.4282 H   0  0  0  0  0  0  0  0  0  0  0  0
   -0.0653   -1.7962    2.7045 H   0  0  0  0  0  0  0  0  0  0  0  0
    1.5563   -1.7634    3.4126 H   0  0  0  0  0  0  0  0  0  0  0  0
    4.0832    3.2545    1.8575 H   0  0  0  0  0  0  0  0  0  0  0  0
    3.0435    3.4428   -2.3073 H   0  0  0  0  0  0  0  0  0  0  0  0
    3.7177    4.5789   -0.2078 H   0  0  0  0  0  0  0  0  0  0  0  0
   -1.4015    1.6141    0.5926 H   0  0  0  0  0  0  0  0  0  0  0  0
   -3.4658    2.6800    0.3363 H   0  0  0  0  0  0  0  0  0  0  0  0
   -3.1267   -1.6301    0.0007 H   0  0  0  0  0  0  0  0  0  0  0  0
   -5.8846    2.4838   -0.1029 H   0  0  0  0  0  0  0  0  0  0  0  0
   -5.4240   -1.8138   -0.4167 H   0  0  0  0  0  0  0  0  0  0  0  0
   -8.7695   -0.9824   -0.9256 H   0  0  0  0  0  0  0  0  0  0  0  0
   -7.2643   -1.5487   -1.6411 H   0  0  0  0  0  0  0  0  0  0  0  0
   -7.5765   -1.7117    0.1436 H   0  0  0  0  0  0  0  0  0  0  0  0
  1 12  2  0  0  0  0
  2 20  2  0  0  0  0
  3 26  1  0  0  0  0
  3 27  1  0  0  0  0
  4 12  1  0  0  0  0
  4 15  1  0  0  0  0
  4 16  1  0  0  0  0
  5 20  1  0  0  0  0
  5 21  1  0  0  0  0
  5 46  1  0  0  0  0
  6  7  1  0  0  0  0
  6  8  1  0  0  0  0
  6 11  1  0  0  0  0
  6 12  1  0  0  0  0
  7  9  1  0  0  0  0
  7 28  1  0  0  0  0
  7 29  1  0  0  0  0
  8 10  1  0  0  0  0
  8 30  1  0  0  0  0
  8 31  1  0  0  0  0
  9 10  1  0  0  0  0
  9 32  1  0  0  0  0
  9 33  1  0  0  0  0
 10 34  1  0  0  0  0
 10 35  1  0  0  0  0
 11 13  2  0  0  0  0
 11 14  1  0  0  0  0
 13 17  1  0  0  0  0
 13 36  1  0  0  0  0
 14 18  2  0  0  0  0
 14 37  1  0  0  0  0
 15 20  1  0  0  0  0
 15 38  1  0  0  0  0
 15 39  1  0  0  0  0
 16 40  1  0  0  0  0
 16 41  1  0  0  0  0
 16 42  1  0  0  0  0
 17 19  2  0  0  0  0
 17 43  1  0  0  0  0
 18 19  1  0  0  0  0
 18 44  1  0  0  0  0
 19 45  1  0  0  0  0
 21 22  2  0  0  0  0
 21 23  1  0  0  0  0
 22 24  1  0  0  0  0
 22 47  1  0  0  0  0
 23 25  2  0  0  0  0
 23 48  1  0  0  0  0
 24 26  2  0  0  0  0
 24 49  1  0  0  0  0
 25 26  1  0  0  0  0
 25 50  1  0  0  0  0
 27 51  1  0  0  0  0
 27 52  1  0  0  0  0
 27 53  1  0  0  0  0
M  END
> <PUBCHEM_COMPOUND_CID>
4880035

> <PUBCHEM_CONFORMER_RMSD>
1

> <PUBCHEM_CONFORMER_DIVERSEORDER>
2
15
6
11
27
12
16
5
10
19
3
26
22
17
14
24
18
25
4
7
13
8
21
23
1
20
9

> <PUBCHEM_MMFF94_PARTIAL_CHARGES>
33
1 -0.57
11 -0.14
12 0.57
13 -0.15
14 -0.15
15 0.36
16 0.3
17 -0.15
18 -0.15
19 -0.15
2 -0.57
20 0.57
21 0.12
22 -0.15
23 -0.15
24 -0.15
25 -0.15
26 0.08
27 0.28
3 -0.36
36 0.15
37 0.15
4 -0.66
43 0.15
44 0.15
45 0.15
46 0.37
47 0.15
48 0.15
49 0.15
5 -0.55
50 0.15
6 0.2

> <PUBCHEM_EFFECTIVE_ROTOR_COUNT>
9

> <PUBCHEM_PHARMACOPHORE_FEATURES>
7
1 1 acceptor
1 2 acceptor
1 3 acceptor
1 5 donor
5 6 7 8 9 10 rings
6 11 13 14 17 18 19 rings
6 21 22 23 24 25 26 rings

> <PUBCHEM_HEAVY_ATOM_COUNT>
27

> <PUBCHEM_ATOM_DEF_STEREO_COUNT>
0

> <PUBCHEM_ATOM_UDEF_STEREO_COUNT>
0

> <PUBCHEM_BOND_DEF_STEREO_COUNT>
0

> <PUBCHEM_BOND_UDEF_STEREO_COUNT>
0

> <PUBCHEM_ISOTOPIC_ATOM_COUNT>
0

> <PUBCHEM_COMPONENT_COUNT>
1

> <PUBCHEM_CACTVS_TAUTO_COUNT>
2

> <PUBCHEM_CONFORMER_ID>
004A76A300000002

> <PUBCHEM_MMFF94_ENERGY>
108.7598

> <PUBCHEM_FEATURE_SELFOVERLAP>
35.522

> <PUBCHEM_SHAPE_FINGERPRINT>
10930396 42 18266162965543337210
12107698 1 18337107874117062916
12166972 35 17774447070821282494
13150687 139 18058740251022853396
13533116 47 18343306968008840157
13782708 43 16271918351515471839
14068700 675 17702109071670264238
14170010 4 18341895195542843176
14461889 52 17677051386340655883
14528608 73 18187082850039273957
14863182 85 15554169156298616150
15183329 4 14117517615603533497
15324115 91 17632861940573383302
15799311 1 17346886684704389559
15961568 22 18260548969348353349
17844677 252 18409732816518991505
17909252 39 18131358470909205592
17980427 23 18126534995413571986
18681886 176 18343299232783386754
21304303 282 17125620020048808892
21860390 5 18334862740324937884
22149856 69 17775293768480353739
22393880 68 18261389984669940197
23522609 53 17416711170858524081
23559900 14 18201723903281904055
238 59 18198366098588206856
239999 70 18411419505525317786
3004659 81 18342738485921113971
34797466 226 18411983577076866813
376196 1 18120370123684631016
44317340 157 18413392025697385165
44802255 64 17475823291227452164
46194498 28 18342740689112775820
474 4 17968097589816703880
513532 50 18408323285456211172
5281201 14 18342463595007981453
57091435 61 18188488094160963561
59755656 215 18411425020849135444
6086070 43 18042956571925798317
633830 44 18410008815259340951
90127 26 18335147462444389841

> <PUBCHEM_SHAPE_MULTIPOLES>
528.08
14.95
3.12
1.84
35.29
1.73
-0.51
0.76
4.77
-5.32
0.87
-2.32
-0.98
0.23

> <PUBCHEM_SHAPE_SELFOVERLAP>
1130.198

> <PUBCHEM_SHAPE_VOLUME>
292.6

> <PUBCHEM_COORDINATE_TYPE>
2
5
10

$$$$
