4879810
  -OEChem-01171809513D

 33 35  0     0  0  0  0  0  0999 V2000
   -4.5168    1.4266   -2.0972 Cl  0  0  0  0  0  0  0  0  0  0  0  0
   -6.3001    0.8021    0.5899 Cl  0  0  0  0  0  0  0  0  0  0  0  0
   -0.2597    0.1983    1.6331 O   0  0  0  0  0  0  0  0  0  0  0  0
    3.9764   -3.1101   -0.6076 O   0  0  0  0  0  0  0  0  0  0  0  0
   -1.9267    0.0936   -1.8896 O   0  0  0  0  0  0  0  0  0  0  0  0
    1.4444   -0.5834    0.2069 N   0  0  0  0  0  0  0  0  0  0  0  0
    4.2241   -0.8635   -0.2958 N   0  0  0  0  0  0  0  0  0  0  0  0
   -2.1572   -0.9266    0.1791 N   0  0  0  0  0  0  0  0  0  0  0  0
   -2.9389   -1.1634    1.2893 N   0  0  0  0  0  0  0  0  0  0  0  0
    2.3050    0.5668    0.1799 C   0  0  0  0  0  0  0  0  0  0  0  0
    1.9781   -1.8300   -0.3484 C   0  0  0  0  0  0  0  0  0  0  0  0
    3.6753    0.4028   -0.0681 C   0  0  0  0  0  0  0  0  0  0  0  0
    0.1338   -0.5350    0.7234 C   0  0  0  0  0  0  0  0  0  0  0  0
   -0.8556   -1.5037    0.1117 C   0  0  0  0  0  0  0  0  0  0  0  0
    3.4768   -2.0051   -0.3904 C   0  0  0  0  0  0  0  0  0  0  0  0
    1.8359    1.8763    0.3786 C   0  0  0  0  0  0  0  0  0  0  0  0
    4.5509    1.4982   -0.0729 C   0  0  0  0  0  0  0  0  0  0  0  0
    2.7074    2.9713    0.3647 C   0  0  0  0  0  0  0  0  0  0  0  0
    4.0657    2.7823    0.1459 C   0  0  0  0  0  0  0  0  0  0  0  0
   -2.6094   -0.1307   -0.8893 C   0  0  0  0  0  0  0  0  0  0  0  0
   -3.9769    0.4532   -0.7787 C   0  0  0  0  0  0  0  0  0  0  0  0
   -4.1140   -0.6337    1.3334 C   0  0  0  0  0  0  0  0  0  0  0  0
   -4.7186    0.2137    0.3019 C   0  0  0  0  0  0  0  0  0  0  0  0
    1.6163   -1.9049   -1.3810 H   0  0  0  0  0  0  0  0  0  0  0  0
    1.5619   -2.6689    0.2210 H   0  0  0  0  0  0  0  0  0  0  0  0
   -0.8384   -2.4405    0.6786 H   0  0  0  0  0  0  0  0  0  0  0  0
   -0.6023   -1.7179   -0.9300 H   0  0  0  0  0  0  0  0  0  0  0  0
    5.2321   -0.9371   -0.4017 H   0  0  0  0  0  0  0  0  0  0  0  0
    0.7805    2.0830    0.5311 H   0  0  0  0  0  0  0  0  0  0  0  0
    5.6143    1.3583   -0.2522 H   0  0  0  0  0  0  0  0  0  0  0  0
    2.3175    3.9729    0.5227 H   0  0  0  0  0  0  0  0  0  0  0  0
    4.7420    3.6314    0.1375 H   0  0  0  0  0  0  0  0  0  0  0  0
   -4.7333   -0.8277    2.2248 H   0  0  0  0  0  0  0  0  0  0  0  0
  1 21  1  0  0  0  0
  2 23  1  0  0  0  0
  3 13  2  0  0  0  0
  4 15  2  0  0  0  0
  5 20  2  0  0  0  0
  6 10  1  0  0  0  0
  6 11  1  0  0  0  0
  6 13  1  0  0  0  0
  7 12  1  0  0  0  0
  7 15  1  0  0  0  0
  7 28  1  0  0  0  0
  8  9  1  0  0  0  0
  8 14  1  0  0  0  0
  8 20  1  0  0  0  0
  9 22  2  0  0  0  0
 10 12  1  0  0  0  0
 10 16  2  0  0  0  0
 11 15  1  0  0  0  0
 11 24  1  0  0  0  0
 11 25  1  0  0  0  0
 12 17  2  0  0  0  0
 13 14  1  0  0  0  0
 14 26  1  0  0  0  0
 14 27  1  0  0  0  0
 16 18  1  0  0  0  0
 16 29  1  0  0  0  0
 17 19  1  0  0  0  0
 17 30  1  0  0  0  0
 18 19  2  0  0  0  0
 18 31  1  0  0  0  0
 19 32  1  0  0  0  0
 20 21  1  0  0  0  0
 21 23  2  0  0  0  0
 22 23  1  0  0  0  0
 22 33  1  0  0  0  0
M  END
> <PUBCHEM_COMPOUND_CID>
4879810

> <PUBCHEM_CONFORMER_RMSD>
0.6

> <PUBCHEM_CONFORMER_DIVERSEORDER>
2
102
19
106
34
73
53
50
71
44
56
76
70
26
55
93
1
129
57
122
126
84
128
58
80
67
108
22
88
109
131
72
105
112
51
117
33
123
20
11
132
36
96
77
49
110
78
45
24
81
130
133
113
107
86
111
85
65
104
92
54
25
42
21
39
12
125
40
35
37
98
23
127
99
48
63
17
94
18
97
27
46
29
47
95
52
100
28
43
120
118
90
119
74
87
15
16
66
30
64
91
79
68
89
124
8
4
75
69
3
7
10
9
103
38
41
60
83
114
59
82
6
61
5
121
13
62
14
31
101
32
115
116

> <PUBCHEM_MMFF94_PARTIAL_CHARGES>
29
1 -0.14
10 0.12
11 0.36
12 0.12
13 0.57
14 0.36
15 0.57
16 -0.15
17 -0.15
18 -0.15
19 -0.15
2 -0.14
20 0.62
21 0.15
22 0.38
23 0.15
28 0.37
29 0.15
3 -0.57
30 0.15
31 0.15
32 0.15
33 0.06
4 -0.57
5 -0.57
6 -0.48
7 -0.55
8 -0.3
9 -0.51

> <PUBCHEM_EFFECTIVE_ROTOR_COUNT>
3.6

> <PUBCHEM_PHARMACOPHORE_FEATURES>
8
1 3 acceptor
1 4 acceptor
1 5 acceptor
1 7 donor
1 9 acceptor
6 10 12 16 17 18 19 rings
6 6 7 10 11 12 15 rings
6 8 9 20 21 22 23 rings

> <PUBCHEM_HEAVY_ATOM_COUNT>
23

> <PUBCHEM_ATOM_DEF_STEREO_COUNT>
0

> <PUBCHEM_ATOM_UDEF_STEREO_COUNT>
0

> <PUBCHEM_BOND_DEF_STEREO_COUNT>
0

> <PUBCHEM_BOND_UDEF_STEREO_COUNT>
0

> <PUBCHEM_ISOTOPIC_ATOM_COUNT>
0

> <PUBCHEM_COMPONENT_COUNT>
1

> <PUBCHEM_CACTVS_TAUTO_COUNT>
2

> <PUBCHEM_CONFORMER_ID>
004A75C200000002

> <PUBCHEM_MMFF94_ENERGY>
78.0066

> <PUBCHEM_FEATURE_SELFOVERLAP>
40.625

> <PUBCHEM_SHAPE_FINGERPRINT>
10369192 42 17974861862808153108
10411042 1 18052263886901279486
11370993 144 18336273370835509369
11405975 8 18333447642588980907
11595378 159 15647322044350468141
12236239 1 17346599672786612959
12403259 415 18040714728294282237
12730499 353 18337117855388963242
12769317 202 18341044224634458272
13782708 43 18114467786384821971
14251757 17 18261107452545757665
15081414 286 18335140903470789740
16752209 62 15913062983950509131
17349148 13 16272206388389820535
17818456 19 16555956121345521882
17844677 252 18340776953193274817
1813 80 17701553805250078734
19784866 34 18057601177944573768
20511986 3 17131821097445382296
20612939 158 18343306950401449482
20645477 56 18187648041654523987
20645477 70 18343869904993086710
21033648 29 17749103371083112645
21065201 7 17095526184073377747
21792961 116 18116441345643335142
22122407 14 18130243575141144793
221357 26 18337952290388766485
22289505 5 18410009914781505388
22393880 68 17986957543122393188
23175994 123 18267874882390682511
23557571 272 17676211298736706725
23559900 14 18341895178041630122
474 4 18270122438992502616
495365 180 18200304546046003176
5104073 3 18261110815557664875
5281201 14 18408605837878726647
543358 83 18272093794611039584
57724786 102 18412549799363357657
6287921 2 18042975460970186397
633830 44 18410005512440156667
7399639 24 17688312699758417146
7471813 234 17632574912320211880
8272917 22 18343588447354195582

> <PUBCHEM_SHAPE_MULTIPOLES>
439.54
12.3
2.73
1.33
9.37
0.3
0.34
3.48
0.57
-4.7
0.21
1.9
0.17
1.72

> <PUBCHEM_SHAPE_SELFOVERLAP>
934.238

> <PUBCHEM_SHAPE_VOLUME>
243.6

> <PUBCHEM_COORDINATE_TYPE>
2
5
10

$$$$
