4885033
  -OEChem-01171809253D

 36 39  0     0  0  0  0  0  0999 V2000
    0.6943    1.2302   -1.6012 S   0  0  0  0  0  0  0  0  0  0  0  0
    2.2966   -0.1261    0.1499 N   0  0  0  0  0  0  0  0  0  0  0  0
   -1.3840    1.8071    0.0769 N   0  0  0  0  0  0  0  0  0  0  0  0
    3.5097   -0.0498    0.7224 N   0  0  0  0  0  0  0  0  0  0  0  0
    3.1949    1.6942   -0.6303 N   0  0  0  0  0  0  0  0  0  0  0  0
   -1.7885    2.7357    0.9546 N   0  0  0  0  0  0  0  0  0  0  0  0
    0.1944    3.2941    0.1020 N   0  0  0  0  0  0  0  0  0  0  0  0
    4.0522    1.0623    0.2419 N   0  0  0  0  0  0  0  0  0  0  0  0
   -0.8190    3.6424    0.9662 N   0  0  0  0  0  0  0  0  0  0  0  0
    1.4394   -1.1778    0.4268 C   0  0  0  0  0  0  0  0  0  0  0  0
    1.4634   -2.3433   -0.3392 C   0  0  0  0  0  0  0  0  0  0  0  0
    0.5428   -1.0597    1.4889 C   0  0  0  0  0  0  0  0  0  0  0  0
    0.5910   -3.3907   -0.0430 C   0  0  0  0  0  0  0  0  0  0  0  0
    2.1176    0.9445   -0.6735 C   0  0  0  0  0  0  0  0  0  0  0  0
   -2.1673    0.6895   -0.1923 C   0  0  0  0  0  0  0  0  0  0  0  0
    2.4110   -2.5020   -1.4850 C   0  0  0  0  0  0  0  0  0  0  0  0
   -0.3294   -2.1072    1.7852 C   0  0  0  0  0  0  0  0  0  0  0  0
   -0.3054   -3.2725    1.0193 C   0  0  0  0  0  0  0  0  0  0  0  0
   -0.2032    2.1845   -0.4004 C   0  0  0  0  0  0  0  0  0  0  0  0
   -2.1110    0.0950   -1.4484 C   0  0  0  0  0  0  0  0  0  0  0  0
   -2.9972    0.1745    0.7978 C   0  0  0  0  0  0  0  0  0  0  0  0
   -2.8939   -1.0276   -1.7177 C   0  0  0  0  0  0  0  0  0  0  0  0
   -3.7801   -0.9481    0.5285 C   0  0  0  0  0  0  0  0  0  0  0  0
   -3.7284   -1.5492   -0.7292 C   0  0  0  0  0  0  0  0  0  0  0  0
    0.5122   -0.1584    2.0966 H   0  0  0  0  0  0  0  0  0  0  0  0
    0.5947   -4.3053   -0.6300 H   0  0  0  0  0  0  0  0  0  0  0  0
    2.1926   -1.7721   -2.2708 H   0  0  0  0  0  0  0  0  0  0  0  0
    3.4469   -2.3804   -1.1521 H   0  0  0  0  0  0  0  0  0  0  0  0
    2.3363   -3.4971   -1.9377 H   0  0  0  0  0  0  0  0  0  0  0  0
   -1.0271   -2.0155    2.6124 H   0  0  0  0  0  0  0  0  0  0  0  0
   -0.9857   -4.0872    1.2492 H   0  0  0  0  0  0  0  0  0  0  0  0
   -1.6010    0.5181   -2.3034 H   0  0  0  0  0  0  0  0  0  0  0  0
   -3.0499    0.6140    1.7905 H   0  0  0  0  0  0  0  0  0  0  0  0
   -2.8776   -1.4783   -2.7058 H   0  0  0  0  0  0  0  0  0  0  0  0
   -4.4284   -1.3558    1.2987 H   0  0  0  0  0  0  0  0  0  0  0  0
   -4.3422   -2.4198   -0.9405 H   0  0  0  0  0  0  0  0  0  0  0  0
  1 14  1  0  0  0  0
  1 19  1  0  0  0  0
  2  4  1  0  0  0  0
  2 10  1  0  0  0  0
  2 14  1  0  0  0  0
  3  6  1  0  0  0  0
  3 15  1  0  0  0  0
  3 19  1  0  0  0  0
  4  8  2  0  0  0  0
  5  8  1  0  0  0  0
  5 14  2  0  0  0  0
  6  9  2  0  0  0  0
  7  9  1  0  0  0  0
  7 19  2  0  0  0  0
 10 11  1  0  0  0  0
 10 12  2  0  0  0  0
 11 13  2  0  0  0  0
 11 16  1  0  0  0  0
 12 17  1  0  0  0  0
 12 25  1  0  0  0  0
 13 18  1  0  0  0  0
 13 26  1  0  0  0  0
 15 20  2  0  0  0  0
 15 21  1  0  0  0  0
 16 27  1  0  0  0  0
 16 28  1  0  0  0  0
 16 29  1  0  0  0  0
 17 18  2  0  0  0  0
 17 30  1  0  0  0  0
 18 31  1  0  0  0  0
 20 22  1  0  0  0  0
 20 32  1  0  0  0  0
 21 23  2  0  0  0  0
 21 33  1  0  0  0  0
 22 24  2  0  0  0  0
 22 34  1  0  0  0  0
 23 24  1  0  0  0  0
 23 35  1  0  0  0  0
 24 36  1  0  0  0  0
M  END
> <PUBCHEM_COMPOUND_CID>
4885033

> <PUBCHEM_CONFORMER_RMSD>
0.8

> <PUBCHEM_CONFORMER_DIVERSEORDER>
1
37
51
32
64
71
57
50
48
36
76
49
75
87
88
77
83
11
24
23
65
86
15
26
81
28
74
70
66
56
40
53
82
84
52
68
25
35
58
16
47
80
54
59
22
27
33
43
17
60
45
62
21
12
72
4
39
20
18
61
73
5
14
3
31
63
55
6
13
30
2
46
29
34
41
42
78
19
67
79
8
38
69
44
9
85
7
10

> <PUBCHEM_MMFF94_PARTIAL_CHARGES>
31
1 -0.11
10 -0.02
11 -0.14
12 -0.15
13 -0.15
14 0.24
15 -0.02
16 0.14
17 -0.15
18 -0.15
19 0.24
2 0.59
20 -0.15
21 -0.15
22 -0.15
23 -0.15
24 -0.15
25 0.15
26 0.15
3 0.59
30 0.15
31 0.15
32 0.15
33 0.15
34 0.15
35 0.15
36 0.15
4 -0.42
5 -0.34
6 -0.42
7 -0.34

> <PUBCHEM_EFFECTIVE_ROTOR_COUNT>
4

> <PUBCHEM_PHARMACOPHORE_FEATURES>
6
3 2 5 14 cation
3 3 7 19 cation
5 2 4 5 8 14 rings
5 3 6 7 9 19 rings
6 10 11 12 13 17 18 rings
6 15 20 21 22 23 24 rings

> <PUBCHEM_HEAVY_ATOM_COUNT>
24

> <PUBCHEM_ATOM_DEF_STEREO_COUNT>
0

> <PUBCHEM_ATOM_UDEF_STEREO_COUNT>
0

> <PUBCHEM_BOND_DEF_STEREO_COUNT>
0

> <PUBCHEM_BOND_UDEF_STEREO_COUNT>
0

> <PUBCHEM_ISOTOPIC_ATOM_COUNT>
0

> <PUBCHEM_COMPONENT_COUNT>
1

> <PUBCHEM_CACTVS_TAUTO_COUNT>
1

> <PUBCHEM_CONFORMER_ID>
004A8A2900000001

> <PUBCHEM_MMFF94_ENERGY>
90.0181

> <PUBCHEM_FEATURE_SELFOVERLAP>
30.449

> <PUBCHEM_SHAPE_FINGERPRINT>
1100329 8 18050844721561501300
11578080 2 17272265973736386106
12035758 1 17978224186117896040
12054548 360 17544482955467931598
12553582 1 18341334491271885317
13140716 1 18191867825199737576
13149001 5 17905039601356900485
13544592 271 18265054823896201290
14178342 30 18122053209582492144
14223421 5 18265613173849815293
14787075 74 18264203797537778469
17492 54 18043805605239424031
19319366 153 17033628953607496706
22907989 373 17975454413934069820
23402539 116 18411692210310477514
23419403 2 14865863899079018563
23558518 356 18265624182204429164
238 59 17901351762512445103
34934 24 18342457015640589661
392239 28 18270103747290049832
6287921 2 18268443351282036246
70251023 43 18126554631735686631
7832392 63 17763184631246558274
81228 2 17471543570421091787
90525 40 15813684376924407598

> <PUBCHEM_SHAPE_MULTIPOLES>
457.91
5.46
4.29
1.55
0.32
0.54
0.19
-0.27
0.74
-0.5
-0.87
0.35
-0.43
-0.29

> <PUBCHEM_SHAPE_SELFOVERLAP>
998.623

> <PUBCHEM_SHAPE_VOLUME>
251.5

> <PUBCHEM_COORDINATE_TYPE>
2
5
10

$$$$
