3809580
  -OEChem-01171809223D

 26 28  0     0  0  0  0  0  0999 V2000
   -1.7306    2.0402    1.6703 Cl  0  0  0  0  0  0  0  0  0  0  0  0
   -0.4880    0.9808   -1.1966 S   0  0  0  0  0  0  0  0  0  0  0  0
    3.9546   -0.4422    0.5661 O   0  0  0  0  0  0  0  0  0  0  0  0
    4.0206    0.8883    0.1697 N   0  0  0  0  0  0  0  0  0  0  0  0
    0.1381   -1.4640   -0.2441 N   0  0  0  0  0  0  0  0  0  0  0  0
    2.3046   -2.1747    0.6193 N   0  0  0  0  0  0  0  0  0  0  0  0
    1.9230    0.0887   -0.2008 C   0  0  0  0  0  0  0  0  0  0  0  0
    2.7985    1.1834   -0.2840 C   0  0  0  0  0  0  0  0  0  0  0  0
    0.6137   -0.2320   -0.4883 C   0  0  0  0  0  0  0  0  0  0  0  0
    2.6986   -0.9199    0.3438 C   0  0  0  0  0  0  0  0  0  0  0  0
    2.5362    2.5430   -0.7862 C   0  0  0  0  0  0  0  0  0  0  0  0
   -2.0623    0.4391   -0.5352 C   0  0  0  0  0  0  0  0  0  0  0  0
   -2.5717    0.8984    0.6796 C   0  0  0  0  0  0  0  0  0  0  0  0
   -2.7868   -0.4823   -1.2914 C   0  0  0  0  0  0  0  0  0  0  0  0
    1.0075   -2.3530    0.2911 C   0  0  0  0  0  0  0  0  0  0  0  0
   -3.8055    0.4361    1.1378 C   0  0  0  0  0  0  0  0  0  0  0  0
   -4.0205   -0.9445   -0.8330 C   0  0  0  0  0  0  0  0  0  0  0  0
   -4.5298   -0.4854    0.3816 C   0  0  0  0  0  0  0  0  0  0  0  0
    3.4257    3.1791   -0.7181 H   0  0  0  0  0  0  0  0  0  0  0  0
    2.2336    2.5173   -1.8378 H   0  0  0  0  0  0  0  0  0  0  0  0
    1.7448    3.0261   -0.2043 H   0  0  0  0  0  0  0  0  0  0  0  0
   -2.4112   -0.8547   -2.2416 H   0  0  0  0  0  0  0  0  0  0  0  0
    0.6060   -3.3425    0.4819 H   0  0  0  0  0  0  0  0  0  0  0  0
   -4.2182    0.7829    2.0820 H   0  0  0  0  0  0  0  0  0  0  0  0
   -4.5846   -1.6619   -1.4216 H   0  0  0  0  0  0  0  0  0  0  0  0
   -5.4904   -0.8454    0.7383 H   0  0  0  0  0  0  0  0  0  0  0  0
  1 13  1  0  0  0  0
  2  9  1  0  0  0  0
  2 12  1  0  0  0  0
  3  4  1  0  0  0  0
  3 10  1  0  0  0  0
  4  8  2  0  0  0  0
  5  9  2  0  0  0  0
  5 15  1  0  0  0  0
  6 10  1  0  0  0  0
  6 15  2  0  0  0  0
  7  8  1  0  0  0  0
  7  9  1  0  0  0  0
  7 10  2  0  0  0  0
  8 11  1  0  0  0  0
 11 19  1  0  0  0  0
 11 20  1  0  0  0  0
 11 21  1  0  0  0  0
 12 13  1  0  0  0  0
 12 14  2  0  0  0  0
 13 16  2  0  0  0  0
 14 17  1  0  0  0  0
 14 22  1  0  0  0  0
 15 23  1  0  0  0  0
 16 18  1  0  0  0  0
 16 24  1  0  0  0  0
 17 18  2  0  0  0  0
 17 25  1  0  0  0  0
 18 26  1  0  0  0  0
M  END
> <PUBCHEM_COMPOUND_CID>
3809580

> <PUBCHEM_CONFORMER_RMSD>
0.6

> <PUBCHEM_CONFORMER_DIVERSEORDER>
1
9
17
11
5
15
4
14
13
3
10
2
12
8
7
6
16

> <PUBCHEM_MMFF94_PARTIAL_CHARGES>
22
1 -0.18
10 0.4
11 0.18
12 0.1
13 0.18
14 -0.15
15 0.47
16 -0.15
17 -0.15
18 -0.15
2 -0.2
22 0.15
23 0.15
24 0.15
25 0.15
26 0.15
3 -0.02
4 -0.41
5 -0.62
6 -0.57
8 0.11
9 0.41

> <PUBCHEM_EFFECTIVE_ROTOR_COUNT>
2

> <PUBCHEM_PHARMACOPHORE_FEATURES>
6
1 4 acceptor
1 5 acceptor
3 5 6 15 cation
5 3 4 7 8 10 rings
6 12 13 14 16 17 18 rings
6 5 6 7 9 10 15 rings

> <PUBCHEM_HEAVY_ATOM_COUNT>
18

> <PUBCHEM_ATOM_DEF_STEREO_COUNT>
0

> <PUBCHEM_ATOM_UDEF_STEREO_COUNT>
0

> <PUBCHEM_BOND_DEF_STEREO_COUNT>
0

> <PUBCHEM_BOND_UDEF_STEREO_COUNT>
0

> <PUBCHEM_ISOTOPIC_ATOM_COUNT>
0

> <PUBCHEM_COMPONENT_COUNT>
1

> <PUBCHEM_CACTVS_TAUTO_COUNT>
1

> <PUBCHEM_CONFORMER_ID>
003A212C00000001

> <PUBCHEM_MMFF94_ENERGY>
37.8072

> <PUBCHEM_FEATURE_SELFOVERLAP>
30.564

> <PUBCHEM_SHAPE_FINGERPRINT>
10366900 7 17458350727640738608
11471102 22 17968098594664568628
11578080 2 17912888856434708721
11615757 297 18410009935707598692
12236239 1 18201718470654261047
12251169 10 18410294692128994191
12363563 72 16298395647267150661
12390115 104 17758412047025215284
12670545 47 17458636639234296002
13009979 54 17985829229333543834
13140716 1 18117555339467497874
13296908 3 16950283983862577711
13693222 15 18114180809090001469
14289901 80 18412826859070990129
14341114 328 18202009845340821385
14787075 74 18126568062013245159
14844126 61 16024490481580999306
15309172 13 18335136492485992390
15375358 24 17458337533849436551
15375462 189 18271807951810831459
16945 1 18260546706237256094
17492 89 18269558252168439507
17834072 14 17603583024141834973
18186145 218 18412545418364340572
19050596 39 18342740710819577617
200 152 18411971469363632039
20279233 1 16877943823963357443
204376 136 18116154552853033564
20645477 70 18189319222014382671
20715895 44 17837492947821789145
2255824 54 18408046216941671662
22854114 111 18408886243503616884
22854114 59 18334293179852033277
23557571 272 15985105253492390029
23590187 214 18408323276481206607
23598288 3 17774429470124295069
26918003 58 18260547827476862979
2748010 2 17902491715620539942
2838139 119 15983673745936960720
3797600 57 18059859488553782363
392239 28 18057040439598298643
4409770 3 16392130886046220758
474 4 18336267941501215260
6333272 397 18336266846389763960
633830 44 18342470269339732540
7097593 13 17982738467571738507
77492 1 18201998841629256309
9882013 296 18411982455504956959

> <PUBCHEM_SHAPE_MULTIPOLES>
355.34
7.96
2.25
1.24
2.08
0.01
-0.06
-0.02
-0.89
-1.47
-0.33
0.84
0.41
-1.38

> <PUBCHEM_SHAPE_SELFOVERLAP>
758.437

> <PUBCHEM_SHAPE_VOLUME>
199.7

> <PUBCHEM_COORDINATE_TYPE>
2
5
10

$$$$
