6302331
  -OEChem-01171810153D

 33 34  0     0  0  0  0  0  0999 V2000
   -2.9598    1.3216   -1.6978 O   0  0  0  0  0  0  0  0  0  0  0  0
   -1.7853    2.3972    1.0605 O   0  0  0  0  0  0  0  0  0  0  0  0
   -5.4109    0.1504   -1.9999 O   0  0  0  0  0  0  0  0  0  0  0  0
    6.1041   -2.0834   -0.3881 O   0  5  0  0  0  0  0  0  0  0  0  0
    6.8933   -0.0451   -0.5911 O   0  0  0  0  0  0  0  0  0  0  0  0
    5.9434   -0.8390   -0.3873 N   0  3  0  0  0  0  0  0  0  0  0  0
    2.1156    0.7132    0.3184 C   0  0  0  0  0  0  0  0  0  0  0  0
   -2.8529    0.3840    0.4817 C   0  0  0  0  0  0  0  0  0  0  0  0
    0.7692    1.2592    0.5659 C   0  0  0  0  0  0  0  0  0  0  0  0
    2.3005   -0.6596    0.3151 C   0  0  0  0  0  0  0  0  0  0  0  0
    3.1693    1.5836    0.0929 C   0  0  0  0  0  0  0  0  0  0  0  0
   -1.6639    1.2415    0.6919 C   0  0  0  0  0  0  0  0  0  0  0  0
    4.6461   -0.3131   -0.1488 C   0  0  0  0  0  0  0  0  0  0  0  0
   -3.4467    0.4567   -0.7248 C   0  0  0  0  0  0  0  0  0  0  0  0
   -0.3720    0.5705    0.4187 C   0  0  0  0  0  0  0  0  0  0  0  0
    3.5746   -1.1764    0.0799 C   0  0  0  0  0  0  0  0  0  0  0  0
    4.4434    1.0670   -0.1424 C   0  0  0  0  0  0  0  0  0  0  0  0
   -3.2925   -0.3664    1.6377 C   0  0  0  0  0  0  0  0  0  0  0  0
   -4.6580   -0.3132   -1.1434 C   0  0  0  0  0  0  0  0  0  0  0  0
   -4.0402   -1.4735    1.6678 C   0  0  0  0  0  0  0  0  0  0  0  0
   -4.8918   -1.6907   -0.6543 C   0  0  0  0  0  0  0  0  0  0  0  0
   -4.5856   -2.1846    0.5474 C   0  0  0  0  0  0  0  0  0  0  0  0
    0.7423    2.3006    0.8790 H   0  0  0  0  0  0  0  0  0  0  0  0
    1.5007   -1.3672    0.5096 H   0  0  0  0  0  0  0  0  0  0  0  0
    3.0266    2.6610    0.0933 H   0  0  0  0  0  0  0  0  0  0  0  0
   -0.4087   -0.4598    0.0845 H   0  0  0  0  0  0  0  0  0  0  0  0
    3.6966   -2.2566    0.0869 H   0  0  0  0  0  0  0  0  0  0  0  0
    5.2544    1.7695   -0.3170 H   0  0  0  0  0  0  0  0  0  0  0  0
   -2.9521    0.0220    2.5971 H   0  0  0  0  0  0  0  0  0  0  0  0
   -4.2550   -1.9173    2.6379 H   0  0  0  0  0  0  0  0  0  0  0  0
   -5.4010   -2.3411   -1.3622 H   0  0  0  0  0  0  0  0  0  0  0  0
   -4.8473   -3.2211    0.7511 H   0  0  0  0  0  0  0  0  0  0  0  0
   -3.5242    1.2314   -2.4849 H   0  0  0  0  0  0  0  0  0  0  0  0
  1 14  1  0  0  0  0
  1 33  1  0  0  0  0
  2 12  2  0  0  0  0
  3 19  2  0  0  0  0
  4  6  1  0  0  0  0
  5  6  2  0  0  0  0
  6 13  1  0  0  0  0
  7  9  1  0  0  0  0
  7 10  2  0  0  0  0
  7 11  1  0  0  0  0
  8 12  1  0  0  0  0
  8 14  2  0  0  0  0
  8 18  1  0  0  0  0
  9 15  2  0  0  0  0
  9 23  1  0  0  0  0
 10 16  1  0  0  0  0
 10 24  1  0  0  0  0
 11 17  2  0  0  0  0
 11 25  1  0  0  0  0
 12 15  1  0  0  0  0
 13 16  2  0  0  0  0
 13 17  1  0  0  0  0
 14 19  1  0  0  0  0
 15 26  1  0  0  0  0
 16 27  1  0  0  0  0
 17 28  1  0  0  0  0
 18 20  2  0  0  0  0
 18 29  1  0  0  0  0
 19 21  1  0  0  0  0
 20 22  1  0  0  0  0
 20 30  1  0  0  0  0
 21 22  2  0  0  0  0
 21 31  1  0  0  0  0
 22 32  1  0  0  0  0
M  CHG  2   4  -1   6   1
M  END
> <PUBCHEM_COMPOUND_CID>
6302331

> <PUBCHEM_CONFORMER_RMSD>
0.6

> <PUBCHEM_CONFORMER_DIVERSEORDER>
1
32
13
40
31
4
30
21
15
41
3
35
37
12
22
43
36
7
16
14
25
39
24
10
42
19
34
38
17
23
8
27
18
26
6
33
28
9
29
11
20
2
5

> <PUBCHEM_MMFF94_PARTIAL_CHARGES>
33
1 -0.53
10 -0.15
11 -0.15
12 0.54
13 0.13
14 0.09
15 -0.14
16 -0.15
17 -0.15
18 -0.15
19 0.54
2 -0.57
20 -0.15
21 -0.14
22 -0.15
23 0.15
24 0.15
25 0.15
26 0.15
27 0.15
28 0.15
29 0.15
3 -0.57
30 0.15
31 0.15
32 0.15
33 0.45
4 -0.52
5 -0.52
6 0.91
7 0.03
8 0.01
9 -0.18

> <PUBCHEM_EFFECTIVE_ROTOR_COUNT>
4

> <PUBCHEM_PHARMACOPHORE_FEATURES>
8
1 1 donor
1 2 acceptor
1 3 acceptor
1 4 acceptor
1 4 anion
1 5 acceptor
6 7 10 11 13 16 17 rings
7 8 14 18 19 20 21 22 rings

> <PUBCHEM_HEAVY_ATOM_COUNT>
22

> <PUBCHEM_ATOM_DEF_STEREO_COUNT>
0

> <PUBCHEM_ATOM_UDEF_STEREO_COUNT>
0

> <PUBCHEM_BOND_DEF_STEREO_COUNT>
1

> <PUBCHEM_BOND_UDEF_STEREO_COUNT>
0

> <PUBCHEM_ISOTOPIC_ATOM_COUNT>
0

> <PUBCHEM_COMPONENT_COUNT>
1

> <PUBCHEM_CACTVS_TAUTO_COUNT>
6

> <PUBCHEM_CONFORMER_ID>
00602A7B00000001

> <PUBCHEM_MMFF94_ENERGY>
80.2604

> <PUBCHEM_FEATURE_SELFOVERLAP>
40.679

> <PUBCHEM_SHAPE_FINGERPRINT>
10 15 11312052162571988086
105312 117 14779273007310116210
11089746 13 14273738490872478732
11315181 36 18335422374183635568
12596602 18 15554444115419918226
12633257 1 15267060397522842021
12760667 363 18202846556694156393
12892183 10 12319468700959023837
13941219 33 18342190933884502291
14849402 71 15194707048522855738
15188451 53 15195275461326348117
15348495 7 11887665183236953046
15880784 105 17060334158284051291
17627616 140 18113611270520904755
17780758 139 16343706538801859107
17857418 61 17988924466034188534
17870717 6 17967531281499219163
1813 80 17488757794943621153
18222031 100 18409724054827931712
18927931 339 18201167593627081277
19377110 9 16343698880927859768
193927 3 18131359596089962068
19489759 90 16732983136919964696
200 152 18343299284264842169
20281389 69 8502367820086502774
20645477 56 9223232931649276129
21033650 10 17022895723229674525
21307412 95 17897722301001132723
21709351 56 17676210190767058844
22061861 79 18335420179471002878
22393880 68 17894623768671979939
23198884 109 16515398556496865255
23402539 116 18343869904671158145
23402655 69 11386368171052915592
23559900 14 18261668263631878393
25122255 55 18341338829189088238
27216 239 10015589419891962771
2838139 119 12685090410592250710
300161 21 12612751333071832844
3004659 81 18335693957660486601
314194 84 18130792239880059002
351380 3 17775563156347811847
484985 159 18272652359962475471
4921388 177 17168145667861614395
4938544 92 15913057464954321115
5104073 3 18060422379000381944
531348 171 17459743727295242986
559249 180 17988924436486460033
6431902 208 18343305851190904690
7495541 125 16988839493352410256
7970288 3 18059289963153864783

> <PUBCHEM_SHAPE_MULTIPOLES>
418.42
15.74
2
1.36
15.32
0.23
0.15
7.74
4.69
-0.33
-0.26
-2.51
-0.07
0.97

> <PUBCHEM_SHAPE_SELFOVERLAP>
901.131

> <PUBCHEM_SHAPE_VOLUME>
226.9

> <PUBCHEM_COORDINATE_TYPE>
2
5
10

$$$$
