288760
  -OEChem-01171810183D

 42 45  0     0  0  0  0  0  0999 V2000
   -3.3539   -3.2065    0.0228 O   0  0  0  0  0  0  0  0  0  0  0  0
    1.2059   -2.2611   -0.0471 O   0  0  0  0  0  0  0  0  0  0  0  0
   -1.3992   -1.1959   -0.0259 N   0  0  0  0  0  0  0  0  0  0  0  0
   -0.7210   -0.0125   -0.0193 C   0  0  0  0  0  0  0  0  0  0  0  0
    0.6086    0.0954   -0.0127 C   0  0  0  0  0  0  0  0  0  0  0  0
   -1.7969   -1.8645   -1.2649 C   0  0  0  0  0  0  0  0  0  0  0  0
   -1.6145   -1.9827    1.1885 C   0  0  0  0  0  0  0  0  0  0  0  0
    1.4360    1.3554    0.0108 C   0  0  0  0  0  0  0  0  0  0  0  0
    2.8413    0.8337    0.0079 C   0  0  0  0  0  0  0  0  0  0  0  0
   -3.2288   -2.3684   -1.1289 C   0  0  0  0  0  0  0  0  0  0  0  0
   -3.0545   -2.4807    1.2177 C   0  0  0  0  0  0  0  0  0  0  0  0
    2.8845   -0.5620   -0.0147 C   0  0  0  0  0  0  0  0  0  0  0  0
    1.5178   -1.0884   -0.0283 C   0  0  0  0  0  0  0  0  0  0  0  0
   -1.5500    1.2162   -0.0026 C   0  0  0  0  0  0  0  0  0  0  0  0
    4.0182    1.5625    0.0248 C   0  0  0  0  0  0  0  0  0  0  0  0
    4.0704   -1.2727   -0.0211 C   0  0  0  0  0  0  0  0  0  0  0  0
   -1.9200    1.7907   -1.2031 C   0  0  0  0  0  0  0  0  0  0  0  0
   -1.9291    1.7520    1.2127 C   0  0  0  0  0  0  0  0  0  0  0  0
    5.2317    0.8669    0.0188 C   0  0  0  0  0  0  0  0  0  0  0  0
    5.2570   -0.5389   -0.0040 C   0  0  0  0  0  0  0  0  0  0  0  0
   -2.6999    2.9471   -1.1875 C   0  0  0  0  0  0  0  0  0  0  0  0
   -2.7090    2.9084    1.2281 C   0  0  0  0  0  0  0  0  0  0  0  0
   -3.0944    3.5058    0.0279 C   0  0  0  0  0  0  0  0  0  0  0  0
   -1.1230   -2.7115   -1.4396 H   0  0  0  0  0  0  0  0  0  0  0  0
   -1.7205   -1.1960   -2.1298 H   0  0  0  0  0  0  0  0  0  0  0  0
   -1.4083   -1.3958    2.0909 H   0  0  0  0  0  0  0  0  0  0  0  0
   -0.9359   -2.8430    1.1860 H   0  0  0  0  0  0  0  0  0  0  0  0
    1.2543    1.9357    0.9207 H   0  0  0  0  0  0  0  0  0  0  0  0
    1.2613    1.9647   -0.8816 H   0  0  0  0  0  0  0  0  0  0  0  0
   -3.9402   -1.5373   -1.0513 H   0  0  0  0  0  0  0  0  0  0  0  0
   -3.5028   -2.9613   -2.0071 H   0  0  0  0  0  0  0  0  0  0  0  0
   -3.2010   -3.1558    2.0666 H   0  0  0  0  0  0  0  0  0  0  0  0
   -3.7632   -1.6506    1.3246 H   0  0  0  0  0  0  0  0  0  0  0  0
    4.0063    2.6471    0.0426 H   0  0  0  0  0  0  0  0  0  0  0  0
    4.0879   -2.3563   -0.0385 H   0  0  0  0  0  0  0  0  0  0  0  0
   -1.6169    1.3671   -2.1564 H   0  0  0  0  0  0  0  0  0  0  0  0
   -1.6345    1.2962    2.1539 H   0  0  0  0  0  0  0  0  0  0  0  0
    6.1680    1.4188    0.0319 H   0  0  0  0  0  0  0  0  0  0  0  0
    6.2121   -1.0573   -0.0081 H   0  0  0  0  0  0  0  0  0  0  0  0
   -2.9993    3.4128   -2.1219 H   0  0  0  0  0  0  0  0  0  0  0  0
   -3.0160    3.3439    2.1745 H   0  0  0  0  0  0  0  0  0  0  0  0
   -3.7014    4.4063    0.0400 H   0  0  0  0  0  0  0  0  0  0  0  0
  1 10  1  0  0  0  0
  1 11  1  0  0  0  0
  2 13  2  0  0  0  0
  3  4  1  0  0  0  0
  3  6  1  0  0  0  0
  3  7  1  0  0  0  0
  4  5  2  0  0  0  0
  4 14  1  0  0  0  0
  5  8  1  0  0  0  0
  5 13  1  0  0  0  0
  6 10  1  0  0  0  0
  6 24  1  0  0  0  0
  6 25  1  0  0  0  0
  7 11  1  0  0  0  0
  7 26  1  0  0  0  0
  7 27  1  0  0  0  0
  8  9  1  0  0  0  0
  8 28  1  0  0  0  0
  8 29  1  0  0  0  0
  9 12  1  0  0  0  0
  9 15  2  0  0  0  0
 10 30  1  0  0  0  0
 10 31  1  0  0  0  0
 11 32  1  0  0  0  0
 11 33  1  0  0  0  0
 12 13  1  0  0  0  0
 12 16  2  0  0  0  0
 14 17  2  0  0  0  0
 14 18  1  0  0  0  0
 15 19  1  0  0  0  0
 15 34  1  0  0  0  0
 16 20  1  0  0  0  0
 16 35  1  0  0  0  0
 17 21  1  0  0  0  0
 17 36  1  0  0  0  0
 18 22  2  0  0  0  0
 18 37  1  0  0  0  0
 19 20  2  0  0  0  0
 19 38  1  0  0  0  0
 20 39  1  0  0  0  0
 21 23  2  0  0  0  0
 21 40  1  0  0  0  0
 22 23  1  0  0  0  0
 22 41  1  0  0  0  0
 23 42  1  0  0  0  0
M  END
> <PUBCHEM_COMPOUND_CID>
288760

> <PUBCHEM_CONFORMER_RMSD>
0.6

> <PUBCHEM_CONFORMER_DIVERSEORDER>
1

> <PUBCHEM_MMFF94_PARTIAL_CHARGES>
32
1 -0.56
10 0.28
11 0.28
12 0.09
13 0.47
14 0.03
15 -0.15
16 -0.15
17 -0.15
18 -0.15
19 -0.15
2 -0.57
20 -0.15
21 -0.15
22 -0.15
23 -0.15
3 -0.84
34 0.15
35 0.15
36 0.15
37 0.15
38 0.15
39 0.15
4 0.07
40 0.15
41 0.15
42 0.15
5 -0.12
6 0.37
7 0.37
8 0.28
9 -0.14

> <PUBCHEM_EFFECTIVE_ROTOR_COUNT>
3.4

> <PUBCHEM_PHARMACOPHORE_FEATURES>
7
1 1 acceptor
1 2 acceptor
1 3 cation
5 5 8 9 12 13 rings
6 1 3 6 7 10 11 rings
6 14 17 18 21 22 23 rings
6 9 12 15 16 19 20 rings

> <PUBCHEM_HEAVY_ATOM_COUNT>
23

> <PUBCHEM_ATOM_DEF_STEREO_COUNT>
0

> <PUBCHEM_ATOM_UDEF_STEREO_COUNT>
0

> <PUBCHEM_BOND_DEF_STEREO_COUNT>
0

> <PUBCHEM_BOND_UDEF_STEREO_COUNT>
1

> <PUBCHEM_ISOTOPIC_ATOM_COUNT>
0

> <PUBCHEM_COMPONENT_COUNT>
1

> <PUBCHEM_CACTVS_TAUTO_COUNT>
1

> <PUBCHEM_CONFORMER_ID>
000467F800000001

> <PUBCHEM_MMFF94_ENERGY>
79.422

> <PUBCHEM_FEATURE_SELFOVERLAP>
35.605

> <PUBCHEM_SHAPE_FINGERPRINT>
10670039 82 18118135886456774460
1100329 8 17903067838033670290
11045515 52 18121492716360900607
11101153 10 18046353195858132644
11405975 8 18338796711614560546
12788726 201 18338219523544197395
13004483 165 18267862959703835163
13134695 92 17837209643024648551
13140716 1 18266468796239703473
13149001 5 17696217823200534687
133893 2 16010407099222680330
13583140 156 16878226351112564960
13681431 1 17687739863175330345
138480 1 16537076213753085059
13911987 19 17034457379863689844
14178342 30 18337099112663178688
14251751 93 18408605833868628560
15131766 46 15336849793746559792
17138139 8 17768205165265426317
17357779 13 18267009751349045375
1813 80 17981907524623141663
200 152 18268143339252986190
20510252 161 18339641256212868122
21033648 144 18339348687842787796
21049683 118 18120068638323433169
21049683 271 17540257979000678903
21202864 24 18341908363664705265
21236236 1 18410292519402965558
21307412 95 17555471539543664006
21339142 126 18342459300178036751
21524375 3 18193278481770945433
21641784 216 18116727394037283276
21756936 100 17345484686444755576
22182313 1 17916601855608782294
22182937 141 18339928121220872632
22907989 373 18412256268139030613
23175994 123 17972033910437990231
23227448 37 18409449154902812908
23419403 2 17273398681540828553
23558518 356 18187653513437779362
23559900 14 18339630248322841304
23598288 3 18343013385324299110
238 59 17178805192021269029
23845131 108 17974859372170064089
283562 15 18336541724102049098
312423 11 18261404394353393804
350125 39 18339367469391595656
352729 6 18129102225619226200
4258327 124 17895207600873024140
474 4 17838616660919942721
5104073 3 18410004430630307088
59755656 520 18267303127859780109
633830 44 17482836667024371677
70251023 43 18198895001587195814
7164475 11 18337955700671829924
81228 2 18334293214649771057
9709674 26 18270964544577231646

> <PUBCHEM_SHAPE_MULTIPOLES>
456.61
8.7
4.09
1.13
11.89
0.22
0.01
0.89
-0.02
-6.45
0.08
-1.24
0.01
0.01

> <PUBCHEM_SHAPE_SELFOVERLAP>
1009.201

> <PUBCHEM_SHAPE_VOLUME>
245.4

> <PUBCHEM_COORDINATE_TYPE>
2
5
10

$$$$
