257243
  -OEChem-01171810143D

 44 47  0     1  0  0  0  0  0999 V2000
    0.7796    1.9929    1.1072 O   0  0  0  0  0  0  0  0  0  0  0  0
   -0.7047    0.6668   -0.0923 N   0  0  0  0  0  0  0  0  0  0  0  0
    1.6282    0.0733    0.1171 N   0  0  0  0  0  0  0  0  0  0  0  0
   -2.1564    3.7861   -0.1574 N   0  0  0  0  0  0  0  0  0  0  0  0
   -1.8900    1.2656    0.5765 C   0  0  2  0  0  0  0  0  0  0  0  0
   -3.1750    0.5064    0.3133 C   0  0  0  0  0  0  0  0  0  0  0  0
   -3.2754   -0.3165   -0.8204 C   0  0  0  0  0  0  0  0  0  0  0  0
    0.5820    0.9814    0.4210 C   0  0  0  0  0  0  0  0  0  0  0  0
   -0.9074   -0.0279   -1.2812 C   0  0  0  0  0  0  0  0  0  0  0  0
   -2.1037   -0.4797   -1.6785 C   0  0  0  0  0  0  0  0  0  0  0  0
   -4.2832    0.6525    1.1593 C   0  0  0  0  0  0  0  0  0  0  0  0
   -4.4768   -0.9743   -1.1036 C   0  0  0  0  0  0  0  0  0  0  0  0
    2.9744    0.5813    0.0037 C   0  0  0  0  0  0  0  0  0  0  0  0
    1.4307   -1.3535    0.1665 C   0  0  0  0  0  0  0  0  0  0  0  0
   -5.4760   -0.0127    0.8763 C   0  0  0  0  0  0  0  0  0  0  0  0
   -5.5733   -0.8221   -0.2544 C   0  0  0  0  0  0  0  0  0  0  0  0
   -2.0393    2.6779    0.1653 C   0  0  0  0  0  0  0  0  0  0  0  0
    4.0341   -0.1397    0.5475 C   0  0  0  0  0  0  0  0  0  0  0  0
    2.3238   -2.2006   -0.4860 C   0  0  0  0  0  0  0  0  0  0  0  0
    3.2059    1.7888   -0.6494 C   0  0  0  0  0  0  0  0  0  0  0  0
    0.3479   -1.8807    0.8671 C   0  0  0  0  0  0  0  0  0  0  0  0
    5.3351    0.3508    0.4376 C   0  0  0  0  0  0  0  0  0  0  0  0
    2.1331   -3.5816   -0.4380 C   0  0  0  0  0  0  0  0  0  0  0  0
    4.5072    2.2792   -0.7593 C   0  0  0  0  0  0  0  0  0  0  0  0
    0.1573   -3.2616    0.9152 C   0  0  0  0  0  0  0  0  0  0  0  0
    5.5717    1.5601   -0.2158 C   0  0  0  0  0  0  0  0  0  0  0  0
    1.0500   -4.1120    0.2626 C   0  0  0  0  0  0  0  0  0  0  0  0
   -1.6839    1.2312    1.6549 H   0  0  0  0  0  0  0  0  0  0  0  0
   -0.0334   -0.2103   -1.8968 H   0  0  0  0  0  0  0  0  0  0  0  0
   -2.2080   -1.0231   -2.6112 H   0  0  0  0  0  0  0  0  0  0  0  0
   -4.2243    1.2897    2.0379 H   0  0  0  0  0  0  0  0  0  0  0  0
   -4.5692   -1.6141   -1.9778 H   0  0  0  0  0  0  0  0  0  0  0  0
   -6.3317    0.1045    1.5349 H   0  0  0  0  0  0  0  0  0  0  0  0
   -6.5043   -1.3367   -0.4741 H   0  0  0  0  0  0  0  0  0  0  0  0
    3.8975   -1.0439    1.1333 H   0  0  0  0  0  0  0  0  0  0  0  0
    3.1358   -1.8383   -1.1097 H   0  0  0  0  0  0  0  0  0  0  0  0
    2.3947    2.3580   -1.0954 H   0  0  0  0  0  0  0  0  0  0  0  0
   -0.3366   -1.2675    1.4443 H   0  0  0  0  0  0  0  0  0  0  0  0
    6.1625   -0.1997    0.8761 H   0  0  0  0  0  0  0  0  0  0  0  0
    2.8177   -4.2435   -0.9604 H   0  0  0  0  0  0  0  0  0  0  0  0
    4.6921    3.2194   -1.2706 H   0  0  0  0  0  0  0  0  0  0  0  0
   -0.6784   -3.6759    1.4716 H   0  0  0  0  0  0  0  0  0  0  0  0
    6.5844    1.9435   -0.2985 H   0  0  0  0  0  0  0  0  0  0  0  0
    0.9009   -5.1872    0.2992 H   0  0  0  0  0  0  0  0  0  0  0  0
  1  8  2  0  0  0  0
  2  5  1  0  0  0  0
  2  8  1  0  0  0  0
  2  9  1  0  0  0  0
  3  8  1  0  0  0  0
  3 13  1  0  0  0  0
  3 14  1  0  0  0  0
  4 17  3  0  0  0  0
  5  6  1  0  0  0  0
  5 17  1  0  0  0  0
  5 28  1  0  0  0  0
  6  7  1  0  0  0  0
  6 11  2  0  0  0  0
  7 10  1  0  0  0  0
  7 12  2  0  0  0  0
  9 10  2  0  0  0  0
  9 29  1  0  0  0  0
 10 30  1  0  0  0  0
 11 15  1  0  0  0  0
 11 31  1  0  0  0  0
 12 16  1  0  0  0  0
 12 32  1  0  0  0  0
 13 18  2  0  0  0  0
 13 20  1  0  0  0  0
 14 19  2  0  0  0  0
 14 21  1  0  0  0  0
 15 16  2  0  0  0  0
 15 33  1  0  0  0  0
 16 34  1  0  0  0  0
 18 22  1  0  0  0  0
 18 35  1  0  0  0  0
 19 23  1  0  0  0  0
 19 36  1  0  0  0  0
 20 24  2  0  0  0  0
 20 37  1  0  0  0  0
 21 25  2  0  0  0  0
 21 38  1  0  0  0  0
 22 26  2  0  0  0  0
 22 39  1  0  0  0  0
 23 27  2  0  0  0  0
 23 40  1  0  0  0  0
 24 26  1  0  0  0  0
 24 41  1  0  0  0  0
 25 27  1  0  0  0  0
 25 42  1  0  0  0  0
 26 43  1  0  0  0  0
 27 44  1  0  0  0  0
M  END
> <PUBCHEM_COMPOUND_CID>
257243

> <PUBCHEM_CONFORMER_RMSD>
0.8

> <PUBCHEM_CONFORMER_DIVERSEORDER>
1
6
10
13
4
9
14
3
5
2
11
12
7
8

> <PUBCHEM_MMFF94_PARTIAL_CHARGES>
43
1 -0.57
10 -0.18
11 -0.15
12 -0.15
13 0.12
14 0.12
15 -0.15
16 -0.15
17 0.36
18 -0.15
19 -0.15
2 -0.47
20 -0.15
21 -0.15
22 -0.15
23 -0.15
24 -0.15
25 -0.15
26 -0.15
27 -0.15
29 0.15
3 -0.29
30 0.15
31 0.15
32 0.15
33 0.15
34 0.15
35 0.15
36 0.15
37 0.15
38 0.15
39 0.15
4 -0.56
40 0.15
41 0.15
42 0.15
43 0.15
44 0.15
5 0.64
6 -0.14
7 0.03
8 0.69
9 -0.04

> <PUBCHEM_EFFECTIVE_ROTOR_COUNT>
4.4

> <PUBCHEM_PHARMACOPHORE_FEATURES>
6
1 1 acceptor
1 4 acceptor
6 13 18 20 22 24 26 rings
6 14 19 21 23 25 27 rings
6 2 5 6 7 9 10 rings
6 6 7 11 12 15 16 rings

> <PUBCHEM_HEAVY_ATOM_COUNT>
27

> <PUBCHEM_ATOM_DEF_STEREO_COUNT>
0

> <PUBCHEM_ATOM_UDEF_STEREO_COUNT>
1

> <PUBCHEM_BOND_DEF_STEREO_COUNT>
0

> <PUBCHEM_BOND_UDEF_STEREO_COUNT>
0

> <PUBCHEM_ISOTOPIC_ATOM_COUNT>
0

> <PUBCHEM_COMPONENT_COUNT>
1

> <PUBCHEM_CACTVS_TAUTO_COUNT>
1

> <PUBCHEM_CONFORMER_ID>
0003ECDB00000001

> <PUBCHEM_MMFF94_ENERGY>
118.6275

> <PUBCHEM_FEATURE_SELFOVERLAP>
30.472

> <PUBCHEM_SHAPE_FINGERPRINT>
10090160 65 18335419084048561903
1100329 8 18121781887565480269
11421498 54 18202569449287872841
11578080 2 17897719873600013533
12107183 9 17623017794211461969
12156800 1 17682995388396744662
12236239 1 18202284718678673069
12553582 1 18270664450964687233
13140716 1 18198336467044381561
13631057 29 18127686244239176639
13911987 19 18189051048350810925
14341114 328 18343021103380256919
14787075 74 18342176686823671481
14790565 3 18339930427555383777
15209289 33 18341889740063880832
15537594 2 18131633404945837623
17349148 13 18259982669636126776
17492 89 18195808470558152906
17909252 39 17130728088835787054
19319366 153 18412255155727001382
19591789 44 18122624117735701387
20028762 73 18271241720186437374
20286276 3 18122913018926891275
20567600 347 18335140882296328066
20775438 99 17322911635406540973
21033648 29 13190627199732407596
21033650 10 17772785782114894516
21421861 104 18265333911060863155
21623969 137 18261122902096912283
22393880 68 18196661687718350262
23557571 272 15647046028461644735
23559900 14 18049999991683338801
23566358 27 18268716012864744127
23569917 315 18410575119694023122
23598288 3 17772737295848535333
3383291 50 18336538327843812754
352729 6 18264219174053493370
3737641 26 18341057319984325827
392239 28 18338248179597534659
4258327 124 17097226150116145292
4340502 62 18335430088039857675
4409770 3 14953743916671126877
469060 322 18339655485371793105
474 4 18409728465395282766
474229 33 18335702783939774778
5486654 2 18337676428707269940
59755656 215 18410575058935486516
59755656 520 18335420222900892782
6287921 2 18262811661393467950

> <PUBCHEM_SHAPE_MULTIPOLES>
534.83
10.93
4
1.13
1.3
2.57
-0.17
-4.04
-0.07
-2.26
0.26
0.69
0.09
-0.8

> <PUBCHEM_SHAPE_SELFOVERLAP>
1183.206

> <PUBCHEM_SHAPE_VOLUME>
280.8

> <PUBCHEM_COORDINATE_TYPE>
2
5
10

$$$$
