44825354
  -OEChem-01171810133D

 50 53  0     0  0  0  0  0  0999 V2000
    4.2223    1.8403   -3.5187 Cl  0  0  0  0  0  0  0  0  0  0  0  0
   -3.0629    1.3925    2.5460 S   0  0  0  0  0  0  0  0  0  0  0  0
    4.3664   -2.6215    2.3796 F   0  0  0  0  0  0  0  0  0  0  0  0
    5.5827   -1.1250    1.3748 F   0  0  0  0  0  0  0  0  0  0  0  0
   -4.6194   -0.4356   -0.7847 O   0  0  0  0  0  0  0  0  0  0  0  0
    3.8984   -2.1281    0.2414 O   0  0  0  0  0  0  0  0  0  0  0  0
   -4.4278   -2.7161   -1.0146 O   0  0  0  0  0  0  0  0  0  0  0  0
   -0.9087    1.5760    0.9572 N   0  0  0  0  0  0  0  0  0  0  0  0
   -1.2235    0.5383    0.1486 N   0  0  0  0  0  0  0  0  0  0  0  0
    0.1456    3.3509    1.7220 N   0  0  0  0  0  0  0  0  0  0  0  0
   -0.9715    3.1465    2.5046 N   0  0  0  0  0  0  0  0  0  0  0  0
   -2.1400   -0.2875    0.5689 C   0  0  0  0  0  0  0  0  0  0  0  0
   -2.7778   -0.2810    1.9429 C   0  0  0  0  0  0  0  0  0  0  0  0
    0.1594    2.4170    0.7966 C   0  0  0  0  0  0  0  0  0  0  0  0
   -2.5431   -1.3941   -0.3294 C   0  0  0  0  0  0  0  0  0  0  0  0
   -1.5817    2.0881    2.0304 C   0  0  0  0  0  0  0  0  0  0  0  0
    1.1444    2.2774   -0.2498 C   0  0  0  0  0  0  0  0  0  0  0  0
   -1.6220   -2.2500   -0.7984 C   0  0  0  0  0  0  0  0  0  0  0  0
   -0.1798   -2.2178   -0.5269 C   0  0  0  0  0  0  0  0  0  0  0  0
   -3.9531   -1.6210   -0.7481 C   0  0  0  0  0  0  0  0  0  0  0  0
    2.4870    2.0871    0.0773 C   0  0  0  0  0  0  0  0  0  0  0  0
    0.7536    2.3327   -1.5877 C   0  0  0  0  0  0  0  0  0  0  0  0
    0.7254   -2.0827   -1.5796 C   0  0  0  0  0  0  0  0  0  0  0  0
    0.2855   -2.3231    0.7838 C   0  0  0  0  0  0  0  0  0  0  0  0
    3.4387    1.9517   -0.9335 C   0  0  0  0  0  0  0  0  0  0  0  0
    1.7053    2.1977   -2.5984 C   0  0  0  0  0  0  0  0  0  0  0  0
    2.0959   -2.0525   -1.3214 C   0  0  0  0  0  0  0  0  0  0  0  0
    1.6559   -2.2932    1.0419 C   0  0  0  0  0  0  0  0  0  0  0  0
    2.5611   -2.1578   -0.0107 C   0  0  0  0  0  0  0  0  0  0  0  0
    3.0479    2.0071   -2.2713 C   0  0  0  0  0  0  0  0  0  0  0  0
   -5.9957   -0.5081   -1.1728 C   0  0  0  0  0  0  0  0  0  0  0  0
   -6.5850    0.8862   -1.1624 C   0  0  0  0  0  0  0  0  0  0  0  0
    4.3164   -1.5946    1.4923 C   0  0  0  0  0  0  0  0  0  0  0  0
   -2.1017   -0.7974    2.6328 H   0  0  0  0  0  0  0  0  0  0  0  0
   -3.7283   -0.8214    1.9395 H   0  0  0  0  0  0  0  0  0  0  0  0
   -1.9154   -3.0450   -1.4820 H   0  0  0  0  0  0  0  0  0  0  0  0
    2.8079    2.0382    1.1152 H   0  0  0  0  0  0  0  0  0  0  0  0
   -0.2867    2.4874   -1.8639 H   0  0  0  0  0  0  0  0  0  0  0  0
    0.3779   -1.9971   -2.6063 H   0  0  0  0  0  0  0  0  0  0  0  0
   -0.4011   -2.4491    1.6172 H   0  0  0  0  0  0  0  0  0  0  0  0
    4.4809    1.8013   -0.6636 H   0  0  0  0  0  0  0  0  0  0  0  0
    1.3866    2.2438   -3.6365 H   0  0  0  0  0  0  0  0  0  0  0  0
    2.7962   -1.9443   -2.1452 H   0  0  0  0  0  0  0  0  0  0  0  0
    1.9759   -2.4031    2.0734 H   0  0  0  0  0  0  0  0  0  0  0  0
   -6.0691   -0.9338   -2.1797 H   0  0  0  0  0  0  0  0  0  0  0  0
   -6.5403   -1.1455   -0.4673 H   0  0  0  0  0  0  0  0  0  0  0  0
   -6.5008    1.3322   -0.1658 H   0  0  0  0  0  0  0  0  0  0  0  0
   -6.0389    1.5404   -1.8501 H   0  0  0  0  0  0  0  0  0  0  0  0
   -7.6389    0.8680   -1.4537 H   0  0  0  0  0  0  0  0  0  0  0  0
    3.6848   -0.7829    1.8706 H   0  0  0  0  0  0  0  0  0  0  0  0
  1 30  1  0  0  0  0
  2 13  1  0  0  0  0
  2 16  1  0  0  0  0
  3 33  1  0  0  0  0
  4 33  1  0  0  0  0
  5 20  1  0  0  0  0
  5 31  1  0  0  0  0
  6 29  1  0  0  0  0
  6 33  1  0  0  0  0
  7 20  2  0  0  0  0
  8  9  1  0  0  0  0
  8 14  1  0  0  0  0
  8 16  1  0  0  0  0
  9 12  2  0  0  0  0
 10 11  1  0  0  0  0
 10 14  2  0  0  0  0
 11 16  2  0  0  0  0
 12 13  1  0  0  0  0
 12 15  1  0  0  0  0
 13 34  1  0  0  0  0
 13 35  1  0  0  0  0
 14 17  1  0  0  0  0
 15 18  2  0  0  0  0
 15 20  1  0  0  0  0
 17 21  2  0  0  0  0
 17 22  1  0  0  0  0
 18 19  1  0  0  0  0
 18 36  1  0  0  0  0
 19 23  2  0  0  0  0
 19 24  1  0  0  0  0
 21 25  1  0  0  0  0
 21 37  1  0  0  0  0
 22 26  2  0  0  0  0
 22 38  1  0  0  0  0
 23 27  1  0  0  0  0
 23 39  1  0  0  0  0
 24 28  2  0  0  0  0
 24 40  1  0  0  0  0
 25 30  2  0  0  0  0
 25 41  1  0  0  0  0
 26 30  1  0  0  0  0
 26 42  1  0  0  0  0
 27 29  2  0  0  0  0
 27 43  1  0  0  0  0
 28 29  1  0  0  0  0
 28 44  1  0  0  0  0
 31 32  1  0  0  0  0
 31 45  1  0  0  0  0
 31 46  1  0  0  0  0
 32 47  1  0  0  0  0
 32 48  1  0  0  0  0
 32 49  1  0  0  0  0
 33 50  1  0  0  0  0
M  END
> <PUBCHEM_COMPOUND_CID>
44825354

> <PUBCHEM_CONFORMER_RMSD>
1

> <PUBCHEM_CONFORMER_DIVERSEORDER>
2
19
9
15
20
11
18
17
5
1
10
16
21
6
13
8
7
14
12
22
4
3

> <PUBCHEM_MMFF94_PARTIAL_CHARGES>
41
1 -0.18
10 -0.34
11 -0.34
12 0.37
13 0.29
14 0.13
15 0.03
16 0.24
17 0.05
18 -0.18
19 0.03
2 -0.29
20 0.71
21 -0.15
22 -0.15
23 -0.15
24 -0.15
25 -0.15
26 -0.15
27 -0.15
28 -0.15
29 0.08
3 -0.34
30 0.18
31 0.28
33 0.96
36 0.15
37 0.15
38 0.15
39 0.15
4 -0.34
40 0.15
41 0.15
42 0.15
43 0.15
44 0.15
5 -0.43
6 -0.36
7 -0.57
8 0.51
9 -0.65

> <PUBCHEM_EFFECTIVE_ROTOR_COUNT>
8.4

> <PUBCHEM_PHARMACOPHORE_FEATURES>
9
1 6 acceptor
1 7 acceptor
1 9 acceptor
3 8 10 14 cation
3 8 11 16 cation
5 8 10 11 14 16 rings
6 17 21 22 25 26 30 rings
6 19 23 24 27 28 29 rings
6 2 8 9 12 13 16 rings

> <PUBCHEM_HEAVY_ATOM_COUNT>
33

> <PUBCHEM_ATOM_DEF_STEREO_COUNT>
0

> <PUBCHEM_ATOM_UDEF_STEREO_COUNT>
0

> <PUBCHEM_BOND_DEF_STEREO_COUNT>
1

> <PUBCHEM_BOND_UDEF_STEREO_COUNT>
0

> <PUBCHEM_ISOTOPIC_ATOM_COUNT>
0

> <PUBCHEM_COMPONENT_COUNT>
1

> <PUBCHEM_CACTVS_TAUTO_COUNT>
2

> <PUBCHEM_CONFORMER_ID>
02ABFB0A00000002

> <PUBCHEM_MMFF94_ENERGY>
89.95

> <PUBCHEM_FEATURE_SELFOVERLAP>
48.296

> <PUBCHEM_SHAPE_FINGERPRINT>
10675989 125 18198625621855959201
11513181 2 17700435597286642246
11578080 2 16733847379077334483
12035759 4 18059307560024551623
12156800 1 17631748079560247632
12166972 35 18187074023391513518
12788726 201 17916318292951125584
133893 2 18114760303072778600
13965767 371 17403463970613376330
140371 6 18201721713508277807
14068700 675 18338222774596732154
14747281 78 16153432739821118540
15324884 4 17115814123721152009
18336668 15 18337096904432757770
20642791 178 18334290985656917367
21133410 90 18056731330744905101
22393880 68 17985545791883547327
244849 19 16371306488187915145
3298306 158 18124312963744077399
3380486 77 18187080598907458746
35225 105 16595933625956322586
445580 44 17825087226707192138
463206 1 18342463655612251537
469060 322 17896588493689330138
513532 50 16916494995335494429
5265222 85 17400350647663405936
6287921 2 17914351082228976606

> <PUBCHEM_SHAPE_MULTIPOLES>
632.76
10.04
4.43
2.9
7.97
0.22
0.03
-1.97
3.83
-2.98
-0.74
-1.43
1.7
-4.38

> <PUBCHEM_SHAPE_SELFOVERLAP>
1353.788

> <PUBCHEM_SHAPE_VOLUME>
355.3

> <PUBCHEM_COORDINATE_TYPE>
2
5
10

$$$$
