1479266
  -OEChem-01171809473D

 27 28  0     0  0  0  0  0  0999 V2000
    1.1467    3.3838   -0.0034 Cl  0  0  0  0  0  0  0  0  0  0  0  0
   -1.5303    1.4667   -0.0001 S   0  0  0  0  0  0  0  0  0  0  0  0
    4.9358   -0.2033   -0.0023 F   0  0  0  0  0  0  0  0  0  0  0  0
    4.0516   -1.8598    1.0830 F   0  0  0  0  0  0  0  0  0  0  0  0
    4.0303   -1.8532   -1.0915 F   0  0  0  0  0  0  0  0  0  0  0  0
   -1.7468    2.1641   -1.2600 O   0  0  0  0  0  0  0  0  0  0  0  0
   -1.6658    2.1879    1.2587 O   0  0  0  0  0  0  0  0  0  0  0  0
    0.1342   -0.4863    0.0008 N   0  0  0  0  0  0  0  0  0  0  0  0
    0.1334    0.8544   -0.0005 C   0  0  0  0  0  0  0  0  0  0  0  0
   -2.6219    0.1040    0.0017 C   0  0  0  0  0  0  0  0  0  0  0  0
    1.2340    1.6666   -0.0018 C   0  0  0  0  0  0  0  0  0  0  0  0
    2.5478   -0.3480   -0.0006 C   0  0  0  0  0  0  0  0  0  0  0  0
    2.4757    1.0406   -0.0019 C   0  0  0  0  0  0  0  0  0  0  0  0
   -3.0572   -0.4391    1.2105 C   0  0  0  0  0  0  0  0  0  0  0  0
   -3.0587   -0.4413   -1.2055 C   0  0  0  0  0  0  0  0  0  0  0  0
    1.3587   -1.0593    0.0009 C   0  0  0  0  0  0  0  0  0  0  0  0
    3.8602   -1.0479   -0.0007 C   0  0  0  0  0  0  0  0  0  0  0  0
   -3.9296   -1.5275    1.2120 C   0  0  0  0  0  0  0  0  0  0  0  0
   -3.9313   -1.5296   -1.2040 C   0  0  0  0  0  0  0  0  0  0  0  0
   -4.3668   -2.0727    0.0047 C   0  0  0  0  0  0  0  0  0  0  0  0
    3.3853    1.6363   -0.0030 H   0  0  0  0  0  0  0  0  0  0  0  0
   -2.7243   -0.0342    2.1620 H   0  0  0  0  0  0  0  0  0  0  0  0
   -2.7268   -0.0413   -2.1594 H   0  0  0  0  0  0  0  0  0  0  0  0
    1.3519   -2.1449    0.0020 H   0  0  0  0  0  0  0  0  0  0  0  0
   -4.2673   -1.9517    2.1530 H   0  0  0  0  0  0  0  0  0  0  0  0
   -4.2700   -1.9557   -2.1438 H   0  0  0  0  0  0  0  0  0  0  0  0
   -5.0453   -2.9207    0.0059 H   0  0  0  0  0  0  0  0  0  0  0  0
  1 11  1  0  0  0  0
  2  6  2  0  0  0  0
  2  7  2  0  0  0  0
  2  9  1  0  0  0  0
  2 10  1  0  0  0  0
  3 17  1  0  0  0  0
  4 17  1  0  0  0  0
  5 17  1  0  0  0  0
  8  9  1  0  0  0  0
  8 16  2  0  0  0  0
  9 11  2  0  0  0  0
 10 14  2  0  0  0  0
 10 15  1  0  0  0  0
 11 13  1  0  0  0  0
 12 13  2  0  0  0  0
 12 16  1  0  0  0  0
 12 17  1  0  0  0  0
 13 21  1  0  0  0  0
 14 18  1  0  0  0  0
 14 22  1  0  0  0  0
 15 19  2  0  0  0  0
 15 23  1  0  0  0  0
 16 24  1  0  0  0  0
 18 20  2  0  0  0  0
 18 25  1  0  0  0  0
 19 20  1  0  0  0  0
 19 26  1  0  0  0  0
 20 27  1  0  0  0  0
M  END
> <PUBCHEM_COMPOUND_CID>
1479266

> <PUBCHEM_CONFORMER_RMSD>
0.6

> <PUBCHEM_CONFORMER_DIVERSEORDER>
1
2
4
3
5

> <PUBCHEM_MMFF94_PARTIAL_CHARGES>
27
1 -0.18
10 -0.01
11 0.18
12 -0.14
13 -0.15
14 -0.15
15 -0.15
16 0.16
17 1.16
18 -0.15
19 -0.15
2 1.32
20 -0.15
21 0.15
22 0.15
23 0.15
24 0.15
25 0.15
26 0.15
27 0.15
3 -0.34
4 -0.34
5 -0.34
6 -0.65
7 -0.65
8 -0.62
9 0.3

> <PUBCHEM_EFFECTIVE_ROTOR_COUNT>
3

> <PUBCHEM_PHARMACOPHORE_FEATURES>
5
1 6 acceptor
1 7 acceptor
1 8 acceptor
6 10 14 15 18 19 20 rings
6 8 9 11 12 13 16 rings

> <PUBCHEM_HEAVY_ATOM_COUNT>
20

> <PUBCHEM_ATOM_DEF_STEREO_COUNT>
0

> <PUBCHEM_ATOM_UDEF_STEREO_COUNT>
0

> <PUBCHEM_BOND_DEF_STEREO_COUNT>
0

> <PUBCHEM_BOND_UDEF_STEREO_COUNT>
0

> <PUBCHEM_ISOTOPIC_ATOM_COUNT>
0

> <PUBCHEM_COMPONENT_COUNT>
1

> <PUBCHEM_CACTVS_TAUTO_COUNT>
1

> <PUBCHEM_CONFORMER_ID>
0016926200000001

> <PUBCHEM_MMFF94_ENERGY>
30.9828

> <PUBCHEM_FEATURE_SELFOVERLAP>
25.389

> <PUBCHEM_SHAPE_FINGERPRINT>
11046707 91 18413669110621212299
11543360 7 16009038305925032910
11578080 2 17488157453426836729
11640471 11 12180107796882262061
11806522 49 18409728486880460796
12032990 46 18411704253499034718
12363563 72 18408326587737474459
12553582 1 18341339945590343831
12596599 1 17845387681447081183
12633257 1 15410619241658802131
13533116 47 18054512676095435979
13544653 18 18410292523080747893
14178342 30 18057611962232576178
14251764 38 11243124925431101718
14787075 74 18334582377929145296
15099037 8 18342461456262214489
15375462 189 17914905472465343553
17357779 13 18261100902973410413
1813 80 18342192067085728045
18186145 218 17385996321682994865
193927 3 18410864273506996535
19433438 48 18060420214083792619
200 152 18341606036495132631
20291156 8 18413109463291724913
20645477 70 18192136308427924551
20671657 53 18261108595191356333
20693207 138 17822856510555724303
21634736 98 18268707384396447542
221490 88 18335701692917952125
22646028 28 18413388756636331655
23402539 116 18411417297780323890
23557571 272 18128261073591584140
23559900 14 18335690680790714193
23598288 3 17847066575552196573
27216 239 11527946777266506327
2748010 2 18339629067180578116
2871803 45 18260259767993754803
312423 11 18339657714311528173
458136 41 17832997413457029105
4921388 177 16081376262991366155
5104073 3 18413668006608896320
5486654 36 18336560343101405417
6669772 16 17761507185121402988
7364860 26 18268992175420525144
76465 3 18335976519332897906
7970288 3 18411698798501334975
9709674 26 18189330341863591875

> <PUBCHEM_SHAPE_MULTIPOLES>
378.77
8.82
2.88
1.12
1.57
1.81
0
-7.32
0
1.09
0
-0.95
-0.14
0.01

> <PUBCHEM_SHAPE_SELFOVERLAP>
798.479

> <PUBCHEM_SHAPE_VOLUME>
216.4

> <PUBCHEM_COORDINATE_TYPE>
2
5
10

$$$$
