53301480
  -OEChem-01171810213D

 70 76  0     1  0  0  0  0  0999 V2000
   -0.7781    4.2872    3.3541 S   0  0  0  0  0  0  0  0  0  0  0  0
   -6.6369   -0.7923   -3.4577 F   0  0  0  0  0  0  0  0  0  0  0  0
    6.4837    2.4382   -1.3644 F   0  0  0  0  0  0  0  0  0  0  0  0
    8.2423   -0.8972    0.1493 O   0  0  0  0  0  0  0  0  0  0  0  0
    8.4745    0.6195   -1.5667 O   0  0  0  0  0  0  0  0  0  0  0  0
   -2.0404    1.1387    0.0766 N   0  0  0  0  0  0  0  0  0  0  0  0
   -4.0519   -1.8641    2.5393 N   0  0  0  0  0  0  0  0  0  0  0  0
   -0.3557   -6.0791   -1.1457 N   0  0  0  0  0  0  0  0  0  0  0  0
   -2.8537   -0.0074   -0.4283 C   0  0  1  0  0  0  0  0  0  0  0  0
   -3.2024   -0.9955    0.6817 C   0  0  0  0  0  0  0  0  0  0  0  0
   -4.1134    0.4788   -1.1461 C   0  0  0  0  0  0  0  0  0  0  0  0
   -2.6484    2.3681    0.3835 C   0  0  0  0  0  0  0  0  0  0  0  0
   -4.6084    1.7780   -0.9262 C   0  0  0  0  0  0  0  0  0  0  0  0
   -2.7930   -2.3559    0.7644 C   0  0  0  0  0  0  0  0  0  0  0  0
   -0.6308    0.9781   -0.0420 C   0  0  0  0  0  0  0  0  0  0  0  0
   -3.8828    2.6960   -0.0438 C   0  0  0  0  0  0  0  0  0  0  0  0
   -3.9748   -0.7229    1.7871 C   0  0  0  0  0  0  0  0  0  0  0  0
   -3.3394   -2.8776    1.9389 C   0  0  0  0  0  0  0  0  0  0  0  0
   -4.8093   -0.3830   -2.0086 C   0  0  0  0  0  0  0  0  0  0  0  0
   -1.9567    3.3191    1.2867 C   0  0  0  0  0  0  0  0  0  0  0  0
   -5.7911    2.1892   -1.5529 C   0  0  0  0  0  0  0  0  0  0  0  0
   -2.0076   -3.1959   -0.0499 C   0  0  0  0  0  0  0  0  0  0  0  0
    0.0431    0.0888    0.7951 C   0  0  0  0  0  0  0  0  0  0  0  0
    0.0762    1.7100   -0.9959 C   0  0  0  0  0  0  0  0  0  0  0  0
   -5.9820    0.0380   -2.6349 C   0  0  0  0  0  0  0  0  0  0  0  0
   -3.1388   -4.2028    2.3415 C   0  0  0  0  0  0  0  0  0  0  0  0
   -6.4736    1.3207   -2.4049 C   0  0  0  0  0  0  0  0  0  0  0  0
   -1.7985   -4.5237    0.3403 C   0  0  0  0  0  0  0  0  0  0  0  0
   -1.6348    4.6686    0.9624 C   0  0  0  0  0  0  0  0  0  0  0  0
    1.4241   -0.0685    0.6780 C   0  0  0  0  0  0  0  0  0  0  0  0
    1.4571    1.5528   -1.1129 C   0  0  0  0  0  0  0  0  0  0  0  0
   -2.3565   -5.0173    1.5179 C   0  0  0  0  0  0  0  0  0  0  0  0
    2.1312    0.6634   -0.2760 C   0  0  0  0  0  0  0  0  0  0  0  0
   -1.5470    2.9807    2.5577 C   0  0  0  0  0  0  0  0  0  0  0  0
   -0.9917    5.3103    1.9977 C   0  0  0  0  0  0  0  0  0  0  0  0
    3.5638    0.5008   -0.3970 C   0  0  0  0  0  0  0  0  0  0  0  0
   -1.0021   -5.3823   -0.4799 C   0  0  0  0  0  0  0  0  0  0  0  0
    4.3536    1.5663   -0.8288 C   0  0  0  0  0  0  0  0  0  0  0  0
    4.1550   -0.7226   -0.0814 C   0  0  0  0  0  0  0  0  0  0  0  0
    5.7347    1.4087   -0.9447 C   0  0  0  0  0  0  0  0  0  0  0  0
    5.5360   -0.8803   -0.1974 C   0  0  0  0  0  0  0  0  0  0  0  0
    6.3258    0.1853   -0.6290 C   0  0  0  0  0  0  0  0  0  0  0  0
    7.7651    0.0156   -0.7513 C   0  0  0  0  0  0  0  0  0  0  0  0
    9.6510   -1.1518    0.1273 C   0  0  0  0  0  0  0  0  0  0  0  0
    9.9825   -2.1809    1.1868 C   0  0  0  0  0  0  0  0  0  0  0  0
   -2.2631   -0.5279   -1.1961 H   0  0  0  0  0  0  0  0  0  0  0  0
   -4.3608    3.6340    0.2210 H   0  0  0  0  0  0  0  0  0  0  0  0
   -4.4774    0.1779    2.1108 H   0  0  0  0  0  0  0  0  0  0  0  0
   -4.4430   -1.3899   -2.1920 H   0  0  0  0  0  0  0  0  0  0  0  0
   -4.5580   -1.9508    3.4098 H   0  0  0  0  0  0  0  0  0  0  0  0
   -6.1888    3.1882   -1.3905 H   0  0  0  0  0  0  0  0  0  0  0  0
   -1.5700   -2.8142   -0.9689 H   0  0  0  0  0  0  0  0  0  0  0  0
   -0.4848   -0.4704    1.5619 H   0  0  0  0  0  0  0  0  0  0  0  0
   -0.4371    2.3975   -1.6636 H   0  0  0  0  0  0  0  0  0  0  0  0
   -3.5728   -4.5878    3.2581 H   0  0  0  0  0  0  0  0  0  0  0  0
   -7.3881    1.6462   -2.8919 H   0  0  0  0  0  0  0  0  0  0  0  0
   -1.8568    5.1521    0.0191 H   0  0  0  0  0  0  0  0  0  0  0  0
    1.9104   -0.7460    1.3745 H   0  0  0  0  0  0  0  0  0  0  0  0
    1.9603    2.1201   -1.8910 H   0  0  0  0  0  0  0  0  0  0  0  0
   -2.1904   -6.0507    1.8163 H   0  0  0  0  0  0  0  0  0  0  0  0
   -1.6604    2.0329    3.0667 H   0  0  0  0  0  0  0  0  0  0  0  0
   -0.6362    6.3308    2.0221 H   0  0  0  0  0  0  0  0  0  0  0  0
    3.9419    2.5451   -1.0583 H   0  0  0  0  0  0  0  0  0  0  0  0
    3.5770   -1.5897    0.2263 H   0  0  0  0  0  0  0  0  0  0  0  0
    5.9662   -1.8507    0.0367 H   0  0  0  0  0  0  0  0  0  0  0  0
   10.1918   -0.2211    0.3309 H   0  0  0  0  0  0  0  0  0  0  0  0
    9.9366   -1.5299   -0.8604 H   0  0  0  0  0  0  0  0  0  0  0  0
   11.0538   -2.4001    1.1976 H   0  0  0  0  0  0  0  0  0  0  0  0
    9.4329   -3.1106    1.0061 H   0  0  0  0  0  0  0  0  0  0  0  0
    9.6845   -1.8233    2.1779 H   0  0  0  0  0  0  0  0  0  0  0  0
  1 34  1  0  0  0  0
  1 35  1  0  0  0  0
  2 25  1  0  0  0  0
  3 40  1  0  0  0  0
  4 43  1  0  0  0  0
  4 44  1  0  0  0  0
  5 43  2  0  0  0  0
  6  9  1  0  0  0  0
  6 12  1  0  0  0  0
  6 15  1  0  0  0  0
  7 17  1  0  0  0  0
  7 18  1  0  0  0  0
  7 50  1  0  0  0  0
  8 37  3  0  0  0  0
  9 10  1  0  0  0  0
  9 11  1  0  0  0  0
  9 46  1  0  0  0  0
 10 14  1  0  0  0  0
 10 17  2  0  0  0  0
 11 13  2  0  0  0  0
 11 19  1  0  0  0  0
 12 16  2  0  0  0  0
 12 20  1  0  0  0  0
 13 16  1  0  0  0  0
 13 21  1  0  0  0  0
 14 18  2  0  0  0  0
 14 22  1  0  0  0  0
 15 23  2  0  0  0  0
 15 24  1  0  0  0  0
 16 47  1  0  0  0  0
 17 48  1  0  0  0  0
 18 26  1  0  0  0  0
 19 25  2  0  0  0  0
 19 49  1  0  0  0  0
 20 29  1  0  0  0  0
 20 34  2  0  0  0  0
 21 27  2  0  0  0  0
 21 51  1  0  0  0  0
 22 28  2  0  0  0  0
 22 52  1  0  0  0  0
 23 30  1  0  0  0  0
 23 53  1  0  0  0  0
 24 31  2  0  0  0  0
 24 54  1  0  0  0  0
 25 27  1  0  0  0  0
 26 32  2  0  0  0  0
 26 55  1  0  0  0  0
 27 56  1  0  0  0  0
 28 32  1  0  0  0  0
 28 37  1  0  0  0  0
 29 35  2  0  0  0  0
 29 57  1  0  0  0  0
 30 33  2  0  0  0  0
 30 58  1  0  0  0  0
 31 33  1  0  0  0  0
 31 59  1  0  0  0  0
 32 60  1  0  0  0  0
 33 36  1  0  0  0  0
 34 61  1  0  0  0  0
 35 62  1  0  0  0  0
 36 38  2  0  0  0  0
 36 39  1  0  0  0  0
 38 40  1  0  0  0  0
 38 63  1  0  0  0  0
 39 41  2  0  0  0  0
 39 64  1  0  0  0  0
 40 42  2  0  0  0  0
 41 42  1  0  0  0  0
 41 65  1  0  0  0  0
 42 43  1  0  0  0  0
 44 45  1  0  0  0  0
 44 66  1  0  0  0  0
 44 67  1  0  0  0  0
 45 68  1  0  0  0  0
 45 69  1  0  0  0  0
 45 70  1  0  0  0  0
M  END
> <PUBCHEM_COMPOUND_CID>
53301480

> <PUBCHEM_CONFORMER_RMSD>
1

> <PUBCHEM_CONFORMER_DIVERSEORDER>
3
83
67
63
69
73
1
86
62
47
87
49
88
48
89
81
76
84
37
10
24
71
2
74
55
85
79
34
82
40
26
66
45
58
56
60
50
31
61
80
75
11
78
27
53
59
41
38
43
4
52
64
30
77
54
7
72
44
17
36
14
9
42
21
39
68
16
28
35
57
46
8
51
65
70
20
15
13
5
18
33
22
12
19
6
29
23
25
32

> <PUBCHEM_MMFF94_PARTIAL_CHARGES>
60
1 -0.08
10 -0.18
11 -0.14
12 0.15
13 0.03
15 0.1
16 -0.18
17 -0.3
18 -0.15
19 -0.15
2 -0.19
20 -0.05
21 -0.15
22 -0.15
23 -0.15
24 -0.15
25 0.19
26 -0.15
27 -0.15
28 0.07
29 -0.15
3 -0.19
30 -0.15
31 -0.15
32 -0.15
34 -0.11
35 -0.11
37 0.48
38 -0.15
39 -0.15
4 -0.43
40 0.19
41 -0.15
42 0.09
43 0.63
44 0.28
47 0.15
48 0.15
49 0.15
5 -0.57
50 0.27
51 0.15
52 0.15
53 0.15
54 0.15
55 0.15
56 0.15
57 0.15
58 0.15
59 0.15
6 -0.57
60 0.15
61 0.15
62 0.15
63 0.15
64 0.15
65 0.15
7 0.03
8 -0.56
9 0.69

> <PUBCHEM_EFFECTIVE_ROTOR_COUNT>
7.4

> <PUBCHEM_PHARMACOPHORE_FEATURES>
12
1 5 acceptor
1 6 cation
1 7 cation
1 7 donor
1 8 acceptor
5 1 20 29 34 35 rings
5 7 10 14 17 18 rings
6 11 13 19 21 25 27 rings
6 14 18 22 26 28 32 rings
6 15 23 24 30 31 33 rings
6 36 38 39 40 41 42 rings
6 6 9 11 12 13 16 rings

> <PUBCHEM_HEAVY_ATOM_COUNT>
45

> <PUBCHEM_ATOM_DEF_STEREO_COUNT>
0

> <PUBCHEM_ATOM_UDEF_STEREO_COUNT>
1

> <PUBCHEM_BOND_DEF_STEREO_COUNT>
0

> <PUBCHEM_BOND_UDEF_STEREO_COUNT>
0

> <PUBCHEM_ISOTOPIC_ATOM_COUNT>
0

> <PUBCHEM_COMPONENT_COUNT>
1

> <PUBCHEM_CACTVS_TAUTO_COUNT>
1

> <PUBCHEM_CONFORMER_ID>
032D50E800000003

> <PUBCHEM_MMFF94_ENERGY>
136.0868

> <PUBCHEM_FEATURE_SELFOVERLAP>
61.016

> <PUBCHEM_SHAPE_FINGERPRINT>
10032420 55 18266714954133492725
10462674 296 17550955119286492022
10985338 8 16664266830582863421
11297750 10 17975978979928472011
12728208 25 18336541600993345098
12758862 11 18187638128918205388
12788726 201 18199179603780068313
12977781 61 17621860408068209213
15064981 113 18116974633755298126
15439362 3 17899690164536003365
15684973 49 18126835006894112707
15775530 1 17764301040030336617
16114785 44 18056784047568746193
18603816 31 18271790346487243782
20775438 99 17264367392257707727
249057 25 18340776949484857628
3504750 166 18410579496454516938
4409770 3 18334581287044466491
44802255 64 16878214299840397639
469060 322 16988573411312141365
4874694 18 18408597055662785886
49967989 163 18339660996473281116
563151 97 18119246164929088717

> <PUBCHEM_SHAPE_MULTIPOLES>
888.7
20.7
7.27
2.65
66.4
6.17
-0.48
3.57
10.37
-7.93
-5.13
-4.95
-1.02
0.04

> <PUBCHEM_SHAPE_SELFOVERLAP>
1988.555

> <PUBCHEM_SHAPE_VOLUME>
477.5

> <PUBCHEM_COORDINATE_TYPE>
2
5
10

$$$$
