5983846
  -OEChem-01171809383D

 51 54  0     0  0  0  0  0  0999 V2000
   -2.5092   -0.9465    1.5991 S   0  0  0  0  0  0  0  0  0  0  0  0
   -3.1546    0.2336    2.1340 O   0  0  0  0  0  0  0  0  0  0  0  0
   -2.4721   -2.1749    2.3635 O   0  0  0  0  0  0  0  0  0  0  0  0
   -0.7424    1.2001   -0.5062 N   0  0  0  0  0  0  0  0  0  0  0  0
   -0.1685    1.7943    1.5571 N   0  0  0  0  0  0  0  0  0  0  0  0
    5.4943   -1.1869   -0.4676 C   0  0  0  0  0  0  0  0  0  0  0  0
   -0.8960   -0.5252    1.1082 C   0  0  0  0  0  0  0  0  0  0  0  0
    4.0610   -1.2829   -0.0667 C   0  0  0  0  0  0  0  0  0  0  0  0
   -0.5905    0.8101    0.7952 C   0  0  0  0  0  0  0  0  0  0  0  0
    1.3952   -1.4624    0.6791 C   0  0  0  0  0  0  0  0  0  0  0  0
   -0.0178   -1.5565    1.0743 C   0  0  0  0  0  0  0  0  0  0  0  0
   -0.3949    2.5241   -0.5899 C   0  0  0  0  0  0  0  0  0  0  0  0
    3.0864   -1.5640   -1.0241 C   0  0  0  0  0  0  0  0  0  0  0  0
    3.6952   -1.0918    1.2656 C   0  0  0  0  0  0  0  0  0  0  0  0
   -3.2647   -1.3219    0.0461 C   0  0  0  0  0  0  0  0  0  0  0  0
   -0.0406    2.8716    0.7109 C   0  0  0  0  0  0  0  0  0  0  0  0
    1.7460   -1.6543   -0.6490 C   0  0  0  0  0  0  0  0  0  0  0  0
    2.3547   -1.1821    1.6407 C   0  0  0  0  0  0  0  0  0  0  0  0
    5.7505   -0.0451   -1.4694 C   0  0  0  0  0  0  0  0  0  0  0  0
    6.0369   -2.5120   -1.0360 C   0  0  0  0  0  0  0  0  0  0  0  0
   -0.3609    3.4201   -1.6589 C   0  0  0  0  0  0  0  0  0  0  0  0
    0.3744    4.1870    0.9793 C   0  0  0  0  0  0  0  0  0  0  0  0
   -3.2174   -2.6198   -0.4329 C   0  0  0  0  0  0  0  0  0  0  0  0
   -3.8897   -0.3108   -0.6638 C   0  0  0  0  0  0  0  0  0  0  0  0
    0.0546    4.7249   -1.3737 C   0  0  0  0  0  0  0  0  0  0  0  0
    0.4161    5.1036   -0.0788 C   0  0  0  0  0  0  0  0  0  0  0  0
   -3.8133   -2.9159   -1.6589 C   0  0  0  0  0  0  0  0  0  0  0  0
   -4.4854   -0.6069   -1.8898 C   0  0  0  0  0  0  0  0  0  0  0  0
   -4.4473   -1.9094   -2.3874 C   0  0  0  0  0  0  0  0  0  0  0  0
    6.0970   -0.9605    0.4225 H   0  0  0  0  0  0  0  0  0  0  0  0
   -0.3150   -2.5728    1.3208 H   0  0  0  0  0  0  0  0  0  0  0  0
   -1.0503    0.6214   -1.2771 H   0  0  0  0  0  0  0  0  0  0  0  0
    3.3486   -1.7162   -2.0674 H   0  0  0  0  0  0  0  0  0  0  0  0
    4.4416   -0.8718    2.0242 H   0  0  0  0  0  0  0  0  0  0  0  0
    0.9956   -1.8736   -1.4043 H   0  0  0  0  0  0  0  0  0  0  0  0
    2.0824   -1.0310    2.6820 H   0  0  0  0  0  0  0  0  0  0  0  0
    5.2493   -0.2205   -2.4274 H   0  0  0  0  0  0  0  0  0  0  0  0
    6.8228    0.0576   -1.6680 H   0  0  0  0  0  0  0  0  0  0  0  0
    5.3891    0.9097   -1.0715 H   0  0  0  0  0  0  0  0  0  0  0  0
    5.8821   -3.3321   -0.3261 H   0  0  0  0  0  0  0  0  0  0  0  0
    7.1121   -2.4342   -1.2306 H   0  0  0  0  0  0  0  0  0  0  0  0
    5.5469   -2.7855   -1.9766 H   0  0  0  0  0  0  0  0  0  0  0  0
   -0.6421    3.1236   -2.6631 H   0  0  0  0  0  0  0  0  0  0  0  0
    0.6575    4.4910    1.9819 H   0  0  0  0  0  0  0  0  0  0  0  0
   -2.7238   -3.4164    0.1150 H   0  0  0  0  0  0  0  0  0  0  0  0
   -3.9266    0.7100   -0.2961 H   0  0  0  0  0  0  0  0  0  0  0  0
    0.0967    5.4576   -2.1758 H   0  0  0  0  0  0  0  0  0  0  0  0
    0.7350    6.1251    0.1119 H   0  0  0  0  0  0  0  0  0  0  0  0
   -3.7821   -3.9296   -2.0473 H   0  0  0  0  0  0  0  0  0  0  0  0
   -4.9777    0.1771   -2.4578 H   0  0  0  0  0  0  0  0  0  0  0  0
   -4.9104   -2.1397   -3.3424 H   0  0  0  0  0  0  0  0  0  0  0  0
  1  2  2  0  0  0  0
  1  3  2  0  0  0  0
  1  7  1  0  0  0  0
  1 15  1  0  0  0  0
  4  9  1  0  0  0  0
  4 12  1  0  0  0  0
  4 32  1  0  0  0  0
  5  9  2  0  0  0  0
  5 16  1  0  0  0  0
  6  8  1  0  0  0  0
  6 19  1  0  0  0  0
  6 20  1  0  0  0  0
  6 30  1  0  0  0  0
  7  9  1  0  0  0  0
  7 11  2  0  0  0  0
  8 13  2  0  0  0  0
  8 14  1  0  0  0  0
 10 11  1  0  0  0  0
 10 17  2  0  0  0  0
 10 18  1  0  0  0  0
 11 31  1  0  0  0  0
 12 16  1  0  0  0  0
 12 21  2  0  0  0  0
 13 17  1  0  0  0  0
 13 33  1  0  0  0  0
 14 18  2  0  0  0  0
 14 34  1  0  0  0  0
 15 23  2  0  0  0  0
 15 24  1  0  0  0  0
 16 22  2  0  0  0  0
 17 35  1  0  0  0  0
 18 36  1  0  0  0  0
 19 37  1  0  0  0  0
 19 38  1  0  0  0  0
 19 39  1  0  0  0  0
 20 40  1  0  0  0  0
 20 41  1  0  0  0  0
 20 42  1  0  0  0  0
 21 25  1  0  0  0  0
 21 43  1  0  0  0  0
 22 26  1  0  0  0  0
 22 44  1  0  0  0  0
 23 27  1  0  0  0  0
 23 45  1  0  0  0  0
 24 28  2  0  0  0  0
 24 46  1  0  0  0  0
 25 26  2  0  0  0  0
 25 47  1  0  0  0  0
 26 48  1  0  0  0  0
 27 29  2  0  0  0  0
 27 49  1  0  0  0  0
 28 29  1  0  0  0  0
 28 50  1  0  0  0  0
 29 51  1  0  0  0  0
M  END
> <PUBCHEM_COMPOUND_CID>
5983846

> <PUBCHEM_CONFORMER_RMSD>
0.8

> <PUBCHEM_CONFORMER_DIVERSEORDER>
1
20
8
12
9
7
16
10
19
6
14
11
13
3
17
18
15
2
4
5

> <PUBCHEM_MMFF94_PARTIAL_CHARGES>
42
1 1.33
10 0.03
11 -0.18
12 -0.15
13 -0.15
14 -0.15
15 -0.01
16 0.23
17 -0.15
18 -0.15
2 -0.65
21 -0.15
22 -0.15
23 -0.15
24 -0.15
25 -0.15
26 -0.15
27 -0.15
28 -0.15
29 -0.15
3 -0.65
31 0.15
32 0.27
33 0.15
34 0.15
35 0.15
36 0.15
4 0.03
43 0.15
44 0.15
45 0.15
46 0.15
47 0.15
48 0.15
49 0.15
5 -0.57
50 0.15
51 0.15
6 0.14
7 0.03
8 -0.14
9 0.14

> <PUBCHEM_EFFECTIVE_ROTOR_COUNT>
5

> <PUBCHEM_PHARMACOPHORE_FEATURES>
9
1 2 acceptor
1 3 acceptor
1 4 donor
3 4 5 9 cation
3 6 19 20 hydrophobe
5 4 5 9 12 16 rings
6 12 16 21 22 25 26 rings
6 15 23 24 27 28 29 rings
6 8 10 13 14 17 18 rings

> <PUBCHEM_HEAVY_ATOM_COUNT>
29

> <PUBCHEM_ATOM_DEF_STEREO_COUNT>
0

> <PUBCHEM_ATOM_UDEF_STEREO_COUNT>
0

> <PUBCHEM_BOND_DEF_STEREO_COUNT>
1

> <PUBCHEM_BOND_UDEF_STEREO_COUNT>
0

> <PUBCHEM_ISOTOPIC_ATOM_COUNT>
0

> <PUBCHEM_COMPONENT_COUNT>
1

> <PUBCHEM_CACTVS_TAUTO_COUNT>
1

> <PUBCHEM_CONFORMER_ID>
005B4E6600000001

> <PUBCHEM_MMFF94_ENERGY>
69.0419

> <PUBCHEM_FEATURE_SELFOVERLAP>
45.796

> <PUBCHEM_SHAPE_FINGERPRINT>
10006869 2 17684378256723817097
10556698 54 17321491221482221509
11045515 52 18410290311241175478
11115154 58 18339630171609523181
11477941 20 18266480762519607764
11488393 25 17689160427434529779
12156800 1 15434761123817063012
12160290 23 17976257937184032945
12166972 35 18129653244439142103
12293681 160 17967808310710142059
12788726 201 18117549635270939321
13149001 5 18042680779401920819
133893 2 18122634013640739761
13681431 1 18337954613865749393
13782708 43 17632304433040657998
13911987 19 18114470032293936878
14068700 675 17632285813945641575
14347332 77 18267863874880457418
14556957 393 18188509998925969900
14856354 85 14620787228672875910
14910302 57 17558848199676234598
14955137 171 18265920066812424755
15439362 3 18049996994244987885
15849732 13 18129393626993384755
17980427 26 17620791661006734433
1813 80 18270948141859926439
18365409 1 17632295611446447609
19319366 153 17245529094540471433
21304303 282 17535449444852716297
21344244 246 17981038940580753036
22907989 373 18189899712671983208
23558518 356 17467904178153763195
23559900 14 16916769808660388571
23929065 36 18049412913331551922
26353 1 18410568483556989965
3298306 158 17757554431875723932
376196 1 16889156863183134285
4280585 95 18340751719970799570
46194498 28 17977356637838683943
469060 322 18273210889708831878
5080951 261 17486182571355357734
5081480 168 18261383503732725565
5171179 24 18343009021463823280
532947 4 18120652697935533776
6669772 16 17476364271647369084
6913067 236 18130493176996934210

> <PUBCHEM_SHAPE_MULTIPOLES>
578.96
9.91
5.73
2.17
10.38
10.78
0.13
-12.13
-5.8
-0.59
-1.59
-1.58
-0.57
-0.47

> <PUBCHEM_SHAPE_SELFOVERLAP>
1262.012

> <PUBCHEM_SHAPE_VOLUME>
315.8

> <PUBCHEM_COORDINATE_TYPE>
2
5
10

$$$$
