2404824
  -OEChem-01171809493D

 40 41  0     0  0  0  0  0  0999 V2000
   -6.6449   -1.8782   -0.0249 Cl  0  0  0  0  0  0  0  0  0  0  0  0
   -4.4777   -0.3771    1.4951 O   0  0  0  0  0  0  0  0  0  0  0  0
    1.8565    0.7171    0.2046 N   0  0  0  0  0  0  0  0  0  0  0  0
   -3.6422    0.1263   -0.6469 N   0  0  0  0  0  0  0  0  0  0  0  0
    2.4077    2.0492    0.2640 C   0  0  0  0  0  0  0  0  0  0  0  0
    0.4504    0.5671   -0.0130 C   0  0  0  0  0  0  0  0  0  0  0  0
    2.8054   -0.3490    0.1285 C   0  0  0  0  0  0  0  0  0  0  0  0
    1.3948    3.0150    0.8649 C   0  0  0  0  0  0  0  0  0  0  0  0
    2.8524    2.5059   -1.1199 C   0  0  0  0  0  0  0  0  0  0  0  0
   -0.0573    0.7208   -1.2923 C   0  0  0  0  0  0  0  0  0  0  0  0
   -0.3732    0.2702    1.0601 C   0  0  0  0  0  0  0  0  0  0  0  0
    2.5645   -1.4118   -0.7271 C   0  0  0  0  0  0  0  0  0  0  0  0
    3.9477   -0.2984    0.9109 C   0  0  0  0  0  0  0  0  0  0  0  0
   -2.2713    0.2738   -0.4347 C   0  0  0  0  0  0  0  0  0  0  0  0
   -1.4278    0.5730   -1.5046 C   0  0  0  0  0  0  0  0  0  0  0  0
   -1.7439    0.1224    0.8476 C   0  0  0  0  0  0  0  0  0  0  0  0
    3.4908   -2.4518   -0.8025 C   0  0  0  0  0  0  0  0  0  0  0  0
    4.8741   -1.3386    0.8356 C   0  0  0  0  0  0  0  0  0  0  0  0
    4.6458   -2.4152   -0.0212 C   0  0  0  0  0  0  0  0  0  0  0  0
   -4.6370   -0.1710    0.2948 C   0  0  0  0  0  0  0  0  0  0  0  0
   -6.0149   -0.2497   -0.3189 C   0  0  0  0  0  0  0  0  0  0  0  0
    3.2776    2.1203    0.9225 H   0  0  0  0  0  0  0  0  0  0  0  0
    1.8595    3.9989    1.0034 H   0  0  0  0  0  0  0  0  0  0  0  0
    0.5188    3.1793    0.2283 H   0  0  0  0  0  0  0  0  0  0  0  0
    1.0564    2.6848    1.8532 H   0  0  0  0  0  0  0  0  0  0  0  0
    3.5475    1.7967   -1.5813 H   0  0  0  0  0  0  0  0  0  0  0  0
    3.3683    3.4705   -1.0504 H   0  0  0  0  0  0  0  0  0  0  0  0
    2.0110    2.6462   -1.8044 H   0  0  0  0  0  0  0  0  0  0  0  0
    0.5850    0.9327   -2.1411 H   0  0  0  0  0  0  0  0  0  0  0  0
    0.0313    0.1496    2.0613 H   0  0  0  0  0  0  0  0  0  0  0  0
    1.6812   -1.4702   -1.3542 H   0  0  0  0  0  0  0  0  0  0  0  0
    4.1463    0.4881    1.6303 H   0  0  0  0  0  0  0  0  0  0  0  0
   -1.8244    0.6892   -2.5101 H   0  0  0  0  0  0  0  0  0  0  0  0
   -2.3308   -0.1077    1.7256 H   0  0  0  0  0  0  0  0  0  0  0  0
    3.3138   -3.2899   -1.4703 H   0  0  0  0  0  0  0  0  0  0  0  0
    5.7677   -1.3167    1.4527 H   0  0  0  0  0  0  0  0  0  0  0  0
    5.3659   -3.2263   -0.0781 H   0  0  0  0  0  0  0  0  0  0  0  0
   -3.9428    0.2567   -1.6102 H   0  0  0  0  0  0  0  0  0  0  0  0
   -6.0103   -0.0698   -1.3965 H   0  0  0  0  0  0  0  0  0  0  0  0
   -6.6691    0.4808    0.1649 H   0  0  0  0  0  0  0  0  0  0  0  0
  1 21  1  0  0  0  0
  2 20  2  0  0  0  0
  3  5  1  0  0  0  0
  3  6  1  0  0  0  0
  3  7  1  0  0  0  0
  4 14  1  0  0  0  0
  4 20  1  0  0  0  0
  4 38  1  0  0  0  0
  5  8  1  0  0  0  0
  5  9  1  0  0  0  0
  5 22  1  0  0  0  0
  6 10  2  0  0  0  0
  6 11  1  0  0  0  0
  7 12  2  0  0  0  0
  7 13  1  0  0  0  0
  8 23  1  0  0  0  0
  8 24  1  0  0  0  0
  8 25  1  0  0  0  0
  9 26  1  0  0  0  0
  9 27  1  0  0  0  0
  9 28  1  0  0  0  0
 10 15  1  0  0  0  0
 10 29  1  0  0  0  0
 11 16  2  0  0  0  0
 11 30  1  0  0  0  0
 12 17  1  0  0  0  0
 12 31  1  0  0  0  0
 13 18  2  0  0  0  0
 13 32  1  0  0  0  0
 14 15  2  0  0  0  0
 14 16  1  0  0  0  0
 15 33  1  0  0  0  0
 16 34  1  0  0  0  0
 17 19  2  0  0  0  0
 17 35  1  0  0  0  0
 18 19  1  0  0  0  0
 18 36  1  0  0  0  0
 19 37  1  0  0  0  0
 20 21  1  0  0  0  0
 21 39  1  0  0  0  0
 21 40  1  0  0  0  0
M  END
> <PUBCHEM_COMPOUND_CID>
2404824

> <PUBCHEM_CONFORMER_RMSD>
0.8

> <PUBCHEM_CONFORMER_DIVERSEORDER>
3
2
13
4
7
6
1
5
10
8
11
12
9

> <PUBCHEM_MMFF94_PARTIAL_CHARGES>
29
1 -0.29
10 -0.15
11 -0.15
12 -0.15
13 -0.15
14 0.12
15 -0.15
16 -0.15
17 -0.15
18 -0.15
19 -0.15
2 -0.57
20 0.57
21 0.35
29 0.15
3 -0.57
30 0.15
31 0.15
32 0.15
33 0.15
34 0.15
35 0.15
36 0.15
37 0.15
38 0.37
4 -0.55
5 0.37
6 0.1
7 0.1

> <PUBCHEM_EFFECTIVE_ROTOR_COUNT>
6

> <PUBCHEM_PHARMACOPHORE_FEATURES>
6
1 2 acceptor
1 3 cation
1 4 donor
3 5 8 9 hydrophobe
6 6 10 11 14 15 16 rings
6 7 12 13 17 18 19 rings

> <PUBCHEM_HEAVY_ATOM_COUNT>
21

> <PUBCHEM_ATOM_DEF_STEREO_COUNT>
0

> <PUBCHEM_ATOM_UDEF_STEREO_COUNT>
0

> <PUBCHEM_BOND_DEF_STEREO_COUNT>
0

> <PUBCHEM_BOND_UDEF_STEREO_COUNT>
0

> <PUBCHEM_ISOTOPIC_ATOM_COUNT>
0

> <PUBCHEM_COMPONENT_COUNT>
1

> <PUBCHEM_CACTVS_TAUTO_COUNT>
2

> <PUBCHEM_CONFORMER_ID>
0024B1D800000003

> <PUBCHEM_MMFF94_ENERGY>
90.1422

> <PUBCHEM_FEATURE_SELFOVERLAP>
30.446

> <PUBCHEM_SHAPE_FINGERPRINT>
11595378 159 15841275856809101467
12107183 9 18056208977496839193
12236239 1 17489869336399506281
12553582 1 18201431438137666606
12596602 18 17132112425024628067
12616971 3 17988920098585107927
12730499 353 18193846061430171097
12892183 10 17202481104856364586
12969540 114 9150880642646244267
13533116 47 18340770437912639595
13544592 145 17967535679303098435
13583140 156 18055078911387147601
13911852 28 18196933275269616135
13955234 65 18269552900222003112
14211702 104 18043254742142411355
14252887 29 18271239422742664290
14341114 328 15840969132252576194
14863182 85 17632581535391988542
15250474 111 17845079852704289935
15422964 175 18197780999288097246
15848702 151 18410009918881105237
15880784 105 18336829788444386427
16752209 62 15502365708610229501
17844677 252 18260550018084621029
17980427 23 13541592371774171136
1813 80 18129672889624087956
18222031 100 18271251525818079630
18785283 64 18336542836973358188
193927 3 18334868177289122139
19784866 240 18342181020461633630
20028762 73 18272085011398840151
20369508 70 17967525762328951128
20388580 30 18335144155213998652
20645477 70 18334855038915435851
21041028 32 18342453691104053740
21049683 271 18334862749173660060
21267235 1 18201721709313257942
21344244 78 17917421034198954664
22393880 68 12035744127457188145
23559900 14 17022910085341290885
239999 70 18040713705506451336
29717793 49 18261106392532451767
3286 77 18408323272075528181
3421961 26 18412823586279640504
34797466 226 17386006243352912925
4072396 5 16415480428906723589
46194498 28 18113334228228900780
465052 167 18343586239298218775
5281201 14 18113898256113819445
5718773 13 18117270368462372474
6025842 7 18337112383874967228
7495541 125 17894914022957274358
7970288 3 18268710506891270054

> <PUBCHEM_SHAPE_MULTIPOLES>
418.21
12.75
2.63
1.24
19.42
0.6
0.08
-9.36
-1.35
-3.73
0.18
0.01
0.22
0.18

> <PUBCHEM_SHAPE_SELFOVERLAP>
872.55

> <PUBCHEM_SHAPE_VOLUME>
238.3

> <PUBCHEM_COORDINATE_TYPE>
2
5
10

$$$$
