892370
  -OEChem-01171809183D

 48 50  0     0  0  0  0  0  0999 V2000
   -4.9200    3.2572    0.5274 O   0  0  0  0  0  0  0  0  0  0  0  0
   -4.5037   -1.0157   -1.9160 O   0  0  0  0  0  0  0  0  0  0  0  0
    1.3122   -0.4929    0.5771 O   0  0  0  0  0  0  0  0  0  0  0  0
    6.4827    1.2394   -0.2269 O   0  0  0  0  0  0  0  0  0  0  0  0
   -4.4969    0.5678   -0.1977 N   0  0  0  0  0  0  0  0  0  0  0  0
   -5.6365    1.3152   -0.7271 C   0  0  0  0  0  0  0  0  0  0  0  0
   -3.9628    1.0916    1.0653 C   0  0  0  0  0  0  0  0  0  0  0  0
   -5.3225    2.8036   -0.7679 C   0  0  0  0  0  0  0  0  0  0  0  0
   -3.7283    2.5936    0.9557 C   0  0  0  0  0  0  0  0  0  0  0  0
   -4.0535   -0.5798   -0.8574 C   0  0  0  0  0  0  0  0  0  0  0  0
   -2.9613   -1.3504   -0.2481 C   0  0  0  0  0  0  0  0  0  0  0  0
   -1.6395   -1.0524   -0.5695 C   0  0  0  0  0  0  0  0  0  0  0  0
   -0.6027   -1.7840    0.0094 C   0  0  0  0  0  0  0  0  0  0  0  0
   -3.2532   -2.3754    0.6481 C   0  0  0  0  0  0  0  0  0  0  0  0
    0.8146   -1.4677   -0.3311 C   0  0  0  0  0  0  0  0  0  0  0  0
   -0.8912   -2.8115    0.9077 C   0  0  0  0  0  0  0  0  0  0  0  0
   -2.2164   -3.1072    1.2271 C   0  0  0  0  0  0  0  0  0  0  0  0
    2.5974   -0.0622    0.3772 C   0  0  0  0  0  0  0  0  0  0  0  0
    3.3412   -0.5816   -0.6762 C   0  0  0  0  0  0  0  0  0  0  0  0
    3.1446    0.8899    1.2299 C   0  0  0  0  0  0  0  0  0  0  0  0
    5.2056    0.8118   -0.0284 C   0  0  0  0  0  0  0  0  0  0  0  0
    4.6497   -0.1432   -0.8796 C   0  0  0  0  0  0  0  0  0  0  0  0
    4.4531    1.3283    1.0263 C   0  0  0  0  0  0  0  0  0  0  0  0
    7.3950    0.3105   -0.8101 C   0  0  0  0  0  0  0  0  0  0  0  0
    8.7927    0.6151   -0.3151 C   0  0  0  0  0  0  0  0  0  0  0  0
   -6.4749    1.1247   -0.0468 H   0  0  0  0  0  0  0  0  0  0  0  0
   -5.9176    0.9551   -1.7212 H   0  0  0  0  0  0  0  0  0  0  0  0
   -3.0408    0.5894    1.3637 H   0  0  0  0  0  0  0  0  0  0  0  0
   -4.7230    0.8852    1.8281 H   0  0  0  0  0  0  0  0  0  0  0  0
   -6.2130    3.3684   -1.0605 H   0  0  0  0  0  0  0  0  0  0  0  0
   -4.5297    3.0264   -1.4920 H   0  0  0  0  0  0  0  0  0  0  0  0
   -2.9173    2.8190    0.2529 H   0  0  0  0  0  0  0  0  0  0  0  0
   -3.4482    3.0018    1.9318 H   0  0  0  0  0  0  0  0  0  0  0  0
   -1.4181   -0.2484   -1.2676 H   0  0  0  0  0  0  0  0  0  0  0  0
   -4.2825   -2.6128    0.9039 H   0  0  0  0  0  0  0  0  0  0  0  0
    0.8410   -1.0924   -1.3631 H   0  0  0  0  0  0  0  0  0  0  0  0
    1.4050   -2.3919   -0.2718 H   0  0  0  0  0  0  0  0  0  0  0  0
   -0.0927   -3.3874    1.3677 H   0  0  0  0  0  0  0  0  0  0  0  0
   -2.4410   -3.9065    1.9272 H   0  0  0  0  0  0  0  0  0  0  0  0
    2.9756   -1.3227   -1.3780 H   0  0  0  0  0  0  0  0  0  0  0  0
    2.5619    1.2947    2.0525 H   0  0  0  0  0  0  0  0  0  0  0  0
    5.1925   -0.5500   -1.7279 H   0  0  0  0  0  0  0  0  0  0  0  0
    4.8809    2.0723    1.6928 H   0  0  0  0  0  0  0  0  0  0  0  0
    7.3589    0.4070   -1.9008 H   0  0  0  0  0  0  0  0  0  0  0  0
    7.1635   -0.7234   -0.5246 H   0  0  0  0  0  0  0  0  0  0  0  0
    8.8414    0.5360    0.7760 H   0  0  0  0  0  0  0  0  0  0  0  0
    9.0778    1.6406   -0.5725 H   0  0  0  0  0  0  0  0  0  0  0  0
    9.5217   -0.0734   -0.7518 H   0  0  0  0  0  0  0  0  0  0  0  0
  1  8  1  0  0  0  0
  1  9  1  0  0  0  0
  2 10  2  0  0  0  0
  3 15  1  0  0  0  0
  3 18  1  0  0  0  0
  4 21  1  0  0  0  0
  4 24  1  0  0  0  0
  5  6  1  0  0  0  0
  5  7  1  0  0  0  0
  5 10  1  0  0  0  0
  6  8  1  0  0  0  0
  6 26  1  0  0  0  0
  6 27  1  0  0  0  0
  7  9  1  0  0  0  0
  7 28  1  0  0  0  0
  7 29  1  0  0  0  0
  8 30  1  0  0  0  0
  8 31  1  0  0  0  0
  9 32  1  0  0  0  0
  9 33  1  0  0  0  0
 10 11  1  0  0  0  0
 11 12  1  0  0  0  0
 11 14  2  0  0  0  0
 12 13  2  0  0  0  0
 12 34  1  0  0  0  0
 13 15  1  0  0  0  0
 13 16  1  0  0  0  0
 14 17  1  0  0  0  0
 14 35  1  0  0  0  0
 15 36  1  0  0  0  0
 15 37  1  0  0  0  0
 16 17  2  0  0  0  0
 16 38  1  0  0  0  0
 17 39  1  0  0  0  0
 18 19  2  0  0  0  0
 18 20  1  0  0  0  0
 19 22  1  0  0  0  0
 19 40  1  0  0  0  0
 20 23  2  0  0  0  0
 20 41  1  0  0  0  0
 21 22  2  0  0  0  0
 21 23  1  0  0  0  0
 22 42  1  0  0  0  0
 23 43  1  0  0  0  0
 24 25  1  0  0  0  0
 24 44  1  0  0  0  0
 24 45  1  0  0  0  0
 25 46  1  0  0  0  0
 25 47  1  0  0  0  0
 25 48  1  0  0  0  0
M  END
> <PUBCHEM_COMPOUND_CID>
892370

> <PUBCHEM_CONFORMER_RMSD>
0.8

> <PUBCHEM_CONFORMER_DIVERSEORDER>
1
15
200
186
32
70
242
179
93
211
254
250
77
145
213
123
224
164
40
35
245
65
24
148
67
187
249
149
202
130
141
153
18
169
228
128
52
237
227
159
241
146
191
161
165
157
91
36
150
147
154
113
88
118
6
27
11
71
74
109
69
86
134
239
66
39
42
215
59
204
201
247
189
181
49
193
143
257
231
173
258
124
127
183
248
50
79
155
206
30
82
142
235
203
229
253
120
208
44
101
251
207
46
252
236
152
144
21
80
195
126
192
25
122
182
216
219
41
210
64
178
68
140
232
240
234
217
97
136
230
196
53
137
19
233
51
244
43
174
184
259
198
205
223
95
73
188
108
31
167
133
116
72
26
163
83
225
112
135
221
256
214
100
190
29
96
125
160
209
28
105
121
33
75
176
54
220
162
37
138
99
166
139
260
55
177
5
222
56
238
90
199
156
47
38
63
23
106
104
226
20
58
172
110
158
98
175
60
81
78
34
102
22
94
129
14
117
255
180
131
197
17
8
62
168
89
87
57
61
171
10
45
218
92
132
243
185
151
48
119
85
16
246
84
111
103
3
194
13
76
170
9
7
115
12
212
2
4
107
114

> <PUBCHEM_MMFF94_PARTIAL_CHARGES>
32
1 -0.56
10 0.54
11 0.09
12 -0.15
13 -0.14
14 -0.15
15 0.42
16 -0.15
17 -0.15
18 0.08
19 -0.15
2 -0.57
20 -0.15
21 0.08
22 -0.15
23 -0.15
24 0.28
3 -0.36
34 0.15
35 0.15
38 0.15
39 0.15
4 -0.36
40 0.15
41 0.15
42 0.15
43 0.15
5 -0.66
6 0.3
7 0.3
8 0.28
9 0.28

> <PUBCHEM_EFFECTIVE_ROTOR_COUNT>
8.2

> <PUBCHEM_PHARMACOPHORE_FEATURES>
7
1 1 acceptor
1 2 acceptor
1 3 acceptor
1 4 acceptor
6 1 5 6 7 8 9 rings
6 11 12 13 14 16 17 rings
6 18 19 20 21 22 23 rings

> <PUBCHEM_HEAVY_ATOM_COUNT>
25

> <PUBCHEM_ATOM_DEF_STEREO_COUNT>
0

> <PUBCHEM_ATOM_UDEF_STEREO_COUNT>
0

> <PUBCHEM_BOND_DEF_STEREO_COUNT>
0

> <PUBCHEM_BOND_UDEF_STEREO_COUNT>
0

> <PUBCHEM_ISOTOPIC_ATOM_COUNT>
0

> <PUBCHEM_COMPONENT_COUNT>
1

> <PUBCHEM_CACTVS_TAUTO_COUNT>
1

> <PUBCHEM_CONFORMER_ID>
000D9DD200000001

> <PUBCHEM_MMFF94_ENERGY>
81.0608

> <PUBCHEM_FEATURE_SELFOVERLAP>
35.524

> <PUBCHEM_SHAPE_FINGERPRINT>
100830 39 18408889542107241032
10291535 26 18412832404000512755
10411042 1 17903924710227763107
10670039 82 18411132541385327965
11273773 118 18260277351753174402
11796584 16 18335422418199360802
12107183 9 18115855314103025586
12390115 104 18333172765009181555
12717326 25 16733268954789426138
14251751 18 9151176458787787650
14251764 75 17839470990667528801
14347329 18 18412539920832803112
14931854 50 18059282172594918273
14950920 106 14996582697690962245
15183329 4 18130788941276434906
15198563 99 18057306496581907655
15629462 23 16629135256479170984
15778101 99 18334015007752912294
16120349 189 18042112164734763581
17093844 174 18338516443376070954
17844677 252 18191594253548446322
17980427 26 18192135011264457871
18608769 82 18339085986273311115
19304152 47 18115599132558115433
21033648 29 18129654326859908562
21279426 13 18270974444767226510
21401589 2 18337399253794552891
21623969 137 12901540244140392464
21756936 100 18409451388623475203
21859007 373 18131057243931730512
23522609 53 17241064183994250572
23559900 14 18409728508804015058
23569914 152 16982106960227561740
255183 451 17053267748621734487
283562 15 18260545680400443035
2838139 119 18342735247705560148
312425 54 11819261218629442861
397830 11 7853566865282320294
4144715 1 18044103573676508762
445580 204 18413106147635235156
508706 21 18340480162105100977
5104073 3 17821445746690176978
5283173 99 18342739632819878696
531348 171 18060700589295928270
6299153 45 18263356989555094250
6327066 14 18262514793713021085
6328613 192 18335422361868231488
636775 72 18411697725397496112
6431902 208 9799689290017078297
7288768 16 18040720221710623299
7808743 9 18334855009240951137
7970288 3 10303510824455084029
9953998 17 11241965984065803518
9980921 52 14403513672379932172
9981440 41 18410004438804244227

> <PUBCHEM_SHAPE_MULTIPOLES>
486.03
19.29
3.27
1.23
34.34
0.08
-0.03
13.5
-4.45
-6.74
1.03
-0.67
-0.05
0.37

> <PUBCHEM_SHAPE_SELFOVERLAP>
1029.529

> <PUBCHEM_SHAPE_VOLUME>
271.4

> <PUBCHEM_COORDINATE_TYPE>
2
5
10

$$$$
