5905739
  -OEChem-01171810073D

 35 37  0     0  0  0  0  0  0999 V2000
   -2.9306    2.0950    0.4737 O   0  0  0  0  0  0  0  0  0  0  0  0
   -7.1681   -0.3358   -0.1582 O   0  0  0  0  0  0  0  0  0  0  0  0
   -5.6989   -2.0522   -0.4750 O   0  0  0  0  0  0  0  0  0  0  0  0
    2.1503    2.1335   -0.6712 C   0  0  0  0  0  0  0  0  0  0  0  0
    3.4851    1.9377    0.0480 C   0  0  0  0  0  0  0  0  0  0  0  0
    1.1266    1.1199   -0.2190 C   0  0  0  0  0  0  0  0  0  0  0  0
    1.5400   -0.1936    0.1070 C   0  0  0  0  0  0  0  0  0  0  0  0
    3.9401    0.4994   -0.0166 C   0  0  0  0  0  0  0  0  0  0  0  0
    2.9807   -0.5401    0.0299 C   0  0  0  0  0  0  0  0  0  0  0  0
   -0.2302    1.4751   -0.1816 C   0  0  0  0  0  0  0  0  0  0  0  0
    0.5496   -1.1088    0.5059 C   0  0  0  0  0  0  0  0  0  0  0  0
    5.3116    0.2082   -0.0647 C   0  0  0  0  0  0  0  0  0  0  0  0
    3.4516   -1.8645   -0.0146 C   0  0  0  0  0  0  0  0  0  0  0  0
   -1.1887    0.5454    0.2085 C   0  0  0  0  0  0  0  0  0  0  0  0
   -0.7989   -0.7432    0.5559 C   0  0  0  0  0  0  0  0  0  0  0  0
    5.7482   -1.1123   -0.0988 C   0  0  0  0  0  0  0  0  0  0  0  0
    4.8194   -2.1468   -0.0785 C   0  0  0  0  0  0  0  0  0  0  0  0
   -2.5926    0.9213    0.2559 C   0  0  0  0  0  0  0  0  0  0  0  0
   -3.6312   -0.1350    0.0041 C   0  0  0  0  0  0  0  0  0  0  0  0
   -4.9328    0.1765    0.0234 C   0  0  0  0  0  0  0  0  0  0  0  0
   -5.9311   -0.8797   -0.2340 C   0  0  0  0  0  0  0  0  0  0  0  0
    2.2834    2.0245   -1.7552 H   0  0  0  0  0  0  0  0  0  0  0  0
    1.7941    3.1531   -0.4826 H   0  0  0  0  0  0  0  0  0  0  0  0
    3.3920    2.2195    1.1046 H   0  0  0  0  0  0  0  0  0  0  0  0
    4.2317    2.5996   -0.4065 H   0  0  0  0  0  0  0  0  0  0  0  0
   -0.5247    2.4839   -0.4626 H   0  0  0  0  0  0  0  0  0  0  0  0
    0.8058   -2.1224    0.8034 H   0  0  0  0  0  0  0  0  0  0  0  0
    6.0444    1.0109   -0.0781 H   0  0  0  0  0  0  0  0  0  0  0  0
    2.7659   -2.7077   -0.0102 H   0  0  0  0  0  0  0  0  0  0  0  0
   -1.5056   -1.4897    0.9065 H   0  0  0  0  0  0  0  0  0  0  0  0
    6.8102   -1.3341   -0.1425 H   0  0  0  0  0  0  0  0  0  0  0  0
    5.1568   -3.1790   -0.1112 H   0  0  0  0  0  0  0  0  0  0  0  0
   -3.3083   -1.1411   -0.2356 H   0  0  0  0  0  0  0  0  0  0  0  0
   -5.2896    1.1781    0.2368 H   0  0  0  0  0  0  0  0  0  0  0  0
   -7.8719   -0.9994   -0.3218 H   0  0  0  0  0  0  0  0  0  0  0  0
  1 18  2  0  0  0  0
  2 21  1  0  0  0  0
  2 35  1  0  0  0  0
  3 21  2  0  0  0  0
  4  5  1  0  0  0  0
  4  6  1  0  0  0  0
  4 22  1  0  0  0  0
  4 23  1  0  0  0  0
  5  8  1  0  0  0  0
  5 24  1  0  0  0  0
  5 25  1  0  0  0  0
  6  7  2  0  0  0  0
  6 10  1  0  0  0  0
  7  9  1  0  0  0  0
  7 11  1  0  0  0  0
  8  9  1  0  0  0  0
  8 12  2  0  0  0  0
  9 13  2  0  0  0  0
 10 14  2  0  0  0  0
 10 26  1  0  0  0  0
 11 15  2  0  0  0  0
 11 27  1  0  0  0  0
 12 16  1  0  0  0  0
 12 28  1  0  0  0  0
 13 17  1  0  0  0  0
 13 29  1  0  0  0  0
 14 15  1  0  0  0  0
 14 18  1  0  0  0  0
 15 30  1  0  0  0  0
 16 17  2  0  0  0  0
 16 31  1  0  0  0  0
 17 32  1  0  0  0  0
 18 19  1  0  0  0  0
 19 20  2  0  0  0  0
 19 33  1  0  0  0  0
 20 21  1  0  0  0  0
 20 34  1  0  0  0  0
M  END
> <PUBCHEM_COMPOUND_CID>
5905739

> <PUBCHEM_CONFORMER_RMSD>
0.6

> <PUBCHEM_CONFORMER_DIVERSEORDER>
1
22
18
17
3
24
20
11
5
15
4
7
10
23
21
2
8
14
9
12
6
19
16
13
25
26

> <PUBCHEM_MMFF94_PARTIAL_CHARGES>
29
1 -0.57
10 -0.15
11 -0.15
12 -0.15
13 -0.15
14 0.09
15 -0.15
16 -0.15
17 -0.15
18 0.47
19 -0.14
2 -0.65
20 -0.14
21 0.71
26 0.15
27 0.15
28 0.15
29 0.15
3 -0.57
30 0.15
31 0.15
32 0.15
33 0.15
34 0.15
35 0.5
4 0.14
5 0.14
6 -0.14
8 -0.14

> <PUBCHEM_EFFECTIVE_ROTOR_COUNT>
3.4

> <PUBCHEM_PHARMACOPHORE_FEATURES>
7
1 1 acceptor
1 2 acceptor
1 3 acceptor
3 2 3 21 anion
6 4 5 6 7 8 9 rings
6 6 7 10 11 14 15 rings
6 8 9 12 13 16 17 rings

> <PUBCHEM_HEAVY_ATOM_COUNT>
21

> <PUBCHEM_ATOM_DEF_STEREO_COUNT>
0

> <PUBCHEM_ATOM_UDEF_STEREO_COUNT>
0

> <PUBCHEM_BOND_DEF_STEREO_COUNT>
1

> <PUBCHEM_BOND_UDEF_STEREO_COUNT>
0

> <PUBCHEM_ISOTOPIC_ATOM_COUNT>
0

> <PUBCHEM_COMPONENT_COUNT>
1

> <PUBCHEM_CACTVS_TAUTO_COUNT>
1

> <PUBCHEM_CONFORMER_ID>
005A1D4B00000001

> <PUBCHEM_MMFF94_ENERGY>
62.9945

> <PUBCHEM_FEATURE_SELFOVERLAP>
35.622

> <PUBCHEM_SHAPE_FINGERPRINT>
10366900 7 17167867430689170032
10411042 1 18192993717587959226
10595046 47 18413109463276212568
106641 1 18201428187301162706
11089746 13 11674882216529993111
11524674 6 16128372688713843095
11578080 2 16986576818375933914
11806522 49 18408886221944462257
12107183 9 17693100660474922385
12166972 35 18411421721554869640
12236239 1 18273497870928249361
12403259 226 18410288095028410404
12403260 363 18409452466243703952
12596602 18 17489591143083914914
12623949 98 17631180684574606486
13167823 11 18342455928575715023
13533116 47 18341895224953765952
13862211 1 18261954055556909338
14170010 4 18408885157140823448
14251764 18 18407478860779150440
14350574 20 18333732412021521303
15183329 4 18113890525863438509
15196674 1 18337392639112653080
17492 89 18200033911066022814
17834072 33 18411981368667150109
17844677 252 18411706465428667905
17857418 61 18413671318376814279
18222031 100 18259982665225140872
18681886 176 18412538833905169209
200 152 18343018887361748545
20028762 73 18343300349132570670
20281389 69 10159700188093510771
20612939 158 18187370955812844493
20645477 70 18408603652136180566
21130935 74 18127406758027593866
21150785 3 17240489121521020894
21267235 1 18411706469417420278
21682296 61 18268720419691113206
21709351 56 18186798067874799741
221357 26 18334292054671114469
22393880 68 17968928700532594381
23035841 295 18413671314561979435
23402539 116 18413386523564476741
23522609 53 18123785055875780544
23559900 14 18262517108367973753
25147074 1 18340222820518295937
2871803 45 18040713662789036217
29717793 49 18413672400687415717
3004659 81 18261107487316510851
335352 9 18335426777548279814
34797466 226 17132119065645064080
350125 39 18412544314315093533
4073 2 18041284378259684899
4214541 1 18339361868638106113
4325135 7 18413388739577671495
439807 62 18268146647390978927
46194498 28 17458626752319983668
465052 167 18201722842867944382
5104073 3 18200871773343785576
5718773 13 18191583056817509138
59755656 215 17749385945249561083
7495541 125 17489583497867872545
9709674 26 18261399995737229018
9981440 41 17472417029267666720

> <PUBCHEM_SHAPE_MULTIPOLES>
414.56
14.91
2.17
0.68
17.72
0.16
0
-6.86
1.61
-1.27
0.16
0.02
0.02
-0.49

> <PUBCHEM_SHAPE_SELFOVERLAP>
909.855

> <PUBCHEM_SHAPE_VOLUME>
222.6

> <PUBCHEM_COORDINATE_TYPE>
2
5
10

$$$$
