4882569
  -OEChem-01171809503D

 59 61  0     0  0  0  0  0  0999 V2000
    0.2699    0.0338    1.8644 O   0  0  0  0  0  0  0  0  0  0  0  0
   -2.0421    2.8375   -0.7447 O   0  0  0  0  0  0  0  0  0  0  0  0
    6.8447    1.2104   -0.9747 O   0  0  0  0  0  0  0  0  0  0  0  0
    6.9504    2.1640    1.0859 O   0  0  0  0  0  0  0  0  0  0  0  0
    0.3251   -0.8742   -0.3043 N   0  0  0  0  0  0  0  0  0  0  0  0
   -2.6195    0.7814    0.2149 N   0  0  0  0  0  0  0  0  0  0  0  0
    0.7309   -2.2117   -0.0841 C   0  0  0  0  0  0  0  0  0  0  0  0
   -4.0342    0.7919    0.1490 C   0  0  0  0  0  0  0  0  0  0  0  0
    0.8820   -3.0798   -1.1538 C   0  0  0  0  0  0  0  0  0  0  0  0
   -4.7339   -0.3969    0.0214 C   0  0  0  0  0  0  0  0  0  0  0  0
   -0.3007    1.4054    0.0184 C   0  0  0  0  0  0  0  0  0  0  0  0
    1.5302   -4.8236    0.3877 C   0  0  0  0  0  0  0  0  0  0  0  0
   -6.8015    0.8532    0.0264 C   0  0  0  0  0  0  0  0  0  0  0  0
    1.2842   -4.3942   -0.9165 C   0  0  0  0  0  0  0  0  0  0  0  0
   -6.1270   -0.3660   -0.0403 C   0  0  0  0  0  0  0  0  0  0  0  0
    0.9717   -2.6246    1.2173 C   0  0  0  0  0  0  0  0  0  0  0  0
   -4.6896    2.0109    0.2164 C   0  0  0  0  0  0  0  0  0  0  0  0
    0.1303    0.1142    0.6493 C   0  0  0  0  0  0  0  0  0  0  0  0
   -1.7452    1.7701   -0.2171 C   0  0  0  0  0  0  0  0  0  0  0  0
    1.3741   -3.9389    1.4545 C   0  0  0  0  0  0  0  0  0  0  0  0
   -6.0827    2.0416    0.1549 C   0  0  0  0  0  0  0  0  0  0  0  0
    0.6240    2.3053   -0.3693 C   0  0  0  0  0  0  0  0  0  0  0  0
    0.6235   -2.6478   -2.5609 C   0  0  0  0  0  0  0  0  0  0  0  0
   -4.0379   -1.7171   -0.0545 C   0  0  0  0  0  0  0  0  0  0  0  0
    2.0833    2.1734   -0.2438 C   0  0  0  0  0  0  0  0  0  0  0  0
    1.9597   -6.2293    0.6414 C   0  0  0  0  0  0  0  0  0  0  0  0
   -8.2911    0.8860   -0.0403 C   0  0  0  0  0  0  0  0  0  0  0  0
    2.7123    2.6299    0.9047 C   0  0  0  0  0  0  0  0  0  0  0  0
    2.8065    1.5953   -1.2765 C   0  0  0  0  0  0  0  0  0  0  0  0
    4.8360    1.9262   -0.0078 C   0  0  0  0  0  0  0  0  0  0  0  0
    4.0966    2.5058    1.0234 C   0  0  0  0  0  0  0  0  0  0  0  0
    4.1909    1.4710   -1.1579 C   0  0  0  0  0  0  0  0  0  0  0  0
    6.2791    1.7967    0.1160 C   0  0  0  0  0  0  0  0  0  0  0  0
    1.4054   -5.0891   -1.7443 H   0  0  0  0  0  0  0  0  0  0  0  0
   -6.6926   -1.2898   -0.1382 H   0  0  0  0  0  0  0  0  0  0  0  0
    0.1581   -0.6142   -1.2728 H   0  0  0  0  0  0  0  0  0  0  0  0
   -2.2157   -0.1197    0.4533 H   0  0  0  0  0  0  0  0  0  0  0  0
    0.8744   -2.0071    2.0973 H   0  0  0  0  0  0  0  0  0  0  0  0
   -4.1686    2.9525    0.3528 H   0  0  0  0  0  0  0  0  0  0  0  0
    1.5610   -4.2632    2.4749 H   0  0  0  0  0  0  0  0  0  0  0  0
   -6.5973    2.9970    0.2176 H   0  0  0  0  0  0  0  0  0  0  0  0
    0.3300    3.2468   -0.8289 H   0  0  0  0  0  0  0  0  0  0  0  0
    1.2942   -1.8287   -2.8414 H   0  0  0  0  0  0  0  0  0  0  0  0
    0.7934   -3.4621   -3.2740 H   0  0  0  0  0  0  0  0  0  0  0  0
   -0.4169   -2.3270   -2.6799 H   0  0  0  0  0  0  0  0  0  0  0  0
   -3.3085   -1.7242   -0.8716 H   0  0  0  0  0  0  0  0  0  0  0  0
   -3.5291   -1.9367    0.8901 H   0  0  0  0  0  0  0  0  0  0  0  0
   -4.7396   -2.5363   -0.2460 H   0  0  0  0  0  0  0  0  0  0  0  0
    2.5798   -6.6054   -0.1793 H   0  0  0  0  0  0  0  0  0  0  0  0
    1.0834   -6.8766    0.7458 H   0  0  0  0  0  0  0  0  0  0  0  0
    2.5594   -6.3025    1.5551 H   0  0  0  0  0  0  0  0  0  0  0  0
   -8.7148    0.7536    0.9601 H   0  0  0  0  0  0  0  0  0  0  0  0
   -8.6496    1.8370   -0.4486 H   0  0  0  0  0  0  0  0  0  0  0  0
   -8.6730    0.0934   -0.6927 H   0  0  0  0  0  0  0  0  0  0  0  0
    2.1475    3.0831    1.7151 H   0  0  0  0  0  0  0  0  0  0  0  0
    2.3150    1.2363   -2.1770 H   0  0  0  0  0  0  0  0  0  0  0  0
    4.5801    2.8666    1.9274 H   0  0  0  0  0  0  0  0  0  0  0  0
    4.7273    1.0133   -1.9844 H   0  0  0  0  0  0  0  0  0  0  0  0
    7.8177    1.1273   -0.8809 H   0  0  0  0  0  0  0  0  0  0  0  0
  1 18  2  0  0  0  0
  2 19  2  0  0  0  0
  3 33  1  0  0  0  0
  3 59  1  0  0  0  0
  4 33  2  0  0  0  0
  5  7  1  0  0  0  0
  5 18  1  0  0  0  0
  5 36  1  0  0  0  0
  6  8  1  0  0  0  0
  6 19  1  0  0  0  0
  6 37  1  0  0  0  0
  7  9  2  0  0  0  0
  7 16  1  0  0  0  0
  8 10  2  0  0  0  0
  8 17  1  0  0  0  0
  9 14  1  0  0  0  0
  9 23  1  0  0  0  0
 10 15  1  0  0  0  0
 10 24  1  0  0  0  0
 11 18  1  0  0  0  0
 11 19  1  0  0  0  0
 11 22  2  0  0  0  0
 12 14  2  0  0  0  0
 12 20  1  0  0  0  0
 12 26  1  0  0  0  0
 13 15  2  0  0  0  0
 13 21  1  0  0  0  0
 13 27  1  0  0  0  0
 14 34  1  0  0  0  0
 15 35  1  0  0  0  0
 16 20  2  0  0  0  0
 16 38  1  0  0  0  0
 17 21  2  0  0  0  0
 17 39  1  0  0  0  0
 20 40  1  0  0  0  0
 21 41  1  0  0  0  0
 22 25  1  0  0  0  0
 22 42  1  0  0  0  0
 23 43  1  0  0  0  0
 23 44  1  0  0  0  0
 23 45  1  0  0  0  0
 24 46  1  0  0  0  0
 24 47  1  0  0  0  0
 24 48  1  0  0  0  0
 25 28  2  0  0  0  0
 25 29  1  0  0  0  0
 26 49  1  0  0  0  0
 26 50  1  0  0  0  0
 26 51  1  0  0  0  0
 27 52  1  0  0  0  0
 27 53  1  0  0  0  0
 27 54  1  0  0  0  0
 28 31  1  0  0  0  0
 28 55  1  0  0  0  0
 29 32  2  0  0  0  0
 29 56  1  0  0  0  0
 30 31  2  0  0  0  0
 30 32  1  0  0  0  0
 30 33  1  0  0  0  0
 31 57  1  0  0  0  0
 32 58  1  0  0  0  0
M  END
> <PUBCHEM_COMPOUND_CID>
4882569

> <PUBCHEM_CONFORMER_RMSD>
1

> <PUBCHEM_CONFORMER_DIVERSEORDER>
1
25
22
3
29
26
11
19
21
23
16
18
9
17
5
27
12
14
30
24
6
7
31
4
15
8
10
20
2
13
28

> <PUBCHEM_MMFF94_PARTIAL_CHARGES>
47
1 -0.57
10 -0.14
11 0.03
12 -0.14
13 -0.14
14 -0.15
15 -0.15
16 -0.15
17 -0.15
18 0.62
19 0.62
2 -0.57
20 -0.15
21 -0.15
22 -0.18
23 0.14
24 0.14
25 0.03
26 0.14
27 0.14
28 -0.15
29 -0.15
3 -0.65
30 0.09
31 -0.15
32 -0.15
33 0.63
34 0.15
35 0.15
36 0.37
37 0.37
38 0.15
39 0.15
4 -0.57
40 0.15
41 0.15
42 0.15
5 -0.55
55 0.15
56 0.15
57 0.15
58 0.15
59 0.5
6 -0.55
7 0.12
8 0.12
9 -0.14

> <PUBCHEM_EFFECTIVE_ROTOR_COUNT>
8

> <PUBCHEM_PHARMACOPHORE_FEATURES>
11
1 1 acceptor
1 11 anion
1 2 acceptor
1 3 acceptor
1 4 acceptor
1 5 donor
1 6 donor
3 3 4 33 anion
6 25 28 29 30 31 32 rings
6 7 9 12 14 16 20 rings
6 8 10 13 15 17 21 rings

> <PUBCHEM_HEAVY_ATOM_COUNT>
33

> <PUBCHEM_ATOM_DEF_STEREO_COUNT>
0

> <PUBCHEM_ATOM_UDEF_STEREO_COUNT>
0

> <PUBCHEM_BOND_DEF_STEREO_COUNT>
0

> <PUBCHEM_BOND_UDEF_STEREO_COUNT>
0

> <PUBCHEM_ISOTOPIC_ATOM_COUNT>
0

> <PUBCHEM_COMPONENT_COUNT>
1

> <PUBCHEM_CACTVS_TAUTO_COUNT>
3

> <PUBCHEM_CONFORMER_ID>
004A808900000001

> <PUBCHEM_MMFF94_ENERGY>
116.0389

> <PUBCHEM_FEATURE_SELFOVERLAP>
55.879

> <PUBCHEM_SHAPE_FINGERPRINT>
10050765 1 18121781621963985629
102385 1 17904763280394634596
10319688 140 18338516314384880419
10721379 63 18196947581947467235
11135926 11 18408877452423058597
11488393 25 18190448368589017766
11578080 2 17242156964917949181
11719270 70 18408882940589519649
11763715 3 17255419119459031202
12522641 33 18411985767299405916
12597179 24 18187372046845190939
12788726 201 17252311306634174618
12977781 61 17823723939030352299
13150687 139 18202292411328890062
13540713 4 17825384077730762381
1361 2 18409452462423074642
13692114 37 18265610069174159363
13968360 50 18409448081118504797
14028597 1 17917997126894902016
140371 6 17263559903392511069
14118638 360 18342458107211317729
14150023 79 18409449176420016139
14866123 147 18122901190824919730
15815584 197 18266202628421018535
15927050 60 18341328981177569431
16728300 4 17534032243907157296
18681886 176 18265047110246279225
19311894 1 17336453616158163119
20028762 73 18339924925949892437
20197701 30 18271809080923162420
20554085 129 18130496500916116808
20567600 347 18335708247074722212
20600515 1 17119727276655762835
21033648 29 18199175373058317312
21133665 82 18340773724053088828
21796203 349 17402654794580277635
22311459 1 18409732872554708405
22956985 138 18045497513449088578
23559900 14 18122613956565629289
3383291 50 18266175218340714354
3411729 13 18411419479929503023
3418910 222 17617095803659361946
38695281 34 18343303690684919151
4017518 198 18339934787949204190
5265222 85 18265340696930433692
5385378 56 18410580552726490529
59755656 215 18408888421342667157
6669772 16 18413672409673223230
6679774 75 18261936506516263434
9658208 31 18126561452201586592

> <PUBCHEM_SHAPE_MULTIPOLES>
645.69
15.75
6.65
1.33
17.86
13.09
-0.33
-15.7
0.53
-8.65
0.75
-1.28
0.81
0

> <PUBCHEM_SHAPE_SELFOVERLAP>
1394.949

> <PUBCHEM_SHAPE_VOLUME>
354.8

> <PUBCHEM_COORDINATE_TYPE>
2
5
10

$$$$
