2156570
  -OEChem-01171809353D

 66 70  0     0  0  0  0  0  0999 V2000
    4.4784    0.9317    1.1461 S   0  0  0  0  0  0  0  0  0  0  0  0
   -3.5414    1.0713   -2.3814 S   0  0  0  0  0  0  0  0  0  0  0  0
    6.9862   -2.4728   -0.3927 O   0  0  0  0  0  0  0  0  0  0  0  0
    4.7707    2.1695    0.4551 O   0  0  0  0  0  0  0  0  0  0  0  0
    4.2801    0.9072    2.5796 O   0  0  0  0  0  0  0  0  0  0  0  0
   -0.8087   -2.6047   -1.0438 O   0  0  0  0  0  0  0  0  0  0  0  0
    5.6599   -0.2348    0.7280 N   0  0  0  0  0  0  0  0  0  0  0  0
   -2.3500    1.2102    1.3751 N   0  0  0  0  0  0  0  0  0  0  0  0
   -0.9808   -0.7748   -2.4575 N   0  0  0  0  0  0  0  0  0  0  0  0
    5.4054   -1.6163    1.2316 C   0  0  0  0  0  0  0  0  0  0  0  0
    6.0635   -0.2546   -0.7085 C   0  0  0  0  0  0  0  0  0  0  0  0
    6.6508   -2.4596    0.9966 C   0  0  0  0  0  0  0  0  0  0  0  0
    7.2810   -1.1554   -0.8621 C   0  0  0  0  0  0  0  0  0  0  0  0
    3.0546    0.2140    0.3883 C   0  0  0  0  0  0  0  0  0  0  0  0
   -3.2206    0.7956    0.4033 C   0  0  0  0  0  0  0  0  0  0  0  0
    2.7284    0.5364   -0.9291 C   0  0  0  0  0  0  0  0  0  0  0  0
    2.2550   -0.6746    1.1072 C   0  0  0  0  0  0  0  0  0  0  0  0
   -2.7845    1.3011   -0.7997 C   0  0  0  0  0  0  0  0  0  0  0  0
   -1.6021    2.0527   -0.5505 C   0  0  0  0  0  0  0  0  0  0  0  0
   -1.3516    1.9796    0.8215 C   0  0  0  0  0  0  0  0  0  0  0  0
    0.8031   -0.9180   -0.8085 C   0  0  0  0  0  0  0  0  0  0  0  0
    1.6028   -0.0295   -1.5274 C   0  0  0  0  0  0  0  0  0  0  0  0
    1.1294   -1.2406    0.5088 C   0  0  0  0  0  0  0  0  0  0  0  0
   -4.3625   -0.0296    0.7275 C   0  0  0  0  0  0  0  0  0  0  0  0
   -3.4558   -0.7414   -2.5010 C   0  0  0  0  0  0  0  0  0  0  0  0
   -0.7183    2.7904   -1.3629 C   0  0  0  0  0  0  0  0  0  0  0  0
   -2.1662   -1.2148   -3.1576 C   0  0  0  0  0  0  0  0  0  0  0  0
   -0.2571    2.6099    1.4240 C   0  0  0  0  0  0  0  0  0  0  0  0
   -0.3706   -1.5074   -1.4326 C   0  0  0  0  0  0  0  0  0  0  0  0
   -5.6523    0.4252    0.4533 C   0  0  0  0  0  0  0  0  0  0  0  0
   -4.1744   -1.2811    1.3141 C   0  0  0  0  0  0  0  0  0  0  0  0
    0.3809    3.4260   -0.7740 C   0  0  0  0  0  0  0  0  0  0  0  0
    0.6059    3.3359    0.5982 C   0  0  0  0  0  0  0  0  0  0  0  0
   -6.5657   -1.6228    1.3523 C   0  0  0  0  0  0  0  0  0  0  0  0
   -6.7539   -0.3712    0.7656 C   0  0  0  0  0  0  0  0  0  0  0  0
   -5.2759   -2.0777    1.6265 C   0  0  0  0  0  0  0  0  0  0  0  0
   -7.7434   -2.4746    1.6863 C   0  0  0  0  0  0  0  0  0  0  0  0
    4.5749   -2.0688    0.6813 H   0  0  0  0  0  0  0  0  0  0  0  0
    5.1752   -1.5998    2.3009 H   0  0  0  0  0  0  0  0  0  0  0  0
    6.3181    0.7523   -1.0513 H   0  0  0  0  0  0  0  0  0  0  0  0
    5.2456   -0.6515   -1.3179 H   0  0  0  0  0  0  0  0  0  0  0  0
    7.5053   -2.0845    1.5726 H   0  0  0  0  0  0  0  0  0  0  0  0
    6.4674   -3.4933    1.3060 H   0  0  0  0  0  0  0  0  0  0  0  0
    8.1455   -0.7605   -0.3150 H   0  0  0  0  0  0  0  0  0  0  0  0
    7.5600   -1.2315   -1.9177 H   0  0  0  0  0  0  0  0  0  0  0  0
    3.3412    1.2197   -1.5101 H   0  0  0  0  0  0  0  0  0  0  0  0
    2.4888   -0.9396    2.1343 H   0  0  0  0  0  0  0  0  0  0  0  0
   -2.4237    0.9882    2.3588 H   0  0  0  0  0  0  0  0  0  0  0  0
    1.4040    0.2248   -2.5642 H   0  0  0  0  0  0  0  0  0  0  0  0
    0.5158   -1.9260    1.0878 H   0  0  0  0  0  0  0  0  0  0  0  0
   -3.5762   -1.2251   -1.5309 H   0  0  0  0  0  0  0  0  0  0  0  0
   -4.3019   -1.0649   -3.1169 H   0  0  0  0  0  0  0  0  0  0  0  0
   -0.8746    2.8712   -2.4348 H   0  0  0  0  0  0  0  0  0  0  0  0
   -2.1626   -2.3092   -3.2091 H   0  0  0  0  0  0  0  0  0  0  0  0
   -2.0933   -0.8385   -4.1842 H   0  0  0  0  0  0  0  0  0  0  0  0
   -0.0796    2.5383    2.4917 H   0  0  0  0  0  0  0  0  0  0  0  0
   -0.6285    0.1421   -2.7088 H   0  0  0  0  0  0  0  0  0  0  0  0
   -5.8214    1.4011    0.0047 H   0  0  0  0  0  0  0  0  0  0  0  0
   -3.1762   -1.6549    1.5299 H   0  0  0  0  0  0  0  0  0  0  0  0
    1.0676    3.9941   -1.3959 H   0  0  0  0  0  0  0  0  0  0  0  0
    1.4678    3.8346    1.0342 H   0  0  0  0  0  0  0  0  0  0  0  0
   -7.7538   -0.0059    0.5472 H   0  0  0  0  0  0  0  0  0  0  0  0
   -5.1162   -3.0521    2.0804 H   0  0  0  0  0  0  0  0  0  0  0  0
   -8.6182   -1.8619    1.9294 H   0  0  0  0  0  0  0  0  0  0  0  0
   -7.5409   -3.1040    2.5595 H   0  0  0  0  0  0  0  0  0  0  0  0
   -7.9923   -3.1205    0.8385 H   0  0  0  0  0  0  0  0  0  0  0  0
  1  4  2  0  0  0  0
  1  5  2  0  0  0  0
  1  7  1  0  0  0  0
  1 14  1  0  0  0  0
  2 18  1  0  0  0  0
  2 25  1  0  0  0  0
  3 12  1  0  0  0  0
  3 13  1  0  0  0  0
  6 29  2  0  0  0  0
  7 10  1  0  0  0  0
  7 11  1  0  0  0  0
  8 15  1  0  0  0  0
  8 20  1  0  0  0  0
  8 48  1  0  0  0  0
  9 27  1  0  0  0  0
  9 29  1  0  0  0  0
  9 57  1  0  0  0  0
 10 12  1  0  0  0  0
 10 38  1  0  0  0  0
 10 39  1  0  0  0  0
 11 13  1  0  0  0  0
 11 40  1  0  0  0  0
 11 41  1  0  0  0  0
 12 42  1  0  0  0  0
 12 43  1  0  0  0  0
 13 44  1  0  0  0  0
 13 45  1  0  0  0  0
 14 16  2  0  0  0  0
 14 17  1  0  0  0  0
 15 18  2  0  0  0  0
 15 24  1  0  0  0  0
 16 22  1  0  0  0  0
 16 46  1  0  0  0  0
 17 23  2  0  0  0  0
 17 47  1  0  0  0  0
 18 19  1  0  0  0  0
 19 20  1  0  0  0  0
 19 26  2  0  0  0  0
 20 28  2  0  0  0  0
 21 22  2  0  0  0  0
 21 23  1  0  0  0  0
 21 29  1  0  0  0  0
 22 49  1  0  0  0  0
 23 50  1  0  0  0  0
 24 30  2  0  0  0  0
 24 31  1  0  0  0  0
 25 27  1  0  0  0  0
 25 51  1  0  0  0  0
 25 52  1  0  0  0  0
 26 32  1  0  0  0  0
 26 53  1  0  0  0  0
 27 54  1  0  0  0  0
 27 55  1  0  0  0  0
 28 33  1  0  0  0  0
 28 56  1  0  0  0  0
 30 35  1  0  0  0  0
 30 58  1  0  0  0  0
 31 36  2  0  0  0  0
 31 59  1  0  0  0  0
 32 33  2  0  0  0  0
 32 60  1  0  0  0  0
 33 61  1  0  0  0  0
 34 35  2  0  0  0  0
 34 36  1  0  0  0  0
 34 37  1  0  0  0  0
 35 62  1  0  0  0  0
 36 63  1  0  0  0  0
 37 64  1  0  0  0  0
 37 65  1  0  0  0  0
 37 66  1  0  0  0  0
M  END
> <PUBCHEM_COMPOUND_CID>
2156570

> <PUBCHEM_CONFORMER_RMSD>
1.2

> <PUBCHEM_CONFORMER_DIVERSEORDER>
2
9
174
92
130
135
78
102
140
77
94
70
56
180
132
125
123
121
152
170
52
151
142
62
13
89
84
115
122
110
25
117
183
16
163
15
107
75
134
146
162
129
169
93
103
127
72
111
156
145
176
41
22
82
4
37
118
58
119
114
33
161
173
19
66
90
38
97
109
157
124
63
67
128
44
65
73
164
98
3
168
55
150
86
120
68
160
139
28
53
171
154
17
81
136
61
32
91
175
137
20
179
116
1
57
182
59
131
87
80
27
30
172
8
100
166
35
7
46
113
101
79
74
177
71
50
54
148
85
104
106
45
23
143
155
126
12
159
184
39
153
165
99
49
42
69
60
158
95
29
178
144
21
48
5
51
36
147
133
83
11
181
64
108
6
10
26
138
40
18
167
149
34
112
14
105
43
76
31
24
141
88
47
96

> <PUBCHEM_MMFF94_PARTIAL_CHARGES>
50
1 1.45
10 0.36
11 0.36
12 0.28
13 0.28
14 -0.01
15 -0.2
16 -0.15
17 -0.15
18 0.05
2 -0.28
20 -0.15
21 0.09
22 -0.15
23 -0.15
24 0.05
25 0.23
26 -0.15
27 0.3
28 -0.15
29 0.54
3 -0.56
30 -0.15
31 -0.15
32 -0.15
33 -0.15
34 -0.14
35 -0.15
36 -0.15
37 0.14
4 -0.65
46 0.15
47 0.15
48 0.27
49 0.15
5 -0.65
50 0.15
53 0.15
56 0.15
57 0.37
58 0.15
59 0.15
6 -0.57
60 0.15
61 0.15
62 0.15
63 0.15
7 -0.85
8 0.03
9 -0.73

> <PUBCHEM_EFFECTIVE_ROTOR_COUNT>
10.2

> <PUBCHEM_PHARMACOPHORE_FEATURES>
12
1 3 acceptor
1 4 acceptor
1 5 acceptor
1 6 acceptor
1 8 cation
1 8 donor
1 9 donor
5 8 15 18 19 20 rings
6 14 16 17 21 22 23 rings
6 19 20 26 28 32 33 rings
6 24 30 31 34 35 36 rings
6 3 7 10 11 12 13 rings

> <PUBCHEM_HEAVY_ATOM_COUNT>
37

> <PUBCHEM_ATOM_DEF_STEREO_COUNT>
0

> <PUBCHEM_ATOM_UDEF_STEREO_COUNT>
0

> <PUBCHEM_BOND_DEF_STEREO_COUNT>
0

> <PUBCHEM_BOND_UDEF_STEREO_COUNT>
0

> <PUBCHEM_ISOTOPIC_ATOM_COUNT>
0

> <PUBCHEM_COMPONENT_COUNT>
1

> <PUBCHEM_CACTVS_TAUTO_COUNT>
2

> <PUBCHEM_CONFORMER_ID>
0020E81A00000002

> <PUBCHEM_MMFF94_ENERGY>
74.4386

> <PUBCHEM_FEATURE_SELFOVERLAP>
61.008

> <PUBCHEM_SHAPE_FINGERPRINT>
10032420 55 17385713708244935481
10190108 129 18341621395040239890
10675989 125 9439140749052364352
117089 54 18052262796080046946
12166972 35 17894919533379586588
12422481 6 18131068281179782253
12633257 1 16988554727913993760
131258 38 17974569401041101326
13782708 43 17385438847565066795
13811026 1 18334571352178482009
13947930 73 18189350115799038843
14040221 299 18335434494914362387
14040221 8 17531247241447364421
14068700 675 17749394745442339132
14840074 17 18202279242954320269
14955137 171 18342742952550341793
15183329 4 17988070116136437814
16090146 7 17059763538436866527
20715895 44 10231752284831412240
22223350 30 17773301547040345354
3633792 109 8214152845212884186
3680242 22 18059570338565907380
392239 28 17346594188145083233
4173938 306 11025804253705031006
469060 322 18268413781033421647
504579 68 11458426800547415522
563151 248 16917068875727619735
5776283 40 9655570786854633115
6081469 158 18113617881128667155
9896288 288 17487068751630409952

> <PUBCHEM_SHAPE_MULTIPOLES>
730.72
17.7
3.36
2.43
7.46
1.48
-1.44
-15.71
7.07
-0.11
0.65
-1.65
-0.34
1.91

> <PUBCHEM_SHAPE_SELFOVERLAP>
1562.038

> <PUBCHEM_SHAPE_VOLUME>
407.9

> <PUBCHEM_COORDINATE_TYPE>
2
5
10

$$$$
