944493
  -OEChem-01171809593D

 38 40  0     0  0  0  0  0  0999 V2000
    4.0911    3.2095    0.3262 Cl  0  0  0  0  0  0  0  0  0  0  0  0
   -0.9498    2.2028   -2.8770 O   0  0  0  0  0  0  0  0  0  0  0  0
    4.0260    0.3348    0.9300 O   0  0  0  0  0  0  0  0  0  0  0  0
    1.6556    0.1340    0.8563 N   0  0  0  0  0  0  0  0  0  0  0  0
   -2.5486    1.1496   -1.6037 N   0  0  0  0  0  0  0  0  0  0  0  0
   -0.5912    0.7903    0.3876 C   0  0  0  0  0  0  0  0  0  0  0  0
    0.4428    0.5928    1.4579 C   0  0  0  0  0  0  0  0  0  0  0  0
   -1.9681    0.2949    0.5969 C   0  0  0  0  0  0  0  0  0  0  0  0
   -2.9175    0.4921   -0.4180 C   0  0  0  0  0  0  0  0  0  0  0  0
   -0.2825    1.4132   -0.7615 C   0  0  0  0  0  0  0  0  0  0  0  0
    1.6259   -1.1315    0.1119 C   0  0  0  0  0  0  0  0  0  0  0  0
   -2.3761   -0.3660    1.7648 C   0  0  0  0  0  0  0  0  0  0  0  0
   -1.2793    1.6268   -1.8425 C   0  0  0  0  0  0  0  0  0  0  0  0
   -4.2351    0.0449   -0.2750 C   0  0  0  0  0  0  0  0  0  0  0  0
    2.9029    0.8440    0.9402 C   0  0  0  0  0  0  0  0  0  0  0  0
   -3.6924   -0.8143    1.9100 C   0  0  0  0  0  0  0  0  0  0  0  0
   -4.6202   -0.6093    0.8921 C   0  0  0  0  0  0  0  0  0  0  0  0
    2.4949   -1.2660   -0.9255 C   0  0  0  0  0  0  0  0  0  0  0  0
    0.7321   -2.0731    0.5164 C   0  0  0  0  0  0  0  0  0  0  0  0
    2.7460    2.3463    1.1010 C   0  0  0  0  0  0  0  0  0  0  0  0
    2.4671   -2.4681   -1.6324 C   0  0  0  0  0  0  0  0  0  0  0  0
    0.7044   -3.2753   -0.1906 C   0  0  0  0  0  0  0  0  0  0  0  0
    1.5720   -3.4726   -1.2650 C   0  0  0  0  0  0  0  0  0  0  0  0
    0.1921   -0.1100    2.2522 H   0  0  0  0  0  0  0  0  0  0  0  0
    0.5846    1.5392    1.9904 H   0  0  0  0  0  0  0  0  0  0  0  0
    0.7082    1.7954   -0.9767 H   0  0  0  0  0  0  0  0  0  0  0  0
   -1.7111   -0.5453    2.6019 H   0  0  0  0  0  0  0  0  0  0  0  0
   -3.2581    1.2772   -2.3199 H   0  0  0  0  0  0  0  0  0  0  0  0
   -4.9653    0.2011   -1.0647 H   0  0  0  0  0  0  0  0  0  0  0  0
   -3.9933   -1.3216    2.8223 H   0  0  0  0  0  0  0  0  0  0  0  0
   -5.6419   -0.9581    1.0088 H   0  0  0  0  0  0  0  0  0  0  0  0
    3.1730   -0.4893   -1.2595 H   0  0  0  0  0  0  0  0  0  0  0  0
    0.0716   -1.9826    1.3676 H   0  0  0  0  0  0  0  0  0  0  0  0
    1.8364    2.7347    0.6478 H   0  0  0  0  0  0  0  0  0  0  0  0
    2.7540    2.5913    2.1668 H   0  0  0  0  0  0  0  0  0  0  0  0
    3.1361   -2.6189   -2.4747 H   0  0  0  0  0  0  0  0  0  0  0  0
    0.0138   -4.0615    0.1006 H   0  0  0  0  0  0  0  0  0  0  0  0
    1.5503   -4.4086   -1.8154 H   0  0  0  0  0  0  0  0  0  0  0  0
  1 20  1  0  0  0  0
  2 13  2  0  0  0  0
  3 15  2  0  0  0  0
  4  7  1  0  0  0  0
  4 11  1  0  0  0  0
  4 15  1  0  0  0  0
  5  9  1  0  0  0  0
  5 13  1  0  0  0  0
  5 28  1  0  0  0  0
  6  7  1  0  0  0  0
  6  8  1  0  0  0  0
  6 10  2  0  0  0  0
  7 24  1  0  0  0  0
  7 25  1  0  0  0  0
  8  9  1  0  0  0  0
  8 12  2  0  0  0  0
  9 14  2  0  0  0  0
 10 13  1  0  0  0  0
 10 26  1  0  0  0  0
 11 18  2  0  0  0  0
 11 19  1  0  0  0  0
 12 16  1  0  0  0  0
 12 27  1  0  0  0  0
 14 17  1  0  0  0  0
 14 29  1  0  0  0  0
 15 20  1  0  0  0  0
 16 17  2  0  0  0  0
 16 30  1  0  0  0  0
 17 31  1  0  0  0  0
 18 21  1  0  0  0  0
 18 32  1  0  0  0  0
 19 22  2  0  0  0  0
 19 33  1  0  0  0  0
 20 34  1  0  0  0  0
 20 35  1  0  0  0  0
 21 23  2  0  0  0  0
 21 36  1  0  0  0  0
 22 23  1  0  0  0  0
 22 37  1  0  0  0  0
 23 38  1  0  0  0  0
M  END
> <PUBCHEM_COMPOUND_CID>
944493

> <PUBCHEM_CONFORMER_RMSD>
0.8

> <PUBCHEM_CONFORMER_DIVERSEORDER>
1
36
13
43
27
25
33
47
37
4
5
7
42
24
19
44
38
54
21
8
3
58
51
35
50
52
41
49
11
57
14
56
15
28
55
16
39
48
12
26
40
20
18
61
53
32
31
9
46
6
29
2
10
34
59
23
60
22
45
17
30

> <PUBCHEM_MMFF94_PARTIAL_CHARGES>
34
1 -0.29
10 -0.14
11 0.12
12 -0.15
13 0.62
14 -0.15
15 0.57
16 -0.15
17 -0.15
18 -0.15
19 -0.15
2 -0.57
20 0.35
21 -0.15
22 -0.15
23 -0.15
26 0.15
27 0.15
28 0.37
29 0.15
3 -0.57
30 0.15
31 0.15
32 0.15
33 0.15
36 0.15
37 0.15
38 0.15
4 -0.48
5 -0.55
6 -0.17
7 0.44
8 0.03
9 0.12

> <PUBCHEM_EFFECTIVE_ROTOR_COUNT>
5

> <PUBCHEM_PHARMACOPHORE_FEATURES>
6
1 2 acceptor
1 3 acceptor
1 5 donor
6 11 18 19 21 22 23 rings
6 5 6 8 9 10 13 rings
6 8 9 12 14 16 17 rings

> <PUBCHEM_HEAVY_ATOM_COUNT>
23

> <PUBCHEM_ATOM_DEF_STEREO_COUNT>
0

> <PUBCHEM_ATOM_UDEF_STEREO_COUNT>
0

> <PUBCHEM_BOND_DEF_STEREO_COUNT>
0

> <PUBCHEM_BOND_UDEF_STEREO_COUNT>
0

> <PUBCHEM_ISOTOPIC_ATOM_COUNT>
0

> <PUBCHEM_COMPONENT_COUNT>
1

> <PUBCHEM_CACTVS_TAUTO_COUNT>
2

> <PUBCHEM_CONFORMER_ID>
000E696D00000001

> <PUBCHEM_MMFF94_ENERGY>
90.7599

> <PUBCHEM_FEATURE_SELFOVERLAP>
30.471

> <PUBCHEM_SHAPE_FINGERPRINT>
10165383 225 18197788901912143776
10871710 139 16963234332774243772
10906281 52 17821730559415398461
11578080 2 18266470797394322133
11582403 64 16313502906810364132
12035758 1 18343299271986712562
12156800 1 17549570825091957542
12553582 1 17479463339332579258
12788726 201 16540172438892853062
13533116 47 17846500323306735267
13583140 156 17823391887019195704
14863182 85 18052843586862755707
15664445 248 17677067771255988597
17138139 8 16912529112781838863
17492 54 17758924371438853126
17876694 64 14129325261376957125
17980427 23 14707200028736184996
1813 80 17677351454310008897
18915476 22 18341603794153017133
192875 21 13117994492018466525
204376 136 18270962482781744672
20600515 1 17168145693199251873
20645477 70 18129651998892707855
21731516 1 17414431684641182038
22182313 1 18113618954996740831
2260408 40 18119562979386652875
23557571 272 17749107751543442477
23559900 14 17531241704263841218
23566358 27 17988934357133102230
238 59 18052502574663811694
3729539 64 18197242329269837580
4340502 62 18130508643010175795
458136 41 18272658986421357938
57527293 21 18042405901040841834
57527585 21 18263060228210223949
59755656 520 17916019260701912600
621550 34 18408319995236981729
6287921 2 18338534017796508301
633830 44 17273984712400942264
6669772 16 18340488967679269510
81228 2 17604718733780874873
8272917 22 18131077017333147225
84936 31 18343308080004371581
9925002 15 17254558716838387220

> <PUBCHEM_SHAPE_MULTIPOLES>
453.5
7.19
3.57
2
3.24
2.11
-0.95
-2.37
2.1
-4.74
-1.29
1.01
-0.72
2.15

> <PUBCHEM_SHAPE_SELFOVERLAP>
978.885

> <PUBCHEM_SHAPE_VOLUME>
248.5

> <PUBCHEM_COORDINATE_TYPE>
2
5
10

$$$$
