838555
  -OEChem-01171809223D

 34 36  0     0  0  0  0  0  0999 V2000
    1.9396    1.6040   -0.1385 S   0  0  0  0  0  0  0  0  0  0  0  0
   -3.2303    0.5470    0.8663 S   0  0  0  0  0  0  0  0  0  0  0  0
   -0.6955    2.3069   -0.4836 O   0  0  0  0  0  0  0  0  0  0  0  0
   -0.1299    0.0161   -0.4394 N   0  0  0  0  0  0  0  0  0  0  0  0
    1.5268   -3.4701   -0.2302 N   0  0  0  0  0  0  0  0  0  0  0  0
   -5.7963   -0.1541    1.2909 N   0  0  0  0  0  0  0  0  0  0  0  0
   -5.2793   -0.0913   -0.8315 N   0  0  0  0  0  0  0  0  0  0  0  0
   -6.9429   -0.4980    0.6851 N   0  0  0  0  0  0  0  0  0  0  0  0
    5.9903   -0.4105    0.0323 C   0  0  0  0  0  0  0  0  0  0  0  0
    5.8893    0.9429    0.7511 C   0  0  0  0  0  0  0  0  0  0  0  0
    4.7255   -1.2580    0.2410 C   0  0  0  0  0  0  0  0  0  0  0  0
    4.7122    1.7809    0.2269 C   0  0  0  0  0  0  0  0  0  0  0  0
    3.4788   -0.4498    0.0558 C   0  0  0  0  0  0  0  0  0  0  0  0
    3.4889    0.9321    0.0751 C   0  0  0  0  0  0  0  0  0  0  0  0
    2.1580   -0.9569   -0.1316 C   0  0  0  0  0  0  0  0  0  0  0  0
    1.2261    0.0514   -0.2520 C   0  0  0  0  0  0  0  0  0  0  0  0
    1.8097   -2.3438   -0.1861 C   0  0  0  0  0  0  0  0  0  0  0  0
   -0.9963    1.1180   -0.5501 C   0  0  0  0  0  0  0  0  0  0  0  0
   -2.4391    0.7065   -0.7525 C   0  0  0  0  0  0  0  0  0  0  0  0
   -4.8586    0.0723    0.3686 C   0  0  0  0  0  0  0  0  0  0  0  0
   -6.5772   -0.4456   -0.5975 C   0  0  0  0  0  0  0  0  0  0  0  0
    6.8644   -0.9631    0.3948 H   0  0  0  0  0  0  0  0  0  0  0  0
    6.1431   -0.2358   -1.0405 H   0  0  0  0  0  0  0  0  0  0  0  0
    6.8218    1.5047    0.6254 H   0  0  0  0  0  0  0  0  0  0  0  0
    5.7641    0.7675    1.8274 H   0  0  0  0  0  0  0  0  0  0  0  0
    4.7284   -1.6670    1.2590 H   0  0  0  0  0  0  0  0  0  0  0  0
    4.7437   -2.1057   -0.4533 H   0  0  0  0  0  0  0  0  0  0  0  0
    4.9752    2.2016   -0.7516 H   0  0  0  0  0  0  0  0  0  0  0  0
    4.5294    2.6185    0.9096 H   0  0  0  0  0  0  0  0  0  0  0  0
   -0.5383   -0.9131   -0.5014 H   0  0  0  0  0  0  0  0  0  0  0  0
   -2.9395    1.4750   -1.3508 H   0  0  0  0  0  0  0  0  0  0  0  0
   -2.4899   -0.2406   -1.2995 H   0  0  0  0  0  0  0  0  0  0  0  0
   -5.7586   -0.1044    2.3026 H   0  0  0  0  0  0  0  0  0  0  0  0
   -7.2788   -0.6722   -1.3866 H   0  0  0  0  0  0  0  0  0  0  0  0
  1 14  1  0  0  0  0
  1 16  1  0  0  0  0
  2 19  1  0  0  0  0
  2 20  1  0  0  0  0
  3 18  2  0  0  0  0
  4 16  1  0  0  0  0
  4 18  1  0  0  0  0
  4 30  1  0  0  0  0
  5 17  3  0  0  0  0
  6  8  1  0  0  0  0
  6 20  1  0  0  0  0
  6 33  1  0  0  0  0
  7 20  2  0  0  0  0
  7 21  1  0  0  0  0
  8 21  2  0  0  0  0
  9 10  1  0  0  0  0
  9 11  1  0  0  0  0
  9 22  1  0  0  0  0
  9 23  1  0  0  0  0
 10 12  1  0  0  0  0
 10 24  1  0  0  0  0
 10 25  1  0  0  0  0
 11 13  1  0  0  0  0
 11 26  1  0  0  0  0
 11 27  1  0  0  0  0
 12 14  1  0  0  0  0
 12 28  1  0  0  0  0
 12 29  1  0  0  0  0
 13 14  2  0  0  0  0
 13 15  1  0  0  0  0
 15 16  2  0  0  0  0
 15 17  1  0  0  0  0
 18 19  1  0  0  0  0
 19 31  1  0  0  0  0
 19 32  1  0  0  0  0
 21 34  1  0  0  0  0
M  END
> <PUBCHEM_COMPOUND_CID>
838555

> <PUBCHEM_CONFORMER_RMSD>
0.8

> <PUBCHEM_CONFORMER_DIVERSEORDER>
1
110
70
113
11
49
7
94
78
23
108
67
34
102
84
26
43
69
73
100
101
30
88
3
27
25
60
55
28
79
82
9
75
32
106
91
53
62
45
48
68
99
37
14
98
85
16
17
64
86
93
5
80
52
8
71
19
56
2
90
50
20
104
89
31
74
72
13
54
112
4
76
51
18
24
103
44
57
41
97
6
10
81
29
105
92
35
95
96
83
12
38
42
33
77
63
22
61
47
15
87
21
40
58
46
59
65
66
107
36
111
109
39

> <PUBCHEM_MMFF94_PARTIAL_CHARGES>
22
1 -0.08
11 0.18
12 0.18
13 -0.18
14 -0.14
15 0.02
16 0.1
17 0.54
18 0.57
19 0.29
2 -0.29
20 0.24
21 0.37
3 -0.57
30 0.37
33 0.27
34 0.15
4 -0.49
5 -0.56
6 0.3
7 -0.57
8 -0.71

> <PUBCHEM_EFFECTIVE_ROTOR_COUNT>
5.8

> <PUBCHEM_PHARMACOPHORE_FEATURES>
9
1 3 acceptor
1 4 donor
1 5 acceptor
1 6 donor
3 6 7 20 cation
3 7 8 21 cation
5 1 13 14 15 16 rings
5 6 7 8 20 21 rings
6 9 10 11 12 13 14 rings

> <PUBCHEM_HEAVY_ATOM_COUNT>
21

> <PUBCHEM_ATOM_DEF_STEREO_COUNT>
0

> <PUBCHEM_ATOM_UDEF_STEREO_COUNT>
0

> <PUBCHEM_BOND_DEF_STEREO_COUNT>
0

> <PUBCHEM_BOND_UDEF_STEREO_COUNT>
0

> <PUBCHEM_ISOTOPIC_ATOM_COUNT>
0

> <PUBCHEM_COMPONENT_COUNT>
1

> <PUBCHEM_CACTVS_TAUTO_COUNT>
9

> <PUBCHEM_CONFORMER_ID>
000CCB9B00000001

> <PUBCHEM_MMFF94_ENERGY>
29.3131

> <PUBCHEM_FEATURE_SELFOVERLAP>
48.577

> <PUBCHEM_SHAPE_FINGERPRINT>
10 15 18187357779739605192
10835480 77 18335129844552247989
11421498 54 17417816084784817082
11719270 70 18408600357611681298
11796584 16 15357702997766006392
11963148 33 18259699016842972490
12236239 1 17632859724117226385
12516196 113 18410856577389747793
12596602 18 17489873726246440827
12730499 353 18410856551714805038
12916748 109 15626230108663391104
13402501 40 18187367640377549987
13533116 47 18202284680029248930
13685833 64 18187088369135650561
1420 363 18187085052798470573
14251764 18 17988924509590347695
14341114 328 17704076187791791267
146900 427 18130784581288628312
14848160 23 17749107798925096433
14849402 71 17773873271770552904
14863182 85 18336275565347884030
14933364 13 10519987076188333441
15475509 35 16878485862417412936
17492 89 18122621652830830802
18222031 100 16660649535863106252
19489759 90 16225763009043645181
20028762 73 18273211989363157366
21065198 48 17988085491755146049
21197605 99 18339366382633455603
21267235 1 18412264996371970492
21315763 178 18202283594151245247
21521721 280 18343020034234145920
21623969 137 18407479964105905319
22079108 93 18130499812599457168
22224240 67 18342451582327151072
22956985 138 17607513632489208754
23557571 272 17096083584828618461
23559900 14 16805890696744574381
335352 9 18412547622684850742
33824 294 18408886213433843850
42630746 31 18342740711099230430
4340502 62 18413670223181272390
465052 167 17894347774674698144
474229 33 18408321094753877706
5104073 3 18266170639494198352
5283173 99 17604702266981887701
5486654 2 18411704322218531092
5758199 1 18201439216033431992
58260988 647 16772694117778630446
59682541 35 18336540612570559752
59755656 215 18113899338382280722

> <PUBCHEM_SHAPE_MULTIPOLES>
409.09
16.9
2.2
0.88
20.86
1.41
0.1
0.75
3.22
-2.52
-0.23
0.83
-0.08
0.32

> <PUBCHEM_SHAPE_SELFOVERLAP>
850.521

> <PUBCHEM_SHAPE_VOLUME>
233.6

> <PUBCHEM_COORDINATE_TYPE>
2
5
10

$$$$
