2732574
  -OEChem-01171809553D

 42 43  0     1  0  0  0  0  0999 V2000
   -1.3736   -1.5839   -1.4072 O   0  0  0  0  0  0  0  0  0  0  0  0
   -0.1245    0.4423    2.0446 O   0  0  0  0  0  0  0  0  0  0  0  0
    3.7660   -1.8632    1.0515 O   0  0  0  0  0  0  0  0  0  0  0  0
    1.6838    2.9110    0.2988 O   0  5  0  0  0  0  0  0  0  0  0  0
    0.6577    3.6369   -1.5109 O   0  0  0  0  0  0  0  0  0  0  0  0
    2.5049   -0.9643   -0.6782 N   0  0  0  0  0  0  0  0  0  0  0  0
    1.8460   -0.6974    1.5886 N   0  0  0  0  0  0  0  0  0  0  0  0
    0.6780    3.0519   -0.4157 N   0  3  0  0  0  0  0  0  0  0  0  0
    1.1958   -0.0249   -2.4796 N   0  0  0  0  0  0  0  0  0  0  0  0
   -0.7273    1.0609   -0.5402 C   0  0  1  0  0  0  0  0  0  0  0  0
    0.5080    0.2522   -0.2239 C   0  0  0  0  0  0  0  0  0  0  0  0
   -1.9794    0.3277   -0.0943 C   0  0  0  0  0  0  0  0  0  0  0  0
   -0.5880    2.4606    0.0614 C   0  0  0  0  0  0  0  0  0  0  0  0
    1.3898   -0.2361   -1.1286 C   0  0  0  0  0  0  0  0  0  0  0  0
    0.7034    0.0153    1.2392 C   0  0  0  0  0  0  0  0  0  0  0  0
   -2.2281   -0.9519   -0.5545 C   0  0  0  0  0  0  0  0  0  0  0  0
    2.7788   -1.2209    0.6758 C   0  0  0  0  0  0  0  0  0  0  0  0
   -2.8450    0.9716    0.7708 C   0  0  0  0  0  0  0  0  0  0  0  0
    3.4382   -1.4878   -1.6822 C   0  0  0  0  0  0  0  0  0  0  0  0
    2.0955   -0.9185    3.0105 C   0  0  0  0  0  0  0  0  0  0  0  0
   -3.3834   -1.6115   -0.1348 C   0  0  0  0  0  0  0  0  0  0  0  0
   -4.0003    0.3120    1.1904 C   0  0  0  0  0  0  0  0  0  0  0  0
   -4.2695   -0.9794    0.7376 C   0  0  0  0  0  0  0  0  0  0  0  0
   -1.7270   -2.9026   -1.8194 C   0  0  0  0  0  0  0  0  0  0  0  0
   -0.8584    1.2071   -1.6179 H   0  0  0  0  0  0  0  0  0  0  0  0
   -0.5661    2.5298    1.1529 H   0  0  0  0  0  0  0  0  0  0  0  0
   -1.3833    3.1294   -0.2926 H   0  0  0  0  0  0  0  0  0  0  0  0
   -2.6954    1.9734    1.1542 H   0  0  0  0  0  0  0  0  0  0  0  0
    4.2631   -2.0381   -1.2216 H   0  0  0  0  0  0  0  0  0  0  0  0
    3.8662   -0.6549   -2.2492 H   0  0  0  0  0  0  0  0  0  0  0  0
    2.9070   -2.1756   -2.3480 H   0  0  0  0  0  0  0  0  0  0  0  0
    3.1152   -0.5991    3.2482 H   0  0  0  0  0  0  0  0  0  0  0  0
    2.0174   -1.9921    3.2104 H   0  0  0  0  0  0  0  0  0  0  0  0
    1.3927   -0.3800    3.6506 H   0  0  0  0  0  0  0  0  0  0  0  0
    0.4011    0.4888   -2.8306 H   0  0  0  0  0  0  0  0  0  0  0  0
    1.8568   -0.3933   -3.1496 H   0  0  0  0  0  0  0  0  0  0  0  0
   -3.6583   -2.6139   -0.4440 H   0  0  0  0  0  0  0  0  0  0  0  0
   -4.6913    0.8036    1.8689 H   0  0  0  0  0  0  0  0  0  0  0  0
   -5.1695   -1.4918    1.0650 H   0  0  0  0  0  0  0  0  0  0  0  0
   -1.7509   -3.5973   -0.9729 H   0  0  0  0  0  0  0  0  0  0  0  0
   -0.9368   -3.2509   -2.4928 H   0  0  0  0  0  0  0  0  0  0  0  0
   -2.6596   -2.9103   -2.3936 H   0  0  0  0  0  0  0  0  0  0  0  0
  1 16  1  0  0  0  0
  1 24  1  0  0  0  0
  2 15  2  0  0  0  0
  3 17  2  0  0  0  0
  4  8  1  0  0  0  0
  5  8  2  0  0  0  0
  6 14  1  0  0  0  0
  6 17  1  0  0  0  0
  6 19  1  0  0  0  0
  7 15  1  0  0  0  0
  7 17  1  0  0  0  0
  7 20  1  0  0  0  0
  8 13  1  0  0  0  0
  9 14  1  0  0  0  0
  9 35  1  0  0  0  0
  9 36  1  0  0  0  0
 10 11  1  0  0  0  0
 10 12  1  0  0  0  0
 10 13  1  0  0  0  0
 10 25  1  0  0  0  0
 11 14  2  0  0  0  0
 11 15  1  0  0  0  0
 12 16  1  0  0  0  0
 12 18  2  0  0  0  0
 13 26  1  0  0  0  0
 13 27  1  0  0  0  0
 16 21  2  0  0  0  0
 18 22  1  0  0  0  0
 18 28  1  0  0  0  0
 19 29  1  0  0  0  0
 19 30  1  0  0  0  0
 19 31  1  0  0  0  0
 20 32  1  0  0  0  0
 20 33  1  0  0  0  0
 20 34  1  0  0  0  0
 21 23  1  0  0  0  0
 21 37  1  0  0  0  0
 22 23  2  0  0  0  0
 22 38  1  0  0  0  0
 23 39  1  0  0  0  0
 24 40  1  0  0  0  0
 24 41  1  0  0  0  0
 24 42  1  0  0  0  0
M  CHG  2   4  -1   8   1
M  END
> <PUBCHEM_COMPOUND_CID>
2732574

> <PUBCHEM_CONFORMER_RMSD>
0.8

> <PUBCHEM_CONFORMER_DIVERSEORDER>
3
17
15
18
24
2
5
4
19
13
12
21
10
22
20
23
9
1
8
14
16
7
11
6

> <PUBCHEM_MMFF94_PARTIAL_CHARGES>
30
1 -0.36
10 0.28
11 -0.12
12 -0.14
13 0.24
14 0.21
15 0.62
16 0.08
17 0.69
18 -0.15
19 0.3
2 -0.57
20 0.3
21 -0.15
22 -0.15
23 -0.15
24 0.28
28 0.15
3 -0.57
35 0.4
36 0.4
37 0.15
38 0.15
39 0.15
4 -0.52
5 -0.52
6 -0.47
7 -0.42
8 0.8
9 -0.9

> <PUBCHEM_EFFECTIVE_ROTOR_COUNT>
5

> <PUBCHEM_PHARMACOPHORE_FEATURES>
10
1 1 acceptor
1 2 acceptor
1 3 acceptor
1 4 acceptor
1 4 anion
1 5 acceptor
1 9 cation
1 9 donor
6 12 16 18 21 22 23 rings
6 6 7 11 14 15 17 rings

> <PUBCHEM_HEAVY_ATOM_COUNT>
24

> <PUBCHEM_ATOM_DEF_STEREO_COUNT>
0

> <PUBCHEM_ATOM_UDEF_STEREO_COUNT>
1

> <PUBCHEM_BOND_DEF_STEREO_COUNT>
0

> <PUBCHEM_BOND_UDEF_STEREO_COUNT>
0

> <PUBCHEM_ISOTOPIC_ATOM_COUNT>
0

> <PUBCHEM_COMPONENT_COUNT>
1

> <PUBCHEM_CACTVS_TAUTO_COUNT>
6

> <PUBCHEM_CONFORMER_ID>
0029B21E00000003

> <PUBCHEM_MMFF94_ENERGY>
83.5114

> <PUBCHEM_FEATURE_SELFOVERLAP>
50.826

> <PUBCHEM_SHAPE_FINGERPRINT>
11578080 2 17531787096391450972
11725454 13 13407939123073215454
12422481 6 18127382697377747832
12423570 1 13555468290379486437
12553582 1 18335986385015188423
12633257 1 17345736530426597842
12716301 132 17981596070547766993
12788726 201 17898871053372876328
13140716 1 18128559166239816065
133893 2 17901361692007172141
13583140 156 17968938729671451559
13911987 19 15142405393266047190
14787075 74 17967537908686601928
14817 1 15731235990135207684
16945 1 17917696998748084144
1813 80 18410858741483357874
18981168 100 11743005856911224477
20567600 347 17615131417574019604
20600515 1 18202563960203525704
21033648 29 17631441285861922193
21330990 113 17698458632324271001
21421861 104 17836363023240335727
21731516 1 18261945302112775651
22112679 90 18115881693296031329
23419403 2 16688438717202486231
23559900 14 17560533836267425252
23598288 3 17609196979688341595
2748010 2 17912938175490603255
465052 167 18262818345169955355
474 4 17828488303407587197
5845 1 12073636201358414913
7364860 26 18198350739162865613
81228 2 18051394198313668225
90316 7 18265054626417239781
9981440 41 16112899587150549385

> <PUBCHEM_SHAPE_MULTIPOLES>
444.64
5.92
3.08
2.23
2.43
2.18
-0.77
-3.52
-1.63
-0.41
1.72
-1.66
-0.57
-0.86

> <PUBCHEM_SHAPE_SELFOVERLAP>
950.984

> <PUBCHEM_SHAPE_VOLUME>
244.6

> <PUBCHEM_COORDINATE_TYPE>
2
5
10

$$$$
