53301442
  -OEChem-01171810213D

 70 74  0     1  0  0  0  0  0999 V2000
    6.1894    4.4532    1.4102 F   0  0  0  0  0  0  0  0  0  0  0  0
   -6.1999   -1.7436    1.2558 F   0  0  0  0  0  0  0  0  0  0  0  0
    3.1436    3.3231   -2.4020 O   0  0  0  0  0  0  0  0  0  0  0  0
    1.5365   -4.8346   -2.0237 O   0  0  0  0  0  0  0  0  0  0  0  0
   -8.0748    1.6640    0.0806 O   0  0  0  0  0  0  0  0  0  0  0  0
   -8.3587   -0.6203    0.0771 O   0  0  0  0  0  0  0  0  0  0  0  0
    2.2775    0.0186    0.0465 N   0  0  0  0  0  0  0  0  0  0  0  0
    2.9793    1.2363   -0.4438 C   0  0  1  0  0  0  0  0  0  0  0  0
    4.1403    1.5842    0.4811 C   0  0  0  0  0  0  0  0  0  0  0  0
    3.5169    0.9965   -1.8615 C   0  0  0  0  0  0  0  0  0  0  0  0
    3.0338   -1.0189    0.6240 C   0  0  0  0  0  0  0  0  0  0  0  0
    4.7592    0.5745    1.2443 C   0  0  0  0  0  0  0  0  0  0  0  0
    4.2432   -0.7977    1.1780 C   0  0  0  0  0  0  0  0  0  0  0  0
    0.8547    0.0691    0.0514 C   0  0  0  0  0  0  0  0  0  0  0  0
    4.6319    2.8951    0.5436 C   0  0  0  0  0  0  0  0  0  0  0  0
    2.5555   -2.4194    0.5286 C   0  0  0  0  0  0  0  0  0  0  0  0
    5.8618    0.8853    2.0474 C   0  0  0  0  0  0  0  0  0  0  0  0
    3.7833    2.2907   -2.5967 C   0  0  0  0  0  0  0  0  0  0  0  0
    0.1752    0.6999   -0.9907 C   0  0  0  0  0  0  0  0  0  0  0  0
    0.1403   -0.5127    1.0987 C   0  0  0  0  0  0  0  0  0  0  0  0
    5.7248    3.1980    1.3552 C   0  0  0  0  0  0  0  0  0  0  0  0
    6.3394    2.1951    2.1036 C   0  0  0  0  0  0  0  0  0  0  0  0
    2.2678   -2.9750   -0.7182 C   0  0  0  0  0  0  0  0  0  0  0  0
    2.3933   -3.1811    1.6859 C   0  0  0  0  0  0  0  0  0  0  0  0
   -1.2187    0.7486   -0.9857 C   0  0  0  0  0  0  0  0  0  0  0  0
   -1.2537   -0.4639    1.1037 C   0  0  0  0  0  0  0  0  0  0  0  0
   -1.9332    0.1666    0.0614 C   0  0  0  0  0  0  0  0  0  0  0  0
    4.9011    2.2486   -3.6062 C   0  0  0  0  0  0  0  0  0  0  0  0
    1.8178   -4.2923   -0.8074 C   0  0  0  0  0  0  0  0  0  0  0  0
    1.9433   -4.4982    1.5965 C   0  0  0  0  0  0  0  0  0  0  0  0
   -3.3791    0.2177    0.0671 C   0  0  0  0  0  0  0  0  0  0  0  0
    1.6553   -5.0539    0.3498 C   0  0  0  0  0  0  0  0  0  0  0  0
   -4.1118   -0.8044    0.6708 C   0  0  0  0  0  0  0  0  0  0  0  0
   -4.0406    1.2900   -0.5315 C   0  0  0  0  0  0  0  0  0  0  0  0
   -5.5057   -0.7540    0.6762 C   0  0  0  0  0  0  0  0  0  0  0  0
   -5.4345    1.3404   -0.5262 C   0  0  0  0  0  0  0  0  0  0  0  0
   -6.1670    0.3185    0.0776 C   0  0  0  0  0  0  0  0  0  0  0  0
    1.7248   -4.0001   -3.1657 C   0  0  0  0  0  0  0  0  0  0  0  0
   -7.6204    0.3735    0.0782 C   0  0  0  0  0  0  0  0  0  0  0  0
   -9.4944    1.8498    0.0817 C   0  0  0  0  0  0  0  0  0  0  0  0
   -9.7976    3.3329    0.0843 C   0  0  0  0  0  0  0  0  0  0  0  0
    2.2970    2.0958   -0.4082 H   0  0  0  0  0  0  0  0  0  0  0  0
    4.4410    0.4056   -1.8342 H   0  0  0  0  0  0  0  0  0  0  0  0
    2.8016    0.4348   -2.4734 H   0  0  0  0  0  0  0  0  0  0  0  0
    4.8534   -1.5926    1.5948 H   0  0  0  0  0  0  0  0  0  0  0  0
    4.1676    3.6934   -0.0270 H   0  0  0  0  0  0  0  0  0  0  0  0
    6.3543    0.1173    2.6389 H   0  0  0  0  0  0  0  0  0  0  0  0
    0.6924    1.1451   -1.8345 H   0  0  0  0  0  0  0  0  0  0  0  0
    0.6337   -0.9620    1.9546 H   0  0  0  0  0  0  0  0  0  0  0  0
    7.1929    2.4341    2.7313 H   0  0  0  0  0  0  0  0  0  0  0  0
    2.4167   -2.3445   -1.5891 H   0  0  0  0  0  0  0  0  0  0  0  0
    2.6061   -2.7652    2.6678 H   0  0  0  0  0  0  0  0  0  0  0  0
   -1.7054    1.2201   -1.8351 H   0  0  0  0  0  0  0  0  0  0  0  0
   -1.7662   -0.8943    1.9597 H   0  0  0  0  0  0  0  0  0  0  0  0
    4.6987    1.4690   -4.3449 H   0  0  0  0  0  0  0  0  0  0  0  0
    4.9694    3.2111   -4.1207 H   0  0  0  0  0  0  0  0  0  0  0  0
    5.8477    2.0515   -3.0969 H   0  0  0  0  0  0  0  0  0  0  0  0
    1.8153   -5.0908    2.4976 H   0  0  0  0  0  0  0  0  0  0  0  0
    1.3045   -6.0803    0.2866 H   0  0  0  0  0  0  0  0  0  0  0  0
   -3.6415   -1.6733    1.1229 H   0  0  0  0  0  0  0  0  0  0  0  0
   -3.5123    2.1222   -0.9888 H   0  0  0  0  0  0  0  0  0  0  0  0
   -5.9220    2.1852   -1.0059 H   0  0  0  0  0  0  0  0  0  0  0  0
    1.0568   -3.1322   -3.1450 H   0  0  0  0  0  0  0  0  0  0  0  0
    2.7751   -3.7140   -3.2867 H   0  0  0  0  0  0  0  0  0  0  0  0
    1.4519   -4.5914   -4.0460 H   0  0  0  0  0  0  0  0  0  0  0  0
   -9.9226    1.3845   -0.8129 H   0  0  0  0  0  0  0  0  0  0  0  0
   -9.9216    1.3814    0.9752 H   0  0  0  0  0  0  0  0  0  0  0  0
   -9.3591    3.8172   -0.7944 H   0  0  0  0  0  0  0  0  0  0  0  0
   -9.3588    3.8143    0.9645 H   0  0  0  0  0  0  0  0  0  0  0  0
  -10.8765    3.5116    0.0849 H   0  0  0  0  0  0  0  0  0  0  0  0
  1 21  1  0  0  0  0
  2 35  1  0  0  0  0
  3 18  2  0  0  0  0
  4 29  1  0  0  0  0
  4 38  1  0  0  0  0
  5 39  1  0  0  0  0
  5 40  1  0  0  0  0
  6 39  2  0  0  0  0
  7  8  1  0  0  0  0
  7 11  1  0  0  0  0
  7 14  1  0  0  0  0
  8  9  1  0  0  0  0
  8 10  1  0  0  0  0
  8 42  1  0  0  0  0
  9 12  2  0  0  0  0
  9 15  1  0  0  0  0
 10 18  1  0  0  0  0
 10 43  1  0  0  0  0
 10 44  1  0  0  0  0
 11 13  2  0  0  0  0
 11 16  1  0  0  0  0
 12 13  1  0  0  0  0
 12 17  1  0  0  0  0
 13 45  1  0  0  0  0
 14 19  2  0  0  0  0
 14 20  1  0  0  0  0
 15 21  2  0  0  0  0
 15 46  1  0  0  0  0
 16 23  2  0  0  0  0
 16 24  1  0  0  0  0
 17 22  2  0  0  0  0
 17 47  1  0  0  0  0
 18 28  1  0  0  0  0
 19 25  1  0  0  0  0
 19 48  1  0  0  0  0
 20 26  2  0  0  0  0
 20 49  1  0  0  0  0
 21 22  1  0  0  0  0
 22 50  1  0  0  0  0
 23 29  1  0  0  0  0
 23 51  1  0  0  0  0
 24 30  2  0  0  0  0
 24 52  1  0  0  0  0
 25 27  2  0  0  0  0
 25 53  1  0  0  0  0
 26 27  1  0  0  0  0
 26 54  1  0  0  0  0
 27 31  1  0  0  0  0
 28 55  1  0  0  0  0
 28 56  1  0  0  0  0
 28 57  1  0  0  0  0
 29 32  2  0  0  0  0
 30 32  1  0  0  0  0
 30 58  1  0  0  0  0
 31 33  2  0  0  0  0
 31 34  1  0  0  0  0
 32 59  1  0  0  0  0
 33 35  1  0  0  0  0
 33 60  1  0  0  0  0
 34 36  2  0  0  0  0
 34 61  1  0  0  0  0
 35 37  2  0  0  0  0
 36 37  1  0  0  0  0
 36 62  1  0  0  0  0
 37 39  1  0  0  0  0
 38 63  1  0  0  0  0
 38 64  1  0  0  0  0
 38 65  1  0  0  0  0
 40 41  1  0  0  0  0
 40 66  1  0  0  0  0
 40 67  1  0  0  0  0
 41 68  1  0  0  0  0
 41 69  1  0  0  0  0
 41 70  1  0  0  0  0
M  END
> <PUBCHEM_COMPOUND_CID>
53301442

> <PUBCHEM_CONFORMER_RMSD>
1

> <PUBCHEM_CONFORMER_DIVERSEORDER>
5
1
32
66
64
49
59
63
70
67
19
73
46
16
15
65
45
40
74
6
17
14
34
69
57
55
50
9
12
24
68
52
33
8
58
11
2
48
35
7
51
62
4
61
13
47
44
3
72
18
42
10
53
54
60
43
30
25
36
23
56
29
31
41
20
37
27
71
26
39
38
22
28
21

> <PUBCHEM_MMFF94_PARTIAL_CHARGES>
53
1 -0.19
10 0.06
11 0.07
12 0.03
13 -0.18
14 0.1
15 -0.15
16 0.03
17 -0.15
18 0.45
19 -0.15
2 -0.19
20 -0.15
21 0.19
22 -0.15
23 -0.15
24 -0.15
25 -0.15
26 -0.15
28 0.06
29 0.08
3 -0.57
30 -0.15
32 -0.15
33 -0.15
34 -0.15
35 0.19
36 -0.15
37 0.09
38 0.28
39 0.63
4 -0.36
40 0.28
45 0.15
46 0.15
47 0.15
48 0.15
49 0.15
5 -0.43
50 0.15
51 0.15
52 0.15
53 0.15
54 0.15
58 0.15
59 0.15
6 -0.57
60 0.15
61 0.15
62 0.15
7 -0.57
8 0.51
9 -0.14

> <PUBCHEM_EFFECTIVE_ROTOR_COUNT>
9.4

> <PUBCHEM_PHARMACOPHORE_FEATURES>
9
1 3 acceptor
1 4 acceptor
1 6 acceptor
1 7 cation
6 14 19 20 25 26 27 rings
6 16 23 24 29 30 32 rings
6 31 33 34 35 36 37 rings
6 7 8 9 11 12 13 rings
6 9 12 15 17 21 22 rings

> <PUBCHEM_HEAVY_ATOM_COUNT>
41

> <PUBCHEM_ATOM_DEF_STEREO_COUNT>
0

> <PUBCHEM_ATOM_UDEF_STEREO_COUNT>
1

> <PUBCHEM_BOND_DEF_STEREO_COUNT>
0

> <PUBCHEM_BOND_UDEF_STEREO_COUNT>
0

> <PUBCHEM_ISOTOPIC_ATOM_COUNT>
0

> <PUBCHEM_COMPONENT_COUNT>
1

> <PUBCHEM_CACTVS_TAUTO_COUNT>
3

> <PUBCHEM_CONFORMER_ID>
032D50C200000005

> <PUBCHEM_MMFF94_ENERGY>
148.7634

> <PUBCHEM_FEATURE_SELFOVERLAP>
45.698

> <PUBCHEM_SHAPE_FINGERPRINT>
10554248 39 18199741446259291781
10673678 19 18411981377246620243
10952577 141 18191593167439686020
11181472 205 17916027855279638201
11607047 141 17915190014243966671
11607047 191 18058714919432128064
11719270 70 18261392277675716698
12522641 68 17843966077689810452
12539765 74 18342742943949532949
14004853 49 18339367490465518750
14294032 229 18051699038302801058
14565420 104 18341040896029191666
14675020 138 18411134762326408368
15392192 104 17895209835083575265
15484559 13 18410583915580388478
15840311 113 18341608209379592112
19053607 189 18188214298695904817
19315958 150 18341049636994442507
19319366 153 18272922834836935770
1979834 28 18261108569664288612
21033648 29 18194665172704276104
21049683 271 18118121369509322818
21130935 74 18335421224177068099
22149856 69 18336563663707140057
23523787 8 17985861265721374702
23559900 14 18041569039822716270
23569914 2 16195903765205660352
27425 322 17916862560150048956
3178227 256 18338504258828445034
3411729 13 18412258424265522835
394071 54 18337677412756168299
4073 2 18335701668097812179
4093350 32 18340484478948030075
4874694 18 18335129900692589443
5109719 28 18340493373609314865
9658208 31 18195817490901487012
9831232 110 18192436269472047671

> <PUBCHEM_SHAPE_MULTIPOLES>
800.76
22.16
5.97
2.4
67.97
6.54
-2.18
-24.06
5.94
-9.36
-1.26
-5.61
-0.28
1.03

> <PUBCHEM_SHAPE_SELFOVERLAP>
1761.735

> <PUBCHEM_SHAPE_VOLUME>
432.6

> <PUBCHEM_COORDINATE_TYPE>
2
5
10

$$$$
