3903461
  -OEChem-01171809503D

 45 47  0     0  0  0  0  0  0999 V2000
   -4.8264   -0.9429   -0.9442 S   0  0  0  0  0  0  0  0  0  0  0  0
   -5.9792   -0.2089   -1.4513 O   0  0  0  0  0  0  0  0  0  0  0  0
   -4.1777   -1.9133   -1.8173 O   0  0  0  0  0  0  0  0  0  0  0  0
    3.7132   -1.6748    0.3242 O   0  0  0  0  0  0  0  0  0  0  0  0
    1.1493    2.2989    0.7473 O   0  0  0  0  0  0  0  0  0  0  0  0
    1.4621   -1.7456    0.7088 O   0  0  0  0  0  0  0  0  0  0  0  0
   -5.2672   -1.7255    0.5334 N   0  0  0  0  0  0  0  0  0  0  0  0
    0.0408    0.3616   -0.0036 N   0  0  0  0  0  0  0  0  0  0  0  0
   -3.6217    0.2216   -0.4386 C   0  0  0  0  0  0  0  0  0  0  0  0
   -3.9820    1.5136   -0.0559 C   0  0  0  0  0  0  0  0  0  0  0  0
   -2.2808   -0.1624   -0.4218 C   0  0  0  0  0  0  0  0  0  0  0  0
   -1.3206    0.7515   -0.0224 C   0  0  0  0  0  0  0  0  0  0  0  0
   -3.0014    2.4216    0.3437 C   0  0  0  0  0  0  0  0  0  0  0  0
   -1.6605    2.0377    0.3607 C   0  0  0  0  0  0  0  0  0  0  0  0
   -5.4081    1.9573   -0.0628 C   0  0  0  0  0  0  0  0  0  0  0  0
   -4.1977   -2.4323    1.2830 C   0  0  0  0  0  0  0  0  0  0  0  0
   -6.1994   -1.0077    1.4396 C   0  0  0  0  0  0  0  0  0  0  0  0
    2.3965    0.3848    0.2584 C   0  0  0  0  0  0  0  0  0  0  0  0
    1.1365    1.1301    0.3646 C   0  0  0  0  0  0  0  0  0  0  0  0
    4.7835    0.4559   -0.1499 C   0  0  0  0  0  0  0  0  0  0  0  0
    3.4880    1.1057   -0.0238 C   0  0  0  0  0  0  0  0  0  0  0  0
    4.8656   -0.9214    0.0272 C   0  0  0  0  0  0  0  0  0  0  0  0
    2.4602   -1.0815    0.4510 C   0  0  0  0  0  0  0  0  0  0  0  0
    5.9487    1.1686   -0.4428 C   0  0  0  0  0  0  0  0  0  0  0  0
    6.0755   -1.6042   -0.0804 C   0  0  0  0  0  0  0  0  0  0  0  0
    7.1699    0.4975   -0.5538 C   0  0  0  0  0  0  0  0  0  0  0  0
    7.2327   -0.8860   -0.3732 C   0  0  0  0  0  0  0  0  0  0  0  0
   -1.9849   -1.1669   -0.7115 H   0  0  0  0  0  0  0  0  0  0  0  0
   -3.2643    3.4328    0.6435 H   0  0  0  0  0  0  0  0  0  0  0  0
   -0.9604    2.7949    0.6811 H   0  0  0  0  0  0  0  0  0  0  0  0
   -5.4994    2.9302    0.4383 H   0  0  0  0  0  0  0  0  0  0  0  0
   -5.7586    2.1283   -1.0856 H   0  0  0  0  0  0  0  0  0  0  0  0
   -6.0854    1.3114    0.4845 H   0  0  0  0  0  0  0  0  0  0  0  0
    0.2033   -0.5913   -0.3198 H   0  0  0  0  0  0  0  0  0  0  0  0
   -3.6062   -1.7304    1.8773 H   0  0  0  0  0  0  0  0  0  0  0  0
   -4.6495   -3.1696    1.9542 H   0  0  0  0  0  0  0  0  0  0  0  0
   -3.5425   -2.9784    0.5988 H   0  0  0  0  0  0  0  0  0  0  0  0
   -6.6076   -1.7182    2.1671 H   0  0  0  0  0  0  0  0  0  0  0  0
   -7.0547   -0.6108    0.8878 H   0  0  0  0  0  0  0  0  0  0  0  0
   -5.6827   -0.2203    1.9934 H   0  0  0  0  0  0  0  0  0  0  0  0
    3.4569    2.1801   -0.1767 H   0  0  0  0  0  0  0  0  0  0  0  0
    5.9220    2.2458   -0.5874 H   0  0  0  0  0  0  0  0  0  0  0  0
    6.1226   -2.6797    0.0606 H   0  0  0  0  0  0  0  0  0  0  0  0
    8.0742    1.0547   -0.7819 H   0  0  0  0  0  0  0  0  0  0  0  0
    8.1847   -1.4014   -0.4609 H   0  0  0  0  0  0  0  0  0  0  0  0
  1  2  2  0  0  0  0
  1  3  2  0  0  0  0
  1  7  1  0  0  0  0
  1  9  1  0  0  0  0
  4 22  1  0  0  0  0
  4 23  1  0  0  0  0
  5 19  2  0  0  0  0
  6 23  2  0  0  0  0
  7 16  1  0  0  0  0
  7 17  1  0  0  0  0
  8 12  1  0  0  0  0
  8 19  1  0  0  0  0
  8 34  1  0  0  0  0
  9 10  2  0  0  0  0
  9 11  1  0  0  0  0
 10 13  1  0  0  0  0
 10 15  1  0  0  0  0
 11 12  2  0  0  0  0
 11 28  1  0  0  0  0
 12 14  1  0  0  0  0
 13 14  2  0  0  0  0
 13 29  1  0  0  0  0
 14 30  1  0  0  0  0
 15 31  1  0  0  0  0
 15 32  1  0  0  0  0
 15 33  1  0  0  0  0
 16 35  1  0  0  0  0
 16 36  1  0  0  0  0
 16 37  1  0  0  0  0
 17 38  1  0  0  0  0
 17 39  1  0  0  0  0
 17 40  1  0  0  0  0
 18 19  1  0  0  0  0
 18 21  2  0  0  0  0
 18 23  1  0  0  0  0
 20 21  1  0  0  0  0
 20 22  1  0  0  0  0
 20 24  2  0  0  0  0
 21 41  1  0  0  0  0
 22 25  2  0  0  0  0
 24 26  1  0  0  0  0
 24 42  1  0  0  0  0
 25 27  1  0  0  0  0
 25 43  1  0  0  0  0
 26 27  2  0  0  0  0
 26 44  1  0  0  0  0
 27 45  1  0  0  0  0
M  END
> <PUBCHEM_COMPOUND_CID>
3903461

> <PUBCHEM_CONFORMER_RMSD>
0.8

> <PUBCHEM_CONFORMER_DIVERSEORDER>
2
12
31
46
35
41
30
40
6
25
44
1
22
7
37
19
17
28
43
38
36
45
26
18
34
15
42
27
13
32
9
3
33
14
39
29
20
8
23
24
5
21
10
16
4
11

> <PUBCHEM_MMFF94_PARTIAL_CHARGES>
36
1 1.45
10 -0.14
11 -0.15
12 0.12
13 -0.15
14 -0.15
15 0.14
16 0.36
17 0.36
18 0.03
19 0.62
2 -0.65
20 0.03
21 -0.18
22 0.08
23 0.71
24 -0.15
25 -0.15
26 -0.15
27 -0.15
28 0.15
29 0.15
3 -0.65
30 0.15
34 0.37
4 -0.23
41 0.15
42 0.15
43 0.15
44 0.15
45 0.15
5 -0.57
6 -0.57
7 -0.85
8 -0.55
9 -0.01

> <PUBCHEM_EFFECTIVE_ROTOR_COUNT>
5

> <PUBCHEM_PHARMACOPHORE_FEATURES>
9
1 18 anion
1 2 acceptor
1 3 acceptor
1 5 acceptor
1 6 acceptor
1 8 donor
6 20 22 24 25 26 27 rings
6 4 18 20 21 22 23 rings
6 9 10 11 12 13 14 rings

> <PUBCHEM_HEAVY_ATOM_COUNT>
27

> <PUBCHEM_ATOM_DEF_STEREO_COUNT>
0

> <PUBCHEM_ATOM_UDEF_STEREO_COUNT>
0

> <PUBCHEM_BOND_DEF_STEREO_COUNT>
0

> <PUBCHEM_BOND_UDEF_STEREO_COUNT>
0

> <PUBCHEM_ISOTOPIC_ATOM_COUNT>
0

> <PUBCHEM_COMPONENT_COUNT>
1

> <PUBCHEM_CACTVS_TAUTO_COUNT>
2

> <PUBCHEM_CONFORMER_ID>
003B8FE500000002

> <PUBCHEM_MMFF94_ENERGY>
85.4021

> <PUBCHEM_FEATURE_SELFOVERLAP>
45.718

> <PUBCHEM_SHAPE_FINGERPRINT>
10299344 5 18342459231220897413
10462674 296 17478047619497245542
10595046 47 18411419480293655668
11089746 13 12901546866700511430
11315181 36 18113902675872296669
11524674 6 15913323607072007909
11963148 33 18131061615934735862
12107183 9 17474950926632440144
12166972 35 17967537895627945452
12236239 1 18412544284883559260
12516196 113 18131628976766204616
12760667 363 18343301487846575115
13288520 33 18272367573101691141
13631057 29 18187646963881853867
14461889 52 18338792416810710864
14466204 15 9295289439192411646
14528608 73 18408886218477709084
14856354 85 17775568662780702847
14931854 50 18188474853340902919
15021287 119 13110959842404679723
15142383 8 13254805607767366410
15183329 4 18344143687825626318
15250474 111 18264755597788384538
15461852 350 13262405483097796289
16993438 75 17969232285569286506
17780758 139 17418381302992426475
17844677 252 17988924487298476912
18608769 82 18335707190565918099
18681886 176 18343576348816490144
18927931 339 18343866628280764629
20028762 73 18269550538945350110
21054139 6 18335417963674170242
21150785 3 15936412268633354858
21236236 1 18410858750300048547
21267235 1 18413111666604848401
21521721 280 17774723169041919968
21709351 56 18260544519861928692
23522609 53 17985857992429533361
23559900 14 18336258054908811449
2838139 119 12829202291163415638
3004659 81 18408601436370788716
329604 57 18409733980254434688
335352 9 18271800195617587429
34797466 226 17060059281369162924
397830 11 16342834673505144482
4015057 19 17822866380216978040
4073 2 18187089450839746354
4325135 7 18410292506217422700
439807 62 18335423478185195331
484989 97 18189346817627652338
497634 4 18334011662073771941
5104073 3 18341890770982925560
5109719 28 17915732284167891872
559249 180 18341609283643441269
6431902 208 18409731789594695659
7495541 125 17775560953731462392
999808 66 18334022709177868163

> <PUBCHEM_SHAPE_MULTIPOLES>
520.19
19.58
2.48
1.05
14.43
0.06
-0.15
-5.29
-2.53
-2.3
0.48
-1.63
-0.44
0.03

> <PUBCHEM_SHAPE_SELFOVERLAP>
1114.519

> <PUBCHEM_SHAPE_VOLUME>
288.8

> <PUBCHEM_COORDINATE_TYPE>
2
5
10

$$$$
