1925285
  -OEChem-01171809443D

 48 50  0     0  0  0  0  0  0999 V2000
   -2.2717   -0.9859    0.0585 O   0  0  0  0  0  0  0  0  0  0  0  0
   -1.9563   -3.6749   -0.4518 O   0  0  0  0  0  0  0  0  0  0  0  0
   -0.1702   -4.5630    0.7229 O   0  0  0  0  0  0  0  0  0  0  0  0
   -5.9893    2.7576    0.0229 O   0  0  0  0  0  0  0  0  0  0  0  0
    1.1635   -0.4586    0.0268 N   0  0  0  0  0  0  0  0  0  0  0  0
    1.0493   -1.8590    0.0962 C   0  0  0  0  0  0  0  0  0  0  0  0
   -0.1001    0.1058    0.0013 C   0  0  0  0  0  0  0  0  0  0  0  0
    2.3773    0.2778   -0.0080 C   0  0  0  0  0  0  0  0  0  0  0  0
   -0.2351   -2.2708    0.1220 C   0  0  0  0  0  0  0  0  0  0  0  0
   -1.0568   -1.0359    0.0596 C   0  0  0  0  0  0  0  0  0  0  0  0
    2.9900    0.5885   -1.2320 C   0  0  0  0  0  0  0  0  0  0  0  0
    2.9872    0.7064    1.1813 C   0  0  0  0  0  0  0  0  0  0  0  0
    2.2453   -2.7602    0.0529 C   0  0  0  0  0  0  0  0  0  0  0  0
   -0.5614    1.3602   -0.0186 C   0  0  0  0  0  0  0  0  0  0  0  0
    4.1834    1.3099   -1.2658 C   0  0  0  0  0  0  0  0  0  0  0  0
    4.1805    1.4280    1.1473 C   0  0  0  0  0  0  0  0  0  0  0  0
    4.7785    1.7297   -0.0763 C   0  0  0  0  0  0  0  0  0  0  0  0
   -1.9497    1.7179   -0.0087 C   0  0  0  0  0  0  0  0  0  0  0  0
   -0.7527   -3.6294    0.1806 C   0  0  0  0  0  0  0  0  0  0  0  0
    4.8224    1.6320   -2.5744 C   0  0  0  0  0  0  0  0  0  0  0  0
    4.8172    1.8762    2.4193 C   0  0  0  0  0  0  0  0  0  0  0  0
   -2.6701    1.8375   -1.2094 C   0  0  0  0  0  0  0  0  0  0  0  0
   -2.6203    1.9564    1.2032 C   0  0  0  0  0  0  0  0  0  0  0  0
   -4.0207    2.1853   -1.1986 C   0  0  0  0  0  0  0  0  0  0  0  0
   -3.9711    2.3042    1.2140 C   0  0  0  0  0  0  0  0  0  0  0  0
   -4.6714    2.4186    0.0130 C   0  0  0  0  0  0  0  0  0  0  0  0
   -2.5977   -4.9543   -0.4783 C   0  0  0  0  0  0  0  0  0  0  0  0
    2.5263    0.2632   -2.1611 H   0  0  0  0  0  0  0  0  0  0  0  0
    2.5233    0.4697    2.1368 H   0  0  0  0  0  0  0  0  0  0  0  0
    2.8108   -2.6812    0.9869 H   0  0  0  0  0  0  0  0  0  0  0  0
    2.9061   -2.4809   -0.7746 H   0  0  0  0  0  0  0  0  0  0  0  0
    1.9906   -3.8113   -0.0989 H   0  0  0  0  0  0  0  0  0  0  0  0
    0.1373    2.1922   -0.0373 H   0  0  0  0  0  0  0  0  0  0  0  0
    5.7090    2.2920   -0.1026 H   0  0  0  0  0  0  0  0  0  0  0  0
    5.9104    1.7105   -2.4752 H   0  0  0  0  0  0  0  0  0  0  0  0
    4.6245    0.8484   -3.3136 H   0  0  0  0  0  0  0  0  0  0  0  0
    4.4361    2.5818   -2.9571 H   0  0  0  0  0  0  0  0  0  0  0  0
    5.5021    1.1062    2.7881 H   0  0  0  0  0  0  0  0  0  0  0  0
    5.3790    2.8053    2.2748 H   0  0  0  0  0  0  0  0  0  0  0  0
    4.0640    2.0745    3.1894 H   0  0  0  0  0  0  0  0  0  0  0  0
   -2.1801    1.6595   -2.1644 H   0  0  0  0  0  0  0  0  0  0  0  0
   -2.0911    1.8719    2.1501 H   0  0  0  0  0  0  0  0  0  0  0  0
   -4.5550    2.2710   -2.1410 H   0  0  0  0  0  0  0  0  0  0  0  0
   -4.4725    2.4845    2.1609 H   0  0  0  0  0  0  0  0  0  0  0  0
   -2.8035   -5.2950    0.5408 H   0  0  0  0  0  0  0  0  0  0  0  0
   -1.9736   -5.6791   -1.0096 H   0  0  0  0  0  0  0  0  0  0  0  0
   -3.5459   -4.8485   -1.0120 H   0  0  0  0  0  0  0  0  0  0  0  0
   -6.3131    2.7906   -0.8937 H   0  0  0  0  0  0  0  0  0  0  0  0
  1 10  2  0  0  0  0
  2 19  1  0  0  0  0
  2 27  1  0  0  0  0
  3 19  2  0  0  0  0
  4 26  1  0  0  0  0
  4 48  1  0  0  0  0
  5  6  1  0  0  0  0
  5  7  1  0  0  0  0
  5  8  1  0  0  0  0
  6  9  2  0  0  0  0
  6 13  1  0  0  0  0
  7 10  1  0  0  0  0
  7 14  2  0  0  0  0
  8 11  2  0  0  0  0
  8 12  1  0  0  0  0
  9 10  1  0  0  0  0
  9 19  1  0  0  0  0
 11 15  1  0  0  0  0
 11 28  1  0  0  0  0
 12 16  2  0  0  0  0
 12 29  1  0  0  0  0
 13 30  1  0  0  0  0
 13 31  1  0  0  0  0
 13 32  1  0  0  0  0
 14 18  1  0  0  0  0
 14 33  1  0  0  0  0
 15 17  2  0  0  0  0
 15 20  1  0  0  0  0
 16 17  1  0  0  0  0
 16 21  1  0  0  0  0
 17 34  1  0  0  0  0
 18 22  2  0  0  0  0
 18 23  1  0  0  0  0
 20 35  1  0  0  0  0
 20 36  1  0  0  0  0
 20 37  1  0  0  0  0
 21 38  1  0  0  0  0
 21 39  1  0  0  0  0
 21 40  1  0  0  0  0
 22 24  1  0  0  0  0
 22 41  1  0  0  0  0
 23 25  2  0  0  0  0
 23 42  1  0  0  0  0
 24 26  2  0  0  0  0
 24 43  1  0  0  0  0
 25 26  1  0  0  0  0
 25 44  1  0  0  0  0
 27 45  1  0  0  0  0
 27 46  1  0  0  0  0
 27 47  1  0  0  0  0
M  END
> <PUBCHEM_COMPOUND_CID>
1925285

> <PUBCHEM_CONFORMER_RMSD>
0.8

> <PUBCHEM_CONFORMER_DIVERSEORDER>
1
4
2
3

> <PUBCHEM_MMFF94_PARTIAL_CHARGES>
36
1 -0.57
10 0.54
11 -0.15
12 -0.15
13 0.14
14 -0.18
15 -0.14
16 -0.14
17 -0.15
18 0.03
19 0.71
2 -0.43
20 0.14
21 0.14
22 -0.15
23 -0.15
24 -0.15
25 -0.15
26 0.08
27 0.28
28 0.15
29 0.15
3 -0.57
33 0.15
34 0.15
4 -0.53
41 0.15
42 0.15
43 0.15
44 0.15
48 0.45
5 -0.3
6 -0.04
7 0.11
8 0.1
9 0.03

> <PUBCHEM_EFFECTIVE_ROTOR_COUNT>
4.2

> <PUBCHEM_PHARMACOPHORE_FEATURES>
8
1 1 acceptor
1 3 acceptor
1 4 donor
1 5 cation
1 9 anion
5 5 6 7 9 10 rings
6 18 22 23 24 25 26 rings
6 8 11 12 15 16 17 rings

> <PUBCHEM_HEAVY_ATOM_COUNT>
27

> <PUBCHEM_ATOM_DEF_STEREO_COUNT>
0

> <PUBCHEM_ATOM_UDEF_STEREO_COUNT>
0

> <PUBCHEM_BOND_DEF_STEREO_COUNT>
1

> <PUBCHEM_BOND_UDEF_STEREO_COUNT>
0

> <PUBCHEM_ISOTOPIC_ATOM_COUNT>
0

> <PUBCHEM_COMPONENT_COUNT>
1

> <PUBCHEM_CACTVS_TAUTO_COUNT>
19

> <PUBCHEM_CONFORMER_ID>
001D60A500000001

> <PUBCHEM_MMFF94_ENERGY>
98.888

> <PUBCHEM_FEATURE_SELFOVERLAP>
40.596

> <PUBCHEM_SHAPE_FINGERPRINT>
10074138 170 18191564544642436874
10411042 1 17618221053965352202
10815517 723 18054805128971846227
1100329 8 18268424625530944666
12160290 23 18263651816936248770
12553582 1 17758969503372521530
12788726 201 17901385911623406770
13140716 1 18266175041635190379
13540713 5 18114738343849467194
13590594 115 17832433373215015251
13692114 37 18272357664153541351
13911987 19 18334581218014455501
13955234 65 18050567335973808291
14294032 229 18337124461528471873
14790565 3 18410578357982358349
15842332 3 17604984991983569112
17138139 8 17840831292687529375
1813 80 17550111802093314726
18785283 64 18044659689440416406
19319366 153 18127394684557201493
204376 136 18336267851497059405
20600515 1 17334777968900220218
20739085 24 17118050517408460531
21285901 2 17697898199628367638
21796203 349 17259656667600853147
22149856 69 18191885444396101345
2255824 54 17979074881890358767
23557571 272 18129103505889200232
23558518 356 18261666060757118122
23559900 14 17753900411149400105
23845131 108 18410849928922480459
23929065 36 17982991621528643010
244849 19 17632020849113055076
249057 25 17534619619741108540
283562 15 18120931973809815706
3178227 256 18049175362247405611
3380486 145 16833162093752981542
350125 39 18264492789050135214
458136 41 18194131719937000089
469060 322 18262810686979067753
474 4 18266457607596800057
495365 180 18265332798448003465
59755656 520 18411412891402321780
633830 44 17916587518723357781
6442390 28 18411708672904344355
6677587 24 16164050620742074183
6679774 75 17895474701190489234
6695519 79 18270975557453654121
7399639 24 18116987781130927325
7808743 9 18263372537358246124
7970288 3 9511456732312793132
9658208 31 18342744026444782600
9981440 41 18337383851736030385

> <PUBCHEM_SHAPE_MULTIPOLES>
527.19
10.25
5.58
1.57
1.49
9.34
0.14
-12.49
0.48
-6.53
-0.14
2.33
-1.33
-0.25

> <PUBCHEM_SHAPE_SELFOVERLAP>
1147.247

> <PUBCHEM_SHAPE_VOLUME>
290.5

> <PUBCHEM_COORDINATE_TYPE>
2
5
10

$$$$
