586918
  -OEChem-01171809533D

 35 36  0     0  0  0  0  0  0999 V2000
   -1.0700   -0.8687    0.6701 O   0  0  0  0  0  0  0  0  0  0  0  0
    1.8234   -0.3348   -0.3707 O   0  0  0  0  0  0  0  0  0  0  0  0
    5.2807    0.2993    0.1903 O   0  0  0  0  0  0  0  0  0  0  0  0
    3.6519    1.6233   -0.7490 N   0  0  0  0  0  0  0  0  0  0  0  0
    4.5409    2.6650   -0.9418 N   0  0  0  0  0  0  0  0  0  0  0  0
   -2.2196   -0.1917    0.3921 C   0  0  0  0  0  0  0  0  0  0  0  0
   -2.3736    1.1406    0.7752 C   0  0  0  0  0  0  0  0  0  0  0  0
   -0.3373   -1.3838   -0.4396 C   0  0  0  0  0  0  0  0  0  0  0  0
   -4.4332   -0.1692   -0.5755 C   0  0  0  0  0  0  0  0  0  0  0  0
   -3.2494   -0.8466   -0.2833 C   0  0  0  0  0  0  0  0  0  0  0  0
    1.1183   -1.4433   -0.0803 C   0  0  0  0  0  0  0  0  0  0  0  0
   -3.5575    1.8181    0.4831 C   0  0  0  0  0  0  0  0  0  0  0  0
   -4.5872    1.1631   -0.1923 C   0  0  0  0  0  0  0  0  0  0  0  0
    1.8771   -2.4110    0.4880 C   0  0  0  0  0  0  0  0  0  0  0  0
   -1.2815    1.8580    1.4983 C   0  0  0  0  0  0  0  0  0  0  0  0
    3.0950   -0.5996    0.0287 C   0  0  0  0  0  0  0  0  0  0  0  0
    3.1801   -1.8640    0.5635 C   0  0  0  0  0  0  0  0  0  0  0  0
   -5.5343   -0.8685   -1.2984 C   0  0  0  0  0  0  0  0  0  0  0  0
    4.0765    0.4137   -0.1585 C   0  0  0  0  0  0  0  0  0  0  0  0
   -0.4673   -0.7530   -1.3287 H   0  0  0  0  0  0  0  0  0  0  0  0
   -0.7004   -2.3916   -0.6714 H   0  0  0  0  0  0  0  0  0  0  0  0
   -3.1369   -1.8881   -0.5741 H   0  0  0  0  0  0  0  0  0  0  0  0
   -3.6935    2.8561    0.7748 H   0  0  0  0  0  0  0  0  0  0  0  0
   -5.5054    1.7014   -0.4126 H   0  0  0  0  0  0  0  0  0  0  0  0
    1.5544   -3.3895    0.8130 H   0  0  0  0  0  0  0  0  0  0  0  0
   -1.0510    1.3495    2.4403 H   0  0  0  0  0  0  0  0  0  0  0  0
   -0.3781    1.8955    0.8805 H   0  0  0  0  0  0  0  0  0  0  0  0
   -1.5592    2.8894    1.7402 H   0  0  0  0  0  0  0  0  0  0  0  0
    4.0675   -2.3370    0.9597 H   0  0  0  0  0  0  0  0  0  0  0  0
   -5.1363   -1.6069   -2.0028 H   0  0  0  0  0  0  0  0  0  0  0  0
   -6.1871   -1.3800   -0.5842 H   0  0  0  0  0  0  0  0  0  0  0  0
   -6.1371   -0.1634   -1.8809 H   0  0  0  0  0  0  0  0  0  0  0  0
    2.6883    1.7639   -1.0378 H   0  0  0  0  0  0  0  0  0  0  0  0
    4.5164    2.8931   -1.9348 H   0  0  0  0  0  0  0  0  0  0  0  0
    4.1554    3.4746   -0.4575 H   0  0  0  0  0  0  0  0  0  0  0  0
  1  6  1  0  0  0  0
  1  8  1  0  0  0  0
  2 11  1  0  0  0  0
  2 16  1  0  0  0  0
  3 19  2  0  0  0  0
  4  5  1  0  0  0  0
  4 19  1  0  0  0  0
  4 33  1  0  0  0  0
  5 34  1  0  0  0  0
  5 35  1  0  0  0  0
  6  7  2  0  0  0  0
  6 10  1  0  0  0  0
  7 12  1  0  0  0  0
  7 15  1  0  0  0  0
  8 11  1  0  0  0  0
  8 20  1  0  0  0  0
  8 21  1  0  0  0  0
  9 10  2  0  0  0  0
  9 13  1  0  0  0  0
  9 18  1  0  0  0  0
 10 22  1  0  0  0  0
 11 14  2  0  0  0  0
 12 13  2  0  0  0  0
 12 23  1  0  0  0  0
 13 24  1  0  0  0  0
 14 17  1  0  0  0  0
 14 25  1  0  0  0  0
 15 26  1  0  0  0  0
 15 27  1  0  0  0  0
 15 28  1  0  0  0  0
 16 17  2  0  0  0  0
 16 19  1  0  0  0  0
 17 29  1  0  0  0  0
 18 30  1  0  0  0  0
 18 31  1  0  0  0  0
 18 32  1  0  0  0  0
M  END
> <PUBCHEM_COMPOUND_CID>
586918

> <PUBCHEM_CONFORMER_RMSD>
0.8

> <PUBCHEM_CONFORMER_DIVERSEORDER>
1
86
104
71
57
62
96
4
84
2
25
112
59
105
72
102
66
106
58
89
78
88
99
65
98
42
5
29
47
14
9
12
94
113
32
55
54
37
15
36
81
44
63
40
68
100
109
64
92
3
79
24
39
50
45
61
16
85
69
91
41
19
52
28
49
11
83
75
51
35
27
43
74
10
31
22
90
101
38
110
73
48
108
107
53
7
20
93
82
87
8
26
13
30
21
18
77
34
60
95
80
33
76
67
70
46
103
6
17
56
111
97
23

> <PUBCHEM_MMFF94_PARTIAL_CHARGES>
27
1 -0.36
10 -0.15
11 -0.04
12 -0.15
13 -0.15
14 -0.15
15 0.14
16 0.05
17 -0.15
18 0.14
19 0.71
2 -0.28
22 0.15
23 0.15
24 0.15
25 0.15
29 0.15
3 -0.57
33 0.37
34 0.36
35 0.36
4 -0.42
5 -0.73
6 0.08
7 -0.14
8 0.46
9 -0.14

> <PUBCHEM_EFFECTIVE_ROTOR_COUNT>
5

> <PUBCHEM_PHARMACOPHORE_FEATURES>
7
1 1 acceptor
1 2 acceptor
1 3 acceptor
1 4 donor
1 5 donor
5 2 11 14 16 17 rings
6 6 7 9 10 12 13 rings

> <PUBCHEM_HEAVY_ATOM_COUNT>
19

> <PUBCHEM_ATOM_DEF_STEREO_COUNT>
0

> <PUBCHEM_ATOM_UDEF_STEREO_COUNT>
0

> <PUBCHEM_BOND_DEF_STEREO_COUNT>
0

> <PUBCHEM_BOND_UDEF_STEREO_COUNT>
0

> <PUBCHEM_ISOTOPIC_ATOM_COUNT>
0

> <PUBCHEM_COMPONENT_COUNT>
1

> <PUBCHEM_CACTVS_TAUTO_COUNT>
2

> <PUBCHEM_CONFORMER_ID>
0008F4A600000001

> <PUBCHEM_MMFF94_ENERGY>
42.6389

> <PUBCHEM_FEATURE_SELFOVERLAP>
37.021

> <PUBCHEM_SHAPE_FINGERPRINT>
10090160 65 18407754837586214587
10366900 7 17458634363260312138
10498660 4 18131071489372659481
10670039 82 18339376197086985924
10906281 52 17988652848904000159
11089746 13 18333448734016900550
11759241 127 18341895152039126885
12107183 9 17547007425332498763
12236239 1 18342732992557949590
13583140 156 17095526214132621011
14251764 38 17313380080906596621
14528608 73 18410293626950659884
14739800 52 18129642193830343160
14767858 380 18270388516685855591
14774955 27 18187364380470888172
14787075 74 18412543249764896195
14790565 3 17410783467323940513
14931854 50 18272097149049972772
15196674 1 18341892935709433651
15342168 16 18041846228601056862
17492 89 18198623229485354687
17959699 21 18263358106167527717
18681886 176 18273207578721595626
200 152 18341888572323594551
20300324 65 18131630059023713787
20715895 44 17762331419272950085
21033648 29 16443339858372676951
212916 134 14562524077198773761
21709351 56 18266172838311705838
22950370 63 10087644810005077732
23402539 116 18128805370665698815
23557571 272 17274825735948512295
23559900 14 17485924138619597399
238078 22 17847057805545073531
245318 6 17388557174316721724
312423 11 18130234735270228155
3472631 163 18197782099016249733
4325135 7 18342453738601284759
474 4 18259987084946831586
495365 180 15864622873875880995
5104073 3 18336267834338121307
532947 4 17771893094288981697
67856867 119 18338789031669911314
7970288 3 10807394974451190844
9709674 26 18269560442564882727
9981440 41 18335421317785387346

> <PUBCHEM_SHAPE_MULTIPOLES>
363.44
11.7
2.44
1.02
0.45
0.66
0.04
3
-3.39
1.71
0.06
-0.36
0.27
-2.03

> <PUBCHEM_SHAPE_SELFOVERLAP>
772.694

> <PUBCHEM_SHAPE_VOLUME>
205.1

> <PUBCHEM_COORDINATE_TYPE>
2
5
10

$$$$
