2585229
  -OEChem-01171809383D

 36 37  0     0  0  0  0  0  0999 V2000
    5.3861   -1.9703    1.5635 Cl  0  0  0  0  0  0  0  0  0  0  0  0
    6.9467   -0.5297   -0.9424 Cl  0  0  0  0  0  0  0  0  0  0  0  0
   -4.2812   -2.0966   -0.0105 F   0  0  0  0  0  0  0  0  0  0  0  0
   -6.3034   -1.3711   -0.3749 F   0  0  0  0  0  0  0  0  0  0  0  0
   -5.1671   -0.6339    1.3402 F   0  0  0  0  0  0  0  0  0  0  0  0
    0.7960   -0.4914   -1.1534 O   0  0  0  0  0  0  0  0  0  0  0  0
    2.7237   -0.8077    1.8621 O   0  0  0  0  0  0  0  0  0  0  0  0
   -3.1835    0.5200   -0.3769 N   0  0  0  0  0  0  0  0  0  0  0  0
    2.7851    0.7313    0.1334 N   0  0  0  0  0  0  0  0  0  0  0  0
    3.4496    1.3192   -0.9055 N   0  0  0  0  0  0  0  0  0  0  0  0
   -2.0009   -0.0171   -0.8142 C   0  0  0  0  0  0  0  0  0  0  0  0
   -1.0131    0.6478   -0.1660 C   0  0  0  0  0  0  0  0  0  0  0  0
   -2.9284    1.5099    0.5361 C   0  0  0  0  0  0  0  0  0  0  0  0
   -4.5007    0.1043   -0.8111 C   0  0  0  0  0  0  0  0  0  0  0  0
   -1.5624    1.6066    0.6831 C   0  0  0  0  0  0  0  0  0  0  0  0
    0.4217    0.3708   -0.3571 C   0  0  0  0  0  0  0  0  0  0  0  0
   -1.9591   -1.1108   -1.8092 C   0  0  0  0  0  0  0  0  0  0  0  0
   -4.0078    2.2783    1.1906 C   0  0  0  0  0  0  0  0  0  0  0  0
    1.4367    1.1875    0.4291 C   0  0  0  0  0  0  0  0  0  0  0  0
   -5.0745   -1.0030    0.0453 C   0  0  0  0  0  0  0  0  0  0  0  0
    3.3234   -0.2788    0.9253 C   0  0  0  0  0  0  0  0  0  0  0  0
    4.7080   -0.7183    0.5887 C   0  0  0  0  0  0  0  0  0  0  0  0
    4.6443    0.9013   -1.1531 C   0  0  0  0  0  0  0  0  0  0  0  0
    5.3607   -0.1483   -0.4234 C   0  0  0  0  0  0  0  0  0  0  0  0
   -4.4577   -0.1873   -1.8645 H   0  0  0  0  0  0  0  0  0  0  0  0
   -5.1637    0.9751   -0.7810 H   0  0  0  0  0  0  0  0  0  0  0  0
   -1.0520    2.3006    1.3366 H   0  0  0  0  0  0  0  0  0  0  0  0
   -1.2687   -1.8972   -1.4857 H   0  0  0  0  0  0  0  0  0  0  0  0
   -2.9137   -1.6112   -1.9797 H   0  0  0  0  0  0  0  0  0  0  0  0
   -1.6100   -0.7276   -2.7739 H   0  0  0  0  0  0  0  0  0  0  0  0
   -3.5891    3.0049    1.8958 H   0  0  0  0  0  0  0  0  0  0  0  0
   -4.5920    2.8420    0.4564 H   0  0  0  0  0  0  0  0  0  0  0  0
   -4.6812    1.6314    1.7581 H   0  0  0  0  0  0  0  0  0  0  0  0
    1.2321    1.0822    1.4995 H   0  0  0  0  0  0  0  0  0  0  0  0
    1.3540    2.2425    0.1467 H   0  0  0  0  0  0  0  0  0  0  0  0
    5.1904    1.3684   -1.9894 H   0  0  0  0  0  0  0  0  0  0  0  0
  1 22  1  0  0  0  0
  2 24  1  0  0  0  0
  3 20  1  0  0  0  0
  4 20  1  0  0  0  0
  5 20  1  0  0  0  0
  6 16  2  0  0  0  0
  7 21  2  0  0  0  0
  8 11  1  0  0  0  0
  8 13  1  0  0  0  0
  8 14  1  0  0  0  0
  9 10  1  0  0  0  0
  9 19  1  0  0  0  0
  9 21  1  0  0  0  0
 10 23  2  0  0  0  0
 11 12  2  0  0  0  0
 11 17  1  0  0  0  0
 12 15  1  0  0  0  0
 12 16  1  0  0  0  0
 13 15  2  0  0  0  0
 13 18  1  0  0  0  0
 14 20  1  0  0  0  0
 14 25  1  0  0  0  0
 14 26  1  0  0  0  0
 15 27  1  0  0  0  0
 16 19  1  0  0  0  0
 17 28  1  0  0  0  0
 17 29  1  0  0  0  0
 17 30  1  0  0  0  0
 18 31  1  0  0  0  0
 18 32  1  0  0  0  0
 18 33  1  0  0  0  0
 19 34  1  0  0  0  0
 19 35  1  0  0  0  0
 21 22  1  0  0  0  0
 22 24  2  0  0  0  0
 23 24  1  0  0  0  0
 23 36  1  0  0  0  0
M  END
> <PUBCHEM_COMPOUND_CID>
2585229

> <PUBCHEM_CONFORMER_RMSD>
0.8

> <PUBCHEM_CONFORMER_DIVERSEORDER>
2
37
133
30
26
71
21
82
110
106
54
47
60
125
51
84
107
130
98
33
128
97
25
118
83
87
43
90
93
17
121
1
123
117
73
62
4
96
67
28
50
57
105
65
112
95
58
89
32
85
22
129
108
46
124
64
115
76
35
99
109
56
86
24
94
74
100
70
59
41
3
88
92
27
91
20
120
119
66
49
122
113
48
36
53
29
63
44
39
23
75
81
103
55
77
78
69
132
52
104
38
14
68
19
40
45
61
72
11
42
31
79
111
127
12
34
101
80
7
116
102
131
114
6
8
126
18
13
5
10
15
16
9

> <PUBCHEM_MMFF94_PARTIAL_CHARGES>
26
1 -0.14
10 -0.51
11 -0.33
12 -0.09
13 -0.33
14 0.26
15 -0.15
16 0.6
17 0.18
18 0.18
19 0.36
2 -0.14
20 1.02
21 0.62
22 0.15
23 0.38
24 0.15
27 0.15
3 -0.34
36 0.06
4 -0.34
5 -0.34
6 -0.57
7 -0.57
8 0.05
9 -0.3

> <PUBCHEM_EFFECTIVE_ROTOR_COUNT>
5

> <PUBCHEM_PHARMACOPHORE_FEATURES>
6
1 10 acceptor
1 6 acceptor
1 7 acceptor
1 8 cation
5 8 11 12 13 15 rings
6 9 10 21 22 23 24 rings

> <PUBCHEM_HEAVY_ATOM_COUNT>
24

> <PUBCHEM_ATOM_DEF_STEREO_COUNT>
0

> <PUBCHEM_ATOM_UDEF_STEREO_COUNT>
0

> <PUBCHEM_BOND_DEF_STEREO_COUNT>
0

> <PUBCHEM_BOND_UDEF_STEREO_COUNT>
0

> <PUBCHEM_ISOTOPIC_ATOM_COUNT>
0

> <PUBCHEM_COMPONENT_COUNT>
1

> <PUBCHEM_CACTVS_TAUTO_COUNT>
2

> <PUBCHEM_CONFORMER_ID>
0027728D00000002

> <PUBCHEM_MMFF94_ENERGY>
45.9015

> <PUBCHEM_FEATURE_SELFOVERLAP>
30.447

> <PUBCHEM_SHAPE_FINGERPRINT>
10 15 17632284697248324298
10693767 8 18042406817188485778
10912923 1 18334861597605128376
11089746 13 9295282825195989882
11315181 36 18409732867362364181
11405975 8 15339111381679896286
11545043 162 17561079181266178840
11963148 33 18272644684018018983
12107183 9 17685487646364923448
12236239 1 18410015408313806108
12403259 415 16558745702852355552
12596602 18 18410294726816150536
13073987 5 18342172263545771152
13167823 11 18186235125951864011
13288520 33 17967814964178641389
13533116 47 18259701216055014442
13782708 43 15792008918902349722
13862211 1 17917425480196591111
14528608 73 17095242531859146420
15348495 7 15123500450018773766
15880784 105 17675924287388908985
17349148 13 18412266150969190957
17834072 33 18113336422951705644
17844677 252 17846781818914445616
17857418 61 18334573542442893834
1813 80 18187370887647171780
18927931 339 18060136544552536149
200 152 17313101960383310277
20645477 70 17240755152254225458
21033648 29 16487247734141272417
21065198 48 18334576815403236544
21150785 3 15430322459483449595
21267235 1 18273219711260038020
220451 1 18260554381343898408
22182313 1 17202781306012149725
22950370 63 18334575707596943288
2297311 6 17917717889643409956
23522609 53 18118996682768412828
23559900 14 17168427176844999053
23569914 152 15074193782984675683
2838139 119 11959463254024252747
3004659 81 18409167714765641596
34797466 226 14562541669247752790
351380 3 18412542132487609494
465052 167 18410012148064292038
497634 4 18040714758047869173
5104073 3 18202560678975567736
5281201 14 16443062752005310782
559249 180 18272088245112600460
57724786 102 14404889345835209090

> <PUBCHEM_SHAPE_MULTIPOLES>
449.15
15.9
1.82
1.45
5.87
0.05
0.17
-5.75
0.55
-1.71
0.42
0.95
-0.33
-1.85

> <PUBCHEM_SHAPE_SELFOVERLAP>
940.644

> <PUBCHEM_SHAPE_VOLUME>
259.4

> <PUBCHEM_COORDINATE_TYPE>
2
5
10

$$$$
