46902090
  -OEChem-01171810173D

 49 52  0     1  0  0  0  0  0999 V2000
   -0.9792   -3.5207   -0.2256 O   0  0  0  0  0  0  0  0  0  0  0  0
    2.0853   -0.7263   -1.9494 O   0  0  0  0  0  0  0  0  0  0  0  0
    0.7041    0.4528    0.9100 O   0  0  0  0  0  0  0  0  0  0  0  0
    0.2128   -1.9187   -2.5383 O   0  0  0  0  0  0  0  0  0  0  0  0
   -1.7850    3.7586   -0.9591 O   0  0  0  0  0  0  0  0  0  0  0  0
   -3.0719    2.3617    0.3416 O   0  0  0  0  0  0  0  0  0  0  0  0
   -1.0620   -2.5826    0.8646 C   0  0  1  0  0  0  0  0  0  0  0  0
    0.2727   -3.0834    0.3080 C   0  0  2  0  0  0  0  0  0  0  0  0
   -1.8339   -1.3345    0.4722 C   0  0  2  0  0  0  0  0  0  0  0  0
    1.1914   -2.1738   -0.3640 C   0  0  0  0  0  0  0  0  0  0  0  0
   -1.5582   -0.1537    1.4432 C   0  0  0  0  0  0  0  0  0  0  0  0
    2.8837   -0.5984   -0.7620 C   0  0  2  0  0  0  0  0  0  0  0  0
   -3.3186   -1.5918    0.4132 C   0  0  0  0  0  0  0  0  0  0  0  0
    2.3068   -1.6313    0.1326 C   0  0  0  0  0  0  0  0  0  0  0  0
    2.8092    0.8675   -0.2321 C   0  0  1  0  0  0  0  0  0  0  0  0
   -0.6001    0.8100    0.8397 C   0  0  0  0  0  0  0  0  0  0  0  0
    1.0756   -1.6211   -1.7293 C   0  0  0  0  0  0  0  0  0  0  0  0
    1.3964    1.2762    0.0757 C   0  0  0  0  0  0  0  0  0  0  0  0
   -0.7279    1.9824    0.1264 C   0  0  0  0  0  0  0  0  0  0  0  0
   -3.9700   -2.0046    1.6997 C   0  0  0  0  0  0  0  0  0  0  0  0
    0.5681    2.2850   -0.3702 C   0  0  0  0  0  0  0  0  0  0  0  0
    3.7626    1.0864    0.9066 C   0  0  0  0  0  0  0  0  0  0  0  0
   -4.0166   -1.4594   -0.7245 C   0  0  0  0  0  0  0  0  0  0  0  0
    5.2026    0.7669    0.6344 C   0  0  0  0  0  0  0  0  0  0  0  0
   -1.9560    2.6766   -0.1261 C   0  0  0  0  0  0  0  0  0  0  0  0
    3.3503    1.5412    2.0991 C   0  0  0  0  0  0  0  0  0  0  0  0
   -2.9423    4.5350   -1.2866 C   0  0  0  0  0  0  0  0  0  0  0  0
   -1.3303   -2.9617    1.8443 H   0  0  0  0  0  0  0  0  0  0  0  0
    0.7904   -3.8213    0.9158 H   0  0  0  0  0  0  0  0  0  0  0  0
   -1.5083   -1.0426   -0.5354 H   0  0  0  0  0  0  0  0  0  0  0  0
   -2.4729    0.3906    1.7003 H   0  0  0  0  0  0  0  0  0  0  0  0
   -1.1465   -0.5209    2.3921 H   0  0  0  0  0  0  0  0  0  0  0  0
    3.9052   -0.8715   -1.0457 H   0  0  0  0  0  0  0  0  0  0  0  0
    2.6848   -1.8344    1.1257 H   0  0  0  0  0  0  0  0  0  0  0  0
    3.1318    1.5178   -1.0592 H   0  0  0  0  0  0  0  0  0  0  0  0
   -3.6139   -2.9876    2.0224 H   0  0  0  0  0  0  0  0  0  0  0  0
   -3.7849   -1.2862    2.5029 H   0  0  0  0  0  0  0  0  0  0  0  0
   -5.0579   -2.0818    1.5900 H   0  0  0  0  0  0  0  0  0  0  0  0
    0.8532    3.0893   -1.0341 H   0  0  0  0  0  0  0  0  0  0  0  0
   -3.5383   -1.1600   -1.6510 H   0  0  0  0  0  0  0  0  0  0  0  0
   -5.0846   -1.6475   -0.7561 H   0  0  0  0  0  0  0  0  0  0  0  0
    5.8577    1.1543    1.4227 H   0  0  0  0  0  0  0  0  0  0  0  0
    5.5281    1.2225   -0.3065 H   0  0  0  0  0  0  0  0  0  0  0  0
    5.3654   -0.3135    0.5805 H   0  0  0  0  0  0  0  0  0  0  0  0
    4.0687    1.6848    2.9019 H   0  0  0  0  0  0  0  0  0  0  0  0
    2.3288    1.7964    2.3484 H   0  0  0  0  0  0  0  0  0  0  0  0
   -3.6771    3.9134   -1.8064 H   0  0  0  0  0  0  0  0  0  0  0  0
   -3.3743    4.9667   -0.3791 H   0  0  0  0  0  0  0  0  0  0  0  0
   -2.6323    5.3459   -1.9509 H   0  0  0  0  0  0  0  0  0  0  0  0
  1  7  1  0  0  0  0
  1  8  1  0  0  0  0
  2 12  1  0  0  0  0
  2 17  1  0  0  0  0
  3 16  1  0  0  0  0
  3 18  1  0  0  0  0
  4 17  2  0  0  0  0
  5 25  1  0  0  0  0
  5 27  1  0  0  0  0
  6 25  2  0  0  0  0
  7  8  1  0  0  0  0
  7  9  1  0  0  0  0
  7 28  1  0  0  0  0
  8 10  1  0  0  0  0
  8 29  1  0  0  0  0
  9 11  1  0  0  0  0
  9 13  1  0  0  0  0
  9 30  1  0  0  0  0
 10 14  2  0  0  0  0
 10 17  1  0  0  0  0
 11 16  1  0  0  0  0
 11 31  1  0  0  0  0
 11 32  1  0  0  0  0
 12 14  1  0  0  0  0
 12 15  1  0  0  0  0
 12 33  1  0  0  0  0
 13 20  1  0  0  0  0
 13 23  2  0  0  0  0
 14 34  1  0  0  0  0
 15 18  1  0  0  0  0
 15 22  1  0  0  0  0
 15 35  1  0  0  0  0
 16 19  2  0  0  0  0
 18 21  2  0  0  0  0
 19 21  1  0  0  0  0
 19 25  1  0  0  0  0
 20 36  1  0  0  0  0
 20 37  1  0  0  0  0
 20 38  1  0  0  0  0
 21 39  1  0  0  0  0
 22 24  1  0  0  0  0
 22 26  2  0  0  0  0
 23 40  1  0  0  0  0
 23 41  1  0  0  0  0
 24 42  1  0  0  0  0
 24 43  1  0  0  0  0
 24 44  1  0  0  0  0
 26 45  1  0  0  0  0
 26 46  1  0  0  0  0
 27 47  1  0  0  0  0
 27 48  1  0  0  0  0
 27 49  1  0  0  0  0
M  END
> <PUBCHEM_COMPOUND_CID>
46902090

> <PUBCHEM_CONFORMER_RMSD>
0.8

> <PUBCHEM_CONFORMER_DIVERSEORDER>
1
4
2
3

> <PUBCHEM_MMFF94_PARTIAL_CHARGES>
35
1 -0.3
10 -0.03
11 0.18
12 0.42
13 -0.28
14 -0.29
15 0.32
16 -0.04
17 0.71
18 -0.04
19 -0.09
2 -0.43
20 0.14
21 -0.15
22 -0.28
23 -0.3
24 0.14
25 0.81
26 -0.3
27 0.28
28 0.1
29 0.1
3 -0.28
34 0.15
39 0.15
4 -0.57
40 0.15
41 0.15
45 0.15
46 0.15
5 -0.43
6 -0.57
7 -0.05
8 0.09
9 0.23

> <PUBCHEM_EFFECTIVE_ROTOR_COUNT>
5

> <PUBCHEM_PHARMACOPHORE_FEATURES>
6
1 1 acceptor
1 3 acceptor
1 4 acceptor
1 6 acceptor
5 2 10 12 14 17 rings
5 3 16 18 19 21 rings

> <PUBCHEM_HEAVY_ATOM_COUNT>
27

> <PUBCHEM_ATOM_DEF_STEREO_COUNT>
5

> <PUBCHEM_ATOM_UDEF_STEREO_COUNT>
0

> <PUBCHEM_BOND_DEF_STEREO_COUNT>
0

> <PUBCHEM_BOND_UDEF_STEREO_COUNT>
0

> <PUBCHEM_ISOTOPIC_ATOM_COUNT>
0

> <PUBCHEM_COMPONENT_COUNT>
1

> <PUBCHEM_CACTVS_TAUTO_COUNT>
1

> <PUBCHEM_CONFORMER_ID>
02CBAB4A00000001

> <PUBCHEM_MMFF94_ENERGY>
48.3035

> <PUBCHEM_FEATURE_SELFOVERLAP>
30.449

> <PUBCHEM_SHAPE_FINGERPRINT>
10906281 52 18266193901010679785
10930396 42 17691925622375124808
1100329 8 17688023120315964962
11578080 2 17775272868615467545
12011746 2 18271529814002805542
12422481 6 18271821128201212843
12553582 1 18121795077473213361
12597179 24 18197764523466657768
12633257 1 18047193243614969219
12788726 201 18187642569914025816
13140716 1 17836653289455302442
13149001 5 17837500643600466255
14178342 30 18271260330211211280
14840074 17 18055637466982675268
16945 1 18265908027934450586
17093844 170 18410292493395921473
17876694 64 17749112235304670628
19319366 153 11562058618786014827
20600515 1 18122359118195282321
20691752 17 18265354922030559499
20739085 24 17975439093633211737
20775438 99 17979894057382933127
20905425 154 18412829066367993690
21285901 2 18341058488383936879
22113638 7 17979633756056907815
22182313 1 18341339911214404200
2334 1 18339656567523494923
23419403 2 17773336568319214852
23559900 14 17981887441904951154
238 59 17838331878638864621
2748010 2 18267321857937461554
3052486 1 18261120672755365868
34934 24 17687464976536455904
484989 97 17541119571410854545
495365 180 17907841930274428648
5939293 188 17833844037272519579
81228 2 18335998531304125329
9862522 239 18130211761985572946

> <PUBCHEM_SHAPE_MULTIPOLES>
520.43
6.75
4.83
1.67
2.4
3.86
-0.36
0.55
2.09
-4.76
-1.58
0.27
-0.35
1.97

> <PUBCHEM_SHAPE_SELFOVERLAP>
1125.682

> <PUBCHEM_SHAPE_VOLUME>
286.6

> <PUBCHEM_COORDINATE_TYPE>
2
5
10

$$$$
