5396547
  -OEChem-01171809523D

 44 47  0     0  0  0  0  0  0999 V2000
   -2.6933   -0.3253   -0.6491 O   0  0  0  0  0  0  0  0  0  0  0  0
    0.7652   -3.4919   -0.0865 O   0  0  0  0  0  0  0  0  0  0  0  0
    3.2992   -2.6773    0.1764 N   0  0  0  0  0  0  0  0  0  0  0  0
    4.6206   -2.5349    0.3677 N   0  0  0  0  0  0  0  0  0  0  0  0
    2.6935   -1.4424    0.0589 C   0  0  0  0  0  0  0  0  0  0  0  0
    3.8055   -0.4643    0.1524 C   0  0  0  0  0  0  0  0  0  0  0  0
    1.3958   -1.1710   -0.1120 C   0  0  0  0  0  0  0  0  0  0  0  0
    3.7824    0.9958    0.0734 C   0  0  0  0  0  0  0  0  0  0  0  0
    4.9314   -1.1981    0.3219 C   0  0  0  0  0  0  0  0  0  0  0  0
    0.4300   -2.3165   -0.1806 C   0  0  0  0  0  0  0  0  0  0  0  0
    0.8909    0.1813   -0.2333 C   0  0  0  0  0  0  0  0  0  0  0  0
   -1.3682   -0.6676   -0.4723 C   0  0  0  0  0  0  0  0  0  0  0  0
   -1.0027   -1.9544   -0.3721 C   0  0  0  0  0  0  0  0  0  0  0  0
   -0.4172    0.4164   -0.4034 C   0  0  0  0  0  0  0  0  0  0  0  0
    3.9109    1.6388   -1.1632 C   0  0  0  0  0  0  0  0  0  0  0  0
    3.6317    1.7643    1.2334 C   0  0  0  0  0  0  0  0  0  0  0  0
   -3.3352   -0.1437    0.5979 C   0  0  0  0  0  0  0  0  0  0  0  0
   -4.7699    0.2263    0.3611 C   0  0  0  0  0  0  0  0  0  0  0  0
    3.8892    3.0315   -1.2387 C   0  0  0  0  0  0  0  0  0  0  0  0
    3.6099    3.1570    1.1578 C   0  0  0  0  0  0  0  0  0  0  0  0
    3.7386    3.7905   -0.0783 C   0  0  0  0  0  0  0  0  0  0  0  0
   -5.1242    1.5653    0.2379 C   0  0  0  0  0  0  0  0  0  0  0  0
   -5.7321   -0.7729    0.2662 C   0  0  0  0  0  0  0  0  0  0  0  0
   -6.4579    1.9093    0.0175 C   0  0  0  0  0  0  0  0  0  0  0  0
   -7.0658   -0.4287    0.0456 C   0  0  0  0  0  0  0  0  0  0  0  0
   -7.4285    0.9125   -0.0787 C   0  0  0  0  0  0  0  0  0  0  0  0
    2.8031   -3.5540    0.2441 H   0  0  0  0  0  0  0  0  0  0  0  0
    5.9585   -0.8800    0.4035 H   0  0  0  0  0  0  0  0  0  0  0  0
    5.2995   -3.2525    0.1540 H   0  0  0  0  0  0  0  0  0  0  0  0
    1.4916    1.0668   -0.1973 H   0  0  0  0  0  0  0  0  0  0  0  0
   -1.7239   -2.7623   -0.4264 H   0  0  0  0  0  0  0  0  0  0  0  0
   -0.7863    1.4332   -0.4944 H   0  0  0  0  0  0  0  0  0  0  0  0
    4.0281    1.0623   -2.0780 H   0  0  0  0  0  0  0  0  0  0  0  0
    3.5290    1.2866    2.2050 H   0  0  0  0  0  0  0  0  0  0  0  0
   -2.8445    0.6487    1.1798 H   0  0  0  0  0  0  0  0  0  0  0  0
   -3.2892   -1.0625    1.1989 H   0  0  0  0  0  0  0  0  0  0  0  0
    3.9888    3.5249   -2.2011 H   0  0  0  0  0  0  0  0  0  0  0  0
    3.4921    3.7483    2.0612 H   0  0  0  0  0  0  0  0  0  0  0  0
    3.7212    4.8749   -0.1371 H   0  0  0  0  0  0  0  0  0  0  0  0
   -4.3758    2.3498    0.3087 H   0  0  0  0  0  0  0  0  0  0  0  0
   -5.4603   -1.8208    0.3591 H   0  0  0  0  0  0  0  0  0  0  0  0
   -6.7403    2.9535   -0.0800 H   0  0  0  0  0  0  0  0  0  0  0  0
   -7.8217   -1.2049   -0.0301 H   0  0  0  0  0  0  0  0  0  0  0  0
   -8.4669    1.1804   -0.2508 H   0  0  0  0  0  0  0  0  0  0  0  0
  1 12  1  0  0  0  0
  1 17  1  0  0  0  0
  2 10  2  0  0  0  0
  3  4  1  0  0  0  0
  3  5  1  0  0  0  0
  3 27  1  0  0  0  0
  4  9  1  0  0  0  0
  4 29  1  0  0  0  0
  5  6  1  0  0  0  0
  5  7  2  0  0  0  0
  6  8  1  0  0  0  0
  6  9  2  0  0  0  0
  7 10  1  0  0  0  0
  7 11  1  0  0  0  0
  8 15  2  0  0  0  0
  8 16  1  0  0  0  0
  9 28  1  0  0  0  0
 10 13  1  0  0  0  0
 11 14  2  0  0  0  0
 11 30  1  0  0  0  0
 12 13  2  0  0  0  0
 12 14  1  0  0  0  0
 13 31  1  0  0  0  0
 14 32  1  0  0  0  0
 15 19  1  0  0  0  0
 15 33  1  0  0  0  0
 16 20  2  0  0  0  0
 16 34  1  0  0  0  0
 17 18  1  0  0  0  0
 17 35  1  0  0  0  0
 17 36  1  0  0  0  0
 18 22  2  0  0  0  0
 18 23  1  0  0  0  0
 19 21  2  0  0  0  0
 19 37  1  0  0  0  0
 20 21  1  0  0  0  0
 20 38  1  0  0  0  0
 21 39  1  0  0  0  0
 22 24  1  0  0  0  0
 22 40  1  0  0  0  0
 23 25  2  0  0  0  0
 23 41  1  0  0  0  0
 24 26  2  0  0  0  0
 24 42  1  0  0  0  0
 25 26  1  0  0  0  0
 25 43  1  0  0  0  0
 26 44  1  0  0  0  0
M  END
> <PUBCHEM_COMPOUND_CID>
5396547

> <PUBCHEM_CONFORMER_RMSD>
0.8

> <PUBCHEM_CONFORMER_DIVERSEORDER>
1
5
6
2
3
4

> <PUBCHEM_MMFF94_PARTIAL_CHARGES>
42
1 -0.36
10 0.54
11 -0.15
12 0.08
13 -0.14
14 -0.15
15 -0.15
16 -0.15
17 0.42
18 -0.14
19 -0.15
2 -0.57
20 -0.15
21 -0.15
22 -0.15
23 -0.15
24 -0.15
25 -0.15
26 -0.15
27 0.4
28 0.15
29 0.4
3 -0.5
30 0.15
31 0.15
32 0.15
33 0.15
34 0.15
37 0.15
38 0.15
39 0.15
4 -0.5
40 0.15
41 0.15
42 0.15
43 0.15
44 0.15
5 0.1
6 -0.03
7 0.01
8 0.03
9 -0.05

> <PUBCHEM_EFFECTIVE_ROTOR_COUNT>
4.4

> <PUBCHEM_PHARMACOPHORE_FEATURES>
8
1 1 acceptor
1 2 acceptor
1 3 donor
1 4 donor
5 3 4 5 6 9 rings
6 18 22 23 24 25 26 rings
6 7 10 11 12 13 14 rings
6 8 15 16 19 20 21 rings

> <PUBCHEM_HEAVY_ATOM_COUNT>
26

> <PUBCHEM_ATOM_DEF_STEREO_COUNT>
0

> <PUBCHEM_ATOM_UDEF_STEREO_COUNT>
0

> <PUBCHEM_BOND_DEF_STEREO_COUNT>
1

> <PUBCHEM_BOND_UDEF_STEREO_COUNT>
0

> <PUBCHEM_ISOTOPIC_ATOM_COUNT>
0

> <PUBCHEM_COMPONENT_COUNT>
1

> <PUBCHEM_CACTVS_TAUTO_COUNT>
5

> <PUBCHEM_CONFORMER_ID>
0052584300000001

> <PUBCHEM_MMFF94_ENERGY>
116.3783

> <PUBCHEM_FEATURE_SELFOVERLAP>
42.271

> <PUBCHEM_SHAPE_FINGERPRINT>
10050765 1 18338517568130611606
10162869 55 18341878715426352679
10165383 225 18260837050944308964
10411042 1 17978510828663891310
10763959 59 18339646624663486111
10835480 77 18336823097049330653
11045977 3 18114189618105355915
1200032 147 17605281868819135348
12422481 6 17676202477306924533
12616971 3 18130496475241167415
13140716 1 18336823195348372738
13533116 47 18410013230053100593
13540713 5 18196918075923720166
13561361 72 17895746293073054421
13785724 45 17980767039013201438
13878862 14 18336809940688758197
13965767 371 18044355348886354156
14251764 75 18119812671099814724
14429380 56 18337940239359231413
14528608 73 18342459261818431469
14790565 3 18340767139156561087
14849402 71 18409169909362236220
15348495 7 18187090563711088267
15475509 35 16516233047294301618
16120349 18 18410570661975866437
17810953 82 18410574015580647868
17844677 252 18410862019181740641
19301679 30 17832133923990594858
19427546 62 18410013251723752447
20567600 234 18260268590352355629
21033648 29 17168412810416375071
21049683 118 18115852161206413147
21133410 127 17968652856180194340
21315763 129 18337671893638633997
21315764 268 18335698313332916117
21641784 216 16200163066907909377
22122407 14 18271537403410790217
23559900 14 18339641144454424491
23569914 2 17612259270661769749
23845131 108 18261956370249422234
245318 6 17825122642543915053
249057 25 17846221021197984539
249057 3 18272089379538296462
255183 451 17841440232893261046
3178227 256 18334293124556029122
335352 9 18411703180184790830
3411729 13 18336263530680533240
34797466 226 17989215837232689015
350125 39 18409167688858921596
397830 11 17895489132464232201
4073 2 18040723601565230547
437795 163 18196367255564675871
4625314 4 18411698756674417959
5104073 3 18260824951156292307
513532 50 18060148652181739140
57527573 199 17414972911509903520
67856867 119 18411138005311306465
9849439 229 18124587850262535856
9999458 23 18334013869961404782

> <PUBCHEM_SHAPE_MULTIPOLES>
513.37
16.91
3.88
0.91
32.99
0.9
0
7.83
-1.26
-6.45
-0.03
-0.78
0.5
-0.42

> <PUBCHEM_SHAPE_SELFOVERLAP>
1136.707

> <PUBCHEM_SHAPE_VOLUME>
273.6

> <PUBCHEM_COORDINATE_TYPE>
2
5
10

$$$$
