1249317
  -OEChem-01171809313D

 52 55  0     0  0  0  0  0  0999 V2000
   -2.4962    1.7218    0.2019 O   0  0  0  0  0  0  0  0  0  0  0  0
   -0.0771   -2.2260    0.2709 O   0  0  0  0  0  0  0  0  0  0  0  0
    1.9012    1.7974   -1.7159 O   0  0  0  0  0  0  0  0  0  0  0  0
   -4.7736    1.8646   -0.1019 O   0  0  0  0  0  0  0  0  0  0  0  0
    3.6109    2.9602   -0.7041 O   0  0  0  0  0  0  0  0  0  0  0  0
   -0.8940   -4.2939    0.0234 N   0  0  0  0  0  0  0  0  0  0  0  0
    0.4730   -4.3935    0.2039 N   0  0  0  0  0  0  0  0  0  0  0  0
   -0.9799    3.5373    0.5307 C   0  0  0  0  0  0  0  0  0  0  0  0
   -2.4114    3.1470    0.3080 C   0  0  0  0  0  0  0  0  0  0  0  0
   -2.4225   -2.3241   -0.0548 C   0  0  0  0  0  0  0  0  0  0  0  0
   -3.6932   -0.2609   -0.0925 C   0  0  0  0  0  0  0  0  0  0  0  0
    0.0216    2.9488   -0.2336 C   0  0  0  0  0  0  0  0  0  0  0  0
   -2.4745   -0.9284    0.0299 C   0  0  0  0  0  0  0  0  0  0  0  0
    1.3523    3.3113   -0.0255 C   0  0  0  0  0  0  0  0  0  0  0  0
   -0.6675    4.4834    1.5005 C   0  0  0  0  0  0  0  0  0  0  0  0
   -1.1703   -3.0116    0.0701 C   0  0  0  0  0  0  0  0  0  0  0  0
   -3.6040   -3.0440   -0.2633 C   0  0  0  0  0  0  0  0  0  0  0  0
   -4.8672   -0.9851   -0.3005 C   0  0  0  0  0  0  0  0  0  0  0  0
   -3.7399    1.1900   -0.0043 C   0  0  0  0  0  0  0  0  0  0  0  0
    1.6731    4.2599    0.9456 C   0  0  0  0  0  0  0  0  0  0  0  0
    0.6631    4.8460    1.7086 C   0  0  0  0  0  0  0  0  0  0  0  0
   -4.8225   -2.3766   -0.3857 C   0  0  0  0  0  0  0  0  0  0  0  0
    0.8995   -3.1660    0.3426 C   0  0  0  0  0  0  0  0  0  0  0  0
    2.2344   -2.6634    0.5583 C   0  0  0  0  0  0  0  0  0  0  0  0
    2.4060    2.7002   -0.8203 C   0  0  0  0  0  0  0  0  0  0  0  0
    2.4512   -1.2906    0.6785 C   0  0  0  0  0  0  0  0  0  0  0  0
    3.3083   -3.5493    0.6461 C   0  0  0  0  0  0  0  0  0  0  0  0
    3.7418   -0.8039    0.8862 C   0  0  0  0  0  0  0  0  0  0  0  0
    4.5988   -3.0625    0.8539 C   0  0  0  0  0  0  0  0  0  0  0  0
    4.8155   -1.6898    0.9739 C   0  0  0  0  0  0  0  0  0  0  0  0
    2.8439    1.1258   -2.5584 C   0  0  0  0  0  0  0  0  0  0  0  0
    2.0992    0.1759   -3.4721 C   0  0  0  0  0  0  0  0  0  0  0  0
   -3.0394    3.4744    1.1448 H   0  0  0  0  0  0  0  0  0  0  0  0
   -2.7725    3.6102   -0.6179 H   0  0  0  0  0  0  0  0  0  0  0  0
   -0.2587    2.2198   -0.9891 H   0  0  0  0  0  0  0  0  0  0  0  0
   -1.5556   -0.3708    0.1911 H   0  0  0  0  0  0  0  0  0  0  0  0
   -1.4448    4.9484    2.1005 H   0  0  0  0  0  0  0  0  0  0  0  0
   -3.5941   -4.1293   -0.3335 H   0  0  0  0  0  0  0  0  0  0  0  0
   -5.8270   -0.4849   -0.3987 H   0  0  0  0  0  0  0  0  0  0  0  0
    2.7033    4.5564    1.1240 H   0  0  0  0  0  0  0  0  0  0  0  0
    0.9128    5.5847    2.4645 H   0  0  0  0  0  0  0  0  0  0  0  0
   -5.7367   -2.9403   -0.5476 H   0  0  0  0  0  0  0  0  0  0  0  0
    1.6408   -0.5688    0.6142 H   0  0  0  0  0  0  0  0  0  0  0  0
    3.1627   -4.6230    0.5552 H   0  0  0  0  0  0  0  0  0  0  0  0
    3.9111    0.2649    0.9791 H   0  0  0  0  0  0  0  0  0  0  0  0
    5.4352   -3.7520    0.9222 H   0  0  0  0  0  0  0  0  0  0  0  0
    5.8204   -1.3106    1.1353 H   0  0  0  0  0  0  0  0  0  0  0  0
    3.5551    0.5679   -1.9406 H   0  0  0  0  0  0  0  0  0  0  0  0
    3.3868    1.8659   -3.1566 H   0  0  0  0  0  0  0  0  0  0  0  0
    1.3715    0.7197   -4.0832 H   0  0  0  0  0  0  0  0  0  0  0  0
    1.5365   -0.5587   -2.8863 H   0  0  0  0  0  0  0  0  0  0  0  0
    2.7907   -0.3542   -4.1329 H   0  0  0  0  0  0  0  0  0  0  0  0
  1  9  1  0  0  0  0
  1 19  1  0  0  0  0
  2 16  1  0  0  0  0
  2 23  1  0  0  0  0
  3 25  1  0  0  0  0
  3 31  1  0  0  0  0
  4 19  2  0  0  0  0
  5 25  2  0  0  0  0
  6  7  1  0  0  0  0
  6 16  2  0  0  0  0
  7 23  2  0  0  0  0
  8  9  1  0  0  0  0
  8 12  2  0  0  0  0
  8 15  1  0  0  0  0
  9 33  1  0  0  0  0
  9 34  1  0  0  0  0
 10 13  2  0  0  0  0
 10 16  1  0  0  0  0
 10 17  1  0  0  0  0
 11 13  1  0  0  0  0
 11 18  2  0  0  0  0
 11 19  1  0  0  0  0
 12 14  1  0  0  0  0
 12 35  1  0  0  0  0
 13 36  1  0  0  0  0
 14 20  2  0  0  0  0
 14 25  1  0  0  0  0
 15 21  2  0  0  0  0
 15 37  1  0  0  0  0
 17 22  2  0  0  0  0
 17 38  1  0  0  0  0
 18 22  1  0  0  0  0
 18 39  1  0  0  0  0
 20 21  1  0  0  0  0
 20 40  1  0  0  0  0
 21 41  1  0  0  0  0
 22 42  1  0  0  0  0
 23 24  1  0  0  0  0
 24 26  2  0  0  0  0
 24 27  1  0  0  0  0
 26 28  1  0  0  0  0
 26 43  1  0  0  0  0
 27 29  2  0  0  0  0
 27 44  1  0  0  0  0
 28 30  2  0  0  0  0
 28 45  1  0  0  0  0
 29 30  1  0  0  0  0
 29 46  1  0  0  0  0
 30 47  1  0  0  0  0
 31 32  1  0  0  0  0
 31 48  1  0  0  0  0
 31 49  1  0  0  0  0
 32 50  1  0  0  0  0
 32 51  1  0  0  0  0
 32 52  1  0  0  0  0
M  END
> <PUBCHEM_COMPOUND_CID>
1249317

> <PUBCHEM_CONFORMER_RMSD>
1

> <PUBCHEM_CONFORMER_DIVERSEORDER>
1
51
44
24
43
79
71
14
56
18
69
59
68
37
73
54
36
62
34
35
53
75
27
46
7
20
45
26
23
5
47
38
21
41
61
60
77
8
9
16
63
70
57
19
28
11
10
33
15
13
31
52
65
17
3
58
55
67
30
78
72
6
4
25
12
32
22
42
74
40
39
64
49
29
66
80
50
48
76
2

> <PUBCHEM_MMFF94_PARTIAL_CHARGES>
44
1 -0.43
10 0.05
11 0.09
12 -0.15
13 -0.15
14 0.09
15 -0.15
16 0.43
17 -0.15
18 -0.15
19 0.63
2 -0.28
20 -0.15
21 -0.15
22 -0.15
23 0.43
24 0.05
25 0.63
26 -0.15
27 -0.15
28 -0.15
29 -0.15
3 -0.43
30 -0.15
31 0.28
35 0.15
36 0.15
37 0.15
38 0.15
39 0.15
4 -0.57
40 0.15
41 0.15
42 0.15
43 0.15
44 0.15
45 0.15
46 0.15
47 0.15
5 -0.57
6 -0.34
7 -0.34
8 -0.14
9 0.42

> <PUBCHEM_EFFECTIVE_ROTOR_COUNT>
9

> <PUBCHEM_PHARMACOPHORE_FEATURES>
6
1 4 acceptor
1 5 acceptor
5 2 6 7 16 23 rings
6 10 11 13 17 18 22 rings
6 24 26 27 28 29 30 rings
6 8 12 14 15 20 21 rings

> <PUBCHEM_HEAVY_ATOM_COUNT>
32

> <PUBCHEM_ATOM_DEF_STEREO_COUNT>
0

> <PUBCHEM_ATOM_UDEF_STEREO_COUNT>
0

> <PUBCHEM_BOND_DEF_STEREO_COUNT>
0

> <PUBCHEM_BOND_UDEF_STEREO_COUNT>
0

> <PUBCHEM_ISOTOPIC_ATOM_COUNT>
0

> <PUBCHEM_COMPONENT_COUNT>
1

> <PUBCHEM_CACTVS_TAUTO_COUNT>
1

> <PUBCHEM_CONFORMER_ID>
0013102500000001

> <PUBCHEM_MMFF94_ENERGY>
78.3401

> <PUBCHEM_FEATURE_SELFOVERLAP>
30.449

> <PUBCHEM_SHAPE_FINGERPRINT>
10049733 16 18121521067999327822
10439779 11 18194671786457519664
1100329 8 18338796711345677865
114674 6 17765440129096202729
11513181 2 18271806787864924934
12788726 201 18267884816902758772
1361 2 17185590218162958945
13615921 28 18339911649963121445
13642711 20 16683696716525575175
138480 1 18339352071669757891
144659 178 18338797806266672866
14725015 67 17402616740784613470
15320467 1 18194956581095783952
15351339 4 18335985384714712688
15400415 2 16971950694329530752
15927050 60 17620467352654029071
17627616 140 18335706091159401624
18336668 15 18113896035789462702
19930381 70 18193829569209272827
20531524 4 16608591293361045660
20764821 26 18410576171464105745
21795232 40 17899116240361230236
22113638 7 18192429658662206349
22121540 332 18060123338082209650
238918 7 16616462688704503316
325973 47 18410570716760817859
44344687 77 16543257213650694751
45266715 3 17477460463381119311
463206 1 18338238159122347793
474144 1 17970931988958567140
56611832 30 17913766391394587327
581034 39 17330005590435289094
6287921 2 16392133085211543492
653340 110 17692236453258026650

> <PUBCHEM_SHAPE_MULTIPOLES>
619.24
8.77
8.39
1.67
2.54
4.31
1.81
-6.18
-0.27
-1.12
-3.04
-2.09
1.31
-2.36

> <PUBCHEM_SHAPE_SELFOVERLAP>
1357.46

> <PUBCHEM_SHAPE_VOLUME>
335.5

> <PUBCHEM_COORDINATE_TYPE>
2
5
10

$$$$
