835162
  -OEChem-01171809193D

 38 40  0     0  0  0  0  0  0999 V2000
   -2.0955   -3.5082   -0.6910 S   0  0  0  0  0  0  0  0  0  0  0  0
   -0.2866    2.2142   -1.6222 F   0  0  0  0  0  0  0  0  0  0  0  0
    0.1392   -1.9637   -0.4574 O   0  0  0  0  0  0  0  0  0  0  0  0
   -3.6950   -1.0277    0.2479 O   0  0  0  0  0  0  0  0  0  0  0  0
   -2.0399    0.1883   -0.8929 N   0  0  0  0  0  0  0  0  0  0  0  0
    0.9255   -2.6499    1.5213 N   0  0  0  0  0  0  0  0  0  0  0  0
   -0.2324   -3.3561    1.2536 N   0  0  0  0  0  0  0  0  0  0  0  0
    2.1381   -0.8926    0.2316 C   0  0  0  0  0  0  0  0  0  0  0  0
    4.1511    0.9689   -0.2840 C   0  0  0  0  0  0  0  0  0  0  0  0
    2.1133   -0.1469   -0.9470 C   0  0  0  0  0  0  0  0  0  0  0  0
    3.1692   -0.7073    1.1525 C   0  0  0  0  0  0  0  0  0  0  0  0
    3.1199    0.7838   -1.2049 C   0  0  0  0  0  0  0  0  0  0  0  0
    4.1756    0.2235    0.8948 C   0  0  0  0  0  0  0  0  0  0  0  0
    1.0975   -1.8555    0.4978 C   0  0  0  0  0  0  0  0  0  0  0  0
   -2.0006    1.4137   -0.1853 C   0  0  0  0  0  0  0  0  0  0  0  0
    5.2272    1.9640   -0.5595 C   0  0  0  0  0  0  0  0  0  0  0  0
   -2.6076   -2.0365   -1.6195 C   0  0  0  0  0  0  0  0  0  0  0  0
   -2.8589   -0.9068   -0.6439 C   0  0  0  0  0  0  0  0  0  0  0  0
   -1.1110    2.3985   -0.5808 C   0  0  0  0  0  0  0  0  0  0  0  0
   -2.8544    1.5999    0.8891 C   0  0  0  0  0  0  0  0  0  0  0  0
   -0.6566   -2.9229    0.0894 C   0  0  0  0  0  0  0  0  0  0  0  0
   -1.0739    3.6048    0.1186 C   0  0  0  0  0  0  0  0  0  0  0  0
   -2.8173    2.8062    1.5884 C   0  0  0  0  0  0  0  0  0  0  0  0
   -1.9269    3.8085    1.2033 C   0  0  0  0  0  0  0  0  0  0  0  0
    1.3260   -0.2623   -1.6877 H   0  0  0  0  0  0  0  0  0  0  0  0
    3.2081   -1.2771    2.0777 H   0  0  0  0  0  0  0  0  0  0  0  0
    3.0883    1.3606   -2.1255 H   0  0  0  0  0  0  0  0  0  0  0  0
    4.9727    0.3602    1.6209 H   0  0  0  0  0  0  0  0  0  0  0  0
   -3.5428   -2.2486   -2.1470 H   0  0  0  0  0  0  0  0  0  0  0  0
   -1.8508   -1.7871   -2.3689 H   0  0  0  0  0  0  0  0  0  0  0  0
    6.1747    1.6583   -0.1028 H   0  0  0  0  0  0  0  0  0  0  0  0
    5.4077    2.0629   -1.6354 H   0  0  0  0  0  0  0  0  0  0  0  0
    4.9448    2.9429   -0.1596 H   0  0  0  0  0  0  0  0  0  0  0  0
   -1.3845    0.1257   -1.6688 H   0  0  0  0  0  0  0  0  0  0  0  0
   -3.5707    0.8763    1.2483 H   0  0  0  0  0  0  0  0  0  0  0  0
   -0.3806    4.3849   -0.1813 H   0  0  0  0  0  0  0  0  0  0  0  0
   -3.4811    2.9665    2.4332 H   0  0  0  0  0  0  0  0  0  0  0  0
   -1.8979    4.7477    1.7479 H   0  0  0  0  0  0  0  0  0  0  0  0
  1 17  1  0  0  0  0
  1 21  1  0  0  0  0
  2 19  1  0  0  0  0
  3 14  1  0  0  0  0
  3 21  1  0  0  0  0
  4 18  2  0  0  0  0
  5 15  1  0  0  0  0
  5 18  1  0  0  0  0
  5 34  1  0  0  0  0
  6  7  1  0  0  0  0
  6 14  2  0  0  0  0
  7 21  2  0  0  0  0
  8 10  2  0  0  0  0
  8 11  1  0  0  0  0
  8 14  1  0  0  0  0
  9 12  2  0  0  0  0
  9 13  1  0  0  0  0
  9 16  1  0  0  0  0
 10 12  1  0  0  0  0
 10 25  1  0  0  0  0
 11 13  2  0  0  0  0
 11 26  1  0  0  0  0
 12 27  1  0  0  0  0
 13 28  1  0  0  0  0
 15 19  1  0  0  0  0
 15 20  2  0  0  0  0
 16 31  1  0  0  0  0
 16 32  1  0  0  0  0
 16 33  1  0  0  0  0
 17 18  1  0  0  0  0
 17 29  1  0  0  0  0
 17 30  1  0  0  0  0
 19 22  2  0  0  0  0
 20 23  1  0  0  0  0
 20 35  1  0  0  0  0
 22 24  1  0  0  0  0
 22 36  1  0  0  0  0
 23 24  2  0  0  0  0
 23 37  1  0  0  0  0
 24 38  1  0  0  0  0
M  END
> <PUBCHEM_COMPOUND_CID>
835162

> <PUBCHEM_CONFORMER_RMSD>
0.8

> <PUBCHEM_CONFORMER_DIVERSEORDER>
1
234
31
141
35
258
108
221
118
263
219
116
206
100
223
64
18
88
183
77
261
71
129
30
240
44
124
189
117
34
163
225
74
152
67
45
120
16
158
46
165
251
69
98
43
13
135
166
132
209
266
153
128
201
252
143
151
180
109
191
228
211
253
131
10
12
55
155
87
200
29
144
177
262
242
245
210
255
136
121
89
193
66
60
198
32
39
91
40
25
119
38
52
241
231
204
220
102
139
7
215
82
53
107
62
115
181
145
224
42
192
164
140
137
150
123
84
236
112
15
173
178
56
47
113
160
134
260
227
188
171
4
76
205
185
105
186
142
63
233
214
212
249
248
202
130
216
27
235
19
247
22
127
23
48
264
190
265
174
154
182
213
101
78
58
51
238
194
54
199
73
83
126
169
8
161
239
250
167
14
230
97
222
125
254
138
203
157
93
257
244
226
81
26
122
195
50
33
90
106
229
70
197
218
168
49
92
187
11
184
148
179
79
37
162
5
259
99
21
243
57
59
85
208
95
75
68
156
159
232
3
86
17
96
2
196
110
80
237
6
103
146
170
61
41
65
94
246
72
133
147
114
36
104
175
176
149
28
111
20
217
9
24
172
207
256

> <PUBCHEM_MMFF94_PARTIAL_CHARGES>
33
1 -0.29
10 -0.15
11 -0.15
12 -0.15
13 -0.15
14 0.43
15 0.12
16 0.14
17 0.29
18 0.57
19 0.19
2 -0.19
20 -0.15
21 0.53
22 -0.15
23 -0.15
24 -0.15
25 0.15
26 0.15
27 0.15
28 0.15
3 -0.28
34 0.37
35 0.15
36 0.15
37 0.15
38 0.15
4 -0.57
5 -0.55
6 -0.34
7 -0.34
8 0.05
9 -0.14

> <PUBCHEM_EFFECTIVE_ROTOR_COUNT>
6

> <PUBCHEM_PHARMACOPHORE_FEATURES>
5
1 4 acceptor
1 5 donor
5 3 6 7 14 21 rings
6 15 19 20 22 23 24 rings
6 8 9 10 11 12 13 rings

> <PUBCHEM_HEAVY_ATOM_COUNT>
24

> <PUBCHEM_ATOM_DEF_STEREO_COUNT>
0

> <PUBCHEM_ATOM_UDEF_STEREO_COUNT>
0

> <PUBCHEM_BOND_DEF_STEREO_COUNT>
0

> <PUBCHEM_BOND_UDEF_STEREO_COUNT>
0

> <PUBCHEM_ISOTOPIC_ATOM_COUNT>
0

> <PUBCHEM_COMPONENT_COUNT>
1

> <PUBCHEM_CACTVS_TAUTO_COUNT>
2

> <PUBCHEM_CONFORMER_ID>
000CBE5A00000001

> <PUBCHEM_MMFF94_ENERGY>
51.7384

> <PUBCHEM_FEATURE_SELFOVERLAP>
25.373

> <PUBCHEM_SHAPE_FINGERPRINT>
10006869 2 18410857616998881947
10291535 26 18194970862415768584
10454371 7 18194699283477257884
10871710 139 18412827993084897637
1100329 8 18122068860564468931
12156800 1 15620373109016792545
12173636 292 18057036905078103233
12553582 1 18269268131205504863
12633257 1 16677269465897609593
12788726 201 18339927120482774092
128993 33 18053949450345858873
13009979 54 18045466855820004386
13032168 30 18337951298124733428
13140716 1 17977392959627590618
13615921 28 17981040035591861221
14081887 123 18271229616936636624
14123250 116 18411702079950216440
14955137 171 18197233648788244171
151778 21 17622457042764883473
15420108 30 17618196439887165210
17818456 19 18265593499396391186
18785283 64 17188706242895772025
20465049 17 17551820026313005117
20715895 44 17537970625648379309
20775438 99 16108922649709516438
23558518 356 18338513024097300034
350125 39 18124035632967909831
3610482 184 17972635240683231084
392239 28 18123747814725579472
469060 322 18113910381006838857
5048184 11 18268150855556634432
5312544 6 17979913814021854717
57527358 35 14682645559008553047
6287921 2 18121514465631837966
6438718 38 18202289133915492758
7097593 13 17540534617591233875
81228 2 18336833107937121878

> <PUBCHEM_SHAPE_MULTIPOLES>
463.8
7.36
5.24
1.45
8.71
0.82
0.06
2.82
-0.38
-4.88
1.17
-0.11
-0.02
-2.14

> <PUBCHEM_SHAPE_SELFOVERLAP>
992.386

> <PUBCHEM_SHAPE_VOLUME>
260.5

> <PUBCHEM_COORDINATE_TYPE>
2
5
10

$$$$
