12006167
  -OEChem-01171809353D

 57 60  0     1  0  0  0  0  0999 V2000
    4.5655   -0.9838    1.3460 S   0  0  0  0  0  0  0  0  0  0  0  0
   -5.8464   -1.6384   -0.7290 S   0  0  0  0  0  0  0  0  0  0  0  0
    4.4584   -0.5472    2.7212 O   0  0  0  0  0  0  0  0  0  0  0  0
    5.4020   -2.1069    0.9821 O   0  0  0  0  0  0  0  0  0  0  0  0
   -1.1590   -2.3953   -1.8565 O   0  0  0  0  0  0  0  0  0  0  0  0
    4.9809    0.3586    0.3650 N   0  0  0  0  0  0  0  0  0  0  0  0
   -2.0101   -1.9299    0.2474 N   0  0  0  0  0  0  0  0  0  0  0  0
   -3.3033   -2.1524   -0.1647 N   0  0  0  0  0  0  0  0  0  0  0  0
   -4.1432    0.0066    0.2938 N   0  0  0  0  0  0  0  0  0  0  0  0
    5.9730    1.2195   -1.7423 C   0  0  2  0  0  0  0  0  0  0  0  0
    4.7800    2.7772   -0.1069 C   0  0  2  0  0  0  0  0  0  0  0  0
    5.1563    2.5096   -1.5720 C   0  0  0  0  0  0  0  0  0  0  0  0
    5.2670    0.0390   -1.0652 C   0  0  0  0  0  0  0  0  0  0  0  0
    4.0953    1.5516    0.5074 C   0  0  0  0  0  0  0  0  0  0  0  0
    7.4083    1.3807   -1.2323 C   0  0  0  0  0  0  0  0  0  0  0  0
    3.8788    4.0062    0.0005 C   0  0  0  0  0  0  0  0  0  0  0  0
    2.9345   -1.3048    0.7522 C   0  0  0  0  0  0  0  0  0  0  0  0
    2.7587   -2.1771   -0.3097 C   0  0  0  0  0  0  0  0  0  0  0  0
    1.8567   -0.6792    1.3575 C   0  0  0  0  0  0  0  0  0  0  0  0
    1.4698   -2.4306   -0.7793 C   0  0  0  0  0  0  0  0  0  0  0  0
    0.5679   -0.9327    0.8880 C   0  0  0  0  0  0  0  0  0  0  0  0
    0.3745   -1.8083   -0.1804 C   0  0  0  0  0  0  0  0  0  0  0  0
   -0.9691   -2.0726   -0.6700 C   0  0  0  0  0  0  0  0  0  0  0  0
   -5.3422    0.6936    0.1724 C   0  0  0  0  0  0  0  0  0  0  0  0
   -6.3981   -0.0447   -0.3705 C   0  0  0  0  0  0  0  0  0  0  0  0
   -4.2942   -1.2197   -0.1468 C   0  0  0  0  0  0  0  0  0  0  0  0
   -5.5737    2.0364    0.5416 C   0  0  0  0  0  0  0  0  0  0  0  0
   -7.6737    0.5119   -0.5563 C   0  0  0  0  0  0  0  0  0  0  0  0
   -6.8413    2.5969    0.3599 C   0  0  0  0  0  0  0  0  0  0  0  0
   -7.8762    1.8427   -0.1823 C   0  0  0  0  0  0  0  0  0  0  0  0
   -4.4972    2.8932    1.1294 C   0  0  0  0  0  0  0  0  0  0  0  0
    6.0393    1.0035   -2.8167 H   0  0  0  0  0  0  0  0  0  0  0  0
    5.6973    2.9858    0.4584 H   0  0  0  0  0  0  0  0  0  0  0  0
    4.2393    2.4223   -2.1702 H   0  0  0  0  0  0  0  0  0  0  0  0
    5.7121    3.3630   -1.9792 H   0  0  0  0  0  0  0  0  0  0  0  0
    4.3293   -0.1670   -1.5933 H   0  0  0  0  0  0  0  0  0  0  0  0
    5.9033   -0.8486   -1.1417 H   0  0  0  0  0  0  0  0  0  0  0  0
    3.9018    1.7492    1.5672 H   0  0  0  0  0  0  0  0  0  0  0  0
    3.1397    1.3781    0.0008 H   0  0  0  0  0  0  0  0  0  0  0  0
    7.9915    0.4766   -1.4381 H   0  0  0  0  0  0  0  0  0  0  0  0
    7.4489    1.5630   -0.1541 H   0  0  0  0  0  0  0  0  0  0  0  0
    7.9050    2.2171   -1.7351 H   0  0  0  0  0  0  0  0  0  0  0  0
    4.3763    4.8893   -0.4139 H   0  0  0  0  0  0  0  0  0  0  0  0
    3.6354    4.2188    1.0469 H   0  0  0  0  0  0  0  0  0  0  0  0
    2.9388    3.8607   -0.5426 H   0  0  0  0  0  0  0  0  0  0  0  0
    3.5978   -2.6696   -0.7914 H   0  0  0  0  0  0  0  0  0  0  0  0
    1.9855    0.0110    2.1856 H   0  0  0  0  0  0  0  0  0  0  0  0
    1.3397   -3.1187   -1.6106 H   0  0  0  0  0  0  0  0  0  0  0  0
   -0.2556   -0.4080    1.3638 H   0  0  0  0  0  0  0  0  0  0  0  0
   -1.9022   -1.7196    1.2334 H   0  0  0  0  0  0  0  0  0  0  0  0
   -3.4806   -3.0943   -0.5017 H   0  0  0  0  0  0  0  0  0  0  0  0
   -8.4865   -0.0708   -0.9789 H   0  0  0  0  0  0  0  0  0  0  0  0
   -7.0300    3.6302    0.6413 H   0  0  0  0  0  0  0  0  0  0  0  0
   -8.8562    2.2927   -0.3175 H   0  0  0  0  0  0  0  0  0  0  0  0
   -4.7882    3.2330    2.1288 H   0  0  0  0  0  0  0  0  0  0  0  0
   -4.3214    3.7678    0.4943 H   0  0  0  0  0  0  0  0  0  0  0  0
   -3.5495    2.3541    1.2235 H   0  0  0  0  0  0  0  0  0  0  0  0
  1  3  2  0  0  0  0
  1  4  2  0  0  0  0
  1  6  1  0  0  0  0
  1 17  1  0  0  0  0
  2 25  1  0  0  0  0
  2 26  1  0  0  0  0
  5 23  2  0  0  0  0
  6 13  1  0  0  0  0
  6 14  1  0  0  0  0
  7  8  1  0  0  0  0
  7 23  1  0  0  0  0
  7 50  1  0  0  0  0
  8 26  1  0  0  0  0
  8 51  1  0  0  0  0
  9 24  1  0  0  0  0
  9 26  2  0  0  0  0
 10 12  1  0  0  0  0
 10 13  1  0  0  0  0
 10 15  1  0  0  0  0
 10 32  1  0  0  0  0
 11 12  1  0  0  0  0
 11 14  1  0  0  0  0
 11 16  1  0  0  0  0
 11 33  1  0  0  0  0
 12 34  1  0  0  0  0
 12 35  1  0  0  0  0
 13 36  1  0  0  0  0
 13 37  1  0  0  0  0
 14 38  1  0  0  0  0
 14 39  1  0  0  0  0
 15 40  1  0  0  0  0
 15 41  1  0  0  0  0
 15 42  1  0  0  0  0
 16 43  1  0  0  0  0
 16 44  1  0  0  0  0
 16 45  1  0  0  0  0
 17 18  2  0  0  0  0
 17 19  1  0  0  0  0
 18 20  1  0  0  0  0
 18 46  1  0  0  0  0
 19 21  2  0  0  0  0
 19 47  1  0  0  0  0
 20 22  2  0  0  0  0
 20 48  1  0  0  0  0
 21 22  1  0  0  0  0
 21 49  1  0  0  0  0
 22 23  1  0  0  0  0
 24 25  1  0  0  0  0
 24 27  2  0  0  0  0
 25 28  2  0  0  0  0
 27 29  1  0  0  0  0
 27 31  1  0  0  0  0
 28 30  1  0  0  0  0
 28 52  1  0  0  0  0
 29 30  2  0  0  0  0
 29 53  1  0  0  0  0
 30 54  1  0  0  0  0
 31 55  1  0  0  0  0
 31 56  1  0  0  0  0
 31 57  1  0  0  0  0
M  END
> <PUBCHEM_COMPOUND_CID>
12006167

> <PUBCHEM_CONFORMER_RMSD>
1

> <PUBCHEM_CONFORMER_DIVERSEORDER>
1
64
143
136
55
82
117
152
38
119
98
15
112
150
144
121
19
110
85
46
77
26
29
145
54
41
50
91
72
37
129
78
53
97
14
45
113
39
142
122
102
105
149
76
23
87
90
95
9
109
131
62
88
2
128
17
80
138
30
75
3
70
8
139
10
71
114
32
133
52
63
42
49
60
36
151
40
35
96
21
47
86
12
146
43
140
27
100
130
118
92
31
79
4
99
57
107
93
69
67
111
20
137
116
16
120
132
103
127
33
73
6
104
25
147
135
22
65
134
5
7
74
24
124
59
68
94
115
51
66
81
34
56
48
11
108
106
141
125
83
84
18
44
28
123
13
126
89
101
61
58
148

> <PUBCHEM_MMFF94_PARTIAL_CHARGES>
35
1 1.45
13 0.36
14 0.36
17 -0.01
18 -0.15
19 -0.15
2 -0.08
20 -0.15
21 -0.15
22 0.09
23 0.54
24 0.23
25 0.04
26 0.46
27 -0.14
28 -0.15
29 -0.15
3 -0.65
30 -0.15
31 0.14
4 -0.65
46 0.15
47 0.15
48 0.15
49 0.15
5 -0.57
50 0.37
51 0.4
52 0.15
53 0.15
54 0.15
6 -0.85
7 -0.41
8 -0.5
9 -0.57

> <PUBCHEM_EFFECTIVE_ROTOR_COUNT>
7.2

> <PUBCHEM_PHARMACOPHORE_FEATURES>
10
1 3 acceptor
1 4 acceptor
1 5 acceptor
1 7 donor
1 8 donor
3 8 9 26 cation
5 2 9 24 25 26 rings
6 17 18 19 20 21 22 rings
6 24 25 27 28 29 30 rings
6 6 10 11 12 13 14 rings

> <PUBCHEM_HEAVY_ATOM_COUNT>
31

> <PUBCHEM_ATOM_DEF_STEREO_COUNT>
0

> <PUBCHEM_ATOM_UDEF_STEREO_COUNT>
2

> <PUBCHEM_BOND_DEF_STEREO_COUNT>
0

> <PUBCHEM_BOND_UDEF_STEREO_COUNT>
0

> <PUBCHEM_ISOTOPIC_ATOM_COUNT>
0

> <PUBCHEM_COMPONENT_COUNT>
1

> <PUBCHEM_CACTVS_TAUTO_COUNT>
4

> <PUBCHEM_CONFORMER_ID>
00B7331700000001

> <PUBCHEM_MMFF94_ENERGY>
60.6582

> <PUBCHEM_FEATURE_SELFOVERLAP>
52.365

> <PUBCHEM_SHAPE_FINGERPRINT>
10 15 18260835891318664139
10190206 1 17774177772251222048
10554248 39 18340190900300416167
10670039 82 17988653990447702216
10673678 19 18343304803208023206
10816530 90 18410576163106247148
10883706 163 18262233310410581245
11578080 2 16950575432228324890
11621639 336 18335985256156994252
11991303 11 16988278789498509311
12013929 112 18199764573983084398
12342043 65 14708311523724281002
12596602 18 17821446872488235251
13751561 76 14417847034645003664
13944108 23 18335707152771224420
14251757 52 18334296474345215542
14347332 77 10231763283895043083
14790565 3 18340206400752360510
14840074 17 18040436607291839365
15001296 14 18337104678424667553
15082195 135 18202006499408232586
15183329 4 18343868818276612169
1577012 14 18408038524729337687
15961568 22 18410014308686348501
16112460 7 18260831479733298425
18335252 114 18411983551238569654
18393751 57 18260552178859417715
19053607 189 18270956835258706449
20058555 10 18410575081112345597
20691028 202 18410288104213787881
22122407 14 18335145322848887704
25269216 80 16127511852228421885
2748736 6 18411975845924731053
2838139 119 18341897441029972143
3918712 181 18412542102766333829
394071 54 16370727075788171302
397830 11 17240778306248903779
3986486 107 18337410313688788076
4058900 60 18409455781869149738
4073 2 18260552221345400091
4144715 1 18188502366405912419
4169191 19 18334011697013453797
4197921 191 18408039594197040209
4258327 124 18411422822073351191
44249763 50 17345733279605573535
44555599 121 18408885109822083505
508180 173 18270973452761734968
5104073 3 17531241807201138906
54583773 228 18410569588750929669
5718773 13 9799691485208953807
5911458 16 18334019414442216476
5951187 136 18270127924061781788
59682541 52 15913333468026749110
60123966 16 16271919472074518938
6328613 192 18407762538562439383

> <PUBCHEM_SHAPE_MULTIPOLES>
608.13
23.42
3.99
1.5
22.06
2.32
-0.25
16.31
3.67
-1.08
0.34
-2.47
-0.14
-3.32

> <PUBCHEM_SHAPE_SELFOVERLAP>
1279.286

> <PUBCHEM_SHAPE_VOLUME>
344.9

> <PUBCHEM_COORDINATE_TYPE>
2
5
10

$$$$
