3159246
  -OEChem-01171809473D

 28 29  0     0  0  0  0  0  0999 V2000
   -5.8889   -0.3922    0.8883 Cl  0  0  0  0  0  0  0  0  0  0  0  0
    1.4991   -1.7958   -0.0614 O   0  0  0  0  0  0  0  0  0  0  0  0
    3.7828   -2.0717    0.1165 O   0  0  0  0  0  0  0  0  0  0  0  0
   -3.3308   -1.3794   -0.4789 O   0  0  0  0  0  0  0  0  0  0  0  0
    2.8183    0.0540    0.2645 N   0  0  0  0  0  0  0  0  0  0  0  0
   -2.5997    0.8332   -0.1487 N   0  0  0  0  0  0  0  0  0  0  0  0
    1.5140    0.4929    0.1936 C   0  0  0  0  0  0  0  0  0  0  0  0
    0.7429   -0.6347   -0.0020 C   0  0  0  0  0  0  0  0  0  0  0  0
    3.9594    0.9112    0.4641 C   0  0  0  0  0  0  0  0  0  0  0  0
    0.9650    1.7550    0.2828 C   0  0  0  0  0  0  0  0  0  0  0  0
   -0.6291   -0.5624   -0.1201 C   0  0  0  0  0  0  0  0  0  0  0  0
    2.8132   -1.3230    0.1113 C   0  0  0  0  0  0  0  0  0  0  0  0
   -1.2146    0.7038   -0.0340 C   0  0  0  0  0  0  0  0  0  0  0  0
   -0.4240    1.8529    0.1658 C   0  0  0  0  0  0  0  0  0  0  0  0
    4.5020    1.3782   -0.8729 C   0  0  0  0  0  0  0  0  0  0  0  0
   -3.5492   -0.1778   -0.3481 C   0  0  0  0  0  0  0  0  0  0  0  0
   -4.9605    0.3557   -0.4208 C   0  0  0  0  0  0  0  0  0  0  0  0
    3.6938    1.7578    1.1051 H   0  0  0  0  0  0  0  0  0  0  0  0
    4.7346    0.3327    0.9793 H   0  0  0  0  0  0  0  0  0  0  0  0
    1.5685    2.6420    0.4334 H   0  0  0  0  0  0  0  0  0  0  0  0
   -1.1626   -1.4879   -0.2704 H   0  0  0  0  0  0  0  0  0  0  0  0
   -0.8892    2.8341    0.2305 H   0  0  0  0  0  0  0  0  0  0  0  0
    4.7897    0.5290   -1.5021 H   0  0  0  0  0  0  0  0  0  0  0  0
    3.7566    1.9625   -1.4224 H   0  0  0  0  0  0  0  0  0  0  0  0
    5.3854    2.0072   -0.7254 H   0  0  0  0  0  0  0  0  0  0  0  0
   -2.9487    1.7861   -0.0728 H   0  0  0  0  0  0  0  0  0  0  0  0
   -5.4044    0.0776   -1.3807 H   0  0  0  0  0  0  0  0  0  0  0  0
   -5.0101    1.4409   -0.3041 H   0  0  0  0  0  0  0  0  0  0  0  0
  1 17  1  0  0  0  0
  2  8  1  0  0  0  0
  2 12  1  0  0  0  0
  3 12  2  0  0  0  0
  4 16  2  0  0  0  0
  5  7  1  0  0  0  0
  5  9  1  0  0  0  0
  5 12  1  0  0  0  0
  6 13  1  0  0  0  0
  6 16  1  0  0  0  0
  6 26  1  0  0  0  0
  7  8  2  0  0  0  0
  7 10  1  0  0  0  0
  8 11  1  0  0  0  0
  9 15  1  0  0  0  0
  9 18  1  0  0  0  0
  9 19  1  0  0  0  0
 10 14  2  0  0  0  0
 10 20  1  0  0  0  0
 11 13  2  0  0  0  0
 11 21  1  0  0  0  0
 13 14  1  0  0  0  0
 14 22  1  0  0  0  0
 15 23  1  0  0  0  0
 15 24  1  0  0  0  0
 15 25  1  0  0  0  0
 16 17  1  0  0  0  0
 17 27  1  0  0  0  0
 17 28  1  0  0  0  0
M  END
> <PUBCHEM_COMPOUND_CID>
3159246

> <PUBCHEM_CONFORMER_RMSD>
0.6

> <PUBCHEM_CONFORMER_DIVERSEORDER>
5
4
14
12
9
10
16
8
1
17
11
13
15
2
7
3
6

> <PUBCHEM_MMFF94_PARTIAL_CHARGES>
20
1 -0.29
10 -0.15
11 -0.15
12 0.78
13 0.12
14 -0.15
16 0.57
17 0.35
2 -0.23
20 0.15
21 0.15
22 0.15
26 0.37
3 -0.57
4 -0.57
5 -0.48
6 -0.55
7 0.12
8 0.08
9 0.3

> <PUBCHEM_EFFECTIVE_ROTOR_COUNT>
4

> <PUBCHEM_PHARMACOPHORE_FEATURES>
5
1 3 acceptor
1 4 acceptor
1 6 donor
5 2 5 7 8 12 rings
6 7 8 10 11 13 14 rings

> <PUBCHEM_HEAVY_ATOM_COUNT>
17

> <PUBCHEM_ATOM_DEF_STEREO_COUNT>
0

> <PUBCHEM_ATOM_UDEF_STEREO_COUNT>
0

> <PUBCHEM_BOND_DEF_STEREO_COUNT>
0

> <PUBCHEM_BOND_UDEF_STEREO_COUNT>
0

> <PUBCHEM_ISOTOPIC_ATOM_COUNT>
0

> <PUBCHEM_COMPONENT_COUNT>
1

> <PUBCHEM_CACTVS_TAUTO_COUNT>
2

> <PUBCHEM_CONFORMER_ID>
003034CE00000005

> <PUBCHEM_MMFF94_ENERGY>
45.3494

> <PUBCHEM_FEATURE_SELFOVERLAP>
25.484

> <PUBCHEM_SHAPE_FINGERPRINT>
11287383 113 17095526227212876477
11471102 20 18411411808811892237
11806522 49 18410852191974599701
12032990 46 18339359665034702311
12236239 1 17704076205219684193
12616999 72 18334015003948328132
13760787 5 18413100650330109215
14251764 18 18272094894966861769
14252887 29 18202289073981142119
14576447 43 18128241475534577711
14790565 3 18122909999465434948
15196674 1 18411135797387061845
15242433 33 18412262843992072439
15375462 189 18410568466604032523
15536298 74 18343298150361554478
16945 1 18341883134931908104
18186145 218 17676201329938375079
18785283 64 17898295154236158133
19422 9 18271527490077325864
200 152 18130783465219499785
20281475 54 18341888602219261765
20645477 70 18411134693174616351
21267235 1 18340211795347484710
21501502 16 18268996384488261024
221490 88 18264209278311855827
23402539 116 12251894919908258467
23402655 69 18412538804267841285
23559900 14 18266730282507352546
25610 137 18411417289111267948
2871803 45 18335133142400880399
3071541 37 18335703858203701724
312423 11 18269284465024153720
33824 294 18408038498637891178
34934 24 18342169020565614678
4340502 62 17095238150855406880
4990 188 17775013396851061748
5104073 3 18339075978361078577
537710 114 18411701002130014636
54040823 5 18342179976921548898
8809292 202 18333732425154804315

> <PUBCHEM_SHAPE_MULTIPOLES>
324.15
10.47
1.86
0.75
10.24
0.26
0.01
0.7
0.3
-1.69
0
0.16
-0.07
-0.17

> <PUBCHEM_SHAPE_SELFOVERLAP>
681.408

> <PUBCHEM_SHAPE_VOLUME>
185.6

> <PUBCHEM_COORDINATE_TYPE>
2
5
10

$$$$
