5008348
  -OEChem-01171809513D

 50 53  0     0  0  0  0  0  0999 V2000
    1.0366    2.9828   -2.4506 S   0  0  0  0  0  0  0  0  0  0  0  0
   -3.4638   -0.5622   -1.7970 O   0  0  0  0  0  0  0  0  0  0  0  0
    2.8438    2.1921   -0.2629 O   0  0  0  0  0  0  0  0  0  0  0  0
   -2.5634   -3.0610   -0.5458 N   0  0  0  0  0  0  0  0  0  0  0  0
   -0.4009    2.9579   -0.1943 N   0  0  0  0  0  0  0  0  0  0  0  0
    3.1829   -0.0276   -0.9233 N   0  0  0  0  0  0  0  0  0  0  0  0
   -0.5607   -2.1069   -0.6505 N   0  0  0  0  0  0  0  0  0  0  0  0
   -2.0058    1.2636    0.4067 C   0  0  0  0  0  0  0  0  0  0  0  0
   -1.7348    0.5905   -0.7922 C   0  0  0  0  0  0  0  0  0  0  0  0
   -1.3065    2.4603    0.6691 C   0  0  0  0  0  0  0  0  0  0  0  0
   -0.8023    1.1008   -1.6838 C   0  0  0  0  0  0  0  0  0  0  0  0
   -2.4015   -0.6540   -1.1639 C   0  0  0  0  0  0  0  0  0  0  0  0
   -0.1685    2.2777   -1.3402 C   0  0  0  0  0  0  0  0  0  0  0  0
   -1.8353   -1.9618   -0.7809 C   0  0  0  0  0  0  0  0  0  0  0  0
   -2.9443    0.7730    1.3303 C   0  0  0  0  0  0  0  0  0  0  0  0
   -1.5760    3.1286    1.8602 C   0  0  0  0  0  0  0  0  0  0  0  0
    2.2250    1.6243   -2.5070 C   0  0  0  0  0  0  0  0  0  0  0  0
   -3.1942    1.4617    2.5138 C   0  0  0  0  0  0  0  0  0  0  0  0
   -2.5091    2.6410    2.7786 C   0  0  0  0  0  0  0  0  0  0  0  0
    2.7840    1.3131   -1.1264 C   0  0  0  0  0  0  0  0  0  0  0  0
    3.0697   -0.6052    0.4033 C   0  0  0  0  0  0  0  0  0  0  0  0
   -1.6654   -4.0397   -0.2249 C   0  0  0  0  0  0  0  0  0  0  0  0
   -3.9972   -3.2189   -0.6082 C   0  0  0  0  0  0  0  0  0  0  0  0
   -0.4365   -3.4271   -0.2966 C   0  0  0  0  0  0  0  0  0  0  0  0
    3.7097   -0.8529   -2.0211 C   0  0  0  0  0  0  0  0  0  0  0  0
    2.0764   -0.1427    1.2218 C   0  0  0  0  0  0  0  0  0  0  0  0
    3.9625   -1.5790    0.7569 C   0  0  0  0  0  0  0  0  0  0  0  0
    1.9670   -0.6986    2.4965 C   0  0  0  0  0  0  0  0  0  0  0  0
    3.8533   -2.1350    2.0315 C   0  0  0  0  0  0  0  0  0  0  0  0
    2.8555   -1.6948    2.9012 C   0  0  0  0  0  0  0  0  0  0  0  0
   -0.5978    0.5899   -2.6197 H   0  0  0  0  0  0  0  0  0  0  0  0
   -3.4976   -0.1453    1.1514 H   0  0  0  0  0  0  0  0  0  0  0  0
   -1.0522    4.0544    2.0913 H   0  0  0  0  0  0  0  0  0  0  0  0
    3.0579    1.9218   -3.1515 H   0  0  0  0  0  0  0  0  0  0  0  0
    1.7427    0.7472   -2.9461 H   0  0  0  0  0  0  0  0  0  0  0  0
   -3.9202    1.0799    3.2251 H   0  0  0  0  0  0  0  0  0  0  0  0
   -2.6977    3.1849    3.6997 H   0  0  0  0  0  0  0  0  0  0  0  0
   -1.9628   -5.0505    0.0178 H   0  0  0  0  0  0  0  0  0  0  0  0
   -4.3081   -3.1479   -1.6532 H   0  0  0  0  0  0  0  0  0  0  0  0
   -4.2712   -4.1983   -0.2070 H   0  0  0  0  0  0  0  0  0  0  0  0
   -4.4647   -2.4362   -0.0057 H   0  0  0  0  0  0  0  0  0  0  0  0
    0.5319   -3.8686   -0.1103 H   0  0  0  0  0  0  0  0  0  0  0  0
    3.6308   -0.3554   -2.9890 H   0  0  0  0  0  0  0  0  0  0  0  0
    4.7747   -1.0384   -1.8538 H   0  0  0  0  0  0  0  0  0  0  0  0
    3.1576   -1.7967   -2.0616 H   0  0  0  0  0  0  0  0  0  0  0  0
    1.3477    0.6024    0.9265 H   0  0  0  0  0  0  0  0  0  0  0  0
    4.7574   -1.9352    0.1126 H   0  0  0  0  0  0  0  0  0  0  0  0
    1.1842   -0.3623    3.1702 H   0  0  0  0  0  0  0  0  0  0  0  0
    4.5463   -2.9090    2.3482 H   0  0  0  0  0  0  0  0  0  0  0  0
    2.7693   -2.1290    3.8930 H   0  0  0  0  0  0  0  0  0  0  0  0
  1 13  1  0  0  0  0
  1 17  1  0  0  0  0
  2 12  2  0  0  0  0
  3 20  2  0  0  0  0
  4 14  1  0  0  0  0
  4 22  1  0  0  0  0
  4 23  1  0  0  0  0
  5 10  1  0  0  0  0
  5 13  2  0  0  0  0
  6 20  1  0  0  0  0
  6 21  1  0  0  0  0
  6 25  1  0  0  0  0
  7 14  2  0  0  0  0
  7 24  1  0  0  0  0
  8  9  1  0  0  0  0
  8 10  1  0  0  0  0
  8 15  2  0  0  0  0
  9 11  2  0  0  0  0
  9 12  1  0  0  0  0
 10 16  2  0  0  0  0
 11 13  1  0  0  0  0
 11 31  1  0  0  0  0
 12 14  1  0  0  0  0
 15 18  1  0  0  0  0
 15 32  1  0  0  0  0
 16 19  1  0  0  0  0
 16 33  1  0  0  0  0
 17 20  1  0  0  0  0
 17 34  1  0  0  0  0
 17 35  1  0  0  0  0
 18 19  2  0  0  0  0
 18 36  1  0  0  0  0
 19 37  1  0  0  0  0
 21 26  2  0  0  0  0
 21 27  1  0  0  0  0
 22 24  2  0  0  0  0
 22 38  1  0  0  0  0
 23 39  1  0  0  0  0
 23 40  1  0  0  0  0
 23 41  1  0  0  0  0
 24 42  1  0  0  0  0
 25 43  1  0  0  0  0
 25 44  1  0  0  0  0
 25 45  1  0  0  0  0
 26 28  1  0  0  0  0
 26 46  1  0  0  0  0
 27 29  2  0  0  0  0
 27 47  1  0  0  0  0
 28 30  2  0  0  0  0
 28 48  1  0  0  0  0
 29 30  1  0  0  0  0
 29 49  1  0  0  0  0
 30 50  1  0  0  0  0
M  END
> <PUBCHEM_COMPOUND_CID>
5008348

> <PUBCHEM_CONFORMER_RMSD>
1.2

> <PUBCHEM_CONFORMER_DIVERSEORDER>
1
67
162
172
184
124
17
58
192
119
140
246
155
98
31
95
147
70
150
13
86
6
297
205
121
169
258
240
80
202
215
11
166
197
50
273
199
217
222
131
257
90
27
61
55
29
20
96
141
189
275
21
157
281
39
125
144
269
167
307
206
173
87
89
54
220
132
107
190
32
165
62
88
229
287
284
23
226
195
52
65
227
16
151
101
216
139
129
285
94
43
193
123
214
135
5
266
75
300
102
136
264
33
272
236
8
224
260
60
49
100
71
68
4
9
19
108
114
211
34
305
142
3
92
243
276
159
93
302
181
178
76
171
252
116
120
196
110
152
51
118
78
295
156
204
7
179
279
194
91
18
41
161
30
10
103
163
213
24
250
46
268
253
208
296
97
218
235
44
233
42
278
122
153
271
154
127
188
234
82
249
245
242
133
263
38
149
2
74
186
117
270
148
200
40
175
174
84
244
99
12
232
209
104
280
106
177
56
293
283
247
14
73
109
212
241
66
265
28
69
77
25
299
289
221
288
201
113
146
191
48
210
36
53
237
72
22
286
128
137
255
64
203
298
83
294
63
59
239
105
301
187
164
126
26
291
225
230
223
57
85
180
231
228
138
308
219
292
290
256
251
115
15
130
81
145
198
277
35
112
168
134
282
267
207
238
37
303
143
79
183
111
259
45
274
306
254
158
176
182
248
185
160
170
47
304
261
262

> <PUBCHEM_MMFF94_PARTIAL_CHARGES>
41
1 -0.33
10 0.31
11 -0.15
12 0.57
13 0.41
14 0.1
15 -0.15
16 -0.15
17 0.29
18 -0.15
19 -0.15
2 -0.57
20 0.57
21 0.12
22 -0.3
23 0.26
24 0.08
25 0.3
26 -0.15
27 -0.15
28 -0.15
29 -0.15
3 -0.57
30 -0.15
31 0.15
32 0.15
33 0.15
36 0.15
37 0.15
38 0.15
4 0.05
42 0.15
46 0.15
47 0.15
48 0.15
49 0.15
5 -0.62
50 0.15
6 -0.48
7 -0.57
9 0.09

> <PUBCHEM_EFFECTIVE_ROTOR_COUNT>
7

> <PUBCHEM_PHARMACOPHORE_FEATURES>
8
1 2 acceptor
1 3 acceptor
1 5 acceptor
3 4 7 14 cation
5 4 7 14 22 24 rings
6 21 26 27 28 29 30 rings
6 5 8 9 10 11 13 rings
6 8 10 15 16 18 19 rings

> <PUBCHEM_HEAVY_ATOM_COUNT>
30

> <PUBCHEM_ATOM_DEF_STEREO_COUNT>
0

> <PUBCHEM_ATOM_UDEF_STEREO_COUNT>
0

> <PUBCHEM_BOND_DEF_STEREO_COUNT>
0

> <PUBCHEM_BOND_UDEF_STEREO_COUNT>
0

> <PUBCHEM_ISOTOPIC_ATOM_COUNT>
0

> <PUBCHEM_COMPONENT_COUNT>
1

> <PUBCHEM_CACTVS_TAUTO_COUNT>
1

> <PUBCHEM_CONFORMER_ID>
004C6BDC00000001

> <PUBCHEM_MMFF94_ENERGY>
104.3155

> <PUBCHEM_FEATURE_SELFOVERLAP>
40.629

> <PUBCHEM_SHAPE_FINGERPRINT>
10032420 55 16751271614504525870
10064457 181 17913785920193077754
10165383 225 17696776375196699266
11578080 2 18119501431936543269
12156800 1 17272324407146282187
12422481 6 17256786916509233210
12539773 59 18263935332027992616
12788726 201 18056499450192508159
14114207 22 12479292250762122512
14856354 85 17987226752120898898
15403338 16 16807021926594639689
20600515 1 18124843915816597013
20775530 9 18191000478246009110
23419403 2 16327014951179757029
238 59 16662046052805415508
3027735 51 17689675742115985943
3380486 77 18262220149918058367
345986 75 18269557320207723547
35225 105 17488487241909754979
392239 28 17696181887710387288
5171179 24 14024094774580652180
563151 248 17976862841142963956
6287921 2 17765735528604417379

> <PUBCHEM_SHAPE_MULTIPOLES>
589.57
6.77
4.92
3.07
3.36
2.49
-1.43
2.65
-1.88
-3.04
0.99
0.62
-1.36
-4.28

> <PUBCHEM_SHAPE_SELFOVERLAP>
1285.337

> <PUBCHEM_SHAPE_VOLUME>
324.5

> <PUBCHEM_COORDINATE_TYPE>
2
5
10

$$$$
