16314235
  -OEChem-01171810193D

 45 47  0     0  0  0  0  0  0999 V2000
    2.6035    1.2727    0.7110 S   0  0  0  0  0  0  0  0  0  0  0  0
    2.0633    0.9281    2.0081 O   0  0  0  0  0  0  0  0  0  0  0  0
    2.9057    2.6286    0.3068 O   0  0  0  0  0  0  0  0  0  0  0  0
   -0.2081   -0.8412    0.7656 O   0  0  0  0  0  0  0  0  0  0  0  0
    2.0709   -1.2804   -2.1142 O   0  0  0  0  0  0  0  0  0  0  0  0
    1.7334    0.4593   -0.5325 N   0  0  0  0  0  0  0  0  0  0  0  0
   -4.2587    0.1979    0.2214 N   0  0  0  0  0  0  0  0  0  0  0  0
   -3.0541   -0.3352    0.5992 C   0  0  0  0  0  0  0  0  0  0  0  0
   -2.0647    0.3193   -0.1009 C   0  0  0  0  0  0  0  0  0  0  0  0
    0.3496    0.8556   -0.8291 C   0  0  0  0  0  0  0  0  0  0  0  0
   -4.0533    1.1834   -0.7087 C   0  0  0  0  0  0  0  0  0  0  0  0
    4.0137    0.2900    0.4272 C   0  0  0  0  0  0  0  0  0  0  0  0
   -5.5508   -0.2155    0.7272 C   0  0  0  0  0  0  0  0  0  0  0  0
   -0.6218    0.0437    0.0151 C   0  0  0  0  0  0  0  0  0  0  0  0
    3.8124   -0.6340   -0.5980 C   0  0  0  0  0  0  0  0  0  0  0  0
   -2.6969    1.2800   -0.9284 C   0  0  0  0  0  0  0  0  0  0  0  0
    2.4681   -0.5741   -1.2053 C   0  0  0  0  0  0  0  0  0  0  0  0
   -6.1629   -1.3371   -0.1088 C   0  0  0  0  0  0  0  0  0  0  0  0
   -2.9591   -1.4238    1.5960 C   0  0  0  0  0  0  0  0  0  0  0  0
    5.2033    0.3908    1.1184 C   0  0  0  0  0  0  0  0  0  0  0  0
   -5.1661    1.9482   -1.3082 C   0  0  0  0  0  0  0  0  0  0  0  0
    4.8252   -1.5029   -0.9652 C   0  0  0  0  0  0  0  0  0  0  0  0
   -7.5229   -1.7499    0.4296 C   0  0  0  0  0  0  0  0  0  0  0  0
    6.2286   -0.4827    0.7529 C   0  0  0  0  0  0  0  0  0  0  0  0
    6.0417   -1.4210   -0.2792 C   0  0  0  0  0  0  0  0  0  0  0  0
    0.2150    1.9208   -0.6151 H   0  0  0  0  0  0  0  0  0  0  0  0
    0.1386    0.6881   -1.8901 H   0  0  0  0  0  0  0  0  0  0  0  0
   -5.4433   -0.5074    1.7773 H   0  0  0  0  0  0  0  0  0  0  0  0
   -6.2112    0.6588    0.7346 H   0  0  0  0  0  0  0  0  0  0  0  0
   -2.2233    1.9708   -1.6128 H   0  0  0  0  0  0  0  0  0  0  0  0
   -5.5000   -2.2102   -0.1174 H   0  0  0  0  0  0  0  0  0  0  0  0
   -6.2720   -1.0197   -1.1523 H   0  0  0  0  0  0  0  0  0  0  0  0
   -2.6879   -1.0168    2.5755 H   0  0  0  0  0  0  0  0  0  0  0  0
   -3.8820   -1.9973    1.7122 H   0  0  0  0  0  0  0  0  0  0  0  0
   -2.1991   -2.1568    1.3079 H   0  0  0  0  0  0  0  0  0  0  0  0
    5.3453    1.1140    1.9129 H   0  0  0  0  0  0  0  0  0  0  0  0
   -5.9006    1.2873   -1.7778 H   0  0  0  0  0  0  0  0  0  0  0  0
   -5.6721    2.5600   -0.5545 H   0  0  0  0  0  0  0  0  0  0  0  0
   -4.7960    2.6265   -2.0847 H   0  0  0  0  0  0  0  0  0  0  0  0
    4.6922   -2.2299   -1.7590 H   0  0  0  0  0  0  0  0  0  0  0  0
   -8.2230   -0.9086    0.4132 H   0  0  0  0  0  0  0  0  0  0  0  0
   -7.4433   -2.1116    1.4597 H   0  0  0  0  0  0  0  0  0  0  0  0
   -7.9443   -2.5544   -0.1813 H   0  0  0  0  0  0  0  0  0  0  0  0
    7.1835   -0.4396    1.2700 H   0  0  0  0  0  0  0  0  0  0  0  0
    6.8552   -2.0907   -0.5460 H   0  0  0  0  0  0  0  0  0  0  0  0
  1  2  2  0  0  0  0
  1  3  2  0  0  0  0
  1  6  1  0  0  0  0
  1 12  1  0  0  0  0
  4 14  2  0  0  0  0
  5 17  2  0  0  0  0
  6 10  1  0  0  0  0
  6 17  1  0  0  0  0
  7  8  1  0  0  0  0
  7 11  1  0  0  0  0
  7 13  1  0  0  0  0
  8  9  2  0  0  0  0
  8 19  1  0  0  0  0
  9 14  1  0  0  0  0
  9 16  1  0  0  0  0
 10 14  1  0  0  0  0
 10 26  1  0  0  0  0
 10 27  1  0  0  0  0
 11 16  2  0  0  0  0
 11 21  1  0  0  0  0
 12 15  1  0  0  0  0
 12 20  2  0  0  0  0
 13 18  1  0  0  0  0
 13 28  1  0  0  0  0
 13 29  1  0  0  0  0
 15 17  1  0  0  0  0
 15 22  2  0  0  0  0
 16 30  1  0  0  0  0
 18 23  1  0  0  0  0
 18 31  1  0  0  0  0
 18 32  1  0  0  0  0
 19 33  1  0  0  0  0
 19 34  1  0  0  0  0
 19 35  1  0  0  0  0
 20 24  1  0  0  0  0
 20 36  1  0  0  0  0
 21 37  1  0  0  0  0
 21 38  1  0  0  0  0
 21 39  1  0  0  0  0
 22 25  1  0  0  0  0
 22 40  1  0  0  0  0
 23 41  1  0  0  0  0
 23 42  1  0  0  0  0
 23 43  1  0  0  0  0
 24 25  2  0  0  0  0
 24 44  1  0  0  0  0
 25 45  1  0  0  0  0
M  END
> <PUBCHEM_COMPOUND_CID>
16314235

> <PUBCHEM_CONFORMER_RMSD>
0.8

> <PUBCHEM_CONFORMER_DIVERSEORDER>
1
33
204
37
212
77
158
162
111
207
20
194
42
201
159
171
191
189
213
148
147
113
104
127
211
60
66
179
200
178
96
186
94
164
45
154
55
58
109
214
102
168
215
184
218
50
143
108
203
205
177
14
71
29
36
120
217
64
196
125
166
65
69
155
173
165
57
25
139
210
10
117
128
53
136
150
4
21
97
74
110
180
142
161
112
122
190
2
52
135
62
38
103
15
182
43
160
41
167
176
80
116
35
79
3
85
51
22
185
107
6
197
149
114
95
199
12
145
126
5
72
152
134
73
195
59
175
54
172
119
30
24
78
56
26
19
140
92
133
87
7
40
144
34
82
153
121
16
63
28
209
137
101
39
193
100
23
187
169
99
141
138
83
13
32
89
70
76
115
93
67
156
216
49
124
130
146
27
31
208
183
84
131
220
9
47
75
81
181
106
118
170
61
198
91
129
8
46
219
98
105
18
48
192
174
44
90
17
11
132
188
151
68
157
163
86
206
88
123
202

> <PUBCHEM_MMFF94_PARTIAL_CHARGES>
28
1 1.45
10 0.42
11 -0.33
12 -0.01
13 0.26
14 0.6
15 0.09
16 -0.15
17 0.72
19 0.18
2 -0.65
20 -0.15
21 0.18
22 -0.15
24 -0.15
25 -0.15
3 -0.65
30 0.15
36 0.15
4 -0.57
40 0.15
44 0.15
45 0.15
5 -0.57
6 -0.73
7 0.05
8 -0.33
9 -0.09

> <PUBCHEM_EFFECTIVE_ROTOR_COUNT>
5.2

> <PUBCHEM_PHARMACOPHORE_FEATURES>
9
1 2 acceptor
1 23 hydrophobe
1 3 acceptor
1 4 acceptor
1 5 acceptor
1 7 cation
5 1 6 12 15 17 rings
5 7 8 9 11 16 rings
6 12 15 20 22 24 25 rings

> <PUBCHEM_HEAVY_ATOM_COUNT>
25

> <PUBCHEM_ATOM_DEF_STEREO_COUNT>
0

> <PUBCHEM_ATOM_UDEF_STEREO_COUNT>
0

> <PUBCHEM_BOND_DEF_STEREO_COUNT>
0

> <PUBCHEM_BOND_UDEF_STEREO_COUNT>
0

> <PUBCHEM_ISOTOPIC_ATOM_COUNT>
0

> <PUBCHEM_COMPONENT_COUNT>
1

> <PUBCHEM_CACTVS_TAUTO_COUNT>
2

> <PUBCHEM_CONFORMER_ID>
00F8EF7B00000001

> <PUBCHEM_MMFF94_ENERGY>
39.4015

> <PUBCHEM_FEATURE_SELFOVERLAP>
45.755

> <PUBCHEM_SHAPE_FINGERPRINT>
10 15 18340759434507127496
10670039 82 17167859734144432413
10688039 33 18201441346448546104
11545043 162 18334574629444367361
11646440 116 17418374692642171154
11796584 16 17967818206937492074
11828532 37 17896329197718254891
12107183 9 14258011986655141446
12166972 35 18187367653310353221
12236239 1 16153711994673899732
12516196 113 18411981356267804672
12616971 3 15985101938104867057
13685833 64 18412546513343721371
13782708 43 18410295830617516339
13862211 1 17894632573998430227
14294032 229 16951676992951575757
14341114 176 18060701684770485860
14849402 71 16629951257151915736
15183329 4 15719393919043989222
15475509 35 18188194409409564578
15788980 27 18411135827172154428
17349148 13 16415478246567432392
17844677 252 18260551125621999181
18222031 100 16805320028760886765
18681886 176 17748827440249700396
18927931 339 17894635868591884723
19377110 9 15626227909698268055
19489759 90 18040715853538705837
21033648 29 18271790307547707216
21150785 3 16950567704917559590
21267235 1 17821734953303552987
21315763 129 18409729560638570413
21623969 137 17847065484181909335
21641784 216 11458988599228769902
23402539 116 18040432170822282909
23559900 14 18335134280509548837
29717793 49 15719390620730573934
3004659 81 15792011220772528983
34797466 226 18261682544935883036
3633792 109 14779534683257900299
4340502 62 17203894071539618958
465052 167 18271806800949701654
5104073 3 15912747501227829294
542803 24 14692566615491769228
59755656 215 17894628154134717931
67856867 119 14692270889808199002
7495541 125 18335424582181869764

> <PUBCHEM_SHAPE_MULTIPOLES>
484.9
17.46
1.86
1.43
9.63
0.45
0.04
-6.89
-0.77
1.35
0.11
-0.93
-0.1
2.21

> <PUBCHEM_SHAPE_SELFOVERLAP>
1027.49

> <PUBCHEM_SHAPE_VOLUME>
274.9

> <PUBCHEM_COORDINATE_TYPE>
2
5
10

$$$$
