49778438
  -OEChem-01171810193D

 60 63  0     0  0  0  0  0  0999 V2000
    2.4721    4.6987   -0.9318 F   0  0  0  0  0  0  0  0  0  0  0  0
    2.4342    3.2348    0.6756 F   0  0  0  0  0  0  0  0  0  0  0  0
    2.5933    2.5754   -1.3844 F   0  0  0  0  0  0  0  0  0  0  0  0
    3.9727   -3.3403    0.1236 O   0  0  0  0  0  0  0  0  0  0  0  0
   -5.9870    2.1338    1.3149 O   0  0  0  0  0  0  0  0  0  0  0  0
   -2.4004   -1.3912   -0.0015 N   0  0  0  0  0  0  0  0  0  0  0  0
   -4.0862   -2.6710    0.7162 N   0  0  0  0  0  0  0  0  0  0  0  0
   -5.6014   -0.1758    1.2386 N   0  0  0  0  0  0  0  0  0  0  0  0
    2.8748   -1.4572    0.9143 N   0  0  0  0  0  0  0  0  0  0  0  0
    5.9180    0.6244    1.4419 N   0  0  0  0  0  0  0  0  0  0  0  0
   -1.9825   -2.6916   -0.1267 C   0  0  0  0  0  0  0  0  0  0  0  0
   -3.6908   -1.4291    0.5164 C   0  0  0  0  0  0  0  0  0  0  0  0
   -2.3227    0.9768   -0.1107 C   0  0  0  0  0  0  0  0  0  0  0  0
   -1.7226   -0.2153   -0.3127 C   0  0  0  0  0  0  0  0  0  0  0  0
   -4.3349   -0.1748    0.7317 C   0  0  0  0  0  0  0  0  0  0  0  0
   -0.6931   -3.1032   -0.6297 C   0  0  0  0  0  0  0  0  0  0  0  0
   -3.6864    0.9692    0.4340 C   0  0  0  0  0  0  0  0  0  0  0  0
   -3.0338   -3.4556    0.3205 C   0  0  0  0  0  0  0  0  0  0  0  0
   -1.5999    2.2171   -0.4516 C   0  0  0  0  0  0  0  0  0  0  0  0
    0.4721   -2.6924    0.0175 C   0  0  0  0  0  0  0  0  0  0  0  0
    1.7174   -3.0916   -0.4679 C   0  0  0  0  0  0  0  0  0  0  0  0
   -0.6132   -3.9134   -1.7625 C   0  0  0  0  0  0  0  0  0  0  0  0
   -0.2089    2.2618   -0.3585 C   0  0  0  0  0  0  0  0  0  0  0  0
    4.0032   -0.8867    1.6146 C   0  0  0  0  0  0  0  0  0  0  0  0
    4.8030    0.0384    0.7092 C   0  0  0  0  0  0  0  0  0  0  0  0
   -2.3078    3.3448   -0.8677 C   0  0  0  0  0  0  0  0  0  0  0  0
    1.7973   -3.9016   -1.6007 C   0  0  0  0  0  0  0  0  0  0  0  0
    0.6320   -4.3126   -2.2479 C   0  0  0  0  0  0  0  0  0  0  0  0
    0.4744    3.4342   -0.6815 C   0  0  0  0  0  0  0  0  0  0  0  0
    2.9331   -2.6624    0.2050 C   0  0  0  0  0  0  0  0  0  0  0  0
   -1.6245    4.5171   -1.1906 C   0  0  0  0  0  0  0  0  0  0  0  0
   -0.2335    4.5619   -1.0974 C   0  0  0  0  0  0  0  0  0  0  0  0
    1.9615    3.4822   -0.5818 C   0  0  0  0  0  0  0  0  0  0  0  0
    7.0235   -0.3298    1.5498 C   0  0  0  0  0  0  0  0  0  0  0  0
    6.3728    1.8554    0.7923 C   0  0  0  0  0  0  0  0  0  0  0  0
   -6.3254    0.9696    1.4897 C   0  0  0  0  0  0  0  0  0  0  0  0
   -0.7362   -0.3239   -0.7449 H   0  0  0  0  0  0  0  0  0  0  0  0
   -4.0709    1.9604    0.5958 H   0  0  0  0  0  0  0  0  0  0  0  0
   -3.0916   -4.5334    0.3804 H   0  0  0  0  0  0  0  0  0  0  0  0
    0.3854   -2.0974    0.9235 H   0  0  0  0  0  0  0  0  0  0  0  0
   -1.5106   -4.2413   -2.2819 H   0  0  0  0  0  0  0  0  0  0  0  0
    0.3726    1.4117   -0.0100 H   0  0  0  0  0  0  0  0  0  0  0  0
    3.6003   -0.3361    2.4721 H   0  0  0  0  0  0  0  0  0  0  0  0
    4.6118   -1.7109    1.9988 H   0  0  0  0  0  0  0  0  0  0  0  0
    5.1357   -0.4819   -0.1988 H   0  0  0  0  0  0  0  0  0  0  0  0
    4.1177    0.8274    0.3693 H   0  0  0  0  0  0  0  0  0  0  0  0
   -3.3887    3.3419   -0.9772 H   0  0  0  0  0  0  0  0  0  0  0  0
   -6.0320   -1.0744    1.4412 H   0  0  0  0  0  0  0  0  0  0  0  0
    2.7577   -4.2196   -1.9982 H   0  0  0  0  0  0  0  0  0  0  0  0
    0.6943   -4.9419   -3.1309 H   0  0  0  0  0  0  0  0  0  0  0  0
    2.0294   -0.8968    0.8973 H   0  0  0  0  0  0  0  0  0  0  0  0
   -2.1749    5.3936   -1.5202 H   0  0  0  0  0  0  0  0  0  0  0  0
    0.2796    5.4844   -1.3547 H   0  0  0  0  0  0  0  0  0  0  0  0
    7.3979   -0.6439    0.5685 H   0  0  0  0  0  0  0  0  0  0  0  0
    7.1946    2.3088    1.3578 H   0  0  0  0  0  0  0  0  0  0  0  0
    6.7154    1.6781   -0.2337 H   0  0  0  0  0  0  0  0  0  0  0  0
    5.5673    2.5981    0.7651 H   0  0  0  0  0  0  0  0  0  0  0  0
    7.8579    0.1176    2.1024 H   0  0  0  0  0  0  0  0  0  0  0  0
    6.7359   -1.2229    2.1126 H   0  0  0  0  0  0  0  0  0  0  0  0
   -7.3187    0.7150    1.8958 H   0  0  0  0  0  0  0  0  0  0  0  0
  1 33  1  0  0  0  0
  2 33  1  0  0  0  0
  3 33  1  0  0  0  0
  4 30  2  0  0  0  0
  5 36  2  0  0  0  0
  6 11  1  0  0  0  0
  6 12  1  0  0  0  0
  6 14  1  0  0  0  0
  7 12  2  0  0  0  0
  7 18  1  0  0  0  0
  8 15  1  0  0  0  0
  8 36  1  0  0  0  0
  8 48  1  0  0  0  0
  9 24  1  0  0  0  0
  9 30  1  0  0  0  0
  9 51  1  0  0  0  0
 10 25  1  0  0  0  0
 10 34  1  0  0  0  0
 10 35  1  0  0  0  0
 11 16  1  0  0  0  0
 11 18  2  0  0  0  0
 12 15  1  0  0  0  0
 13 14  2  0  0  0  0
 13 17  1  0  0  0  0
 13 19  1  0  0  0  0
 14 37  1  0  0  0  0
 15 17  2  0  0  0  0
 16 20  2  0  0  0  0
 16 22  1  0  0  0  0
 17 38  1  0  0  0  0
 18 39  1  0  0  0  0
 19 23  2  0  0  0  0
 19 26  1  0  0  0  0
 20 21  1  0  0  0  0
 20 40  1  0  0  0  0
 21 27  2  0  0  0  0
 21 30  1  0  0  0  0
 22 28  2  0  0  0  0
 22 41  1  0  0  0  0
 23 29  1  0  0  0  0
 23 42  1  0  0  0  0
 24 25  1  0  0  0  0
 24 43  1  0  0  0  0
 24 44  1  0  0  0  0
 25 45  1  0  0  0  0
 25 46  1  0  0  0  0
 26 31  2  0  0  0  0
 26 47  1  0  0  0  0
 27 28  1  0  0  0  0
 27 49  1  0  0  0  0
 28 50  1  0  0  0  0
 29 32  2  0  0  0  0
 29 33  1  0  0  0  0
 31 32  1  0  0  0  0
 31 52  1  0  0  0  0
 32 53  1  0  0  0  0
 34 54  1  0  0  0  0
 34 58  1  0  0  0  0
 34 59  1  0  0  0  0
 35 55  1  0  0  0  0
 35 56  1  0  0  0  0
 35 57  1  0  0  0  0
 36 60  1  0  0  0  0
M  END
> <PUBCHEM_COMPOUND_CID>
49778438

> <PUBCHEM_CONFORMER_RMSD>
1

> <PUBCHEM_CONFORMER_DIVERSEORDER>
1
8
78
62
110
49
103
105
115
64
125
126
96
89
120
99
40
111
121
109
63
104
93
46
27
91
124
54
24
87
102
52
66
53
81
84
113
44
122
67
42
107
118
112
32
26
65
74
106
98
31
68
48
90
79
25
119
85
33
16
76
60
47
75
123
9
95
6
73
92
71
117
30
88
39
127
94
86
80
116
97
20
18
70
37
17
3
19
82
57
83
35
114
100
4
50
23
51
34
101
2
7
38
22
77
59
21
56
108
28
45
61
58
12
69
41
11
43
5
36
13
72
15
29
14
10
55

> <PUBCHEM_MMFF94_PARTIAL_CHARGES>
50
1 -0.34
10 -0.81
11 -0.2
12 0.14
13 -0.03
14 -0.18
15 0.15
16 0.05
17 -0.15
18 0.08
19 0.03
2 -0.34
20 -0.15
21 0.09
22 -0.15
23 -0.15
24 0.3
25 0.27
26 -0.15
27 -0.15
28 -0.15
29 -0.14
3 -0.34
30 0.54
31 -0.15
32 -0.15
33 1.16
34 0.27
35 0.27
36 0.57
37 0.15
38 0.15
39 0.15
4 -0.57
40 0.15
41 0.15
42 0.15
47 0.15
48 0.37
49 0.15
5 -0.57
50 0.15
51 0.37
52 0.15
53 0.15
6 0.33
60 0.06
7 -0.57
8 -0.54
9 -0.73

> <PUBCHEM_EFFECTIVE_ROTOR_COUNT>
10

> <PUBCHEM_PHARMACOPHORE_FEATURES>
10
1 10 cation
1 4 acceptor
1 5 acceptor
1 8 donor
1 9 donor
3 6 7 12 cation
5 6 7 11 12 18 rings
6 16 20 21 22 27 28 rings
6 19 23 26 29 31 32 rings
6 6 12 13 14 15 17 rings

> <PUBCHEM_HEAVY_ATOM_COUNT>
36

> <PUBCHEM_ATOM_DEF_STEREO_COUNT>
0

> <PUBCHEM_ATOM_UDEF_STEREO_COUNT>
0

> <PUBCHEM_BOND_DEF_STEREO_COUNT>
0

> <PUBCHEM_BOND_UDEF_STEREO_COUNT>
0

> <PUBCHEM_ISOTOPIC_ATOM_COUNT>
0

> <PUBCHEM_COMPONENT_COUNT>
1

> <PUBCHEM_CACTVS_TAUTO_COUNT>
4

> <PUBCHEM_CONFORMER_ID>
02F78F0600000001

> <PUBCHEM_MMFF94_ENERGY>
96.7788

> <PUBCHEM_FEATURE_SELFOVERLAP>
50.86

> <PUBCHEM_SHAPE_FINGERPRINT>
10049733 57 18192150400374475713
12107183 9 18336835290029259913
12788726 201 17683558081200402967
13165053 371 17836659522598243417
14020679 6 17968105247928094427
14117953 113 18411135839925220229
14394314 77 18263365970100328468
14395042 24 18052526970617123131
15064986 96 18337124414690267601
15160629 57 17968949711307372317
15274700 259 17604131655412972093
15320467 1 18408598146188528176
15840311 113 17341830928787753153
15961568 22 18410008844955243118
16110190 28 18409445929519549736
16628084 112 17545879790765816359
17627616 140 17255389943692753678
19611394 137 17970073455061914130
20764821 26 18121206839095355428
229767 44 18340203093680329280
24771293 8 18342458102667729267
25019877 29 17130429201550806806
3178227 256 16392705502007394915
3493558 16 17413885232347664057
437795 96 18337099082134391424
463206 1 18116434936961071440
474144 1 17895486928935175276
5047190 48 18411135797350281556
50677037 204 17764849679147115272
9543594 6 18123179367440645144

> <PUBCHEM_SHAPE_MULTIPOLES>
682.4
12.36
7.9
1.57
7.83
2.53
-0.21
2.84
10.15
1.28
-5
0.41
-0.46
0.73

> <PUBCHEM_SHAPE_SELFOVERLAP>
1490.669

> <PUBCHEM_SHAPE_VOLUME>
373.2

> <PUBCHEM_COORDINATE_TYPE>
2
5
10

$$$$
