6902747
  -OEChem-01171809523D

 58 60  0     0  0  0  0  0  0999 V2000
   -4.6363   -0.4600    0.6844 O   0  0  0  0  0  0  0  0  0  0  0  0
    1.6960   -0.1713   -2.5417 O   0  0  0  0  0  0  0  0  0  0  0  0
   10.4912    0.4053    1.6495 O   0  0  0  0  0  0  0  0  0  0  0  0
   10.5791    0.8092   -0.5855 O   0  0  0  0  0  0  0  0  0  0  0  0
    2.2327   -0.5438   -0.3207 N   0  0  0  0  0  0  0  0  0  0  0  0
    3.5481   -0.3017   -0.5328 N   0  0  0  0  0  0  0  0  0  0  0  0
   -5.4006    2.2261    0.0794 C   0  0  0  0  0  0  0  0  0  0  0  0
   -6.3898    1.1367    0.3331 C   0  0  0  0  0  0  0  0  0  0  0  0
   -5.9713   -0.1577    0.6237 C   0  0  0  0  0  0  0  0  0  0  0  0
   -5.5148    2.8032   -1.3436 C   0  0  0  0  0  0  0  0  0  0  0  0
   -5.4993    3.3615    1.1148 C   0  0  0  0  0  0  0  0  0  0  0  0
   -7.7531    1.4267    0.2759 C   0  0  0  0  0  0  0  0  0  0  0  0
   -6.9015   -1.1654    0.8578 C   0  0  0  0  0  0  0  0  0  0  0  0
   -8.2647   -0.8755    0.8005 C   0  0  0  0  0  0  0  0  0  0  0  0
   -8.6905    0.4207    0.5097 C   0  0  0  0  0  0  0  0  0  0  0  0
   -4.1612   -1.4479   -0.2219 C   0  0  0  0  0  0  0  0  0  0  0  0
   -2.7241   -1.1904   -0.5265 C   0  0  0  0  0  0  0  0  0  0  0  0
   -9.2676   -1.9508    1.0495 C   0  0  0  0  0  0  0  0  0  0  0  0
   -2.3751   -0.3710   -1.5999 C   0  0  0  0  0  0  0  0  0  0  0  0
   -1.7291   -1.7679    0.2624 C   0  0  0  0  0  0  0  0  0  0  0  0
   -0.0666   -0.7119   -1.0894 C   0  0  0  0  0  0  0  0  0  0  0  0
   -1.0311   -0.1289   -1.8846 C   0  0  0  0  0  0  0  0  0  0  0  0
   -0.3852   -1.5259   -0.0222 C   0  0  0  0  0  0  0  0  0  0  0  0
    1.3651   -0.4559   -1.3933 C   0  0  0  0  0  0  0  0  0  0  0  0
    5.7292   -0.1414    0.5055 C   0  0  0  0  0  0  0  0  0  0  0  0
    6.4736   -0.2301    1.6818 C   0  0  0  0  0  0  0  0  0  0  0  0
    6.3617    0.1683   -0.6985 C   0  0  0  0  0  0  0  0  0  0  0  0
    8.4832    0.3007    0.4499 C   0  0  0  0  0  0  0  0  0  0  0  0
    4.2939   -0.3713    0.5344 C   0  0  0  0  0  0  0  0  0  0  0  0
    7.8506   -0.0089    1.6540 C   0  0  0  0  0  0  0  0  0  0  0  0
    7.7387    0.3893   -0.7262 C   0  0  0  0  0  0  0  0  0  0  0  0
    9.9188    0.5299    0.4206 C   0  0  0  0  0  0  0  0  0  0  0  0
   -4.3802    1.8326    0.1631 H   0  0  0  0  0  0  0  0  0  0  0  0
   -6.4719    3.3101   -1.5062 H   0  0  0  0  0  0  0  0  0  0  0  0
   -5.4231    2.0092   -2.0931 H   0  0  0  0  0  0  0  0  0  0  0  0
   -4.7174    3.5316   -1.5272 H   0  0  0  0  0  0  0  0  0  0  0  0
   -6.4556    3.8918    1.0534 H   0  0  0  0  0  0  0  0  0  0  0  0
   -4.7019    4.0956    0.9562 H   0  0  0  0  0  0  0  0  0  0  0  0
   -5.3972    2.9694    2.1328 H   0  0  0  0  0  0  0  0  0  0  0  0
   -8.1089    2.4285    0.0515 H   0  0  0  0  0  0  0  0  0  0  0  0
   -6.5723   -2.1736    1.0958 H   0  0  0  0  0  0  0  0  0  0  0  0
   -9.7498    0.6596    0.4640 H   0  0  0  0  0  0  0  0  0  0  0  0
   -4.2812   -2.4401    0.2304 H   0  0  0  0  0  0  0  0  0  0  0  0
   -4.7426   -1.4453   -1.1543 H   0  0  0  0  0  0  0  0  0  0  0  0
  -10.2009   -1.7552    0.5106 H   0  0  0  0  0  0  0  0  0  0  0  0
   -9.4886   -2.0179    2.1194 H   0  0  0  0  0  0  0  0  0  0  0  0
   -8.8970   -2.9224    0.7052 H   0  0  0  0  0  0  0  0  0  0  0  0
   -3.1415    0.0884   -2.2189 H   0  0  0  0  0  0  0  0  0  0  0  0
   -1.9887   -2.4121    1.0984 H   0  0  0  0  0  0  0  0  0  0  0  0
   -0.7762    0.5159   -2.7203 H   0  0  0  0  0  0  0  0  0  0  0  0
    0.3582   -2.0193    0.5948 H   0  0  0  0  0  0  0  0  0  0  0  0
    1.9417   -0.7237    0.6343 H   0  0  0  0  0  0  0  0  0  0  0  0
    5.9945   -0.4705    2.6275 H   0  0  0  0  0  0  0  0  0  0  0  0
    5.8075    0.2441   -1.6302 H   0  0  0  0  0  0  0  0  0  0  0  0
    3.8507   -0.6129    1.5187 H   0  0  0  0  0  0  0  0  0  0  0  0
    8.3917   -0.0881    2.5927 H   0  0  0  0  0  0  0  0  0  0  0  0
    8.2129    0.6292   -1.6744 H   0  0  0  0  0  0  0  0  0  0  0  0
   11.4591    0.5622    1.6188 H   0  0  0  0  0  0  0  0  0  0  0  0
  1  9  1  0  0  0  0
  1 16  1  0  0  0  0
  2 24  2  0  0  0  0
  3 32  1  0  0  0  0
  3 58  1  0  0  0  0
  4 32  2  0  0  0  0
  5  6  1  0  0  0  0
  5 24  1  0  0  0  0
  5 52  1  0  0  0  0
  6 29  2  0  0  0  0
  7  8  1  0  0  0  0
  7 10  1  0  0  0  0
  7 11  1  0  0  0  0
  7 33  1  0  0  0  0
  8  9  2  0  0  0  0
  8 12  1  0  0  0  0
  9 13  1  0  0  0  0
 10 34  1  0  0  0  0
 10 35  1  0  0  0  0
 10 36  1  0  0  0  0
 11 37  1  0  0  0  0
 11 38  1  0  0  0  0
 11 39  1  0  0  0  0
 12 15  2  0  0  0  0
 12 40  1  0  0  0  0
 13 14  2  0  0  0  0
 13 41  1  0  0  0  0
 14 15  1  0  0  0  0
 14 18  1  0  0  0  0
 15 42  1  0  0  0  0
 16 17  1  0  0  0  0
 16 43  1  0  0  0  0
 16 44  1  0  0  0  0
 17 19  2  0  0  0  0
 17 20  1  0  0  0  0
 18 45  1  0  0  0  0
 18 46  1  0  0  0  0
 18 47  1  0  0  0  0
 19 22  1  0  0  0  0
 19 48  1  0  0  0  0
 20 23  2  0  0  0  0
 20 49  1  0  0  0  0
 21 22  2  0  0  0  0
 21 23  1  0  0  0  0
 21 24  1  0  0  0  0
 22 50  1  0  0  0  0
 23 51  1  0  0  0  0
 25 26  2  0  0  0  0
 25 27  1  0  0  0  0
 25 29  1  0  0  0  0
 26 30  1  0  0  0  0
 26 53  1  0  0  0  0
 27 31  2  0  0  0  0
 27 54  1  0  0  0  0
 28 30  2  0  0  0  0
 28 31  1  0  0  0  0
 28 32  1  0  0  0  0
 29 55  1  0  0  0  0
 30 56  1  0  0  0  0
 31 57  1  0  0  0  0
M  END
> <PUBCHEM_COMPOUND_CID>
6902747

> <PUBCHEM_CONFORMER_RMSD>
1

> <PUBCHEM_CONFORMER_DIVERSEORDER>
1
23
26
35
20
12
37
40
41
16
19
39
28
25
4
8
9
31
10
36
30
33
42
17
5
38
21
7
13
18
24
34
14
11
22
15
3
32
29
2
6
27

> <PUBCHEM_MMFF94_PARTIAL_CHARGES>
44
1 -0.36
12 -0.15
13 -0.15
14 -0.14
15 -0.15
16 0.42
17 -0.14
18 0.14
19 -0.15
2 -0.57
20 -0.15
21 0.09
22 -0.15
23 -0.15
24 0.54
25 0.09
26 -0.15
27 -0.15
28 0.09
29 0.3
3 -0.65
30 -0.15
31 -0.15
32 0.63
4 -0.57
40 0.15
41 0.15
42 0.15
48 0.15
49 0.15
5 -0.37
50 0.15
51 0.15
52 0.37
53 0.15
54 0.15
55 0.06
56 0.15
57 0.15
58 0.5
6 -0.51
7 0.14
8 -0.14
9 0.08

> <PUBCHEM_EFFECTIVE_ROTOR_COUNT>
9

> <PUBCHEM_PHARMACOPHORE_FEATURES>
11
1 1 acceptor
1 2 acceptor
1 3 acceptor
1 4 acceptor
1 5 donor
1 6 acceptor
3 3 4 32 anion
3 7 10 11 hydrophobe
6 17 19 20 21 22 23 rings
6 25 26 27 28 30 31 rings
6 8 9 12 13 14 15 rings

> <PUBCHEM_HEAVY_ATOM_COUNT>
32

> <PUBCHEM_ATOM_DEF_STEREO_COUNT>
0

> <PUBCHEM_ATOM_UDEF_STEREO_COUNT>
0

> <PUBCHEM_BOND_DEF_STEREO_COUNT>
1

> <PUBCHEM_BOND_UDEF_STEREO_COUNT>
0

> <PUBCHEM_ISOTOPIC_ATOM_COUNT>
0

> <PUBCHEM_COMPONENT_COUNT>
1

> <PUBCHEM_CACTVS_TAUTO_COUNT>
2

> <PUBCHEM_CONFORMER_ID>
006953DB00000001

> <PUBCHEM_MMFF94_ENERGY>
100.1592

> <PUBCHEM_FEATURE_SELFOVERLAP>
55.885

> <PUBCHEM_SHAPE_FINGERPRINT>
10 15 18272651234079520871
10100884 174 17533225404315896435
10369192 42 16988566776251833341
10625338 86 18131068225366612080
106641 1 17821729450965396822
12104220 1 18040995155673629527
12664476 115 18059855069591870673
13150687 139 14692579827444272812
13673619 4 13479132406140195727
13726171 33 17772200713506862617
14150022 121 18260265210008009021
14251764 18 17530970189490460807
14428016 86 15985109617390289198
150020 25 7997966860570040822
15247644 1 13045942408455872088
15392192 104 18334012804968096074
15419008 145 18113898238834119853
1754911 235 13686299088795182778
18354007 30 17606104092741997117
18603816 31 14201404928327726227
19841028 212 11675139459808174768
20105231 36 17022897906027817530
20580484 106 18333726927965528202
21360443 89 18337953511257237419
21772524 286 18116147771248503652
23576562 1 14619928531117643115
437795 83 16199874960180388465
44280117 145 17917991712170035023
44802255 64 17275099518865689151
5470011 282 7853569128466373530
58902169 19 12751229324636410696
59521270 166 9943538397397201843
6126387 218 16153421728278884175
6691757 9 18261664948365817975
9962374 69 15864354708902833478
999808 66 13912325668072874256

> <PUBCHEM_SHAPE_MULTIPOLES>
625.11
38.58
2.09
1.62
60.21
1.63
-0.45
8.21
17.15
-6.82
0.26
1.22
0.08
0.66

> <PUBCHEM_SHAPE_SELFOVERLAP>
1342.24

> <PUBCHEM_SHAPE_VOLUME>
345.6

> <PUBCHEM_COORDINATE_TYPE>
2
5
10

$$$$
