1883477
  -OEChem-01171809543D

 36 37  0     0  0  0  0  0  0999 V2000
   -2.1254    2.4951   -1.0850 O   0  0  0  0  0  0  0  0  0  0  0  0
    0.3900    3.2933   -0.0477 O   0  0  0  0  0  0  0  0  0  0  0  0
    5.7153   -2.2239    0.0056 O   0  0  0  0  0  0  0  0  0  0  0  0
    3.6687   -3.2079   -0.0930 O   0  0  0  0  0  0  0  0  0  0  0  0
   -2.0439    1.3219    0.9473 N   0  0  0  0  0  0  0  0  0  0  0  0
    0.5939    0.9336   -0.0885 N   0  0  0  0  0  0  0  0  0  0  0  0
   -3.4547    1.0698    1.1258 C   0  0  0  0  0  0  0  0  0  0  0  0
   -3.8776   -0.2269    0.4983 C   0  0  0  0  0  0  0  0  0  0  0  0
    1.9884    0.7042   -0.0452 C   0  0  0  0  0  0  0  0  0  0  0  0
   -4.3056   -0.2433   -0.8240 C   0  0  0  0  0  0  0  0  0  0  0  0
   -3.8372   -1.3980    1.2458 C   0  0  0  0  0  0  0  0  0  0  0  0
    2.4638   -0.5971   -0.0645 C   0  0  0  0  0  0  0  0  0  0  0  0
    3.8397   -0.8225   -0.0226 C   0  0  0  0  0  0  0  0  0  0  0  0
    2.8521    1.7861    0.0149 C   0  0  0  0  0  0  0  0  0  0  0  0
   -1.5366    2.0046   -0.1349 C   0  0  0  0  0  0  0  0  0  0  0  0
   -0.0462    2.1546   -0.0780 C   0  0  0  0  0  0  0  0  0  0  0  0
   -4.6986   -1.4479   -1.4072 C   0  0  0  0  0  0  0  0  0  0  0  0
   -4.2303   -2.6027    0.6625 C   0  0  0  0  0  0  0  0  0  0  0  0
    4.7218    0.2562    0.0381 C   0  0  0  0  0  0  0  0  0  0  0  0
    4.2279    1.5606    0.0568 C   0  0  0  0  0  0  0  0  0  0  0  0
   -4.6609   -2.6277   -0.6639 C   0  0  0  0  0  0  0  0  0  0  0  0
    4.3553   -2.1822   -0.0407 C   0  0  0  0  0  0  0  0  0  0  0  0
   -4.0281    1.9034    0.7025 H   0  0  0  0  0  0  0  0  0  0  0  0
   -3.6548    1.0611    2.2033 H   0  0  0  0  0  0  0  0  0  0  0  0
   -1.4058    0.9688    1.6548 H   0  0  0  0  0  0  0  0  0  0  0  0
   -4.3416    0.6687   -1.4129 H   0  0  0  0  0  0  0  0  0  0  0  0
   -3.5017   -1.3905    2.2791 H   0  0  0  0  0  0  0  0  0  0  0  0
    1.7686   -1.4316   -0.1118 H   0  0  0  0  0  0  0  0  0  0  0  0
    0.0139    0.0981   -0.1297 H   0  0  0  0  0  0  0  0  0  0  0  0
    2.5408    2.8209    0.0338 H   0  0  0  0  0  0  0  0  0  0  0  0
    5.7999    0.1264    0.0726 H   0  0  0  0  0  0  0  0  0  0  0  0
   -5.0344   -1.4672   -2.4399 H   0  0  0  0  0  0  0  0  0  0  0  0
   -4.2004   -3.5214    1.2411 H   0  0  0  0  0  0  0  0  0  0  0  0
    4.9152    2.4004    0.1045 H   0  0  0  0  0  0  0  0  0  0  0  0
   -4.9669   -3.5657   -1.1180 H   0  0  0  0  0  0  0  0  0  0  0  0
    6.0528   -3.1449   -0.0077 H   0  0  0  0  0  0  0  0  0  0  0  0
  1 15  2  0  0  0  0
  2 16  2  0  0  0  0
  3 22  1  0  0  0  0
  3 36  1  0  0  0  0
  4 22  2  0  0  0  0
  5  7  1  0  0  0  0
  5 15  1  0  0  0  0
  5 25  1  0  0  0  0
  6  9  1  0  0  0  0
  6 16  1  0  0  0  0
  6 29  1  0  0  0  0
  7  8  1  0  0  0  0
  7 23  1  0  0  0  0
  7 24  1  0  0  0  0
  8 10  2  0  0  0  0
  8 11  1  0  0  0  0
  9 12  1  0  0  0  0
  9 14  2  0  0  0  0
 10 17  1  0  0  0  0
 10 26  1  0  0  0  0
 11 18  2  0  0  0  0
 11 27  1  0  0  0  0
 12 13  2  0  0  0  0
 12 28  1  0  0  0  0
 13 19  1  0  0  0  0
 13 22  1  0  0  0  0
 14 20  1  0  0  0  0
 14 30  1  0  0  0  0
 15 16  1  0  0  0  0
 17 21  2  0  0  0  0
 17 32  1  0  0  0  0
 18 21  1  0  0  0  0
 18 33  1  0  0  0  0
 19 20  2  0  0  0  0
 19 31  1  0  0  0  0
 20 34  1  0  0  0  0
 21 35  1  0  0  0  0
M  END
> <PUBCHEM_COMPOUND_CID>
1883477

> <PUBCHEM_CONFORMER_RMSD>
0.8

> <PUBCHEM_CONFORMER_DIVERSEORDER>
1
67
22
65
41
56
24
46
15
3
69
42
9
33
40
35
45
57
19
2
59
55
12
36
13
68
64
26
30
4
58
60
34
21
43
47
23
18
66
32
29
25
14
53
16
61
38
50
10
37
51
27
5
44
39
31
11
8
49
17
62
52
20
63
28
6
7
54
48

> <PUBCHEM_MMFF94_PARTIAL_CHARGES>
34
1 -0.57
10 -0.15
11 -0.15
12 -0.15
13 0.09
14 -0.15
15 0.63
16 0.63
17 -0.15
18 -0.15
19 -0.15
2 -0.57
20 -0.15
21 -0.15
22 0.63
25 0.37
26 0.15
27 0.15
28 0.15
29 0.37
3 -0.65
30 0.15
31 0.15
32 0.15
33 0.15
34 0.15
35 0.15
36 0.5
4 -0.57
5 -0.73
6 -0.55
7 0.44
8 -0.14
9 0.12

> <PUBCHEM_EFFECTIVE_ROTOR_COUNT>
7

> <PUBCHEM_PHARMACOPHORE_FEATURES>
9
1 1 acceptor
1 2 acceptor
1 3 acceptor
1 4 acceptor
1 5 donor
1 6 donor
3 3 4 22 anion
6 8 10 11 17 18 21 rings
6 9 12 13 14 19 20 rings

> <PUBCHEM_HEAVY_ATOM_COUNT>
22

> <PUBCHEM_ATOM_DEF_STEREO_COUNT>
0

> <PUBCHEM_ATOM_UDEF_STEREO_COUNT>
0

> <PUBCHEM_BOND_DEF_STEREO_COUNT>
0

> <PUBCHEM_BOND_UDEF_STEREO_COUNT>
0

> <PUBCHEM_ISOTOPIC_ATOM_COUNT>
0

> <PUBCHEM_COMPONENT_COUNT>
1

> <PUBCHEM_CACTVS_TAUTO_COUNT>
4

> <PUBCHEM_CONFORMER_ID>
001CBD5500000001

> <PUBCHEM_MMFF94_ENERGY>
54.6314

> <PUBCHEM_FEATURE_SELFOVERLAP>
45.735

> <PUBCHEM_SHAPE_FINGERPRINT>
108634 29 17823144586865683610
10928967 22 18339660961259747110
11552529 35 18130791135609292545
12174731 88 17903068937207967490
12596602 18 16988287585343052192
13103583 49 17775019967845089305
13255334 9 18410860923690760566
13544653 18 18409732884679312053
14429380 30 18408044005007945962
14681488 357 17916323653276098454
14848178 5 18339072787200078019
14950920 106 16845290570385832027
15163728 17 12829483697715827993
15250474 111 18341050735493551442
15352361 1 18410293635693698331
15537594 2 18339099158246521323
17857418 61 18410290285740689226
17959699 21 8574711299784472212
19141452 34 18339649936669431577
20028762 73 18343014468083903710
21033650 10 16588296134257946333
21673915 165 18412263956256921594
221490 88 18409730621743119908
22393880 68 17968366849610596784
22620623 9 17168132391595918221
23379529 103 18125731080404407878
23559900 14 18335976506559025536
314194 84 18340210815973342761
316301 35 18336824179090796226
3246872 21 18053939833883376942
4283 87 18262516979334657042
46194498 28 17169828023631015799
463206 1 18335145293000823083
5104073 3 18272932687681629096
5365585 94 18187372068652602971
5924683 9 18272369750623691049
6431902 208 18410012160553827698
7970288 3 18124315162894517915
88748 71 18336834203438833395
9709674 26 18260556631769611712

> <PUBCHEM_SHAPE_MULTIPOLES>
419.31
13.17
3.75
0.99
1.96
0.59
0.01
10.55
0.55
0.92
0.24
-1.5
0.08
-0.21

> <PUBCHEM_SHAPE_SELFOVERLAP>
897.471

> <PUBCHEM_SHAPE_VOLUME>
228.9

> <PUBCHEM_COORDINATE_TYPE>
2
5
10

$$$$
