4326676
  -OEChem-01171809463D

 30 32  0     0  0  0  0  0  0999 V2000
    0.4382    1.0107   -1.3684 S   0  0  0  0  0  0  0  0  0  0  0  0
   -0.3583    3.1086    0.5355 S   0  0  0  0  0  0  0  0  0  0  0  0
    4.9878   -1.7295    1.1433 F   0  0  0  0  0  0  0  0  0  0  0  0
    0.9935    2.1897   -2.0299 O   0  0  0  0  0  0  0  0  0  0  0  0
   -0.3122    0.0211   -2.1361 O   0  0  0  0  0  0  0  0  0  0  0  0
   -2.2801    1.8528    1.5396 N   0  0  0  0  0  0  0  0  0  0  0  0
   -1.6338    3.0053    1.6165 N   0  0  0  0  0  0  0  0  0  0  0  0
   -0.6413    1.5407   -0.1013 C   0  0  0  0  0  0  0  0  0  0  0  0
    1.8115    0.1843   -0.6090 C   0  0  0  0  0  0  0  0  0  0  0  0
   -1.7272    1.0263    0.5759 C   0  0  0  0  0  0  0  0  0  0  0  0
   -2.2635   -0.2800    0.3146 C   0  0  0  0  0  0  0  0  0  0  0  0
    1.7349   -1.1772   -0.3900 C   0  0  0  0  0  0  0  0  0  0  0  0
    2.9250    0.9210   -0.2557 C   0  0  0  0  0  0  0  0  0  0  0  0
   -1.7837   -1.3850    1.0178 C   0  0  0  0  0  0  0  0  0  0  0  0
   -3.2644   -0.4437   -0.6430 C   0  0  0  0  0  0  0  0  0  0  0  0
    2.8151   -1.8280    0.2059 C   0  0  0  0  0  0  0  0  0  0  0  0
    4.0051    0.2701    0.3404 C   0  0  0  0  0  0  0  0  0  0  0  0
    3.9503   -1.1044    0.5712 C   0  0  0  0  0  0  0  0  0  0  0  0
   -2.3051   -2.6535    0.7636 C   0  0  0  0  0  0  0  0  0  0  0  0
   -3.7857   -1.7122   -0.8971 C   0  0  0  0  0  0  0  0  0  0  0  0
   -3.3061   -2.8172   -0.1939 C   0  0  0  0  0  0  0  0  0  0  0  0
    0.8605   -1.7572   -0.6664 H   0  0  0  0  0  0  0  0  0  0  0  0
    2.9845    1.9921   -0.4201 H   0  0  0  0  0  0  0  0  0  0  0  0
   -1.0039   -1.2744    1.7676 H   0  0  0  0  0  0  0  0  0  0  0  0
   -3.6492    0.4074   -1.2000 H   0  0  0  0  0  0  0  0  0  0  0  0
    2.7725   -2.8981    0.3862 H   0  0  0  0  0  0  0  0  0  0  0  0
    4.8885    0.8334    0.6265 H   0  0  0  0  0  0  0  0  0  0  0  0
   -1.9311   -3.5138    1.3109 H   0  0  0  0  0  0  0  0  0  0  0  0
   -4.5649   -1.8398   -1.6428 H   0  0  0  0  0  0  0  0  0  0  0  0
   -3.7119   -3.8050   -0.3919 H   0  0  0  0  0  0  0  0  0  0  0  0
  1  4  2  0  0  0  0
  1  5  2  0  0  0  0
  1  8  1  0  0  0  0
  1  9  1  0  0  0  0
  2  7  1  0  0  0  0
  2  8  1  0  0  0  0
  3 18  1  0  0  0  0
  6  7  2  0  0  0  0
  6 10  1  0  0  0  0
  8 10  2  0  0  0  0
  9 12  2  0  0  0  0
  9 13  1  0  0  0  0
 10 11  1  0  0  0  0
 11 14  2  0  0  0  0
 11 15  1  0  0  0  0
 12 16  1  0  0  0  0
 12 22  1  0  0  0  0
 13 17  2  0  0  0  0
 13 23  1  0  0  0  0
 14 19  1  0  0  0  0
 14 24  1  0  0  0  0
 15 20  2  0  0  0  0
 15 25  1  0  0  0  0
 16 18  2  0  0  0  0
 16 26  1  0  0  0  0
 17 18  1  0  0  0  0
 17 27  1  0  0  0  0
 19 21  2  0  0  0  0
 19 28  1  0  0  0  0
 20 21  1  0  0  0  0
 20 29  1  0  0  0  0
 21 30  1  0  0  0  0
M  END
> <PUBCHEM_COMPOUND_CID>
4326676

> <PUBCHEM_CONFORMER_RMSD>
0.6

> <PUBCHEM_CONFORMER_DIVERSEORDER>
1
11
9
3
12
8
10
5
2
7
4
6
13

> <PUBCHEM_MMFF94_PARTIAL_CHARGES>
30
1 1.37
10 0.17
11 0.05
12 -0.15
13 -0.15
14 -0.15
15 -0.15
16 -0.15
17 -0.15
18 0.19
19 -0.15
2 0.18
20 -0.15
21 -0.15
22 0.15
23 0.15
24 0.15
25 0.15
26 0.15
27 0.15
28 0.15
29 0.15
3 -0.19
30 0.15
4 -0.65
5 -0.65
6 -0.23
7 -0.22
8 -0.02
9 -0.01

> <PUBCHEM_EFFECTIVE_ROTOR_COUNT>
3

> <PUBCHEM_PHARMACOPHORE_FEATURES>
5
1 4 acceptor
1 5 acceptor
5 2 6 7 8 10 rings
6 11 14 15 19 20 21 rings
6 9 12 13 16 17 18 rings

> <PUBCHEM_HEAVY_ATOM_COUNT>
21

> <PUBCHEM_ATOM_DEF_STEREO_COUNT>
0

> <PUBCHEM_ATOM_UDEF_STEREO_COUNT>
0

> <PUBCHEM_BOND_DEF_STEREO_COUNT>
0

> <PUBCHEM_BOND_UDEF_STEREO_COUNT>
0

> <PUBCHEM_ISOTOPIC_ATOM_COUNT>
0

> <PUBCHEM_COMPONENT_COUNT>
1

> <PUBCHEM_CACTVS_TAUTO_COUNT>
1

> <PUBCHEM_CONFORMER_ID>
0042051400000001

> <PUBCHEM_MMFF94_ENERGY>
38.6948

> <PUBCHEM_FEATURE_SELFOVERLAP>
25.388

> <PUBCHEM_SHAPE_FINGERPRINT>
10366900 7 18131345302523190474
11265709 11 18342180011566182355
11370993 70 17908139884850295392
11552529 35 18341607080172529946
11578080 2 18188756366429435917
12506688 2 18263645245657235343
12553582 1 18198083540852528187
12596599 1 18335988562774617046
12633257 1 18197220252578968040
12788726 201 18271542935101709777
13004483 165 18341883113161704987
13009979 54 18336277790188129714
13032168 30 18333453161927781514
13083527 12 17559386071135973401
13544653 18 18335983180763753387
13583140 156 16844711042307144458
13994607 96 12462987991896551674
14081887 123 18342730802277298002
14178342 30 18268151959468503610
14223421 5 18201440264010609852
14251757 17 17460285863963976447
14787075 74 17765159753831411260
15375462 478 18342736351222109014
18981168 100 14907358355182445744
200 152 18410283744146937815
20197701 30 18049443639491326257
20626108 58 17534603091461228179
20681677 274 18412252948614328032
21250096 35 18339639065795780359
21421861 104 18052286138846538153
21452121 71 18338804527632379012
21650355 55 18341894052306381481
21731228 192 17766573356185220953
23419403 2 18049971619098103365
23557571 272 17702965667909809781
23559900 14 18338223972845381872
23728640 28 18267594511388963227
257057 1 18339924921686430361
392239 28 18055069024335814752
463206 1 18124028198622821855
57527585 103 17386874757985294147
58807428 26 17765735524283297545
6992083 37 18116164285006157496
7097593 13 18122909720592598090
7471813 234 18127964407246982127
81228 2 18263656073322652967
9709674 26 18272092630506591014

> <PUBCHEM_SHAPE_MULTIPOLES>
410.89
7.15
3.49
1.49
4.53
1.26
-0.41
-5.94
1.18
-1.58
1.13
-0.2
0.66
-1.39

> <PUBCHEM_SHAPE_SELFOVERLAP>
875.051

> <PUBCHEM_SHAPE_VOLUME>
231.5

> <PUBCHEM_COORDINATE_TYPE>
2
5
10

$$$$
