2585073
  -OEChem-01171809363D

 37 38  0     0  0  0  0  0  0999 V2000
   -5.0629   -1.9816   -1.3770 Cl  0  0  0  0  0  0  0  0  0  0  0  0
   -6.5385   -0.2053    0.9591 Cl  0  0  0  0  0  0  0  0  0  0  0  0
   -0.3957   -0.4955    1.2011 O   0  0  0  0  0  0  0  0  0  0  0  0
   -2.3383   -1.0091   -1.7774 O   0  0  0  0  0  0  0  0  0  0  0  0
    3.6350    0.2030    0.3486 N   0  0  0  0  0  0  0  0  0  0  0  0
   -2.3117    0.7000   -0.2157 N   0  0  0  0  0  0  0  0  0  0  0  0
   -2.9414    1.4283    0.7536 N   0  0  0  0  0  0  0  0  0  0  0  0
    2.4236   -0.2182    0.8316 C   0  0  0  0  0  0  0  0  0  0  0  0
    1.4755    0.4317    0.1131 C   0  0  0  0  0  0  0  0  0  0  0  0
    3.4371    1.1070   -0.6623 C   0  0  0  0  0  0  0  0  0  0  0  0
    2.0788    1.2658   -0.8265 C   0  0  0  0  0  0  0  0  0  0  0  0
    4.9264   -0.2402    0.8308 C   0  0  0  0  0  0  0  0  0  0  0  0
    0.0273    0.2579    0.3230 C   0  0  0  0  0  0  0  0  0  0  0  0
    2.3194   -1.2001    1.9331 C   0  0  0  0  0  0  0  0  0  0  0  0
   -0.9394    1.0460   -0.5486 C   0  0  0  0  0  0  0  0  0  0  0  0
    4.5586    1.7417   -1.3857 C   0  0  0  0  0  0  0  0  0  0  0  0
    5.4070   -1.4475    0.0874 C   0  0  0  0  0  0  0  0  0  0  0  0
   -2.9069   -0.3537   -0.9032 C   0  0  0  0  0  0  0  0  0  0  0  0
   -4.3143   -0.6768   -0.5315 C   0  0  0  0  0  0  0  0  0  0  0  0
    6.5523   -1.4899   -0.6026 C   0  0  0  0  0  0  0  0  0  0  0  0
   -4.1582    1.1065    1.0358 C   0  0  0  0  0  0  0  0  0  0  0  0
   -4.9334    0.0300    0.4130 C   0  0  0  0  0  0  0  0  0  0  0  0
    1.6089    1.9171   -1.5505 H   0  0  0  0  0  0  0  0  0  0  0  0
    5.6299    0.5955    0.7460 H   0  0  0  0  0  0  0  0  0  0  0  0
    4.8561   -0.4507    1.9025 H   0  0  0  0  0  0  0  0  0  0  0  0
    1.5008   -1.9051    1.7578 H   0  0  0  0  0  0  0  0  0  0  0  0
    3.2087   -1.8226    2.0563 H   0  0  0  0  0  0  0  0  0  0  0  0
    2.1316   -0.6863    2.8814 H   0  0  0  0  0  0  0  0  0  0  0  0
   -0.7412    0.8200   -1.6013 H   0  0  0  0  0  0  0  0  0  0  0  0
   -0.7965    2.1179   -0.3752 H   0  0  0  0  0  0  0  0  0  0  0  0
    4.1846    2.4029   -2.1750 H   0  0  0  0  0  0  0  0  0  0  0  0
    5.1683    2.3521   -0.7122 H   0  0  0  0  0  0  0  0  0  0  0  0
    5.1978    0.9944   -1.8648 H   0  0  0  0  0  0  0  0  0  0  0  0
    4.7947   -2.3449    0.1263 H   0  0  0  0  0  0  0  0  0  0  0  0
    6.8512   -2.3977   -1.1153 H   0  0  0  0  0  0  0  0  0  0  0  0
    7.2069   -0.6281   -0.6695 H   0  0  0  0  0  0  0  0  0  0  0  0
   -4.6766    1.6872    1.8166 H   0  0  0  0  0  0  0  0  0  0  0  0
  1 19  1  0  0  0  0
  2 22  1  0  0  0  0
  3 13  2  0  0  0  0
  4 18  2  0  0  0  0
  5  8  1  0  0  0  0
  5 10  1  0  0  0  0
  5 12  1  0  0  0  0
  6  7  1  0  0  0  0
  6 15  1  0  0  0  0
  6 18  1  0  0  0  0
  7 21  2  0  0  0  0
  8  9  2  0  0  0  0
  8 14  1  0  0  0  0
  9 11  1  0  0  0  0
  9 13  1  0  0  0  0
 10 11  2  0  0  0  0
 10 16  1  0  0  0  0
 11 23  1  0  0  0  0
 12 17  1  0  0  0  0
 12 24  1  0  0  0  0
 12 25  1  0  0  0  0
 13 15  1  0  0  0  0
 14 26  1  0  0  0  0
 14 27  1  0  0  0  0
 14 28  1  0  0  0  0
 15 29  1  0  0  0  0
 15 30  1  0  0  0  0
 16 31  1  0  0  0  0
 16 32  1  0  0  0  0
 16 33  1  0  0  0  0
 17 20  2  0  0  0  0
 17 34  1  0  0  0  0
 18 19  1  0  0  0  0
 19 22  2  0  0  0  0
 20 35  1  0  0  0  0
 20 36  1  0  0  0  0
 21 22  1  0  0  0  0
 21 37  1  0  0  0  0
M  END
> <PUBCHEM_COMPOUND_CID>
2585073

> <PUBCHEM_CONFORMER_RMSD>
0.8

> <PUBCHEM_CONFORMER_DIVERSEORDER>
2
62
159
165
94
151
33
137
174
89
88
79
163
109
73
176
26
119
147
20
67
158
83
14
37
155
72
57
32
118
150
31
172
146
44
161
127
23
68
178
90
169
95
149
143
138
40
139
115
61
96
108
136
25
167
130
49
46
45
164
162
120
135
1
84
8
80
50
152
27
53
144
16
171
28
141
34
154
64
134
140
77
9
65
13
85
128
22
71
63
106
69
38
107
153
116
129
36
11
113
175
123
17
131
170
132
160
52
87
60
133
91
97
177
126
81
15
74
148
48
59
105
117
76
47
29
102
93
24
101
78
21
19
122
55
110
156
51
70
30
35
173
98
42
142
3
114
100
168
157
18
112
10
92
41
104
66
124
103
166
56
125
82
6
54
86
145
4
99
39
111
12
43
121
7
75
5
58

> <PUBCHEM_MMFF94_PARTIAL_CHARGES>
27
1 -0.14
10 -0.33
11 -0.15
12 0.39
13 0.6
14 0.18
15 0.36
16 0.18
17 -0.29
18 0.62
19 0.15
2 -0.14
20 -0.3
21 0.38
22 0.15
23 0.15
3 -0.57
34 0.15
35 0.15
36 0.15
37 0.06
4 -0.57
5 0.05
6 -0.3
7 -0.51
8 -0.33
9 -0.09

> <PUBCHEM_EFFECTIVE_ROTOR_COUNT>
5

> <PUBCHEM_PHARMACOPHORE_FEATURES>
7
1 20 hydrophobe
1 3 acceptor
1 4 acceptor
1 5 cation
1 7 acceptor
5 5 8 9 10 11 rings
6 6 7 18 19 21 22 rings

> <PUBCHEM_HEAVY_ATOM_COUNT>
22

> <PUBCHEM_ATOM_DEF_STEREO_COUNT>
0

> <PUBCHEM_ATOM_UDEF_STEREO_COUNT>
0

> <PUBCHEM_BOND_DEF_STEREO_COUNT>
0

> <PUBCHEM_BOND_UDEF_STEREO_COUNT>
0

> <PUBCHEM_ISOTOPIC_ATOM_COUNT>
0

> <PUBCHEM_COMPONENT_COUNT>
1

> <PUBCHEM_CACTVS_TAUTO_COUNT>
2

> <PUBCHEM_CONFORMER_ID>
002771F100000002

> <PUBCHEM_MMFF94_ENERGY>
42.9881

> <PUBCHEM_FEATURE_SELFOVERLAP>
35.522

> <PUBCHEM_SHAPE_FINGERPRINT>
10 15 15626218043804727546
10366900 7 15646774478796041985
11405975 8 16558740243590070394
11545043 162 17275097332199904899
11796584 16 17346317064503253438
12236239 1 18409171026164522457
12403259 415 16298383573787079613
12596602 18 18271239521178577337
12616971 3 18407761451956923021
12730499 353 16805324400963643762
13167823 11 18272083898890533350
13533116 47 18410856569058094224
13668630 136 18040157318490204051
13675066 3 15482670216866978397
13760787 5 18113899381310672789
13862211 1 17749384816158329346
14251751 18 17704351069994131430
14350574 20 17603307042022133266
14386348 63 15719391737712065505
15188451 53 17059762434414077447
15348495 7 16415470592825344083
15788980 27 18408882919220100268
15961568 22 13046236017163606326
17349148 13 18187643579294169600
17844677 252 17530685394150784757
200 152 17894906330681676049
20645477 70 17312817169575595064
21033648 29 16298656278472493485
21150785 3 15357987771625668190
21267235 1 18186809058147165344
21315763 191 18272370892763205999
21709351 56 18040713628118282684
221357 26 17748826302505425452
23402539 116 18410852140187364605
23522609 53 18126032492013151752
23536379 177 18060138717763724752
23559900 14 16487260992716045965
23569943 247 17902231114275618162
26918003 58 15339115745224347890
29717793 49 18408881832704047036
3004659 81 17917160450665637092
338550 245 18202565081696964606
34797466 226 14057011489988872730
351380 3 18334855004524107539
4072396 5 13542459831378411990
4325135 7 13767932325088433011
5104073 3 17417530345211400123
5385378 56 16772971211746332119
602551 16 17489021677564871959
7495541 125 17274816995589910048

> <PUBCHEM_SHAPE_MULTIPOLES>
429.81
15.71
1.66
1.47
0.94
0.06
-0.06
5.12
-0.95
-1.06
-0.41
0.61
0.37
-1.93

> <PUBCHEM_SHAPE_SELFOVERLAP>
890.21

> <PUBCHEM_SHAPE_VOLUME>
249

> <PUBCHEM_COORDINATE_TYPE>
2
5
10

$$$$
