1259370
  -OEChem-01171810133D

 54 56  0     0  0  0  0  0  0999 V2000
    0.7902   -1.8526   -2.5716 S   0  0  0  0  0  0  0  0  0  0  0  0
    3.7185   -2.0749    2.9490 F   0  0  0  0  0  0  0  0  0  0  0  0
    2.0186   -3.3255    2.4486 F   0  0  0  0  0  0  0  0  0  0  0  0
    3.9102   -3.6012    1.4121 F   0  0  0  0  0  0  0  0  0  0  0  0
   -6.9553    1.3068    1.0784 O   0  0  0  0  0  0  0  0  0  0  0  0
   -3.1049   -1.7876    0.8373 O   0  0  0  0  0  0  0  0  0  0  0  0
    1.5401   -1.4077   -3.7335 O   0  0  0  0  0  0  0  0  0  0  0  0
    0.5272   -3.2667   -2.3681 O   0  0  0  0  0  0  0  0  0  0  0  0
    0.4157    2.4159   -0.0255 O   0  0  0  0  0  0  0  0  0  0  0  0
   -4.8515   -0.3751    0.2505 N   0  0  0  0  0  0  0  0  0  0  0  0
    1.8677    0.0802   -1.0990 N   0  0  0  0  0  0  0  0  0  0  0  0
    1.9987   -2.1612   -0.2238 N   0  0  0  0  0  0  0  0  0  0  0  0
   -5.5352    0.4941   -0.7130 C   0  0  0  0  0  0  0  0  0  0  0  0
   -5.6447   -0.6979    1.4364 C   0  0  0  0  0  0  0  0  0  0  0  0
   -1.5283   -1.3125   -1.2598 C   0  0  0  0  0  0  0  0  0  0  0  0
   -2.8575   -0.5808   -1.1882 C   0  0  0  0  0  0  0  0  0  0  0  0
   -0.7582   -1.0055   -2.5373 C   0  0  0  0  0  0  0  0  0  0  0  0
   -3.6090   -0.9750    0.0581 C   0  0  0  0  0  0  0  0  0  0  0  0
   -6.1149    1.7124   -0.0052 C   0  0  0  0  0  0  0  0  0  0  0  0
   -6.2143    0.5707    2.0551 C   0  0  0  0  0  0  0  0  0  0  0  0
    1.6414   -1.2464   -1.1454 C   0  0  0  0  0  0  0  0  0  0  0  0
    2.5241    0.5078   -0.0005 C   0  0  0  0  0  0  0  0  0  0  0  0
    2.6511   -1.6648    0.8477 C   0  0  0  0  0  0  0  0  0  0  0  0
    2.9445   -0.3267    1.0146 C   0  0  0  0  0  0  0  0  0  0  0  0
    2.7686    1.9293    0.0519 C   0  0  0  0  0  0  0  0  0  0  0  0
    1.7108    2.8384    0.0381 C   0  0  0  0  0  0  0  0  0  0  0  0
    3.0646   -2.6446    1.8940 C   0  0  0  0  0  0  0  0  0  0  0  0
    4.0835    2.3903    0.1176 C   0  0  0  0  0  0  0  0  0  0  0  0
    1.9680    4.2085    0.0902 C   0  0  0  0  0  0  0  0  0  0  0  0
    4.3406    3.7603    0.1696 C   0  0  0  0  0  0  0  0  0  0  0  0
    3.2828    4.6693    0.1558 C   0  0  0  0  0  0  0  0  0  0  0  0
   -0.5933    3.4229   -0.0344 C   0  0  0  0  0  0  0  0  0  0  0  0
   -1.6986   -2.3950   -1.1942 H   0  0  0  0  0  0  0  0  0  0  0  0
   -0.9285   -1.0441   -0.3820 H   0  0  0  0  0  0  0  0  0  0  0  0
   -4.8791    0.8138   -1.5238 H   0  0  0  0  0  0  0  0  0  0  0  0
   -6.3419   -0.1067   -1.1492 H   0  0  0  0  0  0  0  0  0  0  0  0
   -6.4571   -1.3521    1.0984 H   0  0  0  0  0  0  0  0  0  0  0  0
   -5.0496   -1.2477    2.1718 H   0  0  0  0  0  0  0  0  0  0  0  0
   -2.6830    0.5007   -1.1750 H   0  0  0  0  0  0  0  0  0  0  0  0
   -3.4634   -0.8377   -2.0640 H   0  0  0  0  0  0  0  0  0  0  0  0
   -1.3209   -1.3323   -3.4180 H   0  0  0  0  0  0  0  0  0  0  0  0
   -0.5602    0.0664   -2.6373 H   0  0  0  0  0  0  0  0  0  0  0  0
   -6.7235    2.2973   -0.7018 H   0  0  0  0  0  0  0  0  0  0  0  0
   -5.3218    2.3658    0.3778 H   0  0  0  0  0  0  0  0  0  0  0  0
   -5.4209    1.2082    2.4629 H   0  0  0  0  0  0  0  0  0  0  0  0
   -6.8951    0.3175    2.8736 H   0  0  0  0  0  0  0  0  0  0  0  0
    3.4656    0.0456    1.8886 H   0  0  0  0  0  0  0  0  0  0  0  0
    4.9241    1.7003    0.1234 H   0  0  0  0  0  0  0  0  0  0  0  0
    1.2014    4.9754    0.0835 H   0  0  0  0  0  0  0  0  0  0  0  0
    5.3643    4.1194    0.2192 H   0  0  0  0  0  0  0  0  0  0  0  0
    3.4845    5.7359    0.1959 H   0  0  0  0  0  0  0  0  0  0  0  0
   -1.5588    2.9083   -0.0881 H   0  0  0  0  0  0  0  0  0  0  0  0
   -0.5247    4.0573   -0.9247 H   0  0  0  0  0  0  0  0  0  0  0  0
   -0.5962    4.0021    0.8952 H   0  0  0  0  0  0  0  0  0  0  0  0
  1  7  2  0  0  0  0
  1  8  2  0  0  0  0
  1 17  1  0  0  0  0
  1 21  1  0  0  0  0
  2 27  1  0  0  0  0
  3 27  1  0  0  0  0
  4 27  1  0  0  0  0
  5 19  1  0  0  0  0
  5 20  1  0  0  0  0
  6 18  2  0  0  0  0
  9 26  1  0  0  0  0
  9 32  1  0  0  0  0
 10 13  1  0  0  0  0
 10 14  1  0  0  0  0
 10 18  1  0  0  0  0
 11 21  2  0  0  0  0
 11 22  1  0  0  0  0
 12 21  1  0  0  0  0
 12 23  2  0  0  0  0
 13 19  1  0  0  0  0
 13 35  1  0  0  0  0
 13 36  1  0  0  0  0
 14 20  1  0  0  0  0
 14 37  1  0  0  0  0
 14 38  1  0  0  0  0
 15 16  1  0  0  0  0
 15 17  1  0  0  0  0
 15 33  1  0  0  0  0
 15 34  1  0  0  0  0
 16 18  1  0  0  0  0
 16 39  1  0  0  0  0
 16 40  1  0  0  0  0
 17 41  1  0  0  0  0
 17 42  1  0  0  0  0
 19 43  1  0  0  0  0
 19 44  1  0  0  0  0
 20 45  1  0  0  0  0
 20 46  1  0  0  0  0
 22 24  2  0  0  0  0
 22 25  1  0  0  0  0
 23 24  1  0  0  0  0
 23 27  1  0  0  0  0
 24 47  1  0  0  0  0
 25 26  1  0  0  0  0
 25 28  2  0  0  0  0
 26 29  2  0  0  0  0
 28 30  1  0  0  0  0
 28 48  1  0  0  0  0
 29 31  1  0  0  0  0
 29 49  1  0  0  0  0
 30 31  2  0  0  0  0
 30 50  1  0  0  0  0
 31 51  1  0  0  0  0
 32 52  1  0  0  0  0
 32 53  1  0  0  0  0
 32 54  1  0  0  0  0
M  END
> <PUBCHEM_COMPOUND_CID>
1259370

> <PUBCHEM_CONFORMER_RMSD>
1.2

> <PUBCHEM_CONFORMER_DIVERSEORDER>
9
95
52
146
15
55
90
51
28
133
30
61
73
84
126
42
181
5
69
161
25
31
178
148
169
171
3
6
26
100
158
11
110
60
48
107
91
49
14
23
147
173
12
160
165
114
75
83
29
20
124
44
7
116
179
156
37
43
166
13
108
79
22
132
99
78
97
112
56
155
127
34
88
138
131
170
183
41
70
66
157
10
58
93
19
21
50
120
98
2
17
59
62
177
86
8
54
152
162
174
128
136
96
85
175
27
92
121
106
104
4
103
16
67
134
150
125
40
45
167
115
35
102
87
36
123
71
143
77
111
109
142
33
182
135
1
180
118
65
94
38
159
149
140
39
89
24
151
32
18
172
129
81
145
176
105
64
57
139
117
47
68
168
154
63
144
130
82
80
113
72
137
164
101
163
76
119
46
53
122
74
153
141

> <PUBCHEM_MMFF94_PARTIAL_CHARGES>
35
1 1.2
10 -0.66
11 -0.62
12 -0.62
13 0.3
14 0.3
16 0.06
17 0.11
18 0.57
19 0.28
2 -0.34
20 0.28
21 0.61
22 0.31
23 0.17
24 -0.15
26 0.08
27 1.16
28 -0.15
29 -0.15
3 -0.34
30 -0.15
31 -0.15
32 0.28
4 -0.34
47 0.15
48 0.15
49 0.15
5 -0.56
50 0.15
51 0.15
6 -0.57
7 -0.65
8 -0.65
9 -0.36

> <PUBCHEM_EFFECTIVE_ROTOR_COUNT>
10.2

> <PUBCHEM_PHARMACOPHORE_FEATURES>
10
1 12 acceptor
1 5 acceptor
1 6 acceptor
1 7 acceptor
1 8 acceptor
1 9 acceptor
3 11 12 21 cation
6 11 12 21 22 23 24 rings
6 25 26 28 29 30 31 rings
6 5 10 13 14 19 20 rings

> <PUBCHEM_HEAVY_ATOM_COUNT>
32

> <PUBCHEM_ATOM_DEF_STEREO_COUNT>
0

> <PUBCHEM_ATOM_UDEF_STEREO_COUNT>
0

> <PUBCHEM_BOND_DEF_STEREO_COUNT>
0

> <PUBCHEM_BOND_UDEF_STEREO_COUNT>
0

> <PUBCHEM_ISOTOPIC_ATOM_COUNT>
0

> <PUBCHEM_COMPONENT_COUNT>
1

> <PUBCHEM_CACTVS_TAUTO_COUNT>
1

> <PUBCHEM_CONFORMER_ID>
0013376A00000009

> <PUBCHEM_MMFF94_ENERGY>
75.3046

> <PUBCHEM_FEATURE_SELFOVERLAP>
50.771

> <PUBCHEM_SHAPE_FINGERPRINT>
10190108 129 18187366532666682792
10382601 240 18338796831119491772
10483366 6 17843994544717712132
10674148 151 18128827533330676788
12128747 34 17677878042711625925
12403259 327 18261114050021966047
12422481 6 17843951560241556667
12549972 3 17025960023164602359
12633257 1 18410847742589487039
131258 38 17604991412295331699
13965767 371 17916850405117891586
14790565 3 17978229696540889508
15297060 5 16988293091306547678
15420108 30 18058164101901149853
15475509 84 18117550721929651468
19311894 1 17626668550367125100
21033648 29 17168126950552381309
21421861 104 18408034109265827720
21927370 108 17753307809501611930
22149856 69 16917079867662610607
23559900 14 17274274837958778095
3411729 13 18341058518248644061
3552219 110 17823699656319240898
394071 54 18200049386502947337
4058900 60 18116438239659215340
4408954 64 17540263042677989875
513202 73 17766540371391113278
57724786 102 17916326995203317377
5951187 136 18341627979472712843
6703917 75 17464829248332319316

> <PUBCHEM_SHAPE_MULTIPOLES>
596.28
12.59
5.56
2.57
26.96
3.18
0.61
7.44
-7.02
-8.62
-0.78
-0.77
-3.59
-2.2

> <PUBCHEM_SHAPE_SELFOVERLAP>
1252.316

> <PUBCHEM_SHAPE_VOLUME>
338.6

> <PUBCHEM_COORDINATE_TYPE>
2
5
10

$$$$
