2371253
  -OEChem-01171810133D

 55 57  0     0  0  0  0  0  0999 V2000
    0.6297    4.2929    0.5503 Cl  0  0  0  0  0  0  0  0  0  0  0  0
    1.6059   -1.5111   -1.4996 O   0  0  0  0  0  0  0  0  0  0  0  0
   -0.5826   -1.6555    0.0612 O   0  0  0  0  0  0  0  0  0  0  0  0
   -1.6851   -1.6981    2.0817 O   0  0  0  0  0  0  0  0  0  0  0  0
   -4.6461    0.4571    1.9218 O   0  0  0  0  0  0  0  0  0  0  0  0
   -1.0724    3.5901   -2.4889 O   0  5  0  0  0  0  0  0  0  0  0  0
    0.4055    2.0020   -2.1529 O   0  0  0  0  0  0  0  0  0  0  0  0
    3.0240   -1.3895    0.3395 N   0  0  0  0  0  0  0  0  0  0  0  0
   -0.5665    2.6952   -1.7723 N   0  3  0  0  0  0  0  0  0  0  0  0
    4.2743   -1.3133   -0.3884 C   0  0  0  0  0  0  0  0  0  0  0  0
    4.5615    0.1454   -0.7580 C   0  0  0  0  0  0  0  0  0  0  0  0
    5.3761   -2.0550    0.3751 C   0  0  0  0  0  0  0  0  0  0  0  0
    5.9979    0.4359   -1.1844 C   0  0  0  0  0  0  0  0  0  0  0  0
    6.0980   -1.2292    1.4389 C   0  0  0  0  0  0  0  0  0  0  0  0
    6.9111    0.7507   -0.0007 C   0  0  0  0  0  0  0  0  0  0  0  0
    7.2800   -0.4428    0.8737 C   0  0  0  0  0  0  0  0  0  0  0  0
    1.7931   -1.4824   -0.2863 C   0  0  0  0  0  0  0  0  0  0  0  0
    0.6623   -1.5477    0.7182 C   0  0  0  0  0  0  0  0  0  0  0  0
   -1.6881   -1.7230    0.8608 C   0  0  0  0  0  0  0  0  0  0  0  0
   -2.9280   -1.8350    0.0516 C   0  0  0  0  0  0  0  0  0  0  0  0
   -3.9369   -0.8755    0.1352 C   0  0  0  0  0  0  0  0  0  0  0  0
   -3.0729   -2.9264   -0.8048 C   0  0  0  0  0  0  0  0  0  0  0  0
   -3.8156    0.2752    1.0210 C   0  0  0  0  0  0  0  0  0  0  0  0
   -2.7101    1.2695    0.8908 C   0  0  0  0  0  0  0  0  0  0  0  0
   -5.0907   -1.0074   -0.6374 C   0  0  0  0  0  0  0  0  0  0  0  0
   -4.2265   -3.0583   -1.5777 C   0  0  0  0  0  0  0  0  0  0  0  0
   -5.2354   -2.0988   -1.4939 C   0  0  0  0  0  0  0  0  0  0  0  0
   -2.1463    1.5268   -0.3588 C   0  0  0  0  0  0  0  0  0  0  0  0
   -2.2425    1.9435    2.0190 C   0  0  0  0  0  0  0  0  0  0  0  0
   -1.1150    2.4580   -0.4803 C   0  0  0  0  0  0  0  0  0  0  0  0
   -1.2113    2.8748    1.8977 C   0  0  0  0  0  0  0  0  0  0  0  0
   -0.6475    3.1320    0.6479 C   0  0  0  0  0  0  0  0  0  0  0  0
    4.1240   -1.8650   -1.3263 H   0  0  0  0  0  0  0  0  0  0  0  0
    4.2799    0.8127    0.0676 H   0  0  0  0  0  0  0  0  0  0  0  0
    3.8931    0.4186   -1.5861 H   0  0  0  0  0  0  0  0  0  0  0  0
    6.1117   -2.4430   -0.3413 H   0  0  0  0  0  0  0  0  0  0  0  0
    4.9406   -2.9407    0.8570 H   0  0  0  0  0  0  0  0  0  0  0  0
    5.9816    1.3253   -1.8275 H   0  0  0  0  0  0  0  0  0  0  0  0
    6.4061   -0.3790   -1.7930 H   0  0  0  0  0  0  0  0  0  0  0  0
    6.4998   -1.9259    2.1859 H   0  0  0  0  0  0  0  0  0  0  0  0
    5.4058   -0.5685    1.9725 H   0  0  0  0  0  0  0  0  0  0  0  0
    6.4517    1.5284    0.6223 H   0  0  0  0  0  0  0  0  0  0  0  0
    7.8416    1.1841   -0.3887 H   0  0  0  0  0  0  0  0  0  0  0  0
    7.9345   -1.1180    0.3082 H   0  0  0  0  0  0  0  0  0  0  0  0
    7.8811   -0.0724    1.7137 H   0  0  0  0  0  0  0  0  0  0  0  0
    3.0567   -1.3104    1.3521 H   0  0  0  0  0  0  0  0  0  0  0  0
    0.6844   -0.6331    1.3225 H   0  0  0  0  0  0  0  0  0  0  0  0
    0.8201   -2.4211    1.3617 H   0  0  0  0  0  0  0  0  0  0  0  0
   -2.2964   -3.6836   -0.8780 H   0  0  0  0  0  0  0  0  0  0  0  0
   -5.8842   -0.2663   -0.5838 H   0  0  0  0  0  0  0  0  0  0  0  0
   -4.3396   -3.9084   -2.2441 H   0  0  0  0  0  0  0  0  0  0  0  0
   -6.1335   -2.2014   -2.0960 H   0  0  0  0  0  0  0  0  0  0  0  0
   -2.5112    1.0164   -1.2474 H   0  0  0  0  0  0  0  0  0  0  0  0
   -2.6653    1.7522    3.0018 H   0  0  0  0  0  0  0  0  0  0  0  0
   -0.8574    3.3900    2.7872 H   0  0  0  0  0  0  0  0  0  0  0  0
  1 32  1  0  0  0  0
  2 17  2  0  0  0  0
  3 18  1  0  0  0  0
  3 19  1  0  0  0  0
  4 19  2  0  0  0  0
  5 23  2  0  0  0  0
  6  9  1  0  0  0  0
  7  9  2  0  0  0  0
  8 10  1  0  0  0  0
  8 17  1  0  0  0  0
  8 46  1  0  0  0  0
  9 30  1  0  0  0  0
 10 11  1  0  0  0  0
 10 12  1  0  0  0  0
 10 33  1  0  0  0  0
 11 13  1  0  0  0  0
 11 34  1  0  0  0  0
 11 35  1  0  0  0  0
 12 14  1  0  0  0  0
 12 36  1  0  0  0  0
 12 37  1  0  0  0  0
 13 15  1  0  0  0  0
 13 38  1  0  0  0  0
 13 39  1  0  0  0  0
 14 16  1  0  0  0  0
 14 40  1  0  0  0  0
 14 41  1  0  0  0  0
 15 16  1  0  0  0  0
 15 42  1  0  0  0  0
 15 43  1  0  0  0  0
 16 44  1  0  0  0  0
 16 45  1  0  0  0  0
 17 18  1  0  0  0  0
 18 47  1  0  0  0  0
 18 48  1  0  0  0  0
 19 20  1  0  0  0  0
 20 21  1  0  0  0  0
 20 22  2  0  0  0  0
 21 23  1  0  0  0  0
 21 25  2  0  0  0  0
 22 26  1  0  0  0  0
 22 49  1  0  0  0  0
 23 24  1  0  0  0  0
 24 28  2  0  0  0  0
 24 29  1  0  0  0  0
 25 27  1  0  0  0  0
 25 50  1  0  0  0  0
 26 27  2  0  0  0  0
 26 51  1  0  0  0  0
 27 52  1  0  0  0  0
 28 30  1  0  0  0  0
 28 53  1  0  0  0  0
 29 31  2  0  0  0  0
 29 54  1  0  0  0  0
 30 32  2  0  0  0  0
 31 32  1  0  0  0  0
 31 55  1  0  0  0  0
M  CHG  2   6  -1   9   1
M  END
> <PUBCHEM_COMPOUND_CID>
2371253

> <PUBCHEM_CONFORMER_RMSD>
1.4

> <PUBCHEM_CONFORMER_DIVERSEORDER>
1
13
46
49
81
50
29
120
125
47
99
70
93
25
30
82
56
41
84
98
48
33
114
123
19
14
35
43
116
15
57
6
11
126
101
97
95
78
91
5
121
37
108
8
85
27
26
117
94
105
2
118
115
109
110
62
72
90
119
51
39
80
89
45
77
23
102
24
86
107
111
7
22
76
42
73
69
124
55
20
83
58
127
9
87
18
16
38
103
112
34
52
10
106
60
113
74
21
65
71
92
12
54
3
63
122
53
59
40
68
64
96
79
88
67
31
17
32
44
75
28
61
104
100
66
36
4

> <PUBCHEM_MMFF94_PARTIAL_CHARGES>
34
1 -0.18
10 0.3
17 0.57
18 0.34
19 0.63
2 -0.57
20 0.09
21 0.09
22 -0.15
23 0.4
24 0.09
25 -0.15
26 -0.15
27 -0.15
28 -0.15
29 -0.15
3 -0.43
30 0.13
31 -0.15
32 0.18
4 -0.57
46 0.37
49 0.15
5 -0.57
50 0.15
51 0.15
52 0.15
53 0.15
54 0.15
55 0.15
6 -0.52
7 -0.52
8 -0.73
9 0.91

> <PUBCHEM_EFFECTIVE_ROTOR_COUNT>
10.4

> <PUBCHEM_PHARMACOPHORE_FEATURES>
10
1 2 acceptor
1 4 acceptor
1 5 acceptor
1 6 acceptor
1 6 anion
1 7 acceptor
1 8 donor
6 20 21 22 25 26 27 rings
6 24 28 29 30 31 32 rings
7 10 11 12 13 14 15 16 rings

> <PUBCHEM_HEAVY_ATOM_COUNT>
32

> <PUBCHEM_ATOM_DEF_STEREO_COUNT>
0

> <PUBCHEM_ATOM_UDEF_STEREO_COUNT>
0

> <PUBCHEM_BOND_DEF_STEREO_COUNT>
0

> <PUBCHEM_BOND_UDEF_STEREO_COUNT>
0

> <PUBCHEM_ISOTOPIC_ATOM_COUNT>
0

> <PUBCHEM_COMPONENT_COUNT>
1

> <PUBCHEM_CACTVS_TAUTO_COUNT>
2

> <PUBCHEM_CONFORMER_ID>
00242EB500000001

> <PUBCHEM_MMFF94_ENERGY>
91.216

> <PUBCHEM_FEATURE_SELFOVERLAP>
50.83

> <PUBCHEM_SHAPE_FINGERPRINT>
10670039 82 18337406972093584782
11595378 159 18040992883187511402
12156800 1 16664816671873577821
12166972 35 17968658349405460847
14068700 675 18272649107965097309
14747281 78 13468475832559790451
14910302 57 17774172184161205342
15876981 60 18340770428937765559
17627616 140 17621317266071570396
17686467 74 18197766907743219858
18336668 15 18409451414456361629
21304303 282 15431146964566708349
21344244 246 17837761593371873335
25019877 29 17274827960758085431
3504750 166 18268976636556519510
392239 28 18343027687813379664
4280585 95 18341883130383791739
445580 44 17749677268617962412
469060 322 17968102979820974412
497634 4 17203618072751920154
57527585 103 17679333924692654299

> <PUBCHEM_SHAPE_MULTIPOLES>
615.24
14.51
4.63
1.93
27.26
3.92
-0.31
-9.21
0.51
-3.55
-0.84
-0.96
1.01
-2.1

> <PUBCHEM_SHAPE_SELFOVERLAP>
1298.845

> <PUBCHEM_SHAPE_VOLUME>
342.1

> <PUBCHEM_COORDINATE_TYPE>
2
5
10

$$$$
