5736472
  -OEChem-01171809233D

 40 42  0     0  0  0  0  0  0999 V2000
    3.5695   -1.8578    1.0479 O   0  0  0  0  0  0  0  0  0  0  0  0
   -0.3979   -5.0624   -0.9451 O   0  0  0  0  0  0  0  0  0  0  0  0
   -3.3975    0.5893   -0.2514 O   0  0  0  0  0  0  0  0  0  0  0  0
   -6.8831    0.7072   -0.5099 O   0  5  0  0  0  0  0  0  0  0  0  0
   -5.3409   -0.0102   -1.8978 O   0  0  0  0  0  0  0  0  0  0  0  0
    1.5812   -0.8062    0.3894 N   0  0  0  0  0  0  0  0  0  0  0  0
    1.6714    1.3677   -0.5767 N   0  0  0  0  0  0  0  0  0  0  0  0
   -5.6639    0.5034   -0.7860 N   0  3  0  0  0  0  0  0  0  0  0  0
    0.7774   -1.9519    0.8208 C   0  0  0  0  0  0  0  0  0  0  0  0
    0.5743   -2.9736   -0.2902 C   0  0  0  0  0  0  0  0  0  0  0  0
    0.9976    0.3338   -0.1684 C   0  0  0  0  0  0  0  0  0  0  0  0
    2.9733   -0.9019    0.5587 C   0  0  0  0  0  0  0  0  0  0  0  0
    3.7506    0.2675    0.0982 C   0  0  0  0  0  0  0  0  0  0  0  0
    3.0658    1.3525   -0.4518 C   0  0  0  0  0  0  0  0  0  0  0  0
   -0.2781   -4.1592    0.1460 C   0  0  0  0  0  0  0  0  0  0  0  0
   -0.4753    0.3712   -0.3056 C   0  0  0  0  0  0  0  0  0  0  0  0
    5.1456    0.2842    0.2107 C   0  0  0  0  0  0  0  0  0  0  0  0
    3.7975    2.4622   -0.8906 C   0  0  0  0  0  0  0  0  0  0  0  0
    5.8617    1.3961   -0.2305 C   0  0  0  0  0  0  0  0  0  0  0  0
    5.1886    2.4845   -0.7808 C   0  0  0  0  0  0  0  0  0  0  0  0
   -1.1857    0.8668    0.7076 C   0  0  0  0  0  0  0  0  0  0  0  0
   -2.6224    0.9904    0.7701 C   0  0  0  0  0  0  0  0  0  0  0  0
   -3.3421    1.4962    1.8044 C   0  0  0  0  0  0  0  0  0  0  0  0
   -4.6935    1.4042    1.3941 C   0  0  0  0  0  0  0  0  0  0  0  0
   -4.6740    0.8461    0.1369 C   0  0  0  0  0  0  0  0  0  0  0  0
   -0.1911   -1.6202    1.2046 H   0  0  0  0  0  0  0  0  0  0  0  0
    1.2832   -2.4388    1.6637 H   0  0  0  0  0  0  0  0  0  0  0  0
    0.1099   -2.5004   -1.1645 H   0  0  0  0  0  0  0  0  0  0  0  0
    1.5456   -3.3391   -0.6479 H   0  0  0  0  0  0  0  0  0  0  0  0
    0.1871   -4.6858    0.9852 H   0  0  0  0  0  0  0  0  0  0  0  0
   -1.2801   -3.8311    0.4400 H   0  0  0  0  0  0  0  0  0  0  0  0
   -0.9148   -0.0211   -1.2145 H   0  0  0  0  0  0  0  0  0  0  0  0
    5.6891   -0.5545    0.6366 H   0  0  0  0  0  0  0  0  0  0  0  0
    3.2856    3.3192   -1.3219 H   0  0  0  0  0  0  0  0  0  0  0  0
    6.9442    1.4136   -0.1452 H   0  0  0  0  0  0  0  0  0  0  0  0
    5.7461    3.3509   -1.1246 H   0  0  0  0  0  0  0  0  0  0  0  0
   -0.6490    1.2271    1.5846 H   0  0  0  0  0  0  0  0  0  0  0  0
   -0.9448   -5.8064   -0.6402 H   0  0  0  0  0  0  0  0  0  0  0  0
   -2.9687    1.8861    2.7409 H   0  0  0  0  0  0  0  0  0  0  0  0
   -5.5685    1.7090    1.9507 H   0  0  0  0  0  0  0  0  0  0  0  0
  1 12  2  0  0  0  0
  2 15  1  0  0  0  0
  2 38  1  0  0  0  0
  3 22  1  0  0  0  0
  3 25  1  0  0  0  0
  4  8  1  0  0  0  0
  5  8  2  0  0  0  0
  6  9  1  0  0  0  0
  6 11  1  0  0  0  0
  6 12  1  0  0  0  0
  7 11  2  0  0  0  0
  7 14  1  0  0  0  0
  8 25  1  0  0  0  0
  9 10  1  0  0  0  0
  9 26  1  0  0  0  0
  9 27  1  0  0  0  0
 10 15  1  0  0  0  0
 10 28  1  0  0  0  0
 10 29  1  0  0  0  0
 11 16  1  0  0  0  0
 12 13  1  0  0  0  0
 13 14  1  0  0  0  0
 13 17  2  0  0  0  0
 14 18  2  0  0  0  0
 15 30  1  0  0  0  0
 15 31  1  0  0  0  0
 16 21  2  0  0  0  0
 16 32  1  0  0  0  0
 17 19  1  0  0  0  0
 17 33  1  0  0  0  0
 18 20  1  0  0  0  0
 18 34  1  0  0  0  0
 19 20  2  0  0  0  0
 19 35  1  0  0  0  0
 20 36  1  0  0  0  0
 21 22  1  0  0  0  0
 21 37  1  0  0  0  0
 22 23  2  0  0  0  0
 23 24  1  0  0  0  0
 23 39  1  0  0  0  0
 24 25  2  0  0  0  0
 24 40  1  0  0  0  0
M  CHG  2   4  -1   8   1
M  END
> <PUBCHEM_COMPOUND_CID>
5736472

> <PUBCHEM_CONFORMER_RMSD>
0.8

> <PUBCHEM_CONFORMER_DIVERSEORDER>
2
16
13
22
28
10
5
14
32
19
3
30
8
21
34
12
17
33
9
1
29
24
20
6
11
7
4
18
27
31
26
15
23
25

> <PUBCHEM_MMFF94_PARTIAL_CHARGES>
33
1 -0.57
11 0.5
12 0.54
13 0.09
14 0.18
15 0.28
16 -0.14
17 -0.15
18 -0.15
19 -0.15
2 -0.68
20 -0.15
21 -0.11
22 0.09
23 -0.15
24 -0.15
25 0.22
3 -0.28
32 0.15
33 0.15
34 0.15
35 0.15
36 0.15
37 0.15
38 0.4
39 0.15
4 -0.52
40 0.15
5 -0.52
6 -0.42
7 -0.63
8 0.96
9 0.3

> <PUBCHEM_EFFECTIVE_ROTOR_COUNT>
6

> <PUBCHEM_PHARMACOPHORE_FEATURES>
10
1 1 acceptor
1 2 acceptor
1 2 donor
1 3 acceptor
1 4 acceptor
1 4 anion
1 5 acceptor
5 3 22 23 24 25 rings
6 13 14 17 18 19 20 rings
6 6 7 11 12 13 14 rings

> <PUBCHEM_HEAVY_ATOM_COUNT>
25

> <PUBCHEM_ATOM_DEF_STEREO_COUNT>
0

> <PUBCHEM_ATOM_UDEF_STEREO_COUNT>
0

> <PUBCHEM_BOND_DEF_STEREO_COUNT>
1

> <PUBCHEM_BOND_UDEF_STEREO_COUNT>
0

> <PUBCHEM_ISOTOPIC_ATOM_COUNT>
0

> <PUBCHEM_COMPONENT_COUNT>
1

> <PUBCHEM_CACTVS_TAUTO_COUNT>
1

> <PUBCHEM_CONFORMER_ID>
0057881800000002

> <PUBCHEM_MMFF94_ENERGY>
59.5692

> <PUBCHEM_FEATURE_SELFOVERLAP>
50.869

> <PUBCHEM_SHAPE_FINGERPRINT>
10090160 65 18410013204372948329
10411042 1 17828476965427324474
11049842 53 15477626499659230483
11069576 57 17984683542844976975
11421498 54 17987802891138347273
12236239 1 18202283580449230969
12788726 201 18055344996848112783
13540713 5 17971466554412131896
13631057 29 18200028577549850487
13692114 37 18129929204524765902
13836976 161 18335141981723066132
13968360 50 18408879616649024303
14251757 5 18053379083221983135
14528608 73 18413108363828161073
14767858 380 18272080630773790733
14790565 3 18410860970835277956
16993438 75 18189902101112514371
17138139 8 17914872435577299471
20028762 73 18200589181787009886
20157964 124 18187365419710795513
204376 136 18409456890033145080
20645477 70 18188206490476814387
21033648 144 18114185233091075525
21033650 10 17201112277500192840
21054139 6 18272080613425220519
23569917 315 18413111653979429446
25147074 1 18042681896762830224
335352 9 18335144190159117756
34797466 226 15769492114112777544
38695281 34 18409168796438068958
474 4 18409170999925058144
59755656 520 18410578413842988966

> <PUBCHEM_SHAPE_MULTIPOLES>
470.2
13.7
3.97
1.2
10.19
7.51
0.03
-11.03
-2.47
-1.42
-0.74
1.38
-0.19
-1.86

> <PUBCHEM_SHAPE_SELFOVERLAP>
1017.457

> <PUBCHEM_SHAPE_VOLUME>
256

> <PUBCHEM_COORDINATE_TYPE>
2
5
10

$$$$
