2735302
  -OEChem-01171809363D

 17 18  0     0  0  0  0  0  0999 V2000
   -3.3925   -1.6407   -0.0003 Cl  0  0  0  0  0  0  0  0  0  0  0  0
   -1.5246    2.4325    0.0002 O   0  0  0  0  0  0  0  0  0  0  0  0
    2.4710    1.6884   -0.0006 O   0  5  0  0  0  0  0  0  0  0  0  0
    3.2843   -0.3507    0.0002 O   0  0  0  0  0  0  0  0  0  0  0  0
    2.3086    0.4418   -0.0002 N   0  3  0  0  0  0  0  0  0  0  0  0
   -0.1792    2.1064    0.0002 N   0  0  0  0  0  0  0  0  0  0  0  0
   -2.3284    1.3054    0.0000 N   0  0  0  0  0  0  0  0  0  0  0  0
    1.7366   -2.4075    0.0001 N   0  0  0  0  0  0  0  0  0  0  0  0
    0.9939   -0.0824    0.0001 C   0  0  0  0  0  0  0  0  0  0  0  0
   -0.1266    0.7686    0.0002 C   0  0  0  0  0  0  0  0  0  0  0  0
   -1.4927    0.2594    0.0000 C   0  0  0  0  0  0  0  0  0  0  0  0
    0.6814   -1.4541    0.0001 C   0  0  0  0  0  0  0  0  0  0  0  0
   -1.7829   -1.1173   -0.0001 C   0  0  0  0  0  0  0  0  0  0  0  0
   -0.6490   -1.9498    0.0000 C   0  0  0  0  0  0  0  0  0  0  0  0
   -0.8043   -3.0295   -0.0001 H   0  0  0  0  0  0  0  0  0  0  0  0
    1.5132   -3.3944    0.0005 H   0  0  0  0  0  0  0  0  0  0  0  0
    2.7041   -2.1200    0.0010 H   0  0  0  0  0  0  0  0  0  0  0  0
  1 13  1  0  0  0  0
  2  6  1  0  0  0  0
  2  7  1  0  0  0  0
  3  5  1  0  0  0  0
  4  5  2  0  0  0  0
  5  9  1  0  0  0  0
  6 10  2  0  0  0  0
  7 11  2  0  0  0  0
  8 12  1  0  0  0  0
  8 16  1  0  0  0  0
  8 17  1  0  0  0  0
  9 10  1  0  0  0  0
  9 12  2  0  0  0  0
 10 11  1  0  0  0  0
 11 13  1  0  0  0  0
 12 14  1  0  0  0  0
 13 14  2  0  0  0  0
 14 15  1  0  0  0  0
M  CHG  2   3  -1   5   1
M  END
> <PUBCHEM_COMPOUND_CID>
2735302

> <PUBCHEM_CONFORMER_RMSD>
0.4

> <PUBCHEM_CONFORMER_DIVERSEORDER>
1

> <PUBCHEM_MMFF94_PARTIAL_CHARGES>
17
1 -0.18
10 0.29
11 0.29
12 0.1
13 0.18
14 -0.15
15 0.15
16 0.4
17 0.4
2 0.24
3 -0.52
4 -0.52
5 0.91
6 -0.41
7 -0.41
8 -0.9
9 0.13

> <PUBCHEM_EFFECTIVE_ROTOR_COUNT>
1

> <PUBCHEM_PHARMACOPHORE_FEATURES>
9
1 3 acceptor
1 3 anion
1 4 acceptor
1 6 acceptor
1 7 acceptor
1 8 cation
1 8 donor
5 2 6 7 10 11 rings
6 9 10 11 12 13 14 rings

> <PUBCHEM_HEAVY_ATOM_COUNT>
14

> <PUBCHEM_ATOM_DEF_STEREO_COUNT>
0

> <PUBCHEM_ATOM_UDEF_STEREO_COUNT>
0

> <PUBCHEM_BOND_DEF_STEREO_COUNT>
0

> <PUBCHEM_BOND_UDEF_STEREO_COUNT>
0

> <PUBCHEM_ISOTOPIC_ATOM_COUNT>
0

> <PUBCHEM_COMPONENT_COUNT>
1

> <PUBCHEM_CACTVS_TAUTO_COUNT>
2

> <PUBCHEM_CONFORMER_ID>
0029BCC600000001

> <PUBCHEM_MMFF94_ENERGY>
59.0826

> <PUBCHEM_FEATURE_SELFOVERLAP>
45.934

> <PUBCHEM_SHAPE_FINGERPRINT>
10967382 1 18050568739874355463
11206711 2 18409451396722455439
11471102 20 18266171928253340543
12032990 46 18337960115676949627
12423570 1 11828649853776663233
13140716 1 18266458702813486843
13380535 21 18268442234453109730
13380535 76 18194957452916083399
14614273 12 18260817211603781325
16945 1 17978510828146101607
193761 8 18266459806546189447
19973954 147 18338798896924842766
20510252 161 18271526489387051432
20511035 2 17912625939499390070
20588541 1 18191307280750216395
20871998 184 18272933829773514775
21501502 16 18337954471989527026
22802520 49 18129394708507751454
2334 1 18410575067726173123
23388829 49 18267867357792225919
23402539 116 18199176459441858486
23419403 2 16029768395059841795
23463225 33 18335980947575814842
23552423 10 18334580100947683926
23559900 14 18271814472272768142
241688 4 18051690237497794275
2748010 2 18339080393561012879
5255222 1 18338795589900355584
66348 1 18410854321967109636

> <PUBCHEM_SHAPE_MULTIPOLES>
252.45
4.16
2.68
0.57
0.12
0.47
0
-0.86
0
-0.28
0
-0.06
-0.04
0

> <PUBCHEM_SHAPE_SELFOVERLAP>
541.442

> <PUBCHEM_SHAPE_VOLUME>
141

> <PUBCHEM_COORDINATE_TYPE>
2
5
10

$$$$
