286532
  -OEChem-01171809153D

 40 42  0     0  0  0  0  0  0999 V2000
   -3.8251    2.1105    0.3001 O   0  0  0  0  0  0  0  0  0  0  0  0
    2.5078   -3.5534    0.4938 O   0  0  0  0  0  0  0  0  0  0  0  0
   -3.0578   -1.6258   -1.5660 O   0  0  0  0  0  0  0  0  0  0  0  0
    4.0236    2.5832   -1.1173 O   0  0  0  0  0  0  0  0  0  0  0  0
   -0.6151    0.1975    2.4070 O   0  0  0  0  0  0  0  0  0  0  0  0
   -4.8052    0.6786   -1.1725 O   0  5  0  0  0  0  0  0  0  0  0  0
   -3.8078    0.8956   -0.4491 N   0  3  0  0  0  0  0  0  0  0  0  0
   -2.6427    2.1621    1.0293 N   0  0  0  0  0  0  0  0  0  0  0  0
   -2.6731    0.2497   -0.1837 C   0  0  0  0  0  0  0  0  0  0  0  0
   -2.0135    1.0567    0.7092 C   0  0  0  0  0  0  0  0  0  0  0  0
   -1.0350   -1.6902   -0.4299 C   0  0  0  0  0  0  0  0  0  0  0  0
   -2.3257   -1.0106   -0.7662 C   0  0  0  0  0  0  0  0  0  0  0  0
    0.5288    1.2648    0.6929 C   0  0  0  0  0  0  0  0  0  0  0  0
   -0.6956    0.8023    1.3270 C   0  0  0  0  0  0  0  0  0  0  0  0
   -1.0103   -2.5598    0.6335 C   0  0  0  0  0  0  0  0  0  0  0  0
    0.0698   -1.4148   -1.1992 C   0  0  0  0  0  0  0  0  0  0  0  0
    0.4693    1.9594   -0.5152 C   0  0  0  0  0  0  0  0  0  0  0  0
    1.7627    1.0137    1.2932 C   0  0  0  0  0  0  0  0  0  0  0  0
    1.3341   -2.9368    0.1872 C   0  0  0  0  0  0  0  0  0  0  0  0
    0.1926   -3.1927    0.9469 C   0  0  0  0  0  0  0  0  0  0  0  0
    1.2727   -2.0476   -0.8860 C   0  0  0  0  0  0  0  0  0  0  0  0
    2.8778    2.1516   -0.5232 C   0  0  0  0  0  0  0  0  0  0  0  0
    1.6438    2.4026   -1.1233 C   0  0  0  0  0  0  0  0  0  0  0  0
    2.9372    1.4571    0.6851 C   0  0  0  0  0  0  0  0  0  0  0  0
    3.6360   -3.2463   -0.3241 C   0  0  0  0  0  0  0  0  0  0  0  0
    5.2507    2.2926   -0.4495 C   0  0  0  0  0  0  0  0  0  0  0  0
   -1.8965   -2.7609    1.2273 H   0  0  0  0  0  0  0  0  0  0  0  0
    0.0227   -0.7302   -2.0405 H   0  0  0  0  0  0  0  0  0  0  0  0
   -0.4671    2.1782   -1.0190 H   0  0  0  0  0  0  0  0  0  0  0  0
    1.8376    0.4729    2.2329 H   0  0  0  0  0  0  0  0  0  0  0  0
    0.2344   -3.8834    1.7847 H   0  0  0  0  0  0  0  0  0  0  0  0
    2.1201   -1.8028   -1.5173 H   0  0  0  0  0  0  0  0  0  0  0  0
    1.5917    2.9426   -2.0648 H   0  0  0  0  0  0  0  0  0  0  0  0
    3.8612    1.2268    1.2043 H   0  0  0  0  0  0  0  0  0  0  0  0
    3.9105   -2.1884   -0.2495 H   0  0  0  0  0  0  0  0  0  0  0  0
    3.4792   -3.5621   -1.3610 H   0  0  0  0  0  0  0  0  0  0  0  0
    4.4822   -3.8242    0.0619 H   0  0  0  0  0  0  0  0  0  0  0  0
    5.4254    1.2134   -0.3809 H   0  0  0  0  0  0  0  0  0  0  0  0
    5.3034    2.7846    0.5276 H   0  0  0  0  0  0  0  0  0  0  0  0
    6.0580    2.7089   -1.0610 H   0  0  0  0  0  0  0  0  0  0  0  0
  1  7  1  0  0  0  0
  1  8  1  0  0  0  0
  2 19  1  0  0  0  0
  2 25  1  0  0  0  0
  3 12  2  0  0  0  0
  4 22  1  0  0  0  0
  4 26  1  0  0  0  0
  5 14  2  0  0  0  0
  6  7  1  0  0  0  0
  7  9  2  0  0  0  0
  8 10  2  0  0  0  0
  9 10  1  0  0  0  0
  9 12  1  0  0  0  0
 10 14  1  0  0  0  0
 11 12  1  0  0  0  0
 11 15  2  0  0  0  0
 11 16  1  0  0  0  0
 13 14  1  0  0  0  0
 13 17  2  0  0  0  0
 13 18  1  0  0  0  0
 15 20  1  0  0  0  0
 15 27  1  0  0  0  0
 16 21  2  0  0  0  0
 16 28  1  0  0  0  0
 17 23  1  0  0  0  0
 17 29  1  0  0  0  0
 18 24  2  0  0  0  0
 18 30  1  0  0  0  0
 19 20  2  0  0  0  0
 19 21  1  0  0  0  0
 20 31  1  0  0  0  0
 21 32  1  0  0  0  0
 22 23  2  0  0  0  0
 22 24  1  0  0  0  0
 23 33  1  0  0  0  0
 24 34  1  0  0  0  0
 25 35  1  0  0  0  0
 25 36  1  0  0  0  0
 25 37  1  0  0  0  0
 26 38  1  0  0  0  0
 26 39  1  0  0  0  0
 26 40  1  0  0  0  0
M  CHG  2   6  -1   7   1
M  END
> <PUBCHEM_COMPOUND_CID>
286532

> <PUBCHEM_CONFORMER_RMSD>
0.8

> <PUBCHEM_CONFORMER_DIVERSEORDER>
1
43
17
7
39
71
55
61
4
53
72
63
67
56
32
23
69
2
10
6
14
3
30
68
54
47
28
19
34
25
45
20
16
35
15
41
5
65
49
64
62
66
51
18
13
27
46
38
31
52
26
59
37
33
29
48
21
57
42
60
50
58
22
44
24
9
40
70
8
12
36
11

> <PUBCHEM_MMFF94_PARTIAL_CHARGES>
34
1 -0.12
10 0.2
11 0.09
12 0.57
13 0.09
14 0.57
15 -0.15
16 -0.15
17 -0.15
18 -0.15
19 0.08
2 -0.36
20 -0.15
21 -0.15
22 0.08
23 -0.15
24 -0.15
25 0.28
26 0.28
27 0.15
28 0.15
29 0.15
3 -0.57
30 0.15
31 0.15
32 0.15
33 0.15
34 0.15
4 -0.36
5 -0.57
6 -0.63
7 0.95
8 -0.41
9 -0.17

> <PUBCHEM_EFFECTIVE_ROTOR_COUNT>
6

> <PUBCHEM_PHARMACOPHORE_FEATURES>
9
1 2 acceptor
1 3 acceptor
1 4 acceptor
1 5 acceptor
1 6 anion
1 8 acceptor
5 1 7 8 9 10 rings
6 11 15 16 19 20 21 rings
6 13 17 18 22 23 24 rings

> <PUBCHEM_HEAVY_ATOM_COUNT>
26

> <PUBCHEM_ATOM_DEF_STEREO_COUNT>
0

> <PUBCHEM_ATOM_UDEF_STEREO_COUNT>
0

> <PUBCHEM_BOND_DEF_STEREO_COUNT>
0

> <PUBCHEM_BOND_UDEF_STEREO_COUNT>
0

> <PUBCHEM_ISOTOPIC_ATOM_COUNT>
0

> <PUBCHEM_COMPONENT_COUNT>
1

> <PUBCHEM_CACTVS_TAUTO_COUNT>
1

> <PUBCHEM_CONFORMER_ID>
00045F4400000001

> <PUBCHEM_MMFF94_ENERGY>
94.7183

> <PUBCHEM_FEATURE_SELFOVERLAP>
45.674

> <PUBCHEM_SHAPE_FINGERPRINT>
107951 10 18266192797288247318
1100329 8 18267592303544086146
11370993 70 18268430303440500892
12156800 1 15480662521630215140
12592029 89 18409738386685197833
12788726 201 17760081113679979450
13004483 165 16966886343022427139
13140716 1 18269845216170597555
133893 2 18267318537970128185
13941206 138 18261957478724991246
14181834 199 18200027314143396813
14251740 79 18057057997778389132
14251757 5 17399530403793996796
14713325 29 18044945820166899106
14955137 171 17482860877886440075
15439362 3 18335701577091374948
15463212 79 18120087544758906544
16752209 62 18053375780359678112
167882 2 18336831892429845412
17492 54 17037809253782044045
18336668 15 18056182588753639706
20600515 1 17698718108283826023
20642791 178 18127694816724347801
20645476 183 18117550953783818020
20691752 17 18117270351049504587
20739085 24 15756017247670765857
20905425 154 18059286669013870143
22907989 373 17760664949932871444
23419403 2 17607238766722614524
25147074 1 17987797402893069025
3027735 51 18197224865126118458
474 4 18335693927706777687
5282940 2 18411420596636928102
59755656 215 18269550718842944391
90316 7 17184747992165827067
90525 40 18264489670561175393
9981440 41 18265610073273999866

> <PUBCHEM_SHAPE_MULTIPOLES>
489.89
7
4.58
1.44
1.77
3.84
-0.32
-5.09
2.35
3.45
0
-0.33
-0.15
-0.9

> <PUBCHEM_SHAPE_SELFOVERLAP>
1075.364

> <PUBCHEM_SHAPE_VOLUME>
267

> <PUBCHEM_COORDINATE_TYPE>
2
5
10

$$$$
