2088283
  -OEChem-01171809353D

 48 50  0     0  0  0  0  0  0999 V2000
   -6.1374   -3.1677   -1.0015 Cl  0  0  0  0  0  0  0  0  0  0  0  0
    4.5208    1.8874   -0.9876 S   0  0  0  0  0  0  0  0  0  0  0  0
    6.6743   -1.5890    1.1732 O   0  0  0  0  0  0  0  0  0  0  0  0
    4.5548    1.5590   -2.4070 O   0  0  0  0  0  0  0  0  0  0  0  0
    5.0070    3.1872   -0.5445 O   0  0  0  0  0  0  0  0  0  0  0  0
   -3.7271    1.0458    1.9970 O   0  0  0  0  0  0  0  0  0  0  0  0
    5.3546    0.6700   -0.1252 N   0  0  0  0  0  0  0  0  0  0  0  0
   -3.9397   -0.9841    0.8845 N   0  0  0  0  0  0  0  0  0  0  0  0
    2.8838    1.7052   -0.4078 C   0  0  0  0  0  0  0  0  0  0  0  0
    4.9608   -0.7376   -0.2804 C   0  0  0  0  0  0  0  0  0  0  0  0
    2.4575    2.4169    0.7134 C   0  0  0  0  0  0  0  0  0  0  0  0
    2.0027    0.8467   -1.0654 C   0  0  0  0  0  0  0  0  0  0  0  0
    0.2869    1.4139    0.5133 C   0  0  0  0  0  0  0  0  0  0  0  0
    6.1121   -1.6723   -0.0456 C   0  0  0  0  0  0  0  0  0  0  0  0
    1.1503    2.2703    1.1772 C   0  0  0  0  0  0  0  0  0  0  0  0
    0.6952    0.7002   -0.6017 C   0  0  0  0  0  0  0  0  0  0  0  0
   -5.2944   -1.2858    1.2900 C   0  0  0  0  0  0  0  0  0  0  0  0
   -6.3032   -0.7791    0.3003 C   0  0  0  0  0  0  0  0  0  0  0  0
   -1.0940    1.2587    1.0035 C   0  0  0  0  0  0  0  0  0  0  0  0
    6.7056   -2.5986   -0.8345 C   0  0  0  0  0  0  0  0  0  0  0  0
   -1.8916    0.2197    0.7154 C   0  0  0  0  0  0  0  0  0  0  0  0
   -6.7354   -1.5664   -0.7623 C   0  0  0  0  0  0  0  0  0  0  0  0
   -6.8004    0.5092    0.4724 C   0  0  0  0  0  0  0  0  0  0  0  0
   -3.2715    0.1634    1.2769 C   0  0  0  0  0  0  0  0  0  0  0  0
    7.7387   -3.1523   -0.0414 C   0  0  0  0  0  0  0  0  0  0  0  0
    7.6783   -2.5050    1.1708 C   0  0  0  0  0  0  0  0  0  0  0  0
   -7.6740   -1.0607   -1.6617 C   0  0  0  0  0  0  0  0  0  0  0  0
   -7.7391    1.0149   -0.4272 C   0  0  0  0  0  0  0  0  0  0  0  0
   -8.1758    0.2300   -1.4942 C   0  0  0  0  0  0  0  0  0  0  0  0
    4.5660   -0.9142   -1.2865 H   0  0  0  0  0  0  0  0  0  0  0  0
    4.1703   -0.9670    0.4426 H   0  0  0  0  0  0  0  0  0  0  0  0
    5.7713    0.9217    0.7801 H   0  0  0  0  0  0  0  0  0  0  0  0
    3.1286    3.0850    1.2459 H   0  0  0  0  0  0  0  0  0  0  0  0
    2.3127    0.2838   -1.9413 H   0  0  0  0  0  0  0  0  0  0  0  0
    0.8340    2.8292    2.0540 H   0  0  0  0  0  0  0  0  0  0  0  0
    0.0390    0.0381   -1.1574 H   0  0  0  0  0  0  0  0  0  0  0  0
   -5.3676   -2.3658    1.4501 H   0  0  0  0  0  0  0  0  0  0  0  0
   -5.4789   -0.8336    2.2730 H   0  0  0  0  0  0  0  0  0  0  0  0
   -1.4498    2.0592    1.6482 H   0  0  0  0  0  0  0  0  0  0  0  0
    6.4457   -2.8580   -1.8505 H   0  0  0  0  0  0  0  0  0  0  0  0
   -3.4804   -1.6523    0.2725 H   0  0  0  0  0  0  0  0  0  0  0  0
   -1.5745   -0.6151    0.1013 H   0  0  0  0  0  0  0  0  0  0  0  0
   -6.4731    1.1331    1.2994 H   0  0  0  0  0  0  0  0  0  0  0  0
    8.4399   -3.9263   -0.3185 H   0  0  0  0  0  0  0  0  0  0  0  0
    8.2477   -2.5766    2.0859 H   0  0  0  0  0  0  0  0  0  0  0  0
   -8.0247   -1.6596   -2.4984 H   0  0  0  0  0  0  0  0  0  0  0  0
   -8.1302    2.0196   -0.2965 H   0  0  0  0  0  0  0  0  0  0  0  0
   -8.9068    0.6238   -2.1944 H   0  0  0  0  0  0  0  0  0  0  0  0
  1 22  1  0  0  0  0
  2  4  2  0  0  0  0
  2  5  2  0  0  0  0
  2  7  1  0  0  0  0
  2  9  1  0  0  0  0
  3 14  1  0  0  0  0
  3 26  1  0  0  0  0
  6 24  2  0  0  0  0
  7 10  1  0  0  0  0
  7 32  1  0  0  0  0
  8 17  1  0  0  0  0
  8 24  1  0  0  0  0
  8 41  1  0  0  0  0
  9 11  2  0  0  0  0
  9 12  1  0  0  0  0
 10 14  1  0  0  0  0
 10 30  1  0  0  0  0
 10 31  1  0  0  0  0
 11 15  1  0  0  0  0
 11 33  1  0  0  0  0
 12 16  2  0  0  0  0
 12 34  1  0  0  0  0
 13 15  2  0  0  0  0
 13 16  1  0  0  0  0
 13 19  1  0  0  0  0
 14 20  2  0  0  0  0
 15 35  1  0  0  0  0
 16 36  1  0  0  0  0
 17 18  1  0  0  0  0
 17 37  1  0  0  0  0
 17 38  1  0  0  0  0
 18 22  1  0  0  0  0
 18 23  2  0  0  0  0
 19 21  2  0  0  0  0
 19 39  1  0  0  0  0
 20 25  1  0  0  0  0
 20 40  1  0  0  0  0
 21 24  1  0  0  0  0
 21 42  1  0  0  0  0
 22 27  2  0  0  0  0
 23 28  1  0  0  0  0
 23 43  1  0  0  0  0
 25 26  2  0  0  0  0
 25 44  1  0  0  0  0
 26 45  1  0  0  0  0
 27 29  1  0  0  0  0
 27 46  1  0  0  0  0
 28 29  2  0  0  0  0
 28 47  1  0  0  0  0
 29 48  1  0  0  0  0
M  END
> <PUBCHEM_COMPOUND_CID>
2088283

> <PUBCHEM_CONFORMER_RMSD>
1

> <PUBCHEM_CONFORMER_DIVERSEORDER>
1
109
230
94
83
171
190
86
217
71
151
215
166
174
112
202
80
157
177
203
79
96
46
253
259
150
167
137
9
153
198
175
263
155
144
98
225
195
248
169
78
110
91
192
89
205
72
132
162
102
122
129
186
57
237
204
117
182
178
197
7
206
216
173
201
213
147
207
128
99
76
165
75
252
241
164
163
221
13
135
249
123
210
138
10
148
73
100
211
81
17
103
58
256
188
170
235
18
229
68
255
149
183
52
246
156
262
218
64
161
31
159
257
131
111
233
227
21
82
244
179
104
134
6
136
260
107
187
40
11
250
25
90
240
228
50
60
66
97
70
219
38
120
127
242
63
196
67
105
180
124
236
26
145
200
160
239
53
214
74
92
49
133
22
101
254
199
152
59
126
176
69
19
220
84
258
51
261
87
88
95
35
139
245
85
93
118
140
172
8
141
208
234
30
116
194
56
238
168
61
251
158
154
36
226
77
247
24
222
191
113
209
62
106
121
125
27
181
48
212
108
29
20
223
130
142
41
43
65
44
114
32
34
115
42
4
243
224
14
143
54
28
55
119
39
231
3
189
5
193
47
33
2
23
184
37
232
146
45
15
185
16
12

> <PUBCHEM_MMFF94_PARTIAL_CHARGES>
44
1 -0.18
10 0.54
11 -0.15
12 -0.15
13 0.03
14 -0.04
15 -0.15
16 -0.15
17 0.44
18 -0.14
19 -0.18
2 1.45
20 -0.15
21 -0.14
22 0.18
23 -0.15
24 0.62
25 -0.15
26 -0.01
27 -0.15
28 -0.15
29 -0.15
3 -0.28
32 0.42
33 0.15
34 0.15
35 0.15
36 0.15
39 0.15
4 -0.65
40 0.15
41 0.37
42 0.15
43 0.15
44 0.15
45 0.15
46 0.15
47 0.15
48 0.15
5 -0.65
6 -0.57
7 -0.91
8 -0.73
9 -0.01

> <PUBCHEM_EFFECTIVE_ROTOR_COUNT>
9

> <PUBCHEM_PHARMACOPHORE_FEATURES>
9
1 3 acceptor
1 4 acceptor
1 5 acceptor
1 6 acceptor
1 7 donor
1 8 donor
5 3 14 20 25 26 rings
6 18 22 23 27 28 29 rings
6 9 11 12 13 15 16 rings

> <PUBCHEM_HEAVY_ATOM_COUNT>
29

> <PUBCHEM_ATOM_DEF_STEREO_COUNT>
0

> <PUBCHEM_ATOM_UDEF_STEREO_COUNT>
0

> <PUBCHEM_BOND_DEF_STEREO_COUNT>
1

> <PUBCHEM_BOND_UDEF_STEREO_COUNT>
0

> <PUBCHEM_ISOTOPIC_ATOM_COUNT>
0

> <PUBCHEM_COMPONENT_COUNT>
1

> <PUBCHEM_CACTVS_TAUTO_COUNT>
2

> <PUBCHEM_CONFORMER_ID>
001FDD5B00000001

> <PUBCHEM_MMFF94_ENERGY>
47.5861

> <PUBCHEM_FEATURE_SELFOVERLAP>
45.691

> <PUBCHEM_SHAPE_FINGERPRINT>
10 15 9943806690696982121
10319688 67 14979949276768530911
10554248 39 18041002885617938332
11103572 95 17416410853069046343
11181472 205 18113908164867739196
11211813 163 18336542700130659629
11719270 70 17847065488640303407
1200032 147 10015577299605127516
12013929 112 17023177172747701111
12539765 74 11818989660738026536
12645989 146 18409732837635573701
13008946 170 18266179620793858844
13008946 282 17560511924015267120
13165053 103 17914889834098951333
13533116 47 18335991939035610896
13761468 95 18188765051950359469
13782708 43 18342742944334784421
14461889 52 13901904522729628092
14849402 71 8934991582226011607
14918687 75 18201998803930021110
14919807 6 17168697532272446935
15183329 4 18059581329988318861
15188451 53 18271807883170521682
15475509 8 16587745334687734629
15519825 34 15267049376921617343
16126227 98 8790875290147888137
1768 4 10159685902557660674
19841028 212 18410851050088786410
20028762 73 18342463604316087734
2026 5 18337670802364292618
21344244 78 15554733282867549824
21521721 280 9871752394635112917
21792964 463 12396847840933324071
23528940 14 18195241119756943898
23559900 14 18339361997993677233
23729398 52 9078580117671505096
3418910 222 8502372274305959247
3711267 37 11891327651731606950
397830 11 12391515282642652641
3986486 107 13623538918375704314
4112364 45 13685997836048209882
4403749 210 11887675057884036337
474113 269 18272646814378754023
4756088 132 17110159322815777874
5085150 59 17632859737530110887
531348 171 18412828002260180395
5718773 13 18343863311875142682
5758199 1 9367339340780245817
5874358 3 17560505279621036711
6126387 218 18271520906071764201
9689198 14 11458429007253289699

> <PUBCHEM_SHAPE_MULTIPOLES>
569.09
28.79
3.5
1.61
12.45
1.25
-0.19
22.22
-5.82
-6.46
-0.27
0.72
-0.22
-2.74

> <PUBCHEM_SHAPE_SELFOVERLAP>
1195.548

> <PUBCHEM_SHAPE_VOLUME>
321.5

> <PUBCHEM_COORDINATE_TYPE>
2
5
10

$$$$
