660058
  -OEChem-01171809163D

 48 53  0     0  0  0  0  0  0999 V2000
   -1.9700   -2.5669   -0.2838 O   0  0  0  0  0  0  0  0  0  0  0  0
   -5.3227   -1.7724    0.8112 O   0  0  0  0  0  0  0  0  0  0  0  0
    0.9559    0.8382   -1.1663 N   0  0  0  0  0  0  0  0  0  0  0  0
   -2.8017   -0.5497   -1.1570 N   0  0  0  0  0  0  0  0  0  0  0  0
   -1.3456    1.3074   -1.6566 N   0  0  0  0  0  0  0  0  0  0  0  0
    3.0065   -0.2491   -0.4767 N   0  0  0  0  0  0  0  0  0  0  0  0
    1.2557   -2.4262    0.1035 N   0  0  0  0  0  0  0  0  0  0  0  0
   -0.4846   -0.8103   -0.7430 C   0  0  0  0  0  0  0  0  0  0  0  0
   -0.3669    0.4835   -1.2135 C   0  0  0  0  0  0  0  0  0  0  0  0
    1.6806   -0.2145   -0.6713 C   0  0  0  0  0  0  0  0  0  0  0  0
    0.8079   -1.2544   -0.3992 C   0  0  0  0  0  0  0  0  0  0  0  0
    1.5046    2.1141   -1.5711 C   0  0  0  0  0  0  0  0  0  0  0  0
   -1.7940   -1.4234   -0.6908 C   0  0  0  0  0  0  0  0  0  0  0  0
    1.5352    3.0877   -0.4241 C   0  0  0  0  0  0  0  0  0  0  0  0
   -4.1755   -1.0262   -1.1639 C   0  0  0  0  0  0  0  0  0  0  0  0
   -2.5202    0.7498   -1.6074 C   0  0  0  0  0  0  0  0  0  0  0  0
    3.4466   -1.4135    0.0219 C   0  0  0  0  0  0  0  0  0  0  0  0
    2.5784   -2.4938    0.3099 C   0  0  0  0  0  0  0  0  0  0  0  0
   -4.8507   -0.7073    0.1411 C   0  0  0  0  0  0  0  0  0  0  0  0
    2.6564    3.1477    0.3925 C   0  0  0  0  0  0  0  0  0  0  0  0
    0.4422    3.9133   -0.1979 C   0  0  0  0  0  0  0  0  0  0  0  0
    4.8085   -1.5633    0.2648 C   0  0  0  0  0  0  0  0  0  0  0  0
    3.1148   -3.6691    0.8265 C   0  0  0  0  0  0  0  0  0  0  0  0
    5.3317   -2.7468    0.7825 C   0  0  0  0  0  0  0  0  0  0  0  0
    4.4812   -3.8041    1.0646 C   0  0  0  0  0  0  0  0  0  0  0  0
    2.6850    4.0501    1.4558 C   0  0  0  0  0  0  0  0  0  0  0  0
    0.4710    4.8158    0.8652 C   0  0  0  0  0  0  0  0  0  0  0  0
   -5.0790    0.4616    0.7814 C   0  0  0  0  0  0  0  0  0  0  0  0
    1.5924    4.8843    1.6920 C   0  0  0  0  0  0  0  0  0  0  0  0
   -5.7600    0.1036    1.9693 C   0  0  0  0  0  0  0  0  0  0  0  0
   -5.8837   -1.2660    1.9405 C   0  0  0  0  0  0  0  0  0  0  0  0
    0.9092    2.5038   -2.4055 H   0  0  0  0  0  0  0  0  0  0  0  0
    2.5115    1.9473   -1.9728 H   0  0  0  0  0  0  0  0  0  0  0  0
   -4.1911   -2.1062   -1.3487 H   0  0  0  0  0  0  0  0  0  0  0  0
   -4.7257   -0.5373   -1.9761 H   0  0  0  0  0  0  0  0  0  0  0  0
   -3.4095    1.3090   -1.9389 H   0  0  0  0  0  0  0  0  0  0  0  0
    3.5161    2.5077    0.2167 H   0  0  0  0  0  0  0  0  0  0  0  0
   -0.4345    3.8761   -0.8375 H   0  0  0  0  0  0  0  0  0  0  0  0
    5.4911   -0.7430    0.0495 H   0  0  0  0  0  0  0  0  0  0  0  0
    2.4615   -4.5096    1.0538 H   0  0  0  0  0  0  0  0  0  0  0  0
    6.3983   -2.8384    0.9632 H   0  0  0  0  0  0  0  0  0  0  0  0
    4.8754   -4.7316    1.4682 H   0  0  0  0  0  0  0  0  0  0  0  0
    3.5586    4.1044    2.0988 H   0  0  0  0  0  0  0  0  0  0  0  0
   -0.3791    5.4666    1.0484 H   0  0  0  0  0  0  0  0  0  0  0  0
   -4.8039    1.4548    0.4575 H   0  0  0  0  0  0  0  0  0  0  0  0
    1.6149    5.5875    2.5193 H   0  0  0  0  0  0  0  0  0  0  0  0
   -6.1163    0.7614    2.7488 H   0  0  0  0  0  0  0  0  0  0  0  0
   -6.3212   -1.9914    2.6109 H   0  0  0  0  0  0  0  0  0  0  0  0
  1 13  2  0  0  0  0
  2 19  1  0  0  0  0
  2 31  1  0  0  0  0
  3  9  1  0  0  0  0
  3 10  1  0  0  0  0
  3 12  1  0  0  0  0
  4 13  1  0  0  0  0
  4 15  1  0  0  0  0
  4 16  1  0  0  0  0
  5  9  1  0  0  0  0
  5 16  2  0  0  0  0
  6 10  2  0  0  0  0
  6 17  1  0  0  0  0
  7 11  2  0  0  0  0
  7 18  1  0  0  0  0
  8  9  2  0  0  0  0
  8 11  1  0  0  0  0
  8 13  1  0  0  0  0
 10 11  1  0  0  0  0
 12 14  1  0  0  0  0
 12 32  1  0  0  0  0
 12 33  1  0  0  0  0
 14 20  2  0  0  0  0
 14 21  1  0  0  0  0
 15 19  1  0  0  0  0
 15 34  1  0  0  0  0
 15 35  1  0  0  0  0
 16 36  1  0  0  0  0
 17 18  1  0  0  0  0
 17 22  2  0  0  0  0
 18 23  2  0  0  0  0
 19 28  2  0  0  0  0
 20 26  1  0  0  0  0
 20 37  1  0  0  0  0
 21 27  2  0  0  0  0
 21 38  1  0  0  0  0
 22 24  1  0  0  0  0
 22 39  1  0  0  0  0
 23 25  1  0  0  0  0
 23 40  1  0  0  0  0
 24 25  2  0  0  0  0
 24 41  1  0  0  0  0
 25 42  1  0  0  0  0
 26 29  2  0  0  0  0
 26 43  1  0  0  0  0
 27 29  1  0  0  0  0
 27 44  1  0  0  0  0
 28 30  1  0  0  0  0
 28 45  1  0  0  0  0
 29 46  1  0  0  0  0
 30 31  2  0  0  0  0
 30 47  1  0  0  0  0
 31 48  1  0  0  0  0
M  END
> <PUBCHEM_COMPOUND_CID>
660058

> <PUBCHEM_CONFORMER_RMSD>
0.8

> <PUBCHEM_CONFORMER_DIVERSEORDER>
1
45
36
23
44
16
29
46
35
32
42
12
7
47
18
24
34
27
30
41
43
14
37
25
8
22
28
39
26
20
5
31
33
38
10
11
40
6
13
17
19
4
9
21
15
2
3

> <PUBCHEM_MMFF94_PARTIAL_CHARGES>
44
1 -0.57
10 0.11
11 0.26
12 0.4
13 0.72
14 -0.14
15 0.48
16 0.45
17 0.31
18 0.31
19 -0.04
2 -0.28
20 -0.15
21 -0.15
22 -0.15
23 -0.15
24 -0.15
25 -0.15
26 -0.15
27 -0.15
28 -0.15
29 -0.15
3 0.05
30 -0.15
31 -0.01
36 0.06
37 0.15
38 0.15
39 0.15
4 -0.42
40 0.15
41 0.15
42 0.15
43 0.15
44 0.15
45 0.15
46 0.15
47 0.15
48 0.15
5 -0.58
6 -0.57
7 -0.57
8 -0.09
9 -0.03

> <PUBCHEM_EFFECTIVE_ROTOR_COUNT>
4

> <PUBCHEM_PHARMACOPHORE_FEATURES>
10
1 1 acceptor
1 2 acceptor
1 7 acceptor
3 3 6 10 cation
5 2 19 28 30 31 rings
5 3 8 9 10 11 rings
6 14 20 21 26 27 29 rings
6 17 18 22 23 24 25 rings
6 4 5 8 9 13 16 rings
6 6 7 10 11 17 18 rings

> <PUBCHEM_HEAVY_ATOM_COUNT>
31

> <PUBCHEM_ATOM_DEF_STEREO_COUNT>
0

> <PUBCHEM_ATOM_UDEF_STEREO_COUNT>
0

> <PUBCHEM_BOND_DEF_STEREO_COUNT>
0

> <PUBCHEM_BOND_UDEF_STEREO_COUNT>
0

> <PUBCHEM_ISOTOPIC_ATOM_COUNT>
0

> <PUBCHEM_COMPONENT_COUNT>
1

> <PUBCHEM_CACTVS_TAUTO_COUNT>
1

> <PUBCHEM_CONFORMER_ID>
000A125A00000001

> <PUBCHEM_MMFF94_ENERGY>
71.3028

> <PUBCHEM_FEATURE_SELFOVERLAP>
51.044

> <PUBCHEM_SHAPE_FINGERPRINT>
10074138 170 17473524868625299136
10258939 38 16443061691111615150
10794284 68 17838372634179641860
11070050 100 18053386788213645929
11115154 58 17550059764628481229
11331351 85 18128824040630117398
11399510 152 17974037173932540555
11456790 92 18191601761837712873
12293681 160 17111809727979709109
12549972 3 18042102320595848485
12677640 9 17620174873996706986
12788726 201 18195812865010946854
12988421 55 17693915793702624320
13140716 1 18048876587147304998
13383661 66 12181858167860271825
13540713 4 17968640693153213837
13590594 115 18340487763928143944
14028597 1 18268169650750376772
14444916 359 18193273229691210776
14739800 52 17558829722568463673
14849402 71 18268156537703421480
14950920 106 18339379530187102371
14955137 171 18339932514898686974
15230672 131 17758945310856211552
15347590 135 18187917336690021010
15475509 84 18266751190287168025
15927050 60 18049729817372687462
15950262 2 15192454264972041672
16096371 109 17977113671807696569
17980427 23 17846491530754040095
17980427 26 18054498381837464652
19319366 153 18118983604914237268
20642791 268 18131627898175460383
21796203 349 18337971011956459634
21927370 108 17970072137260469858
21987483 16 15176721881256427144
22122407 14 18199488635947322041
22440779 20 17117808706180986894
24941158 1 18191607429991172937
2747138 104 18265326211008019042
3552219 110 18116733832767804790
4058900 60 17834966643072218000
42626532 9 17766539276290017642
5104073 3 18044365033726279922
58807428 26 17905600356624634485
5912855 24 17759526569537186970
6086070 43 18270102545062833437
6703917 75 17470466486617443228
79837 15 17257365770192716018

> <PUBCHEM_SHAPE_MULTIPOLES>
601.32
11.16
6.44
1.67
12.98
8.26
-0.21
-11.36
-6.49
-8.86
-3.39
1.49
0.62
-0.07

> <PUBCHEM_SHAPE_SELFOVERLAP>
1376.09

> <PUBCHEM_SHAPE_VOLUME>
308

> <PUBCHEM_COORDINATE_TYPE>
2
5
10

$$$$
