1224762
  -OEChem-01171809273D

 34 36  0     0  0  0  0  0  0999 V2000
    7.5174    1.9030   -0.5151 Cl  0  0  0  0  0  0  0  0  0  0  0  0
    0.7757   -2.9177    0.8163 S   0  0  0  0  0  0  0  0  0  0  0  0
   -1.2927    1.0537   -0.4965 O   0  0  0  0  0  0  0  0  0  0  0  0
   -4.9943    2.9748    0.4989 O   0  5  0  0  0  0  0  0  0  0  0  0
   -2.8155    2.6898    0.4457 O   0  0  0  0  0  0  0  0  0  0  0  0
   -5.0941   -1.0496   -0.4256 N   0  0  0  0  0  0  0  0  0  0  0  0
   -3.7775   -1.3144   -0.4797 N   0  0  0  0  0  0  0  0  0  0  0  0
   -1.0946   -1.1814    0.2167 N   0  0  0  0  0  0  0  0  0  0  0  0
    1.2062   -0.4833    0.0605 N   0  0  0  0  0  0  0  0  0  0  0  0
   -3.9863    2.2353    0.3350 N   0  3  0  0  0  0  0  0  0  0  0  0
   -3.2694   -0.1367   -0.2059 C   0  0  0  0  0  0  0  0  0  0  0  0
   -4.1715    0.8788    0.0229 C   0  0  0  0  0  0  0  0  0  0  0  0
   -5.3832    0.2498   -0.1281 C   0  0  0  0  0  0  0  0  0  0  0  0
    2.4329   -1.0768    0.2808 C   0  0  0  0  0  0  0  0  0  0  0  0
    3.6606   -0.3571    0.0877 C   0  0  0  0  0  0  0  0  0  0  0  0
   -1.7877   -0.0199   -0.1706 C   0  0  0  0  0  0  0  0  0  0  0  0
    0.2600   -1.3607    0.3116 C   0  0  0  0  0  0  0  0  0  0  0  0
   -6.0483   -2.1047   -0.6699 C   0  0  0  0  0  0  0  0  0  0  0  0
    2.4033   -2.3913    0.6943 C   0  0  0  0  0  0  0  0  0  0  0  0
    4.8147   -1.0380   -0.2994 C   0  0  0  0  0  0  0  0  0  0  0  0
    3.6990    1.0228    0.2885 C   0  0  0  0  0  0  0  0  0  0  0  0
    6.0074   -0.3391   -0.4855 C   0  0  0  0  0  0  0  0  0  0  0  0
    4.8917    1.7218    0.1022 C   0  0  0  0  0  0  0  0  0  0  0  0
    6.0460    1.0408   -0.2849 C   0  0  0  0  0  0  0  0  0  0  0  0
   -6.4027    0.6042   -0.0517 H   0  0  0  0  0  0  0  0  0  0  0  0
   -1.6484   -2.0004    0.4559 H   0  0  0  0  0  0  0  0  0  0  0  0
   -5.8900   -2.8901    0.0734 H   0  0  0  0  0  0  0  0  0  0  0  0
   -7.0626   -1.7074   -0.5833 H   0  0  0  0  0  0  0  0  0  0  0  0
   -5.8832   -2.4906   -1.6788 H   0  0  0  0  0  0  0  0  0  0  0  0
    3.2135   -3.0634    0.9413 H   0  0  0  0  0  0  0  0  0  0  0  0
    4.8206   -2.1093   -0.4827 H   0  0  0  0  0  0  0  0  0  0  0  0
    2.8137    1.5748    0.5951 H   0  0  0  0  0  0  0  0  0  0  0  0
    6.8983   -0.8818   -0.7910 H   0  0  0  0  0  0  0  0  0  0  0  0
    4.9074    2.7967    0.2633 H   0  0  0  0  0  0  0  0  0  0  0  0
  1 24  1  0  0  0  0
  2 17  1  0  0  0  0
  2 19  1  0  0  0  0
  3 16  2  0  0  0  0
  4 10  1  0  0  0  0
  5 10  2  0  0  0  0
  6  7  1  0  0  0  0
  6 13  1  0  0  0  0
  6 18  1  0  0  0  0
  7 11  2  0  0  0  0
  8 16  1  0  0  0  0
  8 17  1  0  0  0  0
  8 26  1  0  0  0  0
  9 14  1  0  0  0  0
  9 17  2  0  0  0  0
 10 12  1  0  0  0  0
 11 12  1  0  0  0  0
 11 16  1  0  0  0  0
 12 13  2  0  0  0  0
 13 25  1  0  0  0  0
 14 15  1  0  0  0  0
 14 19  2  0  0  0  0
 15 20  2  0  0  0  0
 15 21  1  0  0  0  0
 18 27  1  0  0  0  0
 18 28  1  0  0  0  0
 18 29  1  0  0  0  0
 19 30  1  0  0  0  0
 20 22  1  0  0  0  0
 20 31  1  0  0  0  0
 21 23  2  0  0  0  0
 21 32  1  0  0  0  0
 22 24  2  0  0  0  0
 22 33  1  0  0  0  0
 23 24  1  0  0  0  0
 23 34  1  0  0  0  0
M  CHG  2   4  -1  10   1
M  END
> <PUBCHEM_COMPOUND_CID>
1224762

> <PUBCHEM_CONFORMER_RMSD>
0.8

> <PUBCHEM_CONFORMER_DIVERSEORDER>
1
6
12
5
10
4
8
11
14
2
9
3
13
7

> <PUBCHEM_MMFF94_PARTIAL_CHARGES>
31
1 -0.18
10 0.96
11 0.2
12 0.08
13 -0.3
14 0.17
15 0.05
16 0.72
17 0.44
18 0.26
19 -0.11
2 -0.08
20 -0.15
21 -0.15
22 -0.15
23 -0.15
24 0.18
25 0.15
26 0.37
3 -0.57
30 0.15
31 0.15
32 0.15
33 0.15
34 0.15
4 -0.52
5 -0.52
6 0.31
7 -0.71
8 -0.49
9 -0.57

> <PUBCHEM_EFFECTIVE_ROTOR_COUNT>
5

> <PUBCHEM_PHARMACOPHORE_FEATURES>
9
1 3 acceptor
1 4 acceptor
1 4 anion
1 5 acceptor
1 7 acceptor
1 8 donor
5 2 9 14 17 19 rings
5 6 7 11 12 13 rings
6 15 20 21 22 23 24 rings

> <PUBCHEM_HEAVY_ATOM_COUNT>
24

> <PUBCHEM_ATOM_DEF_STEREO_COUNT>
0

> <PUBCHEM_ATOM_UDEF_STEREO_COUNT>
0

> <PUBCHEM_BOND_DEF_STEREO_COUNT>
0

> <PUBCHEM_BOND_UDEF_STEREO_COUNT>
0

> <PUBCHEM_ISOTOPIC_ATOM_COUNT>
0

> <PUBCHEM_COMPONENT_COUNT>
1

> <PUBCHEM_CACTVS_TAUTO_COUNT>
3

> <PUBCHEM_CONFORMER_ID>
0012B03A00000001

> <PUBCHEM_MMFF94_ENERGY>
52.2865

> <PUBCHEM_FEATURE_SELFOVERLAP>
45.781

> <PUBCHEM_SHAPE_FINGERPRINT>
10411042 1 17689157129369664235
10595046 47 18411134727645091867
10670039 82 18410570687081220240
11315621 246 17559946787806797567
12107183 9 17618218408481185195
12236239 1 18412824676985231286
12730499 353 18409173216571905146
13167372 99 18410573955862224656
13533116 47 16950831519484732274
13583140 156 13840272502425959047
13631057 29 18340764940444509155
13785724 45 17760642569734784386
14251764 18 18187079560532227330
14257110 125 18334575776537816710
14528608 73 18409727365672651878
14790565 3 18409169904887823436
14933364 13 18343587347584059316
15183329 4 18343024385215189096
15196674 1 18411136909620093712
1577012 14 18409449168151555480
15778101 99 18271248210203644777
15961568 22 18407761434661399484
17844677 252 18343026574989191974
18608769 82 18266742565686668394
19427546 20 18410569583886171973
21065198 48 18336823092073686379
221357 26 18202001053716963056
23272321 79 18409167709805944892
23559900 14 18339912823233231489
245318 6 17532954893994371076
2838139 119 18341610460569871380
312425 54 7853576790466171942
335352 9 18334860533534543814
34797466 226 17846504737535797718
4073 2 18187652409346588290
4258327 124 16879084125096140718
4325135 7 18411979204309900183
474 4 17967819348923668486
497634 4 18411133615802164813
5104073 3 18041562429799385835
53794403 172 18045503273201076204
543368 44 18409448081440368629
54446538 1 18412542119871628940
59682541 35 18114191877800933715
59755656 520 18114174281225794154
636775 72 18268146651638642392
67856867 119 18262509278553266882
9996256 80 18412824685775573886

> <PUBCHEM_SHAPE_MULTIPOLES>
457.12
17.94
3.01
0.76
6.88
0.38
0.01
7.91
-3.55
-1.58
0.69
-0.01
-0.12
-1.46

> <PUBCHEM_SHAPE_SELFOVERLAP>
979.543

> <PUBCHEM_SHAPE_VOLUME>
257

> <PUBCHEM_COORDINATE_TYPE>
2
5
10

$$$$
