49790429
  -OEChem-01171810193D

 75 79  0     1  0  0  0  0  0999 V2000
   -1.1757   -0.5824    0.3579 O   0  0  0  0  0  0  0  0  0  0  0  0
   -3.6643    3.8614   -0.0214 O   0  0  0  0  0  0  0  0  0  0  0  0
    3.9910   -0.8455   -0.6770 N   0  0  3  0  0  0  0  0  0  0  0  0
    2.6851    0.9461    0.2081 N   0  0  0  0  0  0  0  0  0  0  0  0
    4.5687   -3.8095    1.5358 N   0  0  0  0  0  0  0  0  0  0  0  0
    4.2563    2.4440    0.7483 N   0  0  0  0  0  0  0  0  0  0  0  0
   -1.9523    1.6366    0.2207 N   0  0  0  0  0  0  0  0  0  0  0  0
    4.2756   -0.9012   -3.1065 C   0  0  0  0  0  0  0  0  0  0  0  0
    3.6970   -0.5034   -4.4328 C   0  0  0  0  0  0  0  0  0  0  0  0
    4.4140    0.5119   -3.5921 C   0  0  0  0  0  0  0  0  0  0  0  0
    3.3549   -1.1949   -1.9678 C   0  0  0  0  0  0  0  0  0  0  0  0
    4.7527   -1.9409   -0.0345 C   0  0  0  0  0  0  0  0  0  0  0  0
    3.8897    0.3843   -0.1293 C   0  0  0  0  0  0  0  0  0  0  0  0
    3.8419   -2.7093    0.9146 C   0  0  0  0  0  0  0  0  0  0  0  0
    4.8356    1.3221    0.2119 C   0  0  0  0  0  0  0  0  0  0  0  0
    2.9609    2.2034    0.7394 C   0  0  0  0  0  0  0  0  0  0  0  0
    6.2983    1.2413    0.0666 C   0  0  0  0  0  0  0  0  0  0  0  0
    1.3982    0.4281    0.0772 C   0  0  0  0  0  0  0  0  0  0  0  0
    1.8481    2.9860    1.1665 C   0  0  0  0  0  0  0  0  0  0  0  0
    0.3579    1.1756    0.4834 C   0  0  0  0  0  0  0  0  0  0  0  0
    7.0437    1.4114    1.3965 C   0  0  0  0  0  0  0  0  0  0  0  0
    3.6401   -4.8319    2.0218 C   0  0  0  0  0  0  0  0  0  0  0  0
    5.4051   -3.3209    2.6337 C   0  0  0  0  0  0  0  0  0  0  0  0
    0.5991    2.4956    1.0448 C   0  0  0  0  0  0  0  0  0  0  0  0
   -0.9948    0.6369    0.3488 C   0  0  0  0  0  0  0  0  0  0  0  0
   -3.3524    1.4837    0.0716 C   0  0  0  0  0  0  0  0  0  0  0  0
   -3.9016    0.2020    0.0419 C   0  0  0  0  0  0  0  0  0  0  0  0
   -4.1802    2.6001   -0.0469 C   0  0  0  0  0  0  0  0  0  0  0  0
   -5.2787    0.0365   -0.1062 C   0  0  0  0  0  0  0  0  0  0  0  0
   -5.5573    2.4347   -0.1949 C   0  0  0  0  0  0  0  0  0  0  0  0
   -6.1066    1.1530   -0.2244 C   0  0  0  0  0  0  0  0  0  0  0  0
   -5.8489   -1.2928   -0.1379 C   0  0  0  0  0  0  0  0  0  0  0  0
   -6.2569   -1.9048    1.0472 C   0  0  0  0  0  0  0  0  0  0  0  0
   -5.9907   -1.9623   -1.3532 C   0  0  0  0  0  0  0  0  0  0  0  0
   -3.5578    4.4914    1.2535 C   0  0  0  0  0  0  0  0  0  0  0  0
   -6.8068   -3.1865    1.0170 C   0  0  0  0  0  0  0  0  0  0  0  0
   -6.5405   -3.2439   -1.3837 C   0  0  0  0  0  0  0  0  0  0  0  0
   -6.9485   -3.8560   -0.1985 C   0  0  0  0  0  0  0  0  0  0  0  0
    5.1587   -1.5280   -3.1113 H   0  0  0  0  0  0  0  0  0  0  0  0
    4.1950   -0.8592   -5.3266 H   0  0  0  0  0  0  0  0  0  0  0  0
    2.6223   -0.4100   -4.5285 H   0  0  0  0  0  0  0  0  0  0  0  0
    5.3940    0.8374   -3.9188 H   0  0  0  0  0  0  0  0  0  0  0  0
    3.8163    1.2890   -3.1320 H   0  0  0  0  0  0  0  0  0  0  0  0
    3.0921   -2.2594   -1.9835 H   0  0  0  0  0  0  0  0  0  0  0  0
    2.4163   -0.6521   -2.1131 H   0  0  0  0  0  0  0  0  0  0  0  0
    5.6120   -1.5240    0.4986 H   0  0  0  0  0  0  0  0  0  0  0  0
    5.1623   -2.6118   -0.8004 H   0  0  0  0  0  0  0  0  0  0  0  0
    3.0051   -3.1023    0.3215 H   0  0  0  0  0  0  0  0  0  0  0  0
    3.3921   -2.0437    1.6634 H   0  0  0  0  0  0  0  0  0  0  0  0
    6.6064    0.2991   -0.3977 H   0  0  0  0  0  0  0  0  0  0  0  0
    6.6249    2.0347   -0.6170 H   0  0  0  0  0  0  0  0  0  0  0  0
    1.2807   -0.5721   -0.3183 H   0  0  0  0  0  0  0  0  0  0  0  0
    2.0229    3.9615    1.6066 H   0  0  0  0  0  0  0  0  0  0  0  0
    6.7529    0.6314    2.1084 H   0  0  0  0  0  0  0  0  0  0  0  0
    8.1240    1.3438    1.2345 H   0  0  0  0  0  0  0  0  0  0  0  0
    6.8271    2.3836    1.8515 H   0  0  0  0  0  0  0  0  0  0  0  0
    4.8168   -2.8254    3.4148 H   0  0  0  0  0  0  0  0  0  0  0  0
    5.9475   -4.1536    3.0966 H   0  0  0  0  0  0  0  0  0  0  0  0
    6.1712   -2.6231    2.2826 H   0  0  0  0  0  0  0  0  0  0  0  0
    4.1881   -5.6693    2.4681 H   0  0  0  0  0  0  0  0  0  0  0  0
    2.9451   -4.4353    2.7709 H   0  0  0  0  0  0  0  0  0  0  0  0
    3.0564   -5.2491    1.1936 H   0  0  0  0  0  0  0  0  0  0  0  0
   -0.2182    3.0929    1.4326 H   0  0  0  0  0  0  0  0  0  0  0  0
   -1.6540    2.6062    0.1709 H   0  0  0  0  0  0  0  0  0  0  0  0
   -3.3132   -0.7010    0.1286 H   0  0  0  0  0  0  0  0  0  0  0  0
   -6.2083    3.2998   -0.2886 H   0  0  0  0  0  0  0  0  0  0  0  0
   -7.1821    1.0419   -0.3408 H   0  0  0  0  0  0  0  0  0  0  0  0
   -6.1534   -1.3971    2.0033 H   0  0  0  0  0  0  0  0  0  0  0  0
   -5.6776   -1.4998   -2.2863 H   0  0  0  0  0  0  0  0  0  0  0  0
   -3.0855    5.4677    1.1143 H   0  0  0  0  0  0  0  0  0  0  0  0
   -2.9380    3.8972    1.9323 H   0  0  0  0  0  0  0  0  0  0  0  0
   -4.5510    4.6420    1.6881 H   0  0  0  0  0  0  0  0  0  0  0  0
   -7.1245   -3.6632    1.9397 H   0  0  0  0  0  0  0  0  0  0  0  0
   -6.6509   -3.7653   -2.3300 H   0  0  0  0  0  0  0  0  0  0  0  0
   -7.3765   -4.8538   -0.2221 H   0  0  0  0  0  0  0  0  0  0  0  0
  1 25  2  0  0  0  0
  2 28  1  0  0  0  0
  2 35  1  0  0  0  0
  3 11  1  0  0  0  0
  3 12  1  0  0  0  0
  3 13  1  0  0  0  0
  4 13  1  0  0  0  0
  4 16  1  0  0  0  0
  4 18  1  0  0  0  0
  5 14  1  0  0  0  0
  5 22  1  0  0  0  0
  5 23  1  0  0  0  0
  6 15  1  0  0  0  0
  6 16  2  0  0  0  0
  7 25  1  0  0  0  0
  7 26  1  0  0  0  0
  7 64  1  0  0  0  0
  8  9  1  0  0  0  0
  8 10  1  0  0  0  0
  8 11  1  0  0  0  0
  8 39  1  0  0  0  0
  9 10  1  0  0  0  0
  9 40  1  0  0  0  0
  9 41  1  0  0  0  0
 10 42  1  0  0  0  0
 10 43  1  0  0  0  0
 11 44  1  0  0  0  0
 11 45  1  0  0  0  0
 12 14  1  0  0  0  0
 12 46  1  0  0  0  0
 12 47  1  0  0  0  0
 13 15  2  0  0  0  0
 14 48  1  0  0  0  0
 14 49  1  0  0  0  0
 15 17  1  0  0  0  0
 16 19  1  0  0  0  0
 17 21  1  0  0  0  0
 17 50  1  0  0  0  0
 17 51  1  0  0  0  0
 18 20  2  0  0  0  0
 18 52  1  0  0  0  0
 19 24  2  0  0  0  0
 19 53  1  0  0  0  0
 20 24  1  0  0  0  0
 20 25  1  0  0  0  0
 21 54  1  0  0  0  0
 21 55  1  0  0  0  0
 21 56  1  0  0  0  0
 22 60  1  0  0  0  0
 22 61  1  0  0  0  0
 22 62  1  0  0  0  0
 23 57  1  0  0  0  0
 23 58  1  0  0  0  0
 23 59  1  0  0  0  0
 24 63  1  0  0  0  0
 26 27  1  0  0  0  0
 26 28  2  0  0  0  0
 27 29  2  0  0  0  0
 27 65  1  0  0  0  0
 28 30  1  0  0  0  0
 29 31  1  0  0  0  0
 29 32  1  0  0  0  0
 30 31  2  0  0  0  0
 30 66  1  0  0  0  0
 31 67  1  0  0  0  0
 32 33  2  0  0  0  0
 32 34  1  0  0  0  0
 33 36  1  0  0  0  0
 33 68  1  0  0  0  0
 34 37  2  0  0  0  0
 34 69  1  0  0  0  0
 35 70  1  0  0  0  0
 35 71  1  0  0  0  0
 35 72  1  0  0  0  0
 36 38  2  0  0  0  0
 36 73  1  0  0  0  0
 37 38  1  0  0  0  0
 37 74  1  0  0  0  0
 38 75  1  0  0  0  0
M  END
> <PUBCHEM_COMPOUND_CID>
49790429

> <PUBCHEM_CONFORMER_RMSD>
1.2

> <PUBCHEM_CONFORMER_DIVERSEORDER>
1
10
41
30
16
39
36
4
44
27
34
15
42
25
38
21
12
7
32
33
22
3
29
14
43
13
8
9
17
37
28
19
31
35
5
11
20
26
18
40
6
23
24
2

> <PUBCHEM_MMFF94_PARTIAL_CHARGES>
52
1 -0.57
10 -0.2
11 0.46
12 0.37
13 -0.07
14 0.27
15 0.05
16 0.14
17 0.18
18 -0.18
19 -0.11
2 -0.36
20 0.01
22 0.27
23 0.27
24 -0.15
25 0.62
26 0.12
27 -0.15
28 0.08
3 -0.82
30 -0.15
31 -0.15
33 -0.15
34 -0.15
35 0.28
36 -0.15
37 -0.15
38 -0.15
39 0.1
4 0.33
40 0.1
41 0.1
42 0.1
43 0.1
5 -0.81
52 0.15
53 0.15
6 -0.57
63 0.15
64 0.37
65 0.15
66 0.15
67 0.15
68 0.15
69 0.15
7 -0.55
73 0.15
74 0.15
75 0.15
8 -0.19
9 -0.2

> <PUBCHEM_EFFECTIVE_ROTOR_COUNT>
12.6

> <PUBCHEM_PHARMACOPHORE_FEATURES>
11
1 1 acceptor
1 2 acceptor
1 21 hydrophobe
1 3 cation
1 5 cation
1 7 donor
3 4 6 16 cation
5 4 6 13 15 16 rings
6 26 27 28 29 30 31 rings
6 32 33 34 36 37 38 rings
6 4 16 18 19 20 24 rings

> <PUBCHEM_HEAVY_ATOM_COUNT>
38

> <PUBCHEM_ATOM_DEF_STEREO_COUNT>
0

> <PUBCHEM_ATOM_UDEF_STEREO_COUNT>
0

> <PUBCHEM_BOND_DEF_STEREO_COUNT>
0

> <PUBCHEM_BOND_UDEF_STEREO_COUNT>
0

> <PUBCHEM_ISOTOPIC_ATOM_COUNT>
0

> <PUBCHEM_COMPONENT_COUNT>
1

> <PUBCHEM_CACTVS_TAUTO_COUNT>
2

> <PUBCHEM_CONFORMER_ID>
02F7BDDD00000001

> <PUBCHEM_MMFF94_ENERGY>
130.7161

> <PUBCHEM_FEATURE_SELFOVERLAP>
55.937

> <PUBCHEM_SHAPE_FINGERPRINT>
10169797 241 18270970140529546339
11963148 33 18337941381071867770
12623949 98 17916034632168254069
131258 38 18115858599958994778
1361 4 18410007728274101091
13782708 43 18342460365709487423
14347332 77 18412258437740735723
15082195 135 17531257200284429151
15183329 4 18270684138820978873
15467298 65 18335129848525929867
15684393 108 17676784149328775911
15968369 26 17841995477316059815
21599406 157 17095526223287752727
25222932 49 18341608239887299686
4073 2 18334860536489698321
4144715 1 17916598539804936793
50009960 94 18191279655399581162
5104073 3 18201719527090116105
5109719 28 18057038223902472792
57527295 17 18335432222886407296
6057620 51 18264209286543405928

> <PUBCHEM_SHAPE_MULTIPOLES>
745.38
21.19
5.75
2.63
18.59
2.6
-3.58
12.93
-0.09
3.56
3.85
-6.34
1.9
-2.36

> <PUBCHEM_SHAPE_SELFOVERLAP>
1600.751

> <PUBCHEM_SHAPE_VOLUME>
416.2

> <PUBCHEM_COORDINATE_TYPE>
2
5
10

$$$$
