2732795
  -OEChem-01171809553D

 42 43  0     1  0  0  0  0  0999 V2000
   -2.7801   -1.7522    1.0780 F   0  0  0  0  0  0  0  0  0  0  0  0
   -0.9678    1.9146   -1.3798 O   0  0  0  0  0  0  0  0  0  0  0  0
   -0.0904   -0.4062    2.0370 O   0  0  0  0  0  0  0  0  0  0  0  0
    4.0366    1.5236    1.2121 O   0  0  0  0  0  0  0  0  0  0  0  0
    0.4278   -3.1814   -1.7756 O   0  5  0  0  0  0  0  0  0  0  0  0
    1.1965   -3.4100    0.2766 O   0  0  0  0  0  0  0  0  0  0  0  0
    2.7472    0.7914   -0.5745 N   0  0  0  0  0  0  0  0  0  0  0  0
    1.9725    0.5906    1.6625 N   0  0  0  0  0  0  0  0  0  0  0  0
    0.3608   -3.0059   -0.5482 N   0  3  0  0  0  0  0  0  0  0  0  0
    1.4039    0.0342   -2.4354 N   0  0  0  0  0  0  0  0  0  0  0  0
   -0.7147   -0.8158   -0.5840 C   0  0  2  0  0  0  0  0  0  0  0  0
    0.6059   -0.1864   -0.2100 C   0  0  0  0  0  0  0  0  0  0  0  0
   -1.8705    0.0666   -0.1485 C   0  0  0  0  0  0  0  0  0  0  0  0
   -0.7894   -2.2395   -0.0288 C   0  0  0  0  0  0  0  0  0  0  0  0
    1.5705    0.2071   -1.0753 C   0  0  0  0  0  0  0  0  0  0  0  0
    0.7853   -0.0159    1.2645 C   0  0  0  0  0  0  0  0  0  0  0  0
   -1.9280    1.3810   -0.5736 C   0  0  0  0  0  0  0  0  0  0  0  0
    2.9951    1.0072    0.7918 C   0  0  0  0  0  0  0  0  0  0  0  0
   -2.8440   -0.4768    0.6702 C   0  0  0  0  0  0  0  0  0  0  0  0
    3.7778    1.2001   -1.5355 C   0  0  0  0  0  0  0  0  0  0  0  0
    2.1717    0.8112    3.0924 C   0  0  0  0  0  0  0  0  0  0  0  0
   -2.9960    2.1803   -0.1660 C   0  0  0  0  0  0  0  0  0  0  0  0
   -3.9118    0.3228    1.0778 C   0  0  0  0  0  0  0  0  0  0  0  0
   -3.9878    1.6513    0.6595 C   0  0  0  0  0  0  0  0  0  0  0  0
   -1.1713    1.8083   -2.7873 C   0  0  0  0  0  0  0  0  0  0  0  0
   -0.8345   -0.9098   -1.6673 H   0  0  0  0  0  0  0  0  0  0  0  0
   -1.6579   -2.7845   -0.4216 H   0  0  0  0  0  0  0  0  0  0  0  0
   -0.7547   -2.3564    1.0577 H   0  0  0  0  0  0  0  0  0  0  0  0
    4.6476    1.6365   -1.0370 H   0  0  0  0  0  0  0  0  0  0  0  0
    3.3644    1.9558   -2.2112 H   0  0  0  0  0  0  0  0  0  0  0  0
    4.1180    0.3245   -2.0977 H   0  0  0  0  0  0  0  0  0  0  0  0
    3.0067    0.1855    3.4238 H   0  0  0  0  0  0  0  0  0  0  0  0
    1.2845    0.5721    3.6834 H   0  0  0  0  0  0  0  0  0  0  0  0
    2.4422    1.8590    3.2580 H   0  0  0  0  0  0  0  0  0  0  0  0
   -3.0613    3.2164   -0.4870 H   0  0  0  0  0  0  0  0  0  0  0  0
    0.6041   -0.4495   -2.8160 H   0  0  0  0  0  0  0  0  0  0  0  0
    2.1251    0.3355   -3.0760 H   0  0  0  0  0  0  0  0  0  0  0  0
   -4.6837   -0.0894    1.7209 H   0  0  0  0  0  0  0  0  0  0  0  0
   -4.8192    2.2738    0.9772 H   0  0  0  0  0  0  0  0  0  0  0  0
   -1.9936    2.4644   -3.0911 H   0  0  0  0  0  0  0  0  0  0  0  0
   -1.3966    0.7824   -3.0915 H   0  0  0  0  0  0  0  0  0  0  0  0
   -0.2637    2.1437   -3.2960 H   0  0  0  0  0  0  0  0  0  0  0  0
  1 19  1  0  0  0  0
  2 17  1  0  0  0  0
  2 25  1  0  0  0  0
  3 16  2  0  0  0  0
  4 18  2  0  0  0  0
  5  9  1  0  0  0  0
  6  9  2  0  0  0  0
  7 15  1  0  0  0  0
  7 18  1  0  0  0  0
  7 20  1  0  0  0  0
  8 16  1  0  0  0  0
  8 18  1  0  0  0  0
  8 21  1  0  0  0  0
  9 14  1  0  0  0  0
 10 15  1  0  0  0  0
 10 36  1  0  0  0  0
 10 37  1  0  0  0  0
 11 12  1  0  0  0  0
 11 13  1  0  0  0  0
 11 14  1  0  0  0  0
 11 26  1  0  0  0  0
 12 15  2  0  0  0  0
 12 16  1  0  0  0  0
 13 17  2  0  0  0  0
 13 19  1  0  0  0  0
 14 27  1  0  0  0  0
 14 28  1  0  0  0  0
 17 22  1  0  0  0  0
 19 23  2  0  0  0  0
 20 29  1  0  0  0  0
 20 30  1  0  0  0  0
 20 31  1  0  0  0  0
 21 32  1  0  0  0  0
 21 33  1  0  0  0  0
 21 34  1  0  0  0  0
 22 24  2  0  0  0  0
 22 35  1  0  0  0  0
 23 24  1  0  0  0  0
 23 38  1  0  0  0  0
 24 39  1  0  0  0  0
 25 40  1  0  0  0  0
 25 41  1  0  0  0  0
 25 42  1  0  0  0  0
M  CHG  2   5  -1   9   1
M  END
> <PUBCHEM_COMPOUND_CID>
2732795

> <PUBCHEM_CONFORMER_RMSD>
0.8

> <PUBCHEM_CONFORMER_DIVERSEORDER>
1
9
18
15
17
12
8
6
20
21
14
13
19
11
5
16
7
2
4
10
3

> <PUBCHEM_MMFF94_PARTIAL_CHARGES>
30
1 -0.19
10 -0.9
11 0.28
12 -0.12
13 -0.14
14 0.24
15 0.21
16 0.62
17 0.08
18 0.69
19 0.19
2 -0.36
20 0.3
21 0.3
22 -0.15
23 -0.15
24 -0.15
25 0.28
3 -0.57
35 0.15
36 0.4
37 0.4
38 0.15
39 0.15
4 -0.57
5 -0.52
6 -0.52
7 -0.47
8 -0.42
9 0.8

> <PUBCHEM_EFFECTIVE_ROTOR_COUNT>
5

> <PUBCHEM_PHARMACOPHORE_FEATURES>
10
1 10 cation
1 10 donor
1 2 acceptor
1 3 acceptor
1 4 acceptor
1 5 acceptor
1 5 anion
1 6 acceptor
6 13 17 19 22 23 24 rings
6 7 8 12 15 16 18 rings

> <PUBCHEM_HEAVY_ATOM_COUNT>
25

> <PUBCHEM_ATOM_DEF_STEREO_COUNT>
0

> <PUBCHEM_ATOM_UDEF_STEREO_COUNT>
1

> <PUBCHEM_BOND_DEF_STEREO_COUNT>
0

> <PUBCHEM_BOND_UDEF_STEREO_COUNT>
0

> <PUBCHEM_ISOTOPIC_ATOM_COUNT>
0

> <PUBCHEM_COMPONENT_COUNT>
1

> <PUBCHEM_CACTVS_TAUTO_COUNT>
6

> <PUBCHEM_CONFORMER_ID>
0029B2FB00000001

> <PUBCHEM_MMFF94_ENERGY>
89.6256

> <PUBCHEM_FEATURE_SELFOVERLAP>
50.826

> <PUBCHEM_SHAPE_FINGERPRINT>
10165383 225 18199771218023190049
10863032 1 18059867129543350821
11112241 14 17058334130376943674
12592029 89 18262253109819204410
13134695 92 17124213340179570571
13294875 104 17774426188611116322
133893 2 17978196432055572751
13681431 1 17554042134923301622
13965767 371 17896322415638145077
14178342 30 18335997432140377451
14223421 5 17023457538994971589
15238133 3 16910043851452041033
16945 1 18196650915550007285
18186145 218 17703518752281121824
18981168 100 18044087948052723085
19765921 60 17489575758204975081
20600515 1 16899850738121598963
22112679 90 17824818086195813150
22149856 69 17901685783064209825
23175994 123 17408808722458533263
23419403 2 17545573696582331770
23559900 14 17898580769956214431
25 1 17203895166777293728
2748010 2 17825402786570516277
3286 77 17840302225683638865
3729539 64 18055660342732972606
404807 14 16748222098168980094
495365 180 18055343648850120253
5265222 85 18195269899999264358
5845 1 13986050018691021878
6442390 28 18201163238704667115
7097593 13 16517074117275050857
7364860 26 18126288532303610119
81228 2 17766826604531568286
84936 31 17914606155725272943
90316 7 17385720279692779653
9925002 15 17475803520658933991

> <PUBCHEM_SHAPE_MULTIPOLES>
457.94
5.88
2.88
2.44
0.68
2.67
0.26
-3.7
1.97
0.19
-1.27
-1.55
-0.71
0.68

> <PUBCHEM_SHAPE_SELFOVERLAP>
984.712

> <PUBCHEM_SHAPE_VOLUME>
252.9

> <PUBCHEM_COORDINATE_TYPE>
2
5
10

$$$$
