4097588
  -OEChem-01171809273D

 50 53  0     1  0  0  0  0  0999 V2000
    1.5742   -2.2738    1.8670 O   0  0  0  0  0  0  0  0  0  0  0  0
   -1.6804    0.7923    0.1738 N   0  0  0  0  0  0  0  0  0  0  0  0
   -1.4138    3.2296    0.3498 N   0  0  0  0  0  0  0  0  0  0  0  0
   -3.1399    0.9990   -1.7190 N   0  0  0  0  0  0  0  0  0  0  0  0
   -4.1353    1.1828    0.2178 N   0  0  0  0  0  0  0  0  0  0  0  0
   -4.4242    1.1994   -2.0514 N   0  0  0  0  0  0  0  0  0  0  0  0
    1.8240    3.8307    1.6132 N   0  0  0  0  0  0  0  0  0  0  0  0
   -1.4769   -3.0645    0.0694 C   0  0  0  0  0  0  0  0  0  0  0  0
   -2.1664   -1.6933    0.2218 C   0  0  0  0  0  0  0  0  0  0  0  0
   -0.4955   -3.2554    1.2267 C   0  0  0  0  0  0  0  0  0  0  0  0
   -1.2240   -0.5197    0.4619 C   0  0  0  0  0  0  0  0  0  0  0  0
    0.0237   -0.7297    0.9360 C   0  0  0  0  0  0  0  0  0  0  0  0
    1.0248    0.4058    1.0889 C   0  0  2  0  0  0  0  0  0  0  0  0
    0.4661   -2.0987    1.3597 C   0  0  0  0  0  0  0  0  0  0  0  0
   -2.5428   -4.1745    0.1215 C   0  0  0  0  0  0  0  0  0  0  0  0
   -0.7487   -3.1669   -1.2873 C   0  0  0  0  0  0  0  0  0  0  0  0
    0.3771    1.7846    0.9392 C   0  0  0  0  0  0  0  0  0  0  0  0
   -0.8977    1.9486    0.4837 C   0  0  0  0  0  0  0  0  0  0  0  0
    2.2544    0.2447    0.1813 C   0  0  0  0  0  0  0  0  0  0  0  0
   -2.9889    0.9928   -0.3739 C   0  0  0  0  0  0  0  0  0  0  0  0
    3.5114    0.0786    0.7502 C   0  0  0  0  0  0  0  0  0  0  0  0
    2.0968    0.2665   -1.1992 C   0  0  0  0  0  0  0  0  0  0  0  0
    1.1772    2.9160    1.3120 C   0  0  0  0  0  0  0  0  0  0  0  0
    4.6273   -0.0680   -0.0737 C   0  0  0  0  0  0  0  0  0  0  0  0
    3.2128    0.1200   -2.0231 C   0  0  0  0  0  0  0  0  0  0  0  0
    4.4781   -0.0472   -1.4604 C   0  0  0  0  0  0  0  0  0  0  0  0
   -4.9845    1.3046   -0.8446 C   0  0  0  0  0  0  0  0  0  0  0  0
    5.6711   -0.2044   -2.3412 C   0  0  0  0  0  0  0  0  0  0  0  0
   -2.8756   -1.7211    1.0605 H   0  0  0  0  0  0  0  0  0  0  0  0
   -2.7608   -1.5332   -0.6850 H   0  0  0  0  0  0  0  0  0  0  0  0
    0.0884   -4.1721    1.0789 H   0  0  0  0  0  0  0  0  0  0  0  0
   -1.0255   -3.3470    2.1828 H   0  0  0  0  0  0  0  0  0  0  0  0
    1.3655    0.3593    2.1354 H   0  0  0  0  0  0  0  0  0  0  0  0
   -2.0864   -5.1660    0.0236 H   0  0  0  0  0  0  0  0  0  0  0  0
   -3.0923   -4.1548    1.0694 H   0  0  0  0  0  0  0  0  0  0  0  0
   -3.2728   -4.0603   -0.6879 H   0  0  0  0  0  0  0  0  0  0  0  0
   -0.2657   -4.1443   -1.3995 H   0  0  0  0  0  0  0  0  0  0  0  0
   -1.4525   -3.0493   -2.1191 H   0  0  0  0  0  0  0  0  0  0  0  0
    0.0266   -2.4039   -1.4063 H   0  0  0  0  0  0  0  0  0  0  0  0
    3.6424    0.0609    1.8284 H   0  0  0  0  0  0  0  0  0  0  0  0
    1.1190    0.3944   -1.6549 H   0  0  0  0  0  0  0  0  0  0  0  0
   -2.3675    3.3556    0.0375 H   0  0  0  0  0  0  0  0  0  0  0  0
   -0.8567    4.0437    0.5735 H   0  0  0  0  0  0  0  0  0  0  0  0
   -2.4483    0.8781   -2.4494 H   0  0  0  0  0  0  0  0  0  0  0  0
    5.6076   -0.1994    0.3767 H   0  0  0  0  0  0  0  0  0  0  0  0
    3.0832    0.1356   -3.1021 H   0  0  0  0  0  0  0  0  0  0  0  0
   -6.0452    1.4749   -0.7357 H   0  0  0  0  0  0  0  0  0  0  0  0
    5.5398    0.3365   -3.2846 H   0  0  0  0  0  0  0  0  0  0  0  0
    6.5708    0.1988   -1.8638 H   0  0  0  0  0  0  0  0  0  0  0  0
    5.8366   -1.2631   -2.5639 H   0  0  0  0  0  0  0  0  0  0  0  0
  1 14  2  0  0  0  0
  2 11  1  0  0  0  0
  2 18  1  0  0  0  0
  2 20  1  0  0  0  0
  3 18  1  0  0  0  0
  3 42  1  0  0  0  0
  3 43  1  0  0  0  0
  4  6  1  0  0  0  0
  4 20  1  0  0  0  0
  4 44  1  0  0  0  0
  5 20  2  0  0  0  0
  5 27  1  0  0  0  0
  6 27  2  0  0  0  0
  7 23  3  0  0  0  0
  8  9  1  0  0  0  0
  8 10  1  0  0  0  0
  8 15  1  0  0  0  0
  8 16  1  0  0  0  0
  9 11  1  0  0  0  0
  9 29  1  0  0  0  0
  9 30  1  0  0  0  0
 10 14  1  0  0  0  0
 10 31  1  0  0  0  0
 10 32  1  0  0  0  0
 11 12  2  0  0  0  0
 12 13  1  0  0  0  0
 12 14  1  0  0  0  0
 13 17  1  0  0  0  0
 13 19  1  0  0  0  0
 13 33  1  0  0  0  0
 15 34  1  0  0  0  0
 15 35  1  0  0  0  0
 15 36  1  0  0  0  0
 16 37  1  0  0  0  0
 16 38  1  0  0  0  0
 16 39  1  0  0  0  0
 17 18  2  0  0  0  0
 17 23  1  0  0  0  0
 19 21  2  0  0  0  0
 19 22  1  0  0  0  0
 21 24  1  0  0  0  0
 21 40  1  0  0  0  0
 22 25  2  0  0  0  0
 22 41  1  0  0  0  0
 24 26  2  0  0  0  0
 24 45  1  0  0  0  0
 25 26  1  0  0  0  0
 25 46  1  0  0  0  0
 26 28  1  0  0  0  0
 27 47  1  0  0  0  0
 28 48  1  0  0  0  0
 28 49  1  0  0  0  0
 28 50  1  0  0  0  0
M  END
> <PUBCHEM_COMPOUND_CID>
4097588

> <PUBCHEM_CONFORMER_RMSD>
0.8

> <PUBCHEM_CONFORMER_DIVERSEORDER>
2
3
4
1

> <PUBCHEM_MMFF94_PARTIAL_CHARGES>
33
1 -0.57
10 0.06
11 -0.04
12 -0.12
13 0.42
14 0.49
17 -0.07
18 0.2
19 -0.14
2 -0.28
20 0.27
21 -0.15
22 -0.15
23 0.49
24 -0.15
25 -0.15
26 -0.14
27 0.37
28 0.14
3 -0.9
4 0.3
40 0.15
41 0.15
42 0.4
43 0.4
44 0.27
45 0.15
46 0.15
47 0.15
5 -0.57
6 -0.71
7 -0.56
9 0.14

> <PUBCHEM_EFFECTIVE_ROTOR_COUNT>
3

> <PUBCHEM_PHARMACOPHORE_FEATURES>
11
1 1 acceptor
1 3 cation
1 3 donor
1 4 donor
1 7 acceptor
3 8 15 16 hydrophobe
4 2 4 5 20 cation
5 4 5 6 20 27 rings
6 19 21 22 24 25 26 rings
6 2 11 12 13 17 18 rings
6 8 9 10 11 12 14 rings

> <PUBCHEM_HEAVY_ATOM_COUNT>
28

> <PUBCHEM_ATOM_DEF_STEREO_COUNT>
0

> <PUBCHEM_ATOM_UDEF_STEREO_COUNT>
1

> <PUBCHEM_BOND_DEF_STEREO_COUNT>
0

> <PUBCHEM_BOND_UDEF_STEREO_COUNT>
0

> <PUBCHEM_ISOTOPIC_ATOM_COUNT>
0

> <PUBCHEM_COMPONENT_COUNT>
1

> <PUBCHEM_CACTVS_TAUTO_COUNT>
30

> <PUBCHEM_CONFORMER_ID>
003E863400000002

> <PUBCHEM_MMFF94_ENERGY>
82.405

> <PUBCHEM_FEATURE_SELFOVERLAP>
55.839

> <PUBCHEM_SHAPE_FINGERPRINT>
10165383 225 18187654570221286869
10190108 129 18267889206972083993
10674148 151 17559967519328805504
10906281 52 18131074857107606856
1100329 8 18266154249550570945
11445158 3 17465432712101008801
11578080 2 18191028013466181388
12293681 160 18338242574596700016
12293681 25 17917446306298317886
12714826 92 18190480426378227306
12788726 201 18127981810681338016
13140716 1 18193817439884162233
13149001 5 18341894146763980800
133893 2 17464551797032849266
13540713 4 18125435555998672545
14790565 3 18196376918402256833
15463212 79 17894916256387780036
16752209 62 18267584611415739488
17492 54 18335417924792585349
19319366 153 17968370161041484539
19958102 18 18193009131914238662
20511986 3 18040430015265560628
20600515 1 18271224089467078512
20775438 99 17841400895028457263
21344244 181 18060142020356952599
22182313 1 18054785349760783184
22393880 68 18269531928645815613
22907989 373 17982490120094487716
23419403 2 17984996030994222913
23557571 272 18196372735346216200
23559900 14 18413392051683258800
23566358 2 18052810631230306449
2748010 2 18194676197146488921
3178227 256 18337403673205592089
394222 165 17605835815576092506
57527306 92 16008753515202039124
6669772 16 18268410482034340208
70251023 43 17839453737203684223
7288768 16 13986659384741530116
7399639 24 17263838586387057592
81228 2 17756421926493257363
9709674 26 18128245894939873721

> <PUBCHEM_SHAPE_MULTIPOLES>
540.47
8.29
4.4
1.92
4.14
1.69
0.67
-1.93
6.37
-3.5
-1.7
1.18
-0.12
1.46

> <PUBCHEM_SHAPE_SELFOVERLAP>
1182.429

> <PUBCHEM_SHAPE_VOLUME>
287.3

> <PUBCHEM_COORDINATE_TYPE>
2
5
10

$$$$
