727588
  -OEChem-01171809483D

 30 33  0     0  0  0  0  0  0999 V2000
   -1.0094   -1.9957   -0.1691 O   0  0  0  0  0  0  0  0  0  0  0  0
   -0.3971    0.2778   -0.0526 N   0  0  0  0  0  0  0  0  0  0  0  0
    1.8492    1.1782   -0.0074 N   0  0  0  0  0  0  0  0  0  0  0  0
    1.6776   -1.0378   -0.0177 N   0  0  0  0  0  0  0  0  0  0  0  0
   -0.8176    1.5871   -0.0899 N   0  0  0  0  0  0  0  0  0  0  0  0
    1.0128    0.0965   -0.0271 C   0  0  0  0  0  0  0  0  0  0  0  0
    3.1383    0.7111    0.0161 C   0  0  0  0  0  0  0  0  0  0  0  0
   -2.7334   -0.4774   -0.0055 C   0  0  0  0  0  0  0  0  0  0  0  0
    3.0045   -0.6746    0.0093 C   0  0  0  0  0  0  0  0  0  0  0  0
   -3.1239    0.8503   -0.0071 C   0  0  0  0  0  0  0  0  0  0  0  0
   -1.2938   -0.8045   -0.0717 C   0  0  0  0  0  0  0  0  0  0  0  0
    4.3723    1.3619    0.0418 C   0  0  0  0  0  0  0  0  0  0  0  0
   -2.0812    1.8543   -0.0708 C   0  0  0  0  0  0  0  0  0  0  0  0
   -3.7105   -1.4761    0.0511 C   0  0  0  0  0  0  0  0  0  0  0  0
    4.1597   -1.4742    0.0292 C   0  0  0  0  0  0  0  0  0  0  0  0
   -4.4672    1.2178    0.0456 C   0  0  0  0  0  0  0  0  0  0  0  0
    5.5115    0.5505    0.0613 C   0  0  0  0  0  0  0  0  0  0  0  0
    5.4093   -0.8425    0.0552 C   0  0  0  0  0  0  0  0  0  0  0  0
   -5.0617   -1.1235    0.1062 C   0  0  0  0  0  0  0  0  0  0  0  0
   -5.4391    0.2207    0.1030 C   0  0  0  0  0  0  0  0  0  0  0  0
    1.5663    2.1490   -0.0096 H   0  0  0  0  0  0  0  0  0  0  0  0
    4.4490    2.4432    0.0465 H   0  0  0  0  0  0  0  0  0  0  0  0
   -2.3873    2.9133   -0.0997 H   0  0  0  0  0  0  0  0  0  0  0  0
   -3.4446   -2.5295    0.0546 H   0  0  0  0  0  0  0  0  0  0  0  0
    4.0909   -2.5574    0.0245 H   0  0  0  0  0  0  0  0  0  0  0  0
   -4.7662    2.2618    0.0428 H   0  0  0  0  0  0  0  0  0  0  0  0
    6.4949    1.0138    0.0816 H   0  0  0  0  0  0  0  0  0  0  0  0
    6.3129   -1.4466    0.0709 H   0  0  0  0  0  0  0  0  0  0  0  0
   -5.8216   -1.8986    0.1508 H   0  0  0  0  0  0  0  0  0  0  0  0
   -6.4908    0.4888    0.1452 H   0  0  0  0  0  0  0  0  0  0  0  0
  1 11  2  0  0  0  0
  2  5  1  0  0  0  0
  2  6  1  0  0  0  0
  2 11  1  0  0  0  0
  3  6  1  0  0  0  0
  3  7  1  0  0  0  0
  3 21  1  0  0  0  0
  4  6  2  0  0  0  0
  4  9  1  0  0  0  0
  5 13  2  0  0  0  0
  7  9  1  0  0  0  0
  7 12  2  0  0  0  0
  8 10  1  0  0  0  0
  8 11  1  0  0  0  0
  8 14  2  0  0  0  0
  9 15  2  0  0  0  0
 10 13  1  0  0  0  0
 10 16  2  0  0  0  0
 12 17  1  0  0  0  0
 12 22  1  0  0  0  0
 13 23  1  0  0  0  0
 14 19  1  0  0  0  0
 14 24  1  0  0  0  0
 15 18  1  0  0  0  0
 15 25  1  0  0  0  0
 16 20  1  0  0  0  0
 16 26  1  0  0  0  0
 17 18  2  0  0  0  0
 17 27  1  0  0  0  0
 18 28  1  0  0  0  0
 19 20  2  0  0  0  0
 19 29  1  0  0  0  0
 20 30  1  0  0  0  0
M  END
> <PUBCHEM_COMPOUND_CID>
727588

> <PUBCHEM_CONFORMER_RMSD>
0.6

> <PUBCHEM_CONFORMER_DIVERSEORDER>
1
2

> <PUBCHEM_MMFF94_PARTIAL_CHARGES>
30
1 -0.57
10 0.09
11 0.54
12 -0.15
13 0.3
14 -0.15
15 -0.15
16 -0.15
17 -0.15
18 -0.15
19 -0.15
2 -0.06
20 -0.15
21 0.27
22 0.15
23 0.06
24 0.15
25 0.15
26 0.15
27 0.15
28 0.15
29 0.15
3 0.03
30 0.15
4 -0.57
5 -0.51
6 0.25
7 -0.15
8 0.09
9 0.23

> <PUBCHEM_EFFECTIVE_ROTOR_COUNT>
1

> <PUBCHEM_PHARMACOPHORE_FEATURES>
7
1 1 acceptor
1 3 donor
1 5 acceptor
5 3 4 6 7 9 rings
6 2 5 8 10 11 13 rings
6 7 9 12 15 17 18 rings
6 8 10 14 16 19 20 rings

> <PUBCHEM_HEAVY_ATOM_COUNT>
20

> <PUBCHEM_ATOM_DEF_STEREO_COUNT>
0

> <PUBCHEM_ATOM_UDEF_STEREO_COUNT>
0

> <PUBCHEM_BOND_DEF_STEREO_COUNT>
0

> <PUBCHEM_BOND_UDEF_STEREO_COUNT>
0

> <PUBCHEM_ISOTOPIC_ATOM_COUNT>
0

> <PUBCHEM_COMPONENT_COUNT>
1

> <PUBCHEM_CACTVS_TAUTO_COUNT>
1

> <PUBCHEM_CONFORMER_ID>
000B1A2400000001

> <PUBCHEM_MMFF94_ENERGY>
53.4191

> <PUBCHEM_FEATURE_SELFOVERLAP>
35.655

> <PUBCHEM_SHAPE_FINGERPRINT>
10 15 18338788023085885048
10595046 47 18409730681461088456
10968037 39 18335140911901682485
11315181 36 18272373074437774360
11578080 2 16843307154810351138
12107183 9 17689152305692837282
12236239 1 17967251992106915668
12403259 415 18341603815496322496
13167823 11 18409445873547681586
13288520 33 18411420605231884101
13533116 47 16917072110249813790
13862211 1 18411979191704644319
14251764 18 18272093807997062497
14341114 176 18410016532972492008
15042514 8 18265899232285072547
15196674 1 18410573985151451141
17834072 33 18411136952611789334
17844677 252 18411707577471867192
1813 80 17095244713554801332
19141452 34 18343301500473313175
19489759 90 16732699437577683485
200 152 18131348609479222745
20645477 70 18342178822108590086
21236236 1 18341612577983869769
21267235 1 18410581673559811294
2297311 6 18271817804223429844
23402539 116 18342451560820731167
23559900 14 18412820317656781432
239999 70 18272093773632497790
26918003 58 18040716991167021227
3004659 81 18335140865490615326
335352 9 18410855438679719021
34797466 226 17775014530785939220
350125 39 18410857659373496124
351380 180 18410855464423142122
3545911 37 18411419514516042604
4073 2 18041003985556866530
4214541 1 18410573959403038697
474 4 17313955259101166924
474229 33 18413107264448142375
5104073 3 18411418401607745976
542803 24 18411136939420951752
59755656 215 18341337704218958198
59755656 520 17022901263536929475
67856867 119 18189056554683831716
69090 78 18412542110975934095
7495541 125 17988920102447714392
77779 3 18410856551313683520
9709674 26 18411426098427120590

> <PUBCHEM_SHAPE_MULTIPOLES>
385.8
13.09
1.81
0.6
3.44
0
0
0.74
-0.56
-0.4
0.03
-0.01
0
0.03

> <PUBCHEM_SHAPE_SELFOVERLAP>
876.313

> <PUBCHEM_SHAPE_VOLUME>
199.1

> <PUBCHEM_COORDINATE_TYPE>
2
5
10

$$$$
