665346
  -OEChem-01171809163D

 47 50  0     0  0  0  0  0  0999 V2000
    1.6737    0.1803    0.4501 S   0  0  0  0  0  0  0  0  0  0  0  0
   -0.4775   -2.3116    0.0959 O   0  0  0  0  0  0  0  0  0  0  0  0
   -6.3057   -0.5916   -1.1955 O   0  0  0  0  0  0  0  0  0  0  0  0
   -1.0320    0.4995    0.4627 N   0  0  0  0  0  0  0  0  0  0  0  0
   -1.3490    2.0816   -1.0152 N   0  0  0  0  0  0  0  0  0  0  0  0
    0.0057    1.8286   -0.9317 N   0  0  0  0  0  0  0  0  0  0  0  0
    9.3805   -0.6620    0.3477 N   0  0  0  0  0  0  0  0  0  0  0  0
   -1.2963   -0.5119    1.4613 C   0  0  0  0  0  0  0  0  0  0  0  0
   -1.9538    1.2752   -0.1723 C   0  0  0  0  0  0  0  0  0  0  0  0
    0.1391    0.8946   -0.0528 C   0  0  0  0  0  0  0  0  0  0  0  0
   -3.3753    1.2007    0.0634 C   0  0  0  0  0  0  0  0  0  0  0  0
   -1.5123   -1.8556    0.8219 C   0  0  0  0  0  0  0  0  0  0  0  0
   -4.1629    0.3308   -0.6904 C   0  0  0  0  0  0  0  0  0  0  0  0
    2.8148    1.1331   -0.5976 C   0  0  0  0  0  0  0  0  0  0  0  0
   -3.9612    1.9980    1.0465 C   0  0  0  0  0  0  0  0  0  0  0  0
   -2.5625   -2.7072    0.8358 C   0  0  0  0  0  0  0  0  0  0  0  0
    4.2396    0.7432   -0.3925 C   0  0  0  0  0  0  0  0  0  0  0  0
   -5.5368    0.2581   -0.4609 C   0  0  0  0  0  0  0  0  0  0  0  0
   -5.3350    1.9254    1.2760 C   0  0  0  0  0  0  0  0  0  0  0  0
   -6.1228    1.0553    0.5223 C   0  0  0  0  0  0  0  0  0  0  0  0
   -2.1548   -3.8070    0.0437 C   0  0  0  0  0  0  0  0  0  0  0  0
   -0.8795   -3.5182   -0.3831 C   0  0  0  0  0  0  0  0  0  0  0  0
    4.8036   -0.2717   -1.1655 C   0  0  0  0  0  0  0  0  0  0  0  0
    5.0086    1.3945    0.5718 C   0  0  0  0  0  0  0  0  0  0  0  0
    6.1366   -0.6354   -0.9741 C   0  0  0  0  0  0  0  0  0  0  0  0
    6.3416    1.0311    0.7630 C   0  0  0  0  0  0  0  0  0  0  0  0
    6.9056    0.0161   -0.0100 C   0  0  0  0  0  0  0  0  0  0  0  0
   -7.7028   -0.6162   -0.9077 C   0  0  0  0  0  0  0  0  0  0  0  0
    8.2706   -0.3579    0.1872 C   0  0  0  0  0  0  0  0  0  0  0  0
   -2.1751   -0.2147    2.0429 H   0  0  0  0  0  0  0  0  0  0  0  0
   -0.4603   -0.5535    2.1664 H   0  0  0  0  0  0  0  0  0  0  0  0
    2.6908    2.2023   -0.3867 H   0  0  0  0  0  0  0  0  0  0  0  0
    2.5415    0.9912   -1.6503 H   0  0  0  0  0  0  0  0  0  0  0  0
   -3.7151   -0.2946   -1.4598 H   0  0  0  0  0  0  0  0  0  0  0  0
   -3.3603    2.6806    1.6428 H   0  0  0  0  0  0  0  0  0  0  0  0
   -3.5081   -2.5751    1.3414 H   0  0  0  0  0  0  0  0  0  0  0  0
   -5.7903    2.5464    2.0420 H   0  0  0  0  0  0  0  0  0  0  0  0
   -7.1826    1.0489    0.7529 H   0  0  0  0  0  0  0  0  0  0  0  0
   -2.7200   -4.6982   -0.1877 H   0  0  0  0  0  0  0  0  0  0  0  0
   -0.1613   -4.0388   -0.9997 H   0  0  0  0  0  0  0  0  0  0  0  0
    4.2152   -0.7880   -1.9195 H   0  0  0  0  0  0  0  0  0  0  0  0
    4.5814    2.1864    1.1815 H   0  0  0  0  0  0  0  0  0  0  0  0
    6.5618   -1.4289   -1.5840 H   0  0  0  0  0  0  0  0  0  0  0  0
    6.9282    1.5477    1.5191 H   0  0  0  0  0  0  0  0  0  0  0  0
   -8.1736    0.3506   -1.1157 H   0  0  0  0  0  0  0  0  0  0  0  0
   -7.8973   -0.9616    0.1133 H   0  0  0  0  0  0  0  0  0  0  0  0
   -8.1593   -1.3460   -1.5843 H   0  0  0  0  0  0  0  0  0  0  0  0
  1 10  1  0  0  0  0
  1 14  1  0  0  0  0
  2 12  1  0  0  0  0
  2 22  1  0  0  0  0
  3 18  1  0  0  0  0
  3 28  1  0  0  0  0
  4  8  1  0  0  0  0
  4  9  1  0  0  0  0
  4 10  1  0  0  0  0
  5  6  1  0  0  0  0
  5  9  2  0  0  0  0
  6 10  2  0  0  0  0
  7 29  3  0  0  0  0
  8 12  1  0  0  0  0
  8 30  1  0  0  0  0
  8 31  1  0  0  0  0
  9 11  1  0  0  0  0
 11 13  2  0  0  0  0
 11 15  1  0  0  0  0
 12 16  2  0  0  0  0
 13 18  1  0  0  0  0
 13 34  1  0  0  0  0
 14 17  1  0  0  0  0
 14 32  1  0  0  0  0
 14 33  1  0  0  0  0
 15 19  2  0  0  0  0
 15 35  1  0  0  0  0
 16 21  1  0  0  0  0
 16 36  1  0  0  0  0
 17 23  2  0  0  0  0
 17 24  1  0  0  0  0
 18 20  2  0  0  0  0
 19 20  1  0  0  0  0
 19 37  1  0  0  0  0
 20 38  1  0  0  0  0
 21 22  2  0  0  0  0
 21 39  1  0  0  0  0
 22 40  1  0  0  0  0
 23 25  1  0  0  0  0
 23 41  1  0  0  0  0
 24 26  2  0  0  0  0
 24 42  1  0  0  0  0
 25 27  2  0  0  0  0
 25 43  1  0  0  0  0
 26 27  1  0  0  0  0
 26 44  1  0  0  0  0
 27 29  1  0  0  0  0
 28 45  1  0  0  0  0
 28 46  1  0  0  0  0
 28 47  1  0  0  0  0
M  END
> <PUBCHEM_COMPOUND_CID>
665346

> <PUBCHEM_CONFORMER_RMSD>
0.8

> <PUBCHEM_CONFORMER_DIVERSEORDER>
1
71
222
138
181
140
265
145
122
232
65
196
269
124
137
248
235
157
204
188
5
219
64
148
158
213
154
257
68
173
261
163
125
58
231
255
153
141
247
198
236
252
166
246
270
221
147
54
190
4
113
264
112
208
239
45
211
186
268
24
240
171
77
72
17
114
200
191
178
227
55
56
134
25
258
256
48
177
151
179
155
217
245
172
197
146
220
121
53
193
229
210
250
15
103
160
234
226
175
74
187
69
266
105
215
11
165
183
228
170
199
26
195
132
267
111
96
233
89
90
123
43
218
189
13
7
230
224
161
135
120
271
133
86
39
254
203
97
20
152
82
42
169
92
14
238
249
162
57
237
206
10
167
40
180
205
149
27
263
75
67
33
253
168
251
106
44
8
129
260
242
100
184
142
159
37
94
66
185
95
243
61
156
209
201
91
174
107
207
101
93
98
127
70
29
150
223
88
244
119
12
212
225
52
19
60
18
36
62
102
259
87
31
216
28
131
164
51
182
38
139
81
6
136
116
63
73
3
202
78
214
108
128
76
192
35
34
130
2
59
9
143
85
23
126
50
176
104
49
118
99
47
144
32
21
109
115
241
110
46
16
79
117
262
80
194
22
30
41
83
84

> <PUBCHEM_MMFF94_PARTIAL_CHARGES>
40
1 -0.29
10 0.24
11 0.05
12 -0.04
13 -0.15
14 0.37
15 -0.15
16 -0.15
17 -0.14
18 0.08
19 -0.15
2 -0.28
20 -0.15
21 -0.15
22 -0.01
23 -0.15
24 -0.15
25 -0.15
26 -0.15
27 0.07
28 0.28
29 0.48
3 -0.36
34 0.15
35 0.15
36 0.15
37 0.15
38 0.15
39 0.15
4 0.05
40 0.15
41 0.15
42 0.15
43 0.15
44 0.15
5 -0.34
6 -0.34
7 -0.56
8 0.44
9 0.13

> <PUBCHEM_EFFECTIVE_ROTOR_COUNT>
7

> <PUBCHEM_PHARMACOPHORE_FEATURES>
9
1 2 acceptor
1 3 acceptor
1 7 acceptor
3 4 5 9 cation
3 4 6 10 cation
5 2 12 16 21 22 rings
5 4 5 6 9 10 rings
6 11 13 15 18 19 20 rings
6 17 23 24 25 26 27 rings

> <PUBCHEM_HEAVY_ATOM_COUNT>
29

> <PUBCHEM_ATOM_DEF_STEREO_COUNT>
0

> <PUBCHEM_ATOM_UDEF_STEREO_COUNT>
0

> <PUBCHEM_BOND_DEF_STEREO_COUNT>
0

> <PUBCHEM_BOND_UDEF_STEREO_COUNT>
0

> <PUBCHEM_ISOTOPIC_ATOM_COUNT>
0

> <PUBCHEM_COMPONENT_COUNT>
1

> <PUBCHEM_CACTVS_TAUTO_COUNT>
1

> <PUBCHEM_CONFORMER_ID>
000A270200000001

> <PUBCHEM_MMFF94_ENERGY>
66.1546

> <PUBCHEM_FEATURE_SELFOVERLAP>
48.251

> <PUBCHEM_SHAPE_FINGERPRINT>
10050765 1 18193841672575117564
10119406 146 18336271154342974714
10835480 77 18270397325875120232
11524674 6 18060419114582714846
12498461 61 18409439268827386794
12643181 29 18409448094726229866
13073987 5 10447663374777962460
13947920 75 18409442609425271355
14866123 147 18336271253143027667
15021287 119 17168150069406754877
15131766 46 14492477597455602302
15183329 4 18261107478626459986
15537594 2 17531245054923739040
15849732 13 17458062681337665757
18681886 176 18335975463593999337
20721686 56 18261115131921195202
23559900 14 18268987764262434624
23569917 315 18335426793953682715
23569943 247 18052544274697356922
23576562 1 17314232344510291573
249057 3 18259987098106150572
335352 9 18334576862985324796
3383291 50 18412267272140947043
4015057 19 17988071313557022776
4017518 198 18343304751948764214
4073 2 18341050817936297490
444769 64 18334297578035883155
5080951 261 18193250062204274918
5085150 59 18272365387064103438
5104073 3 10735338471650603140
559249 180 18261113002033757866
59521270 166 17967809401647809212
59755656 520 18410571781833228295
6669772 16 18187649042129463259

> <PUBCHEM_SHAPE_MULTIPOLES>
568.99
21.9
3.03
1.14
32.92
3.46
-0.04
-2.31
1.31
-3.65
-0.32
-0.61
-0.11
-0.34

> <PUBCHEM_SHAPE_SELFOVERLAP>
1232.102

> <PUBCHEM_SHAPE_VOLUME>
313.9

> <PUBCHEM_COORDINATE_TYPE>
2
5
10

$$$$
