1090196
  -OEChem-01171809413D

 45 47  0     0  0  0  0  0  0999 V2000
   -2.2065    2.7403    0.0557 Cl  0  0  0  0  0  0  0  0  0  0  0  0
    4.6052    0.2077    0.0380 O   0  0  0  0  0  0  0  0  0  0  0  0
    2.4079   -2.4914   -0.1446 O   0  0  0  0  0  0  0  0  0  0  0  0
    7.8586    1.4747    0.1877 O   0  5  0  0  0  0  0  0  0  0  0  0
    5.8977    2.4709    0.1954 O   0  0  0  0  0  0  0  0  0  0  0  0
   -6.4850   -0.1147   -0.2053 N   0  0  0  0  0  0  0  0  0  0  0  0
   -3.6363    0.0478   -0.0711 N   0  0  0  0  0  0  0  0  0  0  0  0
    1.9739   -0.1827   -0.0465 N   0  0  0  0  0  0  0  0  0  0  0  0
    6.5947    1.4150    0.1536 N   0  3  0  0  0  0  0  0  0  0  0  0
   -5.8044   -0.0536    1.0939 C   0  0  0  0  0  0  0  0  0  0  0  0
   -5.7386    0.6693   -1.1973 C   0  0  0  0  0  0  0  0  0  0  0  0
   -4.3850   -0.6188    0.9988 C   0  0  0  0  0  0  0  0  0  0  0  0
   -4.3178    0.1272   -1.3692 C   0  0  0  0  0  0  0  0  0  0  0  0
   -7.8571    0.3779   -0.0894 C   0  0  0  0  0  0  0  0  0  0  0  0
   -2.2373    0.0147   -0.0638 C   0  0  0  0  0  0  0  0  0  0  0  0
   -8.6664   -0.4734    0.8742 C   0  0  0  0  0  0  0  0  0  0  0  0
   -1.4535    1.1868   -0.0078 C   0  0  0  0  0  0  0  0  0  0  0  0
   -1.5660   -1.2243   -0.1137 C   0  0  0  0  0  0  0  0  0  0  0  0
   -0.0602    1.1214   -0.0020 C   0  0  0  0  0  0  0  0  0  0  0  0
   -0.1727   -1.2896   -0.1079 C   0  0  0  0  0  0  0  0  0  0  0  0
    0.5803   -0.1168   -0.0522 C   0  0  0  0  0  0  0  0  0  0  0  0
    2.7836   -1.3252   -0.0914 C   0  0  0  0  0  0  0  0  0  0  0  0
    4.2474   -1.0712   -0.0424 C   0  0  0  0  0  0  0  0  0  0  0  0
    5.2598   -1.9400   -0.0670 C   0  0  0  0  0  0  0  0  0  0  0  0
    6.4147   -1.1250    0.0060 C   0  0  0  0  0  0  0  0  0  0  0  0
    5.9631    0.1728    0.0681 C   0  0  0  0  0  0  0  0  0  0  0  0
   -6.3182   -0.6551    1.8502 H   0  0  0  0  0  0  0  0  0  0  0  0
   -5.7647    0.9798    1.4643 H   0  0  0  0  0  0  0  0  0  0  0  0
   -5.6945    1.7266   -0.9026 H   0  0  0  0  0  0  0  0  0  0  0  0
   -6.2421    0.6223   -2.1705 H   0  0  0  0  0  0  0  0  0  0  0  0
   -3.8821   -0.4702    1.9624 H   0  0  0  0  0  0  0  0  0  0  0  0
   -4.4233   -1.6987    0.8072 H   0  0  0  0  0  0  0  0  0  0  0  0
   -4.3453   -0.8697   -1.8275 H   0  0  0  0  0  0  0  0  0  0  0  0
   -3.7712    0.7873   -2.0539 H   0  0  0  0  0  0  0  0  0  0  0  0
   -7.8896    1.4280    0.2276 H   0  0  0  0  0  0  0  0  0  0  0  0
   -8.3420    0.3211   -1.0719 H   0  0  0  0  0  0  0  0  0  0  0  0
   -8.5448   -1.5430    0.6714 H   0  0  0  0  0  0  0  0  0  0  0  0
   -8.4125   -0.2788    1.9205 H   0  0  0  0  0  0  0  0  0  0  0  0
   -9.7310   -0.2393    0.7624 H   0  0  0  0  0  0  0  0  0  0  0  0
   -2.1334   -2.1515   -0.1635 H   0  0  0  0  0  0  0  0  0  0  0  0
    0.5292    2.0350    0.0416 H   0  0  0  0  0  0  0  0  0  0  0  0
    0.2476   -2.2843   -0.1502 H   0  0  0  0  0  0  0  0  0  0  0  0
    2.4531    0.7143   -0.0004 H   0  0  0  0  0  0  0  0  0  0  0  0
    5.2204   -3.0178   -0.1284 H   0  0  0  0  0  0  0  0  0  0  0  0
    7.4456   -1.4501    0.0123 H   0  0  0  0  0  0  0  0  0  0  0  0
  1 17  1  0  0  0  0
  2 23  1  0  0  0  0
  2 26  1  0  0  0  0
  3 22  2  0  0  0  0
  4  9  1  0  0  0  0
  5  9  2  0  0  0  0
  6 10  1  0  0  0  0
  6 11  1  0  0  0  0
  6 14  1  0  0  0  0
  7 12  1  0  0  0  0
  7 13  1  0  0  0  0
  7 15  1  0  0  0  0
  8 21  1  0  0  0  0
  8 22  1  0  0  0  0
  8 43  1  0  0  0  0
  9 26  1  0  0  0  0
 10 12  1  0  0  0  0
 10 27  1  0  0  0  0
 10 28  1  0  0  0  0
 11 13  1  0  0  0  0
 11 29  1  0  0  0  0
 11 30  1  0  0  0  0
 12 31  1  0  0  0  0
 12 32  1  0  0  0  0
 13 33  1  0  0  0  0
 13 34  1  0  0  0  0
 14 16  1  0  0  0  0
 14 35  1  0  0  0  0
 14 36  1  0  0  0  0
 15 17  2  0  0  0  0
 15 18  1  0  0  0  0
 16 37  1  0  0  0  0
 16 38  1  0  0  0  0
 16 39  1  0  0  0  0
 17 19  1  0  0  0  0
 18 20  2  0  0  0  0
 18 40  1  0  0  0  0
 19 21  2  0  0  0  0
 19 41  1  0  0  0  0
 20 21  1  0  0  0  0
 20 42  1  0  0  0  0
 22 23  1  0  0  0  0
 23 24  2  0  0  0  0
 24 25  1  0  0  0  0
 24 44  1  0  0  0  0
 25 26  2  0  0  0  0
 25 45  1  0  0  0  0
M  CHG  2   4  -1   9   1
M  END
> <PUBCHEM_COMPOUND_CID>
1090196

> <PUBCHEM_CONFORMER_RMSD>
0.8

> <PUBCHEM_CONFORMER_DIVERSEORDER>
1
48
22
42
11
32
20
3
26
7
47
33
40
52
54
34
14
35
55
38
10
9
29
8
28
27
53
46
44
13
12
21
25
5
15
51
18
45
31
50
30
19
6
17
49
41
36
4
24
23
39
16
37
43
2

> <PUBCHEM_MMFF94_PARTIAL_CHARGES>
31
1 -0.18
10 0.27
11 0.27
12 0.37
13 0.37
14 0.27
15 0.1
17 0.18
18 -0.15
19 -0.15
2 -0.28
20 -0.15
21 0.12
22 0.71
23 0.05
24 -0.15
25 -0.15
26 0.22
3 -0.57
4 -0.52
40 0.15
41 0.15
42 0.15
43 0.37
44 0.15
45 0.15
5 -0.52
6 -0.81
7 -0.84
8 -0.55
9 0.96

> <PUBCHEM_EFFECTIVE_ROTOR_COUNT>
7.2

> <PUBCHEM_PHARMACOPHORE_FEATURES>
11
1 2 acceptor
1 3 acceptor
1 4 acceptor
1 4 anion
1 5 acceptor
1 6 cation
1 7 cation
1 8 donor
5 2 23 24 25 26 rings
6 15 17 18 19 20 21 rings
6 6 7 10 11 12 13 rings

> <PUBCHEM_HEAVY_ATOM_COUNT>
26

> <PUBCHEM_ATOM_DEF_STEREO_COUNT>
0

> <PUBCHEM_ATOM_UDEF_STEREO_COUNT>
0

> <PUBCHEM_BOND_DEF_STEREO_COUNT>
0

> <PUBCHEM_BOND_UDEF_STEREO_COUNT>
0

> <PUBCHEM_ISOTOPIC_ATOM_COUNT>
0

> <PUBCHEM_COMPONENT_COUNT>
1

> <PUBCHEM_CACTVS_TAUTO_COUNT>
2

> <PUBCHEM_CONFORMER_ID>
0010A29400000001

> <PUBCHEM_MMFF94_ENERGY>
73.7489

> <PUBCHEM_FEATURE_SELFOVERLAP>
55.914

> <PUBCHEM_SHAPE_FINGERPRINT>
10 15 18040151838338475634
10050765 1 18050568439585373355
10299344 5 17704353260205730743
10638233 991 17703790340290882616
106641 1 18412267263983106987
10835480 77 18261385607755406901
10906281 52 17988937668605621927
11101153 10 18412826880298725033
11638347 137 16950556663279094602
12236239 1 17775566416834806543
12516196 113 18412262822517261781
13073987 5 17386561354584810835
13533116 47 18130785621356788618
13685833 64 18408325471816078387
13899415 154 17275102838295088338
14123256 10 18342174466652646332
14170010 4 18260268559797058852
14251764 18 17775284963459253657
14251764 46 18343865503057744618
14840074 17 18060131042235161095
14849402 71 18201722894529358697
14856354 85 16128654176395976965
15183329 4 16200434680022567986
15419008 47 17749102292672295253
15716309 27 18131068212808478159
15849732 13 18259985976840137815
16120349 18 18413105091411020273
17844677 252 18269843030211572124
18006028 8 18412826868119996729
18608769 82 18334295401162963523
20157964 124 18411417302908753998
21150785 3 18060134358329864103
21236236 1 18269556048971224273
21267235 1 18340491063064413758
21521721 280 18412545418137805547
21792934 111 18340194211935933232
220451 1 16988837263985023103
22224240 67 18259705601480874547
23522609 53 17560256785144447048
23559900 14 18338790225401937025
249057 25 13262685790255365983
249057 3 16009038306489450791
255183 451 17558281925887930222
3009799 131 17894911815476024453
34797466 226 17989492909709633316
350125 39 18342738502959039281
397830 11 17750527345344968858
4073 2 18260270784442957938
4325135 7 18202282502955453564
4340502 62 17095521781922017994
444735 82 18260552238213929012
4463277 17 18411981338955826349
5104073 3 18263079916982847264
5283156 175 12612749121131923019
5758199 1 18060701688912829779
59682541 35 18187088377583180043
6691757 9 16128657471443138255
67123 10 18412544328128579115

> <PUBCHEM_SHAPE_MULTIPOLES>
493.54
23.59
2.05
0.86
2.26
0.79
0.07
2.26
-2.56
-3.07
-0.06
1.4
-0.01
0.86

> <PUBCHEM_SHAPE_SELFOVERLAP>
1042.694

> <PUBCHEM_SHAPE_VOLUME>
278.5

> <PUBCHEM_COORDINATE_TYPE>
2
5
10

$$$$
