649614
  -OEChem-01171809153D

 26 27  0     0  0  0  0  0  0999 V2000
   -2.4535    1.8139   -0.3810 O   0  0  0  0  0  0  0  0  0  0  0  0
    2.9602    2.0934   -0.1620 O   0  0  0  0  0  0  0  0  0  0  0  0
    3.9256    0.0619    0.0866 O   0  0  0  0  0  0  0  0  0  0  0  0
    0.4328    0.9627   -0.1629 N   0  0  0  0  0  0  0  0  0  0  0  0
   -0.2637   -1.1490    0.0194 C   0  0  0  0  0  0  0  0  0  0  0  0
   -0.6932    0.1710   -0.1341 C   0  0  0  0  0  0  0  0  0  0  0  0
    1.1577   -1.1210    0.0818 C   0  0  0  0  0  0  0  0  0  0  0  0
    1.5561    0.1910   -0.0331 C   0  0  0  0  0  0  0  0  0  0  0  0
   -2.0452    0.5188   -0.2314 C   0  0  0  0  0  0  0  0  0  0  0  0
   -1.2289   -2.1737    0.0788 C   0  0  0  0  0  0  0  0  0  0  0  0
    2.0444   -2.2936    0.2407 C   0  0  0  0  0  0  0  0  0  0  0  0
   -2.9846   -0.5144   -0.1695 C   0  0  0  0  0  0  0  0  0  0  0  0
   -2.5850   -1.8407   -0.0168 C   0  0  0  0  0  0  0  0  0  0  0  0
    2.8814    0.7276   -0.0277 C   0  0  0  0  0  0  0  0  0  0  0  0
   -2.7042    2.5521    0.8112 C   0  0  0  0  0  0  0  0  0  0  0  0
    0.4266    1.9684   -0.2650 H   0  0  0  0  0  0  0  0  0  0  0  0
   -0.9382   -3.2134    0.1974 H   0  0  0  0  0  0  0  0  0  0  0  0
    1.4814   -3.2291    0.3109 H   0  0  0  0  0  0  0  0  0  0  0  0
    2.7230   -2.3829   -0.6140 H   0  0  0  0  0  0  0  0  0  0  0  0
    2.6442   -2.2032    1.1524 H   0  0  0  0  0  0  0  0  0  0  0  0
   -4.0453   -0.2852   -0.2418 H   0  0  0  0  0  0  0  0  0  0  0  0
   -3.3340   -2.6269    0.0286 H   0  0  0  0  0  0  0  0  0  0  0  0
   -3.5095    2.0869    1.3886 H   0  0  0  0  0  0  0  0  0  0  0  0
   -3.0140    3.5626    0.5308 H   0  0  0  0  0  0  0  0  0  0  0  0
   -1.7970    2.6210    1.4199 H   0  0  0  0  0  0  0  0  0  0  0  0
    3.8909    2.4036   -0.1514 H   0  0  0  0  0  0  0  0  0  0  0  0
  1  9  1  0  0  0  0
  1 15  1  0  0  0  0
  2 14  1  0  0  0  0
  2 26  1  0  0  0  0
  3 14  2  0  0  0  0
  4  6  1  0  0  0  0
  4  8  1  0  0  0  0
  4 16  1  0  0  0  0
  5  6  2  0  0  0  0
  5  7  1  0  0  0  0
  5 10  1  0  0  0  0
  6  9  1  0  0  0  0
  7  8  2  0  0  0  0
  7 11  1  0  0  0  0
  8 14  1  0  0  0  0
  9 12  2  0  0  0  0
 10 13  2  0  0  0  0
 10 17  1  0  0  0  0
 11 18  1  0  0  0  0
 11 19  1  0  0  0  0
 11 20  1  0  0  0  0
 12 13  1  0  0  0  0
 12 21  1  0  0  0  0
 13 22  1  0  0  0  0
 15 23  1  0  0  0  0
 15 24  1  0  0  0  0
 15 25  1  0  0  0  0
M  END
> <PUBCHEM_COMPOUND_CID>
649614

> <PUBCHEM_CONFORMER_RMSD>
0.6

> <PUBCHEM_CONFORMER_DIVERSEORDER>
1
2

> <PUBCHEM_MMFF94_PARTIAL_CHARGES>
19
1 -0.36
10 -0.15
11 0.18
12 -0.15
13 -0.15
14 0.81
15 0.28
16 0.27
17 0.15
2 -0.65
21 0.15
22 0.15
26 0.5
3 -0.57
4 0.03
6 -0.15
7 -0.18
8 -0.24
9 0.08

> <PUBCHEM_EFFECTIVE_ROTOR_COUNT>
2

> <PUBCHEM_PHARMACOPHORE_FEATURES>
8
1 1 acceptor
1 2 acceptor
1 3 acceptor
1 4 cation
1 4 donor
3 2 3 14 anion
5 4 5 6 7 8 rings
6 5 6 9 10 12 13 rings

> <PUBCHEM_HEAVY_ATOM_COUNT>
15

> <PUBCHEM_ATOM_DEF_STEREO_COUNT>
0

> <PUBCHEM_ATOM_UDEF_STEREO_COUNT>
0

> <PUBCHEM_BOND_DEF_STEREO_COUNT>
0

> <PUBCHEM_BOND_UDEF_STEREO_COUNT>
0

> <PUBCHEM_ISOTOPIC_ATOM_COUNT>
0

> <PUBCHEM_COMPONENT_COUNT>
1

> <PUBCHEM_CACTVS_TAUTO_COUNT>
2

> <PUBCHEM_CONFORMER_ID>
0009E98E00000001

> <PUBCHEM_MMFF94_ENERGY>
37.238

> <PUBCHEM_FEATURE_SELFOVERLAP>
40.747

> <PUBCHEM_SHAPE_FINGERPRINT>
10608611 8 18411697707757956972
108231 29 17759808443491902699
10967382 1 17977945687590359414
12491281 212 18335990787219172704
13140716 1 17977387462190816763
13380535 21 18337399240197636822
13380535 76 18409161121395132854
14325111 11 18336264638845243196
14614273 12 18187352259993934229
14648413 74 18267307529900603890
14897335 6 18337666421639146525
15442244 35 18266173929333547530
16945 1 18338234976393228087
1741750 31 18271526394744705457
18186145 218 18197218040169643837
193761 8 18337953393973854199
20510252 161 18268994369721208008
20525323 117 18409444825549242127
21029758 11 18052532468290617871
21501502 16 18337950099712800170
21524375 3 18198337364940511533
22094290 62 18050568447853411769
2334 1 18409728422229195519
23402539 116 18271800293953156487
23463225 33 18261385676754191714
23559900 14 18272091566324814308
2748010 2 18336829676063262039
3312278 4 18263361554820570579
7364860 26 18340485569674849398
74978 22 18267305330887625023
7832392 63 18267586814665136892

> <PUBCHEM_SHAPE_MULTIPOLES>
286.1
5.41
2.72
0.66
2.27
0.27
0.04
1.81
0.13
-0.95
0.34
-0.16
0.09
-0.44

> <PUBCHEM_SHAPE_SELFOVERLAP>
622.501

> <PUBCHEM_SHAPE_VOLUME>
158.4

> <PUBCHEM_COORDINATE_TYPE>
2
5
10

$$$$
