2121567
  -OEChem-01171809483D

 33 34  0     0  0  0  0  0  0999 V2000
    0.0876   -2.8037   -0.0021 Cl  0  0  0  0  0  0  0  0  0  0  0  0
    6.1004   -0.8409   -0.0157 F   0  0  0  0  0  0  0  0  0  0  0  0
    0.6297   -0.1680    0.0065 N   0  0  0  0  0  0  0  0  0  0  0  0
    0.6433    2.1934    0.0125 N   0  0  0  0  0  0  0  0  0  0  0  0
   -1.3547    0.8628    0.0157 N   0  0  0  0  0  0  0  0  0  0  0  0
   -6.2517   -1.7797    0.0106 N   0  0  0  0  0  0  0  0  0  0  0  0
   -4.1480    2.1502   -0.0341 N   0  0  0  0  0  0  0  0  0  0  0  0
   -0.0507    1.0291    0.0121 C   0  0  0  0  0  0  0  0  0  0  0  0
    2.0021   -0.3369    0.0009 C   0  0  0  0  0  0  0  0  0  0  0  0
   -0.3270   -1.1573    0.0072 C   0  0  0  0  0  0  0  0  0  0  0  0
   -1.5336   -0.4979    0.0134 C   0  0  0  0  0  0  0  0  0  0  0  0
    2.6899   -0.4184   -1.2099 C   0  0  0  0  0  0  0  0  0  0  0  0
    2.6989   -0.4255    1.2060 C   0  0  0  0  0  0  0  0  0  0  0  0
    1.0528    2.8710    1.2549 C   0  0  0  0  0  0  0  0  0  0  0  0
    1.0510    2.8737   -1.2289 C   0  0  0  0  0  0  0  0  0  0  0  0
   -2.8239   -1.0632    0.0190 C   0  0  0  0  0  0  0  0  0  0  0  0
    4.0744   -0.5888   -1.2155 C   0  0  0  0  0  0  0  0  0  0  0  0
    4.0833   -0.5959    1.2004 C   0  0  0  0  0  0  0  0  0  0  0  0
    4.7710   -0.6776   -0.0104 C   0  0  0  0  0  0  0  0  0  0  0  0
   -4.0395   -0.4366   -0.0148 C   0  0  0  0  0  0  0  0  0  0  0  0
   -5.2578   -1.1805   -0.0024 C   0  0  0  0  0  0  0  0  0  0  0  0
   -4.0977    0.9907   -0.0252 C   0  0  0  0  0  0  0  0  0  0  0  0
    2.1607   -0.3506   -2.1573 H   0  0  0  0  0  0  0  0  0  0  0  0
    2.1766   -0.3632    2.1577 H   0  0  0  0  0  0  0  0  0  0  0  0
    0.6212    3.8762    1.2942 H   0  0  0  0  0  0  0  0  0  0  0  0
    0.7138    2.3194    2.1386 H   0  0  0  0  0  0  0  0  0  0  0  0
    2.1437    2.9514    1.2982 H   0  0  0  0  0  0  0  0  0  0  0  0
    2.1419    2.9515   -1.2751 H   0  0  0  0  0  0  0  0  0  0  0  0
    0.7080    2.3257   -2.1133 H   0  0  0  0  0  0  0  0  0  0  0  0
    0.6218    3.8801   -1.2641 H   0  0  0  0  0  0  0  0  0  0  0  0
   -2.8570   -2.1533    0.0409 H   0  0  0  0  0  0  0  0  0  0  0  0
    4.6101   -0.6522   -2.1580 H   0  0  0  0  0  0  0  0  0  0  0  0
    4.6260   -0.6647    2.1385 H   0  0  0  0  0  0  0  0  0  0  0  0
  1 10  1  0  0  0  0
  2 19  1  0  0  0  0
  3  8  1  0  0  0  0
  3  9  1  0  0  0  0
  3 10  1  0  0  0  0
  4  8  1  0  0  0  0
  4 14  1  0  0  0  0
  4 15  1  0  0  0  0
  5  8  2  0  0  0  0
  5 11  1  0  0  0  0
  6 21  3  0  0  0  0
  7 22  3  0  0  0  0
  9 12  2  0  0  0  0
  9 13  1  0  0  0  0
 10 11  2  0  0  0  0
 11 16  1  0  0  0  0
 12 17  1  0  0  0  0
 12 23  1  0  0  0  0
 13 18  2  0  0  0  0
 13 24  1  0  0  0  0
 14 25  1  0  0  0  0
 14 26  1  0  0  0  0
 14 27  1  0  0  0  0
 15 28  1  0  0  0  0
 15 29  1  0  0  0  0
 15 30  1  0  0  0  0
 16 20  2  0  0  0  0
 16 31  1  0  0  0  0
 17 19  2  0  0  0  0
 17 32  1  0  0  0  0
 18 19  1  0  0  0  0
 18 33  1  0  0  0  0
 20 21  1  0  0  0  0
 20 22  1  0  0  0  0
M  END
> <PUBCHEM_COMPOUND_CID>
2121567

> <PUBCHEM_CONFORMER_RMSD>
0.6

> <PUBCHEM_CONFORMER_DIVERSEORDER>
1
9
5
8
4
2
3
6
7

> <PUBCHEM_MMFF94_PARTIAL_CHARGES>
27
1 -0.12
10 -0.03
11 0.18
12 -0.15
13 -0.15
14 0.37
15 0.37
16 -0.1
17 -0.15
18 -0.15
19 0.19
2 -0.19
20 0.13
21 0.49
22 0.49
23 0.15
24 0.15
3 0.33
31 0.15
32 0.15
33 0.15
4 -0.82
5 -0.57
6 -0.56
7 -0.56
8 0.27
9 -0.02

> <PUBCHEM_EFFECTIVE_ROTOR_COUNT>
3

> <PUBCHEM_PHARMACOPHORE_FEATURES>
5
1 6 acceptor
1 7 acceptor
4 3 4 5 8 cation
5 3 5 8 10 11 rings
6 9 12 13 17 18 19 rings

> <PUBCHEM_HEAVY_ATOM_COUNT>
22

> <PUBCHEM_ATOM_DEF_STEREO_COUNT>
0

> <PUBCHEM_ATOM_UDEF_STEREO_COUNT>
0

> <PUBCHEM_BOND_DEF_STEREO_COUNT>
0

> <PUBCHEM_BOND_UDEF_STEREO_COUNT>
0

> <PUBCHEM_ISOTOPIC_ATOM_COUNT>
0

> <PUBCHEM_COMPONENT_COUNT>
1

> <PUBCHEM_CACTVS_TAUTO_COUNT>
1

> <PUBCHEM_CONFORMER_ID>
00205F5F00000001

> <PUBCHEM_MMFF94_ENERGY>
79.5675

> <PUBCHEM_FEATURE_SELFOVERLAP>
25.371

> <PUBCHEM_SHAPE_FINGERPRINT>
10366900 7 18113903788585474155
12236239 1 17894351047524413890
12403259 226 18340763853770317121
12403260 363 18409165554449767551
13140716 1 18195243549747525387
13675066 3 17917989499259323427
13862211 1 18410009940061127267
14790565 3 18408891737046870004
15196674 1 18410855468787090401
1601671 61 18337673009966101617
17804303 29 18411135840299896049
1813 80 18412553102050413444
18222031 100 18412263947461226154
200 152 17240484676482907882
20028762 73 18129940212805962623
20600515 1 18411425016300694324
21033648 29 17131537363410625163
21267235 1 18410299124836209803
21709351 56 18408877456781193095
22182313 1 18116968131128033973
2297311 6 18271533001190234286
23402539 116 18341326713275990478
23557571 272 18271248214672380116
23558518 356 17832979821102231639
23559900 14 18116149055706091345
312423 11 18338248171234387929
3178227 256 18335433404092513251
3286 77 18335136535889242213
335352 9 18410292532594128279
3411729 13 18196363947896467600
34934 24 18267581300190814463
350125 39 18409732885344002157
4340502 62 15267342929262331966
465052 167 18261117417223507107
5104073 3 18268718380404133035
59755656 215 18268714901154140390
7164475 11 17751355084960184220
7364860 26 18128256885740267176
7495541 125 17822296837635846195
81228 2 18196110853952345944
8272917 22 13326866521461469436
8863177 126 17825400832371700235

> <PUBCHEM_SHAPE_MULTIPOLES>
422.44
11.15
2.72
1.03
5.86
1.73
0
-5.07
0.07
0.77
-0.01
-1.13
0.28
0.03

> <PUBCHEM_SHAPE_SELFOVERLAP>
895.957

> <PUBCHEM_SHAPE_VOLUME>
238.8

> <PUBCHEM_COORDINATE_TYPE>
2
5
10

$$$$
