5797751
  -OEChem-01171809223D

 42 44  0     0  0  0  0  0  0999 V2000
    2.7333    3.0121    0.9475 Cl  0  0  0  0  0  0  0  0  0  0  0  0
   -0.9817    2.1448   -2.2203 O   0  0  0  0  0  0  0  0  0  0  0  0
   -0.1007    0.1548    0.6289 N   0  0  0  0  0  0  0  0  0  0  0  0
    0.1363   -1.1124   -2.7824 N   0  0  0  0  0  0  0  0  0  0  0  0
   -0.5968   -4.6226   -0.0777 N   0  0  0  0  0  0  0  0  0  0  0  0
    0.1171    0.8764   -0.5224 C   0  0  0  0  0  0  0  0  0  0  0  0
   -0.2727   -1.2618    0.6419 C   0  0  0  0  0  0  0  0  0  0  0  0
    1.2953    1.1845   -1.0953 C   0  0  0  0  0  0  0  0  0  0  0  0
   -1.0837    1.4451   -1.2170 C   0  0  0  0  0  0  0  0  0  0  0  0
   -0.1583    0.8372    1.8539 C   0  0  0  0  0  0  0  0  0  0  0  0
    2.6114    0.7580   -0.5986 C   0  0  0  0  0  0  0  0  0  0  0  0
   -2.4294    1.1623   -0.6628 C   0  0  0  0  0  0  0  0  0  0  0  0
   -0.4991   -1.8953    1.9554 C   0  0  0  0  0  0  0  0  0  0  0  0
   -0.3646    0.2540    3.0437 C   0  0  0  0  0  0  0  0  0  0  0  0
   -0.5418   -1.1755    3.0879 C   0  0  0  0  0  0  0  0  0  0  0  0
    3.3282    1.5151    0.3188 C   0  0  0  0  0  0  0  0  0  0  0  0
    3.1193   -0.4410   -1.0838 C   0  0  0  0  0  0  0  0  0  0  0  0
   -2.9632    2.0268    0.2724 C   0  0  0  0  0  0  0  0  0  0  0  0
   -3.1100    0.0422   -1.0975 C   0  0  0  0  0  0  0  0  0  0  0  0
   -0.2502   -2.0877   -0.4236 C   0  0  0  0  0  0  0  0  0  0  0  0
    4.5735    1.0664    0.7588 C   0  0  0  0  0  0  0  0  0  0  0  0
    4.3647   -0.8895   -0.6438 C   0  0  0  0  0  0  0  0  0  0  0  0
   -4.2291    1.7603    0.7941 C   0  0  0  0  0  0  0  0  0  0  0  0
   -4.3759   -0.2242   -0.5761 C   0  0  0  0  0  0  0  0  0  0  0  0
    5.0919   -0.1358    0.2775 C   0  0  0  0  0  0  0  0  0  0  0  0
   -4.9355    0.6350    0.3698 C   0  0  0  0  0  0  0  0  0  0  0  0
   -0.0369   -1.5469   -1.7204 C   0  0  0  0  0  0  0  0  0  0  0  0
   -0.4414   -3.4824   -0.2288 C   0  0  0  0  0  0  0  0  0  0  0  0
    1.3588    1.7820   -2.0019 H   0  0  0  0  0  0  0  0  0  0  0  0
   -0.0309    1.9126    1.7823 H   0  0  0  0  0  0  0  0  0  0  0  0
   -0.6416   -2.9632    2.0730 H   0  0  0  0  0  0  0  0  0  0  0  0
   -0.4057    0.8246    3.9631 H   0  0  0  0  0  0  0  0  0  0  0  0
   -0.7091   -1.6460    4.0500 H   0  0  0  0  0  0  0  0  0  0  0  0
    2.6010   -1.0360   -1.8252 H   0  0  0  0  0  0  0  0  0  0  0  0
   -2.4199    2.9066    0.6046 H   0  0  0  0  0  0  0  0  0  0  0  0
   -2.6993   -0.6217   -1.8499 H   0  0  0  0  0  0  0  0  0  0  0  0
    5.1536    1.6414    1.4763 H   0  0  0  0  0  0  0  0  0  0  0  0
    4.7720   -1.8217   -1.0242 H   0  0  0  0  0  0  0  0  0  0  0  0
   -4.6650    2.4296    1.5301 H   0  0  0  0  0  0  0  0  0  0  0  0
   -4.9282   -1.0976   -0.9102 H   0  0  0  0  0  0  0  0  0  0  0  0
    6.0623   -0.4844    0.6186 H   0  0  0  0  0  0  0  0  0  0  0  0
   -5.9218    0.4282    0.7749 H   0  0  0  0  0  0  0  0  0  0  0  0
  1 16  1  0  0  0  0
  2  9  2  0  0  0  0
  3  6  1  0  0  0  0
  3  7  1  0  0  0  0
  3 10  1  0  0  0  0
  4 27  3  0  0  0  0
  5 28  3  0  0  0  0
  6  8  2  0  0  0  0
  6  9  1  0  0  0  0
  7 13  1  0  0  0  0
  7 20  2  0  0  0  0
  8 11  1  0  0  0  0
  8 29  1  0  0  0  0
  9 12  1  0  0  0  0
 10 14  2  0  0  0  0
 10 30  1  0  0  0  0
 11 16  1  0  0  0  0
 11 17  2  0  0  0  0
 12 18  2  0  0  0  0
 12 19  1  0  0  0  0
 13 15  2  0  0  0  0
 13 31  1  0  0  0  0
 14 15  1  0  0  0  0
 14 32  1  0  0  0  0
 15 33  1  0  0  0  0
 16 21  2  0  0  0  0
 17 22  1  0  0  0  0
 17 34  1  0  0  0  0
 18 23  1  0  0  0  0
 18 35  1  0  0  0  0
 19 24  2  0  0  0  0
 19 36  1  0  0  0  0
 20 27  1  0  0  0  0
 20 28  1  0  0  0  0
 21 25  1  0  0  0  0
 21 37  1  0  0  0  0
 22 25  2  0  0  0  0
 22 38  1  0  0  0  0
 23 26  2  0  0  0  0
 23 39  1  0  0  0  0
 24 26  1  0  0  0  0
 24 40  1  0  0  0  0
 25 41  1  0  0  0  0
 26 42  1  0  0  0  0
M  END
> <PUBCHEM_COMPOUND_CID>
5797751

> <PUBCHEM_CONFORMER_RMSD>
0.8

> <PUBCHEM_CONFORMER_DIVERSEORDER>
1
10
11
14
6
9
8
13
3
5
12
7
2
4

> <PUBCHEM_MMFF94_PARTIAL_CHARGES>
42
1 -0.18
10 -0.05
11 0.03
12 0.09
13 -0.15
14 -0.15
15 -0.15
16 0.18
17 -0.15
18 -0.15
19 -0.15
2 -0.57
20 0.13
21 -0.15
22 -0.15
23 -0.15
24 -0.15
25 -0.15
26 -0.15
27 0.49
28 0.49
29 0.15
3 -0.3
30 0.15
31 0.15
32 0.15
33 0.15
34 0.15
35 0.15
36 0.15
37 0.15
38 0.15
39 0.15
4 -0.56
40 0.15
41 0.15
42 0.15
5 -0.56
6 0.11
7 0.1
8 -0.18
9 0.47

> <PUBCHEM_EFFECTIVE_ROTOR_COUNT>
4.2

> <PUBCHEM_PHARMACOPHORE_FEATURES>
7
1 2 acceptor
1 3 cation
1 4 acceptor
1 5 acceptor
6 11 16 17 21 22 25 rings
6 12 18 19 23 24 26 rings
6 3 7 10 13 14 15 rings

> <PUBCHEM_HEAVY_ATOM_COUNT>
28

> <PUBCHEM_ATOM_DEF_STEREO_COUNT>
0

> <PUBCHEM_ATOM_UDEF_STEREO_COUNT>
0

> <PUBCHEM_BOND_DEF_STEREO_COUNT>
1

> <PUBCHEM_BOND_UDEF_STEREO_COUNT>
0

> <PUBCHEM_ISOTOPIC_ATOM_COUNT>
0

> <PUBCHEM_COMPONENT_COUNT>
1

> <PUBCHEM_CACTVS_TAUTO_COUNT>
1

> <PUBCHEM_CONFORMER_ID>
0058777700000001

> <PUBCHEM_MMFF94_ENERGY>
110.7799

> <PUBCHEM_FEATURE_SELFOVERLAP>
35.522

> <PUBCHEM_SHAPE_FINGERPRINT>
10764073 3 12686466900181322867
11370993 70 18272089400426965988
11421498 54 16773238366969313779
11488393 25 17900533489321861859
11578080 2 17911525611928347592
12467345 10 17201089075701127017
12592029 89 18340209566196024674
12788726 201 17684659009618578379
13692114 37 18335994146786010019
14713325 29 15978019042632268768
15209289 33 18410293601371169181
16945 1 18268718392355201717
18769570 83 15123511372104419609
19930381 70 18122621644209332078
20197701 30 18272084972416014695
20567600 347 18114189575387589875
20905425 154 17389650896080044636
22956985 138 17098333095573025843
23419403 2 17323848436519674355
23559900 14 18130504232368925824
3383291 50 18193833739987326082
35225 105 17023180556701394890
394222 165 17844533193107712043
4340502 62 18200607903997105161
469060 322 14476696250810533899
59755656 215 17895473597172195133
81228 2 17752759409863277084

> <PUBCHEM_SHAPE_MULTIPOLES>
557.28
7.71
3.37
2.41
2.07
3.17
-1.22
-3.93
0.24
-0.39
-0.02
-0.49
0.35
0.59

> <PUBCHEM_SHAPE_SELFOVERLAP>
1215.556

> <PUBCHEM_SHAPE_VOLUME>
299.1

> <PUBCHEM_COORDINATE_TYPE>
2
5
10

$$$$
