1256424
  -OEChem-01171810053D

 48 51  0     0  0  0  0  0  0999 V2000
   -7.7754    0.0129    1.6414 S   0  0  0  0  0  0  0  0  0  0  0  0
   -6.9408   -1.4823   -1.3483 O   0  0  0  0  0  0  0  0  0  0  0  0
    6.0620    0.4472   -0.0021 O   0  0  0  0  0  0  0  0  0  0  0  0
    4.0197   -2.2795    0.8496 O   0  0  0  0  0  0  0  0  0  0  0  0
    9.1943    1.9744   -0.2646 O   0  5  0  0  0  0  0  0  0  0  0  0
    7.1699    2.6960   -0.7320 O   0  0  0  0  0  0  0  0  0  0  0  0
   -2.1244   -0.4096   -0.3345 N   0  0  0  0  0  0  0  0  0  0  0  0
   -5.0159   -0.5384   -0.4822 N   0  0  0  0  0  0  0  0  0  0  0  0
    3.4791   -0.1853   -0.0179 N   0  0  0  0  0  0  0  0  0  0  0  0
    7.9439    1.7848   -0.3165 N   0  3  0  0  0  0  0  0  0  0  0  0
   -2.8133   -1.6813   -0.5696 C   0  0  0  0  0  0  0  0  0  0  0  0
   -2.9377    0.8014   -0.1959 C   0  0  0  0  0  0  0  0  0  0  0  0
   -4.1619   -1.4452   -1.2459 C   0  0  0  0  0  0  0  0  0  0  0  0
   -4.3274    0.4602    0.3433 C   0  0  0  0  0  0  0  0  0  0  0  0
   -0.7351   -0.3535   -0.2551 C   0  0  0  0  0  0  0  0  0  0  0  0
   -6.4131   -0.6213   -0.6411 C   0  0  0  0  0  0  0  0  0  0  0  0
   -0.0199    0.7987   -0.6584 C   0  0  0  0  0  0  0  0  0  0  0  0
    0.0195   -1.4471    0.2316 C   0  0  0  0  0  0  0  0  0  0  0  0
   -7.2320    0.3649    0.0600 C   0  0  0  0  0  0  0  0  0  0  0  0
    1.3716    0.8543   -0.5796 C   0  0  0  0  0  0  0  0  0  0  0  0
    1.4111   -1.3912    0.3104 C   0  0  0  0  0  0  0  0  0  0  0  0
    2.0871   -0.2407   -0.0952 C   0  0  0  0  0  0  0  0  0  0  0  0
   -7.6544    1.5956   -0.3787 C   0  0  0  0  0  0  0  0  0  0  0  0
   -8.4408    2.2660    0.6021 C   0  0  0  0  0  0  0  0  0  0  0  0
   -8.5856    1.5176    1.7495 C   0  0  0  0  0  0  0  0  0  0  0  0
    4.3721   -1.1761    0.4380 C   0  0  0  0  0  0  0  0  0  0  0  0
    5.7930   -0.7878    0.4316 C   0  0  0  0  0  0  0  0  0  0  0  0
    6.8788   -1.4879    0.7979 C   0  0  0  0  0  0  0  0  0  0  0  0
    7.9623   -0.6052    0.5744 C   0  0  0  0  0  0  0  0  0  0  0  0
    7.4133    0.5583    0.0879 C   0  0  0  0  0  0  0  0  0  0  0  0
   -2.9601   -2.1955    0.3881 H   0  0  0  0  0  0  0  0  0  0  0  0
   -2.2176   -2.3341   -1.2192 H   0  0  0  0  0  0  0  0  0  0  0  0
   -3.0254    1.2921   -1.1730 H   0  0  0  0  0  0  0  0  0  0  0  0
   -2.4702    1.5091    0.4995 H   0  0  0  0  0  0  0  0  0  0  0  0
   -4.6762   -2.4001   -1.3989 H   0  0  0  0  0  0  0  0  0  0  0  0
   -4.0199   -0.9896   -2.2338 H   0  0  0  0  0  0  0  0  0  0  0  0
   -4.9190    1.3757    0.4201 H   0  0  0  0  0  0  0  0  0  0  0  0
   -4.2481    0.0320    1.3500 H   0  0  0  0  0  0  0  0  0  0  0  0
   -0.5443    1.6660   -1.0532 H   0  0  0  0  0  0  0  0  0  0  0  0
   -0.4768   -2.3548    0.5679 H   0  0  0  0  0  0  0  0  0  0  0  0
    1.8859    1.7561   -0.9020 H   0  0  0  0  0  0  0  0  0  0  0  0
    1.8860   -2.2801    0.6991 H   0  0  0  0  0  0  0  0  0  0  0  0
   -7.4150    2.0025   -1.3530 H   0  0  0  0  0  0  0  0  0  0  0  0
    3.8957    0.6904   -0.3281 H   0  0  0  0  0  0  0  0  0  0  0  0
   -8.8778    3.2476    0.4729 H   0  0  0  0  0  0  0  0  0  0  0  0
   -9.1282    1.7824    2.6460 H   0  0  0  0  0  0  0  0  0  0  0  0
    6.9230   -2.4981    1.1785 H   0  0  0  0  0  0  0  0  0  0  0  0
    9.0112   -0.7996    0.7489 H   0  0  0  0  0  0  0  0  0  0  0  0
  1 19  1  0  0  0  0
  1 25  1  0  0  0  0
  2 16  2  0  0  0  0
  3 27  1  0  0  0  0
  3 30  1  0  0  0  0
  4 26  2  0  0  0  0
  5 10  1  0  0  0  0
  6 10  2  0  0  0  0
  7 11  1  0  0  0  0
  7 12  1  0  0  0  0
  7 15  1  0  0  0  0
  8 13  1  0  0  0  0
  8 14  1  0  0  0  0
  8 16  1  0  0  0  0
  9 22  1  0  0  0  0
  9 26  1  0  0  0  0
  9 44  1  0  0  0  0
 10 30  1  0  0  0  0
 11 13  1  0  0  0  0
 11 31  1  0  0  0  0
 11 32  1  0  0  0  0
 12 14  1  0  0  0  0
 12 33  1  0  0  0  0
 12 34  1  0  0  0  0
 13 35  1  0  0  0  0
 13 36  1  0  0  0  0
 14 37  1  0  0  0  0
 14 38  1  0  0  0  0
 15 17  2  0  0  0  0
 15 18  1  0  0  0  0
 16 19  1  0  0  0  0
 17 20  1  0  0  0  0
 17 39  1  0  0  0  0
 18 21  2  0  0  0  0
 18 40  1  0  0  0  0
 19 23  2  0  0  0  0
 20 22  2  0  0  0  0
 20 41  1  0  0  0  0
 21 22  1  0  0  0  0
 21 42  1  0  0  0  0
 23 24  1  0  0  0  0
 23 43  1  0  0  0  0
 24 25  2  0  0  0  0
 24 45  1  0  0  0  0
 25 46  1  0  0  0  0
 26 27  1  0  0  0  0
 27 28  2  0  0  0  0
 28 29  1  0  0  0  0
 28 47  1  0  0  0  0
 29 30  2  0  0  0  0
 29 48  1  0  0  0  0
M  CHG  2   5  -1  10   1
M  END
> <PUBCHEM_COMPOUND_CID>
1256424

> <PUBCHEM_CONFORMER_RMSD>
1

> <PUBCHEM_CONFORMER_DIVERSEORDER>
2
12
21
16
13
17
11
4
10
20
5
1
22
15
14
18
6
19
9
3
7
8

> <PUBCHEM_MMFF94_PARTIAL_CHARGES>
40
1 -0.08
10 0.96
11 0.37
12 0.37
13 0.3
14 0.3
15 0.1
16 0.71
17 -0.15
18 -0.15
19 -0.05
2 -0.57
20 -0.15
21 -0.15
22 0.12
23 -0.15
24 -0.15
25 -0.11
26 0.71
27 0.05
28 -0.15
29 -0.15
3 -0.28
30 0.22
39 0.15
4 -0.57
40 0.15
41 0.15
42 0.15
43 0.15
44 0.37
45 0.15
46 0.15
47 0.15
48 0.15
5 -0.52
6 -0.52
7 -0.84
8 -0.66
9 -0.55

> <PUBCHEM_EFFECTIVE_ROTOR_COUNT>
8.2

> <PUBCHEM_PHARMACOPHORE_FEATURES>
12
1 2 acceptor
1 3 acceptor
1 4 acceptor
1 5 acceptor
1 5 anion
1 6 acceptor
1 7 cation
1 9 donor
5 1 19 23 24 25 rings
5 3 27 28 29 30 rings
6 15 17 18 20 21 22 rings
6 7 8 11 12 13 14 rings

> <PUBCHEM_HEAVY_ATOM_COUNT>
30

> <PUBCHEM_ATOM_DEF_STEREO_COUNT>
0

> <PUBCHEM_ATOM_UDEF_STEREO_COUNT>
0

> <PUBCHEM_BOND_DEF_STEREO_COUNT>
0

> <PUBCHEM_BOND_UDEF_STEREO_COUNT>
0

> <PUBCHEM_ISOTOPIC_ATOM_COUNT>
0

> <PUBCHEM_COMPONENT_COUNT>
1

> <PUBCHEM_CACTVS_TAUTO_COUNT>
2

> <PUBCHEM_CONFORMER_ID>
00132BE800000002

> <PUBCHEM_MMFF94_ENERGY>
86.327

> <PUBCHEM_FEATURE_SELFOVERLAP>
60.989

> <PUBCHEM_SHAPE_FINGERPRINT>
10 15 18334577932168417737
10066227 49 9943534007096807444
10299344 5 18413666916082971078
10666366 153 15051738590528404760
11135609 127 10303228263527004386
11135926 11 17822004299151045963
11181472 205 17632306618297315706
11315181 36 18131350817836204995
11386260 185 14117506667226014210
11578821 258 18272931630819981081
11638347 137 15792004564179901800
12089408 11 18342735226347060446
12144603 126 18413108363758998125
12236239 1 18412822482932169751
12539765 74 18130793351965807774
13383665 225 17345776117398588880
13530399 1 18343024397499815537
14251764 18 18413386548790903094
14394314 77 18411418389430036857
14400156 96 9943223945693858154
14428016 248 18412548725310173864
14617042 71 18261959652374686476
14849402 71 18409168843852098961
14937079 2 18113622330546403620
15461852 350 16702293573583718757
1577012 14 18342734105402930631
15840311 113 18333454236202186516
16120349 18 18334008428311382052
16989713 51 16987986345544700199
1754908 1 16153428350417230769
1754911 235 18272934934044476476
18335252 114 13039178208853471834
19315958 150 18342181029120659871
195137 175 18272933830026774033
19841028 212 16733823069641789162
21521721 280 18186518808832246850
22224240 67 17748827410200903426
23576562 1 14907312270900862729
24771293 8 18408321107311531212
3178227 256 17530688697006729459
335352 9 18202557389842689829
3711267 37 18342185453026788633
4073 2 18187365458445136098
44389302 135 18129370520334394658
44426699 302 15068917420630987852
44802255 64 14620508984065914493
4625314 4 18130788979968246158
5028188 123 17632012057203983924
54039377 194 8285899287400838649
5758199 1 18335138687261954907
59682541 35 17312825982737742488
6081469 158 12319736951256534027
6691757 9 17561366197890430911
9953998 17 17240206526349032923
9962374 69 13768222631150777435

> <PUBCHEM_SHAPE_MULTIPOLES>
571.96
32.81
2.13
1.1
10.2
0.65
0.22
16.24
6.42
1.27
-0.17
-1.92
-0.06
-3.2

> <PUBCHEM_SHAPE_SELFOVERLAP>
1229.706

> <PUBCHEM_SHAPE_VOLUME>
316.4

> <PUBCHEM_COORDINATE_TYPE>
2
5
10

$$$$
