1472329
  -OEChem-01171810003D

 29 30  0     0  0  0  0  0  0999 V2000
   -0.7646    1.7505    0.2946 S   0  0  0  0  0  0  0  0  0  0  0  0
   -0.9241    2.7118   -0.7875 O   0  0  0  0  0  0  0  0  0  0  0  0
   -0.7632    2.2111    1.6772 O   0  0  0  0  0  0  0  0  0  0  0  0
    5.1424   -0.9170   -1.0724 O   0  5  0  0  0  0  0  0  0  0  0  0
    4.6462   -1.8721    0.8409 O   0  0  0  0  0  0  0  0  0  0  0  0
    1.0748    0.1180    1.0912 N   0  0  0  0  0  0  0  0  0  0  0  0
    4.3668   -1.0873   -0.0993 N   0  3  0  0  0  0  0  0  0  0  0  0
   -2.0285    0.5638    0.0890 C   0  0  0  0  0  0  0  0  0  0  0  0
    0.8011    0.9477    0.0778 C   0  0  0  0  0  0  0  0  0  0  0  0
   -2.4951   -0.1552    1.1895 C   0  0  0  0  0  0  0  0  0  0  0  0
   -2.5718    0.3345   -1.1752 C   0  0  0  0  0  0  0  0  0  0  0  0
   -4.0478   -1.3331   -0.2381 C   0  0  0  0  0  0  0  0  0  0  0  0
   -3.5046   -1.1038    1.0259 C   0  0  0  0  0  0  0  0  0  0  0  0
   -3.5814   -0.6140   -1.3387 C   0  0  0  0  0  0  0  0  0  0  0  0
    1.5852    1.1912   -1.0142 C   0  0  0  0  0  0  0  0  0  0  0  0
    2.7930    0.5053   -1.0795 C   0  0  0  0  0  0  0  0  0  0  0  0
    3.1426   -0.3740   -0.0607 C   0  0  0  0  0  0  0  0  0  0  0  0
   -5.1277   -2.3469   -0.4134 C   0  0  0  0  0  0  0  0  0  0  0  0
    2.2568   -0.5308    0.9931 C   0  0  0  0  0  0  0  0  0  0  0  0
   -2.0824    0.0034    2.1818 H   0  0  0  0  0  0  0  0  0  0  0  0
   -2.2193    0.8762   -2.0484 H   0  0  0  0  0  0  0  0  0  0  0  0
   -3.8600   -1.6573    1.8910 H   0  0  0  0  0  0  0  0  0  0  0  0
   -3.9968   -0.7839   -2.3286 H   0  0  0  0  0  0  0  0  0  0  0  0
    1.3045    1.8764   -1.8043 H   0  0  0  0  0  0  0  0  0  0  0  0
    3.4377    0.6782   -1.9371 H   0  0  0  0  0  0  0  0  0  0  0  0
   -5.0812   -2.8059   -1.4068 H   0  0  0  0  0  0  0  0  0  0  0  0
   -5.0322   -3.1566    0.3180 H   0  0  0  0  0  0  0  0  0  0  0  0
   -6.1082   -1.8764   -0.2896 H   0  0  0  0  0  0  0  0  0  0  0  0
    2.4552   -1.1978    1.8268 H   0  0  0  0  0  0  0  0  0  0  0  0
  1  2  2  0  0  0  0
  1  3  2  0  0  0  0
  1  8  1  0  0  0  0
  1  9  1  0  0  0  0
  4  7  1  0  0  0  0
  5  7  2  0  0  0  0
  6  9  2  0  0  0  0
  6 19  1  0  0  0  0
  7 17  1  0  0  0  0
  8 10  2  0  0  0  0
  8 11  1  0  0  0  0
  9 15  1  0  0  0  0
 10 13  1  0  0  0  0
 10 20  1  0  0  0  0
 11 14  2  0  0  0  0
 11 21  1  0  0  0  0
 12 13  2  0  0  0  0
 12 14  1  0  0  0  0
 12 18  1  0  0  0  0
 13 22  1  0  0  0  0
 14 23  1  0  0  0  0
 15 16  2  0  0  0  0
 15 24  1  0  0  0  0
 16 17  1  0  0  0  0
 16 25  1  0  0  0  0
 17 19  2  0  0  0  0
 18 26  1  0  0  0  0
 18 27  1  0  0  0  0
 18 28  1  0  0  0  0
 19 29  1  0  0  0  0
M  CHG  2   4  -1   7   1
M  END
> <PUBCHEM_COMPOUND_CID>
1472329

> <PUBCHEM_CONFORMER_RMSD>
0.6

> <PUBCHEM_CONFORMER_DIVERSEORDER>
1
2

> <PUBCHEM_MMFF94_PARTIAL_CHARGES>
26
1 1.32
10 -0.15
11 -0.15
12 -0.14
13 -0.15
14 -0.15
15 -0.15
16 -0.15
17 0.13
18 0.14
19 0.16
2 -0.65
20 0.15
21 0.15
22 0.15
23 0.15
24 0.15
25 0.15
29 0.15
3 -0.65
4 -0.52
5 -0.52
6 -0.62
7 0.91
8 -0.01
9 0.3

> <PUBCHEM_EFFECTIVE_ROTOR_COUNT>
3

> <PUBCHEM_PHARMACOPHORE_FEATURES>
8
1 2 acceptor
1 3 acceptor
1 4 acceptor
1 4 anion
1 5 acceptor
1 6 acceptor
6 6 9 15 16 17 19 rings
6 8 10 11 12 13 14 rings

> <PUBCHEM_HEAVY_ATOM_COUNT>
19

> <PUBCHEM_ATOM_DEF_STEREO_COUNT>
0

> <PUBCHEM_ATOM_UDEF_STEREO_COUNT>
0

> <PUBCHEM_BOND_DEF_STEREO_COUNT>
0

> <PUBCHEM_BOND_UDEF_STEREO_COUNT>
0

> <PUBCHEM_ISOTOPIC_ATOM_COUNT>
0

> <PUBCHEM_COMPONENT_COUNT>
1

> <PUBCHEM_CACTVS_TAUTO_COUNT>
1

> <PUBCHEM_CONFORMER_ID>
0016774900000001

> <PUBCHEM_MMFF94_ENERGY>
40.5164

> <PUBCHEM_FEATURE_SELFOVERLAP>
40.7

> <PUBCHEM_SHAPE_FINGERPRINT>
10498660 4 12540688232706685087
11046707 91 18343582923535590331
11578080 2 18270950323978360449
11640471 11 10665495392430251865
122479 349 9223227455418377724
12251169 10 14333131901033201097
12363563 72 18341895216358140759
12507560 40 13542198168426526289
12553582 1 18259423018143528297
12633257 1 15051730936538084391
12670546 177 17095248020769582022
12892183 10 14836139740330340551
13103583 49 17489040339482895427
13533116 47 17912643803207507427
13544653 18 18343578568454823440
13583140 156 15554164753487541122
13675066 3 13542465345805203192
13911987 19 17319602449057650844
13955234 65 17691692603493714265
14123255 52 9367349244864092959
14123260 362 11097858496924298719
14178342 30 17131010701662124379
1420 369 18343585152655681390
14251764 38 10811069628168229630
14341114 328 14261068843644132187
14576447 43 18259987076562768158
15061688 2 8286210448146448365
15188451 53 16558462115358683111
15209294 21 11095873857325199998
15342816 4 18270975651019709373
15475509 8 17531235189758608255
15534591 1 8862932870937228977
1741750 31 9007052470070851620
17834072 32 9007055772832357799
1798214 20 18260543446082914591
1813 80 18201452405661960629
18186145 218 16153429471451160913
193927 3 18412553123309153847
19784866 240 18342460387316394223
19862831 5 17458060460686644401
200 152 18114184128915091953
20112054 13 10231761093228989843
20281475 54 18411984701968142065
20291156 8 18411698815859428495
20361792 2 18271241724702807517
20374829 77 18409161113153046031
20388580 30 18335984289171245117
20645477 70 18190173680119538335
20671657 53 18259987088851681789
20871999 31 17313099757244188695
21065199 12 13901918807901688943
21713013 43 17604142731411129391
21731228 192 11527952270202740765
22646028 28 18411139138428526023
23402539 116 18409452457827316450
23403322 49 18335698343144141599
23559900 14 18336816533711567872
23598288 3 18059021592059148341
270888 7 8358268042079609095
27216 239 10879985883156666767
2838139 119 11819272291087163574
2871803 45 17749104525928025131
312423 11 18272100404508198936
3286 77 17703507782976787627
3472631 163 11530476749058577851
4028521 119 13479129103505107735
4259306 186 18260547848530115479
463206 1 18338229483473656051
465052 167 18197505236924196215
59682541 52 15358517710228727851
76465 3 18410290302872962130
7970288 3 18412544331554024599

> <PUBCHEM_SHAPE_MULTIPOLES>
361.42
9.79
2.21
1.38
2.75
0.59
0.09
-9.05
-1.91
-0.53
0.13
-0.23
0.19
-0.51

> <PUBCHEM_SHAPE_SELFOVERLAP>
765.276

> <PUBCHEM_SHAPE_VOLUME>
203.7

> <PUBCHEM_COORDINATE_TYPE>
2
5
10

$$$$
