3775080
  -OEChem-01171809243D

 35 36  0     1  0  0  0  0  0999 V2000
   -2.6164   -0.9019   -1.6284 S   0  0  0  0  0  0  0  0  0  0  0  0
    3.9034    0.6397   -1.0499 O   0  0  0  0  0  0  0  0  0  0  0  0
   -1.1914    3.1106    0.4749 O   0  5  0  0  0  0  0  0  0  0  0  0
   -2.8599    2.3997    1.7260 O   0  0  0  0  0  0  0  0  0  0  0  0
   -2.1872   -2.9911   -0.0542 O   0  0  0  0  0  0  0  0  0  0  0  0
    1.6449    0.4698   -0.7686 N   0  0  0  0  0  0  0  0  0  0  0  0
   -2.1976    2.4122    0.6764 N   0  3  0  0  0  0  0  0  0  0  0  0
   -0.5104    0.1571   -0.1976 C   0  0  0  0  0  0  0  0  0  0  0  0
   -1.9862    0.1634   -0.2566 C   0  0  1  0  0  0  0  0  0  0  0  0
    0.2912   -0.3474    0.8520 C   0  0  0  0  0  0  0  0  0  0  0  0
    1.6304   -0.1484    0.4885 C   0  0  0  0  0  0  0  0  0  0  0  0
    0.3312    0.6458   -1.1650 C   0  0  0  0  0  0  0  0  0  0  0  0
   -2.6574    1.5424   -0.4260 C   0  0  0  0  0  0  0  0  0  0  0  0
   -0.0119   -0.9595    2.0863 C   0  0  0  0  0  0  0  0  0  0  0  0
    2.6727   -0.5538    1.3450 C   0  0  0  0  0  0  0  0  0  0  0  0
    2.7869    0.8466   -1.5031 C   0  0  0  0  0  0  0  0  0  0  0  0
    1.0243   -1.3600    2.9318 C   0  0  0  0  0  0  0  0  0  0  0  0
    2.3482   -1.1585    2.5639 C   0  0  0  0  0  0  0  0  0  0  0  0
    2.5301    1.4950   -2.8310 C   0  0  0  0  0  0  0  0  0  0  0  0
   -1.9392   -2.4406   -1.1201 C   0  0  0  0  0  0  0  0  0  0  0  0
   -1.0057   -3.0210   -2.1442 C   0  0  0  0  0  0  0  0  0  0  0  0
   -2.3898   -0.2769    0.6637 H   0  0  0  0  0  0  0  0  0  0  0  0
    0.0895    1.1097   -2.1116 H   0  0  0  0  0  0  0  0  0  0  0  0
   -2.3794    2.0400   -1.3627 H   0  0  0  0  0  0  0  0  0  0  0  0
   -3.7502    1.4873   -0.3633 H   0  0  0  0  0  0  0  0  0  0  0  0
   -1.0416   -1.1251    2.3908 H   0  0  0  0  0  0  0  0  0  0  0  0
    3.7166   -0.4118    1.0888 H   0  0  0  0  0  0  0  0  0  0  0  0
    0.7920   -1.8315    3.8825 H   0  0  0  0  0  0  0  0  0  0  0  0
    3.1456   -1.4748    3.2315 H   0  0  0  0  0  0  0  0  0  0  0  0
    1.9756    2.4286   -2.7034 H   0  0  0  0  0  0  0  0  0  0  0  0
    1.9977    0.8109   -3.4973 H   0  0  0  0  0  0  0  0  0  0  0  0
    3.4904    1.7371   -3.2975 H   0  0  0  0  0  0  0  0  0  0  0  0
   -0.1608   -2.3497   -2.3199 H   0  0  0  0  0  0  0  0  0  0  0  0
   -1.5385   -3.2126   -3.0798 H   0  0  0  0  0  0  0  0  0  0  0  0
   -0.6132   -3.9728   -1.7730 H   0  0  0  0  0  0  0  0  0  0  0  0
  1  9  1  0  0  0  0
  1 20  1  0  0  0  0
  2 16  2  0  0  0  0
  3  7  1  0  0  0  0
  4  7  2  0  0  0  0
  5 20  2  0  0  0  0
  6 11  1  0  0  0  0
  6 12  1  0  0  0  0
  6 16  1  0  0  0  0
  7 13  1  0  0  0  0
  8  9  1  0  0  0  0
  8 10  1  0  0  0  0
  8 12  2  0  0  0  0
  9 13  1  0  0  0  0
  9 22  1  0  0  0  0
 10 11  1  0  0  0  0
 10 14  2  0  0  0  0
 11 15  2  0  0  0  0
 12 23  1  0  0  0  0
 13 24  1  0  0  0  0
 13 25  1  0  0  0  0
 14 17  1  0  0  0  0
 14 26  1  0  0  0  0
 15 18  1  0  0  0  0
 15 27  1  0  0  0  0
 16 19  1  0  0  0  0
 17 18  2  0  0  0  0
 17 28  1  0  0  0  0
 18 29  1  0  0  0  0
 19 30  1  0  0  0  0
 19 31  1  0  0  0  0
 19 32  1  0  0  0  0
 20 21  1  0  0  0  0
 21 33  1  0  0  0  0
 21 34  1  0  0  0  0
 21 35  1  0  0  0  0
M  CHG  2   3  -1   7   1
M  END
> <PUBCHEM_COMPOUND_CID>
3775080

> <PUBCHEM_CONFORMER_RMSD>
0.8

> <PUBCHEM_CONFORMER_DIVERSEORDER>
1
48
59
91
79
84
75
34
74
82
69
102
52
104
58
67
86
16
44
78
49
71
50
70
73
72
87
101
63
51
20
95
65
93
92
99
60
98
81
77
22
97
89
100
47
80
39
90
94
76
40
66
61
43
29
32
64
15
17
68
30
83
55
26
56
103
8
28
37
96
33
46
7
62
54
85
11
45
18
14
10
41
38
13
21
23
88
36
31
42
25
57
27
35
24
5
19
53
4
6
3
2
9
12

> <PUBCHEM_MMFF94_PARTIAL_CHARGES>
25
1 -0.37
11 -0.15
12 -0.3
13 0.24
14 -0.15
15 -0.15
16 0.52
17 -0.15
18 -0.15
19 0.06
2 -0.57
20 0.65
21 0.06
23 0.15
26 0.15
27 0.15
28 0.15
29 0.15
3 -0.52
4 -0.52
5 -0.57
6 0.29
7 0.8
8 -0.18
9 0.41

> <PUBCHEM_EFFECTIVE_ROTOR_COUNT>
6

> <PUBCHEM_PHARMACOPHORE_FEATURES>
6
1 2 acceptor
1 3 acceptor
1 3 anion
1 4 acceptor
5 6 8 10 11 12 rings
6 10 11 14 15 17 18 rings

> <PUBCHEM_HEAVY_ATOM_COUNT>
21

> <PUBCHEM_ATOM_DEF_STEREO_COUNT>
0

> <PUBCHEM_ATOM_UDEF_STEREO_COUNT>
1

> <PUBCHEM_BOND_DEF_STEREO_COUNT>
0

> <PUBCHEM_BOND_UDEF_STEREO_COUNT>
0

> <PUBCHEM_ISOTOPIC_ATOM_COUNT>
0

> <PUBCHEM_COMPONENT_COUNT>
1

> <PUBCHEM_CACTVS_TAUTO_COUNT>
2

> <PUBCHEM_CONFORMER_ID>
00399A6800000001

> <PUBCHEM_MMFF94_ENERGY>
42.704

> <PUBCHEM_FEATURE_SELFOVERLAP>
30.614

> <PUBCHEM_SHAPE_FINGERPRINT>
11578080 2 16844462680937345368
11640471 11 18260542282067889956
12202030 40 16915940871023324174
12716301 132 17917705799220690583
12788726 201 18337107973186374467
13009979 54 18118373272602278154
13083527 12 16039366363009103143
13294875 104 16553954937273981073
13898156 1 18335405838527631089
14022347 108 18200587129076900847
14617773 55 18187634842877138562
14787075 74 17398077927015873352
14817 1 10702742834542160131
16752209 62 18269250453473724639
16945 1 18271799137962985477
20600515 1 17771028826841452381
20905425 154 17550914389799666521
21524375 3 18043838440196356228
21756936 100 17752519609434684388
22112679 90 18263062401367748204
23419403 2 16315021693012985419
23493267 7 17416946401289037458
23557571 272 17845355807988258304
23598288 3 18335971026507543559
23598291 2 18041830702030686742
23598294 1 18341895212289974819
238 59 16299487539491419214
2748010 2 14402611200623336920
298252 57 18125468352342577156
3797600 57 18118150024708085737
68419 9 18335692836763706217
6992083 37 17756398514078017466
81228 2 17917415554405889229

> <PUBCHEM_SHAPE_MULTIPOLES>
402.58
4.81
3.13
2.92
1.13
0.23
0.28
-0.85
0.89
0.99
-0.35
-1.91
0.03
-3.75

> <PUBCHEM_SHAPE_SELFOVERLAP>
840.411

> <PUBCHEM_SHAPE_VOLUME>
231.1

> <PUBCHEM_COORDINATE_TYPE>
2
5
10

$$$$
