4261343
  -OEChem-01171809533D

 39 41  0     0  0  0  0  0  0999 V2000
    1.7898    2.1225   -0.6883 O   0  0  0  0  0  0  0  0  0  0  0  0
    8.2258   -0.1257    0.2991 O   0  5  0  0  0  0  0  0  0  0  0  0
    7.5009   -2.1849    0.0686 O   0  0  0  0  0  0  0  0  0  0  0  0
    0.9794    0.0723    0.1284 N   0  0  0  0  0  0  0  0  0  0  0  0
   -4.5377    1.0011    0.2204 N   0  0  0  0  0  0  0  0  0  0  0  0
    7.2928   -0.9493    0.1385 N   0  3  0  0  0  0  0  0  0  0  0  0
   -7.8602   -1.5346   -0.2409 N   0  0  0  0  0  0  0  0  0  0  0  0
   -0.3995    0.3042    0.1506 C   0  0  0  0  0  0  0  0  0  0  0  0
   -3.1468    0.7672    0.1978 C   0  0  0  0  0  0  0  0  0  0  0  0
   -0.9030    1.5357   -0.2626 C   0  0  0  0  0  0  0  0  0  0  0  0
   -1.2648   -0.6966    0.5877 C   0  0  0  0  0  0  0  0  0  0  0  0
   -2.2784    1.7674   -0.2390 C   0  0  0  0  0  0  0  0  0  0  0  0
   -2.6400   -0.4649    0.6112 C   0  0  0  0  0  0  0  0  0  0  0  0
    3.3433    0.4743   -0.1709 C   0  0  0  0  0  0  0  0  0  0  0  0
    1.9789    0.9661   -0.2781 C   0  0  0  0  0  0  0  0  0  0  0  0
   -5.6504    0.1517    0.0661 C   0  0  0  0  0  0  0  0  0  0  0  0
    4.3963    1.3719    0.0064 C   0  0  0  0  0  0  0  0  0  0  0  0
    3.5993   -0.8948   -0.2461 C   0  0  0  0  0  0  0  0  0  0  0  0
    5.9611   -0.4686    0.0332 C   0  0  0  0  0  0  0  0  0  0  0  0
    5.7051    0.9005    0.1083 C   0  0  0  0  0  0  0  0  0  0  0  0
    4.9081   -1.3663   -0.1439 C   0  0  0  0  0  0  0  0  0  0  0  0
   -6.8485    0.4449    0.7094 C   0  0  0  0  0  0  0  0  0  0  0  0
   -5.5575   -0.9849   -0.7307 C   0  0  0  0  0  0  0  0  0  0  0  0
   -7.9136   -0.4218    0.5252 C   0  0  0  0  0  0  0  0  0  0  0  0
   -6.6804   -1.7877   -0.8505 C   0  0  0  0  0  0  0  0  0  0  0  0
   -0.3100    2.3655   -0.6155 H   0  0  0  0  0  0  0  0  0  0  0  0
   -0.8828   -1.6595    0.9171 H   0  0  0  0  0  0  0  0  0  0  0  0
   -2.6631    2.7308   -0.5644 H   0  0  0  0  0  0  0  0  0  0  0  0
   -3.2907   -1.2543    0.9769 H   0  0  0  0  0  0  0  0  0  0  0  0
    1.2522   -0.8356    0.4934 H   0  0  0  0  0  0  0  0  0  0  0  0
   -4.7849    1.9737    0.3806 H   0  0  0  0  0  0  0  0  0  0  0  0
    4.2189    2.4423    0.0730 H   0  0  0  0  0  0  0  0  0  0  0  0
    2.8197   -1.6294   -0.4241 H   0  0  0  0  0  0  0  0  0  0  0  0
    6.5002    1.6287    0.2473 H   0  0  0  0  0  0  0  0  0  0  0  0
    5.0714   -2.4386   -0.2155 H   0  0  0  0  0  0  0  0  0  0  0  0
   -6.9565    1.3219    1.3389 H   0  0  0  0  0  0  0  0  0  0  0  0
   -4.6537   -1.2467   -1.2698 H   0  0  0  0  0  0  0  0  0  0  0  0
   -8.8690   -0.2376    1.0054 H   0  0  0  0  0  0  0  0  0  0  0  0
   -6.6609   -2.6822   -1.4644 H   0  0  0  0  0  0  0  0  0  0  0  0
  1 15  2  0  0  0  0
  2  6  1  0  0  0  0
  3  6  2  0  0  0  0
  4  8  1  0  0  0  0
  4 15  1  0  0  0  0
  4 30  1  0  0  0  0
  5  9  1  0  0  0  0
  5 16  1  0  0  0  0
  5 31  1  0  0  0  0
  6 19  1  0  0  0  0
  7 24  2  0  0  0  0
  7 25  1  0  0  0  0
  8 10  2  0  0  0  0
  8 11  1  0  0  0  0
  9 12  2  0  0  0  0
  9 13  1  0  0  0  0
 10 12  1  0  0  0  0
 10 26  1  0  0  0  0
 11 13  2  0  0  0  0
 11 27  1  0  0  0  0
 12 28  1  0  0  0  0
 13 29  1  0  0  0  0
 14 15  1  0  0  0  0
 14 17  2  0  0  0  0
 14 18  1  0  0  0  0
 16 22  2  0  0  0  0
 16 23  1  0  0  0  0
 17 20  1  0  0  0  0
 17 32  1  0  0  0  0
 18 21  2  0  0  0  0
 18 33  1  0  0  0  0
 19 20  2  0  0  0  0
 19 21  1  0  0  0  0
 20 34  1  0  0  0  0
 21 35  1  0  0  0  0
 22 24  1  0  0  0  0
 22 36  1  0  0  0  0
 23 25  2  0  0  0  0
 23 37  1  0  0  0  0
 24 38  1  0  0  0  0
 25 39  1  0  0  0  0
M  CHG  2   2  -1   6   1
M  END
> <PUBCHEM_COMPOUND_CID>
4261343

> <PUBCHEM_CONFORMER_RMSD>
0.8

> <PUBCHEM_CONFORMER_DIVERSEORDER>
1
4
8
6
7
3
2
5

> <PUBCHEM_MMFF94_PARTIAL_CHARGES>
39
1 -0.57
10 -0.15
11 -0.15
12 -0.15
13 -0.15
14 0.09
15 0.54
16 0.1
17 -0.15
18 -0.15
19 0.13
2 -0.52
20 -0.15
21 -0.15
22 -0.15
23 -0.15
24 0.16
25 0.16
26 0.15
27 0.15
28 0.15
29 0.15
3 -0.52
30 0.37
31 0.4
32 0.15
33 0.15
34 0.15
35 0.15
36 0.15
37 0.15
38 0.15
39 0.15
4 -0.55
5 -0.6
6 0.91
7 -0.62
8 0.12
9 0.1

> <PUBCHEM_EFFECTIVE_ROTOR_COUNT>
6

> <PUBCHEM_PHARMACOPHORE_FEATURES>
11
1 1 acceptor
1 2 acceptor
1 2 anion
1 3 acceptor
1 4 donor
1 5 cation
1 5 donor
1 7 acceptor
6 14 17 18 19 20 21 rings
6 7 16 22 23 24 25 rings
6 8 9 10 11 12 13 rings

> <PUBCHEM_HEAVY_ATOM_COUNT>
25

> <PUBCHEM_ATOM_DEF_STEREO_COUNT>
0

> <PUBCHEM_ATOM_UDEF_STEREO_COUNT>
0

> <PUBCHEM_BOND_DEF_STEREO_COUNT>
0

> <PUBCHEM_BOND_UDEF_STEREO_COUNT>
0

> <PUBCHEM_ISOTOPIC_ATOM_COUNT>
0

> <PUBCHEM_COMPONENT_COUNT>
1

> <PUBCHEM_CACTVS_TAUTO_COUNT>
4

> <PUBCHEM_CONFORMER_ID>
004105DF00000001

> <PUBCHEM_MMFF94_ENERGY>
98.6351

> <PUBCHEM_FEATURE_SELFOVERLAP>
55.903

> <PUBCHEM_SHAPE_FINGERPRINT>
10 15 13039189199553040119
10066227 49 18339361864422682374
100830 39 18339924797634292361
10299344 5 18343585148550267179
106641 1 17989483035806555888
10670039 82 15647326421386126701
11135926 11 18410569570927962783
11315181 36 17988927791267251825
11524674 6 16128374900621831639
11638347 137 15913334563966109094
11991303 11 15575003918087236051
12166972 35 18411420635049625473
12236239 1 18343023307284055185
12516196 113 18272651255211648056
13073987 5 15482123669193025057
13533116 47 18411982472832766216
13668630 136 17967249828123952027
13685833 64 18410575072274088224
13862211 1 18409168822677403629
13885169 127 18411982421551803273
14178184 131 18057042622260577015
14251764 18 18411421717649616644
14251764 46 16845575313969420948
14294032 229 16154537655066522837
14428016 248 12247675007108013730
15048467 5 8935002568603940621
15183329 4 17895188913749380347
15198563 99 17095512960407183813
15690457 1 18342735234694356463
15716309 27 18273214214297926469
16120349 18 18114184181626344516
17093844 174 13758356675018434599
1768 124 18273215262391968014
1818759 1 18409175406371963346
20165401 70 18340765928387896286
2026 5 18191021206402238898
21130935 74 18200593571807607906
21150785 3 15430037660444638415
21267235 1 18408326566610843084
21315759 40 18342182162886147712
21315763 28 18411419501193576736
22224240 67 12679459785449402500
23035841 295 18343585157788918347
232437 2 18411700968640532386
23522609 53 18124348040647993057
23559900 14 18115871969653772457
23576562 1 13552058653118940067
249057 25 18200890538209531897
249057 3 15791738528629509210
3004659 81 17894911836951179176
33532 11 18409165481324963082
335352 9 18260271863143757030
3383291 50 18260832613604964299
34797466 226 17275390928323755228
397830 11 15266482080572425295
4073 2 18114748255948483434
4325135 7 18343301466250620863
4340502 62 15769781255658502085
444769 64 18408327705262824515
445580 37 13479126883355084607
5104073 3 13757536386908032399
59682541 35 17917423246924373354
5969126 39 18113613465834014549
59755656 215 17603865589518337434
6138700 20 18333450937403545707
636775 72 8646766690378499383
67123 10 18413671323172844064
99344 41 18272090470386078015
999808 66 18115315596366173339

> <PUBCHEM_SHAPE_MULTIPOLES>
476.96
25.39
1.8
0.75
0.35
0.06
0.02
12.29
-1.08
0.55
0.28
-0.6
0.04
-0.8

> <PUBCHEM_SHAPE_SELFOVERLAP>
1041.66

> <PUBCHEM_SHAPE_VOLUME>
256

> <PUBCHEM_COORDINATE_TYPE>
2
5
10

$$$$
