5921555
  -OEChem-01171809313D

 39 41  0     0  0  0  0  0  0999 V2000
    6.1689    0.3118    0.5468 Br  0  0  0  0  0  0  0  0  0  0  0  0
   -3.1475   -0.0500    0.7858 O   0  0  0  0  0  0  0  0  0  0  0  0
    0.4374   -2.8565   -1.3585 O   0  0  0  0  0  0  0  0  0  0  0  0
   -0.3765   -0.0429    0.7030 N   0  0  0  0  0  0  0  0  0  0  0  0
   -0.9720   -0.0512   -2.8949 N   0  0  0  0  0  0  0  0  0  0  0  0
   -0.2904    4.2076   -1.6411 N   0  0  0  0  0  0  0  0  0  0  0  0
   -0.6298   -1.1280   -0.1044 C   0  0  0  0  0  0  0  0  0  0  0  0
   -0.3088    1.2959    0.2133 C   0  0  0  0  0  0  0  0  0  0  0  0
    0.5585   -1.8467   -0.6712 C   0  0  0  0  0  0  0  0  0  0  0  0
   -1.8164   -1.6768   -0.4273 C   0  0  0  0  0  0  0  0  0  0  0  0
    1.9148   -1.3245   -0.3759 C   0  0  0  0  0  0  0  0  0  0  0  0
   -0.1733   -0.2540    2.0755 C   0  0  0  0  0  0  0  0  0  0  0  0
   -0.0279    2.3553    1.2016 C   0  0  0  0  0  0  0  0  0  0  0  0
   -3.0714   -1.1618    0.0226 C   0  0  0  0  0  0  0  0  0  0  0  0
    0.0819    0.7144    2.9673 C   0  0  0  0  0  0  0  0  0  0  0  0
    0.1562    2.0764    2.5019 C   0  0  0  0  0  0  0  0  0  0  0  0
    2.5784   -1.7822    0.7450 C   0  0  0  0  0  0  0  0  0  0  0  0
    2.4742   -0.3962   -1.2312 C   0  0  0  0  0  0  0  0  0  0  0  0
   -0.4752    1.6984   -1.0627 C   0  0  0  0  0  0  0  0  0  0  0  0
   -4.3085   -1.6809   -0.2356 C   0  0  0  0  0  0  0  0  0  0  0  0
    3.8542   -1.2910    1.0224 C   0  0  0  0  0  0  0  0  0  0  0  0
    3.7500    0.0948   -0.9539 C   0  0  0  0  0  0  0  0  0  0  0  0
    4.4399   -0.3524    0.1729 C   0  0  0  0  0  0  0  0  0  0  0  0
   -5.2255   -0.8242    0.4187 C   0  0  0  0  0  0  0  0  0  0  0  0
   -4.4699    0.1520    1.0252 C   0  0  0  0  0  0  0  0  0  0  0  0
   -0.7487    0.7321   -2.0683 C   0  0  0  0  0  0  0  0  0  0  0  0
   -0.3726    3.0806   -1.3768 C   0  0  0  0  0  0  0  0  0  0  0  0
   -1.8748   -2.5571   -1.0625 H   0  0  0  0  0  0  0  0  0  0  0  0
   -0.2417   -1.2913    2.3895 H   0  0  0  0  0  0  0  0  0  0  0  0
    0.0440    3.4025    0.9320 H   0  0  0  0  0  0  0  0  0  0  0  0
    0.2302    0.5019    4.0185 H   0  0  0  0  0  0  0  0  0  0  0  0
    0.3624    2.8585    3.2235 H   0  0  0  0  0  0  0  0  0  0  0  0
    2.1295   -2.5156    1.4084 H   0  0  0  0  0  0  0  0  0  0  0  0
    1.9609   -0.0573   -2.1242 H   0  0  0  0  0  0  0  0  0  0  0  0
   -4.5399   -2.5617   -0.8184 H   0  0  0  0  0  0  0  0  0  0  0  0
    4.3785   -1.6505    1.9041 H   0  0  0  0  0  0  0  0  0  0  0  0
    4.1942    0.8219   -1.6289 H   0  0  0  0  0  0  0  0  0  0  0  0
   -6.3024   -0.9075    0.4446 H   0  0  0  0  0  0  0  0  0  0  0  0
   -4.7083    1.0143    1.6306 H   0  0  0  0  0  0  0  0  0  0  0  0
  1 23  1  0  0  0  0
  2 14  1  0  0  0  0
  2 25  1  0  0  0  0
  3  9  2  0  0  0  0
  4  7  1  0  0  0  0
  4  8  1  0  0  0  0
  4 12  1  0  0  0  0
  5 26  3  0  0  0  0
  6 27  3  0  0  0  0
  7  9  1  0  0  0  0
  7 10  2  0  0  0  0
  8 13  1  0  0  0  0
  8 19  2  0  0  0  0
  9 11  1  0  0  0  0
 10 14  1  0  0  0  0
 10 28  1  0  0  0  0
 11 17  2  0  0  0  0
 11 18  1  0  0  0  0
 12 15  2  0  0  0  0
 12 29  1  0  0  0  0
 13 16  2  0  0  0  0
 13 30  1  0  0  0  0
 14 20  2  0  0  0  0
 15 16  1  0  0  0  0
 15 31  1  0  0  0  0
 16 32  1  0  0  0  0
 17 21  1  0  0  0  0
 17 33  1  0  0  0  0
 18 22  2  0  0  0  0
 18 34  1  0  0  0  0
 19 26  1  0  0  0  0
 19 27  1  0  0  0  0
 20 24  1  0  0  0  0
 20 35  1  0  0  0  0
 21 23  2  0  0  0  0
 21 36  1  0  0  0  0
 22 23  1  0  0  0  0
 22 37  1  0  0  0  0
 24 25  2  0  0  0  0
 24 38  1  0  0  0  0
 25 39  1  0  0  0  0
M  END
> <PUBCHEM_COMPOUND_CID>
5921555

> <PUBCHEM_CONFORMER_RMSD>
0.8

> <PUBCHEM_CONFORMER_DIVERSEORDER>
1
11
5
16
15
10
8
2
14
9
12
7
3
13
6
4

> <PUBCHEM_MMFF94_PARTIAL_CHARGES>
39
1 -0.11
10 -0.11
11 0.09
12 -0.05
13 -0.15
14 0.09
15 -0.15
16 -0.15
17 -0.15
18 -0.15
19 0.13
2 -0.28
20 -0.15
21 -0.15
22 -0.15
23 0.11
24 -0.15
25 -0.01
26 0.49
27 0.49
28 0.15
29 0.15
3 -0.57
30 0.15
31 0.15
32 0.15
33 0.15
34 0.15
35 0.15
36 0.15
37 0.15
38 0.15
39 0.15
4 -0.3
5 -0.56
6 -0.56
7 0.11
8 0.1
9 0.47

> <PUBCHEM_EFFECTIVE_ROTOR_COUNT>
4.2

> <PUBCHEM_PHARMACOPHORE_FEATURES>
9
1 1 hydrophobe
1 2 acceptor
1 3 acceptor
1 4 cation
1 5 acceptor
1 6 acceptor
5 2 14 20 24 25 rings
6 11 17 18 21 22 23 rings
6 4 8 12 13 15 16 rings

> <PUBCHEM_HEAVY_ATOM_COUNT>
27

> <PUBCHEM_ATOM_DEF_STEREO_COUNT>
0

> <PUBCHEM_ATOM_UDEF_STEREO_COUNT>
0

> <PUBCHEM_BOND_DEF_STEREO_COUNT>
1

> <PUBCHEM_BOND_UDEF_STEREO_COUNT>
0

> <PUBCHEM_ISOTOPIC_ATOM_COUNT>
0

> <PUBCHEM_COMPONENT_COUNT>
1

> <PUBCHEM_CACTVS_TAUTO_COUNT>
1

> <PUBCHEM_CONFORMER_ID>
005A5B1300000001

> <PUBCHEM_MMFF94_ENERGY>
93.4116

> <PUBCHEM_FEATURE_SELFOVERLAP>
45.672

> <PUBCHEM_SHAPE_FINGERPRINT>
10162869 55 18273223002808901595
11582403 64 16015221680104910821
12011746 2 12751245808836995074
12403814 3 18334290946458645722
12788726 201 17749384837158528904
12969540 114 16199861757276495301
13132413 78 17846227631031365907
13134695 92 18113907108341687573
133893 2 17340644825311380760
14787075 74 17775002426950686610
14955137 171 17845112807671827275
15840311 113 17987819444338198073
15849732 13 15913325827543569143
1601671 61 18060706074121931387
16945 1 18059300855290562707
17876694 64 18197528201518125153
17980427 23 17918002676493586601
1813 80 18335995211256994559
18336668 15 18272089456483132681
18769570 83 18186806846608552385
20600515 1 18270132317159080766
20642791 178 18267600168119341295
20691752 17 18120346964772441578
21304303 64 18189057654058075212
21330990 113 18273215257521273147
229495 10 17985255279705159335
23419403 2 18198037313993076657
23559900 14 17487917613319429782
3383291 50 11891595933238983176
350125 39 17914909634278675542
469060 322 18336276669191265592
513532 50 16880456354499849615
7495541 125 17823714142710940283

> <PUBCHEM_SHAPE_MULTIPOLES>
534.91
8.39
3.06
2.34
3.93
2.59
0.32
-3.66
1.88
-0.57
-1.19
-0.23
1.36
0.03

> <PUBCHEM_SHAPE_SELFOVERLAP>
1164.243

> <PUBCHEM_SHAPE_VOLUME>
294.8

> <PUBCHEM_COORDINATE_TYPE>
2
5
10

$$$$
