666358
  -OEChem-01171809163D

 62 66  0     0  0  0  0  0  0999 V2000
    5.6676   -1.7864    1.8281 O   0  0  0  0  0  0  0  0  0  0  0  0
   -2.1930    2.6028    0.3108 O   0  0  0  0  0  0  0  0  0  0  0  0
    1.0224   -4.2689   -1.1028 O   0  0  0  0  0  0  0  0  0  0  0  0
   -6.7569   -1.6922    0.7422 O   0  0  0  0  0  0  0  0  0  0  0  0
    4.4348   -0.1646   -0.1596 N   0  0  0  0  0  0  0  0  0  0  0  0
    2.2937    1.6648   -0.6938 N   0  0  0  0  0  0  0  0  0  0  0  0
    1.5826    3.9056   -0.3004 N   0  0  0  0  0  0  0  0  0  0  0  0
   -0.7238    4.4833    0.2263 N   0  0  0  0  0  0  0  0  0  0  0  0
    5.0147    0.4198    1.0578 C   0  0  0  0  0  0  0  0  0  0  0  0
    5.1420   -1.4043   -0.5092 C   0  0  0  0  0  0  0  0  0  0  0  0
    4.4817    0.7892   -1.2661 C   0  0  0  0  0  0  0  0  0  0  0  0
    4.9665   -0.5974    2.1944 C   0  0  0  0  0  0  0  0  0  0  0  0
    5.0895   -2.3784    0.6643 C   0  0  0  0  0  0  0  0  0  0  0  0
    3.6696    2.0328   -0.9285 C   0  0  0  0  0  0  0  0  0  0  0  0
   -0.0323    2.1737   -0.1706 C   0  0  0  0  0  0  0  0  0  0  0  0
    1.2942    2.5760   -0.3915 C   0  0  0  0  0  0  0  0  0  0  0  0
   -0.7418    0.9485   -0.1651 C   0  0  0  0  0  0  0  0  0  0  0  0
   -2.0478    1.2637    0.1319 C   0  0  0  0  0  0  0  0  0  0  0  0
   -0.9634    3.1637    0.1269 C   0  0  0  0  0  0  0  0  0  0  0  0
   -0.2883   -0.3915   -0.4060 C   0  0  0  0  0  0  0  0  0  0  0  0
   -3.2588    0.5037    0.2890 C   0  0  0  0  0  0  0  0  0  0  0  0
   -0.3041   -0.9119   -1.7005 C   0  0  0  0  0  0  0  0  0  0  0  0
    0.1688   -1.1751    0.6541 C   0  0  0  0  0  0  0  0  0  0  0  0
    0.5761    4.7585   -0.0035 C   0  0  0  0  0  0  0  0  0  0  0  0
   -4.0851    0.2652   -0.8119 C   0  0  0  0  0  0  0  0  0  0  0  0
   -3.6137    0.0006    1.5429 C   0  0  0  0  0  0  0  0  0  0  0  0
    0.1365   -2.2145   -1.9346 C   0  0  0  0  0  0  0  0  0  0  0  0
    0.6095   -2.4777    0.4198 C   0  0  0  0  0  0  0  0  0  0  0  0
    0.5933   -2.9974   -0.8745 C   0  0  0  0  0  0  0  0  0  0  0  0
   -5.2595   -0.4719   -0.6597 C   0  0  0  0  0  0  0  0  0  0  0  0
   -4.7881   -0.7367    1.6949 C   0  0  0  0  0  0  0  0  0  0  0  0
   -5.6110   -0.9728    0.5937 C   0  0  0  0  0  0  0  0  0  0  0  0
    1.4752   -5.0139    0.0265 C   0  0  0  0  0  0  0  0  0  0  0  0
   -7.5514   -1.8962   -0.4252 C   0  0  0  0  0  0  0  0  0  0  0  0
    4.4561    1.2910    1.4093 H   0  0  0  0  0  0  0  0  0  0  0  0
    6.0548    0.7225    0.8806 H   0  0  0  0  0  0  0  0  0  0  0  0
    6.1892   -1.1883   -0.7577 H   0  0  0  0  0  0  0  0  0  0  0  0
    4.6750   -1.8753   -1.3816 H   0  0  0  0  0  0  0  0  0  0  0  0
    5.5136    1.0781   -1.5030 H   0  0  0  0  0  0  0  0  0  0  0  0
    4.0594    0.3254   -2.1671 H   0  0  0  0  0  0  0  0  0  0  0  0
    5.4530   -0.1861    3.0847 H   0  0  0  0  0  0  0  0  0  0  0  0
    3.9345   -0.8507    2.4673 H   0  0  0  0  0  0  0  0  0  0  0  0
    5.6646   -3.2793    0.4277 H   0  0  0  0  0  0  0  0  0  0  0  0
    4.0615   -2.6892    0.8853 H   0  0  0  0  0  0  0  0  0  0  0  0
    3.7104    2.7013   -1.7983 H   0  0  0  0  0  0  0  0  0  0  0  0
    4.0836    2.6062   -0.0936 H   0  0  0  0  0  0  0  0  0  0  0  0
    2.0473    0.6840   -0.7416 H   0  0  0  0  0  0  0  0  0  0  0  0
   -0.6565   -0.3148   -2.5384 H   0  0  0  0  0  0  0  0  0  0  0  0
    0.1890   -0.7838    1.6687 H   0  0  0  0  0  0  0  0  0  0  0  0
    0.8531    5.8054    0.0581 H   0  0  0  0  0  0  0  0  0  0  0  0
   -3.8242    0.6490   -1.7957 H   0  0  0  0  0  0  0  0  0  0  0  0
   -2.9830    0.1754    2.4115 H   0  0  0  0  0  0  0  0  0  0  0  0
    0.1218   -2.6139   -2.9450 H   0  0  0  0  0  0  0  0  0  0  0  0
    0.9528   -3.0297    1.2881 H   0  0  0  0  0  0  0  0  0  0  0  0
   -5.8520   -0.6181   -1.5565 H   0  0  0  0  0  0  0  0  0  0  0  0
   -5.0566   -1.1247    2.6737 H   0  0  0  0  0  0  0  0  0  0  0  0
    1.7772   -6.0013   -0.3378 H   0  0  0  0  0  0  0  0  0  0  0  0
    2.3601   -4.5573    0.4820 H   0  0  0  0  0  0  0  0  0  0  0  0
    0.6706   -5.1735    0.7523 H   0  0  0  0  0  0  0  0  0  0  0  0
   -7.0146   -2.4805   -1.1803 H   0  0  0  0  0  0  0  0  0  0  0  0
   -8.4227   -2.4869   -0.1239 H   0  0  0  0  0  0  0  0  0  0  0  0
   -7.9299   -0.9493   -0.8249 H   0  0  0  0  0  0  0  0  0  0  0  0
  1 12  1  0  0  0  0
  1 13  1  0  0  0  0
  2 18  1  0  0  0  0
  2 19  1  0  0  0  0
  3 29  1  0  0  0  0
  3 33  1  0  0  0  0
  4 32  1  0  0  0  0
  4 34  1  0  0  0  0
  5  9  1  0  0  0  0
  5 10  1  0  0  0  0
  5 11  1  0  0  0  0
  6 14  1  0  0  0  0
  6 16  1  0  0  0  0
  6 47  1  0  0  0  0
  7 16  1  0  0  0  0
  7 24  2  0  0  0  0
  8 19  2  0  0  0  0
  8 24  1  0  0  0  0
  9 12  1  0  0  0  0
  9 35  1  0  0  0  0
  9 36  1  0  0  0  0
 10 13  1  0  0  0  0
 10 37  1  0  0  0  0
 10 38  1  0  0  0  0
 11 14  1  0  0  0  0
 11 39  1  0  0  0  0
 11 40  1  0  0  0  0
 12 41  1  0  0  0  0
 12 42  1  0  0  0  0
 13 43  1  0  0  0  0
 13 44  1  0  0  0  0
 14 45  1  0  0  0  0
 14 46  1  0  0  0  0
 15 16  2  0  0  0  0
 15 17  1  0  0  0  0
 15 19  1  0  0  0  0
 17 18  2  0  0  0  0
 17 20  1  0  0  0  0
 18 21  1  0  0  0  0
 20 22  2  0  0  0  0
 20 23  1  0  0  0  0
 21 25  2  0  0  0  0
 21 26  1  0  0  0  0
 22 27  1  0  0  0  0
 22 48  1  0  0  0  0
 23 28  2  0  0  0  0
 23 49  1  0  0  0  0
 24 50  1  0  0  0  0
 25 30  1  0  0  0  0
 25 51  1  0  0  0  0
 26 31  2  0  0  0  0
 26 52  1  0  0  0  0
 27 29  2  0  0  0  0
 27 53  1  0  0  0  0
 28 29  1  0  0  0  0
 28 54  1  0  0  0  0
 30 32  2  0  0  0  0
 30 55  1  0  0  0  0
 31 32  1  0  0  0  0
 31 56  1  0  0  0  0
 33 57  1  0  0  0  0
 33 58  1  0  0  0  0
 33 59  1  0  0  0  0
 34 60  1  0  0  0  0
 34 61  1  0  0  0  0
 34 62  1  0  0  0  0
M  END
> <PUBCHEM_COMPOUND_CID>
666358

> <PUBCHEM_CONFORMER_RMSD>
1

> <PUBCHEM_CONFORMER_DIVERSEORDER>
1
15
5
8
13
2
4
9
7
12
10
3
14
11
6

> <PUBCHEM_MMFF94_PARTIAL_CHARGES>
43
1 -0.56
10 0.27
11 0.27
12 0.28
13 0.28
14 0.37
16 0.41
17 -0.05
18 0.09
19 0.4
2 -0.28
20 0.05
21 0.05
22 -0.15
23 -0.15
24 0.47
25 -0.15
26 -0.15
27 -0.15
28 -0.15
29 0.08
3 -0.36
30 -0.15
31 -0.15
32 0.08
33 0.28
34 0.28
4 -0.36
47 0.4
48 0.15
49 0.15
5 -0.81
50 0.15
51 0.15
52 0.15
53 0.15
54 0.15
55 0.15
56 0.15
6 -0.87
7 -0.62
8 -0.57
9 0.27

> <PUBCHEM_EFFECTIVE_ROTOR_COUNT>
9.2

> <PUBCHEM_PHARMACOPHORE_FEATURES>
12
1 1 acceptor
1 3 acceptor
1 4 acceptor
1 5 cation
1 6 cation
1 6 donor
3 7 8 24 cation
5 2 15 17 18 19 rings
6 1 5 9 10 12 13 rings
6 20 22 23 27 28 29 rings
6 21 25 26 30 31 32 rings
6 7 8 15 16 19 24 rings

> <PUBCHEM_HEAVY_ATOM_COUNT>
34

> <PUBCHEM_ATOM_DEF_STEREO_COUNT>
0

> <PUBCHEM_ATOM_UDEF_STEREO_COUNT>
0

> <PUBCHEM_BOND_DEF_STEREO_COUNT>
0

> <PUBCHEM_BOND_UDEF_STEREO_COUNT>
0

> <PUBCHEM_ISOTOPIC_ATOM_COUNT>
0

> <PUBCHEM_COMPONENT_COUNT>
1

> <PUBCHEM_CACTVS_TAUTO_COUNT>
4

> <PUBCHEM_CONFORMER_ID>
000A2AF600000001

> <PUBCHEM_MMFF94_ENERGY>
104.1727

> <PUBCHEM_FEATURE_SELFOVERLAP>
61.024

> <PUBCHEM_SHAPE_FINGERPRINT>
10673678 19 10735883893341179905
10675989 125 16684281669748946863
1100329 8 18268712899308418463
11421498 54 17201669799046631019
11719270 70 18411981373511328319
12166972 35 17821733831468016412
12422481 6 17988086577801681476
12788726 201 18410584963916678092
131258 38 17969493995644122210
1361 2 18340210794546044034
13782708 43 17822007657841267003
14955137 171 18410854382291986587
15927050 60 17835243728591800092
16728300 4 18043231488624533074
19315092 285 16516792655499533002
20028762 73 18129951190488507423
20771845 140 17060068085782978199
25019877 29 17561072623236513014
3178227 256 18267596873963840993
3383291 50 18411427228488647294
34797466 226 15936975270443259005
392239 28 18190470371669909699
4144715 1 17476079025800700770
5309563 4 18410859819519986737
6004065 56 18410011070413038363
6669772 16 18048878786113122596

> <PUBCHEM_SHAPE_MULTIPOLES>
656.3
13.35
5.73
1.49
10.64
1.6
-0.26
-8.79
-4.22
-3.11
0.78
-0.82
-0.76
-0.91

> <PUBCHEM_SHAPE_SELFOVERLAP>
1434.211

> <PUBCHEM_SHAPE_VOLUME>
356.8

> <PUBCHEM_COORDINATE_TYPE>
2
5
10

$$$$
