9550743
  -OEChem-01171809233D

 50 53  0     0  0  0  0  0  0999 V2000
   -7.4723    0.5345   -0.6164 Cl  0  0  0  0  0  0  0  0  0  0  0  0
    4.6209    1.6918   -1.6593 O   0  0  0  0  0  0  0  0  0  0  0  0
    0.2258    2.8133   -0.0423 O   0  0  0  0  0  0  0  0  0  0  0  0
    0.3297   -1.1064   -0.4687 N   0  0  0  0  0  0  0  0  0  0  0  0
    1.1736   -2.4490    1.3317 N   0  0  0  0  0  0  0  0  0  0  0  0
   -0.8519   -0.5861   -0.9099 N   0  0  0  0  0  0  0  0  0  0  0  0
    3.3165    1.4520    0.2466 N   0  0  0  0  0  0  0  0  0  0  0  0
    2.6679   -1.5524   -0.4687 C   0  0  0  0  0  0  0  0  0  0  0  0
    1.6010   -0.9687   -1.0584 C   0  0  0  0  0  0  0  0  0  0  0  0
    4.0947   -1.4892   -0.9211 C   0  0  0  0  0  0  0  0  0  0  0  0
    2.3500   -2.3290    0.7923 C   0  0  0  0  0  0  0  0  0  0  0  0
    0.1422   -1.8320    0.7040 C   0  0  0  0  0  0  0  0  0  0  0  0
    4.8532   -0.3123   -0.3158 C   0  0  0  0  0  0  0  0  0  0  0  0
    1.6566   -0.1647   -2.3312 C   0  0  0  0  0  0  0  0  0  0  0  0
   -1.7548   -0.9865   -0.0173 C   0  0  0  0  0  0  0  0  0  0  0  0
   -1.1986   -1.7616    1.0054 C   0  0  0  0  0  0  0  0  0  0  0  0
    3.4883   -3.0318    1.5021 C   0  0  0  0  0  0  0  0  0  0  0  0
    4.2696    1.0453   -0.6762 C   0  0  0  0  0  0  0  0  0  0  0  0
   -3.1386   -0.6172   -0.1615 C   0  0  0  0  0  0  0  0  0  0  0  0
    2.6194    2.7128    0.1436 C   0  0  0  0  0  0  0  0  0  0  0  0
   -4.0724   -1.0432    0.7804 C   0  0  0  0  0  0  0  0  0  0  0  0
   -3.5392    0.1637   -1.2435 C   0  0  0  0  0  0  0  0  0  0  0  0
    1.2683    2.5925    0.7800 C   0  0  0  0  0  0  0  0  0  0  0  0
   -5.4135   -0.6865    0.6397 C   0  0  0  0  0  0  0  0  0  0  0  0
   -4.8804    0.5203   -1.3842 C   0  0  0  0  0  0  0  0  0  0  0  0
   -5.8176    0.0952   -0.4426 C   0  0  0  0  0  0  0  0  0  0  0  0
    0.8798    2.2998    2.0456 C   0  0  0  0  0  0  0  0  0  0  0  0
   -0.5347    2.3395    2.0190 C   0  0  0  0  0  0  0  0  0  0  0  0
   -0.8836    2.6560    0.7266 C   0  0  0  0  0  0  0  0  0  0  0  0
    4.6271   -2.4208   -0.7050 H   0  0  0  0  0  0  0  0  0  0  0  0
    4.1361   -1.4138   -2.0140 H   0  0  0  0  0  0  0  0  0  0  0  0
    5.8876   -0.3249   -0.6811 H   0  0  0  0  0  0  0  0  0  0  0  0
    4.9185   -0.4003    0.7745 H   0  0  0  0  0  0  0  0  0  0  0  0
    1.3106    0.8590   -2.1536 H   0  0  0  0  0  0  0  0  0  0  0  0
    1.0101   -0.6175   -3.0914 H   0  0  0  0  0  0  0  0  0  0  0  0
    2.6549   -0.0980   -2.7674 H   0  0  0  0  0  0  0  0  0  0  0  0
   -1.6677   -2.2251    1.8614 H   0  0  0  0  0  0  0  0  0  0  0  0
    4.2797   -2.3274    1.7633 H   0  0  0  0  0  0  0  0  0  0  0  0
    3.1275   -3.4863    2.4307 H   0  0  0  0  0  0  0  0  0  0  0  0
    3.8844   -3.8310    0.8698 H   0  0  0  0  0  0  0  0  0  0  0  0
    3.1495    0.8754    1.0669 H   0  0  0  0  0  0  0  0  0  0  0  0
    2.5407    3.0087   -0.9077 H   0  0  0  0  0  0  0  0  0  0  0  0
    3.2165    3.4662    0.6675 H   0  0  0  0  0  0  0  0  0  0  0  0
   -3.8039   -1.6523    1.6381 H   0  0  0  0  0  0  0  0  0  0  0  0
   -2.8400    0.5154   -1.9978 H   0  0  0  0  0  0  0  0  0  0  0  0
   -6.1333   -1.0247    1.3808 H   0  0  0  0  0  0  0  0  0  0  0  0
   -5.1812    1.1301   -2.2324 H   0  0  0  0  0  0  0  0  0  0  0  0
    1.5155    2.0821    2.8917 H   0  0  0  0  0  0  0  0  0  0  0  0
   -1.2151    2.1582    2.8384 H   0  0  0  0  0  0  0  0  0  0  0  0
   -1.8272    2.7978    0.2203 H   0  0  0  0  0  0  0  0  0  0  0  0
  1 26  1  0  0  0  0
  2 18  2  0  0  0  0
  3 23  1  0  0  0  0
  3 29  1  0  0  0  0
  4  6  1  0  0  0  0
  4  9  1  0  0  0  0
  4 12  1  0  0  0  0
  5 11  2  0  0  0  0
  5 12  1  0  0  0  0
  6 15  2  0  0  0  0
  7 18  1  0  0  0  0
  7 20  1  0  0  0  0
  7 41  1  0  0  0  0
  8  9  2  0  0  0  0
  8 10  1  0  0  0  0
  8 11  1  0  0  0  0
  9 14  1  0  0  0  0
 10 13  1  0  0  0  0
 10 30  1  0  0  0  0
 10 31  1  0  0  0  0
 11 17  1  0  0  0  0
 12 16  2  0  0  0  0
 13 18  1  0  0  0  0
 13 32  1  0  0  0  0
 13 33  1  0  0  0  0
 14 34  1  0  0  0  0
 14 35  1  0  0  0  0
 14 36  1  0  0  0  0
 15 16  1  0  0  0  0
 15 19  1  0  0  0  0
 16 37  1  0  0  0  0
 17 38  1  0  0  0  0
 17 39  1  0  0  0  0
 17 40  1  0  0  0  0
 19 21  2  0  0  0  0
 19 22  1  0  0  0  0
 20 23  1  0  0  0  0
 20 42  1  0  0  0  0
 20 43  1  0  0  0  0
 21 24  1  0  0  0  0
 21 44  1  0  0  0  0
 22 25  2  0  0  0  0
 22 45  1  0  0  0  0
 23 27  2  0  0  0  0
 24 26  2  0  0  0  0
 24 46  1  0  0  0  0
 25 26  1  0  0  0  0
 25 47  1  0  0  0  0
 27 28  1  0  0  0  0
 27 48  1  0  0  0  0
 28 29  2  0  0  0  0
 28 49  1  0  0  0  0
 29 50  1  0  0  0  0
M  END
> <PUBCHEM_COMPOUND_CID>
9550743

> <PUBCHEM_CONFORMER_RMSD>
0.8

> <PUBCHEM_CONFORMER_DIVERSEORDER>
27
151
122
106
14
91
88
62
37
26
28
133
129
64
19
76
15
39
119
152
12
42
47
144
136
70
145
68
55
34
128
35
92
18
8
69
149
135
89
22
81
67
21
13
60
134
113
160
132
150
32
20
75
127
9
53
100
126
117
94
2
72
52
125
31
131
3
99
33
155
29
141
16
74
156
108
80
61
17
140
50
85
57
139
44
109
111
1
24
96
40
107
82
148
87
83
79
116
123
105
103
153
86
5
65
10
142
90
54
30
63
77
121
48
143
59
73
25
41
66
23
114
4
115
118
112
102
71
46
45
11
124
51
130
58
104
56
7
110
95
157
120
78
84
97
138
137
43
49
6
98
158
38
93
146
36
159
154
147
101

> <PUBCHEM_MMFF94_PARTIAL_CHARGES>
38
1 -0.18
10 0.14
11 0.37
12 -0.03
13 0.06
14 0.14
15 0.23
16 -0.15
17 0.06
18 0.57
19 0.05
2 -0.57
20 0.48
21 -0.15
22 -0.15
23 -0.04
24 -0.15
25 -0.15
26 0.18
27 -0.15
28 -0.15
29 -0.01
3 -0.28
37 0.15
4 0.6
41 0.37
44 0.15
45 0.15
46 0.15
47 0.15
48 0.15
49 0.15
5 -0.58
50 0.15
6 -0.71
7 -0.73
8 -0.12
9 -0.17

> <PUBCHEM_EFFECTIVE_ROTOR_COUNT>
7

> <PUBCHEM_PHARMACOPHORE_FEATURES>
9
1 2 acceptor
1 3 acceptor
1 5 acceptor
1 6 acceptor
1 7 donor
5 3 23 27 28 29 rings
5 4 6 12 15 16 rings
6 19 21 22 24 25 26 rings
6 4 5 8 9 11 12 rings

> <PUBCHEM_HEAVY_ATOM_COUNT>
29

> <PUBCHEM_ATOM_DEF_STEREO_COUNT>
0

> <PUBCHEM_ATOM_UDEF_STEREO_COUNT>
0

> <PUBCHEM_BOND_DEF_STEREO_COUNT>
0

> <PUBCHEM_BOND_UDEF_STEREO_COUNT>
0

> <PUBCHEM_ISOTOPIC_ATOM_COUNT>
0

> <PUBCHEM_COMPONENT_COUNT>
1

> <PUBCHEM_CACTVS_TAUTO_COUNT>
2

> <PUBCHEM_CONFORMER_ID>
0091BB970000001B

> <PUBCHEM_MMFF94_ENERGY>
55.1823

> <PUBCHEM_FEATURE_SELFOVERLAP>
45.799

> <PUBCHEM_SHAPE_FINGERPRINT>
10675989 125 18269556198784033176
10816530 23 14636023182631171554
11578080 2 18188217623264290819
12107698 1 18130233658061235534
12156800 1 16159012602729410776
12166972 35 18041842783568156831
12788726 201 18200596886672612346
13402501 40 18409448132647926749
13583140 156 18337114587399366443
14251757 17 18333728009764770057
14464042 87 18131074805076979497
14681490 219 18201435891940261009
14787075 74 18335988682717255358
14931854 50 18340220643333503996
15968369 153 17773574067633125737
17492 54 18339938098809761196
1813 80 17703224019220552571
20905425 154 18272654519740168728
21033648 29 18115304608589154680
23559900 14 17748826320196873975
24893992 56 18334011723041869427
5104073 3 17530969030171025179
513532 50 17059482066768925425
5265222 85 17617099548016061016
5895379 119 16772972298162029377
70251023 43 18057333781802490310
7471813 234 18269260280016259382
9981440 41 15580389450329903231

> <PUBCHEM_SHAPE_MULTIPOLES>
567.01
12.05
3.44
1.73
18.71
1.53
0.01
-0.76
4.04
-3.67
-1.89
-0.66
0.22
-0.39

> <PUBCHEM_SHAPE_SELFOVERLAP>
1226.651

> <PUBCHEM_SHAPE_VOLUME>
311.8

> <PUBCHEM_COORDINATE_TYPE>
2
5
10

$$$$
