6524335
  -OEChem-01171810103D

 51 53  0     0  0  0  0  0  0999 V2000
   -0.1671   -0.5450    0.5065 O   0  0  0  0  0  0  0  0  0  0  0  0
    1.6360    0.9721    1.7071 O   0  0  0  0  0  0  0  0  0  0  0  0
   -1.0366   -2.6320   -0.0072 O   0  0  0  0  0  0  0  0  0  0  0  0
    3.4463   -0.2138    0.7900 N   0  0  0  0  0  0  0  0  0  0  0  0
   -2.5236    0.3706   -0.9907 N   0  0  0  0  0  0  0  0  0  0  0  0
   -3.3128    1.4486   -0.8844 N   0  0  0  0  0  0  0  0  0  0  0  0
   -2.1571    1.5253   -2.7894 N   0  0  0  0  0  0  0  0  0  0  0  0
   -3.0841    2.1514   -1.9871 N   0  0  0  0  0  0  0  0  0  0  0  0
    5.6764   -4.2349   -0.8543 N   0  0  0  0  0  0  0  0  0  0  0  0
    4.0308   -1.5592    0.6840 C   0  0  0  0  0  0  0  0  0  0  0  0
    4.2951    0.9375    0.5614 C   0  0  0  0  0  0  0  0  0  0  0  0
    2.0894   -0.0065    1.1063 C   0  0  0  0  0  0  0  0  0  0  0  0
    4.6067   -1.8365   -0.6993 C   0  0  0  0  0  0  0  0  0  0  0  0
    1.1131   -1.1017    0.7171 C   0  0  0  0  0  0  0  0  0  0  0  0
    5.6556    0.8721    0.8623 C   0  0  0  0  0  0  0  0  0  0  0  0
    3.7517    2.1121    0.0408 C   0  0  0  0  0  0  0  0  0  0  0  0
   -2.4286   -0.6770   -0.0340 C   0  0  0  0  0  0  0  0  0  0  0  0
    6.4726    1.9811    0.6424 C   0  0  0  0  0  0  0  0  0  0  0  0
    4.5688    3.2210   -0.1791 C   0  0  0  0  0  0  0  0  0  0  0  0
   -3.4258   -1.0819    0.7839 C   0  0  0  0  0  0  0  0  0  0  0  0
   -1.1509   -1.4258    0.1479 C   0  0  0  0  0  0  0  0  0  0  0  0
   -4.7909   -0.5336    0.8337 C   0  0  0  0  0  0  0  0  0  0  0  0
    5.9291    3.1556    0.1218 C   0  0  0  0  0  0  0  0  0  0  0  0
   -1.8234    0.4259   -2.1536 C   0  0  0  0  0  0  0  0  0  0  0  0
   -5.2767    0.0216    2.0177 C   0  0  0  0  0  0  0  0  0  0  0  0
   -5.5989   -0.5690   -0.3028 C   0  0  0  0  0  0  0  0  0  0  0  0
    5.2044   -3.1771   -0.7850 C   0  0  0  0  0  0  0  0  0  0  0  0
   -0.8583   -0.5976   -2.5947 C   0  0  0  0  0  0  0  0  0  0  0  0
   -6.5704    0.5408    2.0652 C   0  0  0  0  0  0  0  0  0  0  0  0
   -6.8926   -0.0494   -0.2553 C   0  0  0  0  0  0  0  0  0  0  0  0
   -7.3783    0.5055    0.9288 C   0  0  0  0  0  0  0  0  0  0  0  0
    4.7920   -1.6710    1.4655 H   0  0  0  0  0  0  0  0  0  0  0  0
    3.2790   -2.3166    0.9296 H   0  0  0  0  0  0  0  0  0  0  0  0
    3.8110   -1.7466   -1.4490 H   0  0  0  0  0  0  0  0  0  0  0  0
    5.3695   -1.1026   -0.9772 H   0  0  0  0  0  0  0  0  0  0  0  0
    1.4488   -1.5835   -0.2071 H   0  0  0  0  0  0  0  0  0  0  0  0
    1.0749   -1.8314    1.5334 H   0  0  0  0  0  0  0  0  0  0  0  0
    6.1170   -0.0138    1.2859 H   0  0  0  0  0  0  0  0  0  0  0  0
    2.7039    2.1892   -0.2354 H   0  0  0  0  0  0  0  0  0  0  0  0
    7.5314    1.9321    0.8800 H   0  0  0  0  0  0  0  0  0  0  0  0
    4.1475    4.1332   -0.5914 H   0  0  0  0  0  0  0  0  0  0  0  0
   -3.2448   -1.8716    1.5119 H   0  0  0  0  0  0  0  0  0  0  0  0
    6.5654    4.0187   -0.0502 H   0  0  0  0  0  0  0  0  0  0  0  0
   -4.6584    0.0570    2.9114 H   0  0  0  0  0  0  0  0  0  0  0  0
   -5.2440   -1.0070   -1.2327 H   0  0  0  0  0  0  0  0  0  0  0  0
    0.0977   -0.5080   -2.0746 H   0  0  0  0  0  0  0  0  0  0  0  0
   -1.2529   -1.6131   -2.5040 H   0  0  0  0  0  0  0  0  0  0  0  0
   -0.6418   -0.4511   -3.6597 H   0  0  0  0  0  0  0  0  0  0  0  0
   -6.9487    0.9731    2.9870 H   0  0  0  0  0  0  0  0  0  0  0  0
   -7.5226   -0.0790   -1.1394 H   0  0  0  0  0  0  0  0  0  0  0  0
   -8.3858    0.9095    0.9658 H   0  0  0  0  0  0  0  0  0  0  0  0
  1 14  1  0  0  0  0
  1 21  1  0  0  0  0
  2 12  2  0  0  0  0
  3 21  2  0  0  0  0
  4 10  1  0  0  0  0
  4 11  1  0  0  0  0
  4 12  1  0  0  0  0
  5  6  1  0  0  0  0
  5 17  1  0  0  0  0
  5 24  1  0  0  0  0
  6  8  2  0  0  0  0
  7  8  1  0  0  0  0
  7 24  2  0  0  0  0
  9 27  3  0  0  0  0
 10 13  1  0  0  0  0
 10 32  1  0  0  0  0
 10 33  1  0  0  0  0
 11 15  2  0  0  0  0
 11 16  1  0  0  0  0
 12 14  1  0  0  0  0
 13 27  1  0  0  0  0
 13 34  1  0  0  0  0
 13 35  1  0  0  0  0
 14 36  1  0  0  0  0
 14 37  1  0  0  0  0
 15 18  1  0  0  0  0
 15 38  1  0  0  0  0
 16 19  2  0  0  0  0
 16 39  1  0  0  0  0
 17 20  2  0  0  0  0
 17 21  1  0  0  0  0
 18 23  2  0  0  0  0
 18 40  1  0  0  0  0
 19 23  1  0  0  0  0
 19 41  1  0  0  0  0
 20 22  1  0  0  0  0
 20 42  1  0  0  0  0
 22 25  2  0  0  0  0
 22 26  1  0  0  0  0
 23 43  1  0  0  0  0
 24 28  1  0  0  0  0
 25 29  1  0  0  0  0
 25 44  1  0  0  0  0
 26 30  2  0  0  0  0
 26 45  1  0  0  0  0
 28 46  1  0  0  0  0
 28 47  1  0  0  0  0
 28 48  1  0  0  0  0
 29 31  2  0  0  0  0
 29 49  1  0  0  0  0
 30 31  1  0  0  0  0
 30 50  1  0  0  0  0
 31 51  1  0  0  0  0
M  END
> <PUBCHEM_COMPOUND_CID>
6524335

> <PUBCHEM_CONFORMER_RMSD>
1.4

> <PUBCHEM_CONFORMER_DIVERSEORDER>
1
48
55
49
97
11
23
51
78
16
15
27
14
53
73
82
50
74
93
80
75
44
7
33
39
70
94
68
96
3
32
54
67
72
59
87
106
99
62
6
60
58
61
29
43
47
13
107
101
42
83
100
2
20
84
41
31
79
18
91
104
57
30
89
37
38
22
64
77
26
5
17
66
105
65
56
19
102
85
45
28
95
12
98
71
36
9
86
24
35
34
46
76
25
8
88
69
90
63
10
92
52
103
4
21
81
40

> <PUBCHEM_MMFF94_PARTIAL_CHARGES>
41
1 -0.43
10 0.3
11 0.12
12 0.57
13 0.2
14 0.34
15 -0.15
16 -0.15
17 -0.02
18 -0.15
19 -0.15
2 -0.57
20 -0.18
21 0.71
22 0.03
23 -0.15
24 0.01
25 -0.15
26 -0.15
27 0.36
28 0.18
29 -0.15
3 -0.57
30 -0.15
31 -0.15
38 0.15
39 0.15
4 -0.48
40 0.15
41 0.15
42 0.15
43 0.15
44 0.15
45 0.15
49 0.15
5 0.6
50 0.15
51 0.15
6 -0.42
7 -0.34
9 -0.56

> <PUBCHEM_EFFECTIVE_ROTOR_COUNT>
10

> <PUBCHEM_PHARMACOPHORE_FEATURES>
7
1 2 acceptor
1 3 acceptor
1 9 acceptor
3 5 7 24 cation
5 5 6 7 8 24 rings
6 11 15 16 18 19 23 rings
6 22 25 26 29 30 31 rings

> <PUBCHEM_HEAVY_ATOM_COUNT>
31

> <PUBCHEM_ATOM_DEF_STEREO_COUNT>
0

> <PUBCHEM_ATOM_UDEF_STEREO_COUNT>
0

> <PUBCHEM_BOND_DEF_STEREO_COUNT>
1

> <PUBCHEM_BOND_UDEF_STEREO_COUNT>
0

> <PUBCHEM_ISOTOPIC_ATOM_COUNT>
0

> <PUBCHEM_COMPONENT_COUNT>
1

> <PUBCHEM_CACTVS_TAUTO_COUNT>
1

> <PUBCHEM_CONFORMER_ID>
00638DAF00000001

> <PUBCHEM_MMFF94_ENERGY>
100.6917

> <PUBCHEM_FEATURE_SELFOVERLAP>
35.522

> <PUBCHEM_SHAPE_FINGERPRINT>
10 15 17531241803048355616
10554248 39 18131064909672627335
11135926 11 18201429308182079368
12788726 201 16630261241963112738
13782708 43 18261111807796044307
15131766 46 18128811026594672560
15183329 4 16271933718190843657
15392192 104 18338804519601835011
1577012 14 17632582647793526547
15840311 113 18408895014633924465
17844677 252 18334290925163040560
18393751 57 17677049156530247835
21792934 111 17313099753382024125
22122407 14 18129393746725546481
23081809 10 17632578245315209659
255183 451 17986686866279722270
2747138 104 17531258253353088265
392239 28 16371009658803523969
394071 54 18188208801021909844
4073 2 18337676433161272778
46194498 28 18408039607272196926
469060 322 14851877032846974445
5104073 3 17241309292612921344
57724786 102 18201721747761910470

> <PUBCHEM_SHAPE_MULTIPOLES>
590.47
19.52
3.35
1.99
7.7
1.48
-1.15
-4.41
6.01
-9.47
-0.95
2.61
-0.56
1.58

> <PUBCHEM_SHAPE_SELFOVERLAP>
1255.005

> <PUBCHEM_SHAPE_VOLUME>
325.3

> <PUBCHEM_COORDINATE_TYPE>
2
5
10

$$$$
