9660957
  -OEChem-01171809543D

 31 32  0     0  0  0  0  0  0999 V2000
   -4.3298    1.5127   -0.3219 Cl  0  0  0  0  0  0  0  0  0  0  0  0
    1.2180    0.6393   -0.2075 S   0  0  0  0  0  0  0  0  0  0  0  0
   -2.0076   -1.9350    0.4855 S   0  0  0  0  0  0  0  0  0  0  0  0
    1.1081    1.6322    0.8461 O   0  0  0  0  0  0  0  0  0  0  0  0
    1.0219    1.0184   -1.5955 O   0  0  0  0  0  0  0  0  0  0  0  0
   -5.5985   -1.6615   -0.4339 O   0  0  0  0  0  0  0  0  0  0  0  0
   -1.8134    0.5905   -0.1454 N   0  0  0  0  0  0  0  0  0  0  0  0
    0.2844   -0.6581    0.1287 N   0  0  0  0  0  0  0  0  0  0  0  0
   -1.2938    1.9098   -0.4752 C   0  0  0  0  0  0  0  0  0  0  0  0
   -0.9941   -0.5071    0.1124 C   0  0  0  0  0  0  0  0  0  0  0  0
   -3.1745    0.2863   -0.0443 C   0  0  0  0  0  0  0  0  0  0  0  0
   -3.4501   -0.9849    0.2764 C   0  0  0  0  0  0  0  0  0  0  0  0
    2.8650    0.0006   -0.0767 C   0  0  0  0  0  0  0  0  0  0  0  0
   -1.0679    2.7440    0.7687 C   0  0  0  0  0  0  0  0  0  0  0  0
    3.4703   -0.5317   -1.1998 C   0  0  0  0  0  0  0  0  0  0  0  0
    3.5087    0.0467    1.1456 C   0  0  0  0  0  0  0  0  0  0  0  0
    4.7667   -1.0362   -1.0967 C   0  0  0  0  0  0  0  0  0  0  0  0
    4.8052   -0.4577    1.2487 C   0  0  0  0  0  0  0  0  0  0  0  0
   -4.7528   -1.6092    0.4573 C   0  0  0  0  0  0  0  0  0  0  0  0
    5.4341   -0.9991    0.1276 C   0  0  0  0  0  0  0  0  0  0  0  0
   -0.5919    2.0413   -1.2778 H   0  0  0  0  0  0  0  0  0  0  0  0
   -2.0940    2.4516   -0.9997 H   0  0  0  0  0  0  0  0  0  0  0  0
   -1.9871    3.3023    0.9945 H   0  0  0  0  0  0  0  0  0  0  0  0
   -0.8800    2.1658    1.6793 H   0  0  0  0  0  0  0  0  0  0  0  0
   -0.3043    3.5127    0.6110 H   0  0  0  0  0  0  0  0  0  0  0  0
    2.9643   -0.5768   -2.1590 H   0  0  0  0  0  0  0  0  0  0  0  0
    3.0338    0.4547    2.0323 H   0  0  0  0  0  0  0  0  0  0  0  0
    5.2559   -1.4597   -1.9690 H   0  0  0  0  0  0  0  0  0  0  0  0
    5.3242   -0.4313    2.2025 H   0  0  0  0  0  0  0  0  0  0  0  0
   -4.9095   -2.1058    1.4292 H   0  0  0  0  0  0  0  0  0  0  0  0
    6.4430   -1.3929    0.2082 H   0  0  0  0  0  0  0  0  0  0  0  0
  1 11  1  0  0  0  0
  2  4  2  0  0  0  0
  2  5  2  0  0  0  0
  2  8  1  0  0  0  0
  2 13  1  0  0  0  0
  3 10  1  0  0  0  0
  3 12  1  0  0  0  0
  6 19  2  0  0  0  0
  7  9  1  0  0  0  0
  7 10  1  0  0  0  0
  7 11  1  0  0  0  0
  8 10  2  0  0  0  0
  9 14  1  0  0  0  0
  9 21  1  0  0  0  0
  9 22  1  0  0  0  0
 11 12  2  0  0  0  0
 12 19  1  0  0  0  0
 13 15  2  0  0  0  0
 13 16  1  0  0  0  0
 14 23  1  0  0  0  0
 14 24  1  0  0  0  0
 14 25  1  0  0  0  0
 15 17  1  0  0  0  0
 15 26  1  0  0  0  0
 16 18  2  0  0  0  0
 16 27  1  0  0  0  0
 17 20  2  0  0  0  0
 17 28  1  0  0  0  0
 18 20  1  0  0  0  0
 18 29  1  0  0  0  0
 19 30  1  0  0  0  0
 20 31  1  0  0  0  0
M  END
> <PUBCHEM_COMPOUND_CID>
9660957

> <PUBCHEM_CONFORMER_RMSD>
0.6

> <PUBCHEM_CONFORMER_DIVERSEORDER>
1
2

> <PUBCHEM_MMFF94_PARTIAL_CHARGES>
25
1 -0.14
10 0.64
11 0.24
12 0.12
13 -0.01
15 -0.15
16 -0.15
17 -0.15
18 -0.15
19 0.5
2 1.5
20 -0.15
26 0.15
27 0.15
28 0.15
29 0.15
3 -0.24
30 0.06
31 0.15
4 -0.65
5 -0.65
6 -0.57
7 -0.52
8 -0.64
9 0.37

> <PUBCHEM_EFFECTIVE_ROTOR_COUNT>
4

> <PUBCHEM_PHARMACOPHORE_FEATURES>
6
1 4 acceptor
1 5 acceptor
1 6 acceptor
1 8 donor
5 3 7 10 11 12 rings
6 13 15 16 17 18 20 rings

> <PUBCHEM_HEAVY_ATOM_COUNT>
20

> <PUBCHEM_ATOM_DEF_STEREO_COUNT>
0

> <PUBCHEM_ATOM_UDEF_STEREO_COUNT>
0

> <PUBCHEM_BOND_DEF_STEREO_COUNT>
1

> <PUBCHEM_BOND_UDEF_STEREO_COUNT>
0

> <PUBCHEM_ISOTOPIC_ATOM_COUNT>
0

> <PUBCHEM_COMPONENT_COUNT>
1

> <PUBCHEM_CACTVS_TAUTO_COUNT>
1

> <PUBCHEM_CONFORMER_ID>
00936A1D00000001

> <PUBCHEM_MMFF94_ENERGY>
76.9438

> <PUBCHEM_FEATURE_SELFOVERLAP>
30.465

> <PUBCHEM_SHAPE_FINGERPRINT>
10062212 137 18187082862623644963
11046707 91 18333732420585107961
12236239 1 17676489419955999298
12403814 3 13901906678892868291
13288520 33 18411139134386746815
13675066 3 18131628989239272824
13760787 5 16370730313771421294
13862211 1 18408882971097766147
14386348 63 18131071519975532998
15196674 1 18409448106788354593
15885798 251 18341052994503651712
16752209 62 18186234022118986395
17349148 13 18261117369609218575
17804303 29 18409166618884368680
1813 80 18113338617769730172
18222031 100 18341332292232759935
19141452 34 17845935233805719655
193927 3 18334586771142683915
200 152 18186519916748913139
20028762 73 17988077936882299567
20374829 77 18409166619237705567
20403669 9 18412265059810451979
21033648 29 17346301670817835650
21065201 7 18268147561706413392
21267235 1 18334301989283969419
22646028 1 17894911823928886850
2297311 6 18341903978265562990
23175994 123 17775284958652999665
23402539 116 18411133619722436125
23557571 272 18343030968899082527
23559900 14 18413109451145593740
3004659 81 18186523219826638358
314173 85 18341900713890036003
3286 77 18131072683721785793
335352 9 18408885149220535847
4325135 7 18261111924714196340
465052 167 18337962293135834399
5104073 3 18409452509082439025
559249 180 18114456773629335971
59755656 215 18408884006406404719
8863177 126 17607822891551166211

> <PUBCHEM_SHAPE_MULTIPOLES>
393.59
11.58
2.19
1.11
3.05
0.78
-0.08
-5.91
-0.05
-2.59
0.27
1.12
0.09
0.4

> <PUBCHEM_SHAPE_SELFOVERLAP>
803.372

> <PUBCHEM_SHAPE_VOLUME>
228.1

> <PUBCHEM_COORDINATE_TYPE>
2
5
10

$$$$
