16022923
  -OEChem-01171810053D

 70 74  0     0  0  0  0  0  0999 V2000
    3.2234    3.3664   -1.0888 O   0  0  0  0  0  0  0  0  0  0  0  0
   -0.4721    2.1205   -0.6536 N   0  0  0  0  0  0  0  0  0  0  0  0
    4.0245    1.2026   -1.3967 N   0  0  0  0  0  0  0  0  0  0  0  0
   -1.8519    3.3587    0.9260 N   0  0  0  0  0  0  0  0  0  0  0  0
   -3.8573   -0.4622    0.1836 N   0  0  0  0  0  0  0  0  0  0  0  0
   -2.7071    0.0500   -0.2985 N   0  0  0  0  0  0  0  0  0  0  0  0
   -3.0208    3.5281    1.7892 N   0  0  0  0  0  0  0  0  0  0  0  0
    1.8919    1.8033   -2.3091 C   0  0  0  0  0  0  0  0  0  0  0  0
    0.9195    2.9645   -2.5049 C   0  0  0  0  0  0  0  0  0  0  0  0
    1.2075    0.6136   -1.6388 C   0  0  0  0  0  0  0  0  0  0  0  0
    0.1316    3.3193   -1.2421 C   0  0  0  0  0  0  0  0  0  0  0  0
    0.4401    1.0044   -0.3760 C   0  0  0  0  0  0  0  0  0  0  0  0
    3.1011    2.2257   -1.5271 C   0  0  0  0  0  0  0  0  0  0  0  0
   -1.6036    2.2469    0.1609 C   0  0  0  0  0  0  0  0  0  0  0  0
   -2.6022    1.2566    0.2846 C   0  0  0  0  0  0  0  0  0  0  0  0
   -3.7397    1.4626    1.1470 C   0  0  0  0  0  0  0  0  0  0  0  0
   -4.5211    0.3472    1.0599 C   0  0  0  0  0  0  0  0  0  0  0  0
    5.2847    1.3584   -0.7069 C   0  0  0  0  0  0  0  0  0  0  0  0
   -3.9918    2.5854    1.9206 C   0  0  0  0  0  0  0  0  0  0  0  0
   -5.7990   -0.0325    1.6966 C   0  0  0  0  0  0  0  0  0  0  0  0
    5.7532    0.0751   -0.0802 C   0  0  0  0  0  0  0  0  0  0  0  0
   -4.2650   -1.7311   -0.2313 C   0  0  0  0  0  0  0  0  0  0  0  0
   -5.1388    2.8523    2.8240 C   0  0  0  0  0  0  0  0  0  0  0  0
    5.3767   -0.2306    1.2215 C   0  0  0  0  0  0  0  0  0  0  0  0
    6.5576   -0.7908   -0.8104 C   0  0  0  0  0  0  0  0  0  0  0  0
   -5.6197   -2.0293   -0.2898 C   0  0  0  0  0  0  0  0  0  0  0  0
   -3.3103   -2.6770   -0.5801 C   0  0  0  0  0  0  0  0  0  0  0  0
    6.6197   -2.2971    1.0776 C   0  0  0  0  0  0  0  0  0  0  0  0
    5.8118   -1.4216    1.8028 C   0  0  0  0  0  0  0  0  0  0  0  0
    6.9926   -1.9818   -0.2291 C   0  0  0  0  0  0  0  0  0  0  0  0
   -6.0274   -3.2971   -0.7045 C   0  0  0  0  0  0  0  0  0  0  0  0
   -3.7181   -3.9448   -0.9949 C   0  0  0  0  0  0  0  0  0  0  0  0
   -5.0767   -4.2547   -1.0572 C   0  0  0  0  0  0  0  0  0  0  0  0
    7.0840   -3.5709    1.6988 C   0  0  0  0  0  0  0  0  0  0  0  0
   -5.5128   -5.6101   -1.5012 C   0  0  0  0  0  0  0  0  0  0  0  0
    8.4155   -3.4100    2.4278 C   0  0  0  0  0  0  0  0  0  0  0  0
    2.2538    1.4912   -3.2982 H   0  0  0  0  0  0  0  0  0  0  0  0
    0.2012    2.6776   -3.2849 H   0  0  0  0  0  0  0  0  0  0  0  0
    1.4366    3.8571   -2.8773 H   0  0  0  0  0  0  0  0  0  0  0  0
    1.9010   -0.1985   -1.3973 H   0  0  0  0  0  0  0  0  0  0  0  0
    0.4896    0.1903   -2.3548 H   0  0  0  0  0  0  0  0  0  0  0  0
    0.7721    3.8094   -0.5003 H   0  0  0  0  0  0  0  0  0  0  0  0
   -0.6481    4.0398   -1.5198 H   0  0  0  0  0  0  0  0  0  0  0  0
   -0.0900    0.1175   -0.0128 H   0  0  0  0  0  0  0  0  0  0  0  0
    1.1390    1.2984    0.4172 H   0  0  0  0  0  0  0  0  0  0  0  0
    3.8757    0.3345   -1.9028 H   0  0  0  0  0  0  0  0  0  0  0  0
    6.0158    1.7180   -1.4408 H   0  0  0  0  0  0  0  0  0  0  0  0
    5.1957    2.1466    0.0503 H   0  0  0  0  0  0  0  0  0  0  0  0
   -6.6602    0.3024    1.1107 H   0  0  0  0  0  0  0  0  0  0  0  0
   -5.8726   -1.0940    1.9483 H   0  0  0  0  0  0  0  0  0  0  0  0
   -5.8987    0.4370    2.6781 H   0  0  0  0  0  0  0  0  0  0  0  0
   -6.0912    2.7133    2.3048 H   0  0  0  0  0  0  0  0  0  0  0  0
   -5.0916    2.2088    3.7070 H   0  0  0  0  0  0  0  0  0  0  0  0
   -5.1118    3.8897    3.1749 H   0  0  0  0  0  0  0  0  0  0  0  0
    4.7461    0.4439    1.7941 H   0  0  0  0  0  0  0  0  0  0  0  0
    6.8526   -0.5556   -1.8292 H   0  0  0  0  0  0  0  0  0  0  0  0
   -6.4144   -1.3057   -0.1716 H   0  0  0  0  0  0  0  0  0  0  0  0
   -2.2445   -2.4697   -0.5314 H   0  0  0  0  0  0  0  0  0  0  0  0
    5.5153   -1.6552    2.8220 H   0  0  0  0  0  0  0  0  0  0  0  0
    7.6228   -2.6550   -0.8042 H   0  0  0  0  0  0  0  0  0  0  0  0
   -7.0891   -3.5179   -0.7798 H   0  0  0  0  0  0  0  0  0  0  0  0
   -2.9681   -4.6829   -1.2665 H   0  0  0  0  0  0  0  0  0  0  0  0
    7.1814   -4.3483    0.9307 H   0  0  0  0  0  0  0  0  0  0  0  0
    6.3273   -3.9426    2.4011 H   0  0  0  0  0  0  0  0  0  0  0  0
   -6.4558   -5.8978   -1.0239 H   0  0  0  0  0  0  0  0  0  0  0  0
   -5.6508   -5.6233   -2.5869 H   0  0  0  0  0  0  0  0  0  0  0  0
   -4.7727   -6.3712   -1.2320 H   0  0  0  0  0  0  0  0  0  0  0  0
    8.3396   -2.6710    3.2327 H   0  0  0  0  0  0  0  0  0  0  0  0
    8.7222   -4.3635    2.8691 H   0  0  0  0  0  0  0  0  0  0  0  0
    9.2048   -3.0821    1.7429 H   0  0  0  0  0  0  0  0  0  0  0  0
  1 13  2  0  0  0  0
  2 11  1  0  0  0  0
  2 12  1  0  0  0  0
  2 14  1  0  0  0  0
  3 13  1  0  0  0  0
  3 18  1  0  0  0  0
  3 46  1  0  0  0  0
  4  7  1  0  0  0  0
  4 14  2  0  0  0  0
  5  6  1  0  0  0  0
  5 17  1  0  0  0  0
  5 22  1  0  0  0  0
  6 15  2  0  0  0  0
  7 19  2  0  0  0  0
  8  9  1  0  0  0  0
  8 10  1  0  0  0  0
  8 13  1  0  0  0  0
  8 37  1  0  0  0  0
  9 11  1  0  0  0  0
  9 38  1  0  0  0  0
  9 39  1  0  0  0  0
 10 12  1  0  0  0  0
 10 40  1  0  0  0  0
 10 41  1  0  0  0  0
 11 42  1  0  0  0  0
 11 43  1  0  0  0  0
 12 44  1  0  0  0  0
 12 45  1  0  0  0  0
 14 15  1  0  0  0  0
 15 16  1  0  0  0  0
 16 17  2  0  0  0  0
 16 19  1  0  0  0  0
 17 20  1  0  0  0  0
 18 21  1  0  0  0  0
 18 47  1  0  0  0  0
 18 48  1  0  0  0  0
 19 23  1  0  0  0  0
 20 49  1  0  0  0  0
 20 50  1  0  0  0  0
 20 51  1  0  0  0  0
 21 24  2  0  0  0  0
 21 25  1  0  0  0  0
 22 26  2  0  0  0  0
 22 27  1  0  0  0  0
 23 52  1  0  0  0  0
 23 53  1  0  0  0  0
 23 54  1  0  0  0  0
 24 29  1  0  0  0  0
 24 55  1  0  0  0  0
 25 30  2  0  0  0  0
 25 56  1  0  0  0  0
 26 31  1  0  0  0  0
 26 57  1  0  0  0  0
 27 32  2  0  0  0  0
 27 58  1  0  0  0  0
 28 29  2  0  0  0  0
 28 30  1  0  0  0  0
 28 34  1  0  0  0  0
 29 59  1  0  0  0  0
 30 60  1  0  0  0  0
 31 33  2  0  0  0  0
 31 61  1  0  0  0  0
 32 33  1  0  0  0  0
 32 62  1  0  0  0  0
 33 35  1  0  0  0  0
 34 36  1  0  0  0  0
 34 63  1  0  0  0  0
 34 64  1  0  0  0  0
 35 65  1  0  0  0  0
 35 66  1  0  0  0  0
 35 67  1  0  0  0  0
 36 68  1  0  0  0  0
 36 69  1  0  0  0  0
 36 70  1  0  0  0  0
M  END
> <PUBCHEM_COMPOUND_CID>
16022923

> <PUBCHEM_CONFORMER_RMSD>
1

> <PUBCHEM_CONFORMER_DIVERSEORDER>
13
141
50
126
121
130
37
189
123
117
43
85
188
22
132
206
118
164
197
63
38
62
40
104
193
45
99
79
167
192
125
101
124
103
144
94
31
90
166
187
173
84
161
157
70
191
138
142
34
140
131
77
29
190
207
61
148
128
107
80
169
129
95
106
60
75
199
180
174
158
201
12
175
151
6
64
195
52
146
39
105
44
68
109
87
203
21
145
35
47
73
122
102
200
114
155
165
9
51
74
177
20
15
150
113
97
186
119
185
41
91
143
55
168
1
57
26
16
72
4
170
82
159
59
53
27
178
160
36
65
152
92
88
184
163
71
176
116
32
182
183
194
198
76
136
89
18
205
112
162
42
120
153
134
83
56
108
78
137
139
49
127
8
196
67
149
135
58
17
202
181
115
48
14
30
100
179
98
3
111
93
147
69
28
54
110
33
25
86
81
11
66
23
19
7
171
24
156
96
10
172
133
2
46
154
5
204

> <PUBCHEM_MMFF94_PARTIAL_CHARGES>
41
1 -0.57
11 0.37
12 0.37
13 0.57
14 0.41
15 0.29
17 -0.33
18 0.44
19 0.17
2 -0.84
20 0.18
21 -0.14
22 -0.02
23 0.14
24 -0.15
25 -0.15
26 -0.15
27 -0.15
28 -0.14
29 -0.15
3 -0.73
30 -0.15
31 -0.15
32 -0.15
33 -0.14
34 0.14
35 0.14
4 -0.31
46 0.37
5 0.59
55 0.15
56 0.15
57 0.15
58 0.15
59 0.15
6 -0.71
60 0.15
61 0.15
62 0.15
7 -0.31
8 0.06

> <PUBCHEM_EFFECTIVE_ROTOR_COUNT>
8.2

> <PUBCHEM_PHARMACOPHORE_FEATURES>
11
1 1 acceptor
1 3 donor
1 36 hydrophobe
1 6 acceptor
1 7 acceptor
3 2 4 14 cation
5 5 6 15 16 17 rings
6 2 8 9 10 11 12 rings
6 21 24 25 28 29 30 rings
6 22 26 27 31 32 33 rings
6 4 7 14 15 16 19 rings

> <PUBCHEM_HEAVY_ATOM_COUNT>
36

> <PUBCHEM_ATOM_DEF_STEREO_COUNT>
0

> <PUBCHEM_ATOM_UDEF_STEREO_COUNT>
0

> <PUBCHEM_BOND_DEF_STEREO_COUNT>
0

> <PUBCHEM_BOND_UDEF_STEREO_COUNT>
0

> <PUBCHEM_ISOTOPIC_ATOM_COUNT>
0

> <PUBCHEM_COMPONENT_COUNT>
1

> <PUBCHEM_CACTVS_TAUTO_COUNT>
2

> <PUBCHEM_CONFORMER_ID>
00F47D8B0000000D

> <PUBCHEM_MMFF94_ENERGY>
118.9647

> <PUBCHEM_FEATURE_SELFOVERLAP>
55.96

> <PUBCHEM_SHAPE_FINGERPRINT>
10049733 73 18194114123831346742
10319926 262 17845946134469575092
10571361 74 18337389460763488446
10622 236 18336263560608095975
11399510 152 17774141518574240706
11478447 58 17617935181259167838
11607047 403 17695053797291297264
11963148 33 17337869782754309485
12422481 6 18272657792731881406
131258 38 17619335954497523206
13560911 23 17989208135850659376
14068700 675 18411415158796881203
14289278 72 18058459716627688582
14784336 7 18194682798479294721
14950920 106 18272364236139319424
15131766 46 11815901115685390787
15320294 125 18338529568832855893
15467298 65 18409735088414922390
16096371 109 14548466752713652068
16728300 4 18339919437119228519
16993089 31 16733283299768977051
16993427 108 18127682941203688727
19246450 95 18049448036794428937
19303781 99 17241329058980578842
20156587 161 18267008626100301718
20775438 99 17896316008189810178
21585483 132 18264762349582761262
21792965 215 13038369003710702043
260245 28 18192423285295853286
3504750 166 18338796715076233692
354706 109 17845660235681584623
3882209 13 16554506183774422543
44426701 291 18121747678203794631
44880168 125 18120086183681386178
4756088 132 16759436575084806335
50080093 196 18187644639909434418
5085150 59 18131072632609433663
513202 73 17531534165930912964
6058803 2 18193862524515272117
6201320 221 18193538172806264575
6201460 15 18264204875976431570
6691757 9 18130233645150434089
6695519 79 15051742992421438941
6712543 237 18200592484827343706
9555976 147 18130793334537368978
96874 4 18335976562578288286

> <PUBCHEM_SHAPE_MULTIPOLES>
705.11
21.88
6.79
2.42
32.35
5.71
-0.62
26.96
-10.28
-7.29
1.16
0.62
-1.11
-10.94

> <PUBCHEM_SHAPE_SELFOVERLAP>
1525.619

> <PUBCHEM_SHAPE_VOLUME>
385.4

> <PUBCHEM_COORDINATE_TYPE>
2
5
10

$$$$
