3509505
  -OEChem-01171809473D

 31 32  0     0  0  0  0  0  0999 V2000
   -2.2956    1.2619   -0.3641 S   0  0  0  0  0  0  0  0  0  0  0  0
    5.4805   -1.0035    0.4279 O   0  0  0  0  0  0  0  0  0  0  0  0
    0.2953    2.5249    0.2162 O   0  0  0  0  0  0  0  0  0  0  0  0
   -6.6027   -0.4576    0.2669 O   0  0  0  0  0  0  0  0  0  0  0  0
   -4.6825   -0.6864    1.4578 O   0  0  0  0  0  0  0  0  0  0  0  0
   -0.8059    0.4750   -0.2616 C   0  0  0  0  0  0  0  0  0  0  0  0
   -3.0694   -0.2290   -0.6974 C   0  0  0  0  0  0  0  0  0  0  0  0
    1.7071    0.7009    0.1356 C   0  0  0  0  0  0  0  0  0  0  0  0
    0.3855    1.2995    0.0326 C   0  0  0  0  0  0  0  0  0  0  0  0
   -0.8435   -0.8550   -0.4634 C   0  0  0  0  0  0  0  0  0  0  0  0
   -2.1787   -1.2796   -0.7219 C   0  0  0  0  0  0  0  0  0  0  0  0
   -4.5314   -0.2563   -0.9194 C   0  0  0  0  0  0  0  0  0  0  0  0
    2.5115    0.5890   -0.9985 C   0  0  0  0  0  0  0  0  0  0  0  0
    2.1706    0.2396    1.3677 C   0  0  0  0  0  0  0  0  0  0  0  0
    4.2428   -0.4457    0.3318 C   0  0  0  0  0  0  0  0  0  0  0  0
    3.7793    0.0155   -0.9003 C   0  0  0  0  0  0  0  0  0  0  0  0
    3.4385   -0.3337    1.4657 C   0  0  0  0  0  0  0  0  0  0  0  0
   -5.2523   -0.4743    0.3946 C   0  0  0  0  0  0  0  0  0  0  0  0
    6.2509   -1.0852   -0.7702 C   0  0  0  0  0  0  0  0  0  0  0  0
    0.0062   -1.5248   -0.4380 H   0  0  0  0  0  0  0  0  0  0  0  0
   -2.4666   -2.3051   -0.9156 H   0  0  0  0  0  0  0  0  0  0  0  0
   -4.7957   -1.0794   -1.5928 H   0  0  0  0  0  0  0  0  0  0  0  0
   -4.8884    0.6797   -1.3632 H   0  0  0  0  0  0  0  0  0  0  0  0
    2.1597    0.9456   -1.9633 H   0  0  0  0  0  0  0  0  0  0  0  0
    1.5526    0.3220    2.2581 H   0  0  0  0  0  0  0  0  0  0  0  0
    4.3514   -0.0402   -1.8201 H   0  0  0  0  0  0  0  0  0  0  0  0
    3.7942   -0.6909    2.4282 H   0  0  0  0  0  0  0  0  0  0  0  0
    6.4816   -0.0913   -1.1688 H   0  0  0  0  0  0  0  0  0  0  0  0
    5.7707   -1.7297   -1.5143 H   0  0  0  0  0  0  0  0  0  0  0  0
    7.2053   -1.5542   -0.5094 H   0  0  0  0  0  0  0  0  0  0  0  0
   -7.0534   -0.6213    1.1227 H   0  0  0  0  0  0  0  0  0  0  0  0
  1  6  1  0  0  0  0
  1  7  1  0  0  0  0
  2 15  1  0  0  0  0
  2 19  1  0  0  0  0
  3  9  2  0  0  0  0
  4 18  1  0  0  0  0
  4 31  1  0  0  0  0
  5 18  2  0  0  0  0
  6  9  1  0  0  0  0
  6 10  2  0  0  0  0
  7 11  2  0  0  0  0
  7 12  1  0  0  0  0
  8  9  1  0  0  0  0
  8 13  2  0  0  0  0
  8 14  1  0  0  0  0
 10 11  1  0  0  0  0
 10 20  1  0  0  0  0
 11 21  1  0  0  0  0
 12 18  1  0  0  0  0
 12 22  1  0  0  0  0
 12 23  1  0  0  0  0
 13 16  1  0  0  0  0
 13 24  1  0  0  0  0
 14 17  2  0  0  0  0
 14 25  1  0  0  0  0
 15 16  2  0  0  0  0
 15 17  1  0  0  0  0
 16 26  1  0  0  0  0
 17 27  1  0  0  0  0
 19 28  1  0  0  0  0
 19 29  1  0  0  0  0
 19 30  1  0  0  0  0
M  END
> <PUBCHEM_COMPOUND_CID>
3509505

> <PUBCHEM_CONFORMER_RMSD>
0.8

> <PUBCHEM_CONFORMER_DIVERSEORDER>
2
24
22
13
29
25
4
11
26
8
6
5
3
21
18
20
17
27
9
10
1
16
12
28
19
7
15
23
14

> <PUBCHEM_MMFF94_PARTIAL_CHARGES>
26
1 -0.08
10 -0.15
11 -0.15
12 0.24
13 -0.15
14 -0.15
15 0.08
16 -0.15
17 -0.15
18 0.66
19 0.28
2 -0.36
20 0.15
21 0.15
24 0.15
25 0.15
26 0.15
27 0.15
3 -0.57
31 0.5
4 -0.65
5 -0.57
6 -0.05
7 -0.14
8 0.09
9 0.57

> <PUBCHEM_EFFECTIVE_ROTOR_COUNT>
5

> <PUBCHEM_PHARMACOPHORE_FEATURES>
7
1 2 acceptor
1 3 acceptor
1 4 acceptor
1 5 acceptor
3 4 5 18 anion
5 1 6 7 10 11 rings
6 8 13 14 15 16 17 rings

> <PUBCHEM_HEAVY_ATOM_COUNT>
19

> <PUBCHEM_ATOM_DEF_STEREO_COUNT>
0

> <PUBCHEM_ATOM_UDEF_STEREO_COUNT>
0

> <PUBCHEM_BOND_DEF_STEREO_COUNT>
0

> <PUBCHEM_BOND_UDEF_STEREO_COUNT>
0

> <PUBCHEM_ISOTOPIC_ATOM_COUNT>
0

> <PUBCHEM_COMPONENT_COUNT>
1

> <PUBCHEM_CACTVS_TAUTO_COUNT>
1

> <PUBCHEM_CONFORMER_ID>
00358D0100000002

> <PUBCHEM_MMFF94_ENERGY>
53.322

> <PUBCHEM_FEATURE_SELFOVERLAP>
35.581

> <PUBCHEM_SHAPE_FINGERPRINT>
11089746 13 15841547462330533169
11543360 7 15647049374172680669
117890 112 12823304494049895163
12236239 1 17894630319014012396
12507557 5 12463566305211936083
12553582 1 18335966632360133514
12596602 18 17703504497596253995
12616999 72 16226038977676850490
12670546 56 15913054192569094123
12714333 28 8502655904769896999
12730499 353 14129062491410231048
128620 24 10953731201725928235
12969540 114 7925631064415167529
13140716 1 18127124393490758475
13403585 85 15052015649972897123
13533116 47 12463304574416196188
13583140 156 13686291418099721423
13675066 3 17275389841459048333
13685833 64 18413389830520509014
13760787 5 18335414716562694501
13862211 1 18342173388900821911
14123256 10 12829491454331850951
14251718 22 15430037655912359275
14251764 18 17346596408595513909
14528608 73 12035445051915592463
14576447 43 17385720271313217752
14617045 38 18343023268339719150
15188451 53 17131257087130859663
15527383 91 16559029398522129296
15537594 2 18335133194099373762
15885798 251 18272931635087742657
17834072 33 16008749117091885703
17844677 252 17167583782727968293
1813 80 18412835676428319972
19141452 34 17560794467878891407
19489759 90 15123509212068458055
19784866 140 18113335284801170634
200 152 16732699441445330844
20157964 124 12823024105752638373
20645477 70 15213567954636199946
21150785 3 17240772783263800254
21267235 1 18409735045253375878
21618674 57 17060620005506080290
221357 26 14923940146118221150
22182313 1 18058172722254057821
22849341 161 18271817842704419697
22950370 63 18040155136741418529
2297311 6 18341335505031814852
23402539 116 14549012187495228265
23402655 69 15140954024572765140
23559900 14 18342449392157905268
26918003 58 15841548591437661046
2767999 5 9439401324322521638
2838139 119 14045739288665427923
3004659 81 18113899360273380982
314173 85 18272080600308248848
328317 168 7997971275622133077
3472631 163 9006760009137607602
351380 180 14908184157577390211
351380 3 18334572434568275514
3545911 37 10807937089232590412
42 15 17275102846890284077
4325135 7 13984663659045836459
465052 167 18261964041392795563
4990 188 14779537976716931881
5104073 3 17845371223090107499
5207 217 8142078758943488849
57003041 33 8790889583762002371
59755656 215 18342736265402235287
8863177 126 17969793067038359523

> <PUBCHEM_SHAPE_MULTIPOLES>
371.38
13.65
1.41
1.19
2.76
0.62
-0.28
-6.28
-0.91
-0.12
0.1
-0.32
-0.12
0.23

> <PUBCHEM_SHAPE_SELFOVERLAP>
784.5

> <PUBCHEM_SHAPE_VOLUME>
210

> <PUBCHEM_COORDINATE_TYPE>
2
5
10

$$$$
