5309086
  -OEChem-01171809193D

 37 38  0     0  0  0  0  0  0999 V2000
    7.4493    1.8324   -0.3048 Cl  0  0  0  0  0  0  0  0  0  0  0  0
   -2.4575   -0.1076   -0.4131 S   0  0  0  0  0  0  0  0  0  0  0  0
    1.8770   -1.7808   -0.1913 O   0  0  0  0  0  0  0  0  0  0  0  0
   -6.2831    0.5590    0.3232 O   0  0  0  0  0  0  0  0  0  0  0  0
   -5.0255    0.8180   -1.5900 O   0  0  0  0  0  0  0  0  0  0  0  0
    0.8963    0.0663    0.6698 N   0  0  0  0  0  0  0  0  0  0  0  0
   -0.0284   -0.9394    0.5518 C   0  0  0  0  0  0  0  0  0  0  0  0
    0.5628   -2.0627    0.0292 C   0  0  0  0  0  0  0  0  0  0  0  0
   -1.4258   -0.7333    0.9574 C   0  0  0  0  0  0  0  0  0  0  0  0
    1.9929   -0.4902    0.2178 C   0  0  0  0  0  0  0  0  0  0  0  0
    3.3149    0.0726    0.0906 C   0  0  0  0  0  0  0  0  0  0  0  0
    0.1020   -3.4115   -0.3169 C   0  0  0  0  0  0  0  0  0  0  0  0
    4.3560   -0.7012   -0.4218 C   0  0  0  0  0  0  0  0  0  0  0  0
    3.5521    1.3909    0.4805 C   0  0  0  0  0  0  0  0  0  0  0  0
   -4.0240   -0.0004    0.4791 C   0  0  0  0  0  0  0  0  0  0  0  0
    5.6346   -0.1569   -0.5442 C   0  0  0  0  0  0  0  0  0  0  0  0
    4.8306    1.9350    0.3579 C   0  0  0  0  0  0  0  0  0  0  0  0
    5.8718    1.1611   -0.1544 C   0  0  0  0  0  0  0  0  0  0  0  0
   -5.1300    0.5064   -0.4120 C   0  0  0  0  0  0  0  0  0  0  0  0
   -7.4422    1.0217   -0.3776 C   0  0  0  0  0  0  0  0  0  0  0  0
   -8.6237    1.0206    0.5687 C   0  0  0  0  0  0  0  0  0  0  0  0
   -1.8575   -1.6723    1.3200 H   0  0  0  0  0  0  0  0  0  0  0  0
   -1.4672   -0.0108    1.7797 H   0  0  0  0  0  0  0  0  0  0  0  0
   -0.5480   -3.8135    0.4663 H   0  0  0  0  0  0  0  0  0  0  0  0
   -0.4626   -3.3929   -1.2541 H   0  0  0  0  0  0  0  0  0  0  0  0
    0.9429   -4.1013   -0.4402 H   0  0  0  0  0  0  0  0  0  0  0  0
    4.2117   -1.7316   -0.7363 H   0  0  0  0  0  0  0  0  0  0  0  0
    2.7559    2.0127    0.8825 H   0  0  0  0  0  0  0  0  0  0  0  0
   -4.2983   -0.9960    0.8402 H   0  0  0  0  0  0  0  0  0  0  0  0
   -3.9108    0.6913    1.3190 H   0  0  0  0  0  0  0  0  0  0  0  0
    6.4367   -0.7714   -0.9450 H   0  0  0  0  0  0  0  0  0  0  0  0
    5.0011    2.9635    0.6658 H   0  0  0  0  0  0  0  0  0  0  0  0
   -7.2643    2.0380   -0.7465 H   0  0  0  0  0  0  0  0  0  0  0  0
   -7.6459    0.3574   -1.2247 H   0  0  0  0  0  0  0  0  0  0  0  0
   -9.5291    1.3697    0.0644 H   0  0  0  0  0  0  0  0  0  0  0  0
   -8.8029    0.0139    0.9603 H   0  0  0  0  0  0  0  0  0  0  0  0
   -8.4276    1.6667    1.4308 H   0  0  0  0  0  0  0  0  0  0  0  0
  1 18  1  0  0  0  0
  2  9  1  0  0  0  0
  2 15  1  0  0  0  0
  3  8  1  0  0  0  0
  3 10  1  0  0  0  0
  4 19  1  0  0  0  0
  4 20  1  0  0  0  0
  5 19  2  0  0  0  0
  6  7  1  0  0  0  0
  6 10  2  0  0  0  0
  7  8  2  0  0  0  0
  7  9  1  0  0  0  0
  8 12  1  0  0  0  0
  9 22  1  0  0  0  0
  9 23  1  0  0  0  0
 10 11  1  0  0  0  0
 11 13  2  0  0  0  0
 11 14  1  0  0  0  0
 12 24  1  0  0  0  0
 12 25  1  0  0  0  0
 12 26  1  0  0  0  0
 13 16  1  0  0  0  0
 13 27  1  0  0  0  0
 14 17  2  0  0  0  0
 14 28  1  0  0  0  0
 15 19  1  0  0  0  0
 15 29  1  0  0  0  0
 15 30  1  0  0  0  0
 16 18  2  0  0  0  0
 16 31  1  0  0  0  0
 17 18  1  0  0  0  0
 17 32  1  0  0  0  0
 20 21  1  0  0  0  0
 20 33  1  0  0  0  0
 20 34  1  0  0  0  0
 21 35  1  0  0  0  0
 21 36  1  0  0  0  0
 21 37  1  0  0  0  0
M  END
> <PUBCHEM_COMPOUND_CID>
5309086

> <PUBCHEM_CONFORMER_RMSD>
0.8

> <PUBCHEM_CONFORMER_DIVERSEORDER>
1
103
115
91
121
64
31
4
102
107
13
86
66
88
101
10
83
113
32
8
73
105
54
38
58
80
75
27
15
22
95
78
50
62
114
19
42
77
7
122
90
53
40
43
79
17
69
100
21
29
16
61
87
70
74
108
41
23
99
35
11
14
76
97
18
82
24
48
47
71
46
120
67
85
39
12
2
59
33
112
110
119
60
49
3
9
111
28
45
98
25
34
84
52
63
104
6
94
65
26
106
20
56
72
30
81
37
96
36
92
116
93
51
5
109
44
57
118
117
55
89
68

> <PUBCHEM_MMFF94_PARTIAL_CHARGES>
24
1 -0.18
10 0.43
11 0.05
12 0.18
13 -0.15
14 -0.15
15 0.29
16 -0.15
17 -0.15
18 0.18
19 0.66
2 -0.46
20 0.28
27 0.15
28 0.15
3 -0.28
31 0.15
32 0.15
4 -0.43
5 -0.57
6 -0.57
7 0.05
8 -0.04
9 0.41

> <PUBCHEM_EFFECTIVE_ROTOR_COUNT>
7

> <PUBCHEM_PHARMACOPHORE_FEATURES>
3
1 5 acceptor
5 3 6 7 8 10 rings
6 11 13 14 16 17 18 rings

> <PUBCHEM_HEAVY_ATOM_COUNT>
21

> <PUBCHEM_ATOM_DEF_STEREO_COUNT>
0

> <PUBCHEM_ATOM_UDEF_STEREO_COUNT>
0

> <PUBCHEM_BOND_DEF_STEREO_COUNT>
0

> <PUBCHEM_BOND_UDEF_STEREO_COUNT>
0

> <PUBCHEM_ISOTOPIC_ATOM_COUNT>
0

> <PUBCHEM_COMPONENT_COUNT>
1

> <PUBCHEM_CACTVS_TAUTO_COUNT>
1

> <PUBCHEM_CONFORMER_ID>
0051029E00000001

> <PUBCHEM_MMFF94_ENERGY>
28.4384

> <PUBCHEM_FEATURE_SELFOVERLAP>
15.223

> <PUBCHEM_SHAPE_FINGERPRINT>
10 15 17530684324893675713
106641 1 12685095903976520604
11646440 116 17967538960843294109
11796584 16 13398620663159215589
12730499 353 18335986376652152755
13073987 5 16805879573322258609
13533116 47 17240755125946495114
13668630 136 11455885867656354637
13673619 4 11672064142743140555
14216079 64 9943811079948005661
14251764 18 11818998474273972521
14933364 13 18411138035281378833
15183329 4 15913332390216784561
15690457 1 11314312767633360129
15706992 2 16877955962105666276
1768 4 18335709364436743097
17980427 23 17386292111643811559
18006028 8 9439405730779430970
18335252 114 18343295955359414565
20157964 124 18412546488011962286
20281389 69 17749105578057914525
20735858 18 14417852540534282761
21033648 29 18264199374212256112
21521239 73 16845582985150504822
221357 26 17989207027680310632
22224240 67 17822010917615930147
23559900 14 17916869162036749592
2838139 119 18187916309475073884
28498 318 10447930556092748281
293599 30 18409447016135498358
29717793 49 17060344006986887108
3004659 81 12751238112450571368
335352 9 18341620300735748078
3545911 37 18333733498996471619
4073 2 18260834804465624267
4340502 62 16443062790206550410
465052 167 8358259254776254088
5758199 1 18411138035238940569
58260988 393 15357685375900455732
59682541 35 17749396979658880625
59682541 52 16128658548340225212
59755656 520 18335132124583854486
6025842 7 18270399382742578623
6327066 14 18339081596468217500
8863177 126 11383247774128006021

> <PUBCHEM_SHAPE_MULTIPOLES>
415.3
21.79
2.29
0.89
28.54
1.76
-0.09
-18.03
-2.1
-1.78
-0.14
0.59
-0.08
0.37

> <PUBCHEM_SHAPE_SELFOVERLAP>
845.753

> <PUBCHEM_SHAPE_VOLUME>
244.8

> <PUBCHEM_COORDINATE_TYPE>
2
5
10

$$$$
