2542040
  -OEChem-01171809503D

 33 34  0     0  0  0  0  0  0999 V2000
   -3.4529   -1.6092   -0.7283 S   0  0  0  0  0  0  0  0  0  0  0  0
    5.4652   -0.3719   -0.3497 S   0  0  0  0  0  0  0  0  0  0  0  0
    0.6006   -1.7967    0.4579 O   0  0  0  0  0  0  0  0  0  0  0  0
   -0.7608    1.9501    0.5354 O   0  0  0  0  0  0  0  0  0  0  0  0
   -1.2940   -0.2007   -0.2502 N   0  0  0  0  0  0  0  0  0  0  0  0
   -3.4381    0.8154    0.1681 N   0  0  0  0  0  0  0  0  0  0  0  0
    0.9965    0.5254    0.0064 C   0  0  0  0  0  0  0  0  0  0  0  0
    1.4622   -0.7778    0.1809 C   0  0  0  0  0  0  0  0  0  0  0  0
    1.8942    1.5550   -0.2758 C   0  0  0  0  0  0  0  0  0  0  0  0
    2.8257   -1.0514    0.0731 C   0  0  0  0  0  0  0  0  0  0  0  0
    3.7235   -0.0220   -0.2092 C   0  0  0  0  0  0  0  0  0  0  0  0
   -0.4227    0.8328    0.1152 C   0  0  0  0  0  0  0  0  0  0  0  0
    3.2578    1.2812   -0.3837 C   0  0  0  0  0  0  0  0  0  0  0  0
   -2.6917   -0.1747   -0.2130 C   0  0  0  0  0  0  0  0  0  0  0  0
   -4.7568    0.4220    0.0489 C   0  0  0  0  0  0  0  0  0  0  0  0
   -4.9636   -0.8583   -0.4204 C   0  0  0  0  0  0  0  0  0  0  0  0
   -5.8120    1.3829    0.4257 C   0  0  0  0  0  0  0  0  0  0  0  0
    1.1652   -3.0961    0.6204 C   0  0  0  0  0  0  0  0  0  0  0  0
    6.2017    1.1939    0.1983 C   0  0  0  0  0  0  0  0  0  0  0  0
    1.5516    2.5755   -0.4263 H   0  0  0  0  0  0  0  0  0  0  0  0
    3.2425   -2.0454    0.1990 H   0  0  0  0  0  0  0  0  0  0  0  0
    3.9134    2.1098   -0.6296 H   0  0  0  0  0  0  0  0  0  0  0  0
   -0.9120   -1.0750   -0.6001 H   0  0  0  0  0  0  0  0  0  0  0  0
   -5.8972   -1.3753   -0.5924 H   0  0  0  0  0  0  0  0  0  0  0  0
   -5.9177    1.4212    1.5144 H   0  0  0  0  0  0  0  0  0  0  0  0
   -5.5633    2.3878    0.0696 H   0  0  0  0  0  0  0  0  0  0  0  0
   -6.7803    1.1055   -0.0030 H   0  0  0  0  0  0  0  0  0  0  0  0
    0.3375   -3.7805    0.8343 H   0  0  0  0  0  0  0  0  0  0  0  0
    1.8411   -3.1392    1.4812 H   0  0  0  0  0  0  0  0  0  0  0  0
    1.6371   -3.4505   -0.3024 H   0  0  0  0  0  0  0  0  0  0  0  0
    5.7487    1.5403    1.1314 H   0  0  0  0  0  0  0  0  0  0  0  0
    6.1132    1.9618   -0.5744 H   0  0  0  0  0  0  0  0  0  0  0  0
    7.2676    1.0294    0.3808 H   0  0  0  0  0  0  0  0  0  0  0  0
  1 14  1  0  0  0  0
  1 16  1  0  0  0  0
  2 11  1  0  0  0  0
  2 19  1  0  0  0  0
  3  8  1  0  0  0  0
  3 18  1  0  0  0  0
  4 12  2  0  0  0  0
  5 12  1  0  0  0  0
  5 14  1  0  0  0  0
  5 23  1  0  0  0  0
  6 14  2  0  0  0  0
  6 15  1  0  0  0  0
  7  8  2  0  0  0  0
  7  9  1  0  0  0  0
  7 12  1  0  0  0  0
  8 10  1  0  0  0  0
  9 13  2  0  0  0  0
  9 20  1  0  0  0  0
 10 11  2  0  0  0  0
 10 21  1  0  0  0  0
 11 13  1  0  0  0  0
 13 22  1  0  0  0  0
 15 16  2  0  0  0  0
 15 17  1  0  0  0  0
 16 24  1  0  0  0  0
 17 25  1  0  0  0  0
 17 26  1  0  0  0  0
 17 27  1  0  0  0  0
 18 28  1  0  0  0  0
 18 29  1  0  0  0  0
 18 30  1  0  0  0  0
 19 31  1  0  0  0  0
 19 32  1  0  0  0  0
 19 33  1  0  0  0  0
M  END
> <PUBCHEM_COMPOUND_CID>
2542040

> <PUBCHEM_CONFORMER_RMSD>
0.6

> <PUBCHEM_CONFORMER_DIVERSEORDER>
50
22
34
23
47
27
8
11
26
45
25
16
37
28
42
21
32
20
24
14
38
10
13
12
49
46
48
41
17
7
36
6
29
18
43
19
39
5
31
1
40
15
9
30
44
4
33
35
3
2

> <PUBCHEM_MMFF94_PARTIAL_CHARGES>
24
1 -0.08
10 -0.15
11 0.1
12 0.54
13 -0.15
14 0.44
15 0.05
16 -0.11
17 0.18
18 0.28
19 0.23
2 -0.33
20 0.15
21 0.15
22 0.15
23 0.37
24 0.15
3 -0.36
4 -0.57
5 -0.49
6 -0.57
7 0.09
8 0.08
9 -0.15

> <PUBCHEM_EFFECTIVE_ROTOR_COUNT>
5

> <PUBCHEM_PHARMACOPHORE_FEATURES>
6
1 19 hydrophobe
1 3 acceptor
1 4 acceptor
1 5 donor
5 1 6 14 15 16 rings
6 7 8 9 10 11 13 rings

> <PUBCHEM_HEAVY_ATOM_COUNT>
19

> <PUBCHEM_ATOM_DEF_STEREO_COUNT>
0

> <PUBCHEM_ATOM_UDEF_STEREO_COUNT>
0

> <PUBCHEM_BOND_DEF_STEREO_COUNT>
0

> <PUBCHEM_BOND_UDEF_STEREO_COUNT>
0

> <PUBCHEM_ISOTOPIC_ATOM_COUNT>
0

> <PUBCHEM_COMPONENT_COUNT>
1

> <PUBCHEM_CACTVS_TAUTO_COUNT>
3

> <PUBCHEM_CONFORMER_ID>
0026C9D800000032

> <PUBCHEM_MMFF94_ENERGY>
55.1076

> <PUBCHEM_FEATURE_SELFOVERLAP>
30.446

> <PUBCHEM_SHAPE_FINGERPRINT>
10616163 171 18413107290682507687
10906281 52 18267603436689894876
11089746 13 17774995783111247681
11401426 45 18411699906860288308
11471102 20 18335419062584210023
11806522 49 18411700980792003476
12107183 9 17619350905884880521
12236239 1 18273215296096922132
12788726 201 17559960909838400337
13760787 19 18341894087177478335
13836976 161 18186806893826663150
13862211 1 18408037408201429498
14251764 18 18272936029498435473
14790565 3 18409453617358210380
15196674 1 18411701027530248039
18186145 218 18260821631056479037
18681886 176 18341326790558904496
19784866 9 18409448068281101867
200 152 18342738524370071872
20645477 70 18340486673570920639
20681677 155 18343301466134595675
21033648 29 12252179735657285279
21054139 6 18338227275628019719
21267235 1 18341056302251130607
21421861 104 17971188132239433955
21709351 56 18334851740649721429
23402539 116 18341609347867289380
23402655 69 18412544314357317711
23559900 14 18130781299923473985
2871803 45 18409728430692464750
300161 21 18412539899500267389
335352 9 18411139129917583222
34934 24 18343017770606948095
350125 39 18409729565039279516
3545911 37 18410293601787582125
4072396 5 18187072937281245978
4214541 1 18413671318709169213
4340502 62 16081087078616788304
4463277 17 18343021094811590156
474229 33 18408602587042378354
4990 188 18130795563720412318
5104073 3 18410854391140235387
543358 83 18339082575625789371
5486654 2 18411140264247884908
59755656 215 18201164248037637702
59755656 520 17894628180083966890
633830 44 18340483464691962238
8272917 22 18337676304527959519

> <PUBCHEM_SHAPE_MULTIPOLES>
377.01
13.05
2.21
0.74
1.56
1.22
-0.03
-3.45
-0.6
-0.14
0.38
0.09
0.1
-0.77

> <PUBCHEM_SHAPE_SELFOVERLAP>
771.691

> <PUBCHEM_SHAPE_VOLUME>
221.4

> <PUBCHEM_COORDINATE_TYPE>
2
5
10

$$$$
