239578
  -OEChem-01171810123D

 48 49  0     0  0  0  0  0  0999 V2000
    7.3929    2.2459   -0.1648 O   0  0  0  0  0  0  0  0  0  0  0  0
    7.2172   -2.3541   -0.1064 O   0  0  0  0  0  0  0  0  0  0  0  0
   -7.4906    2.2363    0.1092 O   0  0  0  0  0  0  0  0  0  0  0  0
   -7.1293   -2.3530    0.1453 O   0  0  0  0  0  0  0  0  0  0  0  0
    6.8993   -0.0406   -0.3464 N   0  0  0  0  0  0  0  0  0  0  0  0
   -6.9055   -0.0241    0.3388 N   0  0  0  0  0  0  0  0  0  0  0  0
    0.5922    0.1514   -0.4797 C   0  0  0  0  0  0  0  0  0  0  0  0
   -0.5651    0.2032    0.5204 C   0  0  0  0  0  0  0  0  0  0  0  0
    1.9440    0.1180    0.2352 C   0  0  0  0  0  0  0  0  0  0  0  0
   -1.9171    0.1978   -0.1967 C   0  0  0  0  0  0  0  0  0  0  0  0
    3.1021    0.0990   -0.7645 C   0  0  0  0  0  0  0  0  0  0  0  0
   -3.1131    0.1758    0.7603 C   0  0  0  0  0  0  0  0  0  0  0  0
    4.4536    0.0345   -0.0472 C   0  0  0  0  0  0  0  0  0  0  0  0
   -4.4636    0.0910    0.0416 C   0  0  0  0  0  0  0  0  0  0  0  0
    5.6296    0.0007   -1.0182 C   0  0  0  0  0  0  0  0  0  0  0  0
   -5.6409    0.0821    1.0126 C   0  0  0  0  0  0  0  0  0  0  0  0
    7.6392    1.0642    0.0079 C   0  0  0  0  0  0  0  0  0  0  0  0
    7.5512   -1.1901    0.0354 C   0  0  0  0  0  0  0  0  0  0  0  0
   -7.6885    1.0425   -0.0400 C   0  0  0  0  0  0  0  0  0  0  0  0
   -7.5095   -1.2065   -0.0212 C   0  0  0  0  0  0  0  0  0  0  0  0
    8.8544    0.5639    0.6689 C   0  0  0  0  0  0  0  0  0  0  0  0
    8.8023   -0.7686    0.6851 C   0  0  0  0  0  0  0  0  0  0  0  0
   -8.8804    0.4802   -0.6935 C   0  0  0  0  0  0  0  0  0  0  0  0
   -8.7745   -0.8493   -0.6822 C   0  0  0  0  0  0  0  0  0  0  0  0
    0.4924   -0.7378   -1.1141 H   0  0  0  0  0  0  0  0  0  0  0  0
    0.5450    1.0264   -1.1392 H   0  0  0  0  0  0  0  0  0  0  0  0
   -0.5061   -0.6603    1.1940 H   0  0  0  0  0  0  0  0  0  0  0  0
   -0.4820    1.1039    1.1402 H   0  0  0  0  0  0  0  0  0  0  0  0
    1.9967   -0.7697    0.8773 H   0  0  0  0  0  0  0  0  0  0  0  0
    2.0378    0.9949    0.8873 H   0  0  0  0  0  0  0  0  0  0  0  0
   -1.9898    1.0804   -0.8440 H   0  0  0  0  0  0  0  0  0  0  0  0
   -1.9725   -0.6806   -0.8519 H   0  0  0  0  0  0  0  0  0  0  0  0
    3.0624    0.9969   -1.3929 H   0  0  0  0  0  0  0  0  0  0  0  0
    3.0005   -0.7671   -1.4295 H   0  0  0  0  0  0  0  0  0  0  0  0
   -3.0893    1.0779    1.3839 H   0  0  0  0  0  0  0  0  0  0  0  0
   -3.0152   -0.6812    1.4381 H   0  0  0  0  0  0  0  0  0  0  0  0
    4.4863   -0.8548    0.5949 H   0  0  0  0  0  0  0  0  0  0  0  0
    4.5552    0.9008    0.6189 H   0  0  0  0  0  0  0  0  0  0  0  0
   -4.5643    0.9388   -0.6476 H   0  0  0  0  0  0  0  0  0  0  0  0
   -4.4897   -0.8153   -0.5763 H   0  0  0  0  0  0  0  0  0  0  0  0
    5.6037    0.8909   -1.6572 H   0  0  0  0  0  0  0  0  0  0  0  0
    5.5486   -0.8837   -1.6605 H   0  0  0  0  0  0  0  0  0  0  0  0
   -5.6357    1.0030    1.6068 H   0  0  0  0  0  0  0  0  0  0  0  0
   -5.5438   -0.7682    1.6973 H   0  0  0  0  0  0  0  0  0  0  0  0
    9.6368    1.1903    1.0626 H   0  0  0  0  0  0  0  0  0  0  0  0
    9.5342   -1.4440    1.0950 H   0  0  0  0  0  0  0  0  0  0  0  0
   -9.6862    1.0662   -1.1019 H   0  0  0  0  0  0  0  0  0  0  0  0
   -9.4773   -1.5619   -1.0799 H   0  0  0  0  0  0  0  0  0  0  0  0
  1 17  2  0  0  0  0
  2 18  2  0  0  0  0
  3 19  2  0  0  0  0
  4 20  2  0  0  0  0
  5 15  1  0  0  0  0
  5 17  1  0  0  0  0
  5 18  1  0  0  0  0
  6 16  1  0  0  0  0
  6 19  1  0  0  0  0
  6 20  1  0  0  0  0
  7  8  1  0  0  0  0
  7  9  1  0  0  0  0
  7 25  1  0  0  0  0
  7 26  1  0  0  0  0
  8 10  1  0  0  0  0
  8 27  1  0  0  0  0
  8 28  1  0  0  0  0
  9 11  1  0  0  0  0
  9 29  1  0  0  0  0
  9 30  1  0  0  0  0
 10 12  1  0  0  0  0
 10 31  1  0  0  0  0
 10 32  1  0  0  0  0
 11 13  1  0  0  0  0
 11 33  1  0  0  0  0
 11 34  1  0  0  0  0
 12 14  1  0  0  0  0
 12 35  1  0  0  0  0
 12 36  1  0  0  0  0
 13 15  1  0  0  0  0
 13 37  1  0  0  0  0
 13 38  1  0  0  0  0
 14 16  1  0  0  0  0
 14 39  1  0  0  0  0
 14 40  1  0  0  0  0
 15 41  1  0  0  0  0
 15 42  1  0  0  0  0
 16 43  1  0  0  0  0
 16 44  1  0  0  0  0
 17 21  1  0  0  0  0
 18 22  1  0  0  0  0
 19 23  1  0  0  0  0
 20 24  1  0  0  0  0
 21 22  2  0  0  0  0
 21 45  1  0  0  0  0
 22 46  1  0  0  0  0
 23 24  2  0  0  0  0
 23 47  1  0  0  0  0
 24 48  1  0  0  0  0
M  END
> <PUBCHEM_COMPOUND_CID>
239578

> <PUBCHEM_CONFORMER_RMSD>
1.2

> <PUBCHEM_CONFORMER_DIVERSEORDER>
1
8
50
54
37
96
91
35
7
80
21
9
40
47
92
14
5
65
20
49
44
73
16
13
42
2
29
36
19
6
53
4
79
43
60
103
74
97
82
28
17
26
57
77
88
34
22
12
64
95
41
75
104
63
98
83
38
86
25
31
32
46
71
10
15
81
23
90
27
62
3
52
30
70
11
109
18
58
66
87
72
84
24
100
99
85
51
45
33
93
101
55
110
102
78
105
67
59
108
61
106
107
68
94
39
56
89
76
48
69

> <PUBCHEM_MMFF94_PARTIAL_CHARGES>
20
1 -0.57
15 0.3
16 0.3
17 0.62
18 0.62
19 0.62
2 -0.57
20 0.62
21 -0.14
22 -0.14
23 -0.14
24 -0.14
3 -0.57
4 -0.57
45 0.15
46 0.15
47 0.15
48 0.15
5 -0.42
6 -0.42

> <PUBCHEM_EFFECTIVE_ROTOR_COUNT>
11.4

> <PUBCHEM_PHARMACOPHORE_FEATURES>
6
1 1 acceptor
1 2 acceptor
1 3 acceptor
1 4 acceptor
5 5 17 18 21 22 rings
5 6 19 20 23 24 rings

> <PUBCHEM_HEAVY_ATOM_COUNT>
24

> <PUBCHEM_ATOM_DEF_STEREO_COUNT>
0

> <PUBCHEM_ATOM_UDEF_STEREO_COUNT>
0

> <PUBCHEM_BOND_DEF_STEREO_COUNT>
0

> <PUBCHEM_BOND_UDEF_STEREO_COUNT>
0

> <PUBCHEM_ISOTOPIC_ATOM_COUNT>
0

> <PUBCHEM_COMPONENT_COUNT>
1

> <PUBCHEM_CACTVS_TAUTO_COUNT>
1

> <PUBCHEM_CONFORMER_ID>
0003A7DA00000001

> <PUBCHEM_MMFF94_ENERGY>
10.6768

> <PUBCHEM_FEATURE_SELFOVERLAP>
30.449

> <PUBCHEM_SHAPE_FINGERPRINT>
10162869 55 16773790415742252581
10904742 90 18410009935697796098
11315181 36 18060424621474164441
12082328 90 18413106135399180037
12089408 11 18410576184180007441
13885169 127 18408886218261405197
14118638 360 15647041625824883768
14251764 18 15698002920262011183
14251764 46 18410856559639809059
15510794 2 18272937103150771030
16120349 18 18412543237059413800
21095123 145 8934991578299919769
21360442 43 17968381256134656235
21362267 313 17560246795176830674
21792961 116 14056991720022002111
22224240 67 18335422374336720270
232437 2 18410856559650624911
249057 3 15769770281890310093
28498 318 14706925142772004424
33684 2 17531246158471805753
395649 100 18261392295663285611
4339292 15 17631725085181383247
59682541 35 17203888574113179690
6126387 218 18409730643313109817
67123 10 18413670222827740452

> <PUBCHEM_SHAPE_MULTIPOLES>
460.47
40.74
1.59
0.86
0.27
0.2
0
2.11
-0.17
0.01
0
0
0
-0.21

> <PUBCHEM_SHAPE_SELFOVERLAP>
941.099

> <PUBCHEM_SHAPE_VOLUME>
267

> <PUBCHEM_COORDINATE_TYPE>
2
5
10

$$$$
