3317679
  -OEChem-01171810003D

 64 67  0     1  0  0  0  0  0999 V2000
    5.8422    1.2934   -0.4513 O   0  0  0  0  0  0  0  0  0  0  0  0
    1.2904    2.2129    0.8431 O   0  0  0  0  0  0  0  0  0  0  0  0
   -0.8491    2.6338    1.4724 O   0  0  0  0  0  0  0  0  0  0  0  0
   -4.3675   -0.7103    2.0729 O   0  0  0  0  0  0  0  0  0  0  0  0
   -7.3130   -2.9433    0.6228 O   0  0  0  0  0  0  0  0  0  0  0  0
   -5.5937   -3.1114   -0.8473 O   0  0  0  0  0  0  0  0  0  0  0  0
   -4.8812   -0.5529   -0.1861 N   0  0  0  0  0  0  0  0  0  0  0  0
    5.6503   -0.9588   -0.4845 C   0  0  0  0  0  0  0  0  0  0  0  0
    6.1249   -2.3575   -0.6537 C   0  0  0  0  0  0  0  0  0  0  0  0
    6.4836    0.1218   -0.6665 C   0  0  0  0  0  0  0  0  0  0  0  0
    7.4623   -2.3931   -1.4258 C   0  0  0  0  0  0  0  0  0  0  0  0
    7.9026    0.1118   -1.0799 C   0  0  0  0  0  0  0  0  0  0  0  0
    8.4580   -1.3200   -0.9340 C   0  0  0  0  0  0  0  0  0  0  0  0
    4.3904   -0.4202   -0.1188 C   0  0  0  0  0  0  0  0  0  0  0  0
    4.5602    0.9628   -0.1130 C   0  0  0  0  0  0  0  0  0  0  0  0
    3.5491    1.8631    0.2001 C   0  0  0  0  0  0  0  0  0  0  0  0
    3.1227   -0.9445    0.2110 C   0  0  0  0  0  0  0  0  0  0  0  0
    2.0580   -0.0765    0.5310 C   0  0  0  0  0  0  0  0  0  0  0  0
    2.3080    1.2955    0.5198 C   0  0  0  0  0  0  0  0  0  0  0  0
    0.7021   -0.5522    0.8854 C   0  0  0  0  0  0  0  0  0  0  0  0
   -0.2505    0.3414    1.2274 C   0  0  0  0  0  0  0  0  0  0  0  0
    3.7597    3.3388    0.1963 C   0  0  0  0  0  0  0  0  0  0  0  0
   -1.6467   -0.0144    1.6714 C   0  0  0  0  0  0  0  0  0  0  0  0
    0.0166    1.8075    1.2007 C   0  0  0  0  0  0  0  0  0  0  0  0
    0.4623   -2.0411    0.8237 C   0  0  0  0  0  0  0  0  0  0  0  0
   -2.6203   -0.1052    0.5054 C   0  0  0  0  0  0  0  0  0  0  0  0
   -6.2772   -0.9072   -0.0750 C   0  0  1  0  0  0  0  0  0  0  0  0
   -7.0926   -0.2534   -1.1903 C   0  0  0  0  0  0  0  0  0  0  0  0
   -7.0775    1.2761   -1.1148 C   0  0  0  0  0  0  0  0  0  0  0  0
   -4.0361   -0.4843    0.9123 C   0  0  0  0  0  0  0  0  0  0  0  0
   -7.9267    1.8945   -2.2260 C   0  0  0  0  0  0  0  0  0  0  0  0
   -6.3261   -2.4206   -0.1499 C   0  0  0  0  0  0  0  0  0  0  0  0
   -7.8851    3.4136   -2.1788 C   0  0  0  0  0  0  0  0  0  0  0  0
    6.2667   -2.8056    0.3371 H   0  0  0  0  0  0  0  0  0  0  0  0
    5.3782   -2.9584   -1.1843 H   0  0  0  0  0  0  0  0  0  0  0  0
    7.2690   -2.2306   -2.4941 H   0  0  0  0  0  0  0  0  0  0  0  0
    7.9103   -3.3885   -1.3300 H   0  0  0  0  0  0  0  0  0  0  0  0
    8.4950    0.8076   -0.4769 H   0  0  0  0  0  0  0  0  0  0  0  0
    7.9743    0.4282   -2.1267 H   0  0  0  0  0  0  0  0  0  0  0  0
    9.4009   -1.4033   -1.4862 H   0  0  0  0  0  0  0  0  0  0  0  0
    8.6885   -1.5135    0.1219 H   0  0  0  0  0  0  0  0  0  0  0  0
    2.9979   -2.0231    0.2100 H   0  0  0  0  0  0  0  0  0  0  0  0
    4.7858    3.6048   -0.0771 H   0  0  0  0  0  0  0  0  0  0  0  0
    3.5648    3.7536    1.1907 H   0  0  0  0  0  0  0  0  0  0  0  0
    3.0908    3.8169   -0.5268 H   0  0  0  0  0  0  0  0  0  0  0  0
   -1.6431   -0.9587    2.2296 H   0  0  0  0  0  0  0  0  0  0  0  0
   -2.0152    0.7123    2.4073 H   0  0  0  0  0  0  0  0  0  0  0  0
   -0.5784   -2.3249    0.9970 H   0  0  0  0  0  0  0  0  0  0  0  0
    0.7162   -2.4327   -0.1678 H   0  0  0  0  0  0  0  0  0  0  0  0
    1.0655   -2.5594    1.5770 H   0  0  0  0  0  0  0  0  0  0  0  0
   -2.6717    0.8588   -0.0167 H   0  0  0  0  0  0  0  0  0  0  0  0
   -2.2730   -0.8513   -0.2204 H   0  0  0  0  0  0  0  0  0  0  0  0
   -6.6392   -0.5921    0.9107 H   0  0  0  0  0  0  0  0  0  0  0  0
   -6.7117   -0.5734   -2.1693 H   0  0  0  0  0  0  0  0  0  0  0  0
   -8.1289   -0.6101   -1.1326 H   0  0  0  0  0  0  0  0  0  0  0  0
   -6.0492    1.6466   -1.1999 H   0  0  0  0  0  0  0  0  0  0  0  0
   -7.4581    1.5993   -0.1383 H   0  0  0  0  0  0  0  0  0  0  0  0
   -4.4919   -0.4180   -1.1153 H   0  0  0  0  0  0  0  0  0  0  0  0
   -8.9659    1.5587   -2.1310 H   0  0  0  0  0  0  0  0  0  0  0  0
   -7.5642    1.5567   -3.2038 H   0  0  0  0  0  0  0  0  0  0  0  0
   -8.2688    3.7870   -1.2240 H   0  0  0  0  0  0  0  0  0  0  0  0
   -6.8622    3.7824   -2.3062 H   0  0  0  0  0  0  0  0  0  0  0  0
   -8.5002    3.8347   -2.9803 H   0  0  0  0  0  0  0  0  0  0  0  0
   -7.3506   -3.9213    0.5558 H   0  0  0  0  0  0  0  0  0  0  0  0
  1 10  1  0  0  0  0
  1 15  1  0  0  0  0
  2 19  1  0  0  0  0
  2 24  1  0  0  0  0
  3 24  2  0  0  0  0
  4 30  2  0  0  0  0
  5 32  1  0  0  0  0
  5 64  1  0  0  0  0
  6 32  2  0  0  0  0
  7 27  1  0  0  0  0
  7 30  1  0  0  0  0
  7 58  1  0  0  0  0
  8  9  1  0  0  0  0
  8 10  2  0  0  0  0
  8 14  1  0  0  0  0
  9 11  1  0  0  0  0
  9 34  1  0  0  0  0
  9 35  1  0  0  0  0
 10 12  1  0  0  0  0
 11 13  1  0  0  0  0
 11 36  1  0  0  0  0
 11 37  1  0  0  0  0
 12 13  1  0  0  0  0
 12 38  1  0  0  0  0
 12 39  1  0  0  0  0
 13 40  1  0  0  0  0
 13 41  1  0  0  0  0
 14 15  2  0  0  0  0
 14 17  1  0  0  0  0
 15 16  1  0  0  0  0
 16 19  2  0  0  0  0
 16 22  1  0  0  0  0
 17 18  2  0  0  0  0
 17 42  1  0  0  0  0
 18 19  1  0  0  0  0
 18 20  1  0  0  0  0
 20 21  2  0  0  0  0
 20 25  1  0  0  0  0
 21 23  1  0  0  0  0
 21 24  1  0  0  0  0
 22 43  1  0  0  0  0
 22 44  1  0  0  0  0
 22 45  1  0  0  0  0
 23 26  1  0  0  0  0
 23 46  1  0  0  0  0
 23 47  1  0  0  0  0
 25 48  1  0  0  0  0
 25 49  1  0  0  0  0
 25 50  1  0  0  0  0
 26 30  1  0  0  0  0
 26 51  1  0  0  0  0
 26 52  1  0  0  0  0
 27 28  1  0  0  0  0
 27 32  1  0  0  0  0
 27 53  1  0  0  0  0
 28 29  1  0  0  0  0
 28 54  1  0  0  0  0
 28 55  1  0  0  0  0
 29 31  1  0  0  0  0
 29 56  1  0  0  0  0
 29 57  1  0  0  0  0
 31 33  1  0  0  0  0
 31 59  1  0  0  0  0
 31 60  1  0  0  0  0
 33 61  1  0  0  0  0
 33 62  1  0  0  0  0
 33 63  1  0  0  0  0
M  END
> <PUBCHEM_COMPOUND_CID>
3317679

> <PUBCHEM_CONFORMER_RMSD>
1

> <PUBCHEM_CONFORMER_DIVERSEORDER>
1
132
73
2
40
11
117
38
25
24
69
27
118
41
104
81
87
63
97
100
50
42
58
55
65
82
95
108
35
99
48
4
9
80
90
22
109
94
17
66
123
52
130
83
76
46
21
96
61
115
68
14
88
30
102
128
60
43
84
13
45
47
54
70
26
36
131
126
23
31
111
51
92
93
74
19
101
125
71
34
103
127
10
112
62
78
5
32
44
119
110
15
105
8
121
116
98
18
75
28
129
12
3
67
89
107
16
39
106
122
33
79
20
56
59
37
120
91
6
77
64
124
49
57
113
72
7
53
29
114
86
85

> <PUBCHEM_MMFF94_PARTIAL_CHARGES>
29
1 -0.28
10 -0.04
12 0.18
15 0.14
16 -0.14
17 -0.15
18 0.03
19 0.08
2 -0.23
20 -0.17
21 -0.12
22 0.14
23 0.14
24 0.71
25 0.14
26 0.06
27 0.36
3 -0.57
30 0.57
32 0.66
4 -0.57
42 0.15
5 -0.65
58 0.37
6 -0.57
64 0.5
7 -0.73
8 -0.18
9 0.18

> <PUBCHEM_EFFECTIVE_ROTOR_COUNT>
9.8

> <PUBCHEM_PHARMACOPHORE_FEATURES>
12
1 1 acceptor
1 3 acceptor
1 33 hydrophobe
1 4 acceptor
1 5 acceptor
1 6 acceptor
1 7 donor
3 5 6 32 anion
5 1 8 10 14 15 rings
6 14 15 16 17 18 19 rings
6 2 18 19 20 21 24 rings
6 8 9 10 11 12 13 rings

> <PUBCHEM_HEAVY_ATOM_COUNT>
33

> <PUBCHEM_ATOM_DEF_STEREO_COUNT>
0

> <PUBCHEM_ATOM_UDEF_STEREO_COUNT>
1

> <PUBCHEM_BOND_DEF_STEREO_COUNT>
0

> <PUBCHEM_BOND_UDEF_STEREO_COUNT>
0

> <PUBCHEM_ISOTOPIC_ATOM_COUNT>
0

> <PUBCHEM_COMPONENT_COUNT>
1

> <PUBCHEM_CACTVS_TAUTO_COUNT>
2

> <PUBCHEM_CONFORMER_ID>
00329FAF00000001

> <PUBCHEM_MMFF94_ENERGY>
63.2592

> <PUBCHEM_FEATURE_SELFOVERLAP>
61.178

> <PUBCHEM_SHAPE_FINGERPRINT>
10693767 8 18413390917612056330
11135926 11 18059581265632907183
11181472 205 16660647311455006100
11410812 94 17749105548679141260
11411753 29 16879373275126882569
12120059 9 17845630625834517563
12539765 74 13406796619229138186
14068700 675 18130796642285068888
14294032 229 16660916656838107621
14400156 413 18200586008313080840
14849402 71 11386380256706407815
14931854 50 18334018267960047034
150020 25 18408036312889707021
15183329 4 18411133620176396121
15198563 99 18188216386272350292
15519825 34 13398616265308175605
16992610 120 18188205413468970661
16992727 255 18333168354161846487
18603816 31 16415190209899020367
19303781 99 14044871847459964573
20028762 73 18059864948122678966
20105231 36 18335709403598241091
23522609 53 17698766676502471384
23559900 14 18339651156803744672
23576562 1 17751084819452867367
3004659 81 18410011069890214426
335352 9 18339091479947445470
3383291 50 13182729382283102813
3633792 109 18114187415345775700
3711267 37 14490194899093210710
397830 11 9727638323746405049
4093350 32 13839977820989322896
4169191 19 11097843125632563547
4353968 344 18268997493037910998
44880568 143 17894634789706105501
484989 97 18411703217984635728
5080951 261 12463567349817631441
5718773 13 18202570562238464986
57527295 17 17894903028442657147
5758199 1 10665229276409345226
9953998 17 10519988176069259023

> <PUBCHEM_SHAPE_MULTIPOLES>
638.93
27.55
3.4
1.65
16.49
0.7
0.2
-5.66
19.72
3.69
0.69
2.38
0.58
4.42

> <PUBCHEM_SHAPE_SELFOVERLAP>
1366.961

> <PUBCHEM_SHAPE_VOLUME>
355.1

> <PUBCHEM_COORDINATE_TYPE>
2
5
10

$$$$
