1518343
  -OEChem-01171809193D

 47 49  0     0  0  0  0  0  0999 V2000
   -0.3265    1.1740   -0.1118 S   0  0  0  0  0  0  0  0  0  0  0  0
   -3.0892   -3.4448   -0.0194 O   0  0  0  0  0  0  0  0  0  0  0  0
   -4.5765    0.8711   -1.2056 O   0  0  0  0  0  0  0  0  0  0  0  0
    5.7703   -0.2956   -0.3385 O   0  0  0  0  0  0  0  0  0  0  0  0
   -2.2127    4.3240    0.8690 O   0  0  0  0  0  0  0  0  0  0  0  0
   -0.0209    4.1638    0.1408 O   0  0  0  0  0  0  0  0  0  0  0  0
    5.4368   -0.7824    1.8865 O   0  0  0  0  0  0  0  0  0  0  0  0
   -2.5173   -0.2226   -0.9670 N   0  0  0  0  0  0  0  0  0  0  0  0
   -0.4092   -1.3232   -0.7219 N   0  0  0  0  0  0  0  0  0  0  0  0
   -3.1161   -1.4855   -1.4102 C   0  0  0  0  0  0  0  0  0  0  0  0
   -1.1470   -0.2628   -0.6475 C   0  0  0  0  0  0  0  0  0  0  0  0
   -3.6421   -2.2347   -0.2242 C   0  0  0  0  0  0  0  0  0  0  0  0
   -3.3795    0.8878   -0.9106 C   0  0  0  0  0  0  0  0  0  0  0  0
   -2.8134    2.1822   -0.4647 C   0  0  0  0  0  0  0  0  0  0  0  0
   -1.5419    2.3643   -0.1167 C   0  0  0  0  0  0  0  0  0  0  0  0
   -4.5838   -1.9295    0.7025 C   0  0  0  0  0  0  0  0  0  0  0  0
    0.9360   -1.1529   -0.3585 C   0  0  0  0  0  0  0  0  0  0  0  0
   -4.6287   -3.0474    1.5692 C   0  0  0  0  0  0  0  0  0  0  0  0
    1.3248   -1.3403    0.9651 C   0  0  0  0  0  0  0  0  0  0  0  0
    1.8739   -0.7987   -1.3244 C   0  0  0  0  0  0  0  0  0  0  0  0
    3.6048   -0.8173    0.3609 C   0  0  0  0  0  0  0  0  0  0  0  0
   -3.7011   -3.9416    1.0876 C   0  0  0  0  0  0  0  0  0  0  0  0
    2.6618   -1.1721    1.3255 C   0  0  0  0  0  0  0  0  0  0  0  0
    3.2108   -0.6306   -0.9641 C   0  0  0  0  0  0  0  0  0  0  0  0
   -1.1433    3.7119    0.3008 C   0  0  0  0  0  0  0  0  0  0  0  0
    4.9982   -0.6398    0.7374 C   0  0  0  0  0  0  0  0  0  0  0  0
    7.1665   -0.0935   -0.0948 C   0  0  0  0  0  0  0  0  0  0  0  0
    7.8454    0.2774   -1.3961 C   0  0  0  0  0  0  0  0  0  0  0  0
   -1.9801    5.6587    1.3308 C   0  0  0  0  0  0  0  0  0  0  0  0
   -2.3810   -2.0882   -1.9551 H   0  0  0  0  0  0  0  0  0  0  0  0
   -3.9418   -1.2874   -2.1033 H   0  0  0  0  0  0  0  0  0  0  0  0
   -3.5389    2.9918   -0.4720 H   0  0  0  0  0  0  0  0  0  0  0  0
   -5.1767   -1.0291    0.7681 H   0  0  0  0  0  0  0  0  0  0  0  0
   -5.2586   -3.1846    2.4362 H   0  0  0  0  0  0  0  0  0  0  0  0
    0.5981   -1.6214    1.7230 H   0  0  0  0  0  0  0  0  0  0  0  0
    1.5772   -0.6554   -2.3603 H   0  0  0  0  0  0  0  0  0  0  0  0
   -3.3746   -4.9221    1.4018 H   0  0  0  0  0  0  0  0  0  0  0  0
    2.9475   -1.3229    2.3632 H   0  0  0  0  0  0  0  0  0  0  0  0
    3.9098   -0.3546   -1.7486 H   0  0  0  0  0  0  0  0  0  0  0  0
    7.6034   -1.0161    0.3026 H   0  0  0  0  0  0  0  0  0  0  0  0
    7.2950    0.7135    0.6347 H   0  0  0  0  0  0  0  0  0  0  0  0
    8.9164    0.4395   -1.2461 H   0  0  0  0  0  0  0  0  0  0  0  0
    7.7081   -0.5132   -2.1412 H   0  0  0  0  0  0  0  0  0  0  0  0
    7.4047    1.1883   -1.8145 H   0  0  0  0  0  0  0  0  0  0  0  0
   -2.9105    6.0357    1.7634 H   0  0  0  0  0  0  0  0  0  0  0  0
   -1.6945    6.3041    0.4947 H   0  0  0  0  0  0  0  0  0  0  0  0
   -1.2059    5.6622    2.1041 H   0  0  0  0  0  0  0  0  0  0  0  0
  1 11  1  0  0  0  0
  1 15  1  0  0  0  0
  2 12  1  0  0  0  0
  2 22  1  0  0  0  0
  3 13  2  0  0  0  0
  4 26  1  0  0  0  0
  4 27  1  0  0  0  0
  5 25  1  0  0  0  0
  5 29  1  0  0  0  0
  6 25  2  0  0  0  0
  7 26  2  0  0  0  0
  8 10  1  0  0  0  0
  8 11  1  0  0  0  0
  8 13  1  0  0  0  0
  9 11  2  0  0  0  0
  9 17  1  0  0  0  0
 10 12  1  0  0  0  0
 10 30  1  0  0  0  0
 10 31  1  0  0  0  0
 12 16  2  0  0  0  0
 13 14  1  0  0  0  0
 14 15  2  0  0  0  0
 14 32  1  0  0  0  0
 15 25  1  0  0  0  0
 16 18  1  0  0  0  0
 16 33  1  0  0  0  0
 17 19  2  0  0  0  0
 17 20  1  0  0  0  0
 18 22  2  0  0  0  0
 18 34  1  0  0  0  0
 19 23  1  0  0  0  0
 19 35  1  0  0  0  0
 20 24  2  0  0  0  0
 20 36  1  0  0  0  0
 21 23  2  0  0  0  0
 21 24  1  0  0  0  0
 21 26  1  0  0  0  0
 22 37  1  0  0  0  0
 23 38  1  0  0  0  0
 24 39  1  0  0  0  0
 27 28  1  0  0  0  0
 27 40  1  0  0  0  0
 27 41  1  0  0  0  0
 28 42  1  0  0  0  0
 28 43  1  0  0  0  0
 28 44  1  0  0  0  0
 29 45  1  0  0  0  0
 29 46  1  0  0  0  0
 29 47  1  0  0  0  0
M  END
> <PUBCHEM_COMPOUND_CID>
1518343

> <PUBCHEM_CONFORMER_RMSD>
1

> <PUBCHEM_CONFORMER_DIVERSEORDER>
1
20
30
13
17
7
25
29
32
22
5
24
3
4
10
33
26
21
23
19
28
18
27
14
31
15
8
16
6
12
2
9
11

> <PUBCHEM_MMFF94_PARTIAL_CHARGES>
36
1 -0.24
10 0.48
11 0.65
12 -0.04
13 0.62
14 -0.14
15 0.12
16 -0.15
17 0.18
18 -0.15
19 -0.15
2 -0.28
20 -0.15
21 0.09
22 -0.01
23 -0.15
24 -0.15
25 0.71
26 0.63
27 0.28
29 0.28
3 -0.57
32 0.15
33 0.15
34 0.15
35 0.15
36 0.15
37 0.15
38 0.15
39 0.15
4 -0.43
5 -0.43
6 -0.57
7 -0.57
8 -0.42
9 -0.63

> <PUBCHEM_EFFECTIVE_ROTOR_COUNT>
8

> <PUBCHEM_PHARMACOPHORE_FEATURES>
7
1 2 acceptor
1 3 acceptor
1 6 acceptor
1 7 acceptor
5 2 12 16 18 22 rings
6 1 8 11 13 14 15 rings
6 17 19 20 21 23 24 rings

> <PUBCHEM_HEAVY_ATOM_COUNT>
29

> <PUBCHEM_ATOM_DEF_STEREO_COUNT>
0

> <PUBCHEM_ATOM_UDEF_STEREO_COUNT>
0

> <PUBCHEM_BOND_DEF_STEREO_COUNT>
0

> <PUBCHEM_BOND_UDEF_STEREO_COUNT>
0

> <PUBCHEM_ISOTOPIC_ATOM_COUNT>
0

> <PUBCHEM_COMPONENT_COUNT>
1

> <PUBCHEM_CACTVS_TAUTO_COUNT>
1

> <PUBCHEM_CONFORMER_ID>
00172B0700000001

> <PUBCHEM_MMFF94_ENERGY>
85.6025

> <PUBCHEM_FEATURE_SELFOVERLAP>
35.524

> <PUBCHEM_SHAPE_FINGERPRINT>
10074138 170 18194667194895017329
10670039 82 18341049602566554684
10906281 52 18270961220589146701
1100329 8 18409165511511027453
11297750 10 18044645637399200727
12107183 9 17545591263594847170
12166972 35 17676772097428523668
12236239 1 17822005411684394390
12293681 160 18049691094190062053
12596602 18 17894908534411284058
12788726 201 18261970624981847170
13140716 1 18411418440679350985
13631057 29 17895472638999433707
13782708 43 17632859707824042590
13955234 65 16682611984333853985
14363568 33 17907858757787391929
14565420 104 17263853486320282433
14844126 61 18335127705400208123
14856354 85 18339365283174634350
14955137 171 18196657521162229254
15684970 41 17981622763991844118
15968369 153 18129371765589482672
18927931 339 18340764931063615758
20101258 96 18341049709096458313
21120745 212 18410859862475610120
21796203 349 17903388083537672395
22956985 138 17539967703515042323
23557571 272 18413106143361386582
23558518 356 17619899570745757783
3178227 256 18335707088805514053
3418910 222 18263652913197985844
3552219 110 18042143087902877148
392239 28 18334575771710074072
4058900 60 17335631808055975384
469060 322 18339659904766046347
550186 7 18271804584509402046
6673363 416 18267317607123281516
7808743 9 18126001568955125408
9849439 229 17764872394401761073

> <PUBCHEM_SHAPE_MULTIPOLES>
555.48
13.83
5.7
1.44
30.05
8.78
0.17
-7.54
-0.52
-10.54
3.17
0.17
-0.28
0.2

> <PUBCHEM_SHAPE_SELFOVERLAP>
1184.79

> <PUBCHEM_SHAPE_VOLUME>
311.1

> <PUBCHEM_COORDINATE_TYPE>
2
5
10

$$$$
