2583105
  -OEChem-01171809493D

 46 47  0     0  0  0  0  0  0999 V2000
   -6.0083    0.1430    0.2507 O   0  0  0  0  0  0  0  0  0  0  0  0
    0.2305   -1.5262    0.6213 O   0  0  0  0  0  0  0  0  0  0  0  0
   -5.3497   -1.5710   -1.1220 O   0  0  0  0  0  0  0  0  0  0  0  0
    6.9115   -1.6254    0.5654 O   0  0  0  0  0  0  0  0  0  0  0  0
   -1.9776    1.1662    0.2667 N   0  0  0  0  0  0  0  0  0  0  0  0
    0.7980    0.6272   -0.1333 N   0  0  0  0  0  0  0  0  0  0  0  0
    6.3770    0.5473   -0.1779 N   0  0  0  0  0  0  0  0  0  0  0  0
   -2.5190   -0.9469   -0.1501 C   0  0  0  0  0  0  0  0  0  0  0  0
   -3.7014   -0.1662   -0.1637 C   0  0  0  0  0  0  0  0  0  0  0  0
   -1.5237   -0.0853    0.1136 C   0  0  0  0  0  0  0  0  0  0  0  0
   -3.3371    1.1364    0.0963 C   0  0  0  0  0  0  0  0  0  0  0  0
   -2.4310   -2.4043   -0.3807 C   0  0  0  0  0  0  0  0  0  0  0  0
   -0.0768   -0.4034    0.2357 C   0  0  0  0  0  0  0  0  0  0  0  0
   -4.1418    2.3691    0.2027 C   0  0  0  0  0  0  0  0  0  0  0  0
   -5.0478   -0.6054   -0.3998 C   0  0  0  0  0  0  0  0  0  0  0  0
    2.1929    0.6071   -0.1446 C   0  0  0  0  0  0  0  0  0  0  0  0
    2.9034    1.7383   -0.5461 C   0  0  0  0  0  0  0  0  0  0  0  0
    2.8769   -0.5440    0.2460 C   0  0  0  0  0  0  0  0  0  0  0  0
    4.9822    0.5673   -0.1667 C   0  0  0  0  0  0  0  0  0  0  0  0
    4.2981    1.7184   -0.5571 C   0  0  0  0  0  0  0  0  0  0  0  0
    4.2717   -0.5638    0.2349 C   0  0  0  0  0  0  0  0  0  0  0  0
   -7.3745   -0.2408    0.0584 C   0  0  0  0  0  0  0  0  0  0  0  0
   -8.2654    0.6946    0.8479 C   0  0  0  0  0  0  0  0  0  0  0  0
    7.2303   -0.5064    0.1766 C   0  0  0  0  0  0  0  0  0  0  0  0
    8.6817   -0.1257    0.0258 C   0  0  0  0  0  0  0  0  0  0  0  0
   -1.4321    1.9906    0.4813 H   0  0  0  0  0  0  0  0  0  0  0  0
   -3.2675   -2.7922   -0.9659 H   0  0  0  0  0  0  0  0  0  0  0  0
   -2.4117   -2.9384    0.5748 H   0  0  0  0  0  0  0  0  0  0  0  0
   -1.5239   -2.6637   -0.9367 H   0  0  0  0  0  0  0  0  0  0  0  0
   -4.7096    2.3796    1.1386 H   0  0  0  0  0  0  0  0  0  0  0  0
   -4.8445    2.4522   -0.6327 H   0  0  0  0  0  0  0  0  0  0  0  0
   -3.5112    3.2647    0.1869 H   0  0  0  0  0  0  0  0  0  0  0  0
    0.3859    1.5004   -0.4533 H   0  0  0  0  0  0  0  0  0  0  0  0
    2.3834    2.6423   -0.8528 H   0  0  0  0  0  0  0  0  0  0  0  0
    2.3984   -1.4577    0.5691 H   0  0  0  0  0  0  0  0  0  0  0  0
    4.8389    2.6072   -0.8723 H   0  0  0  0  0  0  0  0  0  0  0  0
    4.7320   -1.4898    0.5504 H   0  0  0  0  0  0  0  0  0  0  0  0
   -7.5153   -1.2699    0.4064 H   0  0  0  0  0  0  0  0  0  0  0  0
   -7.6225   -0.1789   -1.0069 H   0  0  0  0  0  0  0  0  0  0  0  0
    6.8212    1.4110   -0.4829 H   0  0  0  0  0  0  0  0  0  0  0  0
   -8.1191    1.7302    0.5238 H   0  0  0  0  0  0  0  0  0  0  0  0
   -8.0152    0.6569    1.9132 H   0  0  0  0  0  0  0  0  0  0  0  0
   -9.3191    0.4302    0.7226 H   0  0  0  0  0  0  0  0  0  0  0  0
    8.8938    0.1142   -1.0199 H   0  0  0  0  0  0  0  0  0  0  0  0
    9.3179   -0.9595    0.3355 H   0  0  0  0  0  0  0  0  0  0  0  0
    8.9050    0.7421    0.6527 H   0  0  0  0  0  0  0  0  0  0  0  0
  1 15  1  0  0  0  0
  1 22  1  0  0  0  0
  2 13  2  0  0  0  0
  3 15  2  0  0  0  0
  4 24  2  0  0  0  0
  5 10  1  0  0  0  0
  5 11  1  0  0  0  0
  5 26  1  0  0  0  0
  6 13  1  0  0  0  0
  6 16  1  0  0  0  0
  6 33  1  0  0  0  0
  7 19  1  0  0  0  0
  7 24  1  0  0  0  0
  7 40  1  0  0  0  0
  8  9  1  0  0  0  0
  8 10  2  0  0  0  0
  8 12  1  0  0  0  0
  9 11  2  0  0  0  0
  9 15  1  0  0  0  0
 10 13  1  0  0  0  0
 11 14  1  0  0  0  0
 12 27  1  0  0  0  0
 12 28  1  0  0  0  0
 12 29  1  0  0  0  0
 14 30  1  0  0  0  0
 14 31  1  0  0  0  0
 14 32  1  0  0  0  0
 16 17  2  0  0  0  0
 16 18  1  0  0  0  0
 17 20  1  0  0  0  0
 17 34  1  0  0  0  0
 18 21  2  0  0  0  0
 18 35  1  0  0  0  0
 19 20  2  0  0  0  0
 19 21  1  0  0  0  0
 20 36  1  0  0  0  0
 21 37  1  0  0  0  0
 22 23  1  0  0  0  0
 22 38  1  0  0  0  0
 22 39  1  0  0  0  0
 23 41  1  0  0  0  0
 23 42  1  0  0  0  0
 23 43  1  0  0  0  0
 24 25  1  0  0  0  0
 25 44  1  0  0  0  0
 25 45  1  0  0  0  0
 25 46  1  0  0  0  0
M  END
> <PUBCHEM_COMPOUND_CID>
2583105

> <PUBCHEM_CONFORMER_RMSD>
0.8

> <PUBCHEM_CONFORMER_DIVERSEORDER>
1
30
26
33
7
12
34
14
9
22
18
25
29
24
20
11
15
21
40
19
28
6
13
23
31
37
17
38
4
5
36
3
42
32
8
27
35
2
41
16
10
39

> <PUBCHEM_MMFF94_PARTIAL_CHARGES>
31
1 -0.43
10 -0.24
11 -0.33
12 0.18
13 0.71
14 0.18
15 0.81
16 0.12
17 -0.15
18 -0.15
19 0.12
2 -0.57
20 -0.15
21 -0.15
22 0.28
24 0.57
25 0.06
26 0.27
3 -0.57
33 0.37
34 0.15
35 0.15
36 0.15
37 0.15
4 -0.57
40 0.37
5 0.03
6 -0.55
7 -0.55
8 -0.18
9 -0.09

> <PUBCHEM_EFFECTIVE_ROTOR_COUNT>
8

> <PUBCHEM_PHARMACOPHORE_FEATURES>
9
1 2 acceptor
1 3 acceptor
1 4 acceptor
1 5 cation
1 5 donor
1 6 donor
1 7 donor
5 5 8 9 10 11 rings
6 16 17 18 19 20 21 rings

> <PUBCHEM_HEAVY_ATOM_COUNT>
25

> <PUBCHEM_ATOM_DEF_STEREO_COUNT>
0

> <PUBCHEM_ATOM_UDEF_STEREO_COUNT>
0

> <PUBCHEM_BOND_DEF_STEREO_COUNT>
0

> <PUBCHEM_BOND_UDEF_STEREO_COUNT>
0

> <PUBCHEM_ISOTOPIC_ATOM_COUNT>
0

> <PUBCHEM_COMPONENT_COUNT>
1

> <PUBCHEM_CACTVS_TAUTO_COUNT>
14

> <PUBCHEM_CONFORMER_ID>
00276A4100000001

> <PUBCHEM_MMFF94_ENERGY>
61.753

> <PUBCHEM_FEATURE_SELFOVERLAP>
45.674

> <PUBCHEM_SHAPE_FINGERPRINT>
10299344 5 18410293613986616818
10730089 173 18413951681284133825
11315181 36 18333452062089047112
11524674 6 16056879165325624447
11719270 70 17918275334150534406
12107183 9 17832702379136008216
12166972 35 18411136965682152152
12236239 1 18410291445028145516
13533116 47 17168413892189003635
14251764 18 18335421262193092892
14251764 46 16988844977461072798
15183329 4 18187080651216524058
15419008 47 16774072956445834152
18681886 176 18342730849912237306
20281389 69 18408321090643825584
21095086 128 12829202274605830816
21150785 3 8430314628326587393
21267235 1 18334861623073985305
23035841 295 18343302578731351511
23402539 116 18343861125821328109
23559900 14 18269265949056611736
249057 3 18408886260999977814
29717793 49 18343306989757729940
3004659 81 18334009510885740080
335352 9 18409448111035648110
34797466 226 17561089137681021516
350125 39 18412263926851825921
3545911 37 18410011044009510518
4073 2 17968944214392428218
4214541 1 18410855464565898260
4325135 7 18413107256100534573
4339292 15 15984528023933246975
4340502 62 16877664561459287819
5283156 175 18342177752049433256
54446538 1 18408886243540916940
559249 180 18411415090219588956
59755656 520 17313381266317530739
8209 1 18408323289418674056

> <PUBCHEM_SHAPE_MULTIPOLES>
476.07
23.51
1.85
0.74
10.84
0.06
-0.03
-0.78
2.11
-0.8
-0.15
-0.33
-0.05
-1.42

> <PUBCHEM_SHAPE_SELFOVERLAP>
1008.677

> <PUBCHEM_SHAPE_VOLUME>
266.8

> <PUBCHEM_COORDINATE_TYPE>
2
5
10

$$$$
