1432125
  -OEChem-01171809213D

 40 43  0     0  0  0  0  0  0999 V2000
   -5.3453   -1.3192    0.1944 Cl  0  0  0  0  0  0  0  0  0  0  0  0
    3.7808   -1.8213   -0.9153 O   0  0  0  0  0  0  0  0  0  0  0  0
   -0.8939    4.5878   -1.1518 O   0  0  0  0  0  0  0  0  0  0  0  0
    2.9350    1.9775    1.3720 O   0  0  0  0  0  0  0  0  0  0  0  0
   -2.4142    0.7420    0.7110 N   0  0  0  0  0  0  0  0  0  0  0  0
   -3.4358    1.6155    0.2855 N   0  0  0  0  0  0  0  0  0  0  0  0
   -2.8711    2.7688   -0.2362 N   0  0  0  0  0  0  0  0  0  0  0  0
    0.0182    1.0560    0.5867 N   0  0  0  0  0  0  0  0  0  0  0  0
    0.7552    3.1307   -0.4200 N   0  0  0  0  0  0  0  0  0  0  0  0
    2.9335    0.9532   -0.7378 N   0  0  0  0  0  0  0  0  0  0  0  0
   -2.6655   -0.4596    1.4526 C   0  0  0  0  0  0  0  0  0  0  0  0
   -1.2258    1.3328    0.4324 C   0  0  0  0  0  0  0  0  0  0  0  0
   -2.6694   -1.6742    0.5699 C   0  0  0  0  0  0  0  0  0  0  0  0
   -1.5909    2.6075   -0.1865 C   0  0  0  0  0  0  0  0  0  0  0  0
   -3.8375   -2.1272   -0.0351 C   0  0  0  0  0  0  0  0  0  0  0  0
   -1.4654   -2.3425    0.3693 C   0  0  0  0  0  0  0  0  0  0  0  0
    0.9625    1.9747    0.1479 C   0  0  0  0  0  0  0  0  0  0  0  0
   -0.5413    3.5385   -0.6329 C   0  0  0  0  0  0  0  0  0  0  0  0
    4.3107    0.5187   -0.7812 C   0  0  0  0  0  0  0  0  0  0  0  0
    2.4029    1.6320    0.3317 C   0  0  0  0  0  0  0  0  0  0  0  0
   -3.8016   -3.2597   -0.8486 C   0  0  0  0  0  0  0  0  0  0  0  0
   -1.4295   -3.4751   -0.4443 C   0  0  0  0  0  0  0  0  0  0  0  0
    4.4761   -0.8779   -0.2555 C   0  0  0  0  0  0  0  0  0  0  0  0
   -2.5976   -3.9337   -1.0532 C   0  0  0  0  0  0  0  0  0  0  0  0
    5.2004   -1.3823    0.7709 C   0  0  0  0  0  0  0  0  0  0  0  0
    4.9392   -2.7732    0.7591 C   0  0  0  0  0  0  0  0  0  0  0  0
    4.0704   -2.9898   -0.2849 C   0  0  0  0  0  0  0  0  0  0  0  0
   -3.5931   -0.3809    2.0323 H   0  0  0  0  0  0  0  0  0  0  0  0
   -1.8918   -0.5784    2.2238 H   0  0  0  0  0  0  0  0  0  0  0  0
   -4.0311    1.8684    1.0734 H   0  0  0  0  0  0  0  0  0  0  0  0
   -0.5467   -1.9977    0.8360 H   0  0  0  0  0  0  0  0  0  0  0  0
    4.9272    1.2152   -0.2024 H   0  0  0  0  0  0  0  0  0  0  0  0
    4.6362    0.5600   -1.8258 H   0  0  0  0  0  0  0  0  0  0  0  0
   -4.7029   -3.6298   -1.3305 H   0  0  0  0  0  0  0  0  0  0  0  0
   -0.4919   -3.9995   -0.6039 H   0  0  0  0  0  0  0  0  0  0  0  0
    2.3384    0.7297   -1.5305 H   0  0  0  0  0  0  0  0  0  0  0  0
   -2.5694   -4.8154   -1.6868 H   0  0  0  0  0  0  0  0  0  0  0  0
    5.8392   -0.8387    1.4517 H   0  0  0  0  0  0  0  0  0  0  0  0
    5.3344   -3.5240    1.4281 H   0  0  0  0  0  0  0  0  0  0  0  0
    3.5900   -3.8695   -0.6878 H   0  0  0  0  0  0  0  0  0  0  0  0
  1 15  1  0  0  0  0
  2 23  1  0  0  0  0
  2 27  1  0  0  0  0
  3 18  2  0  0  0  0
  4 20  2  0  0  0  0
  5  6  1  0  0  0  0
  5 11  1  0  0  0  0
  5 12  1  0  0  0  0
  6  7  1  0  0  0  0
  6 30  1  0  0  0  0
  7 14  2  0  0  0  0
  8 12  2  0  0  0  0
  8 17  1  0  0  0  0
  9 17  2  0  0  0  0
  9 18  1  0  0  0  0
 10 19  1  0  0  0  0
 10 20  1  0  0  0  0
 10 36  1  0  0  0  0
 11 13  1  0  0  0  0
 11 28  1  0  0  0  0
 11 29  1  0  0  0  0
 12 14  1  0  0  0  0
 13 15  1  0  0  0  0
 13 16  2  0  0  0  0
 14 18  1  0  0  0  0
 15 21  2  0  0  0  0
 16 22  1  0  0  0  0
 16 31  1  0  0  0  0
 17 20  1  0  0  0  0
 19 23  1  0  0  0  0
 19 32  1  0  0  0  0
 19 33  1  0  0  0  0
 21 24  1  0  0  0  0
 21 34  1  0  0  0  0
 22 24  2  0  0  0  0
 22 35  1  0  0  0  0
 23 25  2  0  0  0  0
 24 37  1  0  0  0  0
 25 26  1  0  0  0  0
 25 38  1  0  0  0  0
 26 27  2  0  0  0  0
 26 39  1  0  0  0  0
 27 40  1  0  0  0  0
M  END
> <PUBCHEM_COMPOUND_CID>
1432125

> <PUBCHEM_CONFORMER_RMSD>
0.8

> <PUBCHEM_CONFORMER_DIVERSEORDER>
1
311
228
52
277
295
146
329
178
412
426
283
226
404
432
110
65
375
464
132
408
291
347
192
266
263
387
340
157
93
45
353
445
301
400
79
297
62
399
213
469
134
44
116
135
127
367
196
325
357
447
142
391
154
233
292
151
418
28
210
362
261
186
95
468
383
242
173
267
440
298
241
251
96
148
281
141
448
215
415
70
230
232
122
174
416
360
209
177
87
31
365
74
259
190
197
308
71
248
214
212
17
123
243
262
140
439
13
278
453
78
102
419
406
438
136
92
195
171
462
252
258
420
409
300
253
269
227
25
61
203
183
218
55
424
160
231
382
356
407
376
326
247
164
97
57
220
73
238
428
288
369
21
452
144
449
239
287
98
264
366
208
107
90
441
384
169
268
53
201
113
320
118
316
63
466
115
394
125
124
91
234
129
72
200
293
343
373
147
249
317
206
80
461
381
344
59
112
66
19
286
207
310
109
179
284
163
224
315
443
385
217
244
37
235
187
458
83
26
188
271
402
275
370
84
27
389
255
35
117
379
463
296
436
265
374
100
194
254
246
380
204
75
58
114
2
427
181
459
20
128
32
216
339
12
229
338
377
36
290
30
456
222
348
211
185
193
430
67
398
417
24
184
333
323
120
429
158
390
322
23
223
411
302
451
130
8
56
131
272
446
165
133
43
205
358
103
437
94
414
138
294
191
309
156
342
236
199
16
153
33
345
111
250
168
434
312
282
7
162
237
42
245
22
285
99
137
14
318
180
149
101
68
15
455
435
41
50
175
76
460
3
161
77
410
104
85
335
351
167
88
64
150
354
304
359
5
145
467
48
413
18
176
54
341
386
202
126
49
336
371
465
444
9
240
368
219
256
372
189
423
349
108
421
331
395
198
273
405
6
299
361
330
350
324
396
433
10
105
182
321
60
303
332
378
401
39
38
442
450
363
152
139
40
425
355
274
289
155
270
46
352
431
166
172
29
334
260
337
403
314
346
4
89
397
327
364
221
307
313
392
393
69
328
257
47
121
170
143
422
225
119
388
106
51
280
276
319
159
454
306
457
11
86
81
82
34
279
305

> <PUBCHEM_MMFF94_PARTIAL_CHARGES>
36
1 -0.18
10 -0.73
11 0.51
12 0.5
13 -0.14
14 0.45
15 0.18
16 -0.15
17 0.66
18 0.78
19 0.48
2 -0.28
20 0.63
21 -0.15
22 -0.15
23 -0.04
24 -0.15
25 -0.15
26 -0.15
27 -0.01
3 -0.57
30 0.36
31 0.15
34 0.15
35 0.15
36 0.37
37 0.15
38 0.15
39 0.15
4 -0.57
40 0.15
5 -0.43
6 -0.3
7 -0.5
8 -0.66
9 -0.66

> <PUBCHEM_EFFECTIVE_ROTOR_COUNT>
6

> <PUBCHEM_PHARMACOPHORE_FEATURES>
11
1 10 donor
1 2 acceptor
1 3 acceptor
1 4 acceptor
1 7 acceptor
1 9 donor
3 5 8 12 cation
5 2 23 25 26 27 rings
5 5 6 7 12 14 rings
6 13 15 16 21 22 24 rings
6 8 9 12 14 17 18 rings

> <PUBCHEM_HEAVY_ATOM_COUNT>
27

> <PUBCHEM_ATOM_DEF_STEREO_COUNT>
0

> <PUBCHEM_ATOM_UDEF_STEREO_COUNT>
0

> <PUBCHEM_BOND_DEF_STEREO_COUNT>
0

> <PUBCHEM_BOND_UDEF_STEREO_COUNT>
0

> <PUBCHEM_ISOTOPIC_ATOM_COUNT>
0

> <PUBCHEM_COMPONENT_COUNT>
1

> <PUBCHEM_CACTVS_TAUTO_COUNT>
8

> <PUBCHEM_CONFORMER_ID>
0015DA3D00000001

> <PUBCHEM_MMFF94_ENERGY>
57.0148

> <PUBCHEM_FEATURE_SELFOVERLAP>
55.949

> <PUBCHEM_SHAPE_FINGERPRINT>
10483366 6 18265879299620816749
10928967 22 18267605609595583202
12107183 9 18269570467539940547
12422481 6 18125752052750852891
12553582 1 18118978132919731520
12633257 1 17987536869184870363
12969540 37 18123746727582024941
12990986 174 18410289186460988122
13004483 165 18410008849202347863
1454969 45 18121778602733689416
14863182 85 17257933122451406857
15927050 60 17331958323123986869
20764821 26 18410293601102085758
20775530 9 18199194060201857098
21344244 181 18194375859211653797
21458453 9 10158014808703947375
23559900 14 18053944227776721809
3298306 158 17761772866874689172
38695281 34 17760928437723877953
463206 1 18265058109709933906
5085150 59 17686881840146513864
508706 21 18197502826856777702
5309563 4 17905620147897679682
56633871 153 18340493386763300219
6433294 58 18413110563410293466

> <PUBCHEM_SHAPE_MULTIPOLES>
510.02
10.55
6.11
1.05
7.31
1.64
0.08
-10.11
0.51
-1.94
-1.93
0.07
-0.05
-0.73

> <PUBCHEM_SHAPE_SELFOVERLAP>
1112.746

> <PUBCHEM_SHAPE_VOLUME>
277.6

> <PUBCHEM_COORDINATE_TYPE>
2
5
10

$$$$
