268762
  -OEChem-01171810163D

 45 46  0     0  0  0  0  0  0999 V2000
   -1.4622    2.4427   -0.5106 O   0  0  0  0  0  0  0  0  0  0  0  0
    1.7003    1.6772    0.5263 N   0  0  0  0  0  0  0  0  0  0  0  0
    2.9215    2.3896    0.1361 C   0  0  0  0  0  0  0  0  0  0  0  0
    3.6108    2.9073    1.4031 C   0  0  0  0  0  0  0  0  0  0  0  0
    3.8424    1.4118   -0.6013 C   0  0  0  0  0  0  0  0  0  0  0  0
    2.5553    3.5623   -0.7811 C   0  0  0  0  0  0  0  0  0  0  0  0
    1.0157    1.1577   -0.6454 C   0  0  0  0  0  0  0  0  0  0  0  0
   -0.2505    0.4194   -0.2928 C   0  0  0  0  0  0  0  0  0  0  0  0
   -1.5066    1.2319   -0.3168 C   0  0  0  0  0  0  0  0  0  0  0  0
   -0.2616   -0.9069   -0.0567 C   0  0  0  0  0  0  0  0  0  0  0  0
   -2.8086    0.5636   -0.0742 C   0  0  0  0  0  0  0  0  0  0  0  0
    0.8954   -1.8110   -0.0070 C   0  0  0  0  0  0  0  0  0  0  0  0
   -3.2819    0.4725    1.2195 C   0  0  0  0  0  0  0  0  0  0  0  0
   -3.5084    0.0532   -1.1491 C   0  0  0  0  0  0  0  0  0  0  0  0
    1.3127   -2.4501   -1.1657 C   0  0  0  0  0  0  0  0  0  0  0  0
    1.5535   -2.0123    1.1980 C   0  0  0  0  0  0  0  0  0  0  0  0
   -4.5062   -0.1558    1.4478 C   0  0  0  0  0  0  0  0  0  0  0  0
   -4.7327   -0.5749   -0.9208 C   0  0  0  0  0  0  0  0  0  0  0  0
    2.4109   -3.3088   -1.1187 C   0  0  0  0  0  0  0  0  0  0  0  0
    2.6518   -2.8709    1.2451 C   0  0  0  0  0  0  0  0  0  0  0  0
   -5.2316   -0.6793    0.3778 C   0  0  0  0  0  0  0  0  0  0  0  0
    3.0804   -3.5191    0.0867 C   0  0  0  0  0  0  0  0  0  0  0  0
    1.0814    2.3161    1.0262 H   0  0  0  0  0  0  0  0  0  0  0  0
    3.8692    2.0848    2.0805 H   0  0  0  0  0  0  0  0  0  0  0  0
    4.5381    3.4388    1.1609 H   0  0  0  0  0  0  0  0  0  0  0  0
    2.9662    3.6029    1.9532 H   0  0  0  0  0  0  0  0  0  0  0  0
    3.5231    1.1923   -1.6255 H   0  0  0  0  0  0  0  0  0  0  0  0
    3.9502    0.4652   -0.0579 H   0  0  0  0  0  0  0  0  0  0  0  0
    4.8493    1.8386   -0.6916 H   0  0  0  0  0  0  0  0  0  0  0  0
    1.7425    4.1677   -0.3626 H   0  0  0  0  0  0  0  0  0  0  0  0
    3.4175    4.2305   -0.9002 H   0  0  0  0  0  0  0  0  0  0  0  0
    2.2751    3.2572   -1.7946 H   0  0  0  0  0  0  0  0  0  0  0  0
    1.6436    0.4644   -1.2121 H   0  0  0  0  0  0  0  0  0  0  0  0
    0.7461    1.9413   -1.3604 H   0  0  0  0  0  0  0  0  0  0  0  0
   -1.1895   -1.4301    0.1597 H   0  0  0  0  0  0  0  0  0  0  0  0
   -2.7217    0.8785    2.0567 H   0  0  0  0  0  0  0  0  0  0  0  0
   -3.1252    0.1318   -2.1623 H   0  0  0  0  0  0  0  0  0  0  0  0
    0.7996   -2.2946   -2.1113 H   0  0  0  0  0  0  0  0  0  0  0  0
    1.2296   -1.5131    2.1076 H   0  0  0  0  0  0  0  0  0  0  0  0
   -4.8946   -0.2372    2.4588 H   0  0  0  0  0  0  0  0  0  0  0  0
   -5.2977   -0.9827   -1.7539 H   0  0  0  0  0  0  0  0  0  0  0  0
    2.7449   -3.8134   -2.0206 H   0  0  0  0  0  0  0  0  0  0  0  0
    3.1736   -3.0344    2.1835 H   0  0  0  0  0  0  0  0  0  0  0  0
   -6.1848   -1.1685    0.5555 H   0  0  0  0  0  0  0  0  0  0  0  0
    3.9358   -4.1872    0.1234 H   0  0  0  0  0  0  0  0  0  0  0  0
  1  9  2  0  0  0  0
  2  3  1  0  0  0  0
  2  7  1  0  0  0  0
  2 23  1  0  0  0  0
  3  4  1  0  0  0  0
  3  5  1  0  0  0  0
  3  6  1  0  0  0  0
  4 24  1  0  0  0  0
  4 25  1  0  0  0  0
  4 26  1  0  0  0  0
  5 27  1  0  0  0  0
  5 28  1  0  0  0  0
  5 29  1  0  0  0  0
  6 30  1  0  0  0  0
  6 31  1  0  0  0  0
  6 32  1  0  0  0  0
  7  8  1  0  0  0  0
  7 33  1  0  0  0  0
  7 34  1  0  0  0  0
  8  9  1  0  0  0  0
  8 10  2  0  0  0  0
  9 11  1  0  0  0  0
 10 12  1  0  0  0  0
 10 35  1  0  0  0  0
 11 13  2  0  0  0  0
 11 14  1  0  0  0  0
 12 15  2  0  0  0  0
 12 16  1  0  0  0  0
 13 17  1  0  0  0  0
 13 36  1  0  0  0  0
 14 18  2  0  0  0  0
 14 37  1  0  0  0  0
 15 19  1  0  0  0  0
 15 38  1  0  0  0  0
 16 20  2  0  0  0  0
 16 39  1  0  0  0  0
 17 21  2  0  0  0  0
 17 40  1  0  0  0  0
 18 21  1  0  0  0  0
 18 41  1  0  0  0  0
 19 22  2  0  0  0  0
 19 42  1  0  0  0  0
 20 22  1  0  0  0  0
 20 43  1  0  0  0  0
 21 44  1  0  0  0  0
 22 45  1  0  0  0  0
M  END
> <PUBCHEM_COMPOUND_CID>
268762

> <PUBCHEM_CONFORMER_RMSD>
0.8

> <PUBCHEM_CONFORMER_DIVERSEORDER>
1
8
18
12
17
11
2
9
15
19
16
21
7
14
4
20
3
6
13
10
5

> <PUBCHEM_MMFF94_PARTIAL_CHARGES>
31
1 -0.57
10 -0.18
11 0.09
12 0.03
13 -0.15
14 -0.15
15 -0.15
16 -0.15
17 -0.15
18 -0.15
19 -0.15
2 -0.9
20 -0.15
21 -0.15
22 -0.15
23 0.36
3 0.27
35 0.15
36 0.15
37 0.15
38 0.15
39 0.15
40 0.15
41 0.15
42 0.15
43 0.15
44 0.15
45 0.15
7 0.41
8 -0.12
9 0.47

> <PUBCHEM_EFFECTIVE_ROTOR_COUNT>
6

> <PUBCHEM_PHARMACOPHORE_FEATURES>
6
1 1 acceptor
1 2 cation
1 2 donor
4 3 4 5 6 hydrophobe
6 11 13 14 17 18 21 rings
6 12 15 16 19 20 22 rings

> <PUBCHEM_HEAVY_ATOM_COUNT>
22

> <PUBCHEM_ATOM_DEF_STEREO_COUNT>
0

> <PUBCHEM_ATOM_UDEF_STEREO_COUNT>
0

> <PUBCHEM_BOND_DEF_STEREO_COUNT>
0

> <PUBCHEM_BOND_UDEF_STEREO_COUNT>
1

> <PUBCHEM_ISOTOPIC_ATOM_COUNT>
0

> <PUBCHEM_COMPONENT_COUNT>
1

> <PUBCHEM_CACTVS_TAUTO_COUNT>
1

> <PUBCHEM_CONFORMER_ID>
000419DA00000001

> <PUBCHEM_MMFF94_ENERGY>
68.1551

> <PUBCHEM_FEATURE_SELFOVERLAP>
30.446

> <PUBCHEM_SHAPE_FINGERPRINT>
11578080 2 17241878792396328486
12363563 72 18191027794491186755
12553582 1 18119820105888300091
12592029 89 18335983150994264856
12644460 14 18413113848601326067
12707595 3 18190464853038029235
12788726 201 17109596368106997994
12839892 36 18119243123965103483
13083527 12 18337653249006247503
13140716 1 18194120939547910304
13149001 5 17612849527351815197
13257819 37 17826819202080692284
133893 2 18262821578298971616
13533116 47 18412830179682129195
13911987 19 18046343304263581285
14347424 109 18341063917781716827
14739800 52 17489585658521766409
14787075 74 18115318752576311062
14863182 85 18189629391656723447
15502722 9 18409166605994036085
17138139 8 17338409608720269863
1813 80 18055639416840084894
18785283 64 18335422391706077880
19591789 44 18050286169654649606
20028762 73 17621891206973493951
20101258 96 18049452443424598992
204376 136 18192714672739805341
20600515 1 17411340914790368608
20603629 256 18340779169359561163
20645477 70 18337098000282544807
20693207 138 17822010857523428287
21421861 104 18198921235532029977
21524375 3 18269836591549466164
22182313 1 17894627033606604829
22956985 138 18041268873380644074
23366157 5 18260834765061279829
23419403 2 17752176454142069862
23557571 272 17260177806057936822
23559900 14 17821730486131558647
458136 41 18339091491624714729
474 4 18339646766439981709
5104073 3 18339096904369971233
58807428 26 18266452294933206168
59755656 215 18334013899608996357
59755656 520 18127405881331752924
6138700 20 18410862032525500894
621550 5 17127332680860141110
6287921 2 18059288768931247606
633830 44 18129956700678535229
6669772 16 18340210808179850700
7364860 26 18412826863244715822
81228 2 16972234363453728120
9841814 1 18262518070113860387

> <PUBCHEM_SHAPE_MULTIPOLES>
441.9
8.91
4.58
1.33
10.64
0.9
0.23
-0.79
1.17
-8.44
-0.16
0.1
0.21
0.18

> <PUBCHEM_SHAPE_SELFOVERLAP>
930.098

> <PUBCHEM_SHAPE_VOLUME>
249.2

> <PUBCHEM_COORDINATE_TYPE>
2
5
10

$$$$
