2209095
  -OEChem-01171809223D

 47 48  0     0  0  0  0  0  0999 V2000
   -1.1560    1.4797    2.5884 Cl  0  0  0  0  0  0  0  0  0  0  0  0
    3.4112    1.5697   -0.3404 S   0  0  0  0  0  0  0  0  0  0  0  0
    3.8062    2.2112   -1.5800 O   0  0  0  0  0  0  0  0  0  0  0  0
    3.8981    2.0737    0.9294 O   0  0  0  0  0  0  0  0  0  0  0  0
   -2.5037    1.6194   -0.0958 O   0  0  0  0  0  0  0  0  0  0  0  0
   -5.1492   -0.7005   -0.7305 O   0  0  0  0  0  0  0  0  0  0  0  0
   -4.8928    0.9016    0.9114 O   0  0  0  0  0  0  0  0  0  0  0  0
    3.7436   -0.0940   -0.4349 N   0  0  0  0  0  0  0  0  0  0  0  0
    1.0738   -2.5249    1.3506 C   0  0  0  0  0  0  0  0  0  0  0  0
   -0.3791   -2.2991    0.9241 C   0  0  0  0  0  0  0  0  0  0  0  0
    2.0605   -2.4192    0.2143 C   0  0  0  0  0  0  0  0  0  0  0  0
   -0.6905   -3.0225   -0.3806 C   0  0  0  0  0  0  0  0  0  0  0  0
    0.2364   -2.5546   -1.5028 C   0  0  0  0  0  0  0  0  0  0  0  0
    3.5062   -2.3181    0.6014 C   0  0  0  0  0  0  0  0  0  0  0  0
    1.6667   -2.4179   -1.0712 C   0  0  0  0  0  0  0  0  0  0  0  0
    3.9474   -0.8776    0.8047 C   0  0  0  0  0  0  0  0  0  0  0  0
    1.6456    1.5841   -0.2577 C   0  0  0  0  0  0  0  0  0  0  0  0
    1.0043    1.5325    0.9799 C   0  0  0  0  0  0  0  0  0  0  0  0
    0.8935    1.6471   -1.4308 C   0  0  0  0  0  0  0  0  0  0  0  0
   -0.3890    1.5440    1.0444 C   0  0  0  0  0  0  0  0  0  0  0  0
   -0.4998    1.6585   -1.3663 C   0  0  0  0  0  0  0  0  0  0  0  0
   -1.1410    1.6070   -0.1287 C   0  0  0  0  0  0  0  0  0  0  0  0
   -3.1770    0.5562   -0.7660 C   0  0  0  0  0  0  0  0  0  0  0  0
   -4.4911    0.3009   -0.0759 C   0  0  0  0  0  0  0  0  0  0  0  0
   -6.4242   -1.0574   -0.1871 C   0  0  0  0  0  0  0  0  0  0  0  0
    1.3192   -1.7961    2.1320 H   0  0  0  0  0  0  0  0  0  0  0  0
    1.1686   -3.5217    1.7993 H   0  0  0  0  0  0  0  0  0  0  0  0
   -1.0536   -2.6428    1.7164 H   0  0  0  0  0  0  0  0  0  0  0  0
   -0.5646   -1.2305    0.7926 H   0  0  0  0  0  0  0  0  0  0  0  0
   -0.5729   -4.1037   -0.2333 H   0  0  0  0  0  0  0  0  0  0  0  0
   -1.7342   -2.8530   -0.6679 H   0  0  0  0  0  0  0  0  0  0  0  0
    0.1744   -3.2652   -2.3347 H   0  0  0  0  0  0  0  0  0  0  0  0
   -0.1038   -1.5849   -1.8844 H   0  0  0  0  0  0  0  0  0  0  0  0
    3.6926   -2.8990    1.5128 H   0  0  0  0  0  0  0  0  0  0  0  0
    4.1283   -2.7790   -0.1776 H   0  0  0  0  0  0  0  0  0  0  0  0
    2.4041   -2.3242   -1.8640 H   0  0  0  0  0  0  0  0  0  0  0  0
    3.3907   -0.4330    1.6361 H   0  0  0  0  0  0  0  0  0  0  0  0
    5.0128   -0.8510    1.0574 H   0  0  0  0  0  0  0  0  0  0  0  0
    4.1933   -0.4619   -1.2823 H   0  0  0  0  0  0  0  0  0  0  0  0
    1.5835    1.4764    1.8981 H   0  0  0  0  0  0  0  0  0  0  0  0
    1.3732    1.6820   -2.4048 H   0  0  0  0  0  0  0  0  0  0  0  0
   -1.0711    1.7143   -2.2889 H   0  0  0  0  0  0  0  0  0  0  0  0
   -2.5862   -0.3661   -0.7318 H   0  0  0  0  0  0  0  0  0  0  0  0
   -3.3724    0.8559   -1.8005 H   0  0  0  0  0  0  0  0  0  0  0  0
   -6.8407   -1.8627   -0.7979 H   0  0  0  0  0  0  0  0  0  0  0  0
   -7.1045   -0.2011   -0.2235 H   0  0  0  0  0  0  0  0  0  0  0  0
   -6.3106   -1.4182    0.8397 H   0  0  0  0  0  0  0  0  0  0  0  0
  1 20  1  0  0  0  0
  2  3  2  0  0  0  0
  2  4  2  0  0  0  0
  2  8  1  0  0  0  0
  2 17  1  0  0  0  0
  5 22  1  0  0  0  0
  5 23  1  0  0  0  0
  6 24  1  0  0  0  0
  6 25  1  0  0  0  0
  7 24  2  0  0  0  0
  8 16  1  0  0  0  0
  8 39  1  0  0  0  0
  9 10  1  0  0  0  0
  9 11  1  0  0  0  0
  9 26  1  0  0  0  0
  9 27  1  0  0  0  0
 10 12  1  0  0  0  0
 10 28  1  0  0  0  0
 10 29  1  0  0  0  0
 11 14  1  0  0  0  0
 11 15  2  0  0  0  0
 12 13  1  0  0  0  0
 12 30  1  0  0  0  0
 12 31  1  0  0  0  0
 13 15  1  0  0  0  0
 13 32  1  0  0  0  0
 13 33  1  0  0  0  0
 14 16  1  0  0  0  0
 14 34  1  0  0  0  0
 14 35  1  0  0  0  0
 15 36  1  0  0  0  0
 16 37  1  0  0  0  0
 16 38  1  0  0  0  0
 17 18  2  0  0  0  0
 17 19  1  0  0  0  0
 18 20  1  0  0  0  0
 18 40  1  0  0  0  0
 19 21  2  0  0  0  0
 19 41  1  0  0  0  0
 20 22  2  0  0  0  0
 21 22  1  0  0  0  0
 21 42  1  0  0  0  0
 23 24  1  0  0  0  0
 23 43  1  0  0  0  0
 23 44  1  0  0  0  0
 25 45  1  0  0  0  0
 25 46  1  0  0  0  0
 25 47  1  0  0  0  0
M  END
> <PUBCHEM_COMPOUND_CID>
2209095

> <PUBCHEM_CONFORMER_RMSD>
1

> <PUBCHEM_CONFORMER_DIVERSEORDER>
1
39
71
36
151
62
74
116
70
128
149
148
45
186
3
90
184
86
169
34
48
161
143
163
92
110
29
56
50
76
129
89
152
13
118
150
98
93
101
65
8
22
141
73
145
171
156
112
24
132
81
80
95
153
144
102
135
179
173
77
32
31
140
160
54
162
154
61
168
127
11
113
109
111
172
79
157
142
106
180
26
174
137
72
69
19
57
53
23
178
119
181
42
52
94
58
124
139
130
51
166
12
59
176
49
55
2
17
103
147
114
15
136
177
146
16
123
21
121
14
120
108
96
18
131
87
75
122
182
104
30
9
164
100
138
67
20
64
7
126
27
155
6
115
82
185
91
84
134
165
183
44
46
33
63
66
99
158
4
78
68
125
85
5
170
28
159
38
117
35
47
107
10
40
43
41
88
37
83
25
105
97
133
167
60
175

> <PUBCHEM_MMFF94_PARTIAL_CHARGES>
28
1 -0.18
11 -0.28
13 0.14
14 0.14
15 -0.29
16 0.36
17 -0.01
18 -0.15
19 -0.15
2 1.45
20 0.18
21 -0.15
22 0.08
23 0.34
24 0.66
25 0.28
3 -0.65
36 0.15
39 0.42
4 -0.65
40 0.15
41 0.15
42 0.15
5 -0.36
6 -0.43
7 -0.57
8 -0.91
9 0.14

> <PUBCHEM_EFFECTIVE_ROTOR_COUNT>
9.8

> <PUBCHEM_PHARMACOPHORE_FEATURES>
7
1 3 acceptor
1 4 acceptor
1 5 acceptor
1 7 acceptor
1 8 donor
6 17 18 19 20 21 22 rings
6 9 10 11 12 13 15 rings

> <PUBCHEM_HEAVY_ATOM_COUNT>
25

> <PUBCHEM_ATOM_DEF_STEREO_COUNT>
0

> <PUBCHEM_ATOM_UDEF_STEREO_COUNT>
0

> <PUBCHEM_BOND_DEF_STEREO_COUNT>
0

> <PUBCHEM_BOND_UDEF_STEREO_COUNT>
0

> <PUBCHEM_ISOTOPIC_ATOM_COUNT>
0

> <PUBCHEM_COMPONENT_COUNT>
1

> <PUBCHEM_CACTVS_TAUTO_COUNT>
1

> <PUBCHEM_CONFORMER_ID>
0021B54700000001

> <PUBCHEM_MMFF94_ENERGY>
30.0389

> <PUBCHEM_FEATURE_SELFOVERLAP>
35.548

> <PUBCHEM_SHAPE_FINGERPRINT>
104564 63 18049164672748545078
11578080 2 13552053186010032230
12156800 1 17482796328654319146
12422481 6 18264181708943027282
12592029 89 18259987075950851505
12596599 1 17626109633282239202
12788726 201 17560812042806198768
1361 2 18115030825888887244
14787075 74 18272364287235132983
15119646 104 18412542103504136759
15721738 202 18272660047922339563
17138139 8 18057595671627526447
17492 54 18115322106628920790
20691752 17 17386574544439939401
20905425 154 18267870660274436830
21197605 99 18265899236353251555
21421861 104 18055936315582237457
238 59 18261684662228120296
3052486 1 17971486335997769894
33382 64 18410295830844129361
3797600 57 18059002866069796174
4340502 62 18271235136165135208
463206 1 18340202003365323311
6287921 2 17628649556761397119
6669772 16 17385441059372939472

> <PUBCHEM_SHAPE_MULTIPOLES>
485.88
9.16
3.84
1.66
13.33
2.13
0.47
0.25
-0.46
-2.52
-0.19
-0.16
-0.46
-0.99

> <PUBCHEM_SHAPE_SELFOVERLAP>
976.878

> <PUBCHEM_SHAPE_VOLUME>
286.1

> <PUBCHEM_COORDINATE_TYPE>
2
5
10

$$$$
