9636219
  -OEChem-01171809543D

 34 36  0     0  0  0  0  0  0999 V2000
   -7.5458   -0.1928   -0.0021 O   0  0  0  0  0  0  0  0  0  0  0  0
   -6.8790    1.9801    0.0009 O   0  0  0  0  0  0  0  0  0  0  0  0
   -1.3488   -1.3387    0.0001 N   0  0  0  0  0  0  0  0  0  0  0  0
    5.7134   -1.1956    0.0022 N   0  0  0  0  0  0  0  0  0  0  0  0
    5.7673    1.5823   -0.0003 N   0  0  0  0  0  0  0  0  0  0  0  0
   -0.2772   -0.5220   -0.0012 N   0  0  0  0  0  0  0  0  0  0  0  0
    2.1416   -0.4304   -0.0022 C   0  0  0  0  0  0  0  0  0  0  0  0
    4.5704   -0.4875    0.0004 C   0  0  0  0  0  0  0  0  0  0  0  0
    4.5977    0.9192   -0.0007 C   0  0  0  0  0  0  0  0  0  0  0  0
    3.3404   -1.1413   -0.0003 C   0  0  0  0  0  0  0  0  0  0  0  0
    2.1683    0.9562   -0.0032 C   0  0  0  0  0  0  0  0  0  0  0  0
    3.3939    1.6201   -0.0026 C   0  0  0  0  0  0  0  0  0  0  0  0
   -2.6502   -0.8129    0.0004 C   0  0  0  0  0  0  0  0  0  0  0  0
    0.8716   -1.1383   -0.0013 C   0  0  0  0  0  0  0  0  0  0  0  0
   -5.2436    0.2339    0.0013 C   0  0  0  0  0  0  0  0  0  0  0  0
   -2.8511    0.5709    0.0021 C   0  0  0  0  0  0  0  0  0  0  0  0
   -3.7556   -1.6695   -0.0006 C   0  0  0  0  0  0  0  0  0  0  0  0
   -4.1445    1.0929    0.0027 C   0  0  0  0  0  0  0  0  0  0  0  0
   -5.0490   -1.1474   -0.0003 C   0  0  0  0  0  0  0  0  0  0  0  0
    6.8728   -0.5135    0.0027 C   0  0  0  0  0  0  0  0  0  0  0  0
    6.8994    0.8558    0.0015 C   0  0  0  0  0  0  0  0  0  0  0  0
   -6.5921    0.7785    0.0005 C   0  0  0  0  0  0  0  0  0  0  0  0
    3.3214   -2.2302    0.0009 H   0  0  0  0  0  0  0  0  0  0  0  0
    1.2572    1.5479   -0.0044 H   0  0  0  0  0  0  0  0  0  0  0  0
    3.4006    2.7083   -0.0034 H   0  0  0  0  0  0  0  0  0  0  0  0
    0.9184   -2.2435   -0.0003 H   0  0  0  0  0  0  0  0  0  0  0  0
   -2.0188    1.2699    0.0031 H   0  0  0  0  0  0  0  0  0  0  0  0
   -3.6180   -2.7481   -0.0019 H   0  0  0  0  0  0  0  0  0  0  0  0
   -4.2752    2.1719    0.0038 H   0  0  0  0  0  0  0  0  0  0  0  0
   -5.8758   -1.8520   -0.0014 H   0  0  0  0  0  0  0  0  0  0  0  0
   -1.2377   -2.3465   -0.0007 H   0  0  0  0  0  0  0  0  0  0  0  0
    7.7777   -1.1077    0.0041 H   0  0  0  0  0  0  0  0  0  0  0  0
    7.8266    1.4145    0.0019 H   0  0  0  0  0  0  0  0  0  0  0  0
   -8.4512    0.1847   -0.0032 H   0  0  0  0  0  0  0  0  0  0  0  0
  1 22  1  0  0  0  0
  1 34  1  0  0  0  0
  2 22  2  0  0  0  0
  3  6  1  0  0  0  0
  3 13  1  0  0  0  0
  3 31  1  0  0  0  0
  4  8  2  0  0  0  0
  4 20  1  0  0  0  0
  5  9  2  0  0  0  0
  5 21  1  0  0  0  0
  6 14  2  0  0  0  0
  7 10  2  0  0  0  0
  7 11  1  0  0  0  0
  7 14  1  0  0  0  0
  8  9  1  0  0  0  0
  8 10  1  0  0  0  0
  9 12  1  0  0  0  0
 10 23  1  0  0  0  0
 11 12  2  0  0  0  0
 11 24  1  0  0  0  0
 12 25  1  0  0  0  0
 13 16  2  0  0  0  0
 13 17  1  0  0  0  0
 14 26  1  0  0  0  0
 15 18  2  0  0  0  0
 15 19  1  0  0  0  0
 15 22  1  0  0  0  0
 16 18  1  0  0  0  0
 16 27  1  0  0  0  0
 17 19  2  0  0  0  0
 17 28  1  0  0  0  0
 18 29  1  0  0  0  0
 19 30  1  0  0  0  0
 20 21  2  0  0  0  0
 20 32  1  0  0  0  0
 21 33  1  0  0  0  0
M  END
> <PUBCHEM_COMPOUND_CID>
9636219

> <PUBCHEM_CONFORMER_RMSD>
0.6

> <PUBCHEM_CONFORMER_DIVERSEORDER>
1
18
10
14
9
15
11
16
6
17
7
13
4
20
12
19
2
3
5
8

> <PUBCHEM_MMFF94_PARTIAL_CHARGES>
34
1 -0.65
10 -0.15
11 -0.15
12 -0.15
13 0.1
14 0.3
15 0.09
16 -0.15
17 -0.15
18 -0.15
19 -0.15
2 -0.57
20 0.16
21 0.16
22 0.63
23 0.15
24 0.15
25 0.15
26 0.06
27 0.15
28 0.15
29 0.15
3 -0.46
30 0.15
31 0.4
32 0.15
33 0.15
34 0.5
4 -0.62
5 -0.62
6 -0.49
7 0.09
8 0.31
9 0.31

> <PUBCHEM_EFFECTIVE_ROTOR_COUNT>
4

> <PUBCHEM_PHARMACOPHORE_FEATURES>
10
1 1 acceptor
1 2 acceptor
1 3 donor
1 4 acceptor
1 5 acceptor
1 6 acceptor
3 1 2 22 anion
6 13 15 16 17 18 19 rings
6 4 5 8 9 20 21 rings
6 7 8 9 10 11 12 rings

> <PUBCHEM_HEAVY_ATOM_COUNT>
22

> <PUBCHEM_ATOM_DEF_STEREO_COUNT>
0

> <PUBCHEM_ATOM_UDEF_STEREO_COUNT>
0

> <PUBCHEM_BOND_DEF_STEREO_COUNT>
1

> <PUBCHEM_BOND_UDEF_STEREO_COUNT>
0

> <PUBCHEM_ISOTOPIC_ATOM_COUNT>
0

> <PUBCHEM_COMPONENT_COUNT>
1

> <PUBCHEM_CACTVS_TAUTO_COUNT>
3

> <PUBCHEM_CONFORMER_ID>
0093097B00000001

> <PUBCHEM_MMFF94_ENERGY>
73.891

> <PUBCHEM_FEATURE_SELFOVERLAP>
50.847

> <PUBCHEM_SHAPE_FINGERPRINT>
10 15 17967816067299694129
10411042 1 17906452483534363119
10730089 173 18342175557901491137
11315181 36 17775288283411036027
11719270 70 17988923345417574462
12107183 9 17761772866969758610
12166972 35 18409732897480214088
12236239 1 18412543232089076854
13167372 99 18411700963163936296
13533116 47 14117532999896878284
13668630 136 12103843462666405693
13968360 50 16774081739253047206
14251764 18 18407759248300966567
14341114 176 18335424568774501004
14933364 13 18409450292900074643
15183329 4 18343306950802356784
15461852 350 17917709137032609983
15778101 99 18410857659974447659
18335252 98 18341899615217710683
19611394 137 18042419096182649571
20157964 124 18272373053479999830
20281389 69 18260828189482323196
21033648 29 18270108141141326568
21150785 3 13758071909337198066
21315763 28 18411136930820467651
220451 1 16660359294652617650
22224240 67 15357698608340740305
23536379 177 18410573994168887722
23559900 14 18270955851542468537
2838139 119 18343578547586726477
29717793 49 17846785096464589494
3004659 81 18408884040386120720
335352 9 18410855477366125124
3545911 37 18410292510422725287
4073 2 17968663825562687874
4214541 1 18410856585473137219
4325135 7 18272366491186410903
4340502 62 16153423948676990010
5385378 56 17240478066228060138
59755656 215 18410578353423783494
59755656 520 17530962505752127971

> <PUBCHEM_SHAPE_MULTIPOLES>
421.09
22.01
1.7
0.59
7.09
0.21
0
5.36
-0.01
0.36
0
-0.03
0
0

> <PUBCHEM_SHAPE_SELFOVERLAP>
928.068

> <PUBCHEM_SHAPE_VOLUME>
224.5

> <PUBCHEM_COORDINATE_TYPE>
2
5
10

$$$$
