2550378
  -OEChem-01171810123D

 38 39  0     0  0  0  0  0  0999 V2000
    5.4908   -2.2948   -0.4509 Cl  0  0  0  0  0  0  0  0  0  0  0  0
    6.9641    0.6412   -0.4574 Cl  0  0  0  0  0  0  0  0  0  0  0  0
   -1.9235    0.6089   -1.8675 O   0  0  0  0  0  0  0  0  0  0  0  0
    0.8138    0.5272   -1.2364 O   0  0  0  0  0  0  0  0  0  0  0  0
    2.7098   -1.9972    0.3898 O   0  0  0  0  0  0  0  0  0  0  0  0
   -3.2679    0.4531    0.0196 N   0  0  0  0  0  0  0  0  0  0  0  0
   -0.9763    0.4109    0.2544 N   0  0  0  0  0  0  0  0  0  0  0  0
    2.6388    0.2933    0.7340 N   0  0  0  0  0  0  0  0  0  0  0  0
    3.2875    1.5054    0.7197 N   0  0  0  0  0  0  0  0  0  0  0  0
   -4.5393    0.5260   -0.6654 C   0  0  0  0  0  0  0  0  0  0  0  0
   -5.0107   -0.8655   -1.1012 C   0  0  0  0  0  0  0  0  0  0  0  0
   -5.5932    1.2233    0.2014 C   0  0  0  0  0  0  0  0  0  0  0  0
   -5.4646   -1.7252    0.0785 C   0  0  0  0  0  0  0  0  0  0  0  0
   -6.0460    0.3601    1.3791 C   0  0  0  0  0  0  0  0  0  0  0  0
   -6.5211   -1.0149    0.9194 C   0  0  0  0  0  0  0  0  0  0  0  0
   -2.0460    0.5013   -0.6483 C   0  0  0  0  0  0  0  0  0  0  0  0
    0.3761    0.4294   -0.0932 C   0  0  0  0  0  0  0  0  0  0  0  0
    1.2599    0.2521    1.1234 C   0  0  0  0  0  0  0  0  0  0  0  0
    3.2779   -0.9043    0.3812 C   0  0  0  0  0  0  0  0  0  0  0  0
    4.7119   -0.8171   -0.0182 C   0  0  0  0  0  0  0  0  0  0  0  0
    4.5278    1.5237    0.3664 C   0  0  0  0  0  0  0  0  0  0  0  0
    5.3304    0.3630   -0.0283 C   0  0  0  0  0  0  0  0  0  0  0  0
   -4.3872    1.1310   -1.5681 H   0  0  0  0  0  0  0  0  0  0  0  0
   -4.2160   -1.3887   -1.6462 H   0  0  0  0  0  0  0  0  0  0  0  0
   -5.8512   -0.7537   -1.7981 H   0  0  0  0  0  0  0  0  0  0  0  0
   -6.4671    1.4582   -0.4197 H   0  0  0  0  0  0  0  0  0  0  0  0
   -5.2054    2.1774    0.5783 H   0  0  0  0  0  0  0  0  0  0  0  0
   -4.6020   -1.9744    0.7084 H   0  0  0  0  0  0  0  0  0  0  0  0
   -5.8689   -2.6735   -0.2937 H   0  0  0  0  0  0  0  0  0  0  0  0
   -6.8590    0.8678    1.9108 H   0  0  0  0  0  0  0  0  0  0  0  0
   -5.2267    0.2441    2.0980 H   0  0  0  0  0  0  0  0  0  0  0  0
   -7.4404   -0.9044    0.3310 H   0  0  0  0  0  0  0  0  0  0  0  0
   -6.7728   -1.6289    1.7914 H   0  0  0  0  0  0  0  0  0  0  0  0
   -3.2598    0.2878    1.0210 H   0  0  0  0  0  0  0  0  0  0  0  0
   -1.2134    0.3206    1.2389 H   0  0  0  0  0  0  0  0  0  0  0  0
    1.0632    1.0586    1.8385 H   0  0  0  0  0  0  0  0  0  0  0  0
    1.0203   -0.7038    1.6019 H   0  0  0  0  0  0  0  0  0  0  0  0
    5.0460    2.4969    0.3556 H   0  0  0  0  0  0  0  0  0  0  0  0
  1 20  1  0  0  0  0
  2 22  1  0  0  0  0
  3 16  2  0  0  0  0
  4 17  2  0  0  0  0
  5 19  2  0  0  0  0
  6 10  1  0  0  0  0
  6 16  1  0  0  0  0
  6 34  1  0  0  0  0
  7 16  1  0  0  0  0
  7 17  1  0  0  0  0
  7 35  1  0  0  0  0
  8  9  1  0  0  0  0
  8 18  1  0  0  0  0
  8 19  1  0  0  0  0
  9 21  2  0  0  0  0
 10 11  1  0  0  0  0
 10 12  1  0  0  0  0
 10 23  1  0  0  0  0
 11 13  1  0  0  0  0
 11 24  1  0  0  0  0
 11 25  1  0  0  0  0
 12 14  1  0  0  0  0
 12 26  1  0  0  0  0
 12 27  1  0  0  0  0
 13 15  1  0  0  0  0
 13 28  1  0  0  0  0
 13 29  1  0  0  0  0
 14 15  1  0  0  0  0
 14 30  1  0  0  0  0
 14 31  1  0  0  0  0
 15 32  1  0  0  0  0
 15 33  1  0  0  0  0
 17 18  1  0  0  0  0
 18 36  1  0  0  0  0
 18 37  1  0  0  0  0
 19 20  1  0  0  0  0
 20 22  2  0  0  0  0
 21 22  1  0  0  0  0
 21 38  1  0  0  0  0
M  END
> <PUBCHEM_COMPOUND_CID>
2550378

> <PUBCHEM_CONFORMER_RMSD>
0.8

> <PUBCHEM_CONFORMER_DIVERSEORDER>
1
174
128
189
85
51
25
106
66
122
91
120
112
90
145
177
99
11
130
147
22
131
195
165
73
110
143
61
79
34
160
176
45
23
164
86
182
133
96
62
32
181
196
47
68
178
167
21
56
93
41
192
169
124
97
29
149
186
166
134
74
101
59
54
13
12
49
77
76
156
151
72
119
39
52
55
191
2
103
15
173
127
159
148
126
53
107
26
84
172
136
4
117
37
42
198
87
36
60
64
57
175
125
180
24
75
139
158
140
118
83
137
78
185
40
81
94
8
116
193
82
121
7
10
114
19
89
138
71
135
144
115
108
92
168
197
132
111
46
16
170
20
194
157
155
104
161
17
183
28
38
43
163
142
14
187
69
190
102
109
5
95
65
188
67
113
153
162
123
154
50
98
6
141
70
58
88
129
31
146
184
30
150
100
33
48
152
171
105
9
27
63
179
3
44
35
80
18

> <PUBCHEM_MMFF94_PARTIAL_CHARGES>
20
1 -0.14
10 0.3
16 0.69
17 0.57
18 0.36
19 0.62
2 -0.14
20 0.15
21 0.38
22 0.15
3 -0.57
34 0.37
35 0.37
38 0.06
4 -0.57
5 -0.57
6 -0.73
7 -0.49
8 -0.3
9 -0.51

> <PUBCHEM_EFFECTIVE_ROTOR_COUNT>
7.2

> <PUBCHEM_PHARMACOPHORE_FEATURES>
8
1 3 acceptor
1 4 acceptor
1 5 acceptor
1 6 donor
1 7 donor
1 9 acceptor
6 10 11 12 13 14 15 rings
6 8 9 19 20 21 22 rings

> <PUBCHEM_HEAVY_ATOM_COUNT>
22

> <PUBCHEM_ATOM_DEF_STEREO_COUNT>
0

> <PUBCHEM_ATOM_UDEF_STEREO_COUNT>
0

> <PUBCHEM_BOND_DEF_STEREO_COUNT>
0

> <PUBCHEM_BOND_UDEF_STEREO_COUNT>
0

> <PUBCHEM_ISOTOPIC_ATOM_COUNT>
0

> <PUBCHEM_COMPONENT_COUNT>
1

> <PUBCHEM_CACTVS_TAUTO_COUNT>
5

> <PUBCHEM_CONFORMER_ID>
0026EA6A00000001

> <PUBCHEM_MMFF94_ENERGY>
37.7416

> <PUBCHEM_FEATURE_SELFOVERLAP>
40.651

> <PUBCHEM_SHAPE_FINGERPRINT>
10299344 5 18201722859662710751
11089746 13 10807935963929838975
11315181 36 18261111890349267525
12107183 9 17550954689387627913
12236239 1 17632856434467741768
12516196 113 17894914035557723101
12596602 18 18273498987872850523
12616971 3 17561071506307209956
12730499 353 18334294275912647770
13533116 47 18201156568889436442
13782708 43 17677326096486048570
13955234 65 18271515473354768784
1420 363 17748828518555270329
14251718 22 17821445763700545213
14251758 9 15123508103597403187
14341114 176 18413953884317617665
14933364 13 18411702080140406313
15142383 8 17346598534773423096
15183329 4 16917349220980354857
15348495 7 13757778369618375183
15352257 5 18409451388101508674
15537594 2 17846770806744632918
15716309 27 18411983564086606283
15799311 1 18342751735958948063
17093844 174 14692566628951612535
17834072 33 18413105069545520921
17844677 252 18411421704854866281
18335252 98 18335144215016603642
18927931 339 17167865266853431245
19489759 90 11240000062261182487
20281389 69 16630805517615170721
20645477 70 18339921524873792290
21150785 3 16950285143229512390
21267235 1 18202005379229013006
21521721 280 18340487863561393024
21623969 137 18341900688110143731
220451 1 18059857280919584175
22224240 67 17821726174390627408
22950370 63 18272929436169767737
2303208 19 18187646881802299119
23081809 10 17060330842717160413
23516275 137 18057066664727967875
23522609 53 17773618159318825121
23536379 177 18272933812630607753
23559900 14 18336819888328841889
328310 630 11097859549650664303
34797466 226 17676215679956796484
4073 2 18260552259292697850
4325135 7 17603585252691914878
4340502 62 18412257359714532834
441001 317 10159700196983917887
46194498 28 18040715875151095852
465052 167 18131352986430861702
5104073 3 18270955743883293992
53794403 172 17459762612630895772
5385378 56 14620252823024254477
542803 24 17632576058976226577
7226269 152 14117801323446584963

> <PUBCHEM_SHAPE_MULTIPOLES>
418.96
19.76
1.71
1.15
5.96
0.81
-0.17
2.89
1.51
-1.34
0.07
1.08
-0.09
0.29

> <PUBCHEM_SHAPE_SELFOVERLAP>
845.958

> <PUBCHEM_SHAPE_VOLUME>
242.9

> <PUBCHEM_COORDINATE_TYPE>
2
5
10

$$$$
