4061190
  -OEChem-01171810193D

 60 63  0     1  0  0  0  0  0999 V2000
   -5.4909   -2.6750   -0.8959 Cl  0  0  0  0  0  0  0  0  0  0  0  0
   -6.2729    2.0383    1.7009 Cl  0  0  0  0  0  0  0  0  0  0  0  0
   -0.7459    0.9285   -0.4371 S   0  0  0  0  0  0  0  0  0  0  0  0
    5.8010    1.2565   -0.6422 O   0  0  0  0  0  0  0  0  0  0  0  0
    1.0365   -0.4221    2.6676 O   0  0  0  0  0  0  0  0  0  0  0  0
    3.8999   -3.1671   -1.9267 O   0  0  0  0  0  0  0  0  0  0  0  0
    5.3534    3.0484    0.7534 O   0  0  0  0  0  0  0  0  0  0  0  0
   -7.0507   -0.3035    0.0234 O   0  0  0  0  0  0  0  0  0  0  0  0
   -9.0585    0.9119   -2.6872 O   0  0  0  0  0  0  0  0  0  0  0  0
   -9.6391   -0.2604   -0.8228 O   0  0  0  0  0  0  0  0  0  0  0  0
    1.5598    0.7091    0.6815 N   0  0  0  0  0  0  0  0  0  0  0  0
    1.5424    1.9633   -1.3498 N   0  0  0  0  0  0  0  0  0  0  0  0
    3.0184    0.7578    0.8479 C   0  0  2  0  0  0  0  0  0  0  0  0
    3.6091    1.7253   -0.1545 C   0  0  0  0  0  0  0  0  0  0  0  0
    3.6007   -0.6119    0.6657 C   0  0  0  0  0  0  0  0  0  0  0  0
    0.9653    1.2649   -0.4295 C   0  0  0  0  0  0  0  0  0  0  0  0
    2.8835    2.2413   -1.1708 C   0  0  0  0  0  0  0  0  0  0  0  0
    0.7208    0.0928    1.6039 C   0  0  0  0  0  0  0  0  0  0  0  0
   -0.6730    0.1422    1.0920 C   0  0  0  0  0  0  0  0  0  0  0  0
    3.4769   -1.2562   -0.5606 C   0  0  0  0  0  0  0  0  0  0  0  0
    4.2599   -1.2267    1.7249 C   0  0  0  0  0  0  0  0  0  0  0  0
    5.0147    2.1103    0.0563 C   0  0  0  0  0  0  0  0  0  0  0  0
    3.4439    3.1772   -2.2088 C   0  0  0  0  0  0  0  0  0  0  0  0
    4.0188   -2.5303   -0.7298 C   0  0  0  0  0  0  0  0  0  0  0  0
   -1.7141   -0.3696    1.7503 C   0  0  0  0  0  0  0  0  0  0  0  0
    4.8016   -2.5009    1.5556 C   0  0  0  0  0  0  0  0  0  0  0  0
    4.6811   -3.1526    0.3283 C   0  0  0  0  0  0  0  0  0  0  0  0
   -3.1173   -0.3523    1.2964 C   0  0  0  0  0  0  0  0  0  0  0  0
    7.2070    1.5027   -0.5365 C   0  0  0  0  0  0  0  0  0  0  0  0
   -3.9348    0.7028    1.6648 C   0  0  0  0  0  0  0  0  0  0  0  0
   -3.5875   -1.3915    0.5114 C   0  0  0  0  0  0  0  0  0  0  0  0
   -4.9145   -1.3750    0.0819 C   0  0  0  0  0  0  0  0  0  0  0  0
   -5.2619    0.7192    1.2354 C   0  0  0  0  0  0  0  0  0  0  0  0
   -5.7517   -0.3197    0.4440 C   0  0  0  0  0  0  0  0  0  0  0  0
    7.9510    0.4765   -1.3642 C   0  0  0  0  0  0  0  0  0  0  0  0
    4.4756   -4.4685   -2.0299 C   0  0  0  0  0  0  0  0  0  0  0  0
   -7.3180    0.3376   -1.2206 C   0  0  0  0  0  0  0  0  0  0  0  0
   -8.7904    0.2767   -1.5186 C   0  0  0  0  0  0  0  0  0  0  0  0
    3.2031    1.1247    1.8659 H   0  0  0  0  0  0  0  0  0  0  0  0
    2.9605   -0.7924   -1.3964 H   0  0  0  0  0  0  0  0  0  0  0  0
    4.3616   -0.7307    2.6861 H   0  0  0  0  0  0  0  0  0  0  0  0
    4.5066    3.3963   -2.0759 H   0  0  0  0  0  0  0  0  0  0  0  0
    3.3224    2.7433   -3.2073 H   0  0  0  0  0  0  0  0  0  0  0  0
    2.9058    4.1310   -2.1822 H   0  0  0  0  0  0  0  0  0  0  0  0
   -1.5688   -0.8512    2.7149 H   0  0  0  0  0  0  0  0  0  0  0  0
    5.3173   -2.9845    2.3802 H   0  0  0  0  0  0  0  0  0  0  0  0
    5.1251   -4.1402    0.2660 H   0  0  0  0  0  0  0  0  0  0  0  0
    7.4304    2.5096   -0.9066 H   0  0  0  0  0  0  0  0  0  0  0  0
    7.5133    1.4242    0.5127 H   0  0  0  0  0  0  0  0  0  0  0  0
   -3.5494    1.5108    2.2826 H   0  0  0  0  0  0  0  0  0  0  0  0
   -2.9319   -2.2132    0.2317 H   0  0  0  0  0  0  0  0  0  0  0  0
    9.0314    0.6342   -1.3047 H   0  0  0  0  0  0  0  0  0  0  0  0
    7.7212   -0.5367   -1.0181 H   0  0  0  0  0  0  0  0  0  0  0  0
    7.6423    0.5310   -2.4135 H   0  0  0  0  0  0  0  0  0  0  0  0
    4.2874   -4.8254   -3.0478 H   0  0  0  0  0  0  0  0  0  0  0  0
    5.5625   -4.4393   -1.8974 H   0  0  0  0  0  0  0  0  0  0  0  0
    3.9931   -5.1772   -1.3483 H   0  0  0  0  0  0  0  0  0  0  0  0
   -7.0180    1.3898   -1.1717 H   0  0  0  0  0  0  0  0  0  0  0  0
   -6.7808   -0.1713   -2.0279 H   0  0  0  0  0  0  0  0  0  0  0  0
  -10.0145    0.8878   -2.9061 H   0  0  0  0  0  0  0  0  0  0  0  0
  1 32  1  0  0  0  0
  2 33  1  0  0  0  0
  3 16  1  0  0  0  0
  3 19  1  0  0  0  0
  4 22  1  0  0  0  0
  4 29  1  0  0  0  0
  5 18  2  0  0  0  0
  6 24  1  0  0  0  0
  6 36  1  0  0  0  0
  7 22  2  0  0  0  0
  8 34  1  0  0  0  0
  8 37  1  0  0  0  0
  9 38  1  0  0  0  0
  9 60  1  0  0  0  0
 10 38  2  0  0  0  0
 11 13  1  0  0  0  0
 11 16  1  0  0  0  0
 11 18  1  0  0  0  0
 12 16  2  0  0  0  0
 12 17  1  0  0  0  0
 13 14  1  0  0  0  0
 13 15  1  0  0  0  0
 13 39  1  0  0  0  0
 14 17  2  0  0  0  0
 14 22  1  0  0  0  0
 15 20  2  0  0  0  0
 15 21  1  0  0  0  0
 17 23  1  0  0  0  0
 18 19  1  0  0  0  0
 19 25  2  0  0  0  0
 20 24  1  0  0  0  0
 20 40  1  0  0  0  0
 21 26  2  0  0  0  0
 21 41  1  0  0  0  0
 23 42  1  0  0  0  0
 23 43  1  0  0  0  0
 23 44  1  0  0  0  0
 24 27  2  0  0  0  0
 25 28  1  0  0  0  0
 25 45  1  0  0  0  0
 26 27  1  0  0  0  0
 26 46  1  0  0  0  0
 27 47  1  0  0  0  0
 28 30  2  0  0  0  0
 28 31  1  0  0  0  0
 29 35  1  0  0  0  0
 29 48  1  0  0  0  0
 29 49  1  0  0  0  0
 30 33  1  0  0  0  0
 30 50  1  0  0  0  0
 31 32  2  0  0  0  0
 31 51  1  0  0  0  0
 32 34  1  0  0  0  0
 33 34  2  0  0  0  0
 35 52  1  0  0  0  0
 35 53  1  0  0  0  0
 35 54  1  0  0  0  0
 36 55  1  0  0  0  0
 36 56  1  0  0  0  0
 36 57  1  0  0  0  0
 37 38  1  0  0  0  0
 37 58  1  0  0  0  0
 37 59  1  0  0  0  0
M  END
> <PUBCHEM_COMPOUND_CID>
4061190

> <PUBCHEM_CONFORMER_RMSD>
1

> <PUBCHEM_CONFORMER_DIVERSEORDER>
3
18
47
50
54
38
6
57
36
27
41
45
53
13
46
28
29
33
56
19
48
42
44
40
52
11
21
43
55
37
34
51
30
59
58
25
39
8
16
60
35
17
22
31
20
23
14
10
7
24
12
49
5
32
2
26
4
1
15
9

> <PUBCHEM_MMFF94_PARTIAL_CHARGES>
45
1 -0.18
10 -0.57
11 -0.42
12 -0.62
13 0.58
14 -0.12
15 -0.14
16 0.65
17 0.03
18 0.62
19 0.12
2 -0.18
20 -0.15
21 -0.15
22 0.71
23 0.14
24 0.08
25 -0.18
26 -0.15
27 -0.15
28 0.03
29 0.28
3 -0.24
30 -0.15
31 -0.15
32 0.18
33 0.18
34 0.08
36 0.28
37 0.34
38 0.66
4 -0.43
40 0.15
41 0.15
45 0.15
46 0.15
47 0.15
5 -0.57
50 0.15
51 0.15
6 -0.36
60 0.5
7 -0.57
8 -0.36
9 -0.65

> <PUBCHEM_EFFECTIVE_ROTOR_COUNT>
9.2

> <PUBCHEM_PHARMACOPHORE_FEATURES>
11
1 10 acceptor
1 5 acceptor
1 6 acceptor
1 7 acceptor
1 8 acceptor
1 9 acceptor
3 9 10 38 anion
5 3 11 16 18 19 rings
6 11 12 13 14 16 17 rings
6 15 20 21 24 26 27 rings
6 28 30 31 32 33 34 rings

> <PUBCHEM_HEAVY_ATOM_COUNT>
38

> <PUBCHEM_ATOM_DEF_STEREO_COUNT>
0

> <PUBCHEM_ATOM_UDEF_STEREO_COUNT>
1

> <PUBCHEM_BOND_DEF_STEREO_COUNT>
0

> <PUBCHEM_BOND_UDEF_STEREO_COUNT>
1

> <PUBCHEM_ISOTOPIC_ATOM_COUNT>
0

> <PUBCHEM_COMPONENT_COUNT>
1

> <PUBCHEM_CACTVS_TAUTO_COUNT>
1

> <PUBCHEM_CONFORMER_ID>
003DF80600000003

> <PUBCHEM_MMFF94_ENERGY>
108.4846

> <PUBCHEM_FEATURE_SELFOVERLAP>
55.967

> <PUBCHEM_SHAPE_FINGERPRINT>
10 15 10953741068030711187
10554248 39 18412827963294485389
10906281 52 17460052862399858200
10951579 204 17023743386723125133
11135609 149 17969483949720793866
11181472 205 18342743988265344065
13726171 33 12902417649771079423
14118638 360 18411142411273123497
14400156 350 17896040017760580684
15183329 4 18343022194750109409
15198563 99 8975233141420559126
1577012 14 18272095972576684281
19958102 18 18343579621697724439
20511986 3 18340761666930025243
20775438 99 18335425690347606474
21033648 29 15574712500318789147
23081809 10 18060708269372232129
25222932 49 16988558065224759038
3004659 81 18342464720468930226
3178227 256 11023832756310348628
3633792 109 18409731751082109753
376196 1 17245559133067597064
4093350 32 18408315605727527755
504579 68 18272088327165313525
59755656 215 18187653526834345136

> <PUBCHEM_SHAPE_MULTIPOLES>
738.56
24.64
3.69
2.2
44.87
2.54
-0.2
-1.44
-11.83
-7.83
-2.01
1.03
0.13
-0.7

> <PUBCHEM_SHAPE_SELFOVERLAP>
1571.782

> <PUBCHEM_SHAPE_VOLUME>
416.9

> <PUBCHEM_COORDINATE_TYPE>
2
5
10

$$$$
