5721593
  -OEChem-01171809293D

 41 43  0     0  0  0  0  0  0999 V2000
   -1.0203   -3.0088   -0.0738 O   0  0  0  0  0  0  0  0  0  0  0  0
    0.1029   -0.8152   -2.4424 O   0  0  0  0  0  0  0  0  0  0  0  0
   -2.8890   -1.9690    0.7422 N   0  0  0  0  0  0  0  0  0  0  0  0
   -3.4360    2.8969    0.3096 C   0  0  0  0  0  0  0  0  0  0  0  0
   -2.7031    2.8281   -1.0130 C   0  0  0  0  0  0  0  0  0  0  0  0
   -4.1415    1.5735    0.5677 C   0  0  0  0  0  0  0  0  0  0  0  0
   -1.6169    1.7616   -0.9486 C   0  0  0  0  0  0  0  0  0  0  0  0
   -3.2889    0.3346    0.3900 C   0  0  0  0  0  0  0  0  0  0  0  0
   -2.0274    0.4165   -0.3728 C   0  0  0  0  0  0  0  0  0  0  0  0
   -3.6743   -0.8521    0.9114 C   0  0  0  0  0  0  0  0  0  0  0  0
   -1.2539   -0.6850   -0.5245 C   0  0  0  0  0  0  0  0  0  0  0  0
   -1.6963   -1.9906    0.0587 C   0  0  0  0  0  0  0  0  0  0  0  0
   -4.9446   -1.1087    1.6743 C   0  0  0  0  0  0  0  0  0  0  0  0
    0.0372   -0.6245   -1.2362 C   0  0  0  0  0  0  0  0  0  0  0  0
    1.2047   -0.3188   -0.3722 C   0  0  0  0  0  0  0  0  0  0  0  0
    2.4293   -0.2514   -0.9145 C   0  0  0  0  0  0  0  0  0  0  0  0
    3.6644    0.0345   -0.1627 C   0  0  0  0  0  0  0  0  0  0  0  0
    3.5776    0.6532    1.0738 C   0  0  0  0  0  0  0  0  0  0  0  0
    4.8876   -0.3210   -0.7072 C   0  0  0  0  0  0  0  0  0  0  0  0
    4.7464    0.9241    1.7853 C   0  0  0  0  0  0  0  0  0  0  0  0
    6.0564   -0.0502    0.0044 C   0  0  0  0  0  0  0  0  0  0  0  0
    5.9857    0.5724    1.2507 C   0  0  0  0  0  0  0  0  0  0  0  0
   -4.1715    3.7089    0.2904 H   0  0  0  0  0  0  0  0  0  0  0  0
   -2.7334    3.1179    1.1228 H   0  0  0  0  0  0  0  0  0  0  0  0
   -2.2510    3.7995   -1.2435 H   0  0  0  0  0  0  0  0  0  0  0  0
   -3.4058    2.6011   -1.8245 H   0  0  0  0  0  0  0  0  0  0  0  0
   -4.9970    1.4974   -0.1168 H   0  0  0  0  0  0  0  0  0  0  0  0
   -4.5456    1.6177    1.5863 H   0  0  0  0  0  0  0  0  0  0  0  0
   -0.7982    2.1524   -0.3288 H   0  0  0  0  0  0  0  0  0  0  0  0
   -1.2154    1.6361   -1.9617 H   0  0  0  0  0  0  0  0  0  0  0  0
   -3.2173   -2.8405    1.1493 H   0  0  0  0  0  0  0  0  0  0  0  0
   -5.4574   -1.9913    1.2747 H   0  0  0  0  0  0  0  0  0  0  0  0
   -5.6598   -0.2843    1.6193 H   0  0  0  0  0  0  0  0  0  0  0  0
   -4.7192   -1.2929    2.7300 H   0  0  0  0  0  0  0  0  0  0  0  0
    1.0120   -0.1830    0.6855 H   0  0  0  0  0  0  0  0  0  0  0  0
    2.5649   -0.4236   -1.9800 H   0  0  0  0  0  0  0  0  0  0  0  0
    2.6376    0.9640    1.5184 H   0  0  0  0  0  0  0  0  0  0  0  0
    4.9591   -0.8078   -1.6763 H   0  0  0  0  0  0  0  0  0  0  0  0
    4.6924    1.4134    2.7535 H   0  0  0  0  0  0  0  0  0  0  0  0
    7.0215   -0.3240   -0.4117 H   0  0  0  0  0  0  0  0  0  0  0  0
    6.8958    0.7844    1.8042 H   0  0  0  0  0  0  0  0  0  0  0  0
  1 12  2  0  0  0  0
  2 14  2  0  0  0  0
  3 10  1  0  0  0  0
  3 12  1  0  0  0  0
  3 31  1  0  0  0  0
  4  5  1  0  0  0  0
  4  6  1  0  0  0  0
  4 23  1  0  0  0  0
  4 24  1  0  0  0  0
  5  7  1  0  0  0  0
  5 25  1  0  0  0  0
  5 26  1  0  0  0  0
  6  8  1  0  0  0  0
  6 27  1  0  0  0  0
  6 28  1  0  0  0  0
  7  9  1  0  0  0  0
  7 29  1  0  0  0  0
  7 30  1  0  0  0  0
  8  9  1  0  0  0  0
  8 10  2  0  0  0  0
  9 11  2  0  0  0  0
 10 13  1  0  0  0  0
 11 12  1  0  0  0  0
 11 14  1  0  0  0  0
 13 32  1  0  0  0  0
 13 33  1  0  0  0  0
 13 34  1  0  0  0  0
 14 15  1  0  0  0  0
 15 16  2  0  0  0  0
 15 35  1  0  0  0  0
 16 17  1  0  0  0  0
 16 36  1  0  0  0  0
 17 18  2  0  0  0  0
 17 19  1  0  0  0  0
 18 20  1  0  0  0  0
 18 37  1  0  0  0  0
 19 21  2  0  0  0  0
 19 38  1  0  0  0  0
 20 22  2  0  0  0  0
 20 39  1  0  0  0  0
 21 22  1  0  0  0  0
 21 40  1  0  0  0  0
 22 41  1  0  0  0  0
M  END
> <PUBCHEM_COMPOUND_CID>
5721593

> <PUBCHEM_CONFORMER_RMSD>
0.6

> <PUBCHEM_CONFORMER_DIVERSEORDER>
1
20
5
10
25
21
7
26
24
6
2
4
13
23
19
9
18
8
22
16
14
3
17
15
11
12

> <PUBCHEM_MMFF94_PARTIAL_CHARGES>
28
1 -0.57
10 -0.03
11 0.03
12 0.62
13 0.14
14 0.54
15 -0.14
16 -0.18
17 0.03
18 -0.15
19 -0.15
2 -0.57
20 -0.15
21 -0.15
22 -0.15
3 -0.54
31 0.37
35 0.15
36 0.15
37 0.15
38 0.15
39 0.15
40 0.15
41 0.15
6 0.14
7 0.14
8 -0.14
9 -0.14

> <PUBCHEM_EFFECTIVE_ROTOR_COUNT>
3.8

> <PUBCHEM_PHARMACOPHORE_FEATURES>
7
1 1 acceptor
1 11 anion
1 2 acceptor
1 3 donor
6 17 18 19 20 21 22 rings
6 3 8 9 10 11 12 rings
6 4 5 6 7 8 9 rings

> <PUBCHEM_HEAVY_ATOM_COUNT>
22

> <PUBCHEM_ATOM_DEF_STEREO_COUNT>
0

> <PUBCHEM_ATOM_UDEF_STEREO_COUNT>
0

> <PUBCHEM_BOND_DEF_STEREO_COUNT>
1

> <PUBCHEM_BOND_UDEF_STEREO_COUNT>
0

> <PUBCHEM_ISOTOPIC_ATOM_COUNT>
0

> <PUBCHEM_COMPONENT_COUNT>
1

> <PUBCHEM_CACTVS_TAUTO_COUNT>
13

> <PUBCHEM_CONFORMER_ID>
00574DF900000001

> <PUBCHEM_MMFF94_ENERGY>
62.3703

> <PUBCHEM_FEATURE_SELFOVERLAP>
35.542

> <PUBCHEM_SHAPE_FINGERPRINT>
10 15 18411414047218055472
10319926 262 18336544920232827042
11370993 144 18272088254245639540
11595378 159 18040990735344972058
12035758 1 18336563638053945673
12107183 9 17609202460631081472
12236239 1 17095248041906626254
12403259 415 18131078104049400796
12507560 40 18341897355457894582
12596602 18 17385728032018792072
12633257 1 18270410506406474057
12892183 10 18333732386130800882
12930653 34 18334860463707375339
12969540 114 16916779669793802068
13103583 49 16515977990197281905
13140716 1 18047482398077425539
13402501 40 18131628958948356952
13544653 18 13262399947159316358
13583140 156 18341601608315161650
13675066 3 18272368685714089462
14178342 30 18041002799634150471
14341114 176 18411140260211529920
14341114 328 17821736009443962692
14420673 8 17827075104954887482
15042514 8 18263654033699114283
16988056 13 11227715098232569562
17780758 139 17822284712869180418
17844677 252 18409451418973076472
1813 80 16226055466077931742
18915476 22 17273709662610631447
19377110 9 17240764034436802956
200 152 14201392794338342798
20645477 56 18202846556483328902
21033648 144 16199851973942603024
21033648 29 17917416623794990512
21401589 2 18201158733284201505
21650355 55 18190463942583908383
23402539 116 18412263978269997519
23557571 272 18340222820311970261
23559900 14 18194423103345429670
27216 239 18131626798716404637
314194 84 14707212123881068144
4169191 19 15696569270055653440
474 4 15410906153894940998
5104073 3 18336263419275147634
57724786 102 17060062596767255624
5924683 9 18057879336922130510
90127 26 18202279230485668968
9981440 41 18263365798580250627

> <PUBCHEM_SHAPE_MULTIPOLES>
436.03
12.68
2.52
1.56
17.03
0.53
-0.08
2.65
6.15
-4.27
-0.08
0.4
-0.04
1.64

> <PUBCHEM_SHAPE_SELFOVERLAP>
940.867

> <PUBCHEM_SHAPE_VOLUME>
238.9

> <PUBCHEM_COORDINATE_TYPE>
2
5
10

$$$$
