2470333
  -OEChem-01171810023D

 58 60  0     0  0  0  0  0  0999 V2000
   -7.2505   -1.1140    0.9814 Cl  0  0  0  0  0  0  0  0  0  0  0  0
    1.2480   -1.5475    0.2382 S   0  0  0  0  0  0  0  0  0  0  0  0
   -1.8013    0.6695    0.8686 O   0  0  0  0  0  0  0  0  0  0  0  0
    6.7227   -3.3534   -0.4838 O   0  0  0  0  0  0  0  0  0  0  0  0
   -5.1123   -0.8221   -2.7550 O   0  5  0  0  0  0  0  0  0  0  0  0
   -6.9342   -0.6957   -1.5369 O   0  0  0  0  0  0  0  0  0  0  0  0
    0.6301    4.5325   -0.0090 N   0  0  0  0  0  0  0  0  0  0  0  0
    0.5341    0.8754    0.7409 N   0  0  0  0  0  0  0  0  0  0  0  0
    2.8850    0.5298    0.5097 N   0  0  0  0  0  0  0  0  0  0  0  0
   -5.7063   -0.9151   -1.6556 N   0  3  0  0  0  0  0  0  0  0  0  0
    0.5840    3.1041   -0.2935 C   0  0  0  0  0  0  0  0  0  0  0  0
    0.6081    2.3057    1.0017 C   0  0  0  0  0  0  0  0  0  0  0  0
    1.8220    4.8650    0.7739 C   0  0  0  0  0  0  0  0  0  0  0  0
    0.6072    5.3074   -1.2512 C   0  0  0  0  0  0  0  0  0  0  0  0
   -0.6831    0.2014    0.7015 C   0  0  0  0  0  0  0  0  0  0  0  0
    1.6637    0.1217    0.5207 C   0  0  0  0  0  0  0  0  0  0  0  0
    1.8479    6.3406    1.1345 C   0  0  0  0  0  0  0  0  0  0  0  0
   -0.6222    4.9784   -2.0809 C   0  0  0  0  0  0  0  0  0  0  0  0
   -0.4338   -1.2349    0.4162 C   0  0  0  0  0  0  0  0  0  0  0  0
   -1.4053   -2.1435    0.3162 C   0  0  0  0  0  0  0  0  0  0  0  0
   -2.8495   -1.8852    0.4672 C   0  0  0  0  0  0  0  0  0  0  0  0
    3.8576   -0.4544    0.2580 C   0  0  0  0  0  0  0  0  0  0  0  0
   -3.5935   -1.5258   -0.6440 C   0  0  0  0  0  0  0  0  0  0  0  0
   -3.4317   -2.0094    1.7175 C   0  0  0  0  0  0  0  0  0  0  0  0
    4.2502   -0.7167   -1.0503 C   0  0  0  0  0  0  0  0  0  0  0  0
    4.4190   -1.1566    1.3194 C   0  0  0  0  0  0  0  0  0  0  0  0
   -4.9597   -1.2833   -0.5008 C   0  0  0  0  0  0  0  0  0  0  0  0
   -4.7979   -1.7671    1.8606 C   0  0  0  0  0  0  0  0  0  0  0  0
   -5.5619   -1.4041    0.7515 C   0  0  0  0  0  0  0  0  0  0  0  0
    5.2152   -1.6926   -1.2999 C   0  0  0  0  0  0  0  0  0  0  0  0
    5.3840   -2.1323    1.0696 C   0  0  0  0  0  0  0  0  0  0  0  0
    5.7821   -2.4003   -0.2401 C   0  0  0  0  0  0  0  0  0  0  0  0
    7.0823   -3.5775   -1.8462 C   0  0  0  0  0  0  0  0  0  0  0  0
    1.4155    2.7969   -0.9419 H   0  0  0  0  0  0  0  0  0  0  0  0
   -0.3430    2.8303   -0.8090 H   0  0  0  0  0  0  0  0  0  0  0  0
   -0.2380    2.5888    1.6394 H   0  0  0  0  0  0  0  0  0  0  0  0
    1.5290    2.4480    1.5717 H   0  0  0  0  0  0  0  0  0  0  0  0
    1.8175    4.3610    1.7435 H   0  0  0  0  0  0  0  0  0  0  0  0
    2.7483    4.5885    0.2551 H   0  0  0  0  0  0  0  0  0  0  0  0
    0.5405    6.3788   -1.0360 H   0  0  0  0  0  0  0  0  0  0  0  0
    1.5109    5.1447   -1.8522 H   0  0  0  0  0  0  0  0  0  0  0  0
    2.6090    6.5180    1.9032 H   0  0  0  0  0  0  0  0  0  0  0  0
    0.8886    6.6766    1.5430 H   0  0  0  0  0  0  0  0  0  0  0  0
    2.1141    6.9747    0.2833 H   0  0  0  0  0  0  0  0  0  0  0  0
   -0.5430    4.0083   -2.5813 H   0  0  0  0  0  0  0  0  0  0  0  0
   -1.5373    4.9975   -1.4790 H   0  0  0  0  0  0  0  0  0  0  0  0
   -0.7393    5.7266   -2.8732 H   0  0  0  0  0  0  0  0  0  0  0  0
   -1.1626   -3.1835    0.1065 H   0  0  0  0  0  0  0  0  0  0  0  0
   -3.0955   -1.4404   -1.6073 H   0  0  0  0  0  0  0  0  0  0  0  0
   -2.8467   -2.2917    2.5887 H   0  0  0  0  0  0  0  0  0  0  0  0
    3.8151   -0.1678   -1.8813 H   0  0  0  0  0  0  0  0  0  0  0  0
    4.1167   -0.9527    2.3431 H   0  0  0  0  0  0  0  0  0  0  0  0
   -5.2514   -1.8655    2.8437 H   0  0  0  0  0  0  0  0  0  0  0  0
    5.4782   -1.8496   -2.3404 H   0  0  0  0  0  0  0  0  0  0  0  0
    5.8221   -2.6802    1.8994 H   0  0  0  0  0  0  0  0  0  0  0  0
    7.8408   -4.3672   -1.8547 H   0  0  0  0  0  0  0  0  0  0  0  0
    7.5413   -2.6888   -2.2926 H   0  0  0  0  0  0  0  0  0  0  0  0
    6.2324   -3.9443   -2.4316 H   0  0  0  0  0  0  0  0  0  0  0  0
  1 29  1  0  0  0  0
  2 16  1  0  0  0  0
  2 19  1  0  0  0  0
  3 15  2  0  0  0  0
  4 32  1  0  0  0  0
  4 33  1  0  0  0  0
  5 10  1  0  0  0  0
  6 10  2  0  0  0  0
  7 11  1  0  0  0  0
  7 13  1  0  0  0  0
  7 14  1  0  0  0  0
  8 12  1  0  0  0  0
  8 15  1  0  0  0  0
  8 16  1  0  0  0  0
  9 16  2  0  0  0  0
  9 22  1  0  0  0  0
 10 27  1  0  0  0  0
 11 12  1  0  0  0  0
 11 34  1  0  0  0  0
 11 35  1  0  0  0  0
 12 36  1  0  0  0  0
 12 37  1  0  0  0  0
 13 17  1  0  0  0  0
 13 38  1  0  0  0  0
 13 39  1  0  0  0  0
 14 18  1  0  0  0  0
 14 40  1  0  0  0  0
 14 41  1  0  0  0  0
 15 19  1  0  0  0  0
 17 42  1  0  0  0  0
 17 43  1  0  0  0  0
 17 44  1  0  0  0  0
 18 45  1  0  0  0  0
 18 46  1  0  0  0  0
 18 47  1  0  0  0  0
 19 20  2  0  0  0  0
 20 21  1  0  0  0  0
 20 48  1  0  0  0  0
 21 23  2  0  0  0  0
 21 24  1  0  0  0  0
 22 25  2  0  0  0  0
 22 26  1  0  0  0  0
 23 27  1  0  0  0  0
 23 49  1  0  0  0  0
 24 28  2  0  0  0  0
 24 50  1  0  0  0  0
 25 30  1  0  0  0  0
 25 51  1  0  0  0  0
 26 31  2  0  0  0  0
 26 52  1  0  0  0  0
 27 29  2  0  0  0  0
 28 29  1  0  0  0  0
 28 53  1  0  0  0  0
 30 32  2  0  0  0  0
 30 54  1  0  0  0  0
 31 32  1  0  0  0  0
 31 55  1  0  0  0  0
 33 56  1  0  0  0  0
 33 57  1  0  0  0  0
 33 58  1  0  0  0  0
M  CHG  2   5  -1  10   1
M  END
> <PUBCHEM_COMPOUND_CID>
2470333

> <PUBCHEM_CONFORMER_RMSD>
1

> <PUBCHEM_CONFORMER_DIVERSEORDER>
1
3
6
5
11
14
13
9
10
15
12
8
4
2
7

> <PUBCHEM_MMFF94_PARTIAL_CHARGES>
39
1 -0.18
10 0.91
11 0.27
12 0.3
13 0.27
14 0.27
15 0.62
16 0.65
19 0.12
2 -0.24
20 -0.18
21 0.03
22 0.18
23 -0.15
24 -0.15
25 -0.15
26 -0.15
27 0.13
28 -0.15
29 0.18
3 -0.57
30 -0.15
31 -0.15
32 0.08
33 0.28
4 -0.36
48 0.15
49 0.15
5 -0.52
50 0.15
51 0.15
52 0.15
53 0.15
54 0.15
55 0.15
6 -0.52
7 -0.81
8 -0.42
9 -0.63

> <PUBCHEM_EFFECTIVE_ROTOR_COUNT>
9.4

> <PUBCHEM_PHARMACOPHORE_FEATURES>
9
1 3 acceptor
1 4 acceptor
1 5 acceptor
1 5 anion
1 6 acceptor
1 7 cation
5 2 8 15 16 19 rings
6 21 23 24 27 28 29 rings
6 22 25 26 30 31 32 rings

> <PUBCHEM_HEAVY_ATOM_COUNT>
33

> <PUBCHEM_ATOM_DEF_STEREO_COUNT>
0

> <PUBCHEM_ATOM_UDEF_STEREO_COUNT>
0

> <PUBCHEM_BOND_DEF_STEREO_COUNT>
1

> <PUBCHEM_BOND_UDEF_STEREO_COUNT>
0

> <PUBCHEM_ISOTOPIC_ATOM_COUNT>
0

> <PUBCHEM_COMPONENT_COUNT>
1

> <PUBCHEM_CACTVS_TAUTO_COUNT>
1

> <PUBCHEM_CONFORMER_ID>
0025B1BD00000001

> <PUBCHEM_MMFF94_ENERGY>
104.5844

> <PUBCHEM_FEATURE_SELFOVERLAP>
45.754

> <PUBCHEM_SHAPE_FINGERPRINT>
102385 1 17833553774804329938
10721379 63 18124612013537520304
10815517 723 18269845207665780321
11297750 10 18271518699049547744
11331351 85 17989210308892510321
11720765 8 18411701032078994612
11991303 11 17612318450682636188
12342043 65 17534367779357979483
12788726 201 18042114363188202994
13540713 4 17898849312887013731
13690498 29 18269567035935450086
13757389 114 17838925658147735360
13782708 43 17631450077908786206
14068700 675 17989204832940842891
14294032 229 17976267828805295752
14508225 48 18411699872469057344
14556957 393 18043553658785197414
15021287 119 18342751706405367283
15081414 286 18338518663578646992
15183329 4 17603585188289192918
15198563 99 18264772064966979716
15320294 125 16630517450016941079
15326923 133 18265878315557399997
15419008 47 18040434374066841327
15439362 3 18122908895626964345
15927050 60 17475240098512791826
16988056 13 18263353845127811157
16994733 274 14490190501010022615
21365058 113 18261117400037941293
21792961 116 18040436547036118706
23536364 44 18263071137647674871
23559900 14 18338796839873041323
23576562 1 18264765644312852983
24771750 20 17539988585804363012
3004659 81 18113623374450328810
3103668 31 18190178980115197085
3534868 343 18264507139195261414
4017518 198 17691688209953900828
4046055 4 18338804390826688080
4403749 210 9654990257361971599
5080951 261 17842256092132374422
5081480 168 18336271257574852789
513202 73 18128819638484175294
5265222 85 16806185361255180362
57724786 102 18192996135485573321
58902169 19 18131060572710668143
6697151 62 18338219540365286083
6700243 42 17483435987446093684
9981440 41 17184468157871976832

> <PUBCHEM_SHAPE_MULTIPOLES>
641.44
16.5
7.43
1.83
6.22
19.52
0.87
-24.55
4.69
-8.93
0.91
1.3
0.12
2.71

> <PUBCHEM_SHAPE_SELFOVERLAP>
1344.94

> <PUBCHEM_SHAPE_VOLUME>
367.3

> <PUBCHEM_COORDINATE_TYPE>
2
5
10

$$$$
