20920345
  -OEChem-01171810053D

 67 71  0     0  0  0  0  0  0999 V2000
    2.9971    1.6434    2.0645 O   0  0  0  0  0  0  0  0  0  0  0  0
    0.2120   -0.1556   -0.0403 N   0  0  0  0  0  0  0  0  0  0  0  0
    4.4897    1.6288    0.2782 N   0  0  0  0  0  0  0  0  0  0  0  0
   -0.3153   -2.5158    0.0579 N   0  0  0  0  0  0  0  0  0  0  0  0
   -4.1114   -0.3386   -0.0923 N   0  0  0  0  0  0  0  0  0  0  0  0
   -2.8344    0.0938   -0.0936 N   0  0  0  0  0  0  0  0  0  0  0  0
   -1.2433   -3.6462    0.0952 N   0  0  0  0  0  0  0  0  0  0  0  0
    2.1598    1.9950   -0.1448 C   0  0  0  0  0  0  0  0  0  0  0  0
    0.7992    2.1704    0.5263 C   0  0  0  0  0  0  0  0  0  0  0  0
    2.1220    0.8855   -1.1938 C   0  0  0  0  0  0  0  0  0  0  0  0
    0.1888    0.8568    1.0192 C   0  0  0  0  0  0  0  0  0  0  0  0
    1.5164   -0.4134   -0.6626 C   0  0  0  0  0  0  0  0  0  0  0  0
    3.2394    1.7311    0.8636 C   0  0  0  0  0  0  0  0  0  0  0  0
   -0.7063   -1.2116   -0.0057 C   0  0  0  0  0  0  0  0  0  0  0  0
   -2.0962   -1.0279   -0.0333 C   0  0  0  0  0  0  0  0  0  0  0  0
   -2.9771   -2.1691    0.0051 C   0  0  0  0  0  0  0  0  0  0  0  0
   -4.2562   -1.6948   -0.0343 C   0  0  0  0  0  0  0  0  0  0  0  0
    5.7000    1.3992    1.0336 C   0  0  0  0  0  0  0  0  0  0  0  0
   -2.5950   -3.5005    0.0696 C   0  0  0  0  0  0  0  0  0  0  0  0
    6.7415    0.6840    0.2225 C   0  0  0  0  0  0  0  0  0  0  0  0
   -5.5732   -2.3641   -0.0219 C   0  0  0  0  0  0  0  0  0  0  0  0
   -5.1472    0.5953   -0.1500 C   0  0  0  0  0  0  0  0  0  0  0  0
   -3.4520   -4.7117    0.1100 C   0  0  0  0  0  0  0  0  0  0  0  0
    6.8075   -0.7092    0.2071 C   0  0  0  0  0  0  0  0  0  0  0  0
   -6.0858    0.6602    0.8799 C   0  0  0  0  0  0  0  0  0  0  0  0
   -5.2431    1.4643   -1.2368 C   0  0  0  0  0  0  0  0  0  0  0  0
    7.6515    1.4336   -0.5229 C   0  0  0  0  0  0  0  0  0  0  0  0
    7.7836   -1.3529   -0.5535 C   0  0  0  0  0  0  0  0  0  0  0  0
   -7.1202    1.5941    0.8228 C   0  0  0  0  0  0  0  0  0  0  0  0
   -6.2776    2.3981   -1.2940 C   0  0  0  0  0  0  0  0  0  0  0  0
    5.8442   -1.5328    0.9973 C   0  0  0  0  0  0  0  0  0  0  0  0
   -7.2161    2.4632   -0.2641 C   0  0  0  0  0  0  0  0  0  0  0  0
    8.6276    0.7900   -1.2838 C   0  0  0  0  0  0  0  0  0  0  0  0
    8.6935   -0.6032   -1.2990 C   0  0  0  0  0  0  0  0  0  0  0  0
   -8.3232    3.4605   -0.3260 C   0  0  0  0  0  0  0  0  0  0  0  0
    2.4203    2.9404   -0.6398 H   0  0  0  0  0  0  0  0  0  0  0  0
    0.8565    2.8828    1.3582 H   0  0  0  0  0  0  0  0  0  0  0  0
    0.1115    2.6104   -0.2087 H   0  0  0  0  0  0  0  0  0  0  0  0
    1.4986    1.2342   -2.0289 H   0  0  0  0  0  0  0  0  0  0  0  0
    3.1044    0.6698   -1.6261 H   0  0  0  0  0  0  0  0  0  0  0  0
    0.7323    0.4751    1.8911 H   0  0  0  0  0  0  0  0  0  0  0  0
   -0.8316    1.0648    1.3588 H   0  0  0  0  0  0  0  0  0  0  0  0
    2.1885   -0.8822    0.0665 H   0  0  0  0  0  0  0  0  0  0  0  0
    1.4114   -1.1070   -1.5066 H   0  0  0  0  0  0  0  0  0  0  0  0
    4.5912    1.8407   -0.7101 H   0  0  0  0  0  0  0  0  0  0  0  0
    6.0727    2.3848    1.3390 H   0  0  0  0  0  0  0  0  0  0  0  0
    5.4685    0.8754    1.9670 H   0  0  0  0  0  0  0  0  0  0  0  0
   -5.8427   -2.6609    0.9967 H   0  0  0  0  0  0  0  0  0  0  0  0
   -6.3800   -1.7420   -0.4197 H   0  0  0  0  0  0  0  0  0  0  0  0
   -5.5704   -3.2574   -0.6520 H   0  0  0  0  0  0  0  0  0  0  0  0
   -3.9598   -4.8539   -0.8480 H   0  0  0  0  0  0  0  0  0  0  0  0
   -2.8448   -5.6038    0.2973 H   0  0  0  0  0  0  0  0  0  0  0  0
   -4.1895   -4.6446    0.9145 H   0  0  0  0  0  0  0  0  0  0  0  0
   -6.0217    0.0008    1.7421 H   0  0  0  0  0  0  0  0  0  0  0  0
   -4.5225    1.4250   -2.0502 H   0  0  0  0  0  0  0  0  0  0  0  0
    7.6106    2.5196   -0.5224 H   0  0  0  0  0  0  0  0  0  0  0  0
    7.8499   -2.4374   -0.5760 H   0  0  0  0  0  0  0  0  0  0  0  0
   -7.8429    1.6378    1.6332 H   0  0  0  0  0  0  0  0  0  0  0  0
   -6.3414    3.0702   -2.1457 H   0  0  0  0  0  0  0  0  0  0  0  0
    5.9579   -2.6014    0.7829 H   0  0  0  0  0  0  0  0  0  0  0  0
    4.8100   -1.2714    0.7514 H   0  0  0  0  0  0  0  0  0  0  0  0
    6.0125   -1.3974    2.0706 H   0  0  0  0  0  0  0  0  0  0  0  0
    9.3358    1.3735   -1.8647 H   0  0  0  0  0  0  0  0  0  0  0  0
    9.4536   -1.1042   -1.8914 H   0  0  0  0  0  0  0  0  0  0  0  0
   -9.2196    3.0878    0.1811 H   0  0  0  0  0  0  0  0  0  0  0  0
   -8.6068    3.6724   -1.3626 H   0  0  0  0  0  0  0  0  0  0  0  0
   -8.0135    4.3956    0.1511 H   0  0  0  0  0  0  0  0  0  0  0  0
  1 13  2  0  0  0  0
  2 11  1  0  0  0  0
  2 12  1  0  0  0  0
  2 14  1  0  0  0  0
  3 13  1  0  0  0  0
  3 18  1  0  0  0  0
  3 45  1  0  0  0  0
  4  7  1  0  0  0  0
  4 14  2  0  0  0  0
  5  6  1  0  0  0  0
  5 17  1  0  0  0  0
  5 22  1  0  0  0  0
  6 15  2  0  0  0  0
  7 19  2  0  0  0  0
  8  9  1  0  0  0  0
  8 10  1  0  0  0  0
  8 13  1  0  0  0  0
  8 36  1  0  0  0  0
  9 11  1  0  0  0  0
  9 37  1  0  0  0  0
  9 38  1  0  0  0  0
 10 12  1  0  0  0  0
 10 39  1  0  0  0  0
 10 40  1  0  0  0  0
 11 41  1  0  0  0  0
 11 42  1  0  0  0  0
 12 43  1  0  0  0  0
 12 44  1  0  0  0  0
 14 15  1  0  0  0  0
 15 16  1  0  0  0  0
 16 17  2  0  0  0  0
 16 19  1  0  0  0  0
 17 21  1  0  0  0  0
 18 20  1  0  0  0  0
 18 46  1  0  0  0  0
 18 47  1  0  0  0  0
 19 23  1  0  0  0  0
 20 24  1  0  0  0  0
 20 27  2  0  0  0  0
 21 48  1  0  0  0  0
 21 49  1  0  0  0  0
 21 50  1  0  0  0  0
 22 25  2  0  0  0  0
 22 26  1  0  0  0  0
 23 51  1  0  0  0  0
 23 52  1  0  0  0  0
 23 53  1  0  0  0  0
 24 28  2  0  0  0  0
 24 31  1  0  0  0  0
 25 29  1  0  0  0  0
 25 54  1  0  0  0  0
 26 30  2  0  0  0  0
 26 55  1  0  0  0  0
 27 33  1  0  0  0  0
 27 56  1  0  0  0  0
 28 34  1  0  0  0  0
 28 57  1  0  0  0  0
 29 32  2  0  0  0  0
 29 58  1  0  0  0  0
 30 32  1  0  0  0  0
 30 59  1  0  0  0  0
 31 60  1  0  0  0  0
 31 61  1  0  0  0  0
 31 62  1  0  0  0  0
 32 35  1  0  0  0  0
 33 34  2  0  0  0  0
 33 63  1  0  0  0  0
 34 64  1  0  0  0  0
 35 65  1  0  0  0  0
 35 66  1  0  0  0  0
 35 67  1  0  0  0  0
M  END
> <PUBCHEM_COMPOUND_CID>
20920345

> <PUBCHEM_CONFORMER_RMSD>
1.4

> <PUBCHEM_CONFORMER_DIVERSEORDER>
2
16
31
50
18
32
48
42
15
36
43
52
37
45
17
35
49
33
3
14
29
51
9
38
20
47
23
22
44
39
46
27
30
28
26
55
1
41
8
12
21
13
53
11
40
34
19
25
54
24
5
7
4
10
6

> <PUBCHEM_MMFF94_PARTIAL_CHARGES>
41
1 -0.57
11 0.37
12 0.37
13 0.57
14 0.41
15 0.29
17 -0.33
18 0.44
19 0.17
2 -0.84
20 -0.14
21 0.18
22 -0.02
23 0.14
24 -0.14
25 -0.15
26 -0.15
27 -0.15
28 -0.15
29 -0.15
3 -0.73
30 -0.15
31 0.14
32 -0.14
33 -0.15
34 -0.15
35 0.14
4 -0.31
45 0.37
5 0.59
54 0.15
55 0.15
56 0.15
57 0.15
58 0.15
59 0.15
6 -0.71
63 0.15
64 0.15
7 -0.31
8 0.06

> <PUBCHEM_EFFECTIVE_ROTOR_COUNT>
7.2

> <PUBCHEM_PHARMACOPHORE_FEATURES>
10
1 1 acceptor
1 3 donor
1 6 acceptor
1 7 acceptor
3 2 4 14 cation
5 5 6 15 16 17 rings
6 2 8 9 10 11 12 rings
6 20 24 27 28 33 34 rings
6 22 25 26 29 30 32 rings
6 4 7 14 15 16 19 rings

> <PUBCHEM_HEAVY_ATOM_COUNT>
35

> <PUBCHEM_ATOM_DEF_STEREO_COUNT>
0

> <PUBCHEM_ATOM_UDEF_STEREO_COUNT>
0

> <PUBCHEM_BOND_DEF_STEREO_COUNT>
0

> <PUBCHEM_BOND_UDEF_STEREO_COUNT>
0

> <PUBCHEM_ISOTOPIC_ATOM_COUNT>
0

> <PUBCHEM_COMPONENT_COUNT>
1

> <PUBCHEM_CACTVS_TAUTO_COUNT>
2

> <PUBCHEM_CONFORMER_ID>
013F381900000002

> <PUBCHEM_MMFF94_ENERGY>
120.6653

> <PUBCHEM_FEATURE_SELFOVERLAP>
50.885

> <PUBCHEM_SHAPE_FINGERPRINT>
10165383 225 18409729531270138021
10319926 262 18340479083936362930
10580692 12 18337954596743759322
10669705 162 17846227648385471134
10674148 151 18187362147852954376
11135926 11 15626231225455011695
11211813 89 18272371967401802508
11796584 16 18341051908721041826
12758862 11 18201998850304289064
13008946 267 17839752465501216857
13008946 335 18260556585421757859
14117953 113 18408600332338263397
14168556 18 8646764487296854020
14394314 77 18260268533937434804
14856354 85 16298386894219240851
15064981 113 16988561260696765005
15183329 4 18342457028425083152
15230672 131 18408880724761305370
15320295 40 12823290174591844938
15328829 1 16877665647711863716
15439362 3 18267583516637071655
15444296 121 17749395913921318177
15461852 350 17989199365911711887
15890870 6 18410291368843081213
16067689 134 18334857191021228810
16628084 112 17823689773240420386
21279426 13 18343298197848853064
21814621 53 18130219484326163882
23522609 53 17604438508676551892
23559900 14 18271522108857870144
25019877 29 11891334249233728392
2835447 4 9295021158392795388
335352 9 18411980260845364181
3504750 166 17983580994665422135
3534868 343 17109596918010570391
4073 2 18116714222010590674
4144715 1 18120371214257924376
4149490 64 13469825092557131493
4353968 344 18272082860084098031
439807 62 18410857621894813430
4408954 64 15868048054956031819
474113 269 16271648876529790452
5265222 85 18191029096124383006
57303763 176 17273141176392059513
6009941 240 18341896311738364198
6086070 43 17703785963618688936
6371380 46 18343015597137329040
6394761 36 18131350791671126044
6698420 124 18272934916980730185
9831232 110 18342181081714659486
9982175 41 15286184083807546357

> <PUBCHEM_SHAPE_MULTIPOLES>
684.53
26.94
4.26
1.14
26.32
3.95
-0.06
-14.22
5.44
-8.48
-0.04
0.96
-0.54
1.19

> <PUBCHEM_SHAPE_SELFOVERLAP>
1486.048

> <PUBCHEM_SHAPE_VOLUME>
372.4

> <PUBCHEM_COORDINATE_TYPE>
2
5
10

$$$$
