1519926
  -OEChem-01171809193D

 34 35  0     0  0  0  0  0  0999 V2000
   -1.0270    3.5809    1.1927 S   0  0  0  0  0  0  0  0  0  0  0  0
   -1.8419   -1.6480   -0.5257 O   0  0  0  0  0  0  0  0  0  0  0  0
    3.7193   -0.9971   -0.0232 N   0  0  0  0  0  0  0  0  0  0  0  0
   -2.0657    1.7772   -0.4717 N   0  0  0  0  0  0  0  0  0  0  0  0
    2.5540   -0.2057    0.0474 C   0  0  0  0  0  0  0  0  0  0  0  0
    0.2492    1.3600    0.1868 C   0  0  0  0  0  0  0  0  0  0  0  0
   -2.1487    0.6006   -1.3154 C   0  0  0  0  0  0  0  0  0  0  0  0
    2.3631    0.8371   -0.8593 C   0  0  0  0  0  0  0  0  0  0  0  0
    1.5924   -0.4656    1.0239 C   0  0  0  0  0  0  0  0  0  0  0  0
    1.2108    1.6199   -0.7895 C   0  0  0  0  0  0  0  0  0  0  0  0
    0.4400    0.3172    1.0936 C   0  0  0  0  0  0  0  0  0  0  0  0
   -0.9526    2.1756    0.2591 C   0  0  0  0  0  0  0  0  0  0  0  0
   -2.6725   -0.5912   -0.5675 C   0  0  0  0  0  0  0  0  0  0  0  0
    4.9611   -0.4331   -0.5135 C   0  0  0  0  0  0  0  0  0  0  0  0
    3.6936   -2.3812    0.4067 C   0  0  0  0  0  0  0  0  0  0  0  0
   -3.8379   -0.8143    0.0843 C   0  0  0  0  0  0  0  0  0  0  0  0
   -3.7347   -2.1342    0.5846 C   0  0  0  0  0  0  0  0  0  0  0  0
   -2.5025   -2.5982    0.1868 C   0  0  0  0  0  0  0  0  0  0  0  0
   -1.1803    0.3828   -1.7744 H   0  0  0  0  0  0  0  0  0  0  0  0
   -2.8442    0.8432   -2.1266 H   0  0  0  0  0  0  0  0  0  0  0  0
    3.0860    1.0580   -1.6395 H   0  0  0  0  0  0  0  0  0  0  0  0
    1.7146   -1.2623    1.7521 H   0  0  0  0  0  0  0  0  0  0  0  0
    1.0716    2.4262   -1.5053 H   0  0  0  0  0  0  0  0  0  0  0  0
   -0.3015    0.1047    1.8597 H   0  0  0  0  0  0  0  0  0  0  0  0
   -2.8970    2.3561   -0.3984 H   0  0  0  0  0  0  0  0  0  0  0  0
    5.1281    0.5748   -0.1170 H   0  0  0  0  0  0  0  0  0  0  0  0
    5.8202   -1.0391   -0.2042 H   0  0  0  0  0  0  0  0  0  0  0  0
    4.9640   -0.3934   -1.6079 H   0  0  0  0  0  0  0  0  0  0  0  0
    3.7578   -2.4500    1.4976 H   0  0  0  0  0  0  0  0  0  0  0  0
    2.7844   -2.8903    0.0671 H   0  0  0  0  0  0  0  0  0  0  0  0
    4.5401   -2.9395   -0.0089 H   0  0  0  0  0  0  0  0  0  0  0  0
   -4.6670   -0.1310    0.1975 H   0  0  0  0  0  0  0  0  0  0  0  0
   -4.4667   -2.6791    1.1629 H   0  0  0  0  0  0  0  0  0  0  0  0
   -1.9749   -3.5309    0.3231 H   0  0  0  0  0  0  0  0  0  0  0  0
  1 12  2  0  0  0  0
  2 13  1  0  0  0  0
  2 18  1  0  0  0  0
  3  5  1  0  0  0  0
  3 14  1  0  0  0  0
  3 15  1  0  0  0  0
  4  7  1  0  0  0  0
  4 12  1  0  0  0  0
  4 25  1  0  0  0  0
  5  8  2  0  0  0  0
  5  9  1  0  0  0  0
  6 10  2  0  0  0  0
  6 11  1  0  0  0  0
  6 12  1  0  0  0  0
  7 13  1  0  0  0  0
  7 19  1  0  0  0  0
  7 20  1  0  0  0  0
  8 10  1  0  0  0  0
  8 21  1  0  0  0  0
  9 11  2  0  0  0  0
  9 22  1  0  0  0  0
 10 23  1  0  0  0  0
 11 24  1  0  0  0  0
 13 16  2  0  0  0  0
 14 26  1  0  0  0  0
 14 27  1  0  0  0  0
 14 28  1  0  0  0  0
 15 29  1  0  0  0  0
 15 30  1  0  0  0  0
 15 31  1  0  0  0  0
 16 17  1  0  0  0  0
 16 32  1  0  0  0  0
 17 18  2  0  0  0  0
 17 33  1  0  0  0  0
 18 34  1  0  0  0  0
M  END
> <PUBCHEM_COMPOUND_CID>
1519926

> <PUBCHEM_CONFORMER_RMSD>
0.6

> <PUBCHEM_CONFORMER_DIVERSEORDER>
1
29
28
63
154
120
141
76
155
61
115
132
92
125
102
152
59
127
65
14
26
94
31
109
32
27
88
13
134
72
6
133
64
113
124
119
39
110
35
150
25
111
86
96
60
49
71
98
21
101
3
146
114
17
56
144
147
90
38
153
121
140
137
103
112
149
91
5
62
46
16
122
117
84
18
151
53
118
37
7
130
81
42
36
116
138
8
19
131
99
100
79
51
142
126
70
40
15
106
77
108
75
23
52
55
105
11
87
66
9
95
135
145
12
43
22
129
97
4
107
69
41
57
143
34
33
30
44
136
85
139
68
24
82
83
89
47
74
80
67
104
58
50
78
128
45
54
20
73
148
48
93
123
10
2

> <PUBCHEM_MMFF94_PARTIAL_CHARGES>
26
1 -0.38
10 -0.15
11 -0.15
12 0.35
13 -0.04
14 0.37
15 0.37
16 -0.15
17 -0.15
18 -0.01
2 -0.28
21 0.15
22 0.15
23 0.15
24 0.15
25 0.37
3 -0.84
32 0.15
33 0.15
34 0.15
4 -0.73
5 0.1
6 0.09
7 0.48
8 -0.15
9 -0.15

> <PUBCHEM_EFFECTIVE_ROTOR_COUNT>
5

> <PUBCHEM_PHARMACOPHORE_FEATURES>
5
1 1 acceptor
1 2 acceptor
1 3 cation
5 2 13 16 17 18 rings
6 5 6 8 9 10 11 rings

> <PUBCHEM_HEAVY_ATOM_COUNT>
18

> <PUBCHEM_ATOM_DEF_STEREO_COUNT>
0

> <PUBCHEM_ATOM_UDEF_STEREO_COUNT>
0

> <PUBCHEM_BOND_DEF_STEREO_COUNT>
0

> <PUBCHEM_BOND_UDEF_STEREO_COUNT>
0

> <PUBCHEM_ISOTOPIC_ATOM_COUNT>
0

> <PUBCHEM_COMPONENT_COUNT>
1

> <PUBCHEM_CACTVS_TAUTO_COUNT>
2

> <PUBCHEM_CONFORMER_ID>
0017313600000001

> <PUBCHEM_MMFF94_ENERGY>
55.8214

> <PUBCHEM_FEATURE_SELFOVERLAP>
25.371

> <PUBCHEM_SHAPE_FINGERPRINT>
104564 63 18270962332342052259
10616163 171 18339924801517315846
10618630 7 18411699919502525703
12400797 292 17895475946070913068
12506688 2 18338517568098131627
12553582 1 18340197591716680431
12788726 201 18342466893553427312
13631057 29 18410573998754044206
14115302 16 18335134254987717229
14251764 30 17677347141968315243
14863182 85 16461080826769869223
15099037 8 18408609145267658740
16752209 62 18264469725329015437
19784866 135 18413109433548727241
20291156 8 18335983146409218343
20645476 183 17970900064741235077
20871999 31 18260260824354990007
21452121 199 18267007518008327352
21634736 98 18261114110119112652
21713013 43 17531520005518481991
221490 88 18188214324418027920
23557571 272 18343587322115065772
23559900 14 18340754958966646960
23598288 3 18273220793850792501
238078 22 18409737282794160956
6992083 37 18045792182401815332
7364860 26 17837490022473624689
81228 2 18059287644050996289
9709674 26 18057039099917064294

> <PUBCHEM_SHAPE_MULTIPOLES>
358.45
7.48
3.42
1.1
4.66
1.47
0.01
-6.14
-0.66
-2.05
1.09
-0.1
0.37
-0.28

> <PUBCHEM_SHAPE_SELFOVERLAP>
744.951

> <PUBCHEM_SHAPE_VOLUME>
207.7

> <PUBCHEM_COORDINATE_TYPE>
2
5
10

$$$$
