6904795
  -OEChem-01171810023D

 30 31  0     0  0  0  0  0  0999 V2000
   -2.1649   -2.7617   -0.5513 Br  0  0  0  0  0  0  0  0  0  0  0  0
    1.9089    0.2360   -0.1007 N   0  0  0  0  0  0  0  0  0  0  0  0
    0.6402    0.6823    0.0213 N   0  0  0  0  0  0  0  0  0  0  0  0
    4.7935   -0.1762    0.1898 C   0  0  0  0  0  0  0  0  0  0  0  0
    4.2027    0.5925   -0.9851 C   0  0  0  0  0  0  0  0  0  0  0  0
    3.7781   -1.1762    0.7277 C   0  0  0  0  0  0  0  0  0  0  0  0
    2.8604    1.2239   -0.6188 C   0  0  0  0  0  0  0  0  0  0  0  0
    2.4455   -0.5005    1.0496 C   0  0  0  0  0  0  0  0  0  0  0  0
   -0.2507   -0.2433   -0.1286 C   0  0  0  0  0  0  0  0  0  0  0  0
   -1.6940    0.0385   -0.0330 C   0  0  0  0  0  0  0  0  0  0  0  0
   -2.6422   -0.9599   -0.1956 C   0  0  0  0  0  0  0  0  0  0  0  0
   -2.0693    1.3487    0.2274 C   0  0  0  0  0  0  0  0  0  0  0  0
   -3.9967   -0.6420   -0.0957 C   0  0  0  0  0  0  0  0  0  0  0  0
   -3.4238    1.6666    0.3272 C   0  0  0  0  0  0  0  0  0  0  0  0
   -4.3875    0.6714    0.1657 C   0  0  0  0  0  0  0  0  0  0  0  0
    5.7058   -0.6967   -0.1215 H   0  0  0  0  0  0  0  0  0  0  0  0
    5.0761    0.5253    0.9843 H   0  0  0  0  0  0  0  0  0  0  0  0
    4.9027    1.3717   -1.3069 H   0  0  0  0  0  0  0  0  0  0  0  0
    4.0679   -0.0876   -1.8358 H   0  0  0  0  0  0  0  0  0  0  0  0
    3.6170   -1.9686   -0.0143 H   0  0  0  0  0  0  0  0  0  0  0  0
    4.1756   -1.6576    1.6282 H   0  0  0  0  0  0  0  0  0  0  0  0
    3.0118    2.0225    0.1189 H   0  0  0  0  0  0  0  0  0  0  0  0
    2.4465    1.6952   -1.5188 H   0  0  0  0  0  0  0  0  0  0  0  0
    1.7447   -1.2797    1.3726 H   0  0  0  0  0  0  0  0  0  0  0  0
    2.5712    0.1811    1.9009 H   0  0  0  0  0  0  0  0  0  0  0  0
    0.0670   -1.2757   -0.3504 H   0  0  0  0  0  0  0  0  0  0  0  0
   -1.3462    2.1485    0.3588 H   0  0  0  0  0  0  0  0  0  0  0  0
   -4.7624   -1.4037   -0.2183 H   0  0  0  0  0  0  0  0  0  0  0  0
   -3.7285    2.6891    0.5307 H   0  0  0  0  0  0  0  0  0  0  0  0
   -5.4421    0.9191    0.2436 H   0  0  0  0  0  0  0  0  0  0  0  0
  1 11  1  0  0  0  0
  2  3  1  0  0  0  0
  2  7  1  0  0  0  0
  2  8  1  0  0  0  0
  3  9  2  0  0  0  0
  4  5  1  0  0  0  0
  4  6  1  0  0  0  0
  4 16  1  0  0  0  0
  4 17  1  0  0  0  0
  5  7  1  0  0  0  0
  5 18  1  0  0  0  0
  5 19  1  0  0  0  0
  6  8  1  0  0  0  0
  6 20  1  0  0  0  0
  6 21  1  0  0  0  0
  7 22  1  0  0  0  0
  7 23  1  0  0  0  0
  8 24  1  0  0  0  0
  8 25  1  0  0  0  0
  9 10  1  0  0  0  0
  9 26  1  0  0  0  0
 10 11  1  0  0  0  0
 10 12  2  0  0  0  0
 11 13  2  0  0  0  0
 12 14  1  0  0  0  0
 12 27  1  0  0  0  0
 13 15  1  0  0  0  0
 13 28  1  0  0  0  0
 14 15  2  0  0  0  0
 14 29  1  0  0  0  0
 15 30  1  0  0  0  0
M  END
> <PUBCHEM_COMPOUND_CID>
6904795

> <PUBCHEM_CONFORMER_RMSD>
0.6

> <PUBCHEM_CONFORMER_DIVERSEORDER>
1
8
15
9
12
2
7
4
13
5
14
11
3
10
6

> <PUBCHEM_MMFF94_PARTIAL_CHARGES>
17
1 -0.11
10 0.09
11 0.11
12 -0.15
13 -0.15
14 -0.15
15 -0.15
2 -0.49
26 0.06
27 0.15
28 0.15
29 0.15
3 -0.5
30 0.15
7 0.27
8 0.27
9 0.3

> <PUBCHEM_EFFECTIVE_ROTOR_COUNT>
3.2

> <PUBCHEM_PHARMACOPHORE_FEATURES>
4
1 1 hydrophobe
1 3 acceptor
6 10 11 12 13 14 15 rings
6 2 4 5 6 7 8 rings

> <PUBCHEM_HEAVY_ATOM_COUNT>
15

> <PUBCHEM_ATOM_DEF_STEREO_COUNT>
0

> <PUBCHEM_ATOM_UDEF_STEREO_COUNT>
0

> <PUBCHEM_BOND_DEF_STEREO_COUNT>
1

> <PUBCHEM_BOND_UDEF_STEREO_COUNT>
0

> <PUBCHEM_ISOTOPIC_ATOM_COUNT>
0

> <PUBCHEM_COMPONENT_COUNT>
1

> <PUBCHEM_CACTVS_TAUTO_COUNT>
1

> <PUBCHEM_CONFORMER_ID>
00695BDB00000001

> <PUBCHEM_MMFF94_ENERGY>
28.0468

> <PUBCHEM_FEATURE_SELFOVERLAP>
20.297

> <PUBCHEM_SHAPE_FINGERPRINT>
10616163 171 18339926012371240542
12107183 9 17614276672001123128
12236239 1 18187365428142182168
12251169 10 18409445877636712676
12346177 29 17846487171409908847
12500047 106 18272645736194249847
13167823 11 18334576849778727642
13760787 19 18408326600986288886
13862211 1 18271239552045760167
14965852 173 18411696633857812439
15042514 8 18340490088428922079
15242433 33 18407761434655682414
15375358 24 17489588956729172502
15669948 3 18340766043781437063
17804303 29 18272931656773250937
17834072 33 18261112997611891044
18186145 218 16588022420450260232
19050596 39 18260545641106368176
19422 9 18333449850365454042
200 152 18261107491463830489
20279233 1 16487256573294607092
20281475 54 18334849533015490106
20645477 56 18343305851290917105
20645477 70 15647319815652598274
21267235 1 18335993020570686851
22485316 2 18411416228660189906
2255824 54 17749110002501671618
22646028 1 18334573546927615572
23048698 100 17967534558000246256
23175994 123 16558753425161193785
23402539 116 18273206500716095709
23402655 69 18260550035053116796
23557571 272 17846232037341290108
23559900 14 18060423508587173492
23598291 2 18260260871700149366
300161 21 18335413578243483756
42 15 18335981991326584440
4214541 1 18410855460128304740
474 4 17387421348819351380
5104073 3 18409730685566211096
559249 180 18336260129129881178
573450 72 18410848850189402195
58051976 100 18408605889471283134
633830 44 16805323279876997712
77779 3 18334860515141182520
9709674 26 18272376377304873142

> <PUBCHEM_SHAPE_MULTIPOLES>
304.67
10.02
1.97
0.86
5.54
1.14
-0.01
-0.66
-0.03
-1.93
0.22
0.62
0.07
-1.11

> <PUBCHEM_SHAPE_SELFOVERLAP>
616.877

> <PUBCHEM_SHAPE_VOLUME>
180.9

> <PUBCHEM_COORDINATE_TYPE>
2
5
10

$$$$
