9564324
  -OEChem-01171809313D

 60 62  0     1  0  0  0  0  0999 V2000
   -6.7901   -1.9607    0.7066 S   0  0  0  0  0  0  0  0  0  0  0  0
   -8.0318   -1.4202    1.2290 O   0  0  0  0  0  0  0  0  0  0  0  0
   -5.9420   -2.7822    1.5498 O   0  0  0  0  0  0  0  0  0  0  0  0
    0.1662   -2.4102   -1.1785 O   0  0  0  0  0  0  0  0  0  0  0  0
    8.1528    0.2426    0.8792 O   0  0  0  0  0  0  0  0  0  0  0  0
   10.8057   -0.0441   -1.5019 O   0  0  0  0  0  0  0  0  0  0  0  0
   10.5515    1.3327    0.3333 O   0  0  0  0  0  0  0  0  0  0  0  0
   -5.8789   -0.6852    0.0018 N   0  0  2  0  0  0  0  0  0  0  0  0
    0.5436   -0.6077    0.2244 N   0  0  0  0  0  0  0  0  0  0  0  0
    1.8884   -0.7393    0.1351 N   0  0  0  0  0  0  0  0  0  0  0  0
   -6.5258    0.1552   -1.0349 C   0  0  0  0  0  0  0  0  0  0  0  0
   -4.4533   -0.8897   -0.1189 C   0  0  0  0  0  0  0  0  0  0  0  0
   -6.5042    1.6154   -0.6795 C   0  0  0  0  0  0  0  0  0  0  0  0
   -3.6178   -0.4765    0.9072 C   0  0  0  0  0  0  0  0  0  0  0  0
   -3.9475   -1.4971   -1.2577 C   0  0  0  0  0  0  0  0  0  0  0  0
   -7.2125   -2.9282   -0.7274 C   0  0  0  0  0  0  0  0  0  0  0  0
   -7.5558    2.1606    0.0463 C   0  0  0  0  0  0  0  0  0  0  0  0
   -5.4328    2.4034   -1.0811 C   0  0  0  0  0  0  0  0  0  0  0  0
   -1.7189   -1.2848   -0.3489 C   0  0  0  0  0  0  0  0  0  0  0  0
   -2.2420   -0.6750    0.7915 C   0  0  0  0  0  0  0  0  0  0  0  0
   -2.5717   -1.6960   -1.3733 C   0  0  0  0  0  0  0  0  0  0  0  0
   -7.5357    3.5158    0.3759 C   0  0  0  0  0  0  0  0  0  0  0  0
   -5.4125    3.7586   -0.7513 C   0  0  0  0  0  0  0  0  0  0  0  0
   -6.4640    4.3148   -0.0228 C   0  0  0  0  0  0  0  0  0  0  0  0
   -0.2846   -1.4920   -0.4699 C   0  0  0  0  0  0  0  0  0  0  0  0
    4.0222    0.1792    0.8166 C   0  0  0  0  0  0  0  0  0  0  0  0
    2.5490    0.1567    0.7936 C   0  0  0  0  0  0  0  0  0  0  0  0
    6.7922    0.2215    0.8586 C   0  0  0  0  0  0  0  0  0  0  0  0
    4.6747    1.1644    1.5400 C   0  0  0  0  0  0  0  0  0  0  0  0
    4.7260   -0.7852    0.1140 C   0  0  0  0  0  0  0  0  0  0  0  0
    6.0693    1.1857    1.5610 C   0  0  0  0  0  0  0  0  0  0  0  0
    6.1205   -0.7640    0.1353 C   0  0  0  0  0  0  0  0  0  0  0  0
    8.8276   -0.2603   -0.2731 C   0  0  0  0  0  0  0  0  0  0  0  0
   10.1468    0.4524   -0.4140 C   0  0  0  0  0  0  0  0  0  0  0  0
   12.0855    0.5396   -1.7662 C   0  0  0  0  0  0  0  0  0  0  0  0
   -7.5743   -0.1387   -1.1645 H   0  0  0  0  0  0  0  0  0  0  0  0
   -6.0756    0.0011   -2.0226 H   0  0  0  0  0  0  0  0  0  0  0  0
   -4.0198   -0.0061    1.8002 H   0  0  0  0  0  0  0  0  0  0  0  0
   -4.5948   -1.8258   -2.0651 H   0  0  0  0  0  0  0  0  0  0  0  0
   -7.8058   -2.3365   -1.4241 H   0  0  0  0  0  0  0  0  0  0  0  0
   -7.8090   -3.7774   -0.3839 H   0  0  0  0  0  0  0  0  0  0  0  0
   -6.3019   -3.3006   -1.1971 H   0  0  0  0  0  0  0  0  0  0  0  0
   -8.3948    1.5480    0.3640 H   0  0  0  0  0  0  0  0  0  0  0  0
   -4.6089    1.9816   -1.6499 H   0  0  0  0  0  0  0  0  0  0  0  0
   -1.6168   -0.3659    1.6239 H   0  0  0  0  0  0  0  0  0  0  0  0
   -2.1838   -2.1696   -2.2715 H   0  0  0  0  0  0  0  0  0  0  0  0
   -8.3541    3.9489    0.9436 H   0  0  0  0  0  0  0  0  0  0  0  0
   -4.5782    4.3808   -1.0618 H   0  0  0  0  0  0  0  0  0  0  0  0
   -6.4483    5.3699    0.2341 H   0  0  0  0  0  0  0  0  0  0  0  0
    0.1895    0.1751    0.7645 H   0  0  0  0  0  0  0  0  0  0  0  0
    2.0377    0.9495    1.3715 H   0  0  0  0  0  0  0  0  0  0  0  0
    4.1226    1.9207    2.0908 H   0  0  0  0  0  0  0  0  0  0  0  0
    4.2279   -1.5667   -0.4524 H   0  0  0  0  0  0  0  0  0  0  0  0
    6.5871    1.9560    2.1261 H   0  0  0  0  0  0  0  0  0  0  0  0
    6.6459   -1.5477   -0.4026 H   0  0  0  0  0  0  0  0  0  0  0  0
    8.2638   -0.0598   -1.1925 H   0  0  0  0  0  0  0  0  0  0  0  0
    9.0158   -1.3305   -0.1401 H   0  0  0  0  0  0  0  0  0  0  0  0
   12.7616    0.3670   -0.9234 H   0  0  0  0  0  0  0  0  0  0  0  0
   11.9796    1.6103   -1.9644 H   0  0  0  0  0  0  0  0  0  0  0  0
   12.5020    0.0577   -2.6547 H   0  0  0  0  0  0  0  0  0  0  0  0
  1  2  2  0  0  0  0
  1  3  2  0  0  0  0
  1  8  1  0  0  0  0
  1 16  1  0  0  0  0
  4 25  2  0  0  0  0
  5 28  1  0  0  0  0
  5 33  1  0  0  0  0
  6 34  1  0  0  0  0
  6 35  1  0  0  0  0
  7 34  2  0  0  0  0
  8 11  1  0  0  0  0
  8 12  1  0  0  0  0
  9 10  1  0  0  0  0
  9 25  1  0  0  0  0
  9 50  1  0  0  0  0
 10 27  2  0  0  0  0
 11 13  1  0  0  0  0
 11 36  1  0  0  0  0
 11 37  1  0  0  0  0
 12 14  2  0  0  0  0
 12 15  1  0  0  0  0
 13 17  2  0  0  0  0
 13 18  1  0  0  0  0
 14 20  1  0  0  0  0
 14 38  1  0  0  0  0
 15 21  2  0  0  0  0
 15 39  1  0  0  0  0
 16 40  1  0  0  0  0
 16 41  1  0  0  0  0
 16 42  1  0  0  0  0
 17 22  1  0  0  0  0
 17 43  1  0  0  0  0
 18 23  2  0  0  0  0
 18 44  1  0  0  0  0
 19 20  2  0  0  0  0
 19 21  1  0  0  0  0
 19 25  1  0  0  0  0
 20 45  1  0  0  0  0
 21 46  1  0  0  0  0
 22 24  2  0  0  0  0
 22 47  1  0  0  0  0
 23 24  1  0  0  0  0
 23 48  1  0  0  0  0
 24 49  1  0  0  0  0
 26 27  1  0  0  0  0
 26 29  2  0  0  0  0
 26 30  1  0  0  0  0
 27 51  1  0  0  0  0
 28 31  2  0  0  0  0
 28 32  1  0  0  0  0
 29 31  1  0  0  0  0
 29 52  1  0  0  0  0
 30 32  2  0  0  0  0
 30 53  1  0  0  0  0
 31 54  1  0  0  0  0
 32 55  1  0  0  0  0
 33 34  1  0  0  0  0
 33 56  1  0  0  0  0
 33 57  1  0  0  0  0
 35 58  1  0  0  0  0
 35 59  1  0  0  0  0
 35 60  1  0  0  0  0
M  END
> <PUBCHEM_COMPOUND_CID>
9564324

> <PUBCHEM_CONFORMER_RMSD>
1.2

> <PUBCHEM_CONFORMER_DIVERSEORDER>
1
28
44
56
40
52
54
47
53
41
14
11
20
15
58
33
17
35
31
36
48
24
38
37
60
10
42
8
26
4
46
21
50
22
59
16
23
30
61
45
57
29
43
39
2
51
7
34
25
9
19
55
18
3
5
12
32
27
6
49
13

> <PUBCHEM_MMFF94_PARTIAL_CHARGES>
50
1 1.33
10 -0.51
11 0.5
12 0.2
13 -0.14
14 -0.15
15 -0.15
16 0.11
17 -0.15
18 -0.15
19 0.09
2 -0.65
20 -0.15
21 -0.15
22 -0.15
23 -0.15
24 -0.15
25 0.54
26 0.09
27 0.3
28 0.08
29 -0.15
3 -0.65
30 -0.15
31 -0.15
32 -0.15
33 0.34
34 0.66
35 0.28
38 0.15
39 0.15
4 -0.57
43 0.15
44 0.15
45 0.15
46 0.15
47 0.15
48 0.15
49 0.15
5 -0.36
50 0.37
51 0.06
52 0.15
53 0.15
54 0.15
55 0.15
6 -0.43
7 -0.57
8 -0.69
9 -0.37

> <PUBCHEM_EFFECTIVE_ROTOR_COUNT>
12

> <PUBCHEM_PHARMACOPHORE_FEATURES>
10
1 10 acceptor
1 2 acceptor
1 3 acceptor
1 4 acceptor
1 5 acceptor
1 7 acceptor
1 9 donor
6 12 14 15 19 20 21 rings
6 13 17 18 22 23 24 rings
6 26 28 29 30 31 32 rings

> <PUBCHEM_HEAVY_ATOM_COUNT>
35

> <PUBCHEM_ATOM_DEF_STEREO_COUNT>
0

> <PUBCHEM_ATOM_UDEF_STEREO_COUNT>
0

> <PUBCHEM_BOND_DEF_STEREO_COUNT>
1

> <PUBCHEM_BOND_UDEF_STEREO_COUNT>
0

> <PUBCHEM_ISOTOPIC_ATOM_COUNT>
0

> <PUBCHEM_COMPONENT_COUNT>
1

> <PUBCHEM_CACTVS_TAUTO_COUNT>
2

> <PUBCHEM_CONFORMER_ID>
0091F0A400000001

> <PUBCHEM_MMFF94_ENERGY>
106.0984

> <PUBCHEM_FEATURE_SELFOVERLAP>
50.781

> <PUBCHEM_SHAPE_FINGERPRINT>
10577160 183 12895357676808179437
10666366 153 17917992772757703892
11181472 205 18335419020768647784
11408170 132 18341893014180095780
11621639 183 18261394387280554213
12013929 94 18115311210091896851
12082328 90 18335134285142054767
12089408 11 17894908526005920642
13553644 42 18200038318816007110
13911987 19 17060329692662729871
15065858 18 8935004764018005014
15183329 4 16774072986067492443
15444296 121 18113620114157940961
15530121 191 18343577474072314920
15604295 49 18341040917932237712
16728433 281 18199189477715359192
20609170 92 17988649532334842300
21772524 286 18189613852260468140
24204213 310 17749112145596753084
24771293 8 17894349964892157222
437795 83 17560799884402753793
44280117 145 18412261770788780159
44802255 64 17917704696105355271
58902169 19 13470400110888587833
59682541 35 12179845009856817702
6201320 82 17986681376726358465
9980921 7 18187918436571095533

> <PUBCHEM_SHAPE_MULTIPOLES>
673.97
40.11
3.64
1.39
109.79
3.26
-0.06
15.47
-7.69
-14.43
-0.37
1.2
-0.15
1.59

> <PUBCHEM_SHAPE_SELFOVERLAP>
1418.538

> <PUBCHEM_SHAPE_VOLUME>
379.3

> <PUBCHEM_COORDINATE_TYPE>
2
5
10

$$$$
