3357152
  -OEChem-01171809243D

 41 43  0     1  0  0  0  0  0999 V2000
   -2.4918   -1.9664   -0.0803 S   0  0  0  0  0  0  0  0  0  0  0  0
    0.4296   -2.1098   -0.5587 S   0  0  0  0  0  0  0  0  0  0  0  0
    5.4739    0.0023    0.2201 F   0  0  0  0  0  0  0  0  0  0  0  0
   -0.5993   -0.5504    1.4762 N   0  0  0  0  0  0  0  0  0  0  0  0
   -0.3412    1.5452    2.6055 N   0  0  0  0  0  0  0  0  0  0  0  0
   -2.7125    0.3900   -2.7227 N   0  0  0  0  0  0  0  0  0  0  0  0
   -2.5452    3.3906    0.1828 N   0  0  0  0  0  0  0  0  0  0  0  0
   -1.0276    0.2793   -0.7360 C   0  0  1  0  0  0  0  0  0  0  0  0
   -0.8749    1.3981    0.2411 C   0  0  2  0  0  0  0  0  0  0  0  0
    0.1100    1.2649   -0.8795 C   0  0  1  0  0  0  0  0  0  0  0  0
   -0.9336   -0.9934    0.0830 C   0  0  0  0  0  0  0  0  0  0  0  0
   -0.6003    0.7445    1.5320 C   0  0  0  0  0  0  0  0  0  0  0  0
    1.5286    0.9309   -0.5888 C   0  0  0  0  0  0  0  0  0  0  0  0
   -1.9627    0.3408   -1.8386 C   0  0  0  0  0  0  0  0  0  0  0  0
   -1.8000    2.5017    0.2089 C   0  0  0  0  0  0  0  0  0  0  0  0
    2.2850    0.2137   -1.5184 C   0  0  0  0  0  0  0  0  0  0  0  0
    2.1110    1.3329    0.6154 C   0  0  0  0  0  0  0  0  0  0  0  0
   -3.6159   -0.7198    0.5791 C   0  0  0  0  0  0  0  0  0  0  0  0
    0.1944   -3.4285    0.6431 C   0  0  0  0  0  0  0  0  0  0  0  0
    3.6165   -0.0997   -1.2455 C   0  0  0  0  0  0  0  0  0  0  0  0
    3.4424    1.0195    0.8885 C   0  0  0  0  0  0  0  0  0  0  0  0
    4.1951    0.3031   -0.0419 C   0  0  0  0  0  0  0  0  0  0  0  0
   -5.0463   -1.2240    0.5511 C   0  0  0  0  0  0  0  0  0  0  0  0
    1.1647   -4.5653    0.3835 C   0  0  0  0  0  0  0  0  0  0  0  0
    0.0089    2.0008   -1.6797 H   0  0  0  0  0  0  0  0  0  0  0  0
   -0.3509    2.5578    2.5428 H   0  0  0  0  0  0  0  0  0  0  0  0
   -0.1254    1.1454    3.5124 H   0  0  0  0  0  0  0  0  0  0  0  0
    1.8527   -0.0877   -2.4695 H   0  0  0  0  0  0  0  0  0  0  0  0
    1.6130    1.9934    1.3107 H   0  0  0  0  0  0  0  0  0  0  0  0
   -3.3467   -0.5088    1.6189 H   0  0  0  0  0  0  0  0  0  0  0  0
   -3.5978    0.2201    0.0305 H   0  0  0  0  0  0  0  0  0  0  0  0
    0.3641   -3.0455    1.6542 H   0  0  0  0  0  0  0  0  0  0  0  0
   -0.8050   -3.8643    0.6011 H   0  0  0  0  0  0  0  0  0  0  0  0
    4.2041   -0.6537   -1.9715 H   0  0  0  0  0  0  0  0  0  0  0  0
    3.9018    1.3560    1.8132 H   0  0  0  0  0  0  0  0  0  0  0  0
   -5.3807   -1.4262   -0.4722 H   0  0  0  0  0  0  0  0  0  0  0  0
   -5.1640   -2.1378    1.1437 H   0  0  0  0  0  0  0  0  0  0  0  0
   -5.7172   -0.4690    0.9748 H   0  0  0  0  0  0  0  0  0  0  0  0
    1.0105   -5.0087   -0.6063 H   0  0  0  0  0  0  0  0  0  0  0  0
    2.2053   -4.2310    0.4573 H   0  0  0  0  0  0  0  0  0  0  0  0
    1.0204   -5.3574    1.1261 H   0  0  0  0  0  0  0  0  0  0  0  0
  1 11  1  0  0  0  0
  1 18  1  0  0  0  0
  2 11  1  0  0  0  0
  2 19  1  0  0  0  0
  3 22  1  0  0  0  0
  4 11  1  0  0  0  0
  4 12  2  0  0  0  0
  5 12  1  0  0  0  0
  5 26  1  0  0  0  0
  5 27  1  0  0  0  0
  6 14  3  0  0  0  0
  7 15  3  0  0  0  0
  8  9  1  0  0  0  0
  8 10  1  0  0  0  0
  8 11  1  0  0  0  0
  8 14  1  0  0  0  0
  9 10  1  0  0  0  0
  9 12  1  0  0  0  0
  9 15  1  0  0  0  0
 10 13  1  0  0  0  0
 10 25  1  0  0  0  0
 13 16  2  0  0  0  0
 13 17  1  0  0  0  0
 16 20  1  0  0  0  0
 16 28  1  0  0  0  0
 17 21  2  0  0  0  0
 17 29  1  0  0  0  0
 18 23  1  0  0  0  0
 18 30  1  0  0  0  0
 18 31  1  0  0  0  0
 19 24  1  0  0  0  0
 19 32  1  0  0  0  0
 19 33  1  0  0  0  0
 20 22  2  0  0  0  0
 20 34  1  0  0  0  0
 21 22  1  0  0  0  0
 21 35  1  0  0  0  0
 23 36  1  0  0  0  0
 23 37  1  0  0  0  0
 23 38  1  0  0  0  0
 24 39  1  0  0  0  0
 24 40  1  0  0  0  0
 24 41  1  0  0  0  0
M  END
> <PUBCHEM_COMPOUND_CID>
3357152

> <PUBCHEM_CONFORMER_RMSD>
0.8

> <PUBCHEM_CONFORMER_DIVERSEORDER>
1
8
5
7
9
3
2
6
4
10

> <PUBCHEM_MMFF94_PARTIAL_CHARGES>
29
1 -0.46
10 -0.07
11 0.8
12 0.5
13 -0.03
14 0.45
15 0.45
16 -0.15
17 -0.15
18 0.23
19 0.23
2 -0.46
20 -0.15
21 -0.15
22 0.19
25 0.1
26 0.4
27 0.4
28 0.15
29 0.15
3 -0.19
34 0.15
35 0.15
4 -0.7
5 -0.85
6 -0.56
7 -0.56
8 0.01
9 0.1

> <PUBCHEM_EFFECTIVE_ROTOR_COUNT>
5.4

> <PUBCHEM_PHARMACOPHORE_FEATURES>
8
1 23 hydrophobe
1 24 hydrophobe
1 5 donor
1 6 acceptor
1 7 acceptor
3 4 5 12 cation
6 13 16 17 20 21 22 rings
6 4 8 9 10 11 12 rings

> <PUBCHEM_HEAVY_ATOM_COUNT>
24

> <PUBCHEM_ATOM_DEF_STEREO_COUNT>
0

> <PUBCHEM_ATOM_UDEF_STEREO_COUNT>
3

> <PUBCHEM_BOND_DEF_STEREO_COUNT>
0

> <PUBCHEM_BOND_UDEF_STEREO_COUNT>
0

> <PUBCHEM_ISOTOPIC_ATOM_COUNT>
0

> <PUBCHEM_COMPONENT_COUNT>
1

> <PUBCHEM_CACTVS_TAUTO_COUNT>
2

> <PUBCHEM_CONFORMER_ID>
003339E000000001

> <PUBCHEM_MMFF94_ENERGY>
71.18

> <PUBCHEM_FEATURE_SELFOVERLAP>
40.594

> <PUBCHEM_SHAPE_FINGERPRINT>
10863032 1 18194126205151480237
11315181 36 18259978285287082500
11578080 2 17533785897098390135
12788726 201 18266761210129267397
13140716 1 18049164663889942210
133893 2 17609478446170147230
13583140 156 18200030629668771505
14178342 30 18335987454488276260
14713325 29 18114460068011612013
14787075 74 17916871351473031681
16752209 62 18336557078662437804
16945 1 18412256242411216629
20028762 73 17910968155745149215
20510252 161 18343306985056853384
20600515 1 18198068186117617804
20905425 154 18269848518520848503
21330990 113 18336554884361450059
23419403 2 17340669091729091807
23559900 14 18199470055602190304
23566358 2 18197787600589254879
3027735 51 18410299081549056675
4340502 62 18196666090334778025
465052 167 17241903162399805755
59755656 215 18408041802032172663
81228 2 17985017948206864880

> <PUBCHEM_SHAPE_MULTIPOLES>
474.41
6.79
3.66
1.76
3.09
3.65
0.27
0.04
0.1
-0.95
-0.94
-0.55
-0.64
0.3

> <PUBCHEM_SHAPE_SELFOVERLAP>
991.673

> <PUBCHEM_SHAPE_VOLUME>
274.1

> <PUBCHEM_COORDINATE_TYPE>
2
5
10

$$$$
