25237201
  -OEChem-01171810073D

 41 42  0     0  0  0  0  0  0999 V2000
    0.9003   -1.9390   -0.2149 O   0  0  0  0  0  0  0  0  0  0  0  0
   -5.2181    2.0223    1.1792 O   0  0  0  0  0  0  0  0  0  0  0  0
   -4.2276   -0.5199    1.4930 N   0  0  0  0  0  0  0  0  0  0  0  0
   -3.8562    0.2844    0.4710 N   0  0  0  0  0  0  0  0  0  0  0  0
   -4.9448    4.6948   -1.0555 N   0  0  0  0  0  0  0  0  0  0  0  0
   -0.4275   -2.1838   -0.3853 C   0  0  0  0  0  0  0  0  0  0  0  0
   -2.6985   -2.0677    0.4309 C   0  0  0  0  0  0  0  0  0  0  0  0
   -1.3375   -1.8172    0.6062 C   0  0  0  0  0  0  0  0  0  0  0  0
    1.2557   -0.8055    0.5756 C   0  0  0  0  0  0  0  0  0  0  0  0
    4.9453    0.3961    0.4021 C   0  0  0  0  0  0  0  0  0  0  0  0
   -0.8786   -2.8008   -1.5522 C   0  0  0  0  0  0  0  0  0  0  0  0
   -3.1496   -2.6849   -0.7359 C   0  0  0  0  0  0  0  0  0  0  0  0
    2.5555   -0.2606    0.0768 C   0  0  0  0  0  0  0  0  0  0  0  0
   -2.2396   -3.0514   -1.7274 C   0  0  0  0  0  0  0  0  0  0  0  0
    3.6501   -0.1467    0.8450 C   0  0  0  0  0  0  0  0  0  0  0  0
    5.2496    0.4516   -0.9581 C   0  0  0  0  0  0  0  0  0  0  0  0
    5.8681    0.8546    1.3424 C   0  0  0  0  0  0  0  0  0  0  0  0
   -3.6599   -1.6820    1.4790 C   0  0  0  0  0  0  0  0  0  0  0  0
    6.4765    0.9653   -1.3780 C   0  0  0  0  0  0  0  0  0  0  0  0
    7.0950    1.3684    0.9225 C   0  0  0  0  0  0  0  0  0  0  0  0
    7.3991    1.4238   -0.4378 C   0  0  0  0  0  0  0  0  0  0  0  0
   -4.4046    1.5529    0.3872 C   0  0  0  0  0  0  0  0  0  0  0  0
   -3.8780    2.3059   -0.8173 C   0  0  0  0  0  0  0  0  0  0  0  0
   -4.4747    3.6393   -0.9483 C   0  0  0  0  0  0  0  0  0  0  0  0
   -1.0151   -1.3606    1.5381 H   0  0  0  0  0  0  0  0  0  0  0  0
    0.5192    0.0034    0.4819 H   0  0  0  0  0  0  0  0  0  0  0  0
    1.3244   -1.1110    1.6260 H   0  0  0  0  0  0  0  0  0  0  0  0
   -0.1744   -3.0882   -2.3283 H   0  0  0  0  0  0  0  0  0  0  0  0
   -4.2078   -2.8847   -0.8824 H   0  0  0  0  0  0  0  0  0  0  0  0
    2.5507    0.0701   -0.9576 H   0  0  0  0  0  0  0  0  0  0  0  0
   -2.5907   -3.5317   -2.6361 H   0  0  0  0  0  0  0  0  0  0  0  0
    3.6027   -0.4612    1.8851 H   0  0  0  0  0  0  0  0  0  0  0  0
    4.5715    0.0876   -1.7242 H   0  0  0  0  0  0  0  0  0  0  0  0
    5.6475    0.8201    2.4066 H   0  0  0  0  0  0  0  0  0  0  0  0
   -3.8856   -2.4221    2.2633 H   0  0  0  0  0  0  0  0  0  0  0  0
    6.7160    1.0043   -2.4367 H   0  0  0  0  0  0  0  0  0  0  0  0
    7.8137    1.7254    1.6543 H   0  0  0  0  0  0  0  0  0  0  0  0
    8.3549    1.8229   -0.7648 H   0  0  0  0  0  0  0  0  0  0  0  0
   -3.1899   -0.0242   -0.2254 H   0  0  0  0  0  0  0  0  0  0  0  0
   -2.7898    2.3927   -0.7213 H   0  0  0  0  0  0  0  0  0  0  0  0
   -4.0889    1.7151   -1.7160 H   0  0  0  0  0  0  0  0  0  0  0  0
  1  6  1  0  0  0  0
  1  9  1  0  0  0  0
  2 22  2  0  0  0  0
  3  4  1  0  0  0  0
  3 18  2  0  0  0  0
  4 22  1  0  0  0  0
  4 39  1  0  0  0  0
  5 24  3  0  0  0  0
  6  8  1  0  0  0  0
  6 11  2  0  0  0  0
  7  8  2  0  0  0  0
  7 12  1  0  0  0  0
  7 18  1  0  0  0  0
  8 25  1  0  0  0  0
  9 13  1  0  0  0  0
  9 26  1  0  0  0  0
  9 27  1  0  0  0  0
 10 15  1  0  0  0  0
 10 16  2  0  0  0  0
 10 17  1  0  0  0  0
 11 14  1  0  0  0  0
 11 28  1  0  0  0  0
 12 14  2  0  0  0  0
 12 29  1  0  0  0  0
 13 15  2  0  0  0  0
 13 30  1  0  0  0  0
 14 31  1  0  0  0  0
 15 32  1  0  0  0  0
 16 19  1  0  0  0  0
 16 33  1  0  0  0  0
 17 20  2  0  0  0  0
 17 34  1  0  0  0  0
 18 35  1  0  0  0  0
 19 21  2  0  0  0  0
 19 36  1  0  0  0  0
 20 21  1  0  0  0  0
 20 37  1  0  0  0  0
 21 38  1  0  0  0  0
 22 23  1  0  0  0  0
 23 24  1  0  0  0  0
 23 40  1  0  0  0  0
 23 41  1  0  0  0  0
M  END
> <PUBCHEM_COMPOUND_CID>
25237201

> <PUBCHEM_CONFORMER_RMSD>
0.8

> <PUBCHEM_CONFORMER_DIVERSEORDER>
1
198
18
116
149
132
46
217
142
168
134
125
233
19
93
262
85
139
178
96
220
110
160
148
29
154
229
7
57
120
59
214
164
82
111
242
87
147
76
95
88
188
100
15
97
165
65
224
61
71
184
218
86
238
62
208
89
55
216
206
137
150
122
102
157
200
114
204
253
109
246
90
31
106
171
185
257
126
104
16
201
6
248
170
79
94
112
123
75
252
235
133
41
251
166
13
118
202
78
92
81
72
209
210
173
255
40
256
145
26
225
245
222
182
244
21
151
49
108
135
259
155
117
115
181
127
103
35
113
74
33
191
27
234
20
223
14
53
236
189
50
177
203
84
159
56
8
129
174
63
231
77
136
101
128
66
156
98
227
52
196
176
241
12
199
68
28
4
146
192
138
64
152
193
11
183
107
119
10
143
207
141
37
17
22
105
179
3
232
131
70
239
43
240
161
158
221
144
237
24
91
215
260
34
211
172
219
25
60
162
180
261
249
51
124
130
186
42
195
228
247
44
169
38
47
69
243
194
2
5
205
212
67
197
48
32
23
36
250
39
99
230
167
254
175
258
226
54
9
213
190
30
58
83
163
140
73
121
45
187
153
80

> <PUBCHEM_MMFF94_PARTIAL_CHARGES>
37
1 -0.36
10 0.03
11 -0.15
12 -0.15
13 -0.29
14 -0.15
15 -0.18
16 -0.15
17 -0.15
18 0.3
19 -0.15
2 -0.57
20 -0.15
21 -0.15
22 0.57
23 0.26
24 0.36
25 0.15
28 0.15
29 0.15
3 -0.51
30 0.15
31 0.15
32 0.15
33 0.15
34 0.15
35 0.06
36 0.15
37 0.15
38 0.15
39 0.37
4 -0.37
5 -0.56
6 0.08
7 0.09
8 -0.15
9 0.42

> <PUBCHEM_EFFECTIVE_ROTOR_COUNT>
8

> <PUBCHEM_PHARMACOPHORE_FEATURES>
7
1 1 acceptor
1 2 acceptor
1 3 acceptor
1 4 donor
1 5 acceptor
6 10 16 17 19 20 21 rings
6 6 7 8 11 12 14 rings

> <PUBCHEM_HEAVY_ATOM_COUNT>
24

> <PUBCHEM_ATOM_DEF_STEREO_COUNT>
0

> <PUBCHEM_ATOM_UDEF_STEREO_COUNT>
0

> <PUBCHEM_BOND_DEF_STEREO_COUNT>
2

> <PUBCHEM_BOND_UDEF_STEREO_COUNT>
0

> <PUBCHEM_ISOTOPIC_ATOM_COUNT>
0

> <PUBCHEM_COMPONENT_COUNT>
1

> <PUBCHEM_CACTVS_TAUTO_COUNT>
2

> <PUBCHEM_CONFORMER_ID>
018116D100000001

> <PUBCHEM_MMFF94_ENERGY>
76.9599

> <PUBCHEM_FEATURE_SELFOVERLAP>
35.528

> <PUBCHEM_SHAPE_FINGERPRINT>
10369192 42 17846228739523273027
105312 117 18131635581850815007
10864689 126 18269271266907073540
11273773 118 18334295370902604478
12760667 363 8646764496166311553
14211702 104 9007050254374096758
14251740 79 11671778282393707149
14251764 75 18053383189638115769
14294032 229 18343582941717831279
14950920 106 16806182092805062265
15183329 4 17131567106439405754
15338160 23 18260828211147038061
15510800 12 8358252653232737505
15803439 3 17059761231490854389
16079462 125 17274820316232704154
16120349 189 18263074440699428869
16992828 155 18335696139852826013
17859628 70 9187497163649511947
19309040 13 17699850623342696333
20281389 69 18341615945069197850
21196832 93 10303514135916644760
21302155 148 18261114041152203324
21756936 100 18261957448359884698
23081809 10 18263074565770561802
23559900 14 16343429518123381978
24771293 8 18339093610378234585
2838139 119 18265890247023208679
3418910 222 17616252924357351572
4015057 19 14979672260485299394
44249763 50 18130211762038495840
5047190 92 17907018375155474985
5219985 13 18337953381399980959
6327066 14 18339074892130029861
6376802 137 16736105875077605043
6431902 208 8070028861160187400

> <PUBCHEM_SHAPE_MULTIPOLES>
467.23
18.68
4.54
1.53
32.13
3.62
-0.12
17.17
0.89
-11.47
-2.43
-0.36
-0.26
0.87

> <PUBCHEM_SHAPE_SELFOVERLAP>
980.761

> <PUBCHEM_SHAPE_VOLUME>
259.6

> <PUBCHEM_COORDINATE_TYPE>
2
5
10

$$$$
