16452489
  -OEChem-01171810053D

 49 51  0     0  0  0  0  0  0999 V2000
   -1.0397    5.0010    0.1912 Cl  0  0  0  0  0  0  0  0  0  0  0  0
    3.6177    1.0331   -0.0831 S   0  0  0  0  0  0  0  0  0  0  0  0
    4.0522    0.9144   -1.4743 O   0  0  0  0  0  0  0  0  0  0  0  0
    4.6069    1.3755    0.9394 O   0  0  0  0  0  0  0  0  0  0  0  0
   -1.8826    2.4336   -1.4078 O   0  0  0  0  0  0  0  0  0  0  0  0
   -7.2613   -1.6149   -0.7744 O   0  0  0  0  0  0  0  0  0  0  0  0
   -6.7321   -2.9360    1.0348 O   0  0  0  0  0  0  0  0  0  0  0  0
    1.0741    1.6388   -0.2578 N   0  0  0  0  0  0  0  0  0  0  0  0
    2.6017    3.4194    0.2928 N   0  0  0  0  0  0  0  0  0  0  0  0
   -1.6495    0.9347    0.3886 N   0  0  0  0  0  0  0  0  0  0  0  0
    2.9258   -0.5404    0.3937 C   0  0  0  0  0  0  0  0  0  0  0  0
    4.0267   -1.5547    0.3495 C   0  0  0  0  0  0  0  0  0  0  0  0
    4.2720   -2.2588   -0.8259 C   0  0  0  0  0  0  0  0  0  0  0  0
    2.2980    2.1425   -0.0086 C   0  0  0  0  0  0  0  0  0  0  0  0
    4.7972   -1.7881    1.4850 C   0  0  0  0  0  0  0  0  0  0  0  0
    5.2970   -3.2040   -0.8662 C   0  0  0  0  0  0  0  0  0  0  0  0
    5.8222   -2.7334    1.4445 C   0  0  0  0  0  0  0  0  0  0  0  0
    6.0720   -3.4413    0.2690 C   0  0  0  0  0  0  0  0  0  0  0  0
    0.0934    2.5447   -0.1854 C   0  0  0  0  0  0  0  0  0  0  0  0
    5.5637   -3.9621   -2.1228 C   0  0  0  0  0  0  0  0  0  0  0  0
    0.2442    3.8685    0.1077 C   0  0  0  0  0  0  0  0  0  0  0  0
   -1.2509    1.9740   -0.4626 C   0  0  0  0  0  0  0  0  0  0  0  0
   -2.8358    0.2015    0.3521 C   0  0  0  0  0  0  0  0  0  0  0  0
    1.5467    4.2590    0.3429 C   0  0  0  0  0  0  0  0  0  0  0  0
   -3.0620   -0.8059    1.2901 C   0  0  0  0  0  0  0  0  0  0  0  0
   -3.7964    0.4764   -0.6214 C   0  0  0  0  0  0  0  0  0  0  0  0
   -5.2088   -1.2638    0.2811 C   0  0  0  0  0  0  0  0  0  0  0  0
   -4.2483   -1.5386    1.2544 C   0  0  0  0  0  0  0  0  0  0  0  0
   -4.9829   -0.2563   -0.6569 C   0  0  0  0  0  0  0  0  0  0  0  0
   -6.4462   -2.0268    0.2444 C   0  0  0  0  0  0  0  0  0  0  0  0
   -8.5151   -2.2919   -0.9140 C   0  0  0  0  0  0  0  0  0  0  0  0
    2.5046   -0.4463    1.3997 H   0  0  0  0  0  0  0  0  0  0  0  0
    2.1233   -0.8030   -0.3024 H   0  0  0  0  0  0  0  0  0  0  0  0
    3.6685   -2.0737   -1.7112 H   0  0  0  0  0  0  0  0  0  0  0  0
    4.6115   -1.2444    2.4072 H   0  0  0  0  0  0  0  0  0  0  0  0
    6.4257   -2.9180    2.3283 H   0  0  0  0  0  0  0  0  0  0  0  0
    6.8745   -4.1739    0.2500 H   0  0  0  0  0  0  0  0  0  0  0  0
    5.9959   -4.9455   -1.9088 H   0  0  0  0  0  0  0  0  0  0  0  0
    6.2600   -3.4044   -2.7570 H   0  0  0  0  0  0  0  0  0  0  0  0
    4.6382   -4.1342   -2.6827 H   0  0  0  0  0  0  0  0  0  0  0  0
    1.7986    5.2866    0.5863 H   0  0  0  0  0  0  0  0  0  0  0  0
   -0.9968    0.6733    1.1248 H   0  0  0  0  0  0  0  0  0  0  0  0
   -2.3221   -1.0304    2.0543 H   0  0  0  0  0  0  0  0  0  0  0  0
   -3.6953    1.2392   -1.3802 H   0  0  0  0  0  0  0  0  0  0  0  0
   -4.4045   -2.3191    1.9945 H   0  0  0  0  0  0  0  0  0  0  0  0
   -5.7027   -0.0083   -1.4319 H   0  0  0  0  0  0  0  0  0  0  0  0
   -8.3493   -3.3549   -1.1123 H   0  0  0  0  0  0  0  0  0  0  0  0
   -9.1190   -2.1565   -0.0119 H   0  0  0  0  0  0  0  0  0  0  0  0
   -9.0461   -1.8535   -1.7629 H   0  0  0  0  0  0  0  0  0  0  0  0
  1 21  1  0  0  0  0
  2  3  2  0  0  0  0
  2  4  2  0  0  0  0
  2 11  1  0  0  0  0
  2 14  1  0  0  0  0
  5 22  2  0  0  0  0
  6 30  1  0  0  0  0
  6 31  1  0  0  0  0
  7 30  2  0  0  0  0
  8 14  1  0  0  0  0
  8 19  2  0  0  0  0
  9 14  2  0  0  0  0
  9 24  1  0  0  0  0
 10 22  1  0  0  0  0
 10 23  1  0  0  0  0
 10 42  1  0  0  0  0
 11 12  1  0  0  0  0
 11 32  1  0  0  0  0
 11 33  1  0  0  0  0
 12 13  1  0  0  0  0
 12 15  2  0  0  0  0
 13 16  2  0  0  0  0
 13 34  1  0  0  0  0
 15 17  1  0  0  0  0
 15 35  1  0  0  0  0
 16 18  1  0  0  0  0
 16 20  1  0  0  0  0
 17 18  2  0  0  0  0
 17 36  1  0  0  0  0
 18 37  1  0  0  0  0
 19 21  1  0  0  0  0
 19 22  1  0  0  0  0
 20 38  1  0  0  0  0
 20 39  1  0  0  0  0
 20 40  1  0  0  0  0
 21 24  2  0  0  0  0
 23 25  2  0  0  0  0
 23 26  1  0  0  0  0
 24 41  1  0  0  0  0
 25 28  1  0  0  0  0
 25 43  1  0  0  0  0
 26 29  2  0  0  0  0
 26 44  1  0  0  0  0
 27 28  2  0  0  0  0
 27 29  1  0  0  0  0
 27 30  1  0  0  0  0
 28 45  1  0  0  0  0
 29 46  1  0  0  0  0
 31 47  1  0  0  0  0
 31 48  1  0  0  0  0
 31 49  1  0  0  0  0
M  END
> <PUBCHEM_COMPOUND_CID>
16452489

> <PUBCHEM_CONFORMER_RMSD>
1

> <PUBCHEM_CONFORMER_DIVERSEORDER>
1
91
46
77
118
83
54
18
31
123
49
48
32
67
52
26
85
79
78
94
98
42
69
131
44
134
38
138
113
43
129
58
72
87
22
112
45
119
70
105
140
126
30
63
57
39
56
23
122
136
61
111
74
27
60
103
36
2
50
37
29
35
41
68
96
135
132
133
86
17
5
121
55
100
97
104
59
109
3
124
34
92
110
128
115
40
82
25
73
120
139
81
93
15
75
116
88
101
53
51
90
76
28
114
16
71
108
117
7
107
130
127
6
99
84
137
24
8
125
33
13
65
11
9
89
64
106
80
66
12
21
102
62
14
47
10
20
4
95
19

> <PUBCHEM_MMFF94_PARTIAL_CHARGES>
41
1 -0.18
10 -0.55
11 0.25
12 -0.14
13 -0.15
14 0.61
15 -0.15
16 -0.14
17 -0.15
18 -0.15
19 0.4
2 1.2
20 0.14
21 0.18
22 0.54
23 0.12
24 0.16
25 -0.15
26 -0.15
27 0.09
28 -0.15
29 -0.15
3 -0.65
30 0.63
31 0.28
34 0.15
35 0.15
36 0.15
37 0.15
4 -0.65
41 0.15
42 0.37
43 0.15
44 0.15
45 0.15
46 0.15
5 -0.57
6 -0.43
7 -0.57
8 -0.62
9 -0.62

> <PUBCHEM_EFFECTIVE_ROTOR_COUNT>
8

> <PUBCHEM_PHARMACOPHORE_FEATURES>
10
1 10 donor
1 3 acceptor
1 4 acceptor
1 5 acceptor
1 7 acceptor
1 8 acceptor
3 8 9 14 cation
6 12 13 15 16 17 18 rings
6 23 25 26 27 28 29 rings
6 8 9 14 19 21 24 rings

> <PUBCHEM_HEAVY_ATOM_COUNT>
31

> <PUBCHEM_ATOM_DEF_STEREO_COUNT>
0

> <PUBCHEM_ATOM_UDEF_STEREO_COUNT>
0

> <PUBCHEM_BOND_DEF_STEREO_COUNT>
0

> <PUBCHEM_BOND_UDEF_STEREO_COUNT>
0

> <PUBCHEM_ISOTOPIC_ATOM_COUNT>
0

> <PUBCHEM_COMPONENT_COUNT>
1

> <PUBCHEM_CACTVS_TAUTO_COUNT>
3

> <PUBCHEM_CONFORMER_ID>
00FB0B8900000001

> <PUBCHEM_MMFF94_ENERGY>
87.7998

> <PUBCHEM_FEATURE_SELFOVERLAP>
50.766

> <PUBCHEM_SHAPE_FINGERPRINT>
10319688 140 18337112388196568068
10411042 1 18410290276950086680
10951579 204 17168686576243392189
10981352 41 18273491273674457670
11135609 149 18196067015342819741
11409948 41 18126549340942672359
117089 54 18340211786715709694
11828532 37 17968666028833834411
12107183 9 18270134430990301009
12147406 95 18412554197483170446
12342043 65 17773313431900726694
12422481 6 17488740065249441382
13383661 66 17773042947635011662
13533116 47 18268430303751613849
13782708 43 18186800323012243551
13785724 45 18340778073990120797
13911852 28 18410855477814647581
13989917 61 18266462198885834187
14040221 304 17823429365215057820
14068700 675 18114744824348384166
14251740 57 18342177739739713146
14866123 147 18194403278093252673
14910700 183 17982438597788923400
15510800 12 18335409162774594726
15803439 3 16523045861837383524
17138139 8 17677615264002134610
17492 89 18338234856703888532
19301679 30 18341610391069744237
19304671 126 12396301422357087914
20691028 202 9151162164810079114
20775438 99 17975121347288791459
20775530 9 18041571221829542232
21130935 74 18194123139552633795
21133410 58 18337380669371862159
21279426 13 18187635878671301205
21682296 61 18408324406791049411
23569914 152 17978192060822896863
23569943 247 18334853901757340931
255183 451 18413395319488538262
2748736 6 9655285999829941635
32027 91 18336546131640574659
345986 75 17846225478915849009
404807 14 18339368457502962947
4073 2 17837767825975996778
4756326 101 15069484790464822974
5309563 4 18339362967822731711
56633871 153 18201714055164741127
57676310 184 17124538800255244342
57816373 69 18059855077749645703
613672 6 18195506148210601110
7970288 3 18410854317862708994
9555976 147 17274838904755969355
9831232 110 18045221789813038303

> <PUBCHEM_SHAPE_MULTIPOLES>
599.4
19.33
6.52
1.32
21.93
5.43
0.15
-31.88
1.43
-4.05
0.56
-1.04
-1.09
1.32

> <PUBCHEM_SHAPE_SELFOVERLAP>
1273.399

> <PUBCHEM_SHAPE_VOLUME>
336.3

> <PUBCHEM_COORDINATE_TYPE>
2
5
10

$$$$
