16745538
  -OEChem-01171809543D

 38 41  0     1  0  0  0  0  0999 V2000
   -3.5107   -0.6290   -1.0455 O   0  0  0  0  0  0  0  0  0  0  0  0
   -0.5114    1.2533    2.0693 O   0  0  0  0  0  0  0  0  0  0  0  0
    2.9990   -1.0774    0.5795 O   0  0  0  0  0  0  0  0  0  0  0  0
   -2.6320    2.4962    0.0700 O   0  0  0  0  0  0  0  0  0  0  0  0
    4.6360    0.0326   -0.6054 O   0  0  0  0  0  0  0  0  0  0  0  0
   -1.3787   -0.8745    0.2751 C   0  0  1  0  0  0  0  0  0  0  0  0
   -1.0653    0.5946   -0.1858 C   0  0  2  0  0  0  0  0  0  0  0  0
   -2.8738   -1.0579    0.1562 C   0  0  1  0  0  0  0  0  0  0  0  0
   -3.5025    0.2921    0.0553 C   0  0  1  0  0  0  0  0  0  0  0  0
   -0.5700   -1.9856   -0.4046 C   0  0  1  0  0  0  0  0  0  0  0  0
   -0.0009    1.2465    0.7213 C   0  0  2  0  0  0  0  0  0  0  0  0
   -2.4243    1.2953    0.0061 C   0  0  0  0  0  0  0  0  0  0  0  0
    1.3973    0.5986    0.7787 C   0  0  1  0  0  0  0  0  0  0  0  0
    0.9457   -1.7205   -0.4410 C   0  0  0  0  0  0  0  0  0  0  0  0
    1.5572   -0.9259    0.7258 C   0  0  1  0  0  0  0  0  0  0  0  0
   -0.7500    0.7822   -1.6801 C   0  0  0  0  0  0  0  0  0  0  0  0
   -0.8280   -3.3377    0.2838 C   0  0  0  0  0  0  0  0  0  0  0  0
    2.4527    1.0006   -0.1994 C   0  0  0  0  0  0  0  0  0  0  0  0
    3.5132   -0.0330   -0.1404 C   0  0  0  0  0  0  0  0  0  0  0  0
    2.5466    2.0498   -1.0189 C   0  0  0  0  0  0  0  0  0  0  0  0
   -1.1859   -0.9485    1.3545 H   0  0  0  0  0  0  0  0  0  0  0  0
   -3.3287   -1.8155    0.7738 H   0  0  0  0  0  0  0  0  0  0  0  0
   -4.4177    0.4942    0.5916 H   0  0  0  0  0  0  0  0  0  0  0  0
   -0.9137   -2.0996   -1.4414 H   0  0  0  0  0  0  0  0  0  0  0  0
    0.1064    2.3056    0.4575 H   0  0  0  0  0  0  0  0  0  0  0  0
    1.8176    0.9020    1.7530 H   0  0  0  0  0  0  0  0  0  0  0  0
    1.4728   -2.6837   -0.5072 H   0  0  0  0  0  0  0  0  0  0  0  0
    1.2127   -1.2472   -1.3914 H   0  0  0  0  0  0  0  0  0  0  0  0
    1.2778   -1.3787    1.6837 H   0  0  0  0  0  0  0  0  0  0  0  0
    0.2421    0.4379   -1.9640 H   0  0  0  0  0  0  0  0  0  0  0  0
   -1.4704    0.2616   -2.3196 H   0  0  0  0  0  0  0  0  0  0  0  0
   -0.7982    1.8436   -1.9543 H   0  0  0  0  0  0  0  0  0  0  0  0
   -0.5210   -3.3140    1.3349 H   0  0  0  0  0  0  0  0  0  0  0  0
   -1.8864   -3.6127    0.2429 H   0  0  0  0  0  0  0  0  0  0  0  0
   -0.2716   -4.1403   -0.2128 H   0  0  0  0  0  0  0  0  0  0  0  0
   -1.2388    1.8967    2.1104 H   0  0  0  0  0  0  0  0  0  0  0  0
    1.7717    2.8065   -1.0588 H   0  0  0  0  0  0  0  0  0  0  0  0
    3.4002    2.1846   -1.6748 H   0  0  0  0  0  0  0  0  0  0  0  0
  1  8  1  0  0  0  0
  1  9  1  0  0  0  0
  2 11  1  0  0  0  0
  2 36  1  0  0  0  0
  3 15  1  0  0  0  0
  3 19  1  0  0  0  0
  4 12  2  0  0  0  0
  5 19  2  0  0  0  0
  6  7  1  0  0  0  0
  6  8  1  0  0  0  0
  6 10  1  0  0  0  0
  6 21  1  0  0  0  0
  7 11  1  0  0  0  0
  7 12  1  0  0  0  0
  7 16  1  0  0  0  0
  8  9  1  0  0  0  0
  8 22  1  0  0  0  0
  9 12  1  0  0  0  0
  9 23  1  0  0  0  0
 10 14  1  0  0  0  0
 10 17  1  0  0  0  0
 10 24  1  0  0  0  0
 11 13  1  0  0  0  0
 11 25  1  0  0  0  0
 13 15  1  0  0  0  0
 13 18  1  0  0  0  0
 13 26  1  0  0  0  0
 14 15  1  0  0  0  0
 14 27  1  0  0  0  0
 14 28  1  0  0  0  0
 15 29  1  0  0  0  0
 16 30  1  0  0  0  0
 16 31  1  0  0  0  0
 16 32  1  0  0  0  0
 17 33  1  0  0  0  0
 17 34  1  0  0  0  0
 17 35  1  0  0  0  0
 18 19  1  0  0  0  0
 18 20  2  0  0  0  0
 20 37  1  0  0  0  0
 20 38  1  0  0  0  0
M  END
> <PUBCHEM_COMPOUND_CID>
16745538

> <PUBCHEM_CONFORMER_RMSD>
0.6

> <PUBCHEM_CONFORMER_DIVERSEORDER>
1
2
3

> <PUBCHEM_MMFF94_PARTIAL_CHARGES>
21
1 -0.3
11 0.28
12 0.51
13 0.14
15 0.28
18 -0.12
19 0.71
2 -0.68
20 -0.3
22 0.1
23 0.1
3 -0.43
36 0.4
37 0.15
38 0.15
4 -0.57
5 -0.57
6 0.09
7 0.06
8 -0.05
9 0.05

> <PUBCHEM_EFFECTIVE_ROTOR_COUNT>
1

> <PUBCHEM_PHARMACOPHORE_FEATURES>
8
1 1 acceptor
1 2 acceptor
1 2 donor
1 4 acceptor
1 5 acceptor
5 3 13 15 18 19 rings
6 1 6 7 8 9 12 rings
7 6 7 10 11 13 14 15 rings

> <PUBCHEM_HEAVY_ATOM_COUNT>
20

> <PUBCHEM_ATOM_DEF_STEREO_COUNT>
6

> <PUBCHEM_ATOM_UDEF_STEREO_COUNT>
2

> <PUBCHEM_BOND_DEF_STEREO_COUNT>
0

> <PUBCHEM_BOND_UDEF_STEREO_COUNT>
0

> <PUBCHEM_ISOTOPIC_ATOM_COUNT>
0

> <PUBCHEM_COMPONENT_COUNT>
1

> <PUBCHEM_CACTVS_TAUTO_COUNT>
2

> <PUBCHEM_CONFORMER_ID>
00FF844200000001

> <PUBCHEM_MMFF94_ENERGY>
73.9488

> <PUBCHEM_FEATURE_SELFOVERLAP>
40.661

> <PUBCHEM_SHAPE_FINGERPRINT>
10062212 137 18270387279249990067
10863032 1 18336261241241177842
10948715 1 18334580118011365584
10967382 1 18410572872765717875
11132069 177 18343012337119994650
12011746 2 18410570704123744903
12173636 292 18410851057897953693
12403814 3 17894621556879672052
12491281 212 18114188518461586057
12592029 89 18262525779643116043
13027679 85 17907583871622179283
13140716 1 18122620819116461418
13221675 6 18408884070424374754
13538477 17 18189043356227939442
14115302 16 18340490062120554412
15309172 13 18408606941906926147
15775835 57 18186806855166500558
16752209 62 18342448232041643955
16945 1 18338231695016894251
17357779 13 17762884859978880919
1813 80 13685762540623376192
18186145 218 18342454824737692272
20510252 161 18272653449955409929
20645476 183 18334858324708095410
21501502 16 18265325110730785083
2334 1 18340765931869629251
23402539 116 18131064914347292036
23419403 2 15896926774797926859
23463225 33 18336542737787690042
23493267 7 18040714783670038331
23559900 14 18130788976174282616
238 59 17902470906087266429
2748010 2 18051124796384492590
296302 2 13262394470785740134
81228 2 17836347621207699731
90525 40 18410573959429146269
9709674 26 18271531978603201470
9981440 41 17251463579587037360

> <PUBCHEM_SHAPE_MULTIPOLES>
382.24
5.81
2.6
1.16
2.63
1.19
-0.09
-0.89
0.95
-0.82
0.01
-0.03
-0.38
-0.39

> <PUBCHEM_SHAPE_SELFOVERLAP>
834.385

> <PUBCHEM_SHAPE_VOLUME>
205.8

> <PUBCHEM_COORDINATE_TYPE>
2
5
10

$$$$
