698314
  -OEChem-01171809203D

 38 40  0     0  0  0  0  0  0999 V2000
    1.8744   -0.3061   -0.7545 O   0  0  0  0  0  0  0  0  0  0  0  0
    4.8889    0.1755    1.1592 O   0  0  0  0  0  0  0  0  0  0  0  0
    2.1793   -0.2389    1.5462 O   0  0  0  0  0  0  0  0  0  0  0  0
   -3.5464   -1.1615    0.0999 N   0  0  0  0  0  0  0  0  0  0  0  0
   -4.5452   -0.1053    0.2152 C   0  0  0  0  0  0  0  0  0  0  0  0
   -3.9403    1.2728    0.0790 C   0  0  0  0  0  0  0  0  0  0  0  0
   -2.1991   -0.9171   -0.1136 C   0  0  0  0  0  0  0  0  0  0  0  0
   -2.6373    1.5320   -0.1270 C   0  0  0  0  0  0  0  0  0  0  0  0
   -1.6973    0.3945   -0.2329 C   0  0  0  0  0  0  0  0  0  0  0  0
   -5.2143   -0.2339    1.5903 C   0  0  0  0  0  0  0  0  0  0  0  0
   -5.5870   -0.3156   -0.8920 C   0  0  0  0  0  0  0  0  0  0  0  0
   -0.3209    0.5809   -0.4489 C   0  0  0  0  0  0  0  0  0  0  0  0
   -1.3122   -2.0027   -0.2132 C   0  0  0  0  0  0  0  0  0  0  0  0
   -2.1363    2.9417   -0.2481 C   0  0  0  0  0  0  0  0  0  0  0  0
    0.5450   -0.5095   -0.5452 C   0  0  0  0  0  0  0  0  0  0  0  0
    0.0497   -1.8016   -0.4275 C   0  0  0  0  0  0  0  0  0  0  0  0
    2.6519   -0.1753    0.4153 C   0  0  0  0  0  0  0  0  0  0  0  0
    4.0675    0.0405    0.1092 C   0  0  0  0  0  0  0  0  0  0  0  0
    4.6982    0.1280   -1.0796 C   0  0  0  0  0  0  0  0  0  0  0  0
    6.0588    0.3403   -0.7529 C   0  0  0  0  0  0  0  0  0  0  0  0
    6.1228    0.3612    0.6209 C   0  0  0  0  0  0  0  0  0  0  0  0
   -3.8531   -2.1251    0.1780 H   0  0  0  0  0  0  0  0  0  0  0  0
   -4.6344    2.1084    0.1574 H   0  0  0  0  0  0  0  0  0  0  0  0
   -6.0016    0.5166    1.7271 H   0  0  0  0  0  0  0  0  0  0  0  0
   -4.4862   -0.1071    2.4009 H   0  0  0  0  0  0  0  0  0  0  0  0
   -5.6705   -1.2228    1.7182 H   0  0  0  0  0  0  0  0  0  0  0  0
   -6.3870    0.4321   -0.8398 H   0  0  0  0  0  0  0  0  0  0  0  0
   -6.0512   -1.3062   -0.8166 H   0  0  0  0  0  0  0  0  0  0  0  0
   -5.1301   -0.2481   -1.8869 H   0  0  0  0  0  0  0  0  0  0  0  0
    0.1000    1.5788   -0.5465 H   0  0  0  0  0  0  0  0  0  0  0  0
   -1.6836   -3.0215   -0.1232 H   0  0  0  0  0  0  0  0  0  0  0  0
   -1.4040    3.1630    0.5356 H   0  0  0  0  0  0  0  0  0  0  0  0
   -2.9454    3.6739   -0.1481 H   0  0  0  0  0  0  0  0  0  0  0  0
   -1.6724    3.1070   -1.2263 H   0  0  0  0  0  0  0  0  0  0  0  0
    0.7153   -2.6571   -0.5015 H   0  0  0  0  0  0  0  0  0  0  0  0
    4.2683    0.0538   -2.0681 H   0  0  0  0  0  0  0  0  0  0  0  0
    6.8889    0.4627   -1.4335 H   0  0  0  0  0  0  0  0  0  0  0  0
    6.9274    0.4908    1.3300 H   0  0  0  0  0  0  0  0  0  0  0  0
  1 15  1  0  0  0  0
  1 17  1  0  0  0  0
  2 18  1  0  0  0  0
  2 21  1  0  0  0  0
  3 17  2  0  0  0  0
  4  5  1  0  0  0  0
  4  7  1  0  0  0  0
  4 22  1  0  0  0  0
  5  6  1  0  0  0  0
  5 10  1  0  0  0  0
  5 11  1  0  0  0  0
  6  8  2  0  0  0  0
  6 23  1  0  0  0  0
  7  9  2  0  0  0  0
  7 13  1  0  0  0  0
  8  9  1  0  0  0  0
  8 14  1  0  0  0  0
  9 12  1  0  0  0  0
 10 24  1  0  0  0  0
 10 25  1  0  0  0  0
 10 26  1  0  0  0  0
 11 27  1  0  0  0  0
 11 28  1  0  0  0  0
 11 29  1  0  0  0  0
 12 15  2  0  0  0  0
 12 30  1  0  0  0  0
 13 16  2  0  0  0  0
 13 31  1  0  0  0  0
 14 32  1  0  0  0  0
 14 33  1  0  0  0  0
 14 34  1  0  0  0  0
 15 16  1  0  0  0  0
 16 35  1  0  0  0  0
 17 18  1  0  0  0  0
 18 19  2  0  0  0  0
 19 20  1  0  0  0  0
 19 36  1  0  0  0  0
 20 21  2  0  0  0  0
 20 37  1  0  0  0  0
 21 38  1  0  0  0  0
M  END
> <PUBCHEM_COMPOUND_CID>
698314

> <PUBCHEM_CONFORMER_RMSD>
0.6

> <PUBCHEM_CONFORMER_DIVERSEORDER>
1
30
71
53
66
72
35
16
29
24
63
6
54
58
9
49
59
22
75
34
43
2
41
55
69
42
65
25
70
14
44
64
23
32
57
8
10
60
5
36
13
56
50
33
37
76
45
21
19
38
26
46
31
7
40
20
74
39
73
15
68
77
47
67
48
78
61
62
11
12
28
3
52
51
4
27
18
17

> <PUBCHEM_MMFF94_PARTIAL_CHARGES>
27
1 -0.23
12 -0.15
13 -0.15
14 0.14
15 0.08
16 -0.15
17 0.81
18 0.05
19 -0.15
2 -0.28
20 -0.15
21 -0.01
22 0.4
23 0.15
3 -0.57
30 0.15
31 0.15
35 0.15
36 0.15
37 0.15
38 0.15
4 -0.87
5 0.51
6 -0.29
7 0.1
8 -0.17
9 0.03

> <PUBCHEM_EFFECTIVE_ROTOR_COUNT>
3.4

> <PUBCHEM_PHARMACOPHORE_FEATURES>
8
1 2 acceptor
1 3 acceptor
1 4 cation
1 4 donor
3 5 10 11 hydrophobe
5 2 18 19 20 21 rings
6 4 5 6 7 8 9 rings
6 7 9 12 13 15 16 rings

> <PUBCHEM_HEAVY_ATOM_COUNT>
21

> <PUBCHEM_ATOM_DEF_STEREO_COUNT>
0

> <PUBCHEM_ATOM_UDEF_STEREO_COUNT>
0

> <PUBCHEM_BOND_DEF_STEREO_COUNT>
0

> <PUBCHEM_BOND_UDEF_STEREO_COUNT>
0

> <PUBCHEM_ISOTOPIC_ATOM_COUNT>
0

> <PUBCHEM_COMPONENT_COUNT>
1

> <PUBCHEM_CACTVS_TAUTO_COUNT>
1

> <PUBCHEM_CONFORMER_ID>
000AA7CA00000001

> <PUBCHEM_MMFF94_ENERGY>
60.8803

> <PUBCHEM_FEATURE_SELFOVERLAP>
40.624

> <PUBCHEM_SHAPE_FINGERPRINT>
10 15 18338227263481356056
10366900 7 18342730823942148915
10411042 1 17978791534830835207
10670039 82 18262530191292109988
11315181 36 17675928706942203916
11595378 159 18041268886112239784
12011746 2 18341325648029018885
12107183 9 17394717390111079368
12166972 35 13326848963487905762
12236239 1 17603866710937045182
12390115 104 18129673980393293809
12403259 415 18200039429982427484
12596602 18 17167865278868226784
12916748 109 18410297999739082788
13140716 1 18265904746964447883
13533116 47 17531518811628077554
13540713 4 18048611326489807751
13583140 156 17095520708475033989
14341114 176 18187087239227000698
14573314 32 18202287974706761678
15042514 8 18265901430997182807
15880784 105 15213306343403412216
17980427 23 17895202065166289461
1813 80 16371012858722945110
19489759 90 18410855460128161805
19784866 170 18411986845156881159
200 152 15140960668792187319
20510252 161 18342459184287643001
20645477 56 18272931630961203646
20645477 70 14418400076203428960
21033648 29 17703494524444737936
21065198 48 17895187745507589856
21267235 1 18410299150911747847
21792961 116 17918004858980077132
22224240 67 18272094903156077627
2297311 6 18342747311936638548
23175994 123 16988566827021307768
23198884 109 16128658548319197551
23402539 116 18412256268465863791
23557571 272 18272099266489429084
23559900 14 18271238438583288728
26918003 58 14490193803918487324
2916195 48 17917423229275232976
3004659 81 18340491067939798750
34797466 226 18201731682174572156
3545911 37 18272654537225681342
3633792 109 17096349671549670335
474 4 17096379504508599076
474229 33 18411138039281005719
5104073 3 18265340495298391283
542803 24 17967252001050213262
54446538 1 18260547823287799964
5486654 2 18411135840463374559
57003041 33 18410287000428051863
59755656 215 18343026558448016558
59755656 520 15482669083064262797
9996256 80 18131630075671281518

> <PUBCHEM_SHAPE_MULTIPOLES>
409.58
14.07
1.76
1.08
12.67
0.7
0.27
1.67
1.37
-1.96
-0.24
0.17
-0.05
0.1

> <PUBCHEM_SHAPE_SELFOVERLAP>
893.686

> <PUBCHEM_SHAPE_VOLUME>
223.2

> <PUBCHEM_COORDINATE_TYPE>
2
5
10

$$$$
