934269
  -OEChem-01171809233D

 36 38  0     0  0  0  0  0  0999 V2000
    3.2216   -1.5640    0.0455 O   0  0  0  0  0  0  0  0  0  0  0  0
   -5.0831   -0.3440   -0.6633 O   0  0  0  0  0  0  0  0  0  0  0  0
   -4.6423    1.6010    0.4862 O   0  0  0  0  0  0  0  0  0  0  0  0
    0.9343   -1.4145    0.1928 N   0  0  0  0  0  0  0  0  0  0  0  0
    2.3500    0.5277    0.0867 N   0  0  0  0  0  0  0  0  0  0  0  0
   -0.5187    0.4269    0.1284 N   0  0  0  0  0  0  0  0  0  0  0  0
   -1.3747   -1.8257    0.1161 N   0  0  0  0  0  0  0  0  0  0  0  0
    4.2560   -0.6755   -0.0272 C   0  0  0  0  0  0  0  0  0  0  0  0
    3.7190    0.6030   -0.0018 C   0  0  0  0  0  0  0  0  0  0  0  0
    2.1189   -0.7664    0.1113 C   0  0  0  0  0  0  0  0  0  0  0  0
   -1.7918    0.8714    0.0808 C   0  0  0  0  0  0  0  0  0  0  0  0
   -2.8933    0.0408    0.0491 C   0  0  0  0  0  0  0  0  0  0  0  0
   -0.3955   -0.9090    0.1431 C   0  0  0  0  0  0  0  0  0  0  0  0
    5.6127   -0.9629   -0.1125 C   0  0  0  0  0  0  0  0  0  0  0  0
    4.5857    1.7036   -0.0658 C   0  0  0  0  0  0  0  0  0  0  0  0
   -2.6214   -1.3121    0.0689 C   0  0  0  0  0  0  0  0  0  0  0  0
   -1.9616    2.3551    0.0632 C   0  0  0  0  0  0  0  0  0  0  0  0
    6.4637    0.1458   -0.1754 C   0  0  0  0  0  0  0  0  0  0  0  0
    5.9628    1.4533   -0.1527 C   0  0  0  0  0  0  0  0  0  0  0  0
   -4.2607    0.5286   -0.0031 C   0  0  0  0  0  0  0  0  0  0  0  0
   -6.4606    0.0271   -0.7821 C   0  0  0  0  0  0  0  0  0  0  0  0
   -7.2208   -0.5101    0.4117 C   0  0  0  0  0  0  0  0  0  0  0  0
    0.9449   -2.4310    0.2180 H   0  0  0  0  0  0  0  0  0  0  0  0
    5.9897   -1.9778   -0.1295 H   0  0  0  0  0  0  0  0  0  0  0  0
    4.2086    2.7208   -0.0490 H   0  0  0  0  0  0  0  0  0  0  0  0
   -3.4063   -2.0619    0.0586 H   0  0  0  0  0  0  0  0  0  0  0  0
   -0.9892    2.8503   -0.0385 H   0  0  0  0  0  0  0  0  0  0  0  0
   -2.5720    2.6748   -0.7874 H   0  0  0  0  0  0  0  0  0  0  0  0
   -2.4064    2.7071    0.9990 H   0  0  0  0  0  0  0  0  0  0  0  0
    7.5375   -0.0116   -0.2435 H   0  0  0  0  0  0  0  0  0  0  0  0
    6.6541    2.2910   -0.2035 H   0  0  0  0  0  0  0  0  0  0  0  0
   -6.5810    1.1114   -0.8830 H   0  0  0  0  0  0  0  0  0  0  0  0
   -6.8412   -0.4289   -1.7018 H   0  0  0  0  0  0  0  0  0  0  0  0
   -8.2883   -0.2895    0.3237 H   0  0  0  0  0  0  0  0  0  0  0  0
   -7.0906   -1.5941    0.4969 H   0  0  0  0  0  0  0  0  0  0  0  0
   -6.8491   -0.0710    1.3432 H   0  0  0  0  0  0  0  0  0  0  0  0
  1  8  1  0  0  0  0
  1 10  1  0  0  0  0
  2 20  1  0  0  0  0
  2 21  1  0  0  0  0
  3 20  2  0  0  0  0
  4 10  1  0  0  0  0
  4 13  1  0  0  0  0
  4 23  1  0  0  0  0
  5  9  1  0  0  0  0
  5 10  2  0  0  0  0
  6 11  2  0  0  0  0
  6 13  1  0  0  0  0
  7 13  2  0  0  0  0
  7 16  1  0  0  0  0
  8  9  1  0  0  0  0
  8 14  2  0  0  0  0
  9 15  2  0  0  0  0
 11 12  1  0  0  0  0
 11 17  1  0  0  0  0
 12 16  2  0  0  0  0
 12 20  1  0  0  0  0
 14 18  1  0  0  0  0
 14 24  1  0  0  0  0
 15 19  1  0  0  0  0
 15 25  1  0  0  0  0
 16 26  1  0  0  0  0
 17 27  1  0  0  0  0
 17 28  1  0  0  0  0
 17 29  1  0  0  0  0
 18 19  2  0  0  0  0
 18 30  1  0  0  0  0
 19 31  1  0  0  0  0
 21 22  1  0  0  0  0
 21 32  1  0  0  0  0
 21 33  1  0  0  0  0
 22 34  1  0  0  0  0
 22 35  1  0  0  0  0
 22 36  1  0  0  0  0
M  END
> <PUBCHEM_COMPOUND_CID>
934269

> <PUBCHEM_CONFORMER_RMSD>
0.8

> <PUBCHEM_CONFORMER_DIVERSEORDER>
2
38
26
19
43
12
44
32
24
48
8
27
35
45
13
37
10
36
46
30
42
47
3
25
20
11
41
22
21
40
33
18
6
17
29
15
23
7
1
31
39
28
14
34
9
16
4
5

> <PUBCHEM_MMFF94_PARTIAL_CHARGES>
27
1 -0.28
10 0.56
11 0.17
12 0.09
13 0.72
14 -0.15
15 -0.15
16 0.16
17 0.14
18 -0.15
19 -0.15
2 -0.43
20 0.63
21 0.28
23 0.4
24 0.15
25 0.15
26 0.15
3 -0.57
30 0.15
31 0.15
4 -0.58
5 -0.57
6 -0.62
7 -0.62
8 0.14
9 0.23

> <PUBCHEM_EFFECTIVE_ROTOR_COUNT>
5

> <PUBCHEM_PHARMACOPHORE_FEATURES>
7
1 3 acceptor
1 4 donor
1 6 acceptor
4 4 6 7 13 cation
5 1 5 8 9 10 rings
6 6 7 11 12 13 16 rings
6 8 9 14 15 18 19 rings

> <PUBCHEM_HEAVY_ATOM_COUNT>
22

> <PUBCHEM_ATOM_DEF_STEREO_COUNT>
0

> <PUBCHEM_ATOM_UDEF_STEREO_COUNT>
0

> <PUBCHEM_BOND_DEF_STEREO_COUNT>
0

> <PUBCHEM_BOND_UDEF_STEREO_COUNT>
0

> <PUBCHEM_ISOTOPIC_ATOM_COUNT>
0

> <PUBCHEM_COMPONENT_COUNT>
1

> <PUBCHEM_CACTVS_TAUTO_COUNT>
5

> <PUBCHEM_CONFORMER_ID>
000E417D00000002

> <PUBCHEM_MMFF94_ENERGY>
53.259

> <PUBCHEM_FEATURE_SELFOVERLAP>
35.638

> <PUBCHEM_SHAPE_FINGERPRINT>
10 15 18040713714819507664
10595046 47 18342457015028218177
10968037 39 18411135849280012991
11524674 6 14908178686094881157
12107183 9 17688305686514477922
12166972 35 18113901563196647284
12236239 1 18272088275140285669
12596602 18 16733267945308664864
12916748 109 18410295787709547530
13533116 47 17095794417860977322
14123256 10 18413387644440002237
14251764 18 18202004335156256313
14528608 73 18341891900458759046
14856354 85 16343704366133749021
15183329 4 18413110546114048546
15196674 1 18410294739785006586
18335252 98 18335988644606070147
19489759 90 15646771172440993669
200 152 17704069586010410274
20157964 124 18411419514589993126
20281389 69 18040994042485815396
21236236 1 18342459197684475177
21267235 1 18411706465006336950
21315763 28 18410573963961613674
21315764 268 18334570236009529740
221357 26 18272932713562318840
22224240 67 13984662581499402520
23035841 295 17489586775455621703
23198884 109 16845578612483367867
23352939 185 18060139847013563665
23402539 116 18342452651330987207
23402655 69 18342457058679641078
23559900 14 18269265923397551769
29717793 49 17775010081289101622
3004659 81 18409730643381226968
335352 9 18409733955233944862
34797466 226 17703798037288923716
3545911 37 18335421270519257470
4073 2 17968663830116079018
4214541 1 18410857651189360168
4325135 7 18272087197462229821
4340502 62 16660362571860279795
4463277 17 18411981352262838289
474 4 17749395896941876404
5104073 3 18335138717811795946
542803 24 17917712392084900808
54446538 1 18411699872558786600
59682541 35 18261964037509110251
59755656 215 18409735028485288326
59755656 520 17385718123424200259

> <PUBCHEM_SHAPE_MULTIPOLES>
415.22
17.86
1.82
0.66
4.71
0.44
0.03
1.9
1.47
-0.43
-0.1
0.34
0.02
-0.15

> <PUBCHEM_SHAPE_SELFOVERLAP>
906.462

> <PUBCHEM_SHAPE_VOLUME>
225.3

> <PUBCHEM_COORDINATE_TYPE>
2
5
10

$$$$
