1214472
  -OEChem-01171809393D

 45 46  0     0  0  0  0  0  0999 V2000
    1.0072   -1.4128   -0.4508 S   0  0  0  0  0  0  0  0  0  0  0  0
    0.9761   -1.8164   -1.8443 O   0  0  0  0  0  0  0  0  0  0  0  0
    0.7499   -2.3776    0.6021 O   0  0  0  0  0  0  0  0  0  0  0  0
    1.5712    2.0250    1.5246 O   0  5  0  0  0  0  0  0  0  0  0  0
    1.6966    2.5300   -0.6082 O   0  0  0  0  0  0  0  0  0  0  0  0
   -1.5229   -0.3283   -0.3438 N   0  0  0  0  0  0  0  0  0  0  0  0
   -1.2775    1.8163    0.1780 N   0  0  0  0  0  0  0  0  0  0  0  0
    1.1129    1.9460    0.3491 N   0  3  0  0  0  0  0  0  0  0  0  0
   -2.2041   -1.6295   -0.6914 C   0  0  0  0  0  0  0  0  0  0  0  0
   -3.2494   -2.0822    0.3469 C   0  0  0  0  0  0  0  0  0  0  0  0
   -0.1774   -0.1256   -0.2170 C   0  0  0  0  0  0  0  0  0  0  0  0
   -2.1423    0.8654   -0.0978 C   0  0  0  0  0  0  0  0  0  0  0  0
   -3.6108    1.0165   -0.1481 C   0  0  0  0  0  0  0  0  0  0  0  0
   -0.0508    1.2050    0.1053 C   0  0  0  0  0  0  0  0  0  0  0  0
   -2.6301   -2.2927    1.7309 C   0  0  0  0  0  0  0  0  0  0  0  0
   -3.9172   -3.3777   -0.1209 C   0  0  0  0  0  0  0  0  0  0  0  0
   -4.0581    2.4907   -0.1485 C   0  0  0  0  0  0  0  0  0  0  0  0
    2.6142   -0.7251   -0.1924 C   0  0  0  0  0  0  0  0  0  0  0  0
   -5.5687    2.6391   -0.2384 C   0  0  0  0  0  0  0  0  0  0  0  0
    3.1784   -0.7314    1.0833 C   0  0  0  0  0  0  0  0  0  0  0  0
    3.3185   -0.1756   -1.2638 C   0  0  0  0  0  0  0  0  0  0  0  0
    4.4467   -0.1880    1.2877 C   0  0  0  0  0  0  0  0  0  0  0  0
    4.5869    0.3676   -1.0592 C   0  0  0  0  0  0  0  0  0  0  0  0
    5.1509    0.3613    0.2165 C   0  0  0  0  0  0  0  0  0  0  0  0
   -1.4385   -2.3941   -0.8291 H   0  0  0  0  0  0  0  0  0  0  0  0
   -2.6694   -1.4438   -1.6670 H   0  0  0  0  0  0  0  0  0  0  0  0
   -4.0618   -1.3657    0.4424 H   0  0  0  0  0  0  0  0  0  0  0  0
   -4.0274    0.5177   -1.0300 H   0  0  0  0  0  0  0  0  0  0  0  0
   -4.0472    0.5768    0.7537 H   0  0  0  0  0  0  0  0  0  0  0  0
   -1.8304   -3.0400    1.6981 H   0  0  0  0  0  0  0  0  0  0  0  0
   -2.2132   -1.3625    2.1291 H   0  0  0  0  0  0  0  0  0  0  0  0
   -3.3854   -2.6429    2.4428 H   0  0  0  0  0  0  0  0  0  0  0  0
   -3.1868   -4.1879   -0.2211 H   0  0  0  0  0  0  0  0  0  0  0  0
   -4.6849   -3.7008    0.5904 H   0  0  0  0  0  0  0  0  0  0  0  0
   -4.4012   -3.2353   -1.0930 H   0  0  0  0  0  0  0  0  0  0  0  0
   -3.7045    2.9895    0.7625 H   0  0  0  0  0  0  0  0  0  0  0  0
   -3.5995    3.0158   -0.9957 H   0  0  0  0  0  0  0  0  0  0  0  0
   -5.9519    2.1878   -1.1590 H   0  0  0  0  0  0  0  0  0  0  0  0
   -6.0602    2.1559    0.6119 H   0  0  0  0  0  0  0  0  0  0  0  0
   -5.8472    3.6975   -0.2364 H   0  0  0  0  0  0  0  0  0  0  0  0
    2.6441   -1.1481    1.9324 H   0  0  0  0  0  0  0  0  0  0  0  0
    2.8959   -0.1513   -2.2642 H   0  0  0  0  0  0  0  0  0  0  0  0
    4.8849   -0.1907    2.2814 H   0  0  0  0  0  0  0  0  0  0  0  0
    5.1343    0.7981   -1.8926 H   0  0  0  0  0  0  0  0  0  0  0  0
    6.1379    0.7856    0.3759 H   0  0  0  0  0  0  0  0  0  0  0  0
  1  2  2  0  0  0  0
  1  3  2  0  0  0  0
  1 11  1  0  0  0  0
  1 18  1  0  0  0  0
  4  8  1  0  0  0  0
  5  8  2  0  0  0  0
  6  9  1  0  0  0  0
  6 11  1  0  0  0  0
  6 12  1  0  0  0  0
  7 12  2  0  0  0  0
  7 14  1  0  0  0  0
  8 14  1  0  0  0  0
  9 10  1  0  0  0  0
  9 25  1  0  0  0  0
  9 26  1  0  0  0  0
 10 15  1  0  0  0  0
 10 16  1  0  0  0  0
 10 27  1  0  0  0  0
 11 14  2  0  0  0  0
 12 13  1  0  0  0  0
 13 17  1  0  0  0  0
 13 28  1  0  0  0  0
 13 29  1  0  0  0  0
 15 30  1  0  0  0  0
 15 31  1  0  0  0  0
 15 32  1  0  0  0  0
 16 33  1  0  0  0  0
 16 34  1  0  0  0  0
 16 35  1  0  0  0  0
 17 19  1  0  0  0  0
 17 36  1  0  0  0  0
 17 37  1  0  0  0  0
 18 20  2  0  0  0  0
 18 21  1  0  0  0  0
 19 38  1  0  0  0  0
 19 39  1  0  0  0  0
 19 40  1  0  0  0  0
 20 22  1  0  0  0  0
 20 41  1  0  0  0  0
 21 23  2  0  0  0  0
 21 42  1  0  0  0  0
 22 24  2  0  0  0  0
 22 43  1  0  0  0  0
 23 24  1  0  0  0  0
 23 44  1  0  0  0  0
 24 45  1  0  0  0  0
M  CHG  2   4  -1   8   1
M  END
> <PUBCHEM_COMPOUND_CID>
1214472

> <PUBCHEM_CONFORMER_RMSD>
0.8

> <PUBCHEM_CONFORMER_DIVERSEORDER>
1
15
17
8
10
3
12
7
5
11
13
16
9
2
4
14
6

> <PUBCHEM_MMFF94_PARTIAL_CHARGES>
24
1 1.37
11 -0.21
12 0.01
13 0.18
14 0.31
18 -0.01
2 -0.65
20 -0.15
21 -0.15
22 -0.15
23 -0.15
24 -0.15
3 -0.65
4 -0.52
41 0.15
42 0.15
43 0.15
44 0.15
45 0.15
5 -0.52
6 0.05
7 -0.57
8 0.96
9 0.26

> <PUBCHEM_EFFECTIVE_ROTOR_COUNT>
7

> <PUBCHEM_PHARMACOPHORE_FEATURES>
10
1 19 hydrophobe
1 2 acceptor
1 3 acceptor
1 4 acceptor
1 4 anion
1 5 acceptor
3 10 15 16 hydrophobe
3 6 7 12 cation
5 6 7 11 12 14 rings
6 18 20 21 22 23 24 rings

> <PUBCHEM_HEAVY_ATOM_COUNT>
24

> <PUBCHEM_ATOM_DEF_STEREO_COUNT>
0

> <PUBCHEM_ATOM_UDEF_STEREO_COUNT>
0

> <PUBCHEM_BOND_DEF_STEREO_COUNT>
0

> <PUBCHEM_BOND_UDEF_STEREO_COUNT>
0

> <PUBCHEM_ISOTOPIC_ATOM_COUNT>
0

> <PUBCHEM_COMPONENT_COUNT>
1

> <PUBCHEM_CACTVS_TAUTO_COUNT>
2

> <PUBCHEM_CONFORMER_ID>
0012880800000001

> <PUBCHEM_MMFF94_ENERGY>
40.0504

> <PUBCHEM_FEATURE_SELFOVERLAP>
50.845

> <PUBCHEM_SHAPE_FINGERPRINT>
10062212 137 18333166184839351910
10498660 4 18343306942370787988
10906281 52 18271817761274094413
12236239 1 18113900468839160374
12403814 3 17531526486476282877
12633257 1 18187640271700080316
13140716 1 18412538846938257737
13544592 271 18272367533993213927
13726171 33 18267044888867539976
14787075 74 18044093673323775826
15196674 1 18411418449422279420
15375358 24 18201717301969638189
1601671 61 18342173319838674324
16945 1 18338520729030713164
17980427 23 17604158107172451502
20028762 73 17699291275997016006
20642791 178 18261118512519360524
20691752 17 17458615765973195464
21033648 29 17702929427265819690
23227448 37 18408888425516055669
23402539 116 18412539912812495846
23557571 272 18270976694728631622
23558518 356 18188492513982400377
23559900 14 18269562641735409630
2748010 2 18270107054124580309
34934 24 18339919312274239741
350125 39 18339084903545653393
4340502 62 16879082849570020465
5104073 3 18336537300871076384
59554788 170 18052824933634951967
59554788 191 18411420647865189268
59554788 248 17489032681249849175

> <PUBCHEM_SHAPE_MULTIPOLES>
459.34
9.92
3.42
1.24
0.61
0.55
-0.11
-2.84
-0.18
-5.4
-0.25
0.84
0.41
0.51

> <PUBCHEM_SHAPE_SELFOVERLAP>
942.299

> <PUBCHEM_SHAPE_VOLUME>
267.1

> <PUBCHEM_COORDINATE_TYPE>
2
5
10

$$$$
