1913126
  -OEChem-01171809303D

 42 42  0     0  0  0  0  0  0999 V2000
    7.4288   -0.8356   -0.5791 Br  0  0  0  0  0  0  0  0  0  0  0  0
   -4.4189   -0.3774   -0.2709 O   0  0  0  0  0  0  0  0  0  0  0  0
   -1.0094    1.6278    1.0173 O   0  0  0  0  0  0  0  0  0  0  0  0
   -3.5159    1.4142    0.8506 O   0  0  0  0  0  0  0  0  0  0  0  0
   -2.0307   -0.2822   -0.1076 C   0  0  0  0  0  0  0  0  0  0  0  0
   -1.9433   -1.6879    0.5636 C   0  0  0  0  0  0  0  0  0  0  0  0
   -1.9569   -0.4325   -1.6555 C   0  0  0  0  0  0  0  0  0  0  0  0
   -0.8411    0.5718    0.4079 C   0  0  0  0  0  0  0  0  0  0  0  0
   -3.3883    0.3587    0.2409 C   0  0  0  0  0  0  0  0  0  0  0  0
   -1.9408   -1.6873    2.0895 C   0  0  0  0  0  0  0  0  0  0  0  0
   -1.9694    0.8818   -2.4351 C   0  0  0  0  0  0  0  0  0  0  0  0
    0.5435    0.0876    0.1010 C   0  0  0  0  0  0  0  0  0  0  0  0
   -5.7294    0.1570   -0.0583 C   0  0  0  0  0  0  0  0  0  0  0  0
    1.6135    0.7857    0.5070 C   0  0  0  0  0  0  0  0  0  0  0  0
    3.0103    0.3962    0.2461 C   0  0  0  0  0  0  0  0  0  0  0  0
   -6.7482   -0.7723   -0.6826 C   0  0  0  0  0  0  0  0  0  0  0  0
    3.2989   -0.9201   -0.0757 C   0  0  0  0  0  0  0  0  0  0  0  0
    4.0083    1.3539    0.3277 C   0  0  0  0  0  0  0  0  0  0  0  0
    4.6213   -1.2887   -0.3226 C   0  0  0  0  0  0  0  0  0  0  0  0
    5.3307    0.9852    0.0805 C   0  0  0  0  0  0  0  0  0  0  0  0
    5.6372   -0.3360   -0.2445 C   0  0  0  0  0  0  0  0  0  0  0  0
   -1.0460   -2.2187    0.2232 H   0  0  0  0  0  0  0  0  0  0  0  0
   -2.7900   -2.3032    0.2316 H   0  0  0  0  0  0  0  0  0  0  0  0
   -2.7921   -1.0473   -2.0149 H   0  0  0  0  0  0  0  0  0  0  0  0
   -1.0526   -0.9827   -1.9415 H   0  0  0  0  0  0  0  0  0  0  0  0
   -1.9170   -2.7166    2.4623 H   0  0  0  0  0  0  0  0  0  0  0  0
   -1.0657   -1.1695    2.4925 H   0  0  0  0  0  0  0  0  0  0  0  0
   -2.8402   -1.2088    2.4887 H   0  0  0  0  0  0  0  0  0  0  0  0
   -1.9226    0.6772   -3.5098 H   0  0  0  0  0  0  0  0  0  0  0  0
   -1.1111    1.5097   -2.1790 H   0  0  0  0  0  0  0  0  0  0  0  0
   -2.8841    1.4510   -2.2443 H   0  0  0  0  0  0  0  0  0  0  0  0
    0.6262   -0.8262   -0.4713 H   0  0  0  0  0  0  0  0  0  0  0  0
   -5.9179    0.2439    1.0175 H   0  0  0  0  0  0  0  0  0  0  0  0
   -5.7991    1.1475   -0.5218 H   0  0  0  0  0  0  0  0  0  0  0  0
    1.4856    1.7135    1.0596 H   0  0  0  0  0  0  0  0  0  0  0  0
   -7.7637   -0.3932   -0.5386 H   0  0  0  0  0  0  0  0  0  0  0  0
   -6.5609   -0.8840   -1.7557 H   0  0  0  0  0  0  0  0  0  0  0  0
   -6.6781   -1.7724   -0.2422 H   0  0  0  0  0  0  0  0  0  0  0  0
    2.5457   -1.6999   -0.1253 H   0  0  0  0  0  0  0  0  0  0  0  0
    3.7852    2.3875    0.5784 H   0  0  0  0  0  0  0  0  0  0  0  0
    4.8445   -2.3235   -0.5699 H   0  0  0  0  0  0  0  0  0  0  0  0
    6.1105    1.7398    0.1452 H   0  0  0  0  0  0  0  0  0  0  0  0
  1 21  1  0  0  0  0
  2  9  1  0  0  0  0
  2 13  1  0  0  0  0
  3  8  2  0  0  0  0
  4  9  2  0  0  0  0
  5  6  1  0  0  0  0
  5  7  1  0  0  0  0
  5  8  1  0  0  0  0
  5  9  1  0  0  0  0
  6 10  1  0  0  0  0
  6 22  1  0  0  0  0
  6 23  1  0  0  0  0
  7 11  1  0  0  0  0
  7 24  1  0  0  0  0
  7 25  1  0  0  0  0
  8 12  1  0  0  0  0
 10 26  1  0  0  0  0
 10 27  1  0  0  0  0
 10 28  1  0  0  0  0
 11 29  1  0  0  0  0
 11 30  1  0  0  0  0
 11 31  1  0  0  0  0
 12 14  2  0  0  0  0
 12 32  1  0  0  0  0
 13 16  1  0  0  0  0
 13 33  1  0  0  0  0
 13 34  1  0  0  0  0
 14 15  1  0  0  0  0
 14 35  1  0  0  0  0
 15 17  2  0  0  0  0
 15 18  1  0  0  0  0
 16 36  1  0  0  0  0
 16 37  1  0  0  0  0
 16 38  1  0  0  0  0
 17 19  1  0  0  0  0
 17 39  1  0  0  0  0
 18 20  2  0  0  0  0
 18 40  1  0  0  0  0
 19 21  2  0  0  0  0
 19 41  1  0  0  0  0
 20 21  1  0  0  0  0
 20 42  1  0  0  0  0
M  END
> <PUBCHEM_COMPOUND_CID>
1913126

> <PUBCHEM_CONFORMER_RMSD>
0.8

> <PUBCHEM_CONFORMER_DIVERSEORDER>
1
91
99
119
103
104
64
132
43
111
113
127
128
76
40
15
51
101
22
98
75
78
72
24
81
87
47
59
133
90
20
70
5
107
97
115
65
39
121
56
9
93
73
50
52
69
48
34
116
88
67
105
124
89
57
94
17
29
108
85
13
136
79
60
68
135
131
123
77
129
114
122
66
2
38
11
83
55
112
102
31
74
46
54
27
16
53
8
120
95
14
19
30
49
82
92
100
44
117
23
86
36
61
6
134
37
84
71
41
7
18
33
42
10
4
126
109
21
25
63
32
110
12
35
118
3
96
45
26
62
130
28
106
58
80
125

> <PUBCHEM_MMFF94_PARTIAL_CHARGES>
22
1 -0.11
12 -0.14
13 0.28
14 -0.18
15 0.03
17 -0.15
18 -0.15
19 -0.15
2 -0.43
20 -0.15
21 0.11
3 -0.57
32 0.15
35 0.15
39 0.15
4 -0.57
40 0.15
41 0.15
42 0.15
5 0.12
8 0.49
9 0.66

> <PUBCHEM_EFFECTIVE_ROTOR_COUNT>
8

> <PUBCHEM_PHARMACOPHORE_FEATURES>
6
1 1 hydrophobe
1 10 hydrophobe
1 11 hydrophobe
1 3 acceptor
1 4 acceptor
6 15 17 18 19 20 21 rings

> <PUBCHEM_HEAVY_ATOM_COUNT>
21

> <PUBCHEM_ATOM_DEF_STEREO_COUNT>
0

> <PUBCHEM_ATOM_UDEF_STEREO_COUNT>
0

> <PUBCHEM_BOND_DEF_STEREO_COUNT>
1

> <PUBCHEM_BOND_UDEF_STEREO_COUNT>
0

> <PUBCHEM_ISOTOPIC_ATOM_COUNT>
0

> <PUBCHEM_COMPONENT_COUNT>
1

> <PUBCHEM_CACTVS_TAUTO_COUNT>
1

> <PUBCHEM_CONFORMER_ID>
001D312600000001

> <PUBCHEM_MMFF94_ENERGY>
46.9794

> <PUBCHEM_FEATURE_SELFOVERLAP>
30.464

> <PUBCHEM_SHAPE_FINGERPRINT>
10680689 15 17022624182733293816
11315181 36 18410863178675074848
12011746 2 17748821926207699799
12107183 9 17409380477136830650
12236239 1 17418094329777068568
12390115 104 17604421878489341677
12516196 113 17489585667195745536
12592029 89 17275109414233143583
13288520 33 17989488511009104449
13533116 47 18188484675656861026
13668630 136 17418098706749715742
14251764 18 17775568649716562760
14251764 46 18333731317158295030
14617045 38 18040719151852543442
15183329 4 18408885109642904506
15788980 27 17846781806693668316
18186145 218 18113894975291282168
200 152 17846779598716539992
20645477 56 17313381227588360926
20645477 70 18272653411970915934
21267235 1 18060143137053008932
2297311 6 17385726884977414780
23198884 109 18334297560739852280
23402539 116 18201999897980643041
23536379 177 18060701684791513595
23557571 272 17894631427231613212
23559900 14 18339357594897785672
26918003 58 18410858772202062042
3004659 81 18410573985863620848
3545911 37 18260268547186248882
4073 2 18188214307718538506
4214541 1 18272091565454857064
4921388 177 17458917036301050386
542803 24 14417851449733752584
59755656 215 18040998415074012458
59755656 520 18186515518924480803

> <PUBCHEM_SHAPE_MULTIPOLES>
420.5
16.46
1.52
1.4
10.06
0.47
0.3
1.98
4.15
-0.37
-0.25
-0.87
-0.27
1.02

> <PUBCHEM_SHAPE_SELFOVERLAP>
840.998

> <PUBCHEM_SHAPE_VOLUME>
253.4

> <PUBCHEM_COORDINATE_TYPE>
2
5
10

$$$$
