6883299
  -OEChem-01171809543D

 37 38  0     0  0  0  0  0  0999 V2000
    4.5046   -1.2101   -0.0047 S   0  0  0  0  0  0  0  0  0  0  0  0
   -1.2683    2.0746    0.0140 O   0  0  0  0  0  0  0  0  0  0  0  0
    8.0350    0.3573    0.0329 O   0  5  0  0  0  0  0  0  0  0  0  0
    7.3492   -1.7280    0.0277 O   0  0  0  0  0  0  0  0  0  0  0  0
   -4.1065   -1.3406   -0.0211 N   0  0  0  0  0  0  0  0  0  0  0  0
   -2.7793   -1.1291   -0.0339 N   0  0  0  0  0  0  0  0  0  0  0  0
   -0.2636   -0.0100   -0.0473 N   0  0  0  0  0  0  0  0  0  0  0  0
    0.9822    0.5209   -0.0365 N   0  0  0  0  0  0  0  0  0  0  0  0
    7.0979   -0.4899    0.0242 N   0  3  0  0  0  0  0  0  0  0  0  0
   -6.3184   -0.2122    0.0221 C   0  0  0  0  0  0  0  0  0  0  0  0
   -4.7708   -0.1944    0.0048 C   0  0  0  0  0  0  0  0  0  0  0  0
   -6.8650    0.5272   -1.2186 C   0  0  0  0  0  0  0  0  0  0  0  0
   -6.8365    0.4805    1.3012 C   0  0  0  0  0  0  0  0  0  0  0  0
   -6.9134   -1.6374    0.0026 C   0  0  0  0  0  0  0  0  0  0  0  0
   -3.9410    0.8372    0.0111 C   0  0  0  0  0  0  0  0  0  0  0  0
   -2.6843    0.2031   -0.0143 C   0  0  0  0  0  0  0  0  0  0  0  0
   -1.3918    0.8271   -0.0204 C   0  0  0  0  0  0  0  0  0  0  0  0
    3.3327    0.0210   -0.0182 C   0  0  0  0  0  0  0  0  0  0  0  0
    1.9303   -0.3602   -0.0308 C   0  0  0  0  0  0  0  0  0  0  0  0
    3.8586    1.2764   -0.0113 C   0  0  0  0  0  0  0  0  0  0  0  0
    5.7657   -0.0518    0.0110 C   0  0  0  0  0  0  0  0  0  0  0  0
    5.2827    1.2384    0.0056 C   0  0  0  0  0  0  0  0  0  0  0  0
   -7.9609    0.5240   -1.2344 H   0  0  0  0  0  0  0  0  0  0  0  0
   -6.5389    1.5735   -1.2369 H   0  0  0  0  0  0  0  0  0  0  0  0
   -6.5131    0.0578   -2.1448 H   0  0  0  0  0  0  0  0  0  0  0  0
   -6.5091    1.5255    1.3509 H   0  0  0  0  0  0  0  0  0  0  0  0
   -7.9317    0.4767    1.3415 H   0  0  0  0  0  0  0  0  0  0  0  0
   -6.4641   -0.0228    2.2012 H   0  0  0  0  0  0  0  0  0  0  0  0
   -8.0096   -1.6095    0.0149 H   0  0  0  0  0  0  0  0  0  0  0  0
   -6.6127   -2.1869   -0.8972 H   0  0  0  0  0  0  0  0  0  0  0  0
   -6.5935   -2.2193    0.8750 H   0  0  0  0  0  0  0  0  0  0  0  0
   -4.1638    1.8939    0.0302 H   0  0  0  0  0  0  0  0  0  0  0  0
   -4.4327   -2.2996   -0.0323 H   0  0  0  0  0  0  0  0  0  0  0  0
   -0.3523   -1.0218   -0.0643 H   0  0  0  0  0  0  0  0  0  0  0  0
    1.7022   -1.4433   -0.0342 H   0  0  0  0  0  0  0  0  0  0  0  0
    3.2764    2.1891   -0.0172 H   0  0  0  0  0  0  0  0  0  0  0  0
    5.9101    2.1212    0.0131 H   0  0  0  0  0  0  0  0  0  0  0  0
  1 18  1  0  0  0  0
  1 21  1  0  0  0  0
  2 17  2  0  0  0  0
  3  9  1  0  0  0  0
  4  9  2  0  0  0  0
  5  6  1  0  0  0  0
  5 11  1  0  0  0  0
  5 33  1  0  0  0  0
  6 16  2  0  0  0  0
  7  8  1  0  0  0  0
  7 17  1  0  0  0  0
  7 34  1  0  0  0  0
  8 19  2  0  0  0  0
  9 21  1  0  0  0  0
 10 11  1  0  0  0  0
 10 12  1  0  0  0  0
 10 13  1  0  0  0  0
 10 14  1  0  0  0  0
 11 15  2  0  0  0  0
 12 23  1  0  0  0  0
 12 24  1  0  0  0  0
 12 25  1  0  0  0  0
 13 26  1  0  0  0  0
 13 27  1  0  0  0  0
 13 28  1  0  0  0  0
 14 29  1  0  0  0  0
 14 30  1  0  0  0  0
 14 31  1  0  0  0  0
 15 16  1  0  0  0  0
 15 32  1  0  0  0  0
 16 17  1  0  0  0  0
 18 19  1  0  0  0  0
 18 20  2  0  0  0  0
 19 35  1  0  0  0  0
 20 22  1  0  0  0  0
 20 36  1  0  0  0  0
 21 22  2  0  0  0  0
 22 37  1  0  0  0  0
M  CHG  2   3  -1   9   1
M  END
> <PUBCHEM_COMPOUND_CID>
6883299

> <PUBCHEM_CONFORMER_RMSD>
0.8

> <PUBCHEM_CONFORMER_DIVERSEORDER>
1
14
9
8
6
15
5
4
12
7
13
3
2
10
11

> <PUBCHEM_MMFF94_PARTIAL_CHARGES>
25
1 -0.08
10 0.18
11 -0.33
15 -0.15
16 0.2
17 0.72
18 -0.05
19 0.47
2 -0.57
20 -0.15
21 0.12
22 -0.15
3 -0.52
32 0.15
33 0.27
34 0.37
35 0.06
36 0.15
37 0.15
4 -0.52
5 0.3
6 -0.71
7 -0.37
8 -0.51
9 0.96

> <PUBCHEM_EFFECTIVE_ROTOR_COUNT>
6

> <PUBCHEM_PHARMACOPHORE_FEATURES>
11
1 2 acceptor
1 3 acceptor
1 3 anion
1 4 acceptor
1 5 donor
1 6 acceptor
1 7 donor
1 8 acceptor
4 10 12 13 14 hydrophobe
5 1 18 20 21 22 rings
5 5 6 11 15 16 rings

> <PUBCHEM_HEAVY_ATOM_COUNT>
22

> <PUBCHEM_ATOM_DEF_STEREO_COUNT>
0

> <PUBCHEM_ATOM_UDEF_STEREO_COUNT>
0

> <PUBCHEM_BOND_DEF_STEREO_COUNT>
1

> <PUBCHEM_BOND_UDEF_STEREO_COUNT>
0

> <PUBCHEM_ISOTOPIC_ATOM_COUNT>
0

> <PUBCHEM_COMPONENT_COUNT>
1

> <PUBCHEM_CACTVS_TAUTO_COUNT>
5

> <PUBCHEM_CONFORMER_ID>
006907E300000001

> <PUBCHEM_MMFF94_ENERGY>
41.3261

> <PUBCHEM_FEATURE_SELFOVERLAP>
55.909

> <PUBCHEM_SHAPE_FINGERPRINT>
10 15 11815891263119928286
10299344 5 18342460347912407378
10968037 39 18408040719626223071
11315181 36 18343023302883521633
11524674 6 16773795917954101151
11719270 70 18273493451818904390
12091667 2 17603585232192829293
12166972 35 17967254208827674836
12236239 1 18186521020813886677
12516196 113 18272650173249011601
13073987 5 10375605792965274156
13288520 33 18409729574055819445
13533116 47 17095793335703045218
13685833 64 18409730655838880328
13885169 127 18411418375859397549
14123256 10 18259984873059656186
14178184 131 18128538370040986735
1420 363 18187087256095464584
14251764 18 18131351908045702554
14251764 46 17704072898073663207
14933364 13 18408323289271221388
15183329 4 18334290950874770251
15419008 47 17313095358808113604
15461852 350 11530772509043248289
15716309 27 18202562878161976070
17093844 174 18408322182171901121
18006028 8 18131630084593414753
21150785 3 13406797731155980168
21236236 1 18342458093951947385
21267235 1 18408327687291280760
21304253 13 18131915962138951385
21315763 28 18411981381958409205
22224240 67 16056875836535831534
23035841 295 18409730668454834923
23521765 1 18341895194640646148
23522609 53 18196683819438004233
23559900 14 18269267027626205073
28498 318 18409445864857293028
3004659 81 18114178648911583024
33532 11 18335419041779942722
33684 2 18334856117585138903
3545911 37 18334857216848814372
4073 2 18041283278695524010
4325135 7 18410575089369555084
5283156 175 18335422348598155778
59682541 35 18130785702770964762
59755656 215 18113336380155448882
59755656 520 17312818307637135275
8209 1 18410573989446424948
999808 66 17968669319390277595

> <PUBCHEM_SHAPE_MULTIPOLES>
414.09
24.79
1.47
0.75
11.5
0.09
-0.02
4.98
-0.37
0.22
0
-1.1
-0.08
-0.01

> <PUBCHEM_SHAPE_SELFOVERLAP>
863.504

> <PUBCHEM_SHAPE_VOLUME>
239.1

> <PUBCHEM_COORDINATE_TYPE>
2
5
10

$$$$
