656185
  -OEChem-01171809153D

 33 36  0     0  0  0  0  0  0999 V2000
   -0.0017    2.0645    0.7853 S   0  0  0  0  0  0  0  0  0  0  0  0
   -4.0192   -1.7373    1.2375 S   0  0  0  0  0  0  0  0  0  0  0  0
    4.0153   -1.7383    1.2341 S   0  0  0  0  0  0  0  0  0  0  0  0
   -0.0247    3.3748    0.1517 O   0  0  0  0  0  0  0  0  0  0  0  0
    0.0585    1.9620    2.2369 O   0  0  0  0  0  0  0  0  0  0  0  0
   -4.8174   -0.8745   -1.0583 N   0  0  0  0  0  0  0  0  0  0  0  0
    4.8101   -0.8776   -1.0636 N   0  0  0  0  0  0  0  0  0  0  0  0
   -6.1097   -2.6241   -0.1384 N   0  0  0  0  0  0  0  0  0  0  0  0
    6.1044   -2.6256   -0.1434 N   0  0  0  0  0  0  0  0  0  0  0  0
   -1.4200    1.2182    0.2127 C   0  0  0  0  0  0  0  0  0  0  0  0
    1.4355    1.2063    0.2037 C   0  0  0  0  0  0  0  0  0  0  0  0
   -1.9774    0.2036    0.9951 C   0  0  0  0  0  0  0  0  0  0  0  0
    1.9736    0.2029    0.9933 C   0  0  0  0  0  0  0  0  0  0  0  0
   -3.1168   -0.4598    0.5119 C   0  0  0  0  0  0  0  0  0  0  0  0
    3.1120   -0.4612    0.5087 C   0  0  0  0  0  0  0  0  0  0  0  0
   -1.9789    1.5623   -1.0132 C   0  0  0  0  0  0  0  0  0  0  0  0
    1.9740    1.5620   -1.0147 C   0  0  0  0  0  0  0  0  0  0  0  0
   -3.6966   -0.1313   -0.7173 C   0  0  0  0  0  0  0  0  0  0  0  0
    3.6905   -0.1333   -0.7212 C   0  0  0  0  0  0  0  0  0  0  0  0
   -3.1133    0.8978   -1.4882 C   0  0  0  0  0  0  0  0  0  0  0  0
    3.1073    0.8966   -1.4911 C   0  0  0  0  0  0  0  0  0  0  0  0
   -5.0745   -1.7432   -0.1085 C   0  0  0  0  0  0  0  0  0  0  0  0
    5.0691   -1.7450   -0.1130 C   0  0  0  0  0  0  0  0  0  0  0  0
   -1.5466   -0.0787    1.9509 H   0  0  0  0  0  0  0  0  0  0  0  0
    1.5418   -0.0810    1.9472 H   0  0  0  0  0  0  0  0  0  0  0  0
   -1.5455    2.3443   -1.6312 H   0  0  0  0  0  0  0  0  0  0  0  0
    1.5374    2.3456   -1.6269 H   0  0  0  0  0  0  0  0  0  0  0  0
   -3.5409    1.1732   -2.4482 H   0  0  0  0  0  0  0  0  0  0  0  0
    3.5341    1.1720   -2.4514 H   0  0  0  0  0  0  0  0  0  0  0  0
   -6.2745   -3.2810    0.6172 H   0  0  0  0  0  0  0  0  0  0  0  0
   -6.7581   -2.6604   -0.9181 H   0  0  0  0  0  0  0  0  0  0  0  0
    6.7516   -2.6626   -0.9239 H   0  0  0  0  0  0  0  0  0  0  0  0
    6.2703   -3.2818    0.6125 H   0  0  0  0  0  0  0  0  0  0  0  0
  1  4  2  0  0  0  0
  1  5  2  0  0  0  0
  1 10  1  0  0  0  0
  1 11  1  0  0  0  0
  2 14  1  0  0  0  0
  2 22  1  0  0  0  0
  3 15  1  0  0  0  0
  3 23  1  0  0  0  0
  6 18  1  0  0  0  0
  6 22  2  0  0  0  0
  7 19  1  0  0  0  0
  7 23  2  0  0  0  0
  8 22  1  0  0  0  0
  8 30  1  0  0  0  0
  8 31  1  0  0  0  0
  9 23  1  0  0  0  0
  9 32  1  0  0  0  0
  9 33  1  0  0  0  0
 10 12  2  0  0  0  0
 10 16  1  0  0  0  0
 11 13  2  0  0  0  0
 11 17  1  0  0  0  0
 12 14  1  0  0  0  0
 12 24  1  0  0  0  0
 13 15  1  0  0  0  0
 13 25  1  0  0  0  0
 14 18  2  0  0  0  0
 15 19  2  0  0  0  0
 16 20  2  0  0  0  0
 16 26  1  0  0  0  0
 17 21  2  0  0  0  0
 17 27  1  0  0  0  0
 18 20  1  0  0  0  0
 19 21  1  0  0  0  0
 20 28  1  0  0  0  0
 21 29  1  0  0  0  0
M  END
> <PUBCHEM_COMPOUND_CID>
656185

> <PUBCHEM_CONFORMER_RMSD>
0.6

> <PUBCHEM_CONFORMER_DIVERSEORDER>
1
2
3

> <PUBCHEM_MMFF94_PARTIAL_CHARGES>
33
1 1.32
10 -0.01
11 -0.01
12 -0.15
13 -0.15
14 0.04
15 0.04
16 -0.15
17 -0.15
18 0.23
19 0.23
2 -0.08
20 -0.15
21 -0.15
22 0.46
23 0.46
24 0.15
25 0.15
26 0.15
27 0.15
28 0.15
29 0.15
3 -0.08
30 0.4
31 0.4
32 0.4
33 0.4
4 -0.65
5 -0.65
6 -0.57
7 -0.57
8 -0.88
9 -0.88

> <PUBCHEM_EFFECTIVE_ROTOR_COUNT>
2

> <PUBCHEM_PHARMACOPHORE_FEATURES>
10
1 4 acceptor
1 5 acceptor
1 8 donor
1 9 donor
3 6 8 22 cation
3 7 9 23 cation
5 2 6 14 18 22 rings
5 3 7 15 19 23 rings
6 10 12 14 16 18 20 rings
6 11 13 15 17 19 21 rings

> <PUBCHEM_HEAVY_ATOM_COUNT>
23

> <PUBCHEM_ATOM_DEF_STEREO_COUNT>
0

> <PUBCHEM_ATOM_UDEF_STEREO_COUNT>
0

> <PUBCHEM_BOND_DEF_STEREO_COUNT>
0

> <PUBCHEM_BOND_UDEF_STEREO_COUNT>
0

> <PUBCHEM_ISOTOPIC_ATOM_COUNT>
0

> <PUBCHEM_COMPONENT_COUNT>
1

> <PUBCHEM_CACTVS_TAUTO_COUNT>
3

> <PUBCHEM_CONFORMER_ID>
000A033900000001

> <PUBCHEM_MMFF94_ENERGY>
36.6239

> <PUBCHEM_FEATURE_SELFOVERLAP>
50.907

> <PUBCHEM_SHAPE_FINGERPRINT>
10319926 262 13038916563587584381
10498660 4 12685094786741503389
10622 236 17751905940038683842
10928967 22 18341611542311585463
11370993 144 13038910997526227092
11796584 16 18267018367179879276
12363563 72 18273496766778899296
12390115 104 8790592749813468752
12403259 118 10879696693928192254
12553582 1 17346885571495606700
12633257 1 17560528416488430255
12760667 363 18410016524609664371
12892183 10 13326859924217817637
13103583 49 17703805725222160059
13533116 47 17984141732910035451
13544653 18 18131626773141987784
13583140 156 14404900228712488016
13631057 29 18338518543715331402
13828863 39 12175321644115075426
13911987 19 17683268097888769940
13955234 65 17838900683139476809
13965767 371 11383838151531264544
1420 369 18272654541019689990
14251751 18 18410007736700349311
14251764 30 18410578426659844847
14341114 328 13901615376999400474
14576447 43 18186522081971573474
14848178 5 18340483383467664118
14866123 147 18339928091963242753
14931854 50 17822007579910013050
14950920 106 14764045858140524902
15163728 17 11097849662287405793
15188451 53 16271637984376618383
15238133 3 12103559818989842530
15342168 16 8358269128916649473
15475509 8 17749383789951179173
17834072 32 9007052461533580090
1813 80 17703519868936156641
193927 3 18202285779741005388
19784866 240 18412263926249912899
20626108 58 18335978697255739696
20775438 99 17760631964874857323
21033648 29 14620529878347683827
21054139 6 18114465544807389186
21065199 12 12895358793483897445
21344244 78 15698007387624267851
21401589 2 10231756691278083783
21713013 43 17967526878825438253
221357 26 18113898281994256147
22393880 68 17676763185081181542
22950370 63 18411144653625560905
23379529 103 18261401082322289434
23559900 14 18040990800007118181
270888 7 8646771088261103055
2838139 119 8286200530792967122
3004659 81 18113897152338677586
3472631 163 11025799807764967963
38570 142 13469259986651792074
4259306 186 18335421296268092199
439807 62 18114181947731692667
44062 13 18334570201438236269
46194498 28 17314229045590143093
463206 1 18409726304900697651
465052 167 18270970175532681239
474 4 8502390922652271293
5104073 3 17917713495665020129
59682541 52 15502640582043111866
633830 44 8430326713885114913
6669772 16 17909553097397017124
76465 3 18412265034072017364
7808743 9 8934703497046062942
7970288 3 18341895181883267518
960060 61 18041277794016609135
9841814 1 17346042297627337441

> <PUBCHEM_SHAPE_MULTIPOLES>
453.22
12.74
2.92
1.5
0.08
0.12
-0.25
-13.9
3.28
0
-0.38
-0.01
0.42
0.01

> <PUBCHEM_SHAPE_SELFOVERLAP>
977.906

> <PUBCHEM_SHAPE_VOLUME>
251.8

> <PUBCHEM_COORDINATE_TYPE>
2
5
10

$$$$
