5770958
  -OEChem-01171809423D

 59 60  0     0  0  0  0  0  0999 V2000
    4.8690   -2.3076   -0.8069 S   0  0  0  0  0  0  0  0  0  0  0  0
    2.2909    0.4804    0.6663 O   0  0  0  0  0  0  0  0  0  0  0  0
   -0.2939   -2.6088   -0.2660 O   0  0  0  0  0  0  0  0  0  0  0  0
   -2.4003    1.8761    0.3979 O   0  0  0  0  0  0  0  0  0  0  0  0
   -8.4806    0.0897    0.3468 O   0  0  0  0  0  0  0  0  0  0  0  0
   -4.6697    2.2760   -1.4965 O   0  0  0  0  0  0  0  0  0  0  0  0
    3.4131    1.6577   -0.9957 N   0  0  0  0  0  0  0  0  0  0  0  0
    1.2966   -1.2121   -1.2850 N   0  0  0  0  0  0  0  0  0  0  0  0
    6.5659    2.4772    1.0665 C   0  0  0  0  0  0  0  0  0  0  0  0
    5.6022    1.7163    0.1341 C   0  0  0  0  0  0  0  0  0  0  0  0
    4.2789    2.4251   -0.1447 C   0  0  0  0  0  0  0  0  0  0  0  0
    7.8457    1.6902    1.3520 C   0  0  0  0  0  0  0  0  0  0  0  0
    6.9205    3.8323    0.4482 C   0  0  0  0  0  0  0  0  0  0  0  0
    1.6735    0.1236   -1.6420 C   0  0  0  0  0  0  0  0  0  0  0  0
    2.4810    0.7396   -0.5193 C   0  0  0  0  0  0  0  0  0  0  0  0
    2.2301   -2.2815   -1.6660 C   0  0  0  0  0  0  0  0  0  0  0  0
    3.1917   -2.5311   -0.5444 C   0  0  0  0  0  0  0  0  0  0  0  0
    0.0890   -1.4870   -0.6015 C   0  0  0  0  0  0  0  0  0  0  0  0
    2.9198   -2.9378    0.7433 C   0  0  0  0  0  0  0  0  0  0  0  0
   -0.7353   -0.2906   -0.2601 C   0  0  0  0  0  0  0  0  0  0  0  0
    4.1041   -3.0673    1.5248 C   0  0  0  0  0  0  0  0  0  0  0  0
    5.2360   -2.7550    0.8046 C   0  0  0  0  0  0  0  0  0  0  0  0
   -2.0675   -0.4103   -0.1900 C   0  0  0  0  0  0  0  0  0  0  0  0
   -4.3650    0.6084    0.2010 C   0  0  0  0  0  0  0  0  0  0  0  0
   -2.8921    0.7774    0.1651 C   0  0  0  0  0  0  0  0  0  0  0  0
   -5.1929    1.3633   -0.6299 C   0  0  0  0  0  0  0  0  0  0  0  0
   -4.9201   -0.3208    1.0807 C   0  0  0  0  0  0  0  0  0  0  0  0
   -6.5759    1.1889   -0.5812 C   0  0  0  0  0  0  0  0  0  0  0  0
   -7.1310    0.2598    0.2988 C   0  0  0  0  0  0  0  0  0  0  0  0
   -6.3031   -0.4951    1.1296 C   0  0  0  0  0  0  0  0  0  0  0  0
   -8.9807   -0.8770    1.2694 C   0  0  0  0  0  0  0  0  0  0  0  0
    6.0594    2.6561    2.0233 H   0  0  0  0  0  0  0  0  0  0  0  0
    6.1040    1.5032   -0.8193 H   0  0  0  0  0  0  0  0  0  0  0  0
    5.3882    0.7382    0.5838 H   0  0  0  0  0  0  0  0  0  0  0  0
    3.7594    2.6349    0.7968 H   0  0  0  0  0  0  0  0  0  0  0  0
    4.4437    3.3757   -0.6600 H   0  0  0  0  0  0  0  0  0  0  0  0
    8.4066    1.4982    0.4311 H   0  0  0  0  0  0  0  0  0  0  0  0
    7.6094    0.7247    1.8115 H   0  0  0  0  0  0  0  0  0  0  0  0
    8.4974    2.2387    2.0401 H   0  0  0  0  0  0  0  0  0  0  0  0
    7.3267    3.7171   -0.5625 H   0  0  0  0  0  0  0  0  0  0  0  0
    7.6734    4.3477    1.0550 H   0  0  0  0  0  0  0  0  0  0  0  0
    6.0501    4.4930    0.3978 H   0  0  0  0  0  0  0  0  0  0  0  0
    3.4924    1.8066   -1.9973 H   0  0  0  0  0  0  0  0  0  0  0  0
    0.8147    0.7646   -1.8593 H   0  0  0  0  0  0  0  0  0  0  0  0
    2.2642    0.0938   -2.5650 H   0  0  0  0  0  0  0  0  0  0  0  0
    1.6519   -3.1981   -1.8351 H   0  0  0  0  0  0  0  0  0  0  0  0
    2.7202   -2.0299   -2.6124 H   0  0  0  0  0  0  0  0  0  0  0  0
    1.9263   -3.1415    1.1193 H   0  0  0  0  0  0  0  0  0  0  0  0
   -0.2520    0.6478   -0.0233 H   0  0  0  0  0  0  0  0  0  0  0  0
    4.1248   -3.3748    2.5622 H   0  0  0  0  0  0  0  0  0  0  0  0
    6.2608   -2.7673    1.1478 H   0  0  0  0  0  0  0  0  0  0  0  0
   -2.5772   -1.3425   -0.4076 H   0  0  0  0  0  0  0  0  0  0  0  0
   -4.2888   -0.9121    1.7393 H   0  0  0  0  0  0  0  0  0  0  0  0
   -7.2219    1.7768   -1.2285 H   0  0  0  0  0  0  0  0  0  0  0  0
   -6.6675   -1.2325    1.8367 H   0  0  0  0  0  0  0  0  0  0  0  0
   -3.7012    2.2883   -1.4310 H   0  0  0  0  0  0  0  0  0  0  0  0
  -10.0715   -0.8807    1.1741 H   0  0  0  0  0  0  0  0  0  0  0  0
   -8.7515   -0.6017    2.3045 H   0  0  0  0  0  0  0  0  0  0  0  0
   -8.6347   -1.8863    1.0219 H   0  0  0  0  0  0  0  0  0  0  0  0
  1 17  1  0  0  0  0
  1 22  1  0  0  0  0
  2 15  2  0  0  0  0
  3 18  2  0  0  0  0
  4 25  2  0  0  0  0
  5 29  1  0  0  0  0
  5 31  1  0  0  0  0
  6 26  1  0  0  0  0
  6 56  1  0  0  0  0
  7 11  1  0  0  0  0
  7 15  1  0  0  0  0
  7 43  1  0  0  0  0
  8 14  1  0  0  0  0
  8 16  1  0  0  0  0
  8 18  1  0  0  0  0
  9 10  1  0  0  0  0
  9 12  1  0  0  0  0
  9 13  1  0  0  0  0
  9 32  1  0  0  0  0
 10 11  1  0  0  0  0
 10 33  1  0  0  0  0
 10 34  1  0  0  0  0
 11 35  1  0  0  0  0
 11 36  1  0  0  0  0
 12 37  1  0  0  0  0
 12 38  1  0  0  0  0
 12 39  1  0  0  0  0
 13 40  1  0  0  0  0
 13 41  1  0  0  0  0
 13 42  1  0  0  0  0
 14 15  1  0  0  0  0
 14 44  1  0  0  0  0
 14 45  1  0  0  0  0
 16 17  1  0  0  0  0
 16 46  1  0  0  0  0
 16 47  1  0  0  0  0
 17 19  2  0  0  0  0
 18 20  1  0  0  0  0
 19 21  1  0  0  0  0
 19 48  1  0  0  0  0
 20 23  2  0  0  0  0
 20 49  1  0  0  0  0
 21 22  2  0  0  0  0
 21 50  1  0  0  0  0
 22 51  1  0  0  0  0
 23 25  1  0  0  0  0
 23 52  1  0  0  0  0
 24 25  1  0  0  0  0
 24 26  2  0  0  0  0
 24 27  1  0  0  0  0
 26 28  1  0  0  0  0
 27 30  2  0  0  0  0
 27 53  1  0  0  0  0
 28 29  2  0  0  0  0
 28 54  1  0  0  0  0
 29 30  1  0  0  0  0
 30 55  1  0  0  0  0
 31 57  1  0  0  0  0
 31 58  1  0  0  0  0
 31 59  1  0  0  0  0
M  END
> <PUBCHEM_COMPOUND_CID>
5770958

> <PUBCHEM_CONFORMER_RMSD>
1.2

> <PUBCHEM_CONFORMER_DIVERSEORDER>
1
41
13
25
130
14
12
30
64
70
124
103
138
51
56
6
98
128
24
42
129
19
66
35
21
91
137
104
102
50
123
27
57
139
97
114
110
7
4
34
101
135
141
20
45
67
69
2
47
60
146
117
140
15
89
62
55
111
3
17
122
88
116
22
81
80
109
107
132
36
32
38
43
68
53
112
76
142
54
74
99
83
82
28
147
79
95
113
40
5
49
143
136
100
26
127
90
96
72
29
16
77
126
119
93
125
39
115
86
148
48
94
133
84
92
75
63
23
59
134
145
120
37
121
61
105
118
9
10
31
131
73
87
44
65
58
71
8
85
18
144
33
52
106
46
108
11
78

> <PUBCHEM_MMFF94_PARTIAL_CHARGES>
37
1 -0.08
11 0.3
14 0.36
15 0.57
16 0.48
17 -0.14
18 0.62
19 -0.15
2 -0.57
20 -0.14
21 -0.15
22 -0.11
23 -0.14
24 0.09
25 0.47
26 0.08
27 -0.15
28 -0.15
29 0.08
3 -0.57
30 -0.15
31 0.28
4 -0.57
43 0.37
48 0.15
49 0.15
5 -0.36
50 0.15
51 0.15
52 0.15
53 0.15
54 0.15
55 0.15
56 0.45
6 -0.53
7 -0.73
8 -0.66

> <PUBCHEM_EFFECTIVE_ROTOR_COUNT>
13

> <PUBCHEM_PHARMACOPHORE_FEATURES>
9
1 2 acceptor
1 3 acceptor
1 4 acceptor
1 5 acceptor
1 6 donor
1 7 donor
3 9 12 13 hydrophobe
5 1 17 19 21 22 rings
6 24 26 27 28 29 30 rings

> <PUBCHEM_HEAVY_ATOM_COUNT>
31

> <PUBCHEM_ATOM_DEF_STEREO_COUNT>
0

> <PUBCHEM_ATOM_UDEF_STEREO_COUNT>
0

> <PUBCHEM_BOND_DEF_STEREO_COUNT>
1

> <PUBCHEM_BOND_UDEF_STEREO_COUNT>
0

> <PUBCHEM_ISOTOPIC_ATOM_COUNT>
0

> <PUBCHEM_COMPONENT_COUNT>
1

> <PUBCHEM_CACTVS_TAUTO_COUNT>
10

> <PUBCHEM_CONFORMER_ID>
00580ECE00000001

> <PUBCHEM_MMFF94_ENERGY>
79.3874

> <PUBCHEM_FEATURE_SELFOVERLAP>
45.672

> <PUBCHEM_SHAPE_FINGERPRINT>
10 15 18261392303683507756
10835480 77 18409164377977596493
12120059 9 17749390421534282323
12166972 35 17915745275778933154
12616971 3 18131062698392133111
13073987 5 18410296874621766113
13533116 47 18187089412306580515
13782708 43 18115031793163591023
13811026 1 18186798059284864893
14747281 78 16271921645212601706
15183329 4 13262689114797273183
15420108 30 18271232937600842014
15475509 35 17023457535407016826
15684973 49 17835247019301419870
15840311 113 18342177774389283644
20554085 129 17774994735487062792
21033648 29 17385997326404591071
21130935 74 18335145250789582939
21403212 168 18341889710996174208
21859007 373 17532641352649007325
23559900 14 17676781885643309159
3411729 13 18411980282958412990
397830 11 18334574642308118211
4093350 32 17489872622903985078
4112364 45 18341038693185670408
5104073 3 18336558114414428777
513532 50 17385724660543103858
9849439 229 18191312770282839308

> <PUBCHEM_SHAPE_MULTIPOLES>
602.51
24.16
3.98
1.39
32.05
0.32
-0.08
-12.2
9.71
-10.76
0.46
-0.51
0.35
2.01

> <PUBCHEM_SHAPE_SELFOVERLAP>
1234.166

> <PUBCHEM_SHAPE_VOLUME>
349.1

> <PUBCHEM_COORDINATE_TYPE>
2
5
10

$$$$
