2081294
  -OEChem-01171810023D

 33 35  0     0  0  0  0  0  0999 V2000
    6.1998    0.3083   -0.1247 O   0  0  0  0  0  0  0  0  0  0  0  0
    0.3646   -1.9540    0.2704 O   0  0  0  0  0  0  0  0  0  0  0  0
   -2.2426   -0.8032    0.1245 N   0  0  0  0  0  0  0  0  0  0  0  0
   -0.1584    0.3131   -0.1067 N   0  0  0  0  0  0  0  0  0  0  0  0
   -2.3106    1.3867   -0.2491 N   0  0  0  0  0  0  0  0  0  0  0  0
   -3.5745   -0.4783    0.0939 C   0  0  0  0  0  0  0  0  0  0  0  0
   -3.5907    0.8938   -0.1406 C   0  0  0  0  0  0  0  0  0  0  0  0
   -1.5283    0.3435   -0.0852 C   0  0  0  0  0  0  0  0  0  0  0  0
   -4.7311   -1.2435    0.2466 C   0  0  0  0  0  0  0  0  0  0  0  0
   -4.8252    1.5586   -0.2313 C   0  0  0  0  0  0  0  0  0  0  0  0
    2.1641   -0.5021    0.0156 C   0  0  0  0  0  0  0  0  0  0  0  0
    0.7076   -0.7946    0.0657 C   0  0  0  0  0  0  0  0  0  0  0  0
   -5.9512   -0.5657    0.1534 C   0  0  0  0  0  0  0  0  0  0  0  0
   -5.9997    0.8104   -0.0814 C   0  0  0  0  0  0  0  0  0  0  0  0
    3.0293   -1.4983   -0.3854 C   0  0  0  0  0  0  0  0  0  0  0  0
    2.6028    0.7560    0.3712 C   0  0  0  0  0  0  0  0  0  0  0  0
    4.8662    0.0406   -0.0785 C   0  0  0  0  0  0  0  0  0  0  0  0
    4.3960   -1.2238   -0.4331 C   0  0  0  0  0  0  0  0  0  0  0  0
    3.9697    1.0306    0.3235 C   0  0  0  0  0  0  0  0  0  0  0  0
    6.6121    1.6216    0.2511 C   0  0  0  0  0  0  0  0  0  0  0  0
   -1.8615   -1.7276    0.2755 H   0  0  0  0  0  0  0  0  0  0  0  0
   -4.6909   -2.3114    0.4287 H   0  0  0  0  0  0  0  0  0  0  0  0
    0.2503    1.2208   -0.3082 H   0  0  0  0  0  0  0  0  0  0  0  0
   -4.8735    2.6274   -0.4134 H   0  0  0  0  0  0  0  0  0  0  0  0
   -6.8789   -1.1214    0.2659 H   0  0  0  0  0  0  0  0  0  0  0  0
   -6.9630    1.3093   -0.1488 H   0  0  0  0  0  0  0  0  0  0  0  0
    2.6795   -2.4860   -0.6706 H   0  0  0  0  0  0  0  0  0  0  0  0
    1.9426    1.5410    0.7246 H   0  0  0  0  0  0  0  0  0  0  0  0
    5.0896   -1.9985   -0.7486 H   0  0  0  0  0  0  0  0  0  0  0  0
    4.2678    2.0305    0.6199 H   0  0  0  0  0  0  0  0  0  0  0  0
    6.3778    1.8320    1.3001 H   0  0  0  0  0  0  0  0  0  0  0  0
    6.2048    2.3804   -0.4256 H   0  0  0  0  0  0  0  0  0  0  0  0
    7.7021    1.6585    0.1535 H   0  0  0  0  0  0  0  0  0  0  0  0
  1 17  1  0  0  0  0
  1 20  1  0  0  0  0
  2 12  2  0  0  0  0
  3  6  1  0  0  0  0
  3  8  1  0  0  0  0
  3 21  1  0  0  0  0
  4  8  1  0  0  0  0
  4 12  1  0  0  0  0
  4 23  1  0  0  0  0
  5  7  1  0  0  0  0
  5  8  2  0  0  0  0
  6  7  1  0  0  0  0
  6  9  2  0  0  0  0
  7 10  2  0  0  0  0
  9 13  1  0  0  0  0
  9 22  1  0  0  0  0
 10 14  1  0  0  0  0
 10 24  1  0  0  0  0
 11 12  1  0  0  0  0
 11 15  2  0  0  0  0
 11 16  1  0  0  0  0
 13 14  2  0  0  0  0
 13 25  1  0  0  0  0
 14 26  1  0  0  0  0
 15 18  1  0  0  0  0
 15 27  1  0  0  0  0
 16 19  2  0  0  0  0
 16 28  1  0  0  0  0
 17 18  2  0  0  0  0
 17 19  1  0  0  0  0
 18 29  1  0  0  0  0
 19 30  1  0  0  0  0
 20 31  1  0  0  0  0
 20 32  1  0  0  0  0
 20 33  1  0  0  0  0
M  END
> <PUBCHEM_COMPOUND_CID>
2081294

> <PUBCHEM_CONFORMER_RMSD>
0.6

> <PUBCHEM_CONFORMER_DIVERSEORDER>
1
4
2
3

> <PUBCHEM_MMFF94_PARTIAL_CHARGES>
30
1 -0.36
10 -0.15
11 0.09
12 0.54
13 -0.15
14 -0.15
15 -0.15
16 -0.15
17 0.08
18 -0.15
19 -0.15
2 -0.57
20 0.28
21 0.27
22 0.15
23 0.37
24 0.15
25 0.15
26 0.15
27 0.15
28 0.15
29 0.15
3 0.03
30 0.15
4 -0.49
5 -0.57
6 -0.15
7 0.23
8 0.25
9 -0.15

> <PUBCHEM_EFFECTIVE_ROTOR_COUNT>
4

> <PUBCHEM_PHARMACOPHORE_FEATURES>
7
1 1 acceptor
1 2 acceptor
1 3 donor
1 4 donor
5 3 5 6 7 8 rings
6 11 15 16 17 18 19 rings
6 6 7 9 10 13 14 rings

> <PUBCHEM_HEAVY_ATOM_COUNT>
20

> <PUBCHEM_ATOM_DEF_STEREO_COUNT>
0

> <PUBCHEM_ATOM_UDEF_STEREO_COUNT>
0

> <PUBCHEM_BOND_DEF_STEREO_COUNT>
0

> <PUBCHEM_BOND_UDEF_STEREO_COUNT>
0

> <PUBCHEM_ISOTOPIC_ATOM_COUNT>
0

> <PUBCHEM_COMPONENT_COUNT>
1

> <PUBCHEM_CACTVS_TAUTO_COUNT>
3

> <PUBCHEM_CONFORMER_ID>
001FC20E00000001

> <PUBCHEM_MMFF94_ENERGY>
60.8045

> <PUBCHEM_FEATURE_SELFOVERLAP>
35.664

> <PUBCHEM_SHAPE_FINGERPRINT>
10 15 18335132151186880904
10595046 47 18342174449399021531
10638233 991 15913326931244780512
10835480 77 18338229380367697077
10968037 39 18410011044621433855
11287383 113 18411702084102752330
11315181 36 18272653463742482641
11719270 70 18201152171049140886
12107183 9 17546729249011646515
12236239 1 17703792496279685321
12516196 113 18343301470197629769
12730499 353 18272093799149100062
12916748 109 18412266121210387696
13402501 40 18410572903057524232
13533116 47 14045472107503369524
1420 363 18334582338989564091
14251718 22 18410293613986610313
14251732 16 18411138069007958626
14251764 18 18187078460867612290
14341114 176 18412269410648869317
14528608 73 18411981360098451039
14933364 13 18413110558503331504
15196674 1 18410293583921852231
17834072 33 18202560679186219255
17844677 252 18341620286933123457
19489759 90 17313103047342189553
200 152 18060416894242475155
20281389 69 18187362121487116004
20645477 70 18130510717500836110
21150785 3 17632287995809743733
21267235 1 18336272310205498883
220451 1 16271926004329502567
221357 26 18059856138806793848
22896161 15 18411699924230185047
23402539 116 18409162233838849679
23402655 69 18202562869746075758
23559900 14 18411412938900293001
239999 70 18272093751915204646
2916195 48 18409726283630939800
300161 21 17749103366619086595
3004659 81 18335986359883746542
335352 9 18412829084839982574
34797466 226 17918000485733023420
3545911 37 18413389843204807852
4073 2 18187089476604665202
4214541 1 18410856525876351541
42788 4 18410575076099550591
4325135 7 18341328972396977351
4340502 62 16732983120294172442
4463277 17 18412826884487495577
5104073 3 18261676961240918011
542803 24 17022907839136627063
59682541 35 18335709398843441459
59755656 215 18411986827993037974
59755656 520 17822005432473773114
67856867 119 18041848435993207621
77779 3 18412263904711844351

> <PUBCHEM_SHAPE_MULTIPOLES>
384.91
16.85
1.65
0.65
2.93
0.07
0
-4.48
-0.07
0.35
0.01
0.05
0.01
0.74

> <PUBCHEM_SHAPE_SELFOVERLAP>
848.618

> <PUBCHEM_SHAPE_VOLUME>
208.5

> <PUBCHEM_COORDINATE_TYPE>
2
5
10

$$$$
