434610
  -OEChem-01171810143D

 33 35  0     1  0  0  0  0  0999 V2000
   -1.7034    0.0724    1.0459 O   0  0  0  0  0  0  0  0  0  0  0  0
   -2.8938   -2.5258   -0.5535 O   0  0  0  0  0  0  0  0  0  0  0  0
   -1.6780    0.5509   -1.9227 O   0  0  0  0  0  0  0  0  0  0  0  0
   -3.1735    2.4156    1.5429 O   0  0  0  0  0  0  0  0  0  0  0  0
    2.4263   -1.7488    0.5413 N   0  0  0  0  0  0  0  0  0  0  0  0
    0.6828    1.2233   -0.1912 N   0  0  0  0  0  0  0  0  0  0  0  0
    3.0459    1.7363   -0.4671 N   0  0  0  0  0  0  0  0  0  0  0  0
    4.7545    0.0997   -0.1040 N   0  0  0  0  0  0  0  0  0  0  0  0
   -1.2258   -1.2093    0.5943 C   0  0  1  0  0  0  0  0  0  0  0  0
   -1.9098   -1.5106   -0.7430 C   0  0  2  0  0  0  0  0  0  0  0  0
   -2.5812   -0.2048   -1.1261 C   0  0  1  0  0  0  0  0  0  0  0  0
   -2.8224    0.4520    0.2281 C   0  0  2  0  0  0  0  0  0  0  0  0
    0.2823   -1.1572    0.4956 C   0  0  0  0  0  0  0  0  0  0  0  0
   -2.9417    1.9649    0.2181 C   0  0  0  0  0  0  0  0  0  0  0  0
    1.0652   -0.0350    0.1387 C   0  0  0  0  0  0  0  0  0  0  0  0
    1.1457   -2.2008    0.7388 C   0  0  0  0  0  0  0  0  0  0  0  0
    2.3999   -0.4279    0.1737 C   0  0  0  0  0  0  0  0  0  0  0  0
    3.4009    0.4762   -0.1350 C   0  0  0  0  0  0  0  0  0  0  0  0
    1.7263    2.0290   -0.4746 C   0  0  0  0  0  0  0  0  0  0  0  0
   -1.5050   -1.9420    1.3617 H   0  0  0  0  0  0  0  0  0  0  0  0
   -1.2150   -1.8725   -1.5089 H   0  0  0  0  0  0  0  0  0  0  0  0
   -3.5162   -0.3284   -1.6813 H   0  0  0  0  0  0  0  0  0  0  0  0
   -3.7072    0.0132    0.7075 H   0  0  0  0  0  0  0  0  0  0  0  0
   -3.7734    2.2871   -0.4157 H   0  0  0  0  0  0  0  0  0  0  0  0
   -2.0171    2.4365   -0.1288 H   0  0  0  0  0  0  0  0  0  0  0  0
    0.9679   -3.2255    1.0341 H   0  0  0  0  0  0  0  0  0  0  0  0
   -2.4279   -3.3332   -0.2763 H   0  0  0  0  0  0  0  0  0  0  0  0
   -1.5430    0.0640   -2.7535 H   0  0  0  0  0  0  0  0  0  0  0  0
    3.2611   -2.3080    0.6506 H   0  0  0  0  0  0  0  0  0  0  0  0
   -3.2501    3.3842    1.5065 H   0  0  0  0  0  0  0  0  0  0  0  0
    1.4733    3.0483   -0.7454 H   0  0  0  0  0  0  0  0  0  0  0  0
    5.4602    0.7858   -0.3351 H   0  0  0  0  0  0  0  0  0  0  0  0
    5.0236   -0.8425    0.1441 H   0  0  0  0  0  0  0  0  0  0  0  0
  1  9  1  0  0  0  0
  1 12  1  0  0  0  0
  2 10  1  0  0  0  0
  2 27  1  0  0  0  0
  3 11  1  0  0  0  0
  3 28  1  0  0  0  0
  4 14  1  0  0  0  0
  4 30  1  0  0  0  0
  5 16  1  0  0  0  0
  5 17  1  0  0  0  0
  5 29  1  0  0  0  0
  6 15  1  0  0  0  0
  6 19  2  0  0  0  0
  7 18  2  0  0  0  0
  7 19  1  0  0  0  0
  8 18  1  0  0  0  0
  8 32  1  0  0  0  0
  8 33  1  0  0  0  0
  9 10  1  0  0  0  0
  9 13  1  0  0  0  0
  9 20  1  0  0  0  0
 10 11  1  0  0  0  0
 10 21  1  0  0  0  0
 11 12  1  0  0  0  0
 11 22  1  0  0  0  0
 12 14  1  0  0  0  0
 12 23  1  0  0  0  0
 13 15  1  0  0  0  0
 13 16  2  0  0  0  0
 14 24  1  0  0  0  0
 14 25  1  0  0  0  0
 15 17  2  0  0  0  0
 16 26  1  0  0  0  0
 17 18  1  0  0  0  0
 19 31  1  0  0  0  0
M  END
> <PUBCHEM_COMPOUND_CID>
434610

> <PUBCHEM_CONFORMER_RMSD>
0.6

> <PUBCHEM_CONFORMER_DIVERSEORDER>
60
19
135
17
130
7
94
82
34
122
95
76
4
88
123
73
67
84
27
96
118
114
124
69
108
42
9
127
14
71
1
20
37
86
68
104
119
70
56
99
2
138
12
110
11
75
32
16
83
136
59
3
97
30
116
121
107
133
45
111
74
21
31
81
98
6
15
10
129
28
93
8
61
36
134
55
13
58
77
57
79
44
43
29
131
51
5
65
72
128
78
85
113
102
40
126
91
23
38
80
18
112
62
47
125
63
35
52
103
33
101
139
137
39
49
41
25
117
87
115
109
90
53
50
24
26
22
54
105
92
64
89
46
106
132
48
120
66
100

> <PUBCHEM_MMFF94_PARTIAL_CHARGES>
27
1 -0.56
10 0.28
11 0.28
12 0.28
13 -0.18
14 0.28
15 0.26
16 -0.3
17 -0.15
18 0.41
19 0.47
2 -0.68
26 0.15
27 0.4
28 0.4
29 0.27
3 -0.68
30 0.4
31 0.15
32 0.4
33 0.4
4 -0.68
5 0.03
6 -0.57
7 -0.62
8 -0.9
9 0.46

> <PUBCHEM_EFFECTIVE_ROTOR_COUNT>
3

> <PUBCHEM_PHARMACOPHORE_FEATURES>
15
1 1 acceptor
1 2 acceptor
1 2 donor
1 3 acceptor
1 3 donor
1 4 acceptor
1 4 donor
1 5 cation
1 5 donor
1 8 donor
3 6 7 19 cation
3 7 8 18 cation
5 1 9 10 11 12 rings
5 5 13 15 16 17 rings
6 6 7 15 17 18 19 rings

> <PUBCHEM_HEAVY_ATOM_COUNT>
19

> <PUBCHEM_ATOM_DEF_STEREO_COUNT>
0

> <PUBCHEM_ATOM_UDEF_STEREO_COUNT>
4

> <PUBCHEM_BOND_DEF_STEREO_COUNT>
0

> <PUBCHEM_BOND_UDEF_STEREO_COUNT>
0

> <PUBCHEM_ISOTOPIC_ATOM_COUNT>
0

> <PUBCHEM_COMPONENT_COUNT>
1

> <PUBCHEM_CACTVS_TAUTO_COUNT>
5

> <PUBCHEM_CONFORMER_ID>
0006A1B20000003C

> <PUBCHEM_MMFF94_ENERGY>
42.6356

> <PUBCHEM_FEATURE_SELFOVERLAP>
76.359

> <PUBCHEM_SHAPE_FINGERPRINT>
10062212 137 18408595968482042186
10980938 120 18262242097031959960
11640471 11 18129952152392272641
12173636 292 18273208690806590031
12403260 363 18191858131996562056
12491281 212 18409451379600614770
12788726 201 18059565885401921375
13140716 1 18262513685342589498
13583140 156 14996833450909061644
14178342 30 18339345410180990562
15309172 13 18186519929602153466
15442244 35 18337950074185596178
15775835 57 18261108573621587503
16945 1 18189885423020435822
17844478 74 17023475127059855781
18186145 218 18335700568211208828
18219364 16 17894627020167977117
200 152 18268420416372992583
20449540 30 18335131042589075919
20510252 161 18049161364927531409
20645476 183 18201157646667563455
21197605 99 17543634132903550709
21501502 16 18334287678083556922
21524375 3 18042120015597285490
22094290 62 18265615373010064993
23419403 2 15240262292729705014
23557571 272 17632858633126805794
23559900 14 17989207011243577232
23598291 2 18268979908619472455
25 1 18187082828226996338
2748010 2 16751005532869671874
474 4 18259987071682173560
63268167 104 18261664904924871418
74978 22 18410852127334020327
7832392 63 18340489971699323040
90525 40 18202280290810062359

> <PUBCHEM_SHAPE_MULTIPOLES>
347.61
6.35
2.55
1.12
3.12
0.01
-0.14
1.81
-0.17
-0.95
0.33
-0.93
0.2
-1.29

> <PUBCHEM_SHAPE_SELFOVERLAP>
759.934

> <PUBCHEM_SHAPE_VOLUME>
185.6

> <PUBCHEM_COORDINATE_TYPE>
2
5
10

$$$$
