16188009
  -OEChem-01171809413D

 61 64  0     0  0  0  0  0  0999 V2000
    4.7727   -0.6330    2.2554 O   0  0  0  0  0  0  0  0  0  0  0  0
   -2.7205    2.0035    1.9856 O   0  0  0  0  0  0  0  0  0  0  0  0
   -2.5269   -3.0617   -0.7659 O   0  0  0  0  0  0  0  0  0  0  0  0
    0.5189    1.3307   -0.1344 N   0  0  0  0  0  0  0  0  0  0  0  0
    1.3479    1.5618   -2.3740 N   0  0  0  0  0  0  0  0  0  0  0  0
   -0.6629    1.1407    0.5204 N   0  0  0  0  0  0  0  0  0  0  0  0
    3.4264   -1.3380    0.4998 N   0  0  0  0  0  0  0  0  0  0  0  0
    2.8661    1.6397   -0.3821 C   0  0  0  0  0  0  0  0  0  0  0  0
    1.8012    1.4655    0.4317 C   0  0  0  0  0  0  0  0  0  0  0  0
    4.3021    1.7650    0.0263 C   0  0  0  0  0  0  0  0  0  0  0  0
    2.5345    1.6897   -1.8592 C   0  0  0  0  0  0  0  0  0  0  0  0
    0.3186    1.3766   -1.5109 C   0  0  0  0  0  0  0  0  0  0  0  0
    5.0174    0.4191    0.0854 C   0  0  0  0  0  0  0  0  0  0  0  0
   -1.5785    1.0692   -0.4433 C   0  0  0  0  0  0  0  0  0  0  0  0
   -1.0306    1.2087   -1.7224 C   0  0  0  0  0  0  0  0  0  0  0  0
    1.8703    1.4063    1.9356 C   0  0  0  0  0  0  0  0  0  0  0  0
    3.6705    1.9045   -2.8374 C   0  0  0  0  0  0  0  0  0  0  0  0
    4.4118   -0.5551    1.0842 C   0  0  0  0  0  0  0  0  0  0  0  0
   -2.9665    0.8675   -0.1191 C   0  0  0  0  0  0  0  0  0  0  0  0
    2.7030   -2.3538    1.2286 C   0  0  0  0  0  0  0  0  0  0  0  0
   -3.4958    1.3389    1.0816 C   0  0  0  0  0  0  0  0  0  0  0  0
   -3.7822    0.1904   -1.0247 C   0  0  0  0  0  0  0  0  0  0  0  0
    1.3112   -2.5424    0.6980 C   0  0  0  0  0  0  0  0  0  0  0  0
   -4.8435    1.1329    1.3771 C   0  0  0  0  0  0  0  0  0  0  0  0
   -5.1299   -0.0155   -0.7290 C   0  0  0  0  0  0  0  0  0  0  0  0
   -5.6604    0.4556    0.4718 C   0  0  0  0  0  0  0  0  0  0  0  0
    1.1034   -2.6181   -0.6739 C   0  0  0  0  0  0  0  0  0  0  0  0
    0.2451   -2.6392    1.5844 C   0  0  0  0  0  0  0  0  0  0  0  0
   -0.1896   -2.7931   -1.1670 C   0  0  0  0  0  0  0  0  0  0  0  0
   -1.0479   -2.8142    1.0914 C   0  0  0  0  0  0  0  0  0  0  0  0
   -1.2654   -2.8913   -0.2843 C   0  0  0  0  0  0  0  0  0  0  0  0
   -2.6437    3.4207    1.8534 C   0  0  0  0  0  0  0  0  0  0  0  0
   -2.6770   -3.1317   -2.1831 C   0  0  0  0  0  0  0  0  0  0  0  0
    4.8503    2.4448   -0.6334 H   0  0  0  0  0  0  0  0  0  0  0  0
    4.3693    2.2461    1.0091 H   0  0  0  0  0  0  0  0  0  0  0  0
    6.0607    0.5794    0.3850 H   0  0  0  0  0  0  0  0  0  0  0  0
    5.0580   -0.0530   -0.9026 H   0  0  0  0  0  0  0  0  0  0  0  0
   -1.5239    1.1996   -2.6844 H   0  0  0  0  0  0  0  0  0  0  0  0
    2.8771    1.5367    2.3363 H   0  0  0  0  0  0  0  0  0  0  0  0
    1.2521    2.1988    2.3724 H   0  0  0  0  0  0  0  0  0  0  0  0
    1.4979    0.4428    2.2990 H   0  0  0  0  0  0  0  0  0  0  0  0
    3.2968    1.8441   -3.8650 H   0  0  0  0  0  0  0  0  0  0  0  0
    4.1011    2.8993   -2.6954 H   0  0  0  0  0  0  0  0  0  0  0  0
    4.4383    1.1383   -2.7182 H   0  0  0  0  0  0  0  0  0  0  0  0
    3.2654   -1.2359   -0.4973 H   0  0  0  0  0  0  0  0  0  0  0  0
    2.6888   -2.0855    2.2910 H   0  0  0  0  0  0  0  0  0  0  0  0
    3.2615   -3.2915    1.1311 H   0  0  0  0  0  0  0  0  0  0  0  0
   -3.4023   -0.1870   -1.9694 H   0  0  0  0  0  0  0  0  0  0  0  0
   -5.2640    1.4960    2.3111 H   0  0  0  0  0  0  0  0  0  0  0  0
   -5.7660   -0.5431   -1.4338 H   0  0  0  0  0  0  0  0  0  0  0  0
   -6.7096    0.2948    0.7019 H   0  0  0  0  0  0  0  0  0  0  0  0
    1.9248   -2.5708   -1.3826 H   0  0  0  0  0  0  0  0  0  0  0  0
    0.4012   -2.5801    2.6578 H   0  0  0  0  0  0  0  0  0  0  0  0
   -0.2861   -2.8519   -2.2456 H   0  0  0  0  0  0  0  0  0  0  0  0
   -1.8823   -2.8882    1.7835 H   0  0  0  0  0  0  0  0  0  0  0  0
   -1.9066    3.7917    2.5708 H   0  0  0  0  0  0  0  0  0  0  0  0
   -2.3263    3.7095    0.8464 H   0  0  0  0  0  0  0  0  0  0  0  0
   -3.6132    3.8742    2.0826 H   0  0  0  0  0  0  0  0  0  0  0  0
   -2.3441   -2.2128   -2.6764 H   0  0  0  0  0  0  0  0  0  0  0  0
   -3.7468   -3.2373   -2.3905 H   0  0  0  0  0  0  0  0  0  0  0  0
   -2.1812   -4.0187   -2.5919 H   0  0  0  0  0  0  0  0  0  0  0  0
  1 18  2  0  0  0  0
  2 21  1  0  0  0  0
  2 32  1  0  0  0  0
  3 31  1  0  0  0  0
  3 33  1  0  0  0  0
  4  6  1  0  0  0  0
  4  9  1  0  0  0  0
  4 12  1  0  0  0  0
  5 11  2  0  0  0  0
  5 12  1  0  0  0  0
  6 14  2  0  0  0  0
  7 18  1  0  0  0  0
  7 20  1  0  0  0  0
  7 45  1  0  0  0  0
  8  9  2  0  0  0  0
  8 10  1  0  0  0  0
  8 11  1  0  0  0  0
  9 16  1  0  0  0  0
 10 13  1  0  0  0  0
 10 34  1  0  0  0  0
 10 35  1  0  0  0  0
 11 17  1  0  0  0  0
 12 15  2  0  0  0  0
 13 18  1  0  0  0  0
 13 36  1  0  0  0  0
 13 37  1  0  0  0  0
 14 15  1  0  0  0  0
 14 19  1  0  0  0  0
 15 38  1  0  0  0  0
 16 39  1  0  0  0  0
 16 40  1  0  0  0  0
 16 41  1  0  0  0  0
 17 42  1  0  0  0  0
 17 43  1  0  0  0  0
 17 44  1  0  0  0  0
 19 21  1  0  0  0  0
 19 22  2  0  0  0  0
 20 23  1  0  0  0  0
 20 46  1  0  0  0  0
 20 47  1  0  0  0  0
 21 24  2  0  0  0  0
 22 25  1  0  0  0  0
 22 48  1  0  0  0  0
 23 27  2  0  0  0  0
 23 28  1  0  0  0  0
 24 26  1  0  0  0  0
 24 49  1  0  0  0  0
 25 26  2  0  0  0  0
 25 50  1  0  0  0  0
 26 51  1  0  0  0  0
 27 29  1  0  0  0  0
 27 52  1  0  0  0  0
 28 30  2  0  0  0  0
 28 53  1  0  0  0  0
 29 31  2  0  0  0  0
 29 54  1  0  0  0  0
 30 31  1  0  0  0  0
 30 55  1  0  0  0  0
 32 56  1  0  0  0  0
 32 57  1  0  0  0  0
 32 58  1  0  0  0  0
 33 59  1  0  0  0  0
 33 60  1  0  0  0  0
 33 61  1  0  0  0  0
M  END
> <PUBCHEM_COMPOUND_CID>
16188009

> <PUBCHEM_CONFORMER_RMSD>
1

> <PUBCHEM_CONFORMER_DIVERSEORDER>
33
200
170
190
159
204
60
130
47
191
260
235
15
137
225
39
102
23
161
101
19
197
215
6
71
86
117
76
45
212
234
146
95
220
61
25
231
29
120
82
128
242
184
112
126
84
54
193
114
31
169
1
100
118
141
103
224
51
111
155
143
230
216
80
152
37
11
253
58
105
68
198
74
135
14
243
91
255
121
89
210
41
81
154
226
142
148
90
17
246
151
223
138
70
55
258
199
62
250
201
186
56
22
178
172
134
168
202
205
96
239
30
97
123
88
236
173
98
83
132
21
156
113
229
233
251
42
183
35
10
217
18
27
125
238
228
218
34
119
252
259
261
8
115
93
171
43
28
149
57
124
211
3
196
7
26
179
9
160
192
79
147
94
73
240
257
65
40
254
99
12
237
209
52
162
203
64
158
63
92
136
194
208
150
13
110
38
248
46
131
4
247
144
59
106
53
20
78
222
167
157
245
122
69
219
207
188
87
195
36
241
176
67
127
24
165
49
133
232
227
48
2
16
185
85
145
50
181
77
177
5
244
139
104
206
164
129
214
153
32
175
249
72
75
66
108
140
180
256
107
44
187
166
221
116
213
189
163
174
109
182

> <PUBCHEM_MMFF94_PARTIAL_CHARGES>
43
1 -0.57
10 0.14
11 0.37
12 -0.03
13 0.06
14 0.23
15 -0.15
16 0.14
17 0.06
18 0.57
19 0.05
2 -0.36
20 0.44
21 0.08
22 -0.15
23 -0.14
24 -0.15
25 -0.15
26 -0.15
27 -0.15
28 -0.15
29 -0.15
3 -0.36
30 -0.15
31 0.08
32 0.28
33 0.28
38 0.15
4 0.6
45 0.37
48 0.15
49 0.15
5 -0.58
50 0.15
51 0.15
52 0.15
53 0.15
54 0.15
55 0.15
6 -0.71
7 -0.73
8 -0.12
9 -0.17

> <PUBCHEM_EFFECTIVE_ROTOR_COUNT>
9

> <PUBCHEM_PHARMACOPHORE_FEATURES>
10
1 1 acceptor
1 2 acceptor
1 3 acceptor
1 5 acceptor
1 6 acceptor
1 7 donor
5 4 6 12 14 15 rings
6 19 21 22 24 25 26 rings
6 23 27 28 29 30 31 rings
6 4 5 8 9 11 12 rings

> <PUBCHEM_HEAVY_ATOM_COUNT>
33

> <PUBCHEM_ATOM_DEF_STEREO_COUNT>
0

> <PUBCHEM_ATOM_UDEF_STEREO_COUNT>
0

> <PUBCHEM_BOND_DEF_STEREO_COUNT>
0

> <PUBCHEM_BOND_UDEF_STEREO_COUNT>
0

> <PUBCHEM_ISOTOPIC_ATOM_COUNT>
0

> <PUBCHEM_COMPONENT_COUNT>
1

> <PUBCHEM_CACTVS_TAUTO_COUNT>
2

> <PUBCHEM_CONFORMER_ID>
00F7026900000021

> <PUBCHEM_MMFF94_ENERGY>
101.0057

> <PUBCHEM_FEATURE_SELFOVERLAP>
50.883

> <PUBCHEM_SHAPE_FINGERPRINT>
104564 63 18120663693230893302
11513181 2 17773593815343899751
11578080 2 17914883478069657960
12293681 4 17632023043023990913
12422481 6 18261666004463093914
12786520 15 16538793664265291611
12788726 201 17762918944442904093
133893 2 17971211252359598177
14251757 17 15195011491982539457
14464042 87 18194954365030367927
14840074 17 18186804668796051596
15297060 5 18060418019181814706
16112460 7 18335699456121004784
16752209 62 17976258255027345831
17138139 8 18053647347237675911
20737093 15 17909788191564348295
20764821 26 18127121094523326649
23559900 14 17988095498781558996
3052486 1 18265618864807907766
338550 245 18187926226364552199
35225 105 18271232945436070741
463206 1 18335133236948072807
469060 322 17534026810351663994
6287921 2 17841997685055914447
7064713 232 18341885273545858498

> <PUBCHEM_SHAPE_MULTIPOLES>
641.59
9.67
4.2
2.34
2.3
3.08
-0.58
-3.6
1.87
0.81
0.04
-0.82
-0.69
-3.26

> <PUBCHEM_SHAPE_SELFOVERLAP>
1388.378

> <PUBCHEM_SHAPE_VOLUME>
349.9

> <PUBCHEM_COORDINATE_TYPE>
2
5
10

$$$$
