5347090
  -OEChem-01171809423D

 29 31  0     0  0  0  0  0  0999 V2000
   -2.3131    1.4205   -0.0008 N   0  0  0  0  0  0  0  0  0  0  0  0
   -1.6645   -0.7054    0.0001 N   0  0  0  0  0  0  0  0  0  0  0  0
   -0.0090    1.0506   -0.0004 N   0  0  0  0  0  0  0  0  0  0  0  0
    1.1281    0.2965   -0.0002 N   0  0  0  0  0  0  0  0  0  0  0  0
    3.5184   -1.0119   -0.0008 N   0  0  0  0  0  0  0  0  0  0  0  0
   -3.4703    0.6847   -0.0003 C   0  0  0  0  0  0  0  0  0  0  0  0
   -3.0389   -0.6389    0.0002 C   0  0  0  0  0  0  0  0  0  0  0  0
   -1.2624    0.5458   -0.0003 C   0  0  0  0  0  0  0  0  0  0  0  0
   -4.8163    1.0521   -0.0003 C   0  0  0  0  0  0  0  0  0  0  0  0
   -3.9932   -1.6702    0.0007 C   0  0  0  0  0  0  0  0  0  0  0  0
   -5.7525    0.0128    0.0002 C   0  0  0  0  0  0  0  0  0  0  0  0
   -5.3504   -1.3249    0.0007 C   0  0  0  0  0  0  0  0  0  0  0  0
    3.5483    0.3309    0.0005 C   0  0  0  0  0  0  0  0  0  0  0  0
    2.2258    0.9807   -0.0003 C   0  0  0  0  0  0  0  0  0  0  0  0
    4.6843    1.1060    0.0015 C   0  0  0  0  0  0  0  0  0  0  0  0
    5.9059    0.4418    0.0010 C   0  0  0  0  0  0  0  0  0  0  0  0
    5.9351   -0.9484   -0.0002 C   0  0  0  0  0  0  0  0  0  0  0  0
    4.7246   -1.6225   -0.0012 C   0  0  0  0  0  0  0  0  0  0  0  0
   -2.2484    2.4296   -0.0013 H   0  0  0  0  0  0  0  0  0  0  0  0
   -5.1259    2.0910   -0.0007 H   0  0  0  0  0  0  0  0  0  0  0  0
   -3.6909   -2.7126    0.0011 H   0  0  0  0  0  0  0  0  0  0  0  0
   -6.8132    0.2516    0.0003 H   0  0  0  0  0  0  0  0  0  0  0  0
   -6.1015   -2.1107    0.0012 H   0  0  0  0  0  0  0  0  0  0  0  0
    0.1140    2.0615   -0.0009 H   0  0  0  0  0  0  0  0  0  0  0  0
    2.2210    2.0866   -0.0004 H   0  0  0  0  0  0  0  0  0  0  0  0
    4.6494    2.1896    0.0023 H   0  0  0  0  0  0  0  0  0  0  0  0
    6.8335    1.0063    0.0017 H   0  0  0  0  0  0  0  0  0  0  0  0
    6.8757   -1.4872   -0.0005 H   0  0  0  0  0  0  0  0  0  0  0  0
    4.6929   -2.7070   -0.0022 H   0  0  0  0  0  0  0  0  0  0  0  0
  1  6  1  0  0  0  0
  1  8  1  0  0  0  0
  1 19  1  0  0  0  0
  2  7  1  0  0  0  0
  2  8  2  0  0  0  0
  3  4  1  0  0  0  0
  3  8  1  0  0  0  0
  3 24  1  0  0  0  0
  4 14  2  0  0  0  0
  5 13  1  0  0  0  0
  5 18  2  0  0  0  0
  6  7  1  0  0  0  0
  6  9  2  0  0  0  0
  7 10  2  0  0  0  0
  9 11  1  0  0  0  0
  9 20  1  0  0  0  0
 10 12  1  0  0  0  0
 10 21  1  0  0  0  0
 11 12  2  0  0  0  0
 11 22  1  0  0  0  0
 12 23  1  0  0  0  0
 13 14  1  0  0  0  0
 13 15  2  0  0  0  0
 14 25  1  0  0  0  0
 15 16  1  0  0  0  0
 15 26  1  0  0  0  0
 16 17  2  0  0  0  0
 16 27  1  0  0  0  0
 17 18  1  0  0  0  0
 17 28  1  0  0  0  0
 18 29  1  0  0  0  0
M  END
> <PUBCHEM_COMPOUND_CID>
5347090

> <PUBCHEM_CONFORMER_RMSD>
0.6

> <PUBCHEM_CONFORMER_DIVERSEORDER>
1
16
13
20
7
21
2
18
15
3
17
4
11
12
19
10
14
9
6
8
5

> <PUBCHEM_MMFF94_PARTIAL_CHARGES>
29
1 0.03
10 -0.15
11 -0.15
12 -0.15
13 0.4
14 0.3
15 -0.15
16 -0.15
17 -0.15
18 0.16
19 0.27
2 -0.57
20 0.15
21 0.15
22 0.15
23 0.15
24 0.4
25 0.06
26 0.15
27 0.15
28 0.15
29 0.15
3 -0.44
4 -0.49
5 -0.62
6 -0.15
7 0.23
8 0.27
9 -0.15

> <PUBCHEM_EFFECTIVE_ROTOR_COUNT>
3

> <PUBCHEM_PHARMACOPHORE_FEATURES>
8
1 1 donor
1 3 donor
1 4 acceptor
1 5 acceptor
4 1 2 3 8 cation
5 1 2 6 7 8 rings
6 5 13 15 16 17 18 rings
6 6 7 9 10 11 12 rings

> <PUBCHEM_HEAVY_ATOM_COUNT>
18

> <PUBCHEM_ATOM_DEF_STEREO_COUNT>
0

> <PUBCHEM_ATOM_UDEF_STEREO_COUNT>
0

> <PUBCHEM_BOND_DEF_STEREO_COUNT>
1

> <PUBCHEM_BOND_UDEF_STEREO_COUNT>
0

> <PUBCHEM_ISOTOPIC_ATOM_COUNT>
0

> <PUBCHEM_COMPONENT_COUNT>
1

> <PUBCHEM_CACTVS_TAUTO_COUNT>
2

> <PUBCHEM_CONFORMER_ID>
0051971200000001

> <PUBCHEM_MMFF94_ENERGY>
35.8208

> <PUBCHEM_FEATURE_SELFOVERLAP>
40.752

> <PUBCHEM_SHAPE_FINGERPRINT>
10595046 47 18409168831156698348
10835480 77 18411972576938556840
10968037 39 18335140911912283933
11315181 36 18272936042014189481
11524674 6 16845573132189780911
12107183 9 17690562983569849416
12236239 1 18260550025941157012
12516196 113 18202561791556596144
12596602 18 17274823579769740466
13167823 11 18410854360875152782
13288520 33 18410856577595138317
13533116 47 13542198151689971004
13685833 64 18408326609613192315
1420 363 18412548716762086470
14251718 22 18334294283917143128
14251732 16 18341049722139589616
14251764 18 18273219707856432291
14341114 176 18412549816352971912
14461889 52 18265610065147854032
15183329 4 18335417941645316091
15196674 1 18410573985299436518
17834072 33 18410012156553882708
17844677 252 18412269440756507536
17857418 61 18411135839972874342
200 152 18273214200885581945
20374829 77 18408038507053414441
20645477 70 18411420566930976614
21267235 1 18409737265429616979
220451 1 18410864264821668096
2297311 6 18342746208124905029
23035841 295 18334857212168887851
23402539 116 18411415120558848693
23522609 53 18195559001688801297
23536379 177 18410575076078581728
23559900 14 18339916125635866321
239999 70 18272093782306704966
26918003 58 18059857263755558641
3004659 81 18333732403932752994
335352 9 18410572891058690029
351380 3 18409726266192737538
4073 2 18041284365353749002
4214541 1 18410856538270876865
42788 4 18410573989546827108
4325135 7 18260551147766235852
465052 167 18202849846855506734
5104073 3 18413951680666793856
542803 24 17385726902331389500
559249 180 18408882911046903479
57483677 66 18409728460841670658
67856867 119 18263647427717510500
7495541 125 17988921210591572184
77779 3 18410856560004013808
9971528 1 17894912957906131876

> <PUBCHEM_SHAPE_MULTIPOLES>
345.53
16.8
1.57
0.59
6.92
0.34
0
3.51
0
-0.15
0
0
0.01
0

> <PUBCHEM_SHAPE_SELFOVERLAP>
760.448

> <PUBCHEM_SHAPE_VOLUME>
185.4

> <PUBCHEM_COORDINATE_TYPE>
2
5
10

$$$$
