3243837
  -OEChem-01171809183D

 44 46  0     0  0  0  0  0  0999 V2000
   -8.3194   -1.8792    0.2631 Br  0  0  0  0  0  0  0  0  0  0  0  0
    6.1865   -2.8258    0.5620 O   0  0  0  0  0  0  0  0  0  0  0  0
   -2.0465    0.2711   -1.3341 O   0  0  0  0  0  0  0  0  0  0  0  0
    0.7026    2.3816    1.5294 O   0  0  0  0  0  0  0  0  0  0  0  0
    5.2168   -0.2741   -0.2446 N   0  0  0  0  0  0  0  0  0  0  0  0
    1.5539    2.0397   -0.5774 N   0  0  0  0  0  0  0  0  0  0  0  0
   -0.7754    0.8293   -1.2737 N   0  0  0  0  0  0  0  0  0  0  0  0
    4.1856    0.6080   -0.7871 C   0  0  0  0  0  0  0  0  0  0  0  0
    5.5986   -1.2971   -1.2281 C   0  0  0  0  0  0  0  0  0  0  0  0
    4.7561   -0.9148    0.9951 C   0  0  0  0  0  0  0  0  0  0  0  0
    3.8704    1.7271    0.2069 C   0  0  0  0  0  0  0  0  0  0  0  0
    6.6659   -2.2128   -0.6355 C   0  0  0  0  0  0  0  0  0  0  0  0
    5.8440   -1.8386    1.5354 C   0  0  0  0  0  0  0  0  0  0  0  0
    2.8096    2.6895   -0.3193 C   0  0  0  0  0  0  0  0  0  0  0  0
    0.5557    1.9264    0.3936 C   0  0  0  0  0  0  0  0  0  0  0  0
   -0.6853    1.2639   -0.0321 C   0  0  0  0  0  0  0  0  0  0  0  0
   -1.8069    1.0368    0.7462 C   0  0  0  0  0  0  0  0  0  0  0  0
   -2.6509    0.4007   -0.1254 C   0  0  0  0  0  0  0  0  0  0  0  0
   -3.9788   -0.1331   -0.0345 C   0  0  0  0  0  0  0  0  0  0  0  0
   -4.6919   -0.0515    1.1665 C   0  0  0  0  0  0  0  0  0  0  0  0
   -4.5731   -0.7405   -1.1462 C   0  0  0  0  0  0  0  0  0  0  0  0
   -5.9834   -0.5713    1.2548 C   0  0  0  0  0  0  0  0  0  0  0  0
   -5.8646   -1.2599   -1.0578 C   0  0  0  0  0  0  0  0  0  0  0  0
   -6.5697   -1.1754    0.1426 C   0  0  0  0  0  0  0  0  0  0  0  0
    3.2788    0.0403   -1.0311 H   0  0  0  0  0  0  0  0  0  0  0  0
    4.5446    1.0632   -1.7186 H   0  0  0  0  0  0  0  0  0  0  0  0
    4.7235   -1.8952   -1.5141 H   0  0  0  0  0  0  0  0  0  0  0  0
    5.9983   -0.8254   -2.1329 H   0  0  0  0  0  0  0  0  0  0  0  0
    4.5597   -0.1938    1.7921 H   0  0  0  0  0  0  0  0  0  0  0  0
    3.8403   -1.4919    0.8131 H   0  0  0  0  0  0  0  0  0  0  0  0
    4.7826    2.2933    0.4325 H   0  0  0  0  0  0  0  0  0  0  0  0
    3.4844    1.3370    1.1531 H   0  0  0  0  0  0  0  0  0  0  0  0
    6.9071   -3.0114   -1.3443 H   0  0  0  0  0  0  0  0  0  0  0  0
    7.5934   -1.6678   -0.4218 H   0  0  0  0  0  0  0  0  0  0  0  0
    6.7437   -1.2810    1.8233 H   0  0  0  0  0  0  0  0  0  0  0  0
    5.4807   -2.3627    2.4254 H   0  0  0  0  0  0  0  0  0  0  0  0
    2.6576    3.5012    0.4007 H   0  0  0  0  0  0  0  0  0  0  0  0
    3.1406    3.1408   -1.2609 H   0  0  0  0  0  0  0  0  0  0  0  0
    1.3914    1.6562   -1.5042 H   0  0  0  0  0  0  0  0  0  0  0  0
   -1.9868    1.2907    1.7805 H   0  0  0  0  0  0  0  0  0  0  0  0
   -4.2622    0.4132    2.0504 H   0  0  0  0  0  0  0  0  0  0  0  0
   -4.0563   -0.8260   -2.0990 H   0  0  0  0  0  0  0  0  0  0  0  0
   -6.5195   -0.4974    2.1976 H   0  0  0  0  0  0  0  0  0  0  0  0
   -6.3074   -1.7277   -1.9334 H   0  0  0  0  0  0  0  0  0  0  0  0
  1 24  1  0  0  0  0
  2 12  1  0  0  0  0
  2 13  1  0  0  0  0
  3  7  1  0  0  0  0
  3 18  1  0  0  0  0
  4 15  2  0  0  0  0
  5  8  1  0  0  0  0
  5  9  1  0  0  0  0
  5 10  1  0  0  0  0
  6 14  1  0  0  0  0
  6 15  1  0  0  0  0
  6 39  1  0  0  0  0
  7 16  2  0  0  0  0
  8 11  1  0  0  0  0
  8 25  1  0  0  0  0
  8 26  1  0  0  0  0
  9 12  1  0  0  0  0
  9 27  1  0  0  0  0
  9 28  1  0  0  0  0
 10 13  1  0  0  0  0
 10 29  1  0  0  0  0
 10 30  1  0  0  0  0
 11 14  1  0  0  0  0
 11 31  1  0  0  0  0
 11 32  1  0  0  0  0
 12 33  1  0  0  0  0
 12 34  1  0  0  0  0
 13 35  1  0  0  0  0
 13 36  1  0  0  0  0
 14 37  1  0  0  0  0
 14 38  1  0  0  0  0
 15 16  1  0  0  0  0
 16 17  1  0  0  0  0
 17 18  2  0  0  0  0
 17 40  1  0  0  0  0
 18 19  1  0  0  0  0
 19 20  2  0  0  0  0
 19 21  1  0  0  0  0
 20 22  1  0  0  0  0
 20 41  1  0  0  0  0
 21 23  2  0  0  0  0
 21 42  1  0  0  0  0
 22 24  2  0  0  0  0
 22 43  1  0  0  0  0
 23 24  1  0  0  0  0
 23 44  1  0  0  0  0
M  END
> <PUBCHEM_COMPOUND_CID>
3243837

> <PUBCHEM_CONFORMER_RMSD>
0.8

> <PUBCHEM_CONFORMER_DIVERSEORDER>
1
101
95
10
88
58
105
41
24
61
47
110
113
92
42
116
4
74
50
57
40
16
109
72
37
111
94
66
55
69
103
11
44
67
20
90
45
21
19
73
18
3
6
114
76
65
91
81
89
112
83
106
38
115
75
23
14
43
117
79
107
108
29
26
62
56
71
102
25
93
96
68
86
100
22
54
5
49
8
28
78
35
13
80
51
104
70
33
63
52
98
53
30
85
87
34
84
31
36
32
59
46
60
99
48
82
9
97
17
27
12
7
77
15
64
39
2

> <PUBCHEM_MMFF94_PARTIAL_CHARGES>
29
1 -0.11
10 0.27
12 0.28
13 0.28
14 0.3
15 0.72
16 0.2
17 -0.15
18 0.09
19 0.05
2 -0.56
20 -0.15
21 -0.15
22 -0.15
23 -0.15
24 0.11
3 -0.02
39 0.37
4 -0.57
40 0.15
41 0.15
42 0.15
43 0.15
44 0.15
5 -0.81
6 -0.73
7 -0.41
8 0.27
9 0.27

> <PUBCHEM_EFFECTIVE_ROTOR_COUNT>
8.2

> <PUBCHEM_PHARMACOPHORE_FEATURES>
9
1 1 hydrophobe
1 2 acceptor
1 4 acceptor
1 5 cation
1 6 donor
1 7 acceptor
5 3 7 16 17 18 rings
6 19 20 21 22 23 24 rings
6 2 5 9 10 12 13 rings

> <PUBCHEM_HEAVY_ATOM_COUNT>
24

> <PUBCHEM_ATOM_DEF_STEREO_COUNT>
0

> <PUBCHEM_ATOM_UDEF_STEREO_COUNT>
0

> <PUBCHEM_BOND_DEF_STEREO_COUNT>
0

> <PUBCHEM_BOND_UDEF_STEREO_COUNT>
0

> <PUBCHEM_ISOTOPIC_ATOM_COUNT>
0

> <PUBCHEM_COMPONENT_COUNT>
1

> <PUBCHEM_CACTVS_TAUTO_COUNT>
2

> <PUBCHEM_CONFORMER_ID>
00317F3D00000001

> <PUBCHEM_MMFF94_ENERGY>
36.6182

> <PUBCHEM_FEATURE_SELFOVERLAP>
45.671

> <PUBCHEM_SHAPE_FINGERPRINT>
10 15 14117798033116410267
10066227 49 18336264635263016955
10319926 262 16630255709871486112
10753850 27 18409164398792374136
11505856 67 10732728342736946792
11991303 11 17462560611762304157
12166972 35 18113905931694721982
125118 31 10447664495442913683
12760667 363 18410013217168140369
12821665 9 8574417713480444137
13533116 47 18340487867281899376
1361 4 18266458904845955823
13668630 136 17895475942693733155
13673619 4 18259983773216102485
13782708 43 18260826012271293567
13955234 65 18195526111446401216
14123256 34 18410859828595477966
14216079 64 18408322194450121847
14251764 30 18334293166961785114
14347332 77 18408885114112386541
14528608 73 12396294885141985093
14565420 104 11887960938495237252
14774955 27 9079117756601038952
14919807 6 17532075143548482167
14931854 50 17386293078491481402
15342168 16 9367343734922673504
15475509 35 18343576365626919096
15475509 8 16950279586069788005
155225 6 11167356458570264650
15840311 113 9799424325479501929
16994733 274 9799698078269051215
17134984 74 17676206879912062162
17810953 82 10447922880938724026
1979834 28 16702029656011230372
20028762 73 18273214179939007094
20165401 70 18341330093257620519
2026 5 18114176411234362971
20567600 234 12679458707486412201
20771845 140 17060625507633623623
21344244 181 17895196640184738371
21365058 113 17603591849931033197
21585483 132 18268974535826986295
21641784 216 14057266593998048023
21682296 61 18334579036164851691
22061861 79 17967530203188101901
229767 8 17767974134764879854
2303208 19 17530968029301181097
23522609 53 18122942847254391685
23559900 14 17458631167557016557
23569943 247 18261673680166122011
270888 7 9511162055254304734
2748736 6 9367337120588543946
2916195 48 12391521879891695853
312425 54 15554440791426104238
328310 630 7853582318358288695
33532 11 18337673122384590883
34797466 226 16733264672295704541
3886686 26 16623800309648229998
397830 11 11959726127281190165
406291 66 18263077718118879826
4073 2 17910110544663252353
444735 82 9799426524603737395
445580 126 9295291608488383166
46194498 28 17240482550648657828
465052 167 18412548721347191508
474113 269 18131343108296062623
5104073 3 16700618020863101227
513202 73 18408323272729935245
531348 171 18411131442939044669
5364581 5 13398050064133069443
54039377 194 18340492167345964254
5718773 13 18261951839628338002
58260988 647 18333736814215333073
59682541 52 16443071603711628214
6438161 24 18260541242685460338
6608658 132 13407064869553450463
6712543 237 15410609247016535430
7970288 3 18338795603413297262

> <PUBCHEM_SHAPE_MULTIPOLES>
467.3
22.53
2.79
1.35
9.43
0.13
-0.1
-21.99
-1.32
-4.83
-0.34
-0.18
-0.2
-0.68

> <PUBCHEM_SHAPE_SELFOVERLAP>
971.859

> <PUBCHEM_SHAPE_VOLUME>
270.8

> <PUBCHEM_COORDINATE_TYPE>
2
5
10

$$$$
