5347285
  -OEChem-01171809263D

 30 31  0     0  0  0  0  0  0999 V2000
    1.6592    2.8429    1.5083 Cl  0  0  0  0  0  0  0  0  0  0  0  0
   -4.7436    1.7231   -1.6264 F   0  0  0  0  0  0  0  0  0  0  0  0
   -5.7820   -0.1913   -1.5295 F   0  0  0  0  0  0  0  0  0  0  0  0
   -5.8159    1.1549    0.1847 F   0  0  0  0  0  0  0  0  0  0  0  0
   -3.1384   -2.6897    1.8680 O   0  0  0  0  0  0  0  0  0  0  0  0
    6.5895   -0.8101   -0.9961 O   0  5  0  0  0  0  0  0  0  0  0  0
    4.9515   -2.2568   -1.2025 O   0  0  0  0  0  0  0  0  0  0  0  0
   -3.9771   -1.0329    0.5512 N   0  0  0  0  0  0  0  0  0  0  0  0
   -1.6325   -1.3227    0.8221 N   0  0  0  0  0  0  0  0  0  0  0  0
    5.3843   -1.1307   -0.8577 N   0  3  0  0  0  0  0  0  0  0  0  0
    2.2386    0.3971    0.4273 C   0  0  0  0  0  0  0  0  0  0  0  0
   -3.8025    0.0406   -0.2886 C   0  0  0  0  0  0  0  0  0  0  0  0
   -1.4707   -0.3096    0.0297 C   0  0  0  0  0  0  0  0  0  0  0  0
   -2.5693    0.4600   -0.5952 C   0  0  0  0  0  0  0  0  0  0  0  0
    0.8579    0.0030    0.5755 C   0  0  0  0  0  0  0  0  0  0  0  0
   -0.1196    0.1666   -0.3195 C   0  0  0  0  0  0  0  0  0  0  0  0
    3.1380   -0.5233   -0.1290 C   0  0  0  0  0  0  0  0  0  0  0  0
    2.7127    1.6589    0.8165 C   0  0  0  0  0  0  0  0  0  0  0  0
    4.4827   -0.1901   -0.2931 C   0  0  0  0  0  0  0  0  0  0  0  0
   -5.0436    0.6855   -0.8175 C   0  0  0  0  0  0  0  0  0  0  0  0
    4.0573    1.9919    0.6525 C   0  0  0  0  0  0  0  0  0  0  0  0
    4.9422    1.0674    0.0975 C   0  0  0  0  0  0  0  0  0  0  0  0
   -2.9189   -1.7347    1.1217 C   0  0  0  0  0  0  0  0  0  0  0  0
   -2.3627    1.2983   -1.2475 H   0  0  0  0  0  0  0  0  0  0  0  0
    0.6543   -0.4728    1.5333 H   0  0  0  0  0  0  0  0  0  0  0  0
    0.0434    0.6616   -1.2702 H   0  0  0  0  0  0  0  0  0  0  0  0
    2.7648   -1.5016   -0.4285 H   0  0  0  0  0  0  0  0  0  0  0  0
   -4.9267   -1.3250    0.7632 H   0  0  0  0  0  0  0  0  0  0  0  0
    4.4318    2.9677    0.9516 H   0  0  0  0  0  0  0  0  0  0  0  0
    5.9826    1.3617   -0.0152 H   0  0  0  0  0  0  0  0  0  0  0  0
  1 18  1  0  0  0  0
  2 20  1  0  0  0  0
  3 20  1  0  0  0  0
  4 20  1  0  0  0  0
  5 23  2  0  0  0  0
  6 10  1  0  0  0  0
  7 10  2  0  0  0  0
  8 12  1  0  0  0  0
  8 23  1  0  0  0  0
  8 28  1  0  0  0  0
  9 13  2  0  0  0  0
  9 23  1  0  0  0  0
 10 19  1  0  0  0  0
 11 15  1  0  0  0  0
 11 17  1  0  0  0  0
 11 18  2  0  0  0  0
 12 14  2  0  0  0  0
 12 20  1  0  0  0  0
 13 14  1  0  0  0  0
 13 16  1  0  0  0  0
 14 24  1  0  0  0  0
 15 16  2  0  0  0  0
 15 25  1  0  0  0  0
 16 26  1  0  0  0  0
 17 19  2  0  0  0  0
 17 27  1  0  0  0  0
 18 21  1  0  0  0  0
 19 22  1  0  0  0  0
 21 22  2  0  0  0  0
 21 29  1  0  0  0  0
 22 30  1  0  0  0  0
M  CHG  2   6  -1  10   1
M  END
> <PUBCHEM_COMPOUND_CID>
5347285

> <PUBCHEM_CONFORMER_RMSD>
0.6

> <PUBCHEM_CONFORMER_DIVERSEORDER>
4
7
6
3
10
11
2
13
1
8
5
9
12

> <PUBCHEM_MMFF94_PARTIAL_CHARGES>
30
1 -0.18
10 0.91
11 0.03
12 -0.03
13 0.42
14 -0.14
15 -0.18
16 -0.14
17 -0.15
18 0.18
19 0.13
2 -0.34
20 1.16
21 -0.15
22 -0.15
23 0.84
24 0.15
25 0.15
26 0.15
27 0.15
28 0.37
29 0.15
3 -0.34
30 0.15
4 -0.34
5 -0.57
6 -0.52
7 -0.52
8 -0.54
9 -0.66

> <PUBCHEM_EFFECTIVE_ROTOR_COUNT>
4

> <PUBCHEM_PHARMACOPHORE_FEATURES>
9
1 5 acceptor
1 6 acceptor
1 6 anion
1 7 acceptor
1 8 donor
1 9 acceptor
1 9 donor
6 11 17 18 19 21 22 rings
6 8 9 12 13 14 23 rings

> <PUBCHEM_HEAVY_ATOM_COUNT>
23

> <PUBCHEM_ATOM_DEF_STEREO_COUNT>
0

> <PUBCHEM_ATOM_UDEF_STEREO_COUNT>
0

> <PUBCHEM_BOND_DEF_STEREO_COUNT>
1

> <PUBCHEM_BOND_UDEF_STEREO_COUNT>
0

> <PUBCHEM_ISOTOPIC_ATOM_COUNT>
0

> <PUBCHEM_COMPONENT_COUNT>
1

> <PUBCHEM_CACTVS_TAUTO_COUNT>
3

> <PUBCHEM_CONFORMER_ID>
005197D500000004

> <PUBCHEM_MMFF94_ENERGY>
59.438

> <PUBCHEM_FEATURE_SELFOVERLAP>
45.842

> <PUBCHEM_SHAPE_FINGERPRINT>
10670039 82 17604143714420739460
10673678 19 17972611150280882092
10835480 77 18338233868814236464
10912923 1 15554455127831687466
11045977 3 18408886264883442814
11405975 8 18334008427862800968
11545043 162 18188495781998799939
11796584 16 18187085057758498834
12166972 35 16702295776031626977
12236239 1 16272208600034097220
12390115 104 18042963182513638573
12403259 415 18335144236248645794
12596602 18 14764342722206635478
12616971 3 16486986128031412995
13134695 92 17775565381642648488
13544592 145 18408040710535161090
13583140 156 18199186363678465423
13631057 29 13191207759030500929
13668630 136 16917351424598972998
14341114 328 14129058101653019513
14573314 32 18408040719003815524
15183329 4 18342456997869564945
15242439 84 18408602565140027076
15475509 35 12678917692933785900
17349148 13 15769779091005234957
17844677 252 17894918485170091880
18222031 100 14908183066692685264
18335252 114 17987786433462608397
200 152 17131830975901538697
20645477 56 17967529069680582999
20645477 70 18059855060875231422
20681677 155 17312823787903933298
21033648 29 18268420399013697705
21065201 7 18040994098140977594
21279426 13 18410292467225080520
21315764 119 17677338199798821238
21521239 73 18130488813315021071
21792961 116 18410583856083569502
22061861 79 18272652346296494934
221357 26 18343014467571817316
2215653 11 18411979152596050286
22224240 67 10953751018884542484
22289505 5 18342455967763631832
22393880 68 18334293197280433306
23402539 116 16917350316497591945
23559900 14 18334857242492258016
29717793 49 17346602958927308956
3004659 81 18408886214288067886
3298306 158 18408885118397064170
3545911 37 18187083949255476689
4015057 19 18130498738841945465
4073 2 18260269693889964618
4340502 62 11097859588463404208
5104073 3 18188484786851004104
542803 24 15502373434944956980
59682541 52 18272359837416912823
59755656 215 18260546684704585590
59755656 520 18409454657536413651
633830 44 18114735053329407974
7471813 234 16630524050891070696
90127 26 18187366583509529696
9971528 1 17846770824140935792

> <PUBCHEM_SHAPE_MULTIPOLES>
420.83
14.92
2.34
1.32
1.13
0.35
-0.14
-1.63
5.53
-1.46
-0.82
1.19
-0.24
3.2

> <PUBCHEM_SHAPE_SELFOVERLAP>
900.85

> <PUBCHEM_SHAPE_VOLUME>
234

> <PUBCHEM_COORDINATE_TYPE>
2
5
10

$$$$
