24761716
  -OEChem-01171810023D

 39 39  0     0  0  0  0  0  0999 V2000
    5.6062   -0.2858   -0.1125 S   0  0  0  0  0  0  0  0  0  0  0  0
    3.9844   -0.4624   -0.2258 O   0  0  0  0  0  0  0  0  0  0  0  0
    6.0105    0.8247   -0.9552 O   0  0  0  0  0  0  0  0  0  0  0  0
    5.9418   -0.2851    1.2998 O   0  0  0  0  0  0  0  0  0  0  0  0
    6.2322   -1.7290   -0.7948 N   0  0  0  0  0  0  0  0  0  0  0  0
   -4.8415   -0.4584   -0.1838 C   0  0  0  0  0  0  0  0  0  0  0  0
   -3.3802   -0.0157   -0.0019 C   0  0  0  0  0  0  0  0  0  0  0  0
   -5.7325    0.7785   -0.4293 C   0  0  0  0  0  0  0  0  0  0  0  0
   -5.4248   -1.2057    1.0369 C   0  0  0  0  0  0  0  0  0  0  0  0
   -4.9490   -1.4101   -1.3949 C   0  0  0  0  0  0  0  0  0  0  0  0
   -0.7285    0.7853    0.3276 C   0  0  0  0  0  0  0  0  0  0  0  0
    0.6893    1.2131    0.5040 C   0  0  0  0  0  0  0  0  0  0  0  0
   -2.7267    0.6709   -1.0254 C   0  0  0  0  0  0  0  0  0  0  0  0
   -2.7078   -0.3017    1.1862 C   0  0  0  0  0  0  0  0  0  0  0  0
   -1.4008    1.0713   -0.8606 C   0  0  0  0  0  0  0  0  0  0  0  0
   -1.3820    0.0987    1.3509 C   0  0  0  0  0  0  0  0  0  0  0  0
    1.6818    0.1461    0.0261 C   0  0  0  0  0  0  0  0  0  0  0  0
    3.1275    0.5652    0.2528 C   0  0  0  0  0  0  0  0  0  0  0  0
   -5.4588    1.3114   -1.3465 H   0  0  0  0  0  0  0  0  0  0  0  0
   -5.6558    1.4911    0.4006 H   0  0  0  0  0  0  0  0  0  0  0  0
   -6.7865    0.4933   -0.5276 H   0  0  0  0  0  0  0  0  0  0  0  0
   -6.4666   -1.4978    0.8556 H   0  0  0  0  0  0  0  0  0  0  0  0
   -4.8716   -2.1270    1.2536 H   0  0  0  0  0  0  0  0  0  0  0  0
   -5.4243   -0.5794    1.9368 H   0  0  0  0  0  0  0  0  0  0  0  0
   -5.9767   -1.7687   -1.5259 H   0  0  0  0  0  0  0  0  0  0  0  0
   -4.6586   -0.9230   -2.3322 H   0  0  0  0  0  0  0  0  0  0  0  0
   -4.3036   -2.2871   -1.2662 H   0  0  0  0  0  0  0  0  0  0  0  0
    0.8749    1.4457    1.5608 H   1  0  0  0  0  0  0  0  0  0  0  0
    0.8643    2.1517   -0.0380 H   0  0  0  0  0  0  0  0  0  0  0  0
   -3.2265    0.9056   -1.9605 H   0  0  0  0  0  0  0  0  0  0  0  0
   -3.1670   -0.8325    2.0125 H   0  0  0  0  0  0  0  0  0  0  0  0
   -0.9019    1.6038   -1.6660 H   0  0  0  0  0  0  0  0  0  0  0  0
   -0.8677   -0.1316    2.2804 H   0  0  0  0  0  0  0  0  0  0  0  0
    1.4986   -0.8054    0.5424 H   0  0  0  0  0  0  0  0  0  0  0  0
    1.5282   -0.0671   -1.0399 H   0  0  0  0  0  0  0  0  0  0  0  0
    3.3155    0.7246    1.3201 H   0  0  0  0  0  0  0  0  0  0  0  0
    3.3438    1.4943   -0.2857 H   0  0  0  0  0  0  0  0  0  0  0  0
    6.0669   -2.5964   -0.2683 H   0  0  0  0  0  0  0  0  0  0  0  0
    6.1020   -1.8538   -1.8070 H   0  0  0  0  0  0  0  0  0  0  0  0
  1  2  1  0  0  0  0
  1  3  2  0  0  0  0
  1  4  2  0  0  0  0
  1  5  1  0  0  0  0
  2 18  1  0  0  0  0
  5 38  1  0  0  0  0
  5 39  1  0  0  0  0
  6  7  1  0  0  0  0
  6  8  1  0  0  0  0
  6  9  1  0  0  0  0
  6 10  1  0  0  0  0
  7 13  2  0  0  0  0
  7 14  1  0  0  0  0
  8 19  1  0  0  0  0
  8 20  1  0  0  0  0
  8 21  1  0  0  0  0
  9 22  1  0  0  0  0
  9 23  1  0  0  0  0
  9 24  1  0  0  0  0
 10 25  1  0  0  0  0
 10 26  1  0  0  0  0
 10 27  1  0  0  0  0
 11 12  1  0  0  0  0
 11 15  2  0  0  0  0
 11 16  1  0  0  0  0
 12 17  1  0  0  0  0
 12 28  1  0  0  0  0
 12 29  1  0  0  0  0
 13 15  1  0  0  0  0
 13 30  1  0  0  0  0
 14 16  2  0  0  0  0
 14 31  1  0  0  0  0
 15 32  1  0  0  0  0
 16 33  1  0  0  0  0
 17 18  1  0  0  0  0
 17 34  1  0  0  0  0
 17 35  1  0  0  0  0
 18 36  1  0  0  0  0
 18 37  1  0  0  0  0
M  ISO  1  28   2
M  END
> <PUBCHEM_COMPOUND_CID>
24761716

> <PUBCHEM_CONFORMER_RMSD>
0.8

> <PUBCHEM_CONFORMER_DIVERSEORDER>
1
7
57
29
21
79
53
6
13
87
82
36
85
86
32
23
83
84
26
24
43
20
80
37
49
48
14
59
40
42
2
81
72
9
78
66
67
45
50
62
3
5
69
74
56
68
28
4
15
61
12
65
70
30
10
55
25
34
31
64
54
22
38
17
58
18
52
44
39
76
33
8
11
41
51
27
46
19
35
77
71
63
73
47
60
75
16

> <PUBCHEM_MMFF94_PARTIAL_CHARGES>
20
1 1.62
11 -0.14
12 0.14
13 -0.15
14 -0.15
15 -0.15
16 -0.15
18 0.28
2 -0.46
3 -0.65
30 0.15
31 0.15
32 0.15
33 0.15
38 0.42
39 0.42
4 -0.65
5 -0.98
6 0.14
7 -0.14

> <PUBCHEM_EFFECTIVE_ROTOR_COUNT>
6

> <PUBCHEM_PHARMACOPHORE_FEATURES>
5
1 3 acceptor
1 4 acceptor
1 5 donor
4 6 8 9 10 hydrophobe
6 7 11 13 14 15 16 rings

> <PUBCHEM_HEAVY_ATOM_COUNT>
18

> <PUBCHEM_ATOM_DEF_STEREO_COUNT>
0

> <PUBCHEM_ATOM_UDEF_STEREO_COUNT>
1

> <PUBCHEM_BOND_DEF_STEREO_COUNT>
0

> <PUBCHEM_BOND_UDEF_STEREO_COUNT>
0

> <PUBCHEM_ISOTOPIC_ATOM_COUNT>
1

> <PUBCHEM_COMPONENT_COUNT>
1

> <PUBCHEM_CACTVS_TAUTO_COUNT>
1

> <PUBCHEM_CONFORMER_ID>
0179D57400000001

> <PUBCHEM_MMFF94_ENERGY>
39.267

> <PUBCHEM_FEATURE_SELFOVERLAP>
25.389

> <PUBCHEM_SHAPE_FINGERPRINT>
10 15 14333402351161386866
106641 1 13038900080178166583
10968037 39 17240767297751727901
11089746 13 12252184099787142990
11315181 36 18410859866823058825
12236239 1 16845573123319984768
12516196 113 18202001040805797952
12596602 18 15482671299067251370
12670543 26 16732693939539340688
13167372 99 11314299547523361694
13288520 33 18409167736451318513
13533116 47 17918274273219323704
13668630 136 18410579466295060214
13685833 64 18334582373343936987
1420 363 17060340734153151182
14251718 22 17240483623815000264
14251752 14 17676480614766789949
14341114 176 14261353570301054074
15183329 4 16877939417231777896
17093844 174 18060132138016460009
17870717 6 17676494934050552755
1813 80 17632026299089482544
18222031 100 18342460340135070416
19784866 240 18272374178349792765
200 152 18410012139094529753
20281389 69 10592045751983344854
20374829 77 18113897173797572969
20645477 56 11672065237516552649
20871999 31 17168135724564256045
21637258 2 17917984001600938399
22224240 67 11096164145838903677
2297311 6 17894633647539943669
23035841 295 17989489619047551751
23198884 109 16588023507077096353
23402539 116 17749104483162981709
23559900 14 17458908252977144780
26918003 58 17203608203201383813
2767999 5 11891329876629660534
2838139 119 11819267871476145151
2916195 48 9871749078851372591
29717793 49 18114185212090772062
300161 21 14995999969676639824
3004659 81 17894352160142281786
34797466 226 18040444304400338644
351380 3 17846777403824877318
3545911 37 14779267505409640521
5104073 3 15697435675964176379
542803 24 12540697028831030688
559249 180 17703787033941290711
59682541 52 15719663261386890322
59755656 520 10809345550669510825
69474 34 12823290213009498891

> <PUBCHEM_SHAPE_MULTIPOLES>
351.69
17.08
1.27
1.25
20.61
0.17
-0.02
5.76
3.03
-0.18
0.23
-0.53
0.23
0.38

> <PUBCHEM_SHAPE_SELFOVERLAP>
694.841

> <PUBCHEM_SHAPE_VOLUME>
211.9

> <PUBCHEM_COORDINATE_TYPE>
2
5
10

$$$$
