1394220
  -OEChem-01171809523D

 55 58  0     0  0  0  0  0  0999 V2000
    1.9579    0.9334   -0.4803 S   0  0  0  0  0  0  0  0  0  0  0  0
   -3.1327   -0.2980   -1.2089 O   0  0  0  0  0  0  0  0  0  0  0  0
   -0.7353    0.8757   -1.0559 O   0  0  0  0  0  0  0  0  0  0  0  0
    5.9814    1.3973    0.3016 N   0  0  0  0  0  0  0  0  0  0  0  0
    0.2879   -1.0691   -0.1908 N   0  0  0  0  0  0  0  0  0  0  0  0
    2.6110   -3.8193    1.2152 N   0  0  0  0  0  0  0  0  0  0  0  0
    6.3178   -0.0415    0.1721 C   0  0  0  0  0  0  0  0  0  0  0  0
    4.6415    1.8425   -0.1785 C   0  0  0  0  0  0  0  0  0  0  0  0
    5.2388   -0.9278    0.8472 C   0  0  0  0  0  0  0  0  0  0  0  0
    3.6015    0.7444   -0.0465 C   0  0  0  0  0  0  0  0  0  0  0  0
    3.8641   -0.5306    0.4186 C   0  0  0  0  0  0  0  0  0  0  0  0
    7.6552   -0.2493    0.9131 C   0  0  0  0  0  0  0  0  0  0  0  0
    6.5344   -0.4590   -1.2938 C   0  0  0  0  0  0  0  0  0  0  0  0
    4.7733    2.3405   -1.6290 C   0  0  0  0  0  0  0  0  0  0  0  0
    4.2492    3.0492    0.7063 C   0  0  0  0  0  0  0  0  0  0  0  0
    2.6977   -1.3498    0.4293 C   0  0  0  0  0  0  0  0  0  0  0  0
    1.5903   -0.6761   -0.0346 C   0  0  0  0  0  0  0  0  0  0  0  0
    2.6498   -2.7124    0.8629 C   0  0  0  0  0  0  0  0  0  0  0  0
   -0.7771   -0.2910   -0.6804 C   0  0  0  0  0  0  0  0  0  0  0  0
   -2.0727   -1.0821   -0.7041 C   0  0  0  0  0  0  0  0  0  0  0  0
   -4.3957   -0.5739   -0.7410 C   0  0  0  0  0  0  0  0  0  0  0  0
   -5.1449    0.3986   -0.0685 C   0  0  0  0  0  0  0  0  0  0  0  0
   -6.4401    0.0664    0.3952 C   0  0  0  0  0  0  0  0  0  0  0  0
   -4.8994   -1.8521   -0.9589 C   0  0  0  0  0  0  0  0  0  0  0  0
   -4.6455    1.6918    0.1568 C   0  0  0  0  0  0  0  0  0  0  0  0
   -6.9397   -1.2266    0.1697 C   0  0  0  0  0  0  0  0  0  0  0  0
   -6.1733   -2.1787   -0.5032 C   0  0  0  0  0  0  0  0  0  0  0  0
   -7.1977    1.0371    1.0706 C   0  0  0  0  0  0  0  0  0  0  0  0
   -5.4119    2.6436    0.8299 C   0  0  0  0  0  0  0  0  0  0  0  0
   -6.6857    2.3169    1.2859 C   0  0  0  0  0  0  0  0  0  0  0  0
    5.2924   -0.8241    1.9394 H   0  0  0  0  0  0  0  0  0  0  0  0
    5.4256   -1.9835    0.6148 H   0  0  0  0  0  0  0  0  0  0  0  0
    6.7163    1.9745   -0.1057 H   0  0  0  0  0  0  0  0  0  0  0  0
    8.4624    0.3355    0.4561 H   0  0  0  0  0  0  0  0  0  0  0  0
    7.9569   -1.3030    0.8946 H   0  0  0  0  0  0  0  0  0  0  0  0
    7.5806    0.0526    1.9646 H   0  0  0  0  0  0  0  0  0  0  0  0
    6.9682   -1.4646   -1.3507 H   0  0  0  0  0  0  0  0  0  0  0  0
    7.2258    0.2214   -1.8043 H   0  0  0  0  0  0  0  0  0  0  0  0
    5.6029   -0.4905   -1.8657 H   0  0  0  0  0  0  0  0  0  0  0  0
    5.5819    3.0745   -1.7303 H   0  0  0  0  0  0  0  0  0  0  0  0
    4.9654    1.5329   -2.3401 H   0  0  0  0  0  0  0  0  0  0  0  0
    3.8550    2.8384   -1.9635 H   0  0  0  0  0  0  0  0  0  0  0  0
    5.0134    3.8353    0.6693 H   0  0  0  0  0  0  0  0  0  0  0  0
    3.3050    3.5032    0.3839 H   0  0  0  0  0  0  0  0  0  0  0  0
    4.1283    2.7514    1.7553 H   0  0  0  0  0  0  0  0  0  0  0  0
    0.0839   -2.0283    0.0795 H   0  0  0  0  0  0  0  0  0  0  0  0
   -1.9310   -1.9566   -1.3492 H   0  0  0  0  0  0  0  0  0  0  0  0
   -2.2782   -1.4179    0.3208 H   0  0  0  0  0  0  0  0  0  0  0  0
   -4.3195   -2.6019   -1.4896 H   0  0  0  0  0  0  0  0  0  0  0  0
   -3.6541    1.9796   -0.1864 H   0  0  0  0  0  0  0  0  0  0  0  0
   -7.9329   -1.5038    0.5167 H   0  0  0  0  0  0  0  0  0  0  0  0
   -6.5725   -3.1745   -0.6730 H   0  0  0  0  0  0  0  0  0  0  0  0
   -8.1957    0.8038    1.4358 H   0  0  0  0  0  0  0  0  0  0  0  0
   -5.0140    3.6402    0.9978 H   0  0  0  0  0  0  0  0  0  0  0  0
   -7.2818    3.0584    1.8098 H   0  0  0  0  0  0  0  0  0  0  0  0
  1 10  1  0  0  0  0
  1 17  1  0  0  0  0
  2 20  1  0  0  0  0
  2 21  1  0  0  0  0
  3 19  2  0  0  0  0
  4  7  1  0  0  0  0
  4  8  1  0  0  0  0
  4 33  1  0  0  0  0
  5 17  1  0  0  0  0
  5 19  1  0  0  0  0
  5 46  1  0  0  0  0
  6 18  3  0  0  0  0
  7  9  1  0  0  0  0
  7 12  1  0  0  0  0
  7 13  1  0  0  0  0
  8 10  1  0  0  0  0
  8 14  1  0  0  0  0
  8 15  1  0  0  0  0
  9 11  1  0  0  0  0
  9 31  1  0  0  0  0
  9 32  1  0  0  0  0
 10 11  2  0  0  0  0
 11 16  1  0  0  0  0
 12 34  1  0  0  0  0
 12 35  1  0  0  0  0
 12 36  1  0  0  0  0
 13 37  1  0  0  0  0
 13 38  1  0  0  0  0
 13 39  1  0  0  0  0
 14 40  1  0  0  0  0
 14 41  1  0  0  0  0
 14 42  1  0  0  0  0
 15 43  1  0  0  0  0
 15 44  1  0  0  0  0
 15 45  1  0  0  0  0
 16 17  2  0  0  0  0
 16 18  1  0  0  0  0
 19 20  1  0  0  0  0
 20 47  1  0  0  0  0
 20 48  1  0  0  0  0
 21 22  1  0  0  0  0
 21 24  2  0  0  0  0
 22 23  1  0  0  0  0
 22 25  2  0  0  0  0
 23 26  1  0  0  0  0
 23 28  2  0  0  0  0
 24 27  1  0  0  0  0
 24 49  1  0  0  0  0
 25 29  1  0  0  0  0
 25 50  1  0  0  0  0
 26 27  2  0  0  0  0
 26 51  1  0  0  0  0
 27 52  1  0  0  0  0
 28 30  1  0  0  0  0
 28 53  1  0  0  0  0
 29 30  2  0  0  0  0
 29 54  1  0  0  0  0
 30 55  1  0  0  0  0
M  END
> <PUBCHEM_COMPOUND_CID>
1394220

> <PUBCHEM_CONFORMER_RMSD>
0.8

> <PUBCHEM_CONFORMER_DIVERSEORDER>
1
149
89
236
13
203
263
287
314
50
130
208
79
364
207
260
85
21
283
177
174
180
168
195
274
119
357
229
310
270
266
204
339
120
259
16
192
221
294
81
9
141
223
102
148
199
153
254
99
166
336
22
292
325
248
205
75
247
344
280
186
258
249
341
112
5
279
218
369
306
111
251
340
200
175
268
176
193
343
172
206
170
123
38
285
245
104
331
312
264
181
345
359
35
31
224
366
269
271
337
39
252
242
190
244
349
309
146
143
367
17
183
346
88
202
189
297
342
109
317
97
194
100
361
262
212
243
261
3
333
347
298
246
116
227
265
108
275
155
69
319
231
335
295
256
290
161
313
358
83
4
213
86
96
196
348
128
68
19
323
250
29
273
157
188
144
124
70
291
12
131
72
354
115
46
356
286
315
368
311
92
299
158
322
363
55
237
44
36
326
353
101
328
25
106
41
211
219
45
232
54
163
182
142
139
253
360
7
334
14
179
362
154
351
255
184
302
305
147
76
114
160
49
93
284
136
2
329
241
233
26
201
132
11
52
238
121
171
98
281
42
159
240
307
288
82
129
214
60
6
216
226
122
18
103
327
187
30
164
140
300
33
324
235
126
257
365
308
15
191
278
27
62
301
134
330
8
138
87
51
95
296
198
352
28
23
165
105
118
222
73
107
293
77
350
316
355
225
59
63
43
152
277
37
71
318
169
303
320
156
127
90
80
321
84
239
113
162
137
64
24
217
135
304
272
20
40
133
110
48
47
178
91
150
215
32
53
34
332
173
228
65
185
210
10
234
267
338
220
56
94
57
151
276
197
209
117
74
167
61
145
78
125
230
282
289
58
66
67

> <PUBCHEM_MMFF94_PARTIAL_CHARGES>
33
1 -0.08
10 -0.14
11 -0.18
16 0.02
17 0.1
18 0.54
19 0.57
2 -0.36
20 0.34
21 0.08
24 -0.15
25 -0.15
26 -0.15
27 -0.15
28 -0.15
29 -0.15
3 -0.57
30 -0.15
33 0.36
4 -0.9
46 0.37
49 0.15
5 -0.49
50 0.15
51 0.15
52 0.15
53 0.15
54 0.15
55 0.15
6 -0.56
7 0.27
8 0.45
9 0.18

> <PUBCHEM_EFFECTIVE_ROTOR_COUNT>
5.8

> <PUBCHEM_PHARMACOPHORE_FEATURES>
12
1 2 acceptor
1 3 acceptor
1 4 cation
1 4 donor
1 5 donor
1 6 acceptor
3 7 12 13 hydrophobe
3 8 14 15 hydrophobe
5 1 10 11 16 17 rings
6 21 22 23 24 26 27 rings
6 22 23 25 28 29 30 rings
6 4 7 8 9 10 11 rings

> <PUBCHEM_HEAVY_ATOM_COUNT>
30

> <PUBCHEM_ATOM_DEF_STEREO_COUNT>
0

> <PUBCHEM_ATOM_UDEF_STEREO_COUNT>
0

> <PUBCHEM_BOND_DEF_STEREO_COUNT>
0

> <PUBCHEM_BOND_UDEF_STEREO_COUNT>
0

> <PUBCHEM_ISOTOPIC_ATOM_COUNT>
0

> <PUBCHEM_COMPONENT_COUNT>
1

> <PUBCHEM_CACTVS_TAUTO_COUNT>
3

> <PUBCHEM_CONFORMER_ID>
0015462C00000001

> <PUBCHEM_MMFF94_ENERGY>
83.5892

> <PUBCHEM_FEATURE_SELFOVERLAP>
60.984

> <PUBCHEM_SHAPE_FINGERPRINT>
10 15 18341901767048313771
100830 39 18343584010817074241
10190108 129 18187368680123333652
10299344 5 18408041827152824662
10595046 47 18411415129465482539
10674148 151 18131071524861448190
11315181 36 18408882958819038631
11456790 92 18410846673590679704
12107183 9 17979071575287754739
12236239 1 18343582957884798806
12596602 18 18343866640981069443
13167372 99 18343019999563229232
13782708 43 16299499466948117770
13785724 45 17765999402510561886
14251764 18 18408041814642443063
14394314 77 18409733924942775177
14849402 71 18335422430261446820
14856354 85 18200876288024618831
14933364 13 18273497879328123973
15183329 4 18408878538374440525
15419008 145 18337381644197271176
1577012 14 18411422842778587492
16110190 28 18412547583613699253
16112460 7 18260546697458132499
19377110 9 18335135401980861571
21065198 48 18411978045101246647
21315763 28 18342454876403777039
22122407 14 18343029912469237321
23522609 53 18189075185967281436
23576562 1 11022953215516193026
24771293 8 18269541893165283024
3178227 256 18113614582925879162
335507 130 18131350847273677271
3663271 9 18409729548059461523
394071 54 17023188296438795652
397830 11 14635445968553530589
4073 2 18261116317622072419
4093350 32 17775002354722771926
504579 68 18271232894487210135
5104073 3 18335132115903651707
5758199 1 18334858324903287386
58083652 198 17895185645422024533

> <PUBCHEM_SHAPE_MULTIPOLES>
594.55
23.79
3.12
1.2
12.16
0.1
-0.11
-5
3.87
0.1
0.86
-0.33
-0.07
-3.04

> <PUBCHEM_SHAPE_SELFOVERLAP>
1279.736

> <PUBCHEM_SHAPE_VOLUME>
329.4

> <PUBCHEM_COORDINATE_TYPE>
2
5
10

$$$$
