2368571
  -OEChem-01171809503D

 43 44  0     0  0  0  0  0  0999 V2000
    2.3990    0.7639   -2.1196 O   0  0  0  0  0  0  0  0  0  0  0  0
   -4.7907   -2.8377    0.2881 O   0  5  0  0  0  0  0  0  0  0  0  0
   -2.9363   -2.0253   -0.5606 O   0  0  0  0  0  0  0  0  0  0  0  0
    3.4643   -0.2262   -0.3125 N   0  0  0  0  0  0  0  0  0  0  0  0
   -4.0830   -1.8714   -0.0799 N   0  3  0  0  0  0  0  0  0  0  0  0
    1.3353    0.6124    2.3908 N   0  0  0  0  0  0  0  0  0  0  0  0
    4.7753   -0.2931   -0.9189 C   0  0  0  0  0  0  0  0  0  0  0  0
    5.5640    0.9970   -0.6695 C   0  0  0  0  0  0  0  0  0  0  0  0
    5.5485   -1.5209   -0.4259 C   0  0  0  0  0  0  0  0  0  0  0  0
    6.0190    1.1325    0.7836 C   0  0  0  0  0  0  0  0  0  0  0  0
    6.0035   -1.3811    1.0268 C   0  0  0  0  0  0  0  0  0  0  0  0
    6.7954   -0.0960    1.2476 C   0  0  0  0  0  0  0  0  0  0  0  0
    2.3746    0.3056   -0.9790 C   0  0  0  0  0  0  0  0  0  0  0  0
    1.1123    0.3480   -0.1727 C   0  0  0  0  0  0  0  0  0  0  0  0
   -0.0722    0.3335   -0.8125 C   0  0  0  0  0  0  0  0  0  0  0  0
    1.2319    0.4945    1.2411 C   0  0  0  0  0  0  0  0  0  0  0  0
   -1.3812    0.4598   -0.1957 C   0  0  0  0  0  0  0  0  0  0  0  0
   -3.8733    0.5643   -0.3349 C   0  0  0  0  0  0  0  0  0  0  0  0
   -2.5211    0.4356   -0.9054 C   0  0  0  0  0  0  0  0  0  0  0  0
   -4.6008   -0.5517    0.0523 C   0  0  0  0  0  0  0  0  0  0  0  0
   -4.3967    1.8426   -0.1981 C   0  0  0  0  0  0  0  0  0  0  0  0
   -5.8783   -0.3866    0.5877 C   0  0  0  0  0  0  0  0  0  0  0  0
   -5.6743    2.0074    0.3372 C   0  0  0  0  0  0  0  0  0  0  0  0
   -6.4151    0.8930    0.7300 C   0  0  0  0  0  0  0  0  0  0  0  0
    4.6299   -0.3980   -2.0014 H   0  0  0  0  0  0  0  0  0  0  0  0
    4.9664    1.8740   -0.9453 H   0  0  0  0  0  0  0  0  0  0  0  0
    6.4503    1.0022   -1.3168 H   0  0  0  0  0  0  0  0  0  0  0  0
    6.4331   -1.6633   -1.0598 H   0  0  0  0  0  0  0  0  0  0  0  0
    4.9348   -2.4240   -0.5291 H   0  0  0  0  0  0  0  0  0  0  0  0
    5.1468    1.2808    1.4319 H   0  0  0  0  0  0  0  0  0  0  0  0
    6.6468    2.0246    0.8890 H   0  0  0  0  0  0  0  0  0  0  0  0
    6.6241   -2.2430    1.2980 H   0  0  0  0  0  0  0  0  0  0  0  0
    5.1361   -1.3976    1.6970 H   0  0  0  0  0  0  0  0  0  0  0  0
    7.7444   -0.1547    0.7003 H   0  0  0  0  0  0  0  0  0  0  0  0
    7.0460    0.0052    2.3096 H   0  0  0  0  0  0  0  0  0  0  0  0
    3.3663   -0.5548    0.6426 H   0  0  0  0  0  0  0  0  0  0  0  0
   -0.0825    0.2361   -1.8974 H   0  0  0  0  0  0  0  0  0  0  0  0
   -1.4322    0.5730    0.8837 H   0  0  0  0  0  0  0  0  0  0  0  0
   -2.4973    0.3320   -1.9887 H   0  0  0  0  0  0  0  0  0  0  0  0
   -3.8322    2.7211   -0.5003 H   0  0  0  0  0  0  0  0  0  0  0  0
   -6.4887   -1.2280    0.9061 H   0  0  0  0  0  0  0  0  0  0  0  0
   -6.0924    3.0037    0.4478 H   0  0  0  0  0  0  0  0  0  0  0  0
   -7.4098    1.0220    1.1467 H   0  0  0  0  0  0  0  0  0  0  0  0
  1 13  2  0  0  0  0
  2  5  1  0  0  0  0
  3  5  2  0  0  0  0
  4  7  1  0  0  0  0
  4 13  1  0  0  0  0
  4 36  1  0  0  0  0
  5 20  1  0  0  0  0
  6 16  3  0  0  0  0
  7  8  1  0  0  0  0
  7  9  1  0  0  0  0
  7 25  1  0  0  0  0
  8 10  1  0  0  0  0
  8 26  1  0  0  0  0
  8 27  1  0  0  0  0
  9 11  1  0  0  0  0
  9 28  1  0  0  0  0
  9 29  1  0  0  0  0
 10 12  1  0  0  0  0
 10 30  1  0  0  0  0
 10 31  1  0  0  0  0
 11 12  1  0  0  0  0
 11 32  1  0  0  0  0
 11 33  1  0  0  0  0
 12 34  1  0  0  0  0
 12 35  1  0  0  0  0
 13 14  1  0  0  0  0
 14 15  2  0  0  0  0
 14 16  1  0  0  0  0
 15 17  1  0  0  0  0
 15 37  1  0  0  0  0
 17 19  2  0  0  0  0
 17 38  1  0  0  0  0
 18 19  1  0  0  0  0
 18 20  1  0  0  0  0
 18 21  2  0  0  0  0
 19 39  1  0  0  0  0
 20 22  2  0  0  0  0
 21 23  1  0  0  0  0
 21 40  1  0  0  0  0
 22 24  1  0  0  0  0
 22 41  1  0  0  0  0
 23 24  2  0  0  0  0
 23 42  1  0  0  0  0
 24 43  1  0  0  0  0
M  CHG  2   2  -1   5   1
M  END
> <PUBCHEM_COMPOUND_CID>
2368571

> <PUBCHEM_CONFORMER_RMSD>
0.8

> <PUBCHEM_CONFORMER_DIVERSEORDER>
1
50
71
5
34
37
11
73
72
33
55
47
10
6
39
74
54
27
58
43
67
35
60
4
49
12
17
14
57
23
13
53
3
51
76
31
29
22
25
15
59
64
68
70
21
56
8
20
61
48
7
46
16
38
2
66
9
65
19
62
28
41
69
18
42
63
40
52
30
26
45
44
36
32
24
75

> <PUBCHEM_MMFF94_PARTIAL_CHARGES>
27
1 -0.57
13 0.62
14 0.08
15 -0.15
16 0.49
17 -0.15
18 0.03
19 -0.18
2 -0.52
20 0.13
21 -0.15
22 -0.15
23 -0.15
24 -0.15
3 -0.52
36 0.37
37 0.15
38 0.15
39 0.15
4 -0.73
40 0.15
41 0.15
42 0.15
43 0.15
5 0.91
6 -0.56
7 0.3

> <PUBCHEM_EFFECTIVE_ROTOR_COUNT>
7.2

> <PUBCHEM_PHARMACOPHORE_FEATURES>
8
1 1 acceptor
1 2 acceptor
1 2 anion
1 3 acceptor
1 4 donor
1 6 acceptor
6 18 20 21 22 23 24 rings
6 7 8 9 10 11 12 rings

> <PUBCHEM_HEAVY_ATOM_COUNT>
24

> <PUBCHEM_ATOM_DEF_STEREO_COUNT>
0

> <PUBCHEM_ATOM_UDEF_STEREO_COUNT>
0

> <PUBCHEM_BOND_DEF_STEREO_COUNT>
2

> <PUBCHEM_BOND_UDEF_STEREO_COUNT>
0

> <PUBCHEM_ISOTOPIC_ATOM_COUNT>
0

> <PUBCHEM_COMPONENT_COUNT>
1

> <PUBCHEM_CACTVS_TAUTO_COUNT>
2

> <PUBCHEM_CONFORMER_ID>
0024243B00000001

> <PUBCHEM_MMFF94_ENERGY>
58.3596

> <PUBCHEM_FEATURE_SELFOVERLAP>
40.679

> <PUBCHEM_SHAPE_FINGERPRINT>
10 15 17917708024324843208
10319926 262 18271799155596555339
10591671 39 7925624514363226571
10906281 52 15985111842162178052
11315181 36 18261394473031875917
11524674 6 17775283850889249215
11545043 162 18272931661252906107
11796584 16 18342460318264809526
11991303 11 13190638151592746152
12166972 35 17022627468331126228
12236239 1 17894354371370243293
12516196 113 15123787375039860280
12596602 18 18412542120140661234
12616971 3 17385731313246887773
13533116 47 18130788894433124334
13668630 136 14706928432231935984
13862211 1 15936125249281282316
1420 363 14779270799639097805
14251751 18 18341051903582198655
14251764 18 18059855073923481549
14528608 73 11095881571249987748
14849402 71 17895766226269476340
15021287 119 17385449817011923861
15183329 4 17821445764001712750
15326921 28 18047466717569397181
15348495 7 18271522087024246456
15716309 27 17748828514075887941
17093844 174 18342172267966988017
20681677 155 18335140882359092433
21150785 3 11242260636730139090
21792934 111 16199867242445494346
220451 1 18113904849231172238
23035841 295 17967534558295444009
23081809 10 17821734952760253836
23522609 53 17532965759802869588
23536379 177 18408042892478949600
23559900 14 18342451586822987689
23569943 247 17024578989785110906
3004659 81 18336273366746413630
312425 54 18335419058547829130
3663271 9 18408039637136293528
394071 54 15338829911578350290
397830 11 18059569260797725890
4073 2 18187933927731576330
4169191 19 15194990713468423104
4340502 62 18341607115001532654
5104073 3 18339088197680191657
5364581 5 18057032725805996897
59755656 520 16443071599479678715
7226269 152 17917431986945658265
7495541 125 18271242824193323160

> <PUBCHEM_SHAPE_MULTIPOLES>
461.36
19.9
1.86
1.39
5.69
1.01
-0.25
0.59
-4.45
-2.43
-0.07
1.57
-0.26
-0.24

> <PUBCHEM_SHAPE_SELFOVERLAP>
965.432

> <PUBCHEM_SHAPE_VOLUME>
255.7

> <PUBCHEM_COORDINATE_TYPE>
2
5
10

$$$$
