3664264
  -OEChem-01171809523D

 53 58  0     1  0  0  0  0  0999 V2000
    2.6057   -2.4832   -0.8325 O   0  0  0  0  0  0  0  0  0  0  0  0
   -0.3182    4.2125    0.9500 O   0  0  0  0  0  0  0  0  0  0  0  0
    0.5395    4.7042   -1.6473 O   0  0  0  0  0  0  0  0  0  0  0  0
    6.8739   -1.5406    1.0065 O   0  0  0  0  0  0  0  0  0  0  0  0
   -1.4278   -2.4730   -0.8757 N   0  0  0  0  0  0  0  0  0  0  0  0
    0.5800   -3.3900   -1.5514 N   0  0  0  0  0  0  0  0  0  0  0  0
   -1.8252   -0.7618    0.4148 N   0  0  0  0  0  0  0  0  0  0  0  0
   -2.7653   -2.4300   -0.8473 N   0  0  0  0  0  0  0  0  0  0  0  0
   -6.6642   -1.1375    0.1241 N   0  0  0  0  0  0  0  0  0  0  0  0
    1.3282   -0.3745    0.6829 C   0  0  1  0  0  0  0  0  0  0  0  0
    0.5597   -1.4348   -0.0978 C   0  0  0  0  0  0  0  0  0  0  0  0
    2.8024   -0.6905    0.7918 C   0  0  0  0  0  0  0  0  0  0  0  0
    1.1170    0.9771    0.0661 C   0  0  0  0  0  0  0  0  0  0  0  0
   -0.8663   -1.4811   -0.1281 C   0  0  0  0  0  0  0  0  0  0  0  0
    3.3551   -1.7120    0.0187 C   0  0  0  0  0  0  0  0  0  0  0  0
    1.2135   -2.4039   -0.7996 C   0  0  0  0  0  0  0  0  0  0  0  0
    3.6369    0.0342    1.6560 C   0  0  0  0  0  0  0  0  0  0  0  0
    0.4913    1.9782    0.8003 C   0  0  0  0  0  0  0  0  0  0  0  0
    1.5486    1.2153   -1.2339 C   0  0  0  0  0  0  0  0  0  0  0  0
    4.7213   -1.9953    0.0838 C   0  0  0  0  0  0  0  0  0  0  0  0
   -0.7154   -3.4139   -1.5803 C   0  0  0  0  0  0  0  0  0  0  0  0
    5.0008   -0.2516    1.7279 C   0  0  0  0  0  0  0  0  0  0  0  0
    0.2945    3.2344    0.2267 C   0  0  0  0  0  0  0  0  0  0  0  0
    5.5432   -1.2638    0.9392 C   0  0  0  0  0  0  0  0  0  0  0  0
    1.3518    2.4714   -1.8073 C   0  0  0  0  0  0  0  0  0  0  0  0
   -2.9583   -1.3740   -0.0508 C   0  0  0  0  0  0  0  0  0  0  0  0
    0.7249    3.4809   -1.0770 C   0  0  0  0  0  0  0  0  0  0  0  0
   -4.2666   -0.9020    0.3040 C   0  0  0  0  0  0  0  0  0  0  0  0
   -4.4274    0.1998    1.1352 C   0  0  0  0  0  0  0  0  0  0  0  0
   -5.4049   -1.5306   -0.1714 C   0  0  0  0  0  0  0  0  0  0  0  0
   -1.7383    4.2997    0.8502 C   0  0  0  0  0  0  0  0  0  0  0  0
    1.5798    5.6643   -1.4744 C   0  0  0  0  0  0  0  0  0  0  0  0
   -5.7073    0.6345    1.4617 C   0  0  0  0  0  0  0  0  0  0  0  0
   -6.7828   -0.0622    0.9350 C   0  0  0  0  0  0  0  0  0  0  0  0
    0.9315   -0.3935    1.7088 H   0  0  0  0  0  0  0  0  0  0  0  0
    3.2294    0.8287    2.2761 H   0  0  0  0  0  0  0  0  0  0  0  0
    0.1537    1.7932    1.8168 H   0  0  0  0  0  0  0  0  0  0  0  0
    2.0392    0.4467   -1.8241 H   0  0  0  0  0  0  0  0  0  0  0  0
    5.1438   -2.7894   -0.5269 H   0  0  0  0  0  0  0  0  0  0  0  0
   -1.2578   -4.1774   -2.1600 H   0  0  0  0  0  0  0  0  0  0  0  0
    5.6292    0.3246    2.4017 H   0  0  0  0  0  0  0  0  0  0  0  0
    1.6889    2.6565   -2.8237 H   0  0  0  0  0  0  0  0  0  0  0  0
    7.2889   -0.9391    1.6484 H   0  0  0  0  0  0  0  0  0  0  0  0
   -3.5761    0.7394    1.5420 H   0  0  0  0  0  0  0  0  0  0  0  0
   -5.3643   -2.3969   -0.8249 H   0  0  0  0  0  0  0  0  0  0  0  0
   -2.0762    5.1257    1.4817 H   0  0  0  0  0  0  0  0  0  0  0  0
   -2.0402    4.5019   -0.1823 H   0  0  0  0  0  0  0  0  0  0  0  0
   -2.2051    3.3747    1.2038 H   0  0  0  0  0  0  0  0  0  0  0  0
    1.2814    6.5874   -1.9788 H   0  0  0  0  0  0  0  0  0  0  0  0
    1.7330    5.8797   -0.4122 H   0  0  0  0  0  0  0  0  0  0  0  0
    2.5113    5.3053   -1.9235 H   0  0  0  0  0  0  0  0  0  0  0  0
   -5.8582    1.4918    2.1077 H   0  0  0  0  0  0  0  0  0  0  0  0
   -7.8015    0.2366    1.1593 H   0  0  0  0  0  0  0  0  0  0  0  0
  1 15  1  0  0  0  0
  1 16  1  0  0  0  0
  2 23  1  0  0  0  0
  2 31  1  0  0  0  0
  3 27  1  0  0  0  0
  3 32  1  0  0  0  0
  4 24  1  0  0  0  0
  4 43  1  0  0  0  0
  5  8  1  0  0  0  0
  5 14  1  0  0  0  0
  5 21  1  0  0  0  0
  6 16  1  0  0  0  0
  6 21  2  0  0  0  0
  7 14  2  0  0  0  0
  7 26  1  0  0  0  0
  8 26  2  0  0  0  0
  9 30  1  0  0  0  0
  9 34  2  0  0  0  0
 10 11  1  0  0  0  0
 10 12  1  0  0  0  0
 10 13  1  0  0  0  0
 10 35  1  0  0  0  0
 11 14  1  0  0  0  0
 11 16  2  0  0  0  0
 12 15  2  0  0  0  0
 12 17  1  0  0  0  0
 13 18  2  0  0  0  0
 13 19  1  0  0  0  0
 15 20  1  0  0  0  0
 17 22  2  0  0  0  0
 17 36  1  0  0  0  0
 18 23  1  0  0  0  0
 18 37  1  0  0  0  0
 19 25  2  0  0  0  0
 19 38  1  0  0  0  0
 20 24  2  0  0  0  0
 20 39  1  0  0  0  0
 21 40  1  0  0  0  0
 22 24  1  0  0  0  0
 22 41  1  0  0  0  0
 23 27  2  0  0  0  0
 25 27  1  0  0  0  0
 25 42  1  0  0  0  0
 26 28  1  0  0  0  0
 28 29  1  0  0  0  0
 28 30  2  0  0  0  0
 29 33  2  0  0  0  0
 29 44  1  0  0  0  0
 30 45  1  0  0  0  0
 31 46  1  0  0  0  0
 31 47  1  0  0  0  0
 31 48  1  0  0  0  0
 32 49  1  0  0  0  0
 32 50  1  0  0  0  0
 32 51  1  0  0  0  0
 33 34  1  0  0  0  0
 33 52  1  0  0  0  0
 34 53  1  0  0  0  0
M  END
> <PUBCHEM_COMPOUND_CID>
3664264

> <PUBCHEM_CONFORMER_RMSD>
0.8

> <PUBCHEM_CONFORMER_DIVERSEORDER>
1
11
14
7
3
16
5
9
13
12
4
8
10
15
2
6

> <PUBCHEM_MMFF94_PARTIAL_CHARGES>
46
1 -0.16
10 0.43
11 -0.09
12 -0.14
13 -0.14
14 0.14
15 0.08
16 0.25
17 -0.15
18 -0.15
19 -0.15
2 -0.36
20 -0.15
21 0.4
22 -0.15
23 0.08
24 0.08
25 -0.15
26 0.46
27 0.08
28 0.05
29 -0.15
3 -0.36
30 0.16
31 0.28
32 0.28
33 -0.15
34 0.16
36 0.15
37 0.15
38 0.15
39 0.15
4 -0.53
40 0.06
41 0.15
42 0.15
43 0.45
44 0.15
45 0.15
5 0.56
52 0.15
53 0.15
6 -0.62
7 -0.57
8 -0.71
9 -0.62

> <PUBCHEM_EFFECTIVE_ROTOR_COUNT>
4.4

> <PUBCHEM_PHARMACOPHORE_FEATURES>
14
1 1 acceptor
1 2 acceptor
1 3 acceptor
1 4 donor
1 9 acceptor
3 5 6 21 cation
3 5 7 14 cation
3 7 8 26 cation
5 5 7 8 14 26 rings
6 1 10 11 12 15 16 rings
6 12 15 17 20 22 24 rings
6 13 18 19 23 25 27 rings
6 5 6 11 14 16 21 rings
6 9 28 29 30 33 34 rings

> <PUBCHEM_HEAVY_ATOM_COUNT>
34

> <PUBCHEM_ATOM_DEF_STEREO_COUNT>
0

> <PUBCHEM_ATOM_UDEF_STEREO_COUNT>
1

> <PUBCHEM_BOND_DEF_STEREO_COUNT>
0

> <PUBCHEM_BOND_UDEF_STEREO_COUNT>
0

> <PUBCHEM_ISOTOPIC_ATOM_COUNT>
0

> <PUBCHEM_COMPONENT_COUNT>
1

> <PUBCHEM_CACTVS_TAUTO_COUNT>
3

> <PUBCHEM_CONFORMER_ID>
0037E98800000001

> <PUBCHEM_MMFF94_ENERGY>
115.3265

> <PUBCHEM_FEATURE_SELFOVERLAP>
74.124

> <PUBCHEM_SHAPE_FINGERPRINT>
10006869 2 18049708638567281475
10162869 55 18271803545987301727
102385 1 17684938285820453994
10439779 11 18057885938629411769
10483366 6 18195557932837388476
10675989 125 17974865161464875508
10688039 33 18335420110851817770
10937287 8 17616544286211686437
10940486 97 18129376180093124838
11297750 10 17625558791069148582
11421498 54 17459461170050220858
12156800 1 17980790162921302020
12166972 35 18411980295468632475
12422481 6 18268711614807235578
12633257 1 18186521029499371083
13004483 165 18409439289795236272
13383668 362 18050840319594849587
133893 2 17248613580674536078
13540713 4 17769368328477703366
13590594 115 18261109660459686529
14020679 6 18114461274591987314
14028597 1 17604703357760922666
140371 6 18338811030613577691
14117953 113 18342175532474455621
14849402 71 18189623915452185781
14955137 171 18409730702867756178
15021287 119 18409163346810742839
15238133 3 18261402130489319447
15276724 80 18410289212594788704
15775530 1 17622446043359081910
15849732 13 18343580750372296563
17980427 23 17845079839228225711
1813 80 18187362125824118930
19301679 30 18117270359809056650
20642791 178 18122624126452113202
20739085 24 18410575123692454568
21033648 29 17631999944721989594
21304253 335 18060701705839640615
22149856 69 17702408272563341731
23845131 108 17402888921531769208
24771293 8 18131627906770637194
25019877 29 17346876749759336295
25223398 141 16746523339211741981
340366 18 18340202002917118847
3552219 110 17604158043401686334
44280116 191 12957347928156612179
44802255 64 13037774270555639912
469060 322 18263656060369309880
474144 1 18265626548789671813
513202 73 18118682106990195242
513532 50 17702960226059548372
5252454 2 17831017189184440701
58260988 587 15793162447932932862
6371009 1 18271522087815387583
653340 110 18055638308975672281
9777508 108 17691124833832411176

> <PUBCHEM_SHAPE_MULTIPOLES>
651.32
12.1
6.15
1.59
10.72
10.36
0.18
-8.49
-7.01
-2.07
3.5
-0.73
0.54
-1.93

> <PUBCHEM_SHAPE_SELFOVERLAP>
1477.081

> <PUBCHEM_SHAPE_VOLUME>
339.5

> <PUBCHEM_COORDINATE_TYPE>
2
5
10

$$$$
