16447016
  -OEChem-01171810053D

 42 44  0     0  0  0  0  0  0999 V2000
    2.3788    4.3973   -0.2850 Cl  0  0  0  0  0  0  0  0  0  0  0  0
   -2.5451    0.9142    0.7797 S   0  0  0  0  0  0  0  0  0  0  0  0
    4.1139   -1.6249    1.2797 S   0  0  0  0  0  0  0  0  0  0  0  0
    6.5151   -3.4266    0.7738 S   0  0  0  0  0  0  0  0  0  0  0  0
   -2.1465   -0.1126    1.7276 O   0  0  0  0  0  0  0  0  0  0  0  0
   -3.6513    1.8042    1.0893 O   0  0  0  0  0  0  0  0  0  0  0  0
    2.6932    1.6081   -1.7297 O   0  0  0  0  0  0  0  0  0  0  0  0
   -0.0477    1.2396    0.0559 N   0  0  0  0  0  0  0  0  0  0  0  0
   -1.2843    3.2098    0.6859 N   0  0  0  0  0  0  0  0  0  0  0  0
    2.6851    0.3247    0.2401 N   0  0  0  0  0  0  0  0  0  0  0  0
    4.5709   -0.5440   -0.9981 N   0  0  0  0  0  0  0  0  0  0  0  0
    5.5469   -1.5127   -0.8418 N   0  0  0  0  0  0  0  0  0  0  0  0
   -2.8827    0.1526   -0.7748 C   0  0  0  0  0  0  0  0  0  0  0  0
   -4.0838   -0.7159   -0.6092 C   0  0  0  0  0  0  0  0  0  0  0  0
   -3.9330   -2.0498   -0.2302 C   0  0  0  0  0  0  0  0  0  0  0  0
   -1.1172    1.9100    0.4692 C   0  0  0  0  0  0  0  0  0  0  0  0
   -5.3580   -0.1940   -0.8316 C   0  0  0  0  0  0  0  0  0  0  0  0
   -5.0565   -2.8617   -0.0740 C   0  0  0  0  0  0  0  0  0  0  0  0
   -6.4814   -1.0059   -0.6753 C   0  0  0  0  0  0  0  0  0  0  0  0
   -6.3306   -2.3398   -0.2965 C   0  0  0  0  0  0  0  0  0  0  0  0
   -4.8957   -4.2885    0.3298 C   0  0  0  0  0  0  0  0  0  0  0  0
    1.0225    2.0294   -0.1713 C   0  0  0  0  0  0  0  0  0  0  0  0
    1.0167    3.3980    0.0048 C   0  0  0  0  0  0  0  0  0  0  0  0
   -0.1763    3.9390    0.4391 C   0  0  0  0  0  0  0  0  0  0  0  0
    2.2083    1.3166   -0.6256 C   0  0  0  0  0  0  0  0  0  0  0  0
    3.7826   -0.5165    0.0316 C   0  0  0  0  0  0  0  0  0  0  0  0
    5.4228   -2.1497    0.3030 C   0  0  0  0  0  0  0  0  0  0  0  0
    8.0329   -2.9009   -0.0664 C   0  0  0  0  0  0  0  0  0  0  0  0
   -3.0536    0.9367   -1.5193 H   0  0  0  0  0  0  0  0  0  0  0  0
   -2.0100   -0.4320   -1.0820 H   0  0  0  0  0  0  0  0  0  0  0  0
   -2.9402   -2.4578   -0.0549 H   0  0  0  0  0  0  0  0  0  0  0  0
   -5.4897    0.8434   -1.1277 H   0  0  0  0  0  0  0  0  0  0  0  0
   -7.4735   -0.5993   -0.8483 H   0  0  0  0  0  0  0  0  0  0  0  0
   -7.2139   -2.9615   -0.1764 H   0  0  0  0  0  0  0  0  0  0  0  0
   -3.9671   -4.7089   -0.0712 H   0  0  0  0  0  0  0  0  0  0  0  0
   -4.8761   -4.3699    1.4211 H   0  0  0  0  0  0  0  0  0  0  0  0
   -5.7170   -4.9040   -0.0525 H   0  0  0  0  0  0  0  0  0  0  0  0
   -0.2900    5.0051    0.6097 H   0  0  0  0  0  0  0  0  0  0  0  0
    2.1977    0.1756    1.1202 H   0  0  0  0  0  0  0  0  0  0  0  0
    8.8433   -3.5860    0.1965 H   0  0  0  0  0  0  0  0  0  0  0  0
    8.3149   -1.8918    0.2466 H   0  0  0  0  0  0  0  0  0  0  0  0
    7.8996   -2.9228   -1.1514 H   0  0  0  0  0  0  0  0  0  0  0  0
  1 23  1  0  0  0  0
  2  5  2  0  0  0  0
  2  6  2  0  0  0  0
  2 13  1  0  0  0  0
  2 16  1  0  0  0  0
  3 26  1  0  0  0  0
  3 27  1  0  0  0  0
  4 27  1  0  0  0  0
  4 28  1  0  0  0  0
  7 25  2  0  0  0  0
  8 16  1  0  0  0  0
  8 22  2  0  0  0  0
  9 16  2  0  0  0  0
  9 24  1  0  0  0  0
 10 25  1  0  0  0  0
 10 26  1  0  0  0  0
 10 39  1  0  0  0  0
 11 12  1  0  0  0  0
 11 26  2  0  0  0  0
 12 27  2  0  0  0  0
 13 14  1  0  0  0  0
 13 29  1  0  0  0  0
 13 30  1  0  0  0  0
 14 15  1  0  0  0  0
 14 17  2  0  0  0  0
 15 18  2  0  0  0  0
 15 31  1  0  0  0  0
 17 19  1  0  0  0  0
 17 32  1  0  0  0  0
 18 20  1  0  0  0  0
 18 21  1  0  0  0  0
 19 20  2  0  0  0  0
 19 33  1  0  0  0  0
 20 34  1  0  0  0  0
 21 35  1  0  0  0  0
 21 36  1  0  0  0  0
 21 37  1  0  0  0  0
 22 23  1  0  0  0  0
 22 25  1  0  0  0  0
 23 24  2  0  0  0  0
 24 38  1  0  0  0  0
 28 40  1  0  0  0  0
 28 41  1  0  0  0  0
 28 42  1  0  0  0  0
M  END
> <PUBCHEM_COMPOUND_CID>
16447016

> <PUBCHEM_CONFORMER_RMSD>
1

> <PUBCHEM_CONFORMER_DIVERSEORDER>
1
475
314
335
469
244
403
123
493
459
96
460
44
199
122
389
529
360
252
318
281
135
125
179
480
303
409
422
410
421
317
13
333
477
163
162
100
259
109
390
511
129
3
479
128
514
253
91
211
518
149
30
464
527
467
214
326
387
262
140
62
81
120
523
400
226
23
344
236
330
474
321
454
461
18
291
77
501
33
228
130
273
516
75
215
430
476
408
176
99
170
194
32
93
101
255
78
90
11
489
350
177
17
274
269
449
185
362
80
116
497
52
39
159
286
217
142
425
331
161
484
92
223
383
201
72
68
433
381
98
216
491
483
178
363
119
230
506
85
46
490
40
144
26
292
439
56
70
94
21
438
64
456
384
297
182
51
165
267
398
74
28
426
156
148
207
336
97
406
67
49
61
43
63
47
42
197
187
65
448
5
89
154
69
15
347
118
157
298
411
58
139
225
375
399
2
183
36
300
19
137
16
45
324
20
38
4
261
48
35
37
268

> <PUBCHEM_MMFF94_PARTIAL_CHARGES>
34
1 -0.18
10 -0.49
11 -0.34
12 -0.34
13 0.25
14 -0.14
15 -0.15
16 0.61
17 -0.15
18 -0.14
19 -0.15
2 1.2
20 -0.15
21 0.14
22 0.4
23 0.18
24 0.16
25 0.54
26 0.44
27 0.43
28 0.23
3 -0.08
31 0.15
32 0.15
33 0.15
34 0.15
38 0.15
39 0.37
4 -0.29
5 -0.65
6 -0.65
7 -0.57
8 -0.62
9 -0.62

> <PUBCHEM_EFFECTIVE_ROTOR_COUNT>
7

> <PUBCHEM_PHARMACOPHORE_FEATURES>
11
1 10 donor
1 12 acceptor
1 28 hydrophobe
1 5 acceptor
1 6 acceptor
1 7 acceptor
1 8 acceptor
3 8 9 16 cation
5 3 11 12 26 27 rings
6 14 15 17 18 19 20 rings
6 8 9 16 22 23 24 rings

> <PUBCHEM_HEAVY_ATOM_COUNT>
28

> <PUBCHEM_ATOM_DEF_STEREO_COUNT>
0

> <PUBCHEM_ATOM_UDEF_STEREO_COUNT>
0

> <PUBCHEM_BOND_DEF_STEREO_COUNT>
0

> <PUBCHEM_BOND_UDEF_STEREO_COUNT>
0

> <PUBCHEM_ISOTOPIC_ATOM_COUNT>
0

> <PUBCHEM_COMPONENT_COUNT>
1

> <PUBCHEM_CACTVS_TAUTO_COUNT>
3

> <PUBCHEM_CONFORMER_ID>
00FAF62800000001

> <PUBCHEM_MMFF94_ENERGY>
56.8536

> <PUBCHEM_FEATURE_SELFOVERLAP>
55.841

> <PUBCHEM_SHAPE_FINGERPRINT>
10042902 136 18410575042335839778
10050765 1 18411980256340380944
10100884 174 18261106323951418354
10319688 45 18267302024327679816
10571361 74 18117831110781680146
10622 236 18410292510180028271
11273773 46 18408880725378496823
11719270 70 17978504562027005816
11963148 33 17981882252893166710
12107183 9 18342751698037361921
12166972 35 18113057142482017142
13533116 47 18268147737636886481
13540713 5 18341349836948330817
13631057 29 18265613191973884634
13690498 29 17968093071405341141
13782708 43 18042117816954026279
13955234 65 17839460330162866185
13968360 50 18048035469928501820
14068700 675 18336264553236099484
14117953 113 18271242729888724671
14344974 204 18124030136286321918
14420673 8 18409166619755261503
14429380 30 18410294696798917114
14844126 61 18048041774718530880
14866123 147 18341054009081648529
14910302 57 17969771055599505541
15019793 15 17834396005375691831
15803439 3 16595656540246766228
15927050 60 17764869491298677318
16992752 21 18339649950039071782
16992828 155 14869013686176246163
17492 89 18339641273624884627
17686467 74 18342729707967907970
19246450 95 18054527820171338593
19319366 153 17692533724771323012
20028762 73 18339922620043616758
20567600 70 18337665429543834354
20775438 99 17904184181290288571
208703 8 18411132524458991270
21033650 10 16733250297467712229
21315764 119 17895184546295083471
22956985 138 18411974793985739776
23559900 14 18340195410569236785
25222932 49 17695911416265276679
270888 7 9079114466429197926
3004659 81 18260263070617799295
32027 91 18339634638032235655
3421961 26 18269551805074076265
3504750 166 17612022682761834498
397830 11 18057306324978075786
4017518 198 16605462551957555934
44062 13 18335977636725670727
463206 1 18335144176235427603
484985 159 18191860120134111717
5104073 3 17845665862484485065
559249 180 18341892940542549029
6058803 2 18269016287140857913
6691757 9 17912930478656871873
6697151 62 18058714919131655085
7970288 3 18410289181818439282
88748 71 18337674230200946375

> <PUBCHEM_SHAPE_MULTIPOLES>
547.13
18.12
5.94
1.11
10.18
2.24
0.07
-28.36
-1.98
2.31
0.73
0.21
0.09
-1.52

> <PUBCHEM_SHAPE_SELFOVERLAP>
1125.576

> <PUBCHEM_SHAPE_VOLUME>
317.6

> <PUBCHEM_COORDINATE_TYPE>
2
5
10

$$$$
