4840549
  -OEChem-01171809503D

 44 46  0     0  0  0  0  0  0999 V2000
    3.8467   -0.0236    0.4677 S   0  0  0  0  0  0  0  0  0  0  0  0
    2.4356   -4.1080   -0.7865 O   0  0  0  0  0  0  0  0  0  0  0  0
    4.8783    0.2350   -0.5142 O   0  0  0  0  0  0  0  0  0  0  0  0
    4.1535   -0.0494    1.8820 O   0  0  0  0  0  0  0  0  0  0  0  0
   -3.4322   -0.1580    0.0911 O   0  0  0  0  0  0  0  0  0  0  0  0
   -2.3521    3.1211   -0.3856 O   0  0  0  0  0  0  0  0  0  0  0  0
   -6.0113   -2.5011    0.3571 O   0  5  0  0  0  0  0  0  0  0  0  0
   -3.8261   -2.7065    0.5006 O   0  0  0  0  0  0  0  0  0  0  0  0
    3.0261   -1.4669    0.0501 N   0  0  0  0  0  0  0  0  0  0  0  0
   -1.1190    1.1541   -0.0131 N   0  0  0  0  0  0  0  0  0  0  0  0
   -4.8544   -1.9885    0.3284 N   0  3  0  0  0  0  0  0  0  0  0  0
    3.1059   -1.8586   -1.3877 C   0  0  0  0  0  0  0  0  0  0  0  0
    3.2895   -2.6364    0.9388 C   0  0  0  0  0  0  0  0  0  0  0  0
    2.1317   -3.0010   -1.6382 C   0  0  0  0  0  0  0  0  0  0  0  0
    2.3078   -3.7464    0.5903 C   0  0  0  0  0  0  0  0  0  0  0  0
    2.5536    1.1512    0.2138 C   0  0  0  0  0  0  0  0  0  0  0  0
    2.8450    2.4948    0.0303 C   0  0  0  0  0  0  0  0  0  0  0  0
    1.2435    0.6941    0.2021 C   0  0  0  0  0  0  0  0  0  0  0  0
    0.2026    1.6009    0.0025 C   0  0  0  0  0  0  0  0  0  0  0  0
    1.8040    3.4016   -0.1693 C   0  0  0  0  0  0  0  0  0  0  0  0
    4.2481    3.0068    0.0400 C   0  0  0  0  0  0  0  0  0  0  0  0
    0.4827    2.9546   -0.1832 C   0  0  0  0  0  0  0  0  0  0  0  0
   -2.2834    1.9110   -0.1996 C   0  0  0  0  0  0  0  0  0  0  0  0
   -3.5570    1.1471   -0.1353 C   0  0  0  0  0  0  0  0  0  0  0  0
   -4.8121    1.5787   -0.2715 C   0  0  0  0  0  0  0  0  0  0  0  0
   -5.5966    0.4113   -0.1146 C   0  0  0  0  0  0  0  0  0  0  0  0
   -4.7106   -0.6180    0.1039 C   0  0  0  0  0  0  0  0  0  0  0  0
    4.1285   -2.1817   -1.6151 H   0  0  0  0  0  0  0  0  0  0  0  0
    2.8441   -1.0105   -2.0281 H   0  0  0  0  0  0  0  0  0  0  0  0
    3.1474   -2.3611    1.9879 H   0  0  0  0  0  0  0  0  0  0  0  0
    4.3208   -2.9752    0.7874 H   0  0  0  0  0  0  0  0  0  0  0  0
    1.0938   -2.6887   -1.4709 H   0  0  0  0  0  0  0  0  0  0  0  0
    2.2148   -3.3438   -2.6743 H   0  0  0  0  0  0  0  0  0  0  0  0
    2.5202   -4.6364    1.1908 H   0  0  0  0  0  0  0  0  0  0  0  0
    1.2725   -3.4457    0.7916 H   0  0  0  0  0  0  0  0  0  0  0  0
    0.9839   -0.3452    0.3742 H   0  0  0  0  0  0  0  0  0  0  0  0
    2.0060    4.4593   -0.3174 H   0  0  0  0  0  0  0  0  0  0  0  0
    4.7546    2.7653   -0.8994 H   0  0  0  0  0  0  0  0  0  0  0  0
    4.2688    4.0979    0.1453 H   0  0  0  0  0  0  0  0  0  0  0  0
    4.8174    2.6135    0.8879 H   0  0  0  0  0  0  0  0  0  0  0  0
   -0.2659    3.7173   -0.3440 H   0  0  0  0  0  0  0  0  0  0  0  0
   -1.2439    0.1545    0.1328 H   0  0  0  0  0  0  0  0  0  0  0  0
   -5.1616    2.5837   -0.4585 H   0  0  0  0  0  0  0  0  0  0  0  0
   -6.6742    0.3367   -0.1565 H   0  0  0  0  0  0  0  0  0  0  0  0
  1  3  2  0  0  0  0
  1  4  2  0  0  0  0
  1  9  1  0  0  0  0
  1 16  1  0  0  0  0
  2 14  1  0  0  0  0
  2 15  1  0  0  0  0
  5 24  1  0  0  0  0
  5 27  1  0  0  0  0
  6 23  2  0  0  0  0
  7 11  1  0  0  0  0
  8 11  2  0  0  0  0
  9 12  1  0  0  0  0
  9 13  1  0  0  0  0
 10 19  1  0  0  0  0
 10 23  1  0  0  0  0
 10 42  1  0  0  0  0
 11 27  1  0  0  0  0
 12 14  1  0  0  0  0
 12 28  1  0  0  0  0
 12 29  1  0  0  0  0
 13 15  1  0  0  0  0
 13 30  1  0  0  0  0
 13 31  1  0  0  0  0
 14 32  1  0  0  0  0
 14 33  1  0  0  0  0
 15 34  1  0  0  0  0
 15 35  1  0  0  0  0
 16 17  2  0  0  0  0
 16 18  1  0  0  0  0
 17 20  1  0  0  0  0
 17 21  1  0  0  0  0
 18 19  2  0  0  0  0
 18 36  1  0  0  0  0
 19 22  1  0  0  0  0
 20 22  2  0  0  0  0
 20 37  1  0  0  0  0
 21 38  1  0  0  0  0
 21 39  1  0  0  0  0
 21 40  1  0  0  0  0
 22 41  1  0  0  0  0
 23 24  1  0  0  0  0
 24 25  2  0  0  0  0
 25 26  1  0  0  0  0
 25 43  1  0  0  0  0
 26 27  2  0  0  0  0
 26 44  1  0  0  0  0
M  CHG  2   7  -1  11   1
M  END
> <PUBCHEM_COMPOUND_CID>
4840549

> <PUBCHEM_CONFORMER_RMSD>
0.8

> <PUBCHEM_CONFORMER_DIVERSEORDER>
2
21
67
63
90
61
75
17
83
66
42
93
64
33
62
54
80
35
74
88
27
43
36
69
79
50
12
48
4
91
85
1
51
58
81
39
73
57
7
89
44
16
53
71
10
37
84
45
41
25
72
76
9
68
6
77
13
60
3
52
46
70
26
47
92
40
87
19
18
65
29
31
15
22
38
55
28
24
59
20
78
32
56
82
8
49
86
23
34
30
5
11
14

> <PUBCHEM_MMFF94_PARTIAL_CHARGES>
33
1 1.45
10 -0.55
11 0.96
12 0.36
13 0.36
14 0.28
15 0.28
16 -0.01
17 -0.14
18 -0.15
19 0.12
2 -0.56
20 -0.15
21 0.14
22 -0.15
23 0.71
24 0.05
25 -0.15
26 -0.15
27 0.22
3 -0.65
36 0.15
37 0.15
4 -0.65
41 0.15
42 0.37
43 0.15
44 0.15
5 -0.28
6 -0.57
7 -0.52
8 -0.52
9 -0.85

> <PUBCHEM_EFFECTIVE_ROTOR_COUNT>
7.2

> <PUBCHEM_PHARMACOPHORE_FEATURES>
12
1 10 donor
1 2 acceptor
1 3 acceptor
1 4 acceptor
1 5 acceptor
1 6 acceptor
1 7 acceptor
1 7 anion
1 8 acceptor
5 5 24 25 26 27 rings
6 16 17 18 19 20 22 rings
6 2 9 12 13 14 15 rings

> <PUBCHEM_HEAVY_ATOM_COUNT>
27

> <PUBCHEM_ATOM_DEF_STEREO_COUNT>
0

> <PUBCHEM_ATOM_UDEF_STEREO_COUNT>
0

> <PUBCHEM_BOND_DEF_STEREO_COUNT>
0

> <PUBCHEM_BOND_UDEF_STEREO_COUNT>
0

> <PUBCHEM_ISOTOPIC_ATOM_COUNT>
0

> <PUBCHEM_COMPONENT_COUNT>
1

> <PUBCHEM_CACTVS_TAUTO_COUNT>
2

> <PUBCHEM_CONFORMER_ID>
0049DC6500000002

> <PUBCHEM_MMFF94_ENERGY>
63.9488

> <PUBCHEM_FEATURE_SELFOVERLAP>
61.01

> <PUBCHEM_SHAPE_FINGERPRINT>
10074138 170 16758562433327966800
108634 29 17968385652988319786
10928967 22 17903373506270729803
12107183 9 17909838639412157049
12596602 18 15984812779288966051
12969540 37 18335701573075443604
13150687 139 17971780963267342916
13255334 9 18338801113354671439
13533116 47 18273494559878015241
14681488 357 18058459698678030526
14790565 3 18122064466692067220
14863182 85 18336552728314930108
15003188 105 18115305558130894522
15250474 111 18271514416650642327
15320467 1 18049161360992033163
15799311 1 18267888154113855697
15927050 60 17764025062596232796
17492 89 18410009936082086539
17974551 9 14615459819357013770
18681886 176 18337389465638775896
19301679 30 18264219170423457147
1979834 28 18129933499518065498
19958102 18 18044081368712075877
20028762 73 18270397325257720734
20567600 70 18264485088321785082
20645477 70 18408884044607455520
21197605 99 18194967571833263275
21315759 227 18335412439939857583
21344244 181 17915484859670265532
23379529 103 17765157172529815974
23424784 1240 18338247028456888099
23559900 14 18410569591685465129
239999 70 18201443567072497948
3117164 225 18055650421200561873
314173 41 18338803290681518566
3246872 21 17908417301442276487
325973 47 17834959672567143519
338550 245 18264772249513130716
3421961 26 18339920411912851264
4073 2 18334861670951907913
4394409 98 16455710193129597741
444735 86 18338225064036386287
5309563 4 18411984684498259021
6433294 58 18410576180054208967
6823239 73 18271531879819044494
7399639 24 18336531807460867252
9658208 31 17838618117573817304
9709674 26 18410575042198871565

> <PUBCHEM_SHAPE_MULTIPOLES>
503.47
12.36
5.31
0.99
16.64
2.58
-0.06
4.28
1.12
-3.48
-0.55
-1.09
0.69
1.11

> <PUBCHEM_SHAPE_SELFOVERLAP>
1067.902

> <PUBCHEM_SHAPE_VOLUME>
282.4

> <PUBCHEM_COORDINATE_TYPE>
2
5
10

$$$$
