15945333
  -OEChem-01171809383D

 63 66  0     1  0  0  0  0  0999 V2000
   -9.0624    2.2846   -1.0588 Cl  0  0  0  0  0  0  0  0  0  0  0  0
    5.6239    0.4245   -0.6390 S   0  0  0  0  0  0  0  0  0  0  0  0
    1.2802    1.9574    0.8066 O   0  0  0  0  0  0  0  0  0  0  0  0
   -1.3939   -3.8174    0.6501 O   0  0  0  0  0  0  0  0  0  0  0  0
    0.5787   -0.4570    1.3923 O   0  0  0  0  0  0  0  0  0  0  0  0
    1.8137    1.2583   -1.3239 O   0  0  0  0  0  0  0  0  0  0  0  0
    6.4110    0.7426    0.5370 O   0  0  0  0  0  0  0  0  0  0  0  0
    6.2803    0.1217   -1.8964 O   0  0  0  0  0  0  0  0  0  0  0  0
   -1.6443   -0.2064    0.8182 N   0  0  0  0  0  0  0  0  0  0  0  0
   -2.6393    0.6263    0.3957 N   0  0  0  0  0  0  0  0  0  0  0  0
    4.4578    1.6600   -0.8758 N   0  0  0  0  0  0  0  0  0  0  0  0
   -2.1242   -1.5494    1.1464 C   0  0  1  0  0  0  0  0  0  0  0  0
   -3.6384   -1.4076    1.0963 C   0  0  0  0  0  0  0  0  0  0  0  0
    3.5542    2.0421    0.1903 C   0  0  1  0  0  0  0  0  0  0  0  0
    3.7122    3.5335    0.5522 C   0  0  0  0  0  0  0  0  0  0  0  0
   -3.7583   -0.0231    0.5075 C   0  0  0  0  0  0  0  0  0  0  0  0
   -1.5861   -2.5699    0.1615 C   0  0  0  0  0  0  0  0  0  0  0  0
   -0.3433    0.2379    0.9629 C   0  0  0  0  0  0  0  0  0  0  0  0
   -5.0674    0.5470    0.1205 C   0  0  0  0  0  0  0  0  0  0  0  0
    3.3389    4.4790   -0.5951 C   0  0  0  0  0  0  0  0  0  0  0  0
    5.1325    3.8383    1.0387 C   0  0  0  0  0  0  0  0  0  0  0  0
    2.1346    1.7021   -0.2289 C   0  0  0  0  0  0  0  0  0  0  0  0
   -0.0989    1.6700    0.5546 C   0  0  0  0  0  0  0  0  0  0  0  0
   -1.2424   -2.4937   -1.1598 C   0  0  0  0  0  0  0  0  0  0  0  0
    4.5950   -0.9589   -0.2486 C   0  0  0  0  0  0  0  0  0  0  0  0
   -6.2347   -0.1985    0.2962 C   0  0  0  0  0  0  0  0  0  0  0  0
   -5.1398    1.8322   -0.4206 C   0  0  0  0  0  0  0  0  0  0  0  0
   -0.8039   -3.7907   -1.5186 C   0  0  0  0  0  0  0  0  0  0  0  0
   -0.9153   -4.5590   -0.3833 C   0  0  0  0  0  0  0  0  0  0  0  0
   -7.4694    0.3387   -0.0676 C   0  0  0  0  0  0  0  0  0  0  0  0
   -6.3745    2.3695   -0.7844 C   0  0  0  0  0  0  0  0  0  0  0  0
    4.1386   -1.7719   -1.2717 C   0  0  0  0  0  0  0  0  0  0  0  0
    4.2639   -1.2031    1.0730 C   0  0  0  0  0  0  0  0  0  0  0  0
   -7.5393    1.6227   -0.6080 C   0  0  0  0  0  0  0  0  0  0  0  0
    3.3262   -2.8631   -0.9636 C   0  0  0  0  0  0  0  0  0  0  0  0
    3.4514   -2.2943    1.3811 C   0  0  0  0  0  0  0  0  0  0  0  0
    2.9826   -3.1243    0.3628 C   0  0  0  0  0  0  0  0  0  0  0  0
   -1.7749   -1.8082    2.1532 H   0  0  0  0  0  0  0  0  0  0  0  0
   -4.1282   -2.1636    0.4770 H   0  0  0  0  0  0  0  0  0  0  0  0
   -4.0687   -1.4045    2.1031 H   0  0  0  0  0  0  0  0  0  0  0  0
    3.7638    1.4613    1.0932 H   0  0  0  0  0  0  0  0  0  0  0  0
    3.0319    3.7583    1.3846 H   0  0  0  0  0  0  0  0  0  0  0  0
    4.2253    1.9552   -1.8316 H   0  0  0  0  0  0  0  0  0  0  0  0
    3.4298    5.5231   -0.2758 H   0  0  0  0  0  0  0  0  0  0  0  0
    2.3046    4.3261   -0.9185 H   0  0  0  0  0  0  0  0  0  0  0  0
    3.9924    4.3400   -1.4626 H   0  0  0  0  0  0  0  0  0  0  0  0
    5.4080    3.1832    1.8718 H   0  0  0  0  0  0  0  0  0  0  0  0
    5.2021    4.8719    1.3948 H   0  0  0  0  0  0  0  0  0  0  0  0
    5.8727    3.7130    0.2418 H   0  0  0  0  0  0  0  0  0  0  0  0
   -0.3736    1.8397   -0.4918 H   0  0  0  0  0  0  0  0  0  0  0  0
   -0.6928    2.3364    1.1876 H   0  0  0  0  0  0  0  0  0  0  0  0
   -1.2965   -1.6217   -1.7957 H   0  0  0  0  0  0  0  0  0  0  0  0
   -6.2200   -1.1988    0.7181 H   0  0  0  0  0  0  0  0  0  0  0  0
   -4.2474    2.4344   -0.5687 H   0  0  0  0  0  0  0  0  0  0  0  0
   -0.4500   -4.1235   -2.4835 H   0  0  0  0  0  0  0  0  0  0  0  0
   -0.7052   -5.5942   -0.1575 H   0  0  0  0  0  0  0  0  0  0  0  0
   -8.3692   -0.2540    0.0763 H   0  0  0  0  0  0  0  0  0  0  0  0
   -6.4140    3.3713   -1.2046 H   0  0  0  0  0  0  0  0  0  0  0  0
    4.3871   -1.5801   -2.3108 H   0  0  0  0  0  0  0  0  0  0  0  0
    4.6221   -0.5749    1.8824 H   0  0  0  0  0  0  0  0  0  0  0  0
    2.9580   -3.5076   -1.7564 H   0  0  0  0  0  0  0  0  0  0  0  0
    3.1835   -2.4978    2.4137 H   0  0  0  0  0  0  0  0  0  0  0  0
    2.3488   -3.9729    0.6028 H   0  0  0  0  0  0  0  0  0  0  0  0
  1 34  1  0  0  0  0
  2  7  2  0  0  0  0
  2  8  2  0  0  0  0
  2 11  1  0  0  0  0
  2 25  1  0  0  0  0
  3 22  1  0  0  0  0
  3 23  1  0  0  0  0
  4 17  1  0  0  0  0
  4 29  1  0  0  0  0
  5 18  2  0  0  0  0
  6 22  2  0  0  0  0
  9 10  1  0  0  0  0
  9 12  1  0  0  0  0
  9 18  1  0  0  0  0
 10 16  2  0  0  0  0
 11 14  1  0  0  0  0
 11 43  1  0  0  0  0
 12 13  1  0  0  0  0
 12 17  1  0  0  0  0
 12 38  1  0  0  0  0
 13 16  1  0  0  0  0
 13 39  1  0  0  0  0
 13 40  1  0  0  0  0
 14 15  1  0  0  0  0
 14 22  1  0  0  0  0
 14 41  1  0  0  0  0
 15 20  1  0  0  0  0
 15 21  1  0  0  0  0
 15 42  1  0  0  0  0
 16 19  1  0  0  0  0
 17 24  2  0  0  0  0
 18 23  1  0  0  0  0
 19 26  2  0  0  0  0
 19 27  1  0  0  0  0
 20 44  1  0  0  0  0
 20 45  1  0  0  0  0
 20 46  1  0  0  0  0
 21 47  1  0  0  0  0
 21 48  1  0  0  0  0
 21 49  1  0  0  0  0
 23 50  1  0  0  0  0
 23 51  1  0  0  0  0
 24 28  1  0  0  0  0
 24 52  1  0  0  0  0
 25 32  2  0  0  0  0
 25 33  1  0  0  0  0
 26 30  1  0  0  0  0
 26 53  1  0  0  0  0
 27 31  2  0  0  0  0
 27 54  1  0  0  0  0
 28 29  2  0  0  0  0
 28 55  1  0  0  0  0
 29 56  1  0  0  0  0
 30 34  2  0  0  0  0
 30 57  1  0  0  0  0
 31 34  1  0  0  0  0
 31 58  1  0  0  0  0
 32 35  1  0  0  0  0
 32 59  1  0  0  0  0
 33 36  2  0  0  0  0
 33 60  1  0  0  0  0
 35 37  2  0  0  0  0
 35 61  1  0  0  0  0
 36 37  1  0  0  0  0
 36 62  1  0  0  0  0
 37 63  1  0  0  0  0
M  END
> <PUBCHEM_COMPOUND_CID>
15945333

> <PUBCHEM_CONFORMER_RMSD>
1.2

> <PUBCHEM_CONFORMER_DIVERSEORDER>
1
341
250
4
90
172
89
259
158
2
287
326
335
245
146
26
223
241
104
344
189
103
82
228
84
58
147
157
97
160
233
313
325
141
247
277
340
303
79
217
145
330
115
322
243
169
321
14
66
60
282
110
350
61
41
301
328
40
148
48
327
242
202
191
307
127
91
117
102
43
231
93
88
308
176
291
109
276
155
239
28
165
312
178
6
49
208
240
184
8
316
80
309
324
273
108
187
260
311
218
124
329
24
274
10
236
126
119
137
29
207
120
149
221
167
252
333
204
275
348
352
63
339
270
230
300
87
319
170
177
175
56
55
342
292
171
310
320
68
75
76
197
271
114
318
12
57
216
332
205
253
261
196
296
234
179
203
336
138
254
194
225
132
267
139
219
136
27
73
281
42
111
22
211
278
86
7
200
143
23
151
20
334
215
135
227
44
235
118
144
297
116
295
251
34
255
315
338
304
343
39
280
25
293
154
159
5
94
265
164
168
54
3
31
130
65
9
198
96
162
199
174
17
101
32
263
59
346
214
112
16
244
53
294
249
188
212
193
232
305
306
266
180
50
35
269
51
153
134
302
226
258
186
129
286
122
83
290
70
69
38
268
210
30
140
229
209
349
163
351
299
47
52
19
85
331
264
173
74
182
72
15
298
181
224
156
11
152
213
100
337
98
36
347
99
161
81
64
190
237
95
323
37
283
78
45
107
105
67
128
62
262
238
284
195
92
279
206
248
246
183
166
222
285
288
345
317
192
133
314
113
121
106
71
18
289
142
220
185
77
123
272
13
201
257
256
21
125
33
150
46
131

> <PUBCHEM_MMFF94_PARTIAL_CHARGES>
47
1 -0.18
10 -0.51
11 -0.91
12 0.48
13 0.06
14 0.42
16 0.3
17 -0.04
18 0.57
19 0.09
2 1.45
22 0.66
23 0.34
24 -0.15
25 -0.01
26 -0.15
27 -0.15
28 -0.15
29 -0.01
3 -0.43
30 -0.15
31 -0.15
32 -0.15
33 -0.15
34 0.18
35 -0.15
36 -0.15
37 -0.15
4 -0.28
43 0.42
5 -0.57
52 0.15
53 0.15
54 0.15
55 0.15
56 0.15
57 0.15
58 0.15
59 0.15
6 -0.57
60 0.15
61 0.15
62 0.15
63 0.15
7 -0.65
8 -0.65
9 -0.3

> <PUBCHEM_EFFECTIVE_ROTOR_COUNT>
11.6

> <PUBCHEM_PHARMACOPHORE_FEATURES>
12
1 10 acceptor
1 11 donor
1 4 acceptor
1 5 acceptor
1 6 acceptor
1 7 acceptor
1 8 acceptor
3 15 20 21 hydrophobe
5 4 17 24 28 29 rings
5 9 10 12 13 16 rings
6 19 26 27 30 31 34 rings
6 25 32 33 35 36 37 rings

> <PUBCHEM_HEAVY_ATOM_COUNT>
37

> <PUBCHEM_ATOM_DEF_STEREO_COUNT>
1

> <PUBCHEM_ATOM_UDEF_STEREO_COUNT>
1

> <PUBCHEM_BOND_DEF_STEREO_COUNT>
0

> <PUBCHEM_BOND_UDEF_STEREO_COUNT>
0

> <PUBCHEM_ISOTOPIC_ATOM_COUNT>
0

> <PUBCHEM_COMPONENT_COUNT>
1

> <PUBCHEM_CACTVS_TAUTO_COUNT>
1

> <PUBCHEM_CONFORMER_ID>
00F34E7500000001

> <PUBCHEM_MMFF94_ENERGY>
62.2027

> <PUBCHEM_FEATURE_SELFOVERLAP>
60.918

> <PUBCHEM_SHAPE_FINGERPRINT>
10675989 125 18411700945957583273
10864689 126 18411428302383172790
11093857 51 17917997161755994782
11135609 187 18341048532486279531
11621639 179 18187357680433345693
12128747 34 18261957336711639109
12838862 33 18342729716125292946
1361 2 18340489954461762906
14117953 113 18341333276287095390
14725015 67 18190452758114309218
15183329 4 18411141295082714729
15392192 104 14345799340638971425
15400415 2 18268713990103822944
15484559 13 18337956675672324886
19053607 189 18049158075790724240
20511986 3 17916861456111169492
20715895 44 18411699881032624754
21585483 110 18409170987193240775
21859007 373 18187357710439970733
22121540 332 17460013124876782589
22393880 68 18268157637815909790
23559900 14 18342180028952384352
249057 3 18412266134311606338
354706 132 17750252446665626782
3633792 109 18271808986819316033
4173938 306 17988348343574566832
4403749 210 17699559557851388632
463206 1 18268156529571890282
5109719 28 18337681806887585067
99344 41 18411414008320392477

> <PUBCHEM_SHAPE_MULTIPOLES>
717
19.27
5.58
1.34
31.24
1.07
-0.15
-15.71
-4.83
-4.59
-0.68
-0.78
0.38
1.57

> <PUBCHEM_SHAPE_SELFOVERLAP>
1516.192

> <PUBCHEM_SHAPE_VOLUME>
404

> <PUBCHEM_COORDINATE_TYPE>
2
5
10

$$$$
