5337284
  -OEChem-01171809573D

 44 46  0     0  0  0  0  0  0999 V2000
    3.0307    1.5379    0.4331 O   0  0  0  0  0  0  0  0  0  0  0  0
   -3.1213   -2.7741    0.7395 O   0  0  0  0  0  0  0  0  0  0  0  0
    2.8464   -0.7248   -0.0929 N   0  0  0  0  0  0  0  0  0  0  0  0
   -7.9964    2.1929   -0.5000 N   0  0  0  0  0  0  0  0  0  0  0  0
    1.4761   -0.9540    0.0357 C   0  0  0  0  0  0  0  0  0  0  0  0
    5.0046    0.3965   -0.1546 C   0  0  0  0  0  0  0  0  0  0  0  0
   -1.2634   -1.4136    0.2929 C   0  0  0  0  0  0  0  0  0  0  0  0
    7.2324    1.1867    0.2596 C   0  0  0  0  0  0  0  0  0  0  0  0
    5.8614    1.2633    0.5046 C   0  0  0  0  0  0  0  0  0  0  0  0
    3.5567    0.4768    0.1041 C   0  0  0  0  0  0  0  0  0  0  0  0
    0.6256    0.0884    0.4039 C   0  0  0  0  0  0  0  0  0  0  0  0
    0.9570   -2.2262   -0.2039 C   0  0  0  0  0  0  0  0  0  0  0  0
   -0.7442   -0.1414    0.5326 C   0  0  0  0  0  0  0  0  0  0  0  0
   -0.4129   -2.4561   -0.0754 C   0  0  0  0  0  0  0  0  0  0  0  0
    5.4822   -0.5446   -1.0526 C   0  0  0  0  0  0  0  0  0  0  0  0
    7.7283    0.2446   -0.6415 C   0  0  0  0  0  0  0  0  0  0  0  0
    6.8531   -0.6211   -1.2976 C   0  0  0  0  0  0  0  0  0  0  0  0
   -2.6915   -1.6535    0.4259 C   0  0  0  0  0  0  0  0  0  0  0  0
    8.1686    2.1118    0.9616 C   0  0  0  0  0  0  0  0  0  0  0  0
   -3.6416   -0.5218    0.1429 C   0  0  0  0  0  0  0  0  0  0  0  0
   -4.9701   -0.6987    0.2314 C   0  0  0  0  0  0  0  0  0  0  0  0
   -5.9985    0.2838   -0.0170 C   0  0  0  0  0  0  0  0  0  0  0  0
   -5.6988    1.6465    0.0163 C   0  0  0  0  0  0  0  0  0  0  0  0
   -7.3067   -0.1151   -0.2942 C   0  0  0  0  0  0  0  0  0  0  0  0
   -6.7208    2.5493   -0.2291 C   0  0  0  0  0  0  0  0  0  0  0  0
   -8.2569    0.8666   -0.5255 C   0  0  0  0  0  0  0  0  0  0  0  0
    5.4797    1.9948    1.2123 H   0  0  0  0  0  0  0  0  0  0  0  0
    3.3776   -1.5605   -0.3206 H   0  0  0  0  0  0  0  0  0  0  0  0
    0.9452    1.0982    0.6159 H   0  0  0  0  0  0  0  0  0  0  0  0
    1.6076   -3.0478   -0.4928 H   0  0  0  0  0  0  0  0  0  0  0  0
   -1.3654    0.6884    0.8567 H   0  0  0  0  0  0  0  0  0  0  0  0
   -0.7989   -3.4531   -0.2708 H   0  0  0  0  0  0  0  0  0  0  0  0
    4.8375   -1.2099   -1.6179 H   0  0  0  0  0  0  0  0  0  0  0  0
    8.7943    0.1749   -0.8413 H   0  0  0  0  0  0  0  0  0  0  0  0
    7.2390   -1.3483   -2.0062 H   0  0  0  0  0  0  0  0  0  0  0  0
    8.4687    1.6838    1.9233 H   0  0  0  0  0  0  0  0  0  0  0  0
    9.0681    2.2947    0.3640 H   0  0  0  0  0  0  0  0  0  0  0  0
    7.6997    3.0854    1.1403 H   0  0  0  0  0  0  0  0  0  0  0  0
   -3.2283    0.4216   -0.1912 H   0  0  0  0  0  0  0  0  0  0  0  0
   -5.3463   -1.6774    0.5249 H   0  0  0  0  0  0  0  0  0  0  0  0
   -4.7086    2.0285    0.2402 H   0  0  0  0  0  0  0  0  0  0  0  0
   -7.5892   -1.1626   -0.3328 H   0  0  0  0  0  0  0  0  0  0  0  0
   -6.5347    3.6181   -0.2098 H   0  0  0  0  0  0  0  0  0  0  0  0
   -9.2861    0.6026   -0.7451 H   0  0  0  0  0  0  0  0  0  0  0  0
  1 10  2  0  0  0  0
  2 18  2  0  0  0  0
  3  5  1  0  0  0  0
  3 10  1  0  0  0  0
  3 28  1  0  0  0  0
  4 25  2  0  0  0  0
  4 26  1  0  0  0  0
  5 11  2  0  0  0  0
  5 12  1  0  0  0  0
  6  9  1  0  0  0  0
  6 10  1  0  0  0  0
  6 15  2  0  0  0  0
  7 13  2  0  0  0  0
  7 14  1  0  0  0  0
  7 18  1  0  0  0  0
  8  9  2  0  0  0  0
  8 16  1  0  0  0  0
  8 19  1  0  0  0  0
  9 27  1  0  0  0  0
 11 13  1  0  0  0  0
 11 29  1  0  0  0  0
 12 14  2  0  0  0  0
 12 30  1  0  0  0  0
 13 31  1  0  0  0  0
 14 32  1  0  0  0  0
 15 17  1  0  0  0  0
 15 33  1  0  0  0  0
 16 17  2  0  0  0  0
 16 34  1  0  0  0  0
 17 35  1  0  0  0  0
 18 20  1  0  0  0  0
 19 36  1  0  0  0  0
 19 37  1  0  0  0  0
 19 38  1  0  0  0  0
 20 21  2  0  0  0  0
 20 39  1  0  0  0  0
 21 22  1  0  0  0  0
 21 40  1  0  0  0  0
 22 23  2  0  0  0  0
 22 24  1  0  0  0  0
 23 25  1  0  0  0  0
 23 41  1  0  0  0  0
 24 26  2  0  0  0  0
 24 42  1  0  0  0  0
 25 43  1  0  0  0  0
 26 44  1  0  0  0  0
M  END
> <PUBCHEM_COMPOUND_CID>
5337284

> <PUBCHEM_CONFORMER_RMSD>
0.8

> <PUBCHEM_CONFORMER_DIVERSEORDER>
1
11
5
35
4
10
17
19
25
3
30
8
24
29
13
32
16
21
22
14
12
6
20
9
34
33
15
2
23
18
7
37
28
26
31
27
36

> <PUBCHEM_MMFF94_PARTIAL_CHARGES>
41
1 -0.57
10 0.54
11 -0.15
12 -0.15
13 -0.15
14 -0.15
15 -0.15
16 -0.15
17 -0.15
18 0.47
19 0.14
2 -0.57
20 -0.14
21 -0.18
22 0.03
23 -0.15
24 -0.15
25 0.16
26 0.16
27 0.15
28 0.37
29 0.15
3 -0.55
30 0.15
31 0.15
32 0.15
33 0.15
34 0.15
35 0.15
39 0.15
4 -0.62
40 0.15
41 0.15
42 0.15
43 0.15
44 0.15
5 0.12
6 0.09
7 0.09
8 -0.14
9 -0.15

> <PUBCHEM_EFFECTIVE_ROTOR_COUNT>
6

> <PUBCHEM_PHARMACOPHORE_FEATURES>
7
1 1 acceptor
1 2 acceptor
1 3 donor
1 4 acceptor
6 4 22 23 24 25 26 rings
6 5 7 11 12 13 14 rings
6 6 8 9 15 16 17 rings

> <PUBCHEM_HEAVY_ATOM_COUNT>
26

> <PUBCHEM_ATOM_DEF_STEREO_COUNT>
0

> <PUBCHEM_ATOM_UDEF_STEREO_COUNT>
0

> <PUBCHEM_BOND_DEF_STEREO_COUNT>
1

> <PUBCHEM_BOND_UDEF_STEREO_COUNT>
0

> <PUBCHEM_ISOTOPIC_ATOM_COUNT>
0

> <PUBCHEM_COMPONENT_COUNT>
1

> <PUBCHEM_CACTVS_TAUTO_COUNT>
5

> <PUBCHEM_CONFORMER_ID>
005170C400000001

> <PUBCHEM_MMFF94_ENERGY>
88.9108

> <PUBCHEM_FEATURE_SELFOVERLAP>
35.522

> <PUBCHEM_SHAPE_FINGERPRINT>
10 15 17895196580809023875
10369192 42 18411697661272875343
10411042 1 17831303071452387163
106641 1 11674885506495930750
10669705 176 18413109455261427559
10670039 82 17632298930902254073
10835480 77 18059576944953375432
10951579 204 18193574289238724916
11135609 99 9439107772156302793
11315181 36 17632301207118616147
11409948 41 16342869724954729582
12013929 29 17691399712832314141
12539745 222 16009316548052757451
12838862 33 18337939156146835425
13248334 5 18048313337196273219
13530399 1 17749959989927240820
1361 4 10447665581695392252
13668630 136 10231759980816674946
14178184 131 10953755408373638441
14251757 52 18408037416690936240
14251764 18 17821726148135604795
14294032 229 17749954341190470196
14344974 52 18342734153237953453
14429380 56 15769771399647392320
14556957 393 15984835856306751145
14729087 3 18408039619771801417
15142383 8 18335421284031887304
15183329 4 18343586213480584899
15289351 153 18341046307614027368
15350500 55 17676760965237575117
15461852 350 18272652389842578759
15510800 12 11095878319775719853
15716309 27 11963389656647660523
1577012 14 18335132077876998459
15778101 99 18334577962444575051
15961568 22 18261956250617825597
16992779 147 14347229886596494950
1754911 235 18273207592038904117
1768 4 18412271610885740729
1818759 1 11527945686149654045
18335252 114 18201997720395073396
19611394 137 17751375078470791291
20105231 36 12324233950495363840
20281389 69 18040994025168627141
20554085 129 18059842975085732946
21033648 29 18268980038106314328
21095123 293 17167869655545605084
21150785 3 16343704330856132055
21585482 111 18190177881136709149
21792934 111 18272644637922033464
21859007 373 18411130347274413056
22149856 69 11097849666661741550
23522609 53 16444211844477615486
23524908 199 17916871210061040334
23559900 14 17845652685355736482
23576562 1 18057877133988516461
24771293 8 18186802440689590429
2838139 119 18411979204451999967
306946 40 17560788975607607504
335352 9 18411420635059343524
3633792 109 18131357388619300714
4073 2 18113341903705360411
5104073 3 10809882116627672622
5385378 56 17895188870810692282
54039377 194 9943804508632114985
5718773 13 9583217446016565069
5758199 1 18040435473657479411
59755656 215 18411986832092585950
636775 72 18410290341433385001
636775 8 8790613636925394336
9980921 7 17895471416484779221
9995097 26 8935000391604154544

> <PUBCHEM_SHAPE_MULTIPOLES>
513.37
27.95
2.5
0.86
3.02
0.18
-0.09
-20.48
-4.35
2.21
0.25
-0.88
0
2.23

> <PUBCHEM_SHAPE_SELFOVERLAP>
1116.059

> <PUBCHEM_SHAPE_VOLUME>
277.4

> <PUBCHEM_COORDINATE_TYPE>
2
5
10

$$$$
