2540894
  -OEChem-01171810083D

 47 49  0     0  0  0  0  0  0999 V2000
   -6.7577   -0.6123   -1.2704 O   0  0  0  0  0  0  0  0  0  0  0  0
    1.2621    0.2670    0.1638 O   0  0  0  0  0  0  0  0  0  0  0  0
   -0.8915    1.8114    0.2636 O   0  0  0  0  0  0  0  0  0  0  0  0
    2.3276   -1.7621    0.2226 O   0  0  0  0  0  0  0  0  0  0  0  0
   -4.6985    0.1175    0.6387 N   0  0  0  0  0  0  0  0  0  0  0  0
    4.8717    1.8762   -0.2728 N   0  0  0  0  0  0  0  0  0  0  0  0
    3.5788    1.5381   -0.1346 N   0  0  0  0  0  0  0  0  0  0  0  0
   -3.6042    0.9326    0.5114 C   0  0  0  0  0  0  0  0  0  0  0  0
   -4.2935   -1.1911    0.6841 C   0  0  0  0  0  0  0  0  0  0  0  0
   -2.5191    0.1197    0.4791 C   0  0  0  0  0  0  0  0  0  0  0  0
   -6.0722    0.5686    0.7132 C   0  0  0  0  0  0  0  0  0  0  0  0
   -2.9198   -1.2113    0.5851 C   0  0  0  0  0  0  0  0  0  0  0  0
   -3.7303    2.4044    0.4361 C   0  0  0  0  0  0  0  0  0  0  0  0
   -6.7280    0.6702   -0.6574 C   0  0  0  0  0  0  0  0  0  0  0  0
   -5.2494   -2.3097    0.8179 C   0  0  0  0  0  0  0  0  0  0  0  0
   -1.1355    0.6069    0.3501 C   0  0  0  0  0  0  0  0  0  0  0  0
    0.0049   -0.3992    0.3252 C   0  0  0  0  0  0  0  0  0  0  0  0
    4.9277   -0.3105   -0.1174 C   0  0  0  0  0  0  0  0  0  0  0  0
    3.6168    0.2071   -0.0402 C   0  0  0  0  0  0  0  0  0  0  0  0
    5.7331    0.8124   -0.2707 C   0  0  0  0  0  0  0  0  0  0  0  0
    2.3920   -0.5249    0.1236 C   0  0  0  0  0  0  0  0  0  0  0  0
    5.5217   -1.5830   -0.0761 C   0  0  0  0  0  0  0  0  0  0  0  0
    7.1230    0.7426   -0.3878 C   0  0  0  0  0  0  0  0  0  0  0  0
   -7.3734   -0.5642   -2.5502 C   0  0  0  0  0  0  0  0  0  0  0  0
    6.9143   -1.6753   -0.1917 C   0  0  0  0  0  0  0  0  0  0  0  0
    7.6995   -0.5310   -0.3453 C   0  0  0  0  0  0  0  0  0  0  0  0
   -6.6285   -0.1302    1.3450 H   0  0  0  0  0  0  0  0  0  0  0  0
   -6.1030    1.5288    1.2374 H   0  0  0  0  0  0  0  0  0  0  0  0
   -2.3057   -2.1013    0.5915 H   0  0  0  0  0  0  0  0  0  0  0  0
   -4.7212    2.7479    0.1298 H   0  0  0  0  0  0  0  0  0  0  0  0
   -3.0408    2.8215   -0.3047 H   0  0  0  0  0  0  0  0  0  0  0  0
   -3.5020    2.8540    1.4079 H   0  0  0  0  0  0  0  0  0  0  0  0
   -7.7524    1.0420   -0.5403 H   0  0  0  0  0  0  0  0  0  0  0  0
   -6.1744    1.3661   -1.2984 H   0  0  0  0  0  0  0  0  0  0  0  0
   -4.7121   -3.2303    1.0750 H   0  0  0  0  0  0  0  0  0  0  0  0
   -5.7762   -2.5090   -0.1174 H   0  0  0  0  0  0  0  0  0  0  0  0
   -5.9768   -2.1466    1.6176 H   0  0  0  0  0  0  0  0  0  0  0  0
    0.0087   -0.9468    1.2738 H   0  0  0  0  0  0  0  0  0  0  0  0
   -0.1475   -1.0809   -0.5184 H   0  0  0  0  0  0  0  0  0  0  0  0
    4.9282   -2.4841    0.0425 H   0  0  0  0  0  0  0  0  0  0  0  0
    5.1016    2.8578   -0.3649 H   0  0  0  0  0  0  0  0  0  0  0  0
    7.7312    1.6323   -0.5067 H   0  0  0  0  0  0  0  0  0  0  0  0
   -7.3695   -1.5730   -2.9716 H   0  0  0  0  0  0  0  0  0  0  0  0
   -6.8143    0.0960   -3.2203 H   0  0  0  0  0  0  0  0  0  0  0  0
   -8.4104   -0.2255   -2.4649 H   0  0  0  0  0  0  0  0  0  0  0  0
    7.3897   -2.6523   -0.1618 H   0  0  0  0  0  0  0  0  0  0  0  0
    8.7785   -0.6308   -0.4330 H   0  0  0  0  0  0  0  0  0  0  0  0
  1 14  1  0  0  0  0
  1 24  1  0  0  0  0
  2 17  1  0  0  0  0
  2 21  1  0  0  0  0
  3 16  2  0  0  0  0
  4 21  2  0  0  0  0
  5  8  1  0  0  0  0
  5  9  1  0  0  0  0
  5 11  1  0  0  0  0
  6  7  1  0  0  0  0
  6 20  1  0  0  0  0
  6 41  1  0  0  0  0
  7 19  2  0  0  0  0
  8 10  2  0  0  0  0
  8 13  1  0  0  0  0
  9 12  2  0  0  0  0
  9 15  1  0  0  0  0
 10 12  1  0  0  0  0
 10 16  1  0  0  0  0
 11 14  1  0  0  0  0
 11 27  1  0  0  0  0
 11 28  1  0  0  0  0
 12 29  1  0  0  0  0
 13 30  1  0  0  0  0
 13 31  1  0  0  0  0
 13 32  1  0  0  0  0
 14 33  1  0  0  0  0
 14 34  1  0  0  0  0
 15 35  1  0  0  0  0
 15 36  1  0  0  0  0
 15 37  1  0  0  0  0
 16 17  1  0  0  0  0
 17 38  1  0  0  0  0
 17 39  1  0  0  0  0
 18 19  1  0  0  0  0
 18 20  1  0  0  0  0
 18 22  2  0  0  0  0
 19 21  1  0  0  0  0
 20 23  2  0  0  0  0
 22 25  1  0  0  0  0
 22 40  1  0  0  0  0
 23 26  1  0  0  0  0
 23 42  1  0  0  0  0
 24 43  1  0  0  0  0
 24 44  1  0  0  0  0
 24 45  1  0  0  0  0
 25 26  2  0  0  0  0
 25 46  1  0  0  0  0
 26 47  1  0  0  0  0
M  END
> <PUBCHEM_COMPOUND_CID>
2540894

> <PUBCHEM_CONFORMER_RMSD>
1.2

> <PUBCHEM_CONFORMER_DIVERSEORDER>
1
102
121
61
46
45
130
38
43
6
93
54
97
150
10
50
145
21
33
116
88
56
100
13
149
37
122
114
110
144
119
86
70
52
31
41
151
132
23
101
115
113
108
22
72
104
2
42
60
95
105
53
147
35
146
19
49
142
18
117
3
47
103
148
73
51
4
87
82
83
85
63
66
84
141
133
126
64
9
140
24
7
99
78
79
137
12
55
39
36
17
15
128
127
125
152
27
118
139
16
75
134
48
28
81
136
129
68
96
107
32
76
109
111
67
57
92
112
74
124
123
120
8
11
58
106
135
77
143
90
71
20
153
98
138
62
131
44
26
40
5
94
65
59
80
91
30
34
25
14
69
89
29

> <PUBCHEM_MMFF94_PARTIAL_CHARGES>
31
1 -0.56
10 -0.09
11 0.26
12 -0.15
13 0.18
14 0.28
15 0.18
16 0.6
17 0.34
19 0.2
2 -0.43
20 -0.15
21 0.81
22 -0.15
23 -0.15
24 0.28
25 -0.15
26 -0.15
29 0.15
3 -0.57
4 -0.57
40 0.15
41 0.27
42 0.15
46 0.15
47 0.15
5 0.05
6 0.3
7 -0.71
8 -0.33
9 -0.33

> <PUBCHEM_EFFECTIVE_ROTOR_COUNT>
8

> <PUBCHEM_PHARMACOPHORE_FEATURES>
9
1 1 acceptor
1 3 acceptor
1 4 acceptor
1 5 cation
1 6 donor
1 7 acceptor
5 5 8 9 10 12 rings
5 6 7 18 19 20 rings
6 18 20 22 23 25 26 rings

> <PUBCHEM_HEAVY_ATOM_COUNT>
26

> <PUBCHEM_ATOM_DEF_STEREO_COUNT>
0

> <PUBCHEM_ATOM_UDEF_STEREO_COUNT>
0

> <PUBCHEM_BOND_DEF_STEREO_COUNT>
0

> <PUBCHEM_BOND_UDEF_STEREO_COUNT>
0

> <PUBCHEM_ISOTOPIC_ATOM_COUNT>
0

> <PUBCHEM_COMPONENT_COUNT>
1

> <PUBCHEM_CACTVS_TAUTO_COUNT>
6

> <PUBCHEM_CONFORMER_ID>
0026C55E00000001

> <PUBCHEM_MMFF94_ENERGY>
45.8066

> <PUBCHEM_FEATURE_SELFOVERLAP>
45.763

> <PUBCHEM_SHAPE_FINGERPRINT>
10299344 5 18060702779871036815
10595046 47 18408328795872780880
10835480 77 18261672687395503997
10968037 39 18408888438843692059
11135926 11 18261392226711596443
11315181 36 18334020501390468137
11524674 6 16630529544170027543
11719270 70 18272370841841205470
12107183 9 17687747134328012536
12166972 35 18260839219639250076
12236239 1 18413113857686821136
12516196 113 17775847912827528705
13533116 47 16877935011091192314
14251764 18 18202566181139428716
14933364 13 18408611353176027224
15183329 4 18335140869347661730
15419008 47 17168139039978679797
15461852 350 17704071802377169685
17093844 174 16732986449004453329
17844677 252 18410867563868657352
18681886 176 18410856590485308944
21150785 3 17704069611964882445
21267235 1 18336276698870700506
21315759 40 17203612579440879070
220451 1 12685093708794701384
221357 26 18408605843007637232
23081809 10 17989212550839058345
23559900 14 18338232786487707657
300161 21 17530961389102387067
3004659 81 18260550022263323056
335352 9 18409736145772689406
4073 2 17895768386711151530
4325135 7 18342458136220404468
4339292 15 15553867972213012101
44802255 64 16878215408485518899
504579 68 18334007289854917575
54039377 194 18059568166562878079
5969126 39 18343578521912238461
59755656 215 18113900425309582922
59755656 520 17458063793792900050
9996256 80 18409172104148267570

> <PUBCHEM_SHAPE_MULTIPOLES>
496.65
24.31
1.96
1.08
8.71
0.06
-0.71
-3.56
-7.75
-0.3
0.29
-2.9
-0.23
-0.33

> <PUBCHEM_SHAPE_SELFOVERLAP>
1069.946

> <PUBCHEM_SHAPE_VOLUME>
277.2

> <PUBCHEM_COORDINATE_TYPE>
2
5
10

$$$$
