5346526
  -OEChem-01171809303D

 46 48  0     0  0  0  0  0  0999 V2000
   -1.1722    2.0641   -0.5020 S   0  0  0  0  0  0  0  0  0  0  0  0
   -1.3955   -2.2974   -0.6811 O   0  0  0  0  0  0  0  0  0  0  0  0
    5.7946   -0.5312   -1.4706 O   0  0  0  0  0  0  0  0  0  0  0  0
    6.2982    0.5593    1.0352 O   0  0  0  0  0  0  0  0  0  0  0  0
   -2.4196   -0.3681   -0.0369 N   0  0  0  0  0  0  0  0  0  0  0  0
   -3.7000    1.4768    0.1090 N   0  0  0  0  0  0  0  0  0  0  0  0
   -3.7324   -0.7983    0.1562 C   0  0  0  0  0  0  0  0  0  0  0  0
   -4.4900    0.3700    0.2415 C   0  0  0  0  0  0  0  0  0  0  0  0
   -2.4839    1.0114   -0.0537 C   0  0  0  0  0  0  0  0  0  0  0  0
   -4.3261   -2.0656    0.2636 C   0  0  0  0  0  0  0  0  0  0  0  0
   -1.2882   -1.1867   -0.1817 C   0  0  0  0  0  0  0  0  0  0  0  0
   -5.8802    0.2923    0.4394 C   0  0  0  0  0  0  0  0  0  0  0  0
   -5.7104   -2.1257    0.4604 C   0  0  0  0  0  0  0  0  0  0  0  0
   -6.4773   -0.9665    0.5472 C   0  0  0  0  0  0  0  0  0  0  0  0
    0.0015   -0.6588    0.2833 C   0  0  0  0  0  0  0  0  0  0  0  0
    2.4770   -0.6477    0.0250 C   0  0  0  0  0  0  0  0  0  0  0  0
    1.1127   -1.0761   -0.3314 C   0  0  0  0  0  0  0  0  0  0  0  0
   -2.0551    3.3209   -1.4664 C   0  0  0  0  0  0  0  0  0  0  0  0
    3.4972   -0.7938   -0.9007 C   0  0  0  0  0  0  0  0  0  0  0  0
    4.7885   -0.3879   -0.5636 C   0  0  0  0  0  0  0  0  0  0  0  0
    2.7123   -0.1073    1.2786 C   0  0  0  0  0  0  0  0  0  0  0  0
    5.0417    0.1580    0.6947 C   0  0  0  0  0  0  0  0  0  0  0  0
    4.0037    0.2983    1.6158 C   0  0  0  0  0  0  0  0  0  0  0  0
   -2.5216    4.4510   -0.5685 C   0  0  0  0  0  0  0  0  0  0  0  0
    5.4528   -1.0978   -2.7340 C   0  0  0  0  0  0  0  0  0  0  0  0
    6.4722    1.1068    2.3407 C   0  0  0  0  0  0  0  0  0  0  0  0
   -3.7419   -2.9773    0.2035 H   0  0  0  0  0  0  0  0  0  0  0  0
   -6.4833    1.1925    0.5078 H   0  0  0  0  0  0  0  0  0  0  0  0
   -6.1938   -3.0954    0.5482 H   0  0  0  0  0  0  0  0  0  0  0  0
   -7.5506   -1.0401    0.7006 H   0  0  0  0  0  0  0  0  0  0  0  0
   -0.0025    0.0351    1.1140 H   0  0  0  0  0  0  0  0  0  0  0  0
    1.0476   -1.7657   -1.1705 H   0  0  0  0  0  0  0  0  0  0  0  0
   -1.3560    3.7198   -2.2087 H   0  0  0  0  0  0  0  0  0  0  0  0
   -2.8927    2.8825   -2.0184 H   0  0  0  0  0  0  0  0  0  0  0  0
    3.2435   -1.2225   -1.8644 H   0  0  0  0  0  0  0  0  0  0  0  0
    1.9399    0.0007    2.0334 H   0  0  0  0  0  0  0  0  0  0  0  0
    4.1278    0.7093    2.6118 H   0  0  0  0  0  0  0  0  0  0  0  0
   -3.2365    4.1122    0.1875 H   0  0  0  0  0  0  0  0  0  0  0  0
   -1.6801    4.9321   -0.0579 H   0  0  0  0  0  0  0  0  0  0  0  0
   -3.0209    5.2184   -1.1698 H   0  0  0  0  0  0  0  0  0  0  0  0
    4.7469   -0.4651   -3.2829 H   0  0  0  0  0  0  0  0  0  0  0  0
    5.0977   -2.1290   -2.6315 H   0  0  0  0  0  0  0  0  0  0  0  0
    6.3717   -1.1367   -3.3284 H   0  0  0  0  0  0  0  0  0  0  0  0
    5.8993    2.0314    2.4704 H   0  0  0  0  0  0  0  0  0  0  0  0
    7.5300    1.3721    2.4405 H   0  0  0  0  0  0  0  0  0  0  0  0
    6.2551    0.3686    3.1202 H   0  0  0  0  0  0  0  0  0  0  0  0
  1  9  1  0  0  0  0
  1 18  1  0  0  0  0
  2 11  2  0  0  0  0
  3 20  1  0  0  0  0
  3 25  1  0  0  0  0
  4 22  1  0  0  0  0
  4 26  1  0  0  0  0
  5  7  1  0  0  0  0
  5  9  1  0  0  0  0
  5 11  1  0  0  0  0
  6  8  1  0  0  0  0
  6  9  2  0  0  0  0
  7  8  1  0  0  0  0
  7 10  2  0  0  0  0
  8 12  2  0  0  0  0
 10 13  1  0  0  0  0
 10 27  1  0  0  0  0
 11 15  1  0  0  0  0
 12 14  1  0  0  0  0
 12 28  1  0  0  0  0
 13 14  2  0  0  0  0
 13 29  1  0  0  0  0
 14 30  1  0  0  0  0
 15 17  2  0  0  0  0
 15 31  1  0  0  0  0
 16 17  1  0  0  0  0
 16 19  2  0  0  0  0
 16 21  1  0  0  0  0
 17 32  1  0  0  0  0
 18 24  1  0  0  0  0
 18 33  1  0  0  0  0
 18 34  1  0  0  0  0
 19 20  1  0  0  0  0
 19 35  1  0  0  0  0
 20 22  2  0  0  0  0
 21 23  2  0  0  0  0
 21 36  1  0  0  0  0
 22 23  1  0  0  0  0
 23 37  1  0  0  0  0
 24 38  1  0  0  0  0
 24 39  1  0  0  0  0
 24 40  1  0  0  0  0
 25 41  1  0  0  0  0
 25 42  1  0  0  0  0
 25 43  1  0  0  0  0
 26 44  1  0  0  0  0
 26 45  1  0  0  0  0
 26 46  1  0  0  0  0
M  END
> <PUBCHEM_COMPOUND_CID>
5346526

> <PUBCHEM_CONFORMER_RMSD>
0.8

> <PUBCHEM_CONFORMER_DIVERSEORDER>
39
120
91
168
141
17
193
128
196
100
21
95
116
169
204
29
104
153
183
216
63
88
211
152
203
218
25
149
49
174
208
36
115
178
209
151
2
124
215
135
83
56
189
131
143
159
121
99
222
42
66
118
62
5
161
79
50
164
136
93
206
7
144
112
58
140
166
110
87
34
9
177
139
217
194
89
26
54
97
46
51
214
192
171
40
105
117
200
186
207
137
67
4
134
20
24
205
23
213
123
86
181
133
199
198
92
157
129
82
69
172
201
154
47
212
158
71
188
52
22
173
148
94
6
179
197
119
146
70
221
84
53
75
76
125
59
155
160
180
78
15
38
27
145
163
195
109
210
176
126
3
147
60
18
72
165
103
132
156
185
55
64
1
191
182
187
41
74
122
175
170
202
98
68
31
113
96
28
61
43
107
85
57
111
11
12
190
102
184
10
48
90
127
65
220
219
81
80
73
77
150
142
130
114
32
138
45
30
37
35
14
106
33
13
162
167
108
44
16
19
8
101

> <PUBCHEM_MMFF94_PARTIAL_CHARGES>
34
1 -0.29
10 -0.15
11 0.56
12 -0.15
13 -0.15
14 -0.15
15 -0.14
16 0.03
17 -0.18
18 0.23
19 -0.15
2 -0.57
20 0.08
21 -0.15
22 0.08
23 -0.15
25 0.28
26 0.28
27 0.15
28 0.15
29 0.15
3 -0.36
30 0.15
31 0.15
32 0.15
35 0.15
36 0.15
37 0.15
4 -0.36
5 0.29
6 -0.57
7 -0.15
8 0.23
9 0.24

> <PUBCHEM_EFFECTIVE_ROTOR_COUNT>
7

> <PUBCHEM_PHARMACOPHORE_FEATURES>
7
1 2 acceptor
1 24 hydrophobe
1 3 acceptor
1 4 acceptor
5 5 6 7 8 9 rings
6 16 19 20 21 22 23 rings
6 7 8 10 12 13 14 rings

> <PUBCHEM_HEAVY_ATOM_COUNT>
26

> <PUBCHEM_ATOM_DEF_STEREO_COUNT>
0

> <PUBCHEM_ATOM_UDEF_STEREO_COUNT>
0

> <PUBCHEM_BOND_DEF_STEREO_COUNT>
1

> <PUBCHEM_BOND_UDEF_STEREO_COUNT>
0

> <PUBCHEM_ISOTOPIC_ATOM_COUNT>
0

> <PUBCHEM_COMPONENT_COUNT>
1

> <PUBCHEM_CACTVS_TAUTO_COUNT>
1

> <PUBCHEM_CONFORMER_ID>
005194DE00000027

> <PUBCHEM_MMFF94_ENERGY>
94.5756

> <PUBCHEM_FEATURE_SELFOVERLAP>
35.63

> <PUBCHEM_SHAPE_FINGERPRINT>
10 15 18342167921475909274
10369192 42 17489585714340450856
10670039 82 18188783747193159156
11059845 2 17467885512452644672
11595378 159 18114731655751755890
12107183 9 17321532792032698738
12236239 1 17312823779414536927
12390115 104 18126012563865726745
12403259 415 18130787819915372366
12596602 18 16950002534513414984
12730499 353 17775007890850927958
12788726 201 18041000618207242465
12916748 109 18407758136537478682
13402501 40 18202280316458273968
13533116 47 15357693098509544306
13782708 43 18060426772246023462
14341114 176 17561088015939917066
15081414 286 17489588987427193696
15131766 46 15984238864284454888
15183329 4 12967133813065129131
15419008 47 18201722855594948096
15961568 22 18263362663233882868
17844677 252 17131846338862380666
19377110 9 17749104465766666128
20645477 56 18060127769612785034
21033648 29 17774992484333356139
21033650 10 18189353281505621824
21267235 1 18337402634219164131
21315759 40 17240477010156429522
221357 26 17346884416613120978
2297311 6 18411430496483655135
2303208 19 17988374731526838710
23557571 272 18340217297358463647
23559900 14 18202005434045690567
249057 25 17240483572950950796
2747138 104 18338247045784002483
3004659 81 18040725795749855541
335352 9 18335141995604831365
34797466 226 18270974530645064324
4073 2 17845652685229882510
46194498 28 18202012023448598380
469060 322 18261120634117121449
5104073 3 18341047398351533434
59755656 215 18201446847826924431

> <PUBCHEM_SHAPE_MULTIPOLES>
511.35
17.24
3.03
1.62
9.68
4.18
-0.29
-3.83
3.5
-5.08
-1.09
4.26
0.11
2.59

> <PUBCHEM_SHAPE_SELFOVERLAP>
1088.939

> <PUBCHEM_SHAPE_VOLUME>
287.6

> <PUBCHEM_COORDINATE_TYPE>
2
5
10

$$$$
