16249515
  -OEChem-01171810013D

 51 53  0     0  0  0  0  0  0999 V2000
   -2.3016    1.0044    3.1505 Br  0  0  0  0  0  0  0  0  0  0  0  0
    3.3299    1.6350   -0.3526 O   0  0  0  0  0  0  0  0  0  0  0  0
   -3.6758   -0.5152    0.8107 O   0  0  0  0  0  0  0  0  0  0  0  0
   -2.4962   -2.1284   -1.0834 O   0  0  0  0  0  0  0  0  0  0  0  0
    4.6112   -2.0928    0.7859 O   0  0  0  0  0  0  0  0  0  0  0  0
   -6.2487   -0.1424    0.8528 O   0  0  0  0  0  0  0  0  0  0  0  0
   -6.2784    1.7579   -0.4811 N   0  0  0  0  0  0  0  0  0  0  0  0
    2.7802   -0.6554    0.2457 C   0  0  0  0  0  0  0  0  0  0  0  0
    2.4699    0.5218   -0.6212 C   0  0  0  0  0  0  0  0  0  0  0  0
    5.1503    0.0411   -0.0768 C   0  0  0  0  0  0  0  0  0  0  0  0
    0.4108   -1.1506    0.8792 C   0  0  0  0  0  0  0  0  0  0  0  0
    4.2159   -1.0157    0.3632 C   0  0  0  0  0  0  0  0  0  0  0  0
    1.8646   -1.3824    0.8971 C   0  0  0  0  0  0  0  0  0  0  0  0
    4.6612    1.3118   -0.3970 C   0  0  0  0  0  0  0  0  0  0  0  0
   -0.3607   -1.7537   -0.1019 C   0  0  0  0  0  0  0  0  0  0  0  0
   -1.7382   -1.5348   -0.1196 C   0  0  0  0  0  0  0  0  0  0  0  0
   -2.3266   -0.7156    0.8438 C   0  0  0  0  0  0  0  0  0  0  0  0
   -0.1603   -0.3342    1.8428 C   0  0  0  0  0  0  0  0  0  0  0  0
    6.5241   -0.2134   -0.1213 C   0  0  0  0  0  0  0  0  0  0  0  0
   -1.5377   -0.1153    1.8250 C   0  0  0  0  0  0  0  0  0  0  0  0
    5.5479    2.3356   -0.7330 C   0  0  0  0  0  0  0  0  0  0  0  0
    7.4049    0.8083   -0.4794 C   0  0  0  0  0  0  0  0  0  0  0  0
    6.9186    2.0808   -0.7803 C   0  0  0  0  0  0  0  0  0  0  0  0
   -4.1464    0.5880    0.0405 C   0  0  0  0  0  0  0  0  0  0  0  0
   -2.1888   -1.8077   -2.4387 C   0  0  0  0  0  0  0  0  0  0  0  0
   -5.6506    0.6975    0.1732 C   0  0  0  0  0  0  0  0  0  0  0  0
   -3.4506   -1.9124   -3.2686 C   0  0  0  0  0  0  0  0  0  0  0  0
   -5.6044    2.7781   -1.2803 C   0  0  0  0  0  0  0  0  0  0  0  0
   -7.7244    1.9098   -0.3753 C   0  0  0  0  0  0  0  0  0  0  0  0
    1.4480    0.8872   -0.4832 H   0  0  0  0  0  0  0  0  0  0  0  0
    2.5652    0.2491   -1.6807 H   0  0  0  0  0  0  0  0  0  0  0  0
    2.1631   -2.2268    1.5147 H   0  0  0  0  0  0  0  0  0  0  0  0
    0.0995   -2.3990   -0.8463 H   0  0  0  0  0  0  0  0  0  0  0  0
    0.4601    0.1313    2.6056 H   0  0  0  0  0  0  0  0  0  0  0  0
    6.9256   -1.1924    0.1252 H   0  0  0  0  0  0  0  0  0  0  0  0
    5.1790    3.3307   -0.9661 H   0  0  0  0  0  0  0  0  0  0  0  0
    8.4731    0.6146   -0.5149 H   0  0  0  0  0  0  0  0  0  0  0  0
    7.6087    2.8751   -1.0498 H   0  0  0  0  0  0  0  0  0  0  0  0
   -3.6899    1.5161    0.3999 H   0  0  0  0  0  0  0  0  0  0  0  0
   -3.8973    0.4314   -1.0140 H   0  0  0  0  0  0  0  0  0  0  0  0
   -1.4392   -2.5146   -2.8106 H   0  0  0  0  0  0  0  0  0  0  0  0
   -1.7871   -0.7899   -2.5205 H   0  0  0  0  0  0  0  0  0  0  0  0
   -3.2481   -1.6824   -4.3183 H   0  0  0  0  0  0  0  0  0  0  0  0
   -3.8720   -2.9210   -3.2032 H   0  0  0  0  0  0  0  0  0  0  0  0
   -4.2169   -1.2240   -2.8979 H   0  0  0  0  0  0  0  0  0  0  0  0
   -5.7606    3.7508   -0.8048 H   0  0  0  0  0  0  0  0  0  0  0  0
   -6.0463    2.7872   -2.2811 H   0  0  0  0  0  0  0  0  0  0  0  0
   -4.5331    2.6010   -1.3753 H   0  0  0  0  0  0  0  0  0  0  0  0
   -8.1748    1.1224    0.2341 H   0  0  0  0  0  0  0  0  0  0  0  0
   -8.1571    1.8712   -1.3793 H   0  0  0  0  0  0  0  0  0  0  0  0
   -7.9437    2.8797    0.0810 H   0  0  0  0  0  0  0  0  0  0  0  0
  1 20  1  0  0  0  0
  2  9  1  0  0  0  0
  2 14  1  0  0  0  0
  3 17  1  0  0  0  0
  3 24  1  0  0  0  0
  4 16  1  0  0  0  0
  4 25  1  0  0  0  0
  5 12  2  0  0  0  0
  6 26  2  0  0  0  0
  7 26  1  0  0  0  0
  7 28  1  0  0  0  0
  7 29  1  0  0  0  0
  8  9  1  0  0  0  0
  8 12  1  0  0  0  0
  8 13  2  0  0  0  0
  9 30  1  0  0  0  0
  9 31  1  0  0  0  0
 10 12  1  0  0  0  0
 10 14  1  0  0  0  0
 10 19  2  0  0  0  0
 11 13  1  0  0  0  0
 11 15  2  0  0  0  0
 11 18  1  0  0  0  0
 13 32  1  0  0  0  0
 14 21  2  0  0  0  0
 15 16  1  0  0  0  0
 15 33  1  0  0  0  0
 16 17  2  0  0  0  0
 17 20  1  0  0  0  0
 18 20  2  0  0  0  0
 18 34  1  0  0  0  0
 19 22  1  0  0  0  0
 19 35  1  0  0  0  0
 21 23  1  0  0  0  0
 21 36  1  0  0  0  0
 22 23  2  0  0  0  0
 22 37  1  0  0  0  0
 23 38  1  0  0  0  0
 24 26  1  0  0  0  0
 24 39  1  0  0  0  0
 24 40  1  0  0  0  0
 25 27  1  0  0  0  0
 25 41  1  0  0  0  0
 25 42  1  0  0  0  0
 27 43  1  0  0  0  0
 27 44  1  0  0  0  0
 27 45  1  0  0  0  0
 28 46  1  0  0  0  0
 28 47  1  0  0  0  0
 28 48  1  0  0  0  0
 29 49  1  0  0  0  0
 29 50  1  0  0  0  0
 29 51  1  0  0  0  0
M  END
> <PUBCHEM_COMPOUND_CID>
16249515

> <PUBCHEM_CONFORMER_RMSD>
1

> <PUBCHEM_CONFORMER_DIVERSEORDER>
2
30
48
20
36
5
39
47
33
11
32
21
7
31
17
1
27
37
19
44
46
3
26
12
41
8
14
43
15
42
13
45
10
25
24
22
4
34
23
40
35
9
29
28
18
16
38
6

> <PUBCHEM_MMFF94_PARTIAL_CHARGES>
35
1 -0.11
10 0.09
11 0.03
12 0.47
13 -0.18
14 0.08
15 -0.15
16 0.08
17 0.08
18 -0.15
19 -0.15
2 -0.36
20 0.11
21 -0.15
22 -0.15
23 -0.15
24 0.34
25 0.28
26 0.57
28 0.3
29 0.3
3 -0.36
32 0.15
33 0.15
34 0.15
35 0.15
36 0.15
37 0.15
38 0.15
4 -0.36
5 -0.57
6 -0.57
7 -0.66
8 -0.12
9 0.42

> <PUBCHEM_EFFECTIVE_ROTOR_COUNT>
7.4

> <PUBCHEM_PHARMACOPHORE_FEATURES>
9
1 1 hydrophobe
1 2 acceptor
1 3 acceptor
1 4 acceptor
1 5 acceptor
1 6 acceptor
6 10 14 19 21 22 23 rings
6 11 15 16 17 18 20 rings
6 2 8 9 10 12 14 rings

> <PUBCHEM_HEAVY_ATOM_COUNT>
29

> <PUBCHEM_ATOM_DEF_STEREO_COUNT>
0

> <PUBCHEM_ATOM_UDEF_STEREO_COUNT>
0

> <PUBCHEM_BOND_DEF_STEREO_COUNT>
1

> <PUBCHEM_BOND_UDEF_STEREO_COUNT>
0

> <PUBCHEM_ISOTOPIC_ATOM_COUNT>
0

> <PUBCHEM_COMPONENT_COUNT>
1

> <PUBCHEM_CACTVS_TAUTO_COUNT>
1

> <PUBCHEM_CONFORMER_ID>
00F7F2AB00000002

> <PUBCHEM_MMFF94_ENERGY>
99.8318

> <PUBCHEM_FEATURE_SELFOVERLAP>
45.721

> <PUBCHEM_SHAPE_FINGERPRINT>
10674148 151 14261351337287597931
11200772 48 15985099722117819581
11991303 11 18059849585019367615
12236239 1 18342744048378802002
12788726 201 17774729675084125384
13140716 1 13552061943369604019
13668630 136 11887958735466709296
13690498 29 17558822026135074375
13782708 43 13686302361660365724
13911987 19 17846499206519928667
14767858 380 17632859694432192433
15064981 113 17345763984368906324
15131766 46 18261956379134320468
15183329 4 18060139821380831609
15238133 3 17168157740571597860
15361156 5 14261360183944314899
15510800 12 13542174039585471645
15538507 19 17681010779912535219
19958102 18 17203058395689659310
20157964 124 18335707104945978010
20511986 3 18272646883599130704
21033648 29 16950577583437033010
21307412 95 15626224645506935647
21424621 283 17458346312456777721
21756936 100 18261388975336645279
22122407 14 18041011647372658537
23559900 14 16630236013230491138
23569914 2 17245500708427354485
23576562 1 17987506169613700237
2838139 119 18260545623895246869
3633792 109 18270405984085602946
392239 28 14273742875733641263
4073 2 17458354077836906922
4098825 35 18260829310458088746
5104073 3 13479952590538100464
5385378 56 16443059474771197640
57724786 102 17314237837879204748
59755656 520 17749388208528904666

> <PUBCHEM_SHAPE_MULTIPOLES>
568.42
19.76
2.58
2.22
4.9
0.1
0.13
14.05
-7.68
-1.52
-1.47
-2.92
-0.31
-2.02

> <PUBCHEM_SHAPE_SELFOVERLAP>
1200.905

> <PUBCHEM_SHAPE_VOLUME>
327.2

> <PUBCHEM_COORDINATE_TYPE>
2
5
10

$$$$
