975543
  -OEChem-01171809203D

 45 47  0     0  0  0  0  0  0999 V2000
    1.9103    0.5132   -0.0216 O   0  0  0  0  0  0  0  0  0  0  0  0
   -0.1770   -2.3538   -0.0005 O   0  0  0  0  0  0  0  0  0  0  0  0
   -6.8800    2.0914   -0.0158 O   0  0  0  0  0  0  0  0  0  0  0  0
   -0.7007   -0.0886   -0.0464 N   0  0  0  0  0  0  0  0  0  0  0  0
   -6.2795   -0.1880    0.0314 N   0  0  0  0  0  0  0  0  0  0  0  0
    3.8340   -0.6708    0.0021 C   0  0  0  0  0  0  0  0  0  0  0  0
    2.7415   -1.5774   -0.0065 C   0  0  0  0  0  0  0  0  0  0  0  0
    3.2702    0.6009   -0.0074 C   0  0  0  0  0  0  0  0  0  0  0  0
    6.0045    0.3878    0.0209 C   0  0  0  0  0  0  0  0  0  0  0  0
    1.6003   -0.8094   -0.0206 C   0  0  0  0  0  0  0  0  0  0  0  0
    5.2352   -0.7839    0.0164 C   0  0  0  0  0  0  0  0  0  0  0  0
    5.3994    1.6472    0.0120 C   0  0  0  0  0  0  0  0  0  0  0  0
    4.0081    1.7832   -0.0027 C   0  0  0  0  0  0  0  0  0  0  0  0
    2.8159   -3.0516   -0.0017 C   0  0  0  0  0  0  0  0  0  0  0  0
    0.2212   -1.1641   -0.0335 C   0  0  0  0  0  0  0  0  0  0  0  0
    7.4943    0.2596    0.0355 C   0  0  0  0  0  0  0  0  0  0  0  0
    6.2329    2.8891    0.0174 C   0  0  0  0  0  0  0  0  0  0  0  0
   -2.1182   -0.1143   -0.0270 C   0  0  0  0  0  0  0  0  0  0  0  0
   -2.7710   -1.3337    0.0101 C   0  0  0  0  0  0  0  0  0  0  0  0
   -2.8147    1.0812   -0.0450 C   0  0  0  0  0  0  0  0  0  0  0  0
   -4.8847   -0.1633    0.0121 C   0  0  0  0  0  0  0  0  0  0  0  0
   -4.1655   -1.3585    0.0297 C   0  0  0  0  0  0  0  0  0  0  0  0
   -4.2092    1.0566   -0.0254 C   0  0  0  0  0  0  0  0  0  0  0  0
   -7.1642    0.8987    0.0184 C   0  0  0  0  0  0  0  0  0  0  0  0
   -8.6033    0.4483    0.0480 C   0  0  0  0  0  0  0  0  0  0  0  0
    5.7066   -1.7622    0.0235 H   0  0  0  0  0  0  0  0  0  0  0  0
    3.5172    2.7497   -0.0103 H   0  0  0  0  0  0  0  0  0  0  0  0
    2.3282   -3.4592    0.8899 H   0  0  0  0  0  0  0  0  0  0  0  0
    2.3211   -3.4660   -0.8862 H   0  0  0  0  0  0  0  0  0  0  0  0
    3.8501   -3.4091   -0.0048 H   0  0  0  0  0  0  0  0  0  0  0  0
    7.9304    0.7235   -0.8551 H   0  0  0  0  0  0  0  0  0  0  0  0
    7.9131    0.7262    0.9331 H   0  0  0  0  0  0  0  0  0  0  0  0
    7.8117   -0.7891    0.0401 H   0  0  0  0  0  0  0  0  0  0  0  0
    6.8710    2.9298   -0.8714 H   0  0  0  0  0  0  0  0  0  0  0  0
    5.6136    3.7930    0.0108 H   0  0  0  0  0  0  0  0  0  0  0  0
    6.8555    2.9325    0.9169 H   0  0  0  0  0  0  0  0  0  0  0  0
   -0.2962    0.8458   -0.0678 H   0  0  0  0  0  0  0  0  0  0  0  0
   -2.2943   -2.3014    0.0259 H   0  0  0  0  0  0  0  0  0  0  0  0
   -2.2969    2.0360   -0.0740 H   0  0  0  0  0  0  0  0  0  0  0  0
   -4.6803   -2.3158    0.0588 H   0  0  0  0  0  0  0  0  0  0  0  0
   -4.6960    2.0217   -0.0409 H   0  0  0  0  0  0  0  0  0  0  0  0
   -6.6971   -1.1160    0.0585 H   0  0  0  0  0  0  0  0  0  0  0  0
   -8.8222   -0.1472   -0.8427 H   0  0  0  0  0  0  0  0  0  0  0  0
   -9.2641    1.3195    0.0647 H   0  0  0  0  0  0  0  0  0  0  0  0
   -8.7861   -0.1521    0.9437 H   0  0  0  0  0  0  0  0  0  0  0  0
  1  8  1  0  0  0  0
  1 10  1  0  0  0  0
  2 15  2  0  0  0  0
  3 24  2  0  0  0  0
  4 15  1  0  0  0  0
  4 18  1  0  0  0  0
  4 37  1  0  0  0  0
  5 21  1  0  0  0  0
  5 24  1  0  0  0  0
  5 42  1  0  0  0  0
  6  7  1  0  0  0  0
  6  8  2  0  0  0  0
  6 11  1  0  0  0  0
  7 10  2  0  0  0  0
  7 14  1  0  0  0  0
  8 13  1  0  0  0  0
  9 11  2  0  0  0  0
  9 12  1  0  0  0  0
  9 16  1  0  0  0  0
 10 15  1  0  0  0  0
 11 26  1  0  0  0  0
 12 13  2  0  0  0  0
 12 17  1  0  0  0  0
 13 27  1  0  0  0  0
 14 28  1  0  0  0  0
 14 29  1  0  0  0  0
 14 30  1  0  0  0  0
 16 31  1  0  0  0  0
 16 32  1  0  0  0  0
 16 33  1  0  0  0  0
 17 34  1  0  0  0  0
 17 35  1  0  0  0  0
 17 36  1  0  0  0  0
 18 19  2  0  0  0  0
 18 20  1  0  0  0  0
 19 22  1  0  0  0  0
 19 38  1  0  0  0  0
 20 23  2  0  0  0  0
 20 39  1  0  0  0  0
 21 22  2  0  0  0  0
 21 23  1  0  0  0  0
 22 40  1  0  0  0  0
 23 41  1  0  0  0  0
 24 25  1  0  0  0  0
 25 43  1  0  0  0  0
 25 44  1  0  0  0  0
 25 45  1  0  0  0  0
M  END
> <PUBCHEM_COMPOUND_CID>
975543

> <PUBCHEM_CONFORMER_RMSD>
0.8

> <PUBCHEM_CONFORMER_DIVERSEORDER>
2
3
7
4
8
5
1
6

> <PUBCHEM_MMFF94_PARTIAL_CHARGES>
32
1 -0.28
10 0.05
11 -0.15
12 -0.14
13 -0.15
14 0.18
15 0.71
16 0.14
17 0.14
18 0.12
19 -0.15
2 -0.57
20 -0.15
21 0.12
22 -0.15
23 -0.15
24 0.57
25 0.06
26 0.15
27 0.15
3 -0.57
37 0.37
38 0.15
39 0.15
4 -0.55
40 0.15
41 0.15
42 0.37
5 -0.55
7 -0.18
8 0.14
9 -0.14

> <PUBCHEM_EFFECTIVE_ROTOR_COUNT>
5

> <PUBCHEM_PHARMACOPHORE_FEATURES>
8
1 1 acceptor
1 2 acceptor
1 3 acceptor
1 4 donor
1 5 donor
5 1 6 7 8 10 rings
6 18 19 20 21 22 23 rings
6 6 8 9 11 12 13 rings

> <PUBCHEM_HEAVY_ATOM_COUNT>
25

> <PUBCHEM_ATOM_DEF_STEREO_COUNT>
0

> <PUBCHEM_ATOM_UDEF_STEREO_COUNT>
0

> <PUBCHEM_BOND_DEF_STEREO_COUNT>
0

> <PUBCHEM_BOND_UDEF_STEREO_COUNT>
0

> <PUBCHEM_ISOTOPIC_ATOM_COUNT>
0

> <PUBCHEM_COMPONENT_COUNT>
1

> <PUBCHEM_CACTVS_TAUTO_COUNT>
4

> <PUBCHEM_CONFORMER_ID>
000EE2B700000002

> <PUBCHEM_MMFF94_ENERGY>
66.8756

> <PUBCHEM_FEATURE_SELFOVERLAP>
40.699

> <PUBCHEM_SHAPE_FINGERPRINT>
10 15 18040999548934406905
10411042 1 17906453222068251990
10595046 47 18342174462616271747
106641 1 12396301482986822180
10835480 77 18408602574262841545
11719270 70 18343298146447083914
12107183 9 17691972557281524882
12236239 1 18273494589240971479
125118 31 18333453127410235501
12788726 201 17346605119005585755
12838862 33 18339907277633828232
13167372 99 18411700950247444417
13533116 47 18201434714913350659
14461889 52 18186525440398915275
14933364 13 18410013234580111445
15183329 4 18272374165475551160
15419008 145 18116138997025313256
15475509 35 16154257309871731170
15483637 11 18121216476628479780
1577012 14 18341045302343968062
16989713 51 17273406395814347815
18335252 98 18410016555281291755
18608769 82 18337392746908971947
19427546 62 18408887369170689890
19611394 137 17970080027020155539
20157964 124 18412265012729238030
20281389 69 18259701185890230789
20721686 124 18131637755832917622
21033648 29 18268137820625978800
21150785 3 14764346041941548617
22224240 67 17967813855977216107
23559900 14 18340480166563468529
255183 451 17843129091586046198
33532 11 9295289434987459317
335352 9 18411422818015845590
34797466 226 18059581269167583119
3545911 37 18408886230634552231
4073 2 18114186383847276090
4325135 7 18343019991136584765
4340502 62 16950562177416118698
465052 167 7781519222145254488
5104073 3 18261117322855208827
59682541 35 18113910364644342401
59682541 52 17346051000037616588
59755656 520 17821723970350257378
67123 10 18411418415758574479

> <PUBCHEM_SHAPE_MULTIPOLES>
486.92
22.48
2.46
0.6
23.31
0.27
0
-12.39
0.36
-2.62
0
-0.04
0
0.03

> <PUBCHEM_SHAPE_SELFOVERLAP>
1061.022

> <PUBCHEM_SHAPE_VOLUME>
268.1

> <PUBCHEM_COORDINATE_TYPE>
2
5
10

$$$$
