930575
  -OEChem-01171809273D

 35 36  0     0  0  0  0  0  0999 V2000
    2.3792   -3.1720    0.4364 Br  0  0  0  0  0  0  0  0  0  0  0  0
    0.7037    2.9193   -0.6470 O   0  0  0  0  0  0  0  0  0  0  0  0
    4.1138    0.5441   -0.1933 O   0  0  0  0  0  0  0  0  0  0  0  0
    4.9568   -1.5495   -0.0166 O   0  0  0  0  0  0  0  0  0  0  0  0
   -0.4601    1.4307    0.7198 N   0  0  0  0  0  0  0  0  0  0  0  0
   -3.7571   -0.1022    1.0027 C   0  0  0  0  0  0  0  0  0  0  0  0
   -4.4165   -1.4707    0.8124 C   0  0  0  0  0  0  0  0  0  0  0  0
   -3.0844    0.4226   -0.2416 C   0  0  0  0  0  0  0  0  0  0  0  0
   -3.5177   -2.4112    0.0185 C   0  0  0  0  0  0  0  0  0  0  0  0
   -3.1839   -1.8244   -1.3531 C   0  0  0  0  0  0  0  0  0  0  0  0
   -2.6953    1.8711   -0.2218 C   0  0  0  0  0  0  0  0  0  0  0  0
   -2.8455   -0.3635   -1.3057 C   0  0  0  0  0  0  0  0  0  0  0  0
   -1.6726    2.1923    0.8590 C   0  0  0  0  0  0  0  0  0  0  0  0
    0.6228    1.8661   -0.0245 C   0  0  0  0  0  0  0  0  0  0  0  0
    1.7470    0.9123   -0.0124 C   0  0  0  0  0  0  0  0  0  0  0  0
    1.5524   -0.4940    0.1822 C   0  0  0  0  0  0  0  0  0  0  0  0
    2.9843    1.3745   -0.1886 C   0  0  0  0  0  0  0  0  0  0  0  0
    2.5960   -1.3347    0.1862 C   0  0  0  0  0  0  0  0  0  0  0  0
    3.9770   -0.8107   -0.0128 C   0  0  0  0  0  0  0  0  0  0  0  0
   -3.0104   -0.1828    1.8020 H   0  0  0  0  0  0  0  0  0  0  0  0
   -4.5217    0.6060    1.3434 H   0  0  0  0  0  0  0  0  0  0  0  0
   -4.6491   -1.9073    1.7902 H   0  0  0  0  0  0  0  0  0  0  0  0
   -5.3706   -1.3476    0.2840 H   0  0  0  0  0  0  0  0  0  0  0  0
   -4.0041   -3.3853   -0.1045 H   0  0  0  0  0  0  0  0  0  0  0  0
   -2.5903   -2.5866    0.5788 H   0  0  0  0  0  0  0  0  0  0  0  0
   -4.0347   -1.9598   -2.0315 H   0  0  0  0  0  0  0  0  0  0  0  0
   -2.3408   -2.3785   -1.7813 H   0  0  0  0  0  0  0  0  0  0  0  0
   -3.5929    2.4817   -0.0646 H   0  0  0  0  0  0  0  0  0  0  0  0
   -2.2902    2.1715   -1.1970 H   0  0  0  0  0  0  0  0  0  0  0  0
   -2.3749    0.0530   -2.1923 H   0  0  0  0  0  0  0  0  0  0  0  0
   -1.4257    3.2594    0.8160 H   0  0  0  0  0  0  0  0  0  0  0  0
   -2.0717    1.9953    1.8597 H   0  0  0  0  0  0  0  0  0  0  0  0
   -0.4112    0.5740    1.2600 H   0  0  0  0  0  0  0  0  0  0  0  0
    0.5494   -0.8936    0.2867 H   0  0  0  0  0  0  0  0  0  0  0  0
    3.2771    2.4032   -0.3420 H   0  0  0  0  0  0  0  0  0  0  0  0
  1 18  1  0  0  0  0
  2 14  2  0  0  0  0
  3 17  1  0  0  0  0
  3 19  1  0  0  0  0
  4 19  2  0  0  0  0
  5 13  1  0  0  0  0
  5 14  1  0  0  0  0
  5 33  1  0  0  0  0
  6  7  1  0  0  0  0
  6  8  1  0  0  0  0
  6 20  1  0  0  0  0
  6 21  1  0  0  0  0
  7  9  1  0  0  0  0
  7 22  1  0  0  0  0
  7 23  1  0  0  0  0
  8 11  1  0  0  0  0
  8 12  2  0  0  0  0
  9 10  1  0  0  0  0
  9 24  1  0  0  0  0
  9 25  1  0  0  0  0
 10 12  1  0  0  0  0
 10 26  1  0  0  0  0
 10 27  1  0  0  0  0
 11 13  1  0  0  0  0
 11 28  1  0  0  0  0
 11 29  1  0  0  0  0
 12 30  1  0  0  0  0
 13 31  1  0  0  0  0
 13 32  1  0  0  0  0
 14 15  1  0  0  0  0
 15 16  1  0  0  0  0
 15 17  2  0  0  0  0
 16 18  2  0  0  0  0
 16 34  1  0  0  0  0
 17 35  1  0  0  0  0
 18 19  1  0  0  0  0
M  END
> <PUBCHEM_COMPOUND_CID>
930575

> <PUBCHEM_CONFORMER_RMSD>
0.8

> <PUBCHEM_CONFORMER_DIVERSEORDER>
1
5
22
10
16
14
17
15
20
19
6
11
2
13
25
12
7
21
9
23
3
18
8
27
4
26
24

> <PUBCHEM_MMFF94_PARTIAL_CHARGES>
21
1 -0.11
10 0.14
11 0.14
12 -0.29
13 0.3
14 0.62
15 0.01
16 -0.15
17 -0.07
18 0.12
19 0.71
2 -0.57
3 -0.23
30 0.15
33 0.37
34 0.15
35 0.15
4 -0.57
5 -0.73
6 0.14
8 -0.28

> <PUBCHEM_EFFECTIVE_ROTOR_COUNT>
5.8

> <PUBCHEM_PHARMACOPHORE_FEATURES>
6
1 1 hydrophobe
1 2 acceptor
1 4 acceptor
1 5 donor
6 3 15 16 17 18 19 rings
6 6 7 8 9 10 12 rings

> <PUBCHEM_HEAVY_ATOM_COUNT>
19

> <PUBCHEM_ATOM_DEF_STEREO_COUNT>
0

> <PUBCHEM_ATOM_UDEF_STEREO_COUNT>
0

> <PUBCHEM_BOND_DEF_STEREO_COUNT>
0

> <PUBCHEM_BOND_UDEF_STEREO_COUNT>
0

> <PUBCHEM_ISOTOPIC_ATOM_COUNT>
0

> <PUBCHEM_COMPONENT_COUNT>
1

> <PUBCHEM_CACTVS_TAUTO_COUNT>
2

> <PUBCHEM_CONFORMER_ID>
000E330F00000001

> <PUBCHEM_MMFF94_ENERGY>
29.3388

> <PUBCHEM_FEATURE_SELFOVERLAP>
30.446

> <PUBCHEM_SHAPE_FINGERPRINT>
10616163 171 18341613663861405543
12553582 1 18412257354897397427
13533116 47 17982169230556725159
14251705 54 18409730681466551619
14787075 74 17700126888123098536
15352361 1 18410293631483185555
15375462 189 18201442544569873657
15537594 2 18198355133167415751
17349148 13 18040997332725949192
20261772 1 18060139868277247111
20291156 8 18412544323089715877
21315759 227 18040995184784073411
21634736 98 18409450280321036934
21673915 165 18413388739630399450
221490 88 18409169934963137576
23402539 116 17823137835498489640
235170 7 16878218740161218518
23559900 14 18340476807799258000
23598288 3 18060139834476762397
23728640 28 18130506315343538513
2871803 45 18335132124667698039
339767 52 18338221674816222066
4283 87 18410568496247063658
46194498 28 17387685240294371837
4921388 177 16732989747475994337
5104073 3 18342735174891758768
5262128 65 16371007459737817277

> <PUBCHEM_SHAPE_MULTIPOLES>
374.36
9.31
3.42
1
1.8
0.54
0.11
5.09
-0.16
0.25
-0.13
-0.97
0.15
-0.65

> <PUBCHEM_SHAPE_SELFOVERLAP>
763.523

> <PUBCHEM_SHAPE_VOLUME>
218.7

> <PUBCHEM_COORDINATE_TYPE>
2
5
10

$$$$
