1113672
  -OEChem-01171809583D

 48 51  0     0  0  0  0  0  0999 V2000
   -5.9785    1.8453   -0.3068 O   0  0  0  0  0  0  0  0  0  0  0  0
    0.5582   -5.1299    0.0216 O   0  0  0  0  0  0  0  0  0  0  0  0
    5.2936   -0.3569   -1.0509 O   0  0  0  0  0  0  0  0  0  0  0  0
   -3.3139    1.0142    0.0226 N   0  0  0  0  0  0  0  0  0  0  0  0
   -0.1011   -2.4025    0.1821 N   0  0  0  0  0  0  0  0  0  0  0  0
   -1.7211   -0.7246    0.1025 N   0  0  0  0  0  0  0  0  0  0  0  0
    0.6166   -0.1836    0.0994 N   0  0  0  0  0  0  0  0  0  0  0  0
   -1.0205    1.5689    0.0180 N   0  0  0  0  0  0  0  0  0  0  0  0
    1.2707    2.0668    0.0175 N   0  0  0  0  0  0  0  0  0  0  0  0
   -4.2999    0.1187   -0.5977 C   0  0  0  0  0  0  0  0  0  0  0  0
   -3.6425    2.4427   -0.0381 C   0  0  0  0  0  0  0  0  0  0  0  0
   -1.0326   -3.3569   -0.4349 C   0  0  0  0  0  0  0  0  0  0  0  0
    1.3026   -2.8280    0.2078 C   0  0  0  0  0  0  0  0  0  0  0  0
   -5.6968    0.4623   -0.0930 C   0  0  0  0  0  0  0  0  0  0  0  0
   -5.0747    2.6625    0.4363 C   0  0  0  0  0  0  0  0  0  0  0  0
   -0.8103   -4.7457    0.1530 C   0  0  0  0  0  0  0  0  0  0  0  0
    1.4010   -4.2459    0.7597 C   0  0  0  0  0  0  0  0  0  0  0  0
   -1.9763    0.6066    0.0485 C   0  0  0  0  0  0  0  0  0  0  0  0
   -0.4163   -1.0411    0.1251 C   0  0  0  0  0  0  0  0  0  0  0  0
    0.2389    1.1038    0.0461 C   0  0  0  0  0  0  0  0  0  0  0  0
    2.6741    1.9599    0.0320 C   0  0  0  0  0  0  0  0  0  0  0  0
    3.2972    0.8410   -0.5242 C   0  0  0  0  0  0  0  0  0  0  0  0
    3.4474    2.9726    0.6032 C   0  0  0  0  0  0  0  0  0  0  0  0
    4.6878    0.7351   -0.5094 C   0  0  0  0  0  0  0  0  0  0  0  0
    4.8382    2.8668    0.6179 C   0  0  0  0  0  0  0  0  0  0  0  0
    5.4583    1.7480    0.0615 C   0  0  0  0  0  0  0  0  0  0  0  0
   -4.2531    0.2458   -1.6862 H   0  0  0  0  0  0  0  0  0  0  0  0
   -4.1074   -0.9353   -0.3690 H   0  0  0  0  0  0  0  0  0  0  0  0
   -2.9771    3.0378    0.5979 H   0  0  0  0  0  0  0  0  0  0  0  0
   -3.5327    2.7882   -1.0732 H   0  0  0  0  0  0  0  0  0  0  0  0
   -2.0813   -3.0859   -0.2697 H   0  0  0  0  0  0  0  0  0  0  0  0
   -0.8512   -3.3746   -1.5165 H   0  0  0  0  0  0  0  0  0  0  0  0
    1.7030   -2.7935   -0.8127 H   0  0  0  0  0  0  0  0  0  0  0  0
    1.9134   -2.1747    0.8414 H   0  0  0  0  0  0  0  0  0  0  0  0
   -6.4450   -0.1214   -0.6384 H   0  0  0  0  0  0  0  0  0  0  0  0
   -5.8055    0.2288    0.9732 H   0  0  0  0  0  0  0  0  0  0  0  0
   -5.3623    3.7075    0.2834 H   0  0  0  0  0  0  0  0  0  0  0  0
   -5.1798    2.4424    1.5056 H   0  0  0  0  0  0  0  0  0  0  0  0
   -1.0997   -4.7837    1.2102 H   0  0  0  0  0  0  0  0  0  0  0  0
   -1.4187   -5.4804   -0.3840 H   0  0  0  0  0  0  0  0  0  0  0  0
    1.1256   -4.2817    1.8208 H   0  0  0  0  0  0  0  0  0  0  0  0
    2.4296   -4.6098    0.6720 H   0  0  0  0  0  0  0  0  0  0  0  0
    0.9200    3.0149    0.1152 H   0  0  0  0  0  0  0  0  0  0  0  0
    2.7281    0.0575   -1.0145 H   0  0  0  0  0  0  0  0  0  0  0  0
    2.9767    3.8492    1.0410 H   0  0  0  0  0  0  0  0  0  0  0  0
    5.4382    3.6551    1.0628 H   0  0  0  0  0  0  0  0  0  0  0  0
    6.5421    1.6711    0.0764 H   0  0  0  0  0  0  0  0  0  0  0  0
    4.6119   -0.9596   -1.3946 H   0  0  0  0  0  0  0  0  0  0  0  0
  1 14  1  0  0  0  0
  1 15  1  0  0  0  0
  2 16  1  0  0  0  0
  2 17  1  0  0  0  0
  3 24  1  0  0  0  0
  3 48  1  0  0  0  0
  4 10  1  0  0  0  0
  4 11  1  0  0  0  0
  4 18  1  0  0  0  0
  5 12  1  0  0  0  0
  5 13  1  0  0  0  0
  5 19  1  0  0  0  0
  6 18  2  0  0  0  0
  6 19  1  0  0  0  0
  7 19  2  0  0  0  0
  7 20  1  0  0  0  0
  8 18  1  0  0  0  0
  8 20  2  0  0  0  0
  9 20  1  0  0  0  0
  9 21  1  0  0  0  0
  9 43  1  0  0  0  0
 10 14  1  0  0  0  0
 10 27  1  0  0  0  0
 10 28  1  0  0  0  0
 11 15  1  0  0  0  0
 11 29  1  0  0  0  0
 11 30  1  0  0  0  0
 12 16  1  0  0  0  0
 12 31  1  0  0  0  0
 12 32  1  0  0  0  0
 13 17  1  0  0  0  0
 13 33  1  0  0  0  0
 13 34  1  0  0  0  0
 14 35  1  0  0  0  0
 14 36  1  0  0  0  0
 15 37  1  0  0  0  0
 15 38  1  0  0  0  0
 16 39  1  0  0  0  0
 16 40  1  0  0  0  0
 17 41  1  0  0  0  0
 17 42  1  0  0  0  0
 21 22  2  0  0  0  0
 21 23  1  0  0  0  0
 22 24  1  0  0  0  0
 22 44  1  0  0  0  0
 23 25  2  0  0  0  0
 23 45  1  0  0  0  0
 24 26  2  0  0  0  0
 25 26  1  0  0  0  0
 25 46  1  0  0  0  0
 26 47  1  0  0  0  0
M  END
> <PUBCHEM_COMPOUND_CID>
1113672

> <PUBCHEM_CONFORMER_RMSD>
0.8

> <PUBCHEM_CONFORMER_DIVERSEORDER>
1
47
45
67
71
72
49
23
36
57
43
59
79
58
37
64
78
44
16
77
22
74
29
68
41
56
18
30
50
60
12
40
21
81
80
17
9
63
76
31
75
5
26
70
82
53
25
54
62
48
66
4
65
14
24
11
20
55
7
38
51
46
15
27
8
42
10
19
6
61
28
73
35
34
52
2
13
39
33
32
69
3

> <PUBCHEM_MMFF94_PARTIAL_CHARGES>
32
1 -0.56
10 0.37
11 0.37
12 0.37
13 0.37
14 0.28
15 0.28
16 0.28
17 0.28
18 0.72
19 0.72
2 -0.56
20 0.72
21 0.1
22 -0.15
23 -0.15
24 0.08
25 -0.15
26 -0.15
3 -0.53
4 -0.84
43 0.4
44 0.15
45 0.15
46 0.15
47 0.15
48 0.45
5 -0.84
6 -0.62
7 -0.62
8 -0.62
9 -0.6

> <PUBCHEM_EFFECTIVE_ROTOR_COUNT>
6.4

> <PUBCHEM_PHARMACOPHORE_FEATURES>
11
1 1 acceptor
1 2 acceptor
1 3 donor
1 9 donor
4 4 6 8 18 cation
4 5 6 7 19 cation
4 7 8 9 20 cation
6 1 4 10 11 14 15 rings
6 2 5 12 13 16 17 rings
6 21 22 23 24 25 26 rings
6 6 7 8 18 19 20 rings

> <PUBCHEM_HEAVY_ATOM_COUNT>
26

> <PUBCHEM_ATOM_DEF_STEREO_COUNT>
0

> <PUBCHEM_ATOM_UDEF_STEREO_COUNT>
0

> <PUBCHEM_BOND_DEF_STEREO_COUNT>
0

> <PUBCHEM_BOND_UDEF_STEREO_COUNT>
0

> <PUBCHEM_ISOTOPIC_ATOM_COUNT>
0

> <PUBCHEM_COMPONENT_COUNT>
1

> <PUBCHEM_CACTVS_TAUTO_COUNT>
17

> <PUBCHEM_CONFORMER_ID>
0010FE4800000001

> <PUBCHEM_MMFF94_ENERGY>
92.5237

> <PUBCHEM_FEATURE_SELFOVERLAP>
55.949

> <PUBCHEM_SHAPE_FINGERPRINT>
10411042 1 17401767419829693059
107951 10 18341053011852553710
10940486 97 18044665432434684396
1100329 8 18338511946461448458
11014199 57 16969986961855930650
11056379 131 17833278888844806932
11488393 25 17899401005087138269
11578080 2 17316194727858043629
12107183 9 18335404795747637552
12202916 173 17987246530519982822
12293681 160 17917713504582171337
12788726 201 17541372879448829722
13540713 5 17986101917519478677
138480 1 17834111944442533754
13955234 65 18193562173135163811
14028597 1 17774175517583107801
14790565 3 18410855455986266321
14866123 147 18194399115884723410
15042514 8 17904766927069171651
15230672 131 18335706053575646190
15664445 248 17769103336751921663
15927050 60 18412543236252760238
16728300 4 17245242139185914346
17913733 40 18339381698913218481
19591789 44 18410294735020859195
20197701 30 18413388756562478741
21033648 29 18341888649153686201
21307412 95 18057068890342811054
21478907 32 17689999363385784099
21796203 349 17475269828265853075
22849339 104 18122086418374847574
23366157 5 18043816381612945755
23558518 356 17612026380021937376
23559900 14 17977655421364291763
3091708 16 9263621305178463587
3103668 31 17903343042964907479
3298306 158 18411422786764138262
335352 9 18411420601475247196
38695281 34 18410573972493552027
4073 2 18195806491675559968
532947 4 18340213972938134478
5385378 56 18338524015213867057
563151 74 18125471677686398225
57307002 29 18119000012221733478
59755656 215 18336266743553765997
59755656 520 18337946887219727004
6138700 20 18339930290722409910
6371380 46 18412827984917118628
6669772 16 18342179951268257966
6679774 75 18115012027418647594
7164475 11 17688311604652610588
77188 2 17474105402090582935
79837 15 18264774422856396131
9709674 26 18126290985473422932
9981440 41 18408604786250205465

> <PUBCHEM_SHAPE_MULTIPOLES>
487.57
11.7
6.19
0.74
2.04
10.64
-0.02
-14.33
-1.1
-0.16
1.09
-0.32
0.03
0.22

> <PUBCHEM_SHAPE_SELFOVERLAP>
1040.457

> <PUBCHEM_SHAPE_VOLUME>
263.9

> <PUBCHEM_COORDINATE_TYPE>
2
5
10

$$$$
