16274786
  -OEChem-01171810103D

 55 57  0     0  0  0  0  0  0999 V2000
    7.4842   -0.7907   -0.4289 S   0  0  0  0  0  0  0  0  0  0  0  0
    8.3997   -1.4274    0.5000 O   0  0  0  0  0  0  0  0  0  0  0  0
    7.2387   -1.4029   -1.7216 O   0  0  0  0  0  0  0  0  0  0  0  0
   -1.2820   -0.1310   -0.5776 O   0  0  0  0  0  0  0  0  0  0  0  0
    0.6475   -0.2270    1.1731 O   0  0  0  0  0  0  0  0  0  0  0  0
   -2.2205   -0.1179   -2.6975 O   0  0  0  0  0  0  0  0  0  0  0  0
    7.9454    0.8561   -0.6512 N   0  0  0  0  0  0  0  0  0  0  0  0
    2.3374   -0.3972   -0.4606 N   0  0  0  0  0  0  0  0  0  0  0  0
   -3.8373    1.1308    0.1347 N   0  0  0  0  0  0  0  0  0  0  0  0
   -4.6003    1.0935    1.2360 N   0  0  0  0  0  0  0  0  0  0  0  0
   -3.7477    3.1347    0.9586 N   0  0  0  0  0  0  0  0  0  0  0  0
   -4.5414    2.3217    1.7359 N   0  0  0  0  0  0  0  0  0  0  0  0
    5.9203   -0.6470    0.3898 C   0  0  0  0  0  0  0  0  0  0  0  0
    4.7448   -0.5782   -0.3582 C   0  0  0  0  0  0  0  0  0  0  0  0
    3.5132   -0.4650    0.2872 C   0  0  0  0  0  0  0  0  0  0  0  0
    5.8642   -0.6025    1.7828 C   0  0  0  0  0  0  0  0  0  0  0  0
    3.4573   -0.4204    1.6803 C   0  0  0  0  0  0  0  0  0  0  0  0
    4.6327   -0.4891    2.4280 C   0  0  0  0  0  0  0  0  0  0  0  0
    7.0493    1.7243   -1.4566 C   0  0  0  0  0  0  0  0  0  0  0  0
    8.5191    1.5779    0.5130 C   0  0  0  0  0  0  0  0  0  0  0  0
    1.0207   -0.2834    0.0053 C   0  0  0  0  0  0  0  0  0  0  0  0
   -3.5988    0.0341   -0.7385 C   0  0  0  0  0  0  0  0  0  0  0  0
    0.0156   -0.2396   -1.1252 C   0  0  0  0  0  0  0  0  0  0  0  0
   -4.4603   -0.9809   -0.9724 C   0  0  0  0  0  0  0  0  0  0  0  0
   -5.8014   -1.1400   -0.3872 C   0  0  0  0  0  0  0  0  0  0  0  0
   -2.3088   -0.0797   -1.4799 C   0  0  0  0  0  0  0  0  0  0  0  0
   -3.3222    2.3774   -0.0262 C   0  0  0  0  0  0  0  0  0  0  0  0
   -6.1011   -2.2709    0.3727 C   0  0  0  0  0  0  0  0  0  0  0  0
   -6.7730   -0.1603   -0.5924 C   0  0  0  0  0  0  0  0  0  0  0  0
   -2.4361    2.7765   -1.1349 C   0  0  0  0  0  0  0  0  0  0  0  0
   -7.3720   -2.4220    0.9271 C   0  0  0  0  0  0  0  0  0  0  0  0
   -8.0439   -0.3115   -0.0377 C   0  0  0  0  0  0  0  0  0  0  0  0
   -8.3434   -1.4424    0.7220 C   0  0  0  0  0  0  0  0  0  0  0  0
    4.7804   -0.6079   -1.4444 H   0  0  0  0  0  0  0  0  0  0  0  0
    6.7676   -0.6482    2.3843 H   0  0  0  0  0  0  0  0  0  0  0  0
    2.5432   -0.3326    2.2506 H   0  0  0  0  0  0  0  0  0  0  0  0
    4.5905   -0.4528    3.5127 H   0  0  0  0  0  0  0  0  0  0  0  0
    6.6582    1.1806   -2.3209 H   0  0  0  0  0  0  0  0  0  0  0  0
    7.6178    2.5767   -1.8421 H   0  0  0  0  0  0  0  0  0  0  0  0
    6.2191    2.0986   -0.8511 H   0  0  0  0  0  0  0  0  0  0  0  0
    9.2943    0.9760    0.9945 H   0  0  0  0  0  0  0  0  0  0  0  0
    7.7395    1.8237    1.2390 H   0  0  0  0  0  0  0  0  0  0  0  0
    8.9933    2.5054    0.1766 H   0  0  0  0  0  0  0  0  0  0  0  0
    2.4613   -0.4347   -1.4703 H   0  0  0  0  0  0  0  0  0  0  0  0
    0.1024   -1.1636   -1.7081 H   0  0  0  0  0  0  0  0  0  0  0  0
    0.2350    0.6273   -1.7581 H   0  0  0  0  0  0  0  0  0  0  0  0
   -4.1714   -1.7978   -1.6323 H   0  0  0  0  0  0  0  0  0  0  0  0
   -5.3540   -3.0425    0.5420 H   0  0  0  0  0  0  0  0  0  0  0  0
   -6.5640    0.7234   -1.1904 H   0  0  0  0  0  0  0  0  0  0  0  0
   -1.4124    2.4276   -0.9850 H   0  0  0  0  0  0  0  0  0  0  0  0
   -2.8138    2.4561   -2.1096 H   0  0  0  0  0  0  0  0  0  0  0  0
   -2.3833    3.8710   -1.1757 H   0  0  0  0  0  0  0  0  0  0  0  0
   -7.6053   -3.3024    1.5188 H   0  0  0  0  0  0  0  0  0  0  0  0
   -8.8011    0.4502   -0.1992 H   0  0  0  0  0  0  0  0  0  0  0  0
   -9.3331   -1.5602    1.1534 H   0  0  0  0  0  0  0  0  0  0  0  0
  1  2  2  0  0  0  0
  1  3  2  0  0  0  0
  1  7  1  0  0  0  0
  1 13  1  0  0  0  0
  4 23  1  0  0  0  0
  4 26  1  0  0  0  0
  5 21  2  0  0  0  0
  6 26  2  0  0  0  0
  7 19  1  0  0  0  0
  7 20  1  0  0  0  0
  8 15  1  0  0  0  0
  8 21  1  0  0  0  0
  8 44  1  0  0  0  0
  9 10  1  0  0  0  0
  9 22  1  0  0  0  0
  9 27  1  0  0  0  0
 10 12  2  0  0  0  0
 11 12  1  0  0  0  0
 11 27  2  0  0  0  0
 13 14  1  0  0  0  0
 13 16  2  0  0  0  0
 14 15  2  0  0  0  0
 14 34  1  0  0  0  0
 15 17  1  0  0  0  0
 16 18  1  0  0  0  0
 16 35  1  0  0  0  0
 17 18  2  0  0  0  0
 17 36  1  0  0  0  0
 18 37  1  0  0  0  0
 19 38  1  0  0  0  0
 19 39  1  0  0  0  0
 19 40  1  0  0  0  0
 20 41  1  0  0  0  0
 20 42  1  0  0  0  0
 20 43  1  0  0  0  0
 21 23  1  0  0  0  0
 22 24  2  0  0  0  0
 22 26  1  0  0  0  0
 23 45  1  0  0  0  0
 23 46  1  0  0  0  0
 24 25  1  0  0  0  0
 24 47  1  0  0  0  0
 25 28  2  0  0  0  0
 25 29  1  0  0  0  0
 27 30  1  0  0  0  0
 28 31  1  0  0  0  0
 28 48  1  0  0  0  0
 29 32  2  0  0  0  0
 29 49  1  0  0  0  0
 30 50  1  0  0  0  0
 30 51  1  0  0  0  0
 30 52  1  0  0  0  0
 31 33  2  0  0  0  0
 31 53  1  0  0  0  0
 32 33  1  0  0  0  0
 32 54  1  0  0  0  0
 33 55  1  0  0  0  0
M  END
> <PUBCHEM_COMPOUND_CID>
16274786

> <PUBCHEM_CONFORMER_RMSD>
1.2

> <PUBCHEM_CONFORMER_DIVERSEORDER>
2
79
42
108
204
103
33
170
80
84
149
146
138
39
58
101
31
154
180
94
194
19
102
70
43
91
36
187
63
28
6
44
22
41
87
202
111
176
122
161
201
199
113
197
13
74
205
26
40
181
132
54
188
35
174
159
130
59
75
53
155
186
116
23
200
158
120
160
45
193
145
30
48
61
166
15
12
114
109
105
185
24
85
177
182
126
66
56
64
8
156
198
172
127
5
51
164
162
148
171
1
86
89
90
68
139
112
169
27
83
50
4
73
93
107
123
153
195
55
189
144
32
72
175
7
206
9
25
157
118
168
133
38
192
11
100
131
14
142
65
81
77
207
92
69
98
134
196
96
34
125
106
152
190
57
137
191
163
62
49
173
3
104
184
47
82
150
179
115
16
124
52
136
167
151
119
178
117
20
67
29
129
99
147
121
71
110
88
17
183
10
140
203
37
76
95
141
128
21
46
135
165
97
143
60
78
18

> <PUBCHEM_MMFF94_PARTIAL_CHARGES>
43
1 1.45
10 -0.42
11 -0.34
13 -0.01
14 -0.15
15 0.12
16 -0.15
17 -0.15
18 -0.15
19 0.36
2 -0.65
20 0.36
21 0.57
22 -0.02
23 0.34
24 -0.18
25 0.03
26 0.71
27 0.01
28 -0.15
29 -0.15
3 -0.65
30 0.18
31 -0.15
32 -0.15
33 -0.15
34 0.15
35 0.15
36 0.15
37 0.15
4 -0.43
44 0.37
47 0.15
48 0.15
49 0.15
5 -0.57
53 0.15
54 0.15
55 0.15
6 -0.57
7 -0.85
8 -0.55
9 0.6

> <PUBCHEM_EFFECTIVE_ROTOR_COUNT>
10

> <PUBCHEM_PHARMACOPHORE_FEATURES>
9
1 2 acceptor
1 3 acceptor
1 5 acceptor
1 6 acceptor
1 8 donor
3 9 11 27 cation
5 9 10 11 12 27 rings
6 13 14 15 16 17 18 rings
6 25 28 29 31 32 33 rings

> <PUBCHEM_HEAVY_ATOM_COUNT>
33

> <PUBCHEM_ATOM_DEF_STEREO_COUNT>
0

> <PUBCHEM_ATOM_UDEF_STEREO_COUNT>
0

> <PUBCHEM_BOND_DEF_STEREO_COUNT>
1

> <PUBCHEM_BOND_UDEF_STEREO_COUNT>
0

> <PUBCHEM_ISOTOPIC_ATOM_COUNT>
0

> <PUBCHEM_COMPONENT_COUNT>
1

> <PUBCHEM_CACTVS_TAUTO_COUNT>
2

> <PUBCHEM_CONFORMER_ID>
00F8556200000002

> <PUBCHEM_MMFF94_ENERGY>
86.0002

> <PUBCHEM_FEATURE_SELFOVERLAP>
45.691

> <PUBCHEM_SHAPE_FINGERPRINT>
10 15 17918272065036563903
10299344 5 17530962484150592891
10391435 84 14273743970596861144
10577160 183 9439415609668624253
11007060 377 17240202144580278448
11135926 11 13542464232934446524
11315181 36 18260267456544039557
12082328 90 18271806787721849790
12144603 126 17385724660933422061
12166972 35 17313383457156552877
12373685 5 11819267892982682472
12664476 115 17203886370842345416
14068700 675 17749388179059894869
14118638 360 18130222658012089311
14150022 121 17774730788324985601
14444916 359 16558755619620775487
14856354 85 18410294726473337407
15183329 4 18040997324452531690
15419008 47 17846493733861669713
15461852 350 17821730515927375887
17686467 74 18334573589740632337
18608769 82 18342738545966890566
19611394 137 18272933868929367595
20105231 36 18131917074171425638
21150785 3 16443343182624940706
21792961 116 17489588913943146510
23559900 14 13190348980424692783
335507 130 18131068243316244470
3418910 222 18340495537967415416
3552219 110 18260555536943828589
4015057 19 14634878556946363943
4173938 188 17168424986021041816
4173938 306 11747207004556592578
5104073 3 17987234435237695227
6698420 124 14836405860678155839
9896288 288 18270965636057775643
9953998 17 17917716773827269089

> <PUBCHEM_SHAPE_MULTIPOLES>
623.74
29.84
2.37
1.78
20.89
1.51
0.16
-8.61
1.29
-3.19
0.55
1
0.18
-1.11

> <PUBCHEM_SHAPE_SELFOVERLAP>
1310.186

> <PUBCHEM_SHAPE_VOLUME>
350.9

> <PUBCHEM_COORDINATE_TYPE>
2
5
10

$$$$
