658378
  -OEChem-01171809153D

 31 33  0     1  0  0  0  0  0999 V2000
    5.4922    0.3313    0.3426 Br  0  0  0  0  0  0  0  0  0  0  0  0
    2.5808    0.1217   -0.9260 S   0  0  0  0  0  0  0  0  0  0  0  0
   -2.7347   -0.7432    0.7046 O   0  0  0  0  0  0  0  0  0  0  0  0
   -2.1116    2.5728    0.5527 N   0  0  0  0  0  0  0  0  0  0  0  0
   -2.9218    1.5619    0.9337 N   0  0  0  0  0  0  0  0  0  0  0  0
   -2.6180   -3.0329    0.3640 N   0  0  0  0  0  0  0  0  0  0  0  0
    0.4563   -3.7118   -1.3993 N   0  0  0  0  0  0  0  0  0  0  0  0
   -0.1288   -0.2838   -0.6025 C   0  0  2  0  0  0  0  0  0  0  0  0
   -1.0143    0.7877   -0.0833 C   0  0  0  0  0  0  0  0  0  0  0  0
   -0.9622    2.1616   -0.0712 C   0  0  0  0  0  0  0  0  0  0  0  0
   -2.2381    0.4958    0.5292 C   0  0  0  0  0  0  0  0  0  0  0  0
   -0.7892   -1.6572   -0.4236 C   0  0  0  0  0  0  0  0  0  0  0  0
    1.2106   -0.1952    0.0421 C   0  0  0  0  0  0  0  0  0  0  0  0
    0.0370    3.1188   -0.5740 C   0  0  0  0  0  0  0  0  0  0  0  0
   -1.9967   -1.8254    0.1886 C   0  0  0  0  0  0  0  0  0  0  0  0
    1.5232   -0.3384    1.3695 C   0  0  0  0  0  0  0  0  0  0  0  0
   -0.2177    3.5449   -2.0253 C   0  0  0  0  0  0  0  0  0  0  0  0
    2.9204   -0.1849    1.6020 C   0  0  0  0  0  0  0  0  0  0  0  0
    3.6135    0.0688    0.4388 C   0  0  0  0  0  0  0  0  0  0  0  0
   -0.1010   -2.7927   -0.9627 C   0  0  0  0  0  0  0  0  0  0  0  0
   -0.0424   -0.1199   -1.6875 H   0  0  0  0  0  0  0  0  0  0  0  0
    0.0385    4.0177    0.0556 H   0  0  0  0  0  0  0  0  0  0  0  0
    1.0451    2.7027   -0.4975 H   0  0  0  0  0  0  0  0  0  0  0  0
   -2.4093    3.5215    0.7434 H   0  0  0  0  0  0  0  0  0  0  0  0
    0.7972   -0.5434    2.1461 H   0  0  0  0  0  0  0  0  0  0  0  0
   -0.1848    2.6812   -2.6978 H   0  0  0  0  0  0  0  0  0  0  0  0
    0.5446    4.2607   -2.3483 H   0  0  0  0  0  0  0  0  0  0  0  0
   -1.1998    4.0181   -2.1296 H   0  0  0  0  0  0  0  0  0  0  0  0
    3.3840   -0.2592    2.5778 H   0  0  0  0  0  0  0  0  0  0  0  0
   -2.1924   -3.8909    0.0383 H   0  0  0  0  0  0  0  0  0  0  0  0
   -3.5162   -3.0556    0.8301 H   0  0  0  0  0  0  0  0  0  0  0  0
  1 19  1  0  0  0  0
  2 13  1  0  0  0  0
  2 19  1  0  0  0  0
  3 11  1  0  0  0  0
  3 15  1  0  0  0  0
  4  5  1  0  0  0  0
  4 10  1  0  0  0  0
  4 24  1  0  0  0  0
  5 11  2  0  0  0  0
  6 15  1  0  0  0  0
  6 30  1  0  0  0  0
  6 31  1  0  0  0  0
  7 20  3  0  0  0  0
  8  9  1  0  0  0  0
  8 12  1  0  0  0  0
  8 13  1  0  0  0  0
  8 21  1  0  0  0  0
  9 10  2  0  0  0  0
  9 11  1  0  0  0  0
 10 14  1  0  0  0  0
 12 15  2  0  0  0  0
 12 20  1  0  0  0  0
 13 16  2  0  0  0  0
 14 17  1  0  0  0  0
 14 22  1  0  0  0  0
 14 23  1  0  0  0  0
 16 18  1  0  0  0  0
 16 25  1  0  0  0  0
 17 26  1  0  0  0  0
 17 27  1  0  0  0  0
 17 28  1  0  0  0  0
 18 19  2  0  0  0  0
 18 29  1  0  0  0  0
M  END
> <PUBCHEM_COMPOUND_CID>
658378

> <PUBCHEM_CONFORMER_RMSD>
0.6

> <PUBCHEM_CONFORMER_DIVERSEORDER>
1
9
4
10
5
7
3
8
2
6

> <PUBCHEM_MMFF94_PARTIAL_CHARGES>
24
1 -0.06
10 -0.33
11 0.35
12 -0.07
13 -0.14
14 0.18
15 0.18
16 -0.15
18 -0.15
19 0.1
2 -0.08
20 0.49
24 0.27
25 0.15
29 0.15
3 -0.14
30 0.4
31 0.4
4 0.3
5 -0.71
6 -0.9
7 -0.56
8 0.5
9 -0.18

> <PUBCHEM_EFFECTIVE_ROTOR_COUNT>
2.4

> <PUBCHEM_PHARMACOPHORE_FEATURES>
9
1 1 hydrophobe
1 17 hydrophobe
1 4 donor
1 6 cation
1 6 donor
1 7 acceptor
5 2 13 16 18 19 rings
5 4 5 9 10 11 rings
6 3 8 9 11 12 15 rings

> <PUBCHEM_HEAVY_ATOM_COUNT>
20

> <PUBCHEM_ATOM_DEF_STEREO_COUNT>
0

> <PUBCHEM_ATOM_UDEF_STEREO_COUNT>
1

> <PUBCHEM_BOND_DEF_STEREO_COUNT>
0

> <PUBCHEM_BOND_UDEF_STEREO_COUNT>
0

> <PUBCHEM_ISOTOPIC_ATOM_COUNT>
0

> <PUBCHEM_COMPONENT_COUNT>
1

> <PUBCHEM_CACTVS_TAUTO_COUNT>
4

> <PUBCHEM_CONFORMER_ID>
000A0BCA00000001

> <PUBCHEM_MMFF94_ENERGY>
24.6158

> <PUBCHEM_FEATURE_SELFOVERLAP>
45.787

> <PUBCHEM_SHAPE_FINGERPRINT>
10165383 225 18129952156745353168
11112241 14 16555895709175202650
11595378 159 18043224982281895008
13140716 1 18196382635335400563
16945 1 18341620295622921169
19868273 325 18335699472483066168
20510252 161 18131072644803089466
20600515 1 18127979804646566508
21524375 3 17981304725620015995
22112679 90 18261118521013907804
22182313 1 18048052787393926633
2334 1 17836378407849346619
23402539 116 18200582713312580342
23419403 2 15615169150573705085
23557571 272 18201167654342465164
23598288 3 18044349700871958698
23598294 1 18339348739139133146
238 59 17329684549597570237
2748010 2 18049180873317654163
350125 39 17691135833264846161
5845 1 14389656311773737033
59554788 191 18265050409276333095
6287921 2 17766831003242939072
7364860 26 17552639149490783647
81228 2 18125414618223001778
90316 7 18187642475118822240
90525 40 18409725136727017578
9862522 239 18122042244636337450
9925002 15 17767685323286428342

> <PUBCHEM_SHAPE_MULTIPOLES>
395.59
5.98
4.08
1.38
8.84
0.36
-0.22
-0.21
2.19
-3.23
-2.28
0.31
0.22
-0.19

> <PUBCHEM_SHAPE_SELFOVERLAP>
835.894

> <PUBCHEM_SHAPE_VOLUME>
226.4

> <PUBCHEM_COORDINATE_TYPE>
2
5
10

$$$$
