2794916
  -OEChem-01171809503D

 35 36  0     0  0  0  0  0  0999 V2000
   -3.4809   -2.9884    0.0176 Cl  0  0  0  0  0  0  0  0  0  0  0  0
   -0.6444   -3.0123    0.0080 O   0  0  0  0  0  0  0  0  0  0  0  0
   -0.1601   -0.6951    0.0032 N   0  0  0  0  0  0  0  0  0  0  0  0
    1.2796   -0.7929   -0.0001 C   0  0  0  0  0  0  0  0  0  0  0  0
    1.8630   -0.1579   -1.2651 C   0  0  0  0  0  0  0  0  0  0  0  0
    1.8634   -0.1555    1.2631 C   0  0  0  0  0  0  0  0  0  0  0  0
    3.3888   -0.2020   -1.2637 C   0  0  0  0  0  0  0  0  0  0  0  0
    3.3894   -0.1979    1.2610 C   0  0  0  0  0  0  0  0  0  0  0  0
    3.9686    0.4320   -0.0026 C   0  0  0  0  0  0  0  0  0  0  0  0
   -0.7681    0.6339    0.0026 C   0  0  0  0  0  0  0  0  0  0  0  0
   -1.0192   -1.8374    0.0071 C   0  0  0  0  0  0  0  0  0  0  0  0
   -1.0279    1.2100    1.2101 C   0  0  0  0  0  0  0  0  0  0  0  0
   -1.0326    1.2062   -1.2058 C   0  0  0  0  0  0  0  0  0  0  0  0
   -2.5013   -1.5078   -0.0388 C   0  0  0  0  0  0  0  0  0  0  0  0
   -1.6073    2.4788    1.2093 C   0  0  0  0  0  0  0  0  0  0  0  0
   -1.6118    2.4750   -1.2067 C   0  0  0  0  0  0  0  0  0  0  0  0
   -1.8993    3.1114    0.0009 C   0  0  0  0  0  0  0  0  0  0  0  0
    1.5514   -1.8563    0.0008 H   0  0  0  0  0  0  0  0  0  0  0  0
    1.5772    0.8959   -1.3536 H   0  0  0  0  0  0  0  0  0  0  0  0
    1.4813   -0.6690   -2.1572 H   0  0  0  0  0  0  0  0  0  0  0  0
    1.4830   -0.6650    2.1567 H   0  0  0  0  0  0  0  0  0  0  0  0
    1.5777    0.8984    1.3500 H   0  0  0  0  0  0  0  0  0  0  0  0
    3.7744    0.3175   -2.1483 H   0  0  0  0  0  0  0  0  0  0  0  0
    3.7231   -1.2444   -1.3350 H   0  0  0  0  0  0  0  0  0  0  0  0
    3.7247   -1.2397    1.3358 H   0  0  0  0  0  0  0  0  0  0  0  0
    3.7749    0.3249    2.1436 H   0  0  0  0  0  0  0  0  0  0  0  0
    5.0590    0.3224   -0.0027 H   0  0  0  0  0  0  0  0  0  0  0  0
    3.7555    1.5081   -0.0043 H   0  0  0  0  0  0  0  0  0  0  0  0
   -0.8145    0.7161    2.1521 H   0  0  0  0  0  0  0  0  0  0  0  0
   -0.8223    0.7097   -2.1471 H   0  0  0  0  0  0  0  0  0  0  0  0
   -2.7973   -0.9102    0.8253 H   0  0  0  0  0  0  0  0  0  0  0  0
   -2.7548   -0.9975   -0.9703 H   0  0  0  0  0  0  0  0  0  0  0  0
   -1.8341    2.9728    2.1496 H   0  0  0  0  0  0  0  0  0  0  0  0
   -1.8420    2.9663   -2.1476 H   0  0  0  0  0  0  0  0  0  0  0  0
   -2.3518    4.0986    0.0002 H   0  0  0  0  0  0  0  0  0  0  0  0
  1 14  1  0  0  0  0
  2 11  2  0  0  0  0
  3  4  1  0  0  0  0
  3 10  1  0  0  0  0
  3 11  1  0  0  0  0
  4  5  1  0  0  0  0
  4  6  1  0  0  0  0
  4 18  1  0  0  0  0
  5  7  1  0  0  0  0
  5 19  1  0  0  0  0
  5 20  1  0  0  0  0
  6  8  1  0  0  0  0
  6 21  1  0  0  0  0
  6 22  1  0  0  0  0
  7  9  1  0  0  0  0
  7 23  1  0  0  0  0
  7 24  1  0  0  0  0
  8  9  1  0  0  0  0
  8 25  1  0  0  0  0
  8 26  1  0  0  0  0
  9 27  1  0  0  0  0
  9 28  1  0  0  0  0
 10 12  2  0  0  0  0
 10 13  1  0  0  0  0
 11 14  1  0  0  0  0
 12 15  1  0  0  0  0
 12 29  1  0  0  0  0
 13 16  2  0  0  0  0
 13 30  1  0  0  0  0
 14 31  1  0  0  0  0
 14 32  1  0  0  0  0
 15 17  2  0  0  0  0
 15 33  1  0  0  0  0
 16 17  1  0  0  0  0
 16 34  1  0  0  0  0
 17 35  1  0  0  0  0
M  END
> <PUBCHEM_COMPOUND_CID>
2794916

> <PUBCHEM_CONFORMER_RMSD>
0.6

> <PUBCHEM_CONFORMER_DIVERSEORDER>
1
44
33
45
30
11
19
27
32
49
37
26
36
40
20
43
54
35
29
24
31
34
14
25
18
12
38
13
52
39
17
10
9
46
7
53
50
22
47
51
48
3
8
42
16
4
2
41
23
21
15
5
28
6

> <PUBCHEM_MMFF94_PARTIAL_CHARGES>
17
1 -0.29
10 0.12
11 0.57
12 -0.15
13 -0.15
14 0.35
15 -0.15
16 -0.15
17 -0.15
2 -0.57
29 0.15
3 -0.48
30 0.15
33 0.15
34 0.15
35 0.15
4 0.3

> <PUBCHEM_EFFECTIVE_ROTOR_COUNT>
5.2

> <PUBCHEM_PHARMACOPHORE_FEATURES>
3
1 2 acceptor
6 10 12 13 15 16 17 rings
6 4 5 6 7 8 9 rings

> <PUBCHEM_HEAVY_ATOM_COUNT>
17

> <PUBCHEM_ATOM_DEF_STEREO_COUNT>
0

> <PUBCHEM_ATOM_UDEF_STEREO_COUNT>
0

> <PUBCHEM_BOND_DEF_STEREO_COUNT>
0

> <PUBCHEM_BOND_UDEF_STEREO_COUNT>
0

> <PUBCHEM_ISOTOPIC_ATOM_COUNT>
0

> <PUBCHEM_COMPONENT_COUNT>
1

> <PUBCHEM_CACTVS_TAUTO_COUNT>
1

> <PUBCHEM_CONFORMER_ID>
002AA5A400000001

> <PUBCHEM_MMFF94_ENERGY>
61.5317

> <PUBCHEM_FEATURE_SELFOVERLAP>
15.223

> <PUBCHEM_SHAPE_FINGERPRINT>
10165383 225 17764908734283056572
11582403 64 16157339154595737309
11725454 13 16229122965874862117
12173636 292 18196938768522140612
12423570 1 14892332682738247567
12788726 201 18262238927668212770
13583140 156 17843651505816748354
13681431 1 17762346111891196419
13764800 53 18271528589451972704
14181834 199 17478598474948264023
14614273 12 18337389336097893903
14817 1 12521657765077671685
15309172 13 18119538626131214988
15490181 7 18049739424692158711
15490181 8 17979338777502694759
15848700 24 18127124393237999423
16752209 62 18335409171343482391
16945 1 18410573985214800135
17357779 13 18129085879227028991
18186145 218 17912647899973155716
18410436 195 18123753325009903119
19765921 60 17626084370353442489
20097449 115 18194398033742400979
20388701 513 18341325681993248362
20510252 161 18411979191314020338
20600515 1 18054235593910108075
20711985 344 18410018757639236650
21296965 67 18193838369333498495
21524375 3 17972325005629448824
22112679 90 18121248573012832917
22802520 49 17560245704645351936
23402539 116 18341046431920698294
23419403 2 17908672345078951493
23557571 272 18268712878160564444
23558518 356 18261391083802071818
25 1 17556870117901177000
2748010 2 17831598474094207037
305870 269 17762893269350201200
3250762 1 18056776329027373895
350125 39 18122354475452082427
458136 41 17764608516332680585
495365 180 17398949380096473885
6049 1 17917998282720573440
6442390 28 18054810385578916817
68521 5 18410011078469605695
6992083 37 17824250515369316578
7364860 26 17186155362654107973
81228 2 18338249248458789603
84936 182 17406541512065157600
9981440 41 17271402934892701154

> <PUBCHEM_SHAPE_MULTIPOLES>
340.87
5.42
3.53
1.35
4.51
0.14
0
-1.89
0
-5.19
0.01
0.55
0.55
0.01

> <PUBCHEM_SHAPE_SELFOVERLAP>
697.696

> <PUBCHEM_SHAPE_VOLUME>
197.1

> <PUBCHEM_COORDINATE_TYPE>
2
5
10

$$$$
