16022946
  -OEChem-01171810033D

 70 74  0     0  0  0  0  0  0999 V2000
    3.6138   -0.7040    0.0742 O   0  0  0  0  0  0  0  0  0  0  0  0
    0.1271   -1.3479   -0.7739 N   0  0  0  0  0  0  0  0  0  0  0  0
    4.8354   -0.4941   -1.8963 N   0  0  0  0  0  0  0  0  0  0  0  0
   -0.9903   -3.2955    0.1697 N   0  0  0  0  0  0  0  0  0  0  0  0
   -3.9164   -0.0388    0.1022 N   0  0  0  0  0  0  0  0  0  0  0  0
   -2.6270   -0.0877   -0.2890 N   0  0  0  0  0  0  0  0  0  0  0  0
   -2.1409   -3.9932    0.7436 N   0  0  0  0  0  0  0  0  0  0  0  0
    2.4737   -0.0913   -1.9334 C   0  0  0  0  0  0  0  0  0  0  0  0
    1.4689    0.6950   -1.0942 C   0  0  0  0  0  0  0  0  0  0  0  0
    1.8303   -1.3308   -2.5520 C   0  0  0  0  0  0  0  0  0  0  0  0
    0.6909   -0.1731   -0.1031 C   0  0  0  0  0  0  0  0  0  0  0  0
    1.0719   -2.1783   -1.5308 C   0  0  0  0  0  0  0  0  0  0  0  0
    3.6830   -0.4701   -1.1296 C   0  0  0  0  0  0  0  0  0  0  0  0
   -0.9950   -1.9819   -0.2277 C   0  0  0  0  0  0  0  0  0  0  0  0
   -2.2409   -1.3485   -0.0278 C   0  0  0  0  0  0  0  0  0  0  0  0
   -3.3511   -2.0721    0.5413 C   0  0  0  0  0  0  0  0  0  0  0  0
    6.1383   -0.8074   -1.3555 C   0  0  0  0  0  0  0  0  0  0  0  0
   -4.4049   -1.2078    0.6104 C   0  0  0  0  0  0  0  0  0  0  0  0
   -3.3478   -3.3993    0.9431 C   0  0  0  0  0  0  0  0  0  0  0  0
    6.8797    0.4312   -0.8585 C   0  0  0  0  0  0  0  0  0  0  0  0
   -5.7928   -1.3576    1.0939 C   0  0  0  0  0  0  0  0  0  0  0  0
   -4.6263    1.1548   -0.0385 C   0  0  0  0  0  0  0  0  0  0  0  0
   -4.4546   -4.1943    1.5311 C   0  0  0  0  0  0  0  0  0  0  0  0
    6.1529    1.1452    0.2547 C   0  0  0  0  0  0  0  0  0  0  0  0
    6.3920    0.8084    1.5786 C   0  0  0  0  0  0  0  0  0  0  0  0
   -5.6504    1.4510    0.8510 C   0  0  0  0  0  0  0  0  0  0  0  0
   -4.2979    2.0293   -1.0656 C   0  0  0  0  0  0  0  0  0  0  0  0
    5.2457    2.1403   -0.0793 C   0  0  0  0  0  0  0  0  0  0  0  0
   -6.3594    2.6441    0.7106 C   0  0  0  0  0  0  0  0  0  0  0  0
   -5.0068    3.2224   -1.2059 C   0  0  0  0  0  0  0  0  0  0  0  0
   -6.0375    3.5296   -0.3178 C   0  0  0  0  0  0  0  0  0  0  0  0
    5.7087    1.4814    2.5916 C   0  0  0  0  0  0  0  0  0  0  0  0
    7.3664   -0.2613    1.9483 C   0  0  0  0  0  0  0  0  0  0  0  0
    4.5624    2.8133    0.9335 C   0  0  0  0  0  0  0  0  0  0  0  0
    4.7940    2.4839    2.2689 C   0  0  0  0  0  0  0  0  0  0  0  0
   -6.7952    4.8054   -0.4677 C   0  0  0  0  0  0  0  0  0  0  0  0
    2.8025    0.5696   -2.7469 H   0  0  0  0  0  0  0  0  0  0  0  0
    0.7483    1.1684   -1.7746 H   0  0  0  0  0  0  0  0  0  0  0  0
    1.9665    1.5071   -0.5513 H   0  0  0  0  0  0  0  0  0  0  0  0
    2.5817   -1.9539   -3.0516 H   0  0  0  0  0  0  0  0  0  0  0  0
    1.1243   -1.0049   -3.3274 H   0  0  0  0  0  0  0  0  0  0  0  0
    1.3187   -0.4976    0.7332 H   0  0  0  0  0  0  0  0  0  0  0  0
   -0.0952    0.4506    0.3371 H   0  0  0  0  0  0  0  0  0  0  0  0
    0.5405   -2.9683   -2.0765 H   0  0  0  0  0  0  0  0  0  0  0  0
    1.7683   -2.6701   -0.8410 H   0  0  0  0  0  0  0  0  0  0  0  0
    4.7811   -0.2814   -2.8879 H   0  0  0  0  0  0  0  0  0  0  0  0
    6.0153   -1.5428   -0.5535 H   0  0  0  0  0  0  0  0  0  0  0  0
    6.7115   -1.2814   -2.1592 H   0  0  0  0  0  0  0  0  0  0  0  0
    7.0156    1.1299   -1.6957 H   0  0  0  0  0  0  0  0  0  0  0  0
    7.8973    0.1598   -0.5570 H   0  0  0  0  0  0  0  0  0  0  0  0
   -5.8764   -1.1394    2.1628 H   0  0  0  0  0  0  0  0  0  0  0  0
   -6.5298   -0.7985    0.5110 H   0  0  0  0  0  0  0  0  0  0  0  0
   -6.1401   -2.3855    0.9659 H   0  0  0  0  0  0  0  0  0  0  0  0
   -4.8816   -3.6919    2.4035 H   0  0  0  0  0  0  0  0  0  0  0  0
   -5.2316   -4.3833    0.7851 H   0  0  0  0  0  0  0  0  0  0  0  0
   -4.0839   -5.1680    1.8696 H   0  0  0  0  0  0  0  0  0  0  0  0
   -5.8648    0.8908    1.7506 H   0  0  0  0  0  0  0  0  0  0  0  0
   -3.5080    1.8133   -1.7801 H   0  0  0  0  0  0  0  0  0  0  0  0
    5.0581    2.4105   -1.1147 H   0  0  0  0  0  0  0  0  0  0  0  0
   -7.1394    2.8885    1.4271 H   0  0  0  0  0  0  0  0  0  0  0  0
   -4.7473    3.9042   -2.0115 H   0  0  0  0  0  0  0  0  0  0  0  0
    5.8772    1.2377    3.6372 H   0  0  0  0  0  0  0  0  0  0  0  0
    7.1190   -1.2100    1.4637 H   0  0  0  0  0  0  0  0  0  0  0  0
    8.3855    0.0356    1.6804 H   0  0  0  0  0  0  0  0  0  0  0  0
    7.3618   -0.4515    3.0276 H   0  0  0  0  0  0  0  0  0  0  0  0
    3.8499    3.5935    0.6822 H   0  0  0  0  0  0  0  0  0  0  0  0
    4.2616    3.0078    3.0574 H   0  0  0  0  0  0  0  0  0  0  0  0
   -6.8465    5.1134   -1.5176 H   0  0  0  0  0  0  0  0  0  0  0  0
   -6.3103    5.6000    0.1080 H   0  0  0  0  0  0  0  0  0  0  0  0
   -7.8266    4.6962   -0.1156 H   0  0  0  0  0  0  0  0  0  0  0  0
  1 13  2  0  0  0  0
  2 11  1  0  0  0  0
  2 12  1  0  0  0  0
  2 14  1  0  0  0  0
  3 13  1  0  0  0  0
  3 17  1  0  0  0  0
  3 46  1  0  0  0  0
  4  7  1  0  0  0  0
  4 14  2  0  0  0  0
  5  6  1  0  0  0  0
  5 18  1  0  0  0  0
  5 22  1  0  0  0  0
  6 15  2  0  0  0  0
  7 19  2  0  0  0  0
  8  9  1  0  0  0  0
  8 10  1  0  0  0  0
  8 13  1  0  0  0  0
  8 37  1  0  0  0  0
  9 11  1  0  0  0  0
  9 38  1  0  0  0  0
  9 39  1  0  0  0  0
 10 12  1  0  0  0  0
 10 40  1  0  0  0  0
 10 41  1  0  0  0  0
 11 42  1  0  0  0  0
 11 43  1  0  0  0  0
 12 44  1  0  0  0  0
 12 45  1  0  0  0  0
 14 15  1  0  0  0  0
 15 16  1  0  0  0  0
 16 18  2  0  0  0  0
 16 19  1  0  0  0  0
 17 20  1  0  0  0  0
 17 47  1  0  0  0  0
 17 48  1  0  0  0  0
 18 21  1  0  0  0  0
 19 23  1  0  0  0  0
 20 24  1  0  0  0  0
 20 49  1  0  0  0  0
 20 50  1  0  0  0  0
 21 51  1  0  0  0  0
 21 52  1  0  0  0  0
 21 53  1  0  0  0  0
 22 26  2  0  0  0  0
 22 27  1  0  0  0  0
 23 54  1  0  0  0  0
 23 55  1  0  0  0  0
 23 56  1  0  0  0  0
 24 25  1  0  0  0  0
 24 28  2  0  0  0  0
 25 32  2  0  0  0  0
 25 33  1  0  0  0  0
 26 29  1  0  0  0  0
 26 57  1  0  0  0  0
 27 30  2  0  0  0  0
 27 58  1  0  0  0  0
 28 34  1  0  0  0  0
 28 59  1  0  0  0  0
 29 31  2  0  0  0  0
 29 60  1  0  0  0  0
 30 31  1  0  0  0  0
 30 61  1  0  0  0  0
 31 36  1  0  0  0  0
 32 35  1  0  0  0  0
 32 62  1  0  0  0  0
 33 63  1  0  0  0  0
 33 64  1  0  0  0  0
 33 65  1  0  0  0  0
 34 35  2  0  0  0  0
 34 66  1  0  0  0  0
 35 67  1  0  0  0  0
 36 68  1  0  0  0  0
 36 69  1  0  0  0  0
 36 70  1  0  0  0  0
M  END
> <PUBCHEM_COMPOUND_CID>
16022946

> <PUBCHEM_CONFORMER_RMSD>
1.2

> <PUBCHEM_CONFORMER_DIVERSEORDER>
17
34
58
230
73
217
64
137
221
112
27
128
3
70
98
53
130
79
41
143
209
169
191
155
76
15
52
37
119
38
145
1
45
129
231
89
102
115
187
93
61
193
176
194
74
184
110
31
142
140
80
174
148
214
111
92
157
24
69
181
59
117
95
29
182
189
210
226
225
104
54
227
147
67
195
180
216
132
103
84
72
78
144
91
118
166
25
48
30
203
135
109
165
201
154
125
206
12
124
168
68
205
16
33
160
127
97
71
32
170
87
167
164
212
177
36
161
122
82
188
185
63
50
179
40
204
139
26
150
42
57
60
99
9
35
220
178
20
96
218
199
232
114
100
223
158
106
120
197
202
21
173
224
65
207
126
213
192
13
172
121
228
116
211
200
198
4
55
39
7
233
183
44
196
2
101
153
5
149
14
141
229
222
43
81
133
107
22
75
108
19
18
88
123
86
105
134
215
28
83
51
175
49
90
156
94
159
6
146
23
219
85
190
77
136
131
186
11
62
10
152
171
56
46
163
151
162
47
138
208
113
66
8

> <PUBCHEM_MMFF94_PARTIAL_CHARGES>
42
1 -0.57
11 0.37
12 0.37
13 0.57
14 0.41
15 0.29
17 0.3
18 -0.33
19 0.17
2 -0.84
20 0.14
21 0.18
22 -0.02
23 0.14
24 -0.14
25 -0.14
26 -0.15
27 -0.15
28 -0.15
29 -0.15
3 -0.73
30 -0.15
31 -0.14
32 -0.15
33 0.14
34 -0.15
35 -0.15
36 0.14
4 -0.31
46 0.37
5 0.59
57 0.15
58 0.15
59 0.15
6 -0.71
60 0.15
61 0.15
62 0.15
66 0.15
67 0.15
7 -0.31
8 0.06

> <PUBCHEM_EFFECTIVE_ROTOR_COUNT>
8.2

> <PUBCHEM_PHARMACOPHORE_FEATURES>
10
1 1 acceptor
1 3 donor
1 6 acceptor
1 7 acceptor
3 2 4 14 cation
5 5 6 15 16 18 rings
6 2 8 9 10 11 12 rings
6 22 26 27 29 30 31 rings
6 24 25 28 32 34 35 rings
6 4 7 14 15 16 19 rings

> <PUBCHEM_HEAVY_ATOM_COUNT>
36

> <PUBCHEM_ATOM_DEF_STEREO_COUNT>
0

> <PUBCHEM_ATOM_UDEF_STEREO_COUNT>
0

> <PUBCHEM_BOND_DEF_STEREO_COUNT>
0

> <PUBCHEM_BOND_UDEF_STEREO_COUNT>
0

> <PUBCHEM_ISOTOPIC_ATOM_COUNT>
0

> <PUBCHEM_COMPONENT_COUNT>
1

> <PUBCHEM_CACTVS_TAUTO_COUNT>
2

> <PUBCHEM_CONFORMER_ID>
00F47DA200000011

> <PUBCHEM_MMFF94_ENERGY>
122.7515

> <PUBCHEM_FEATURE_SELFOVERLAP>
50.885

> <PUBCHEM_SHAPE_FINGERPRINT>
10319926 262 18336266837958351258
10675989 125 17907300945147443969
10904742 38 18201431476243895189
11693224 71 18265602197032453493
12107183 9 17896882053981805714
12422481 6 18339074990893334748
12717326 135 18262225626033366173
13878862 14 16917347022843101740
14040222 383 18334584529644937797
14223995 32 18337673014229803869
14395042 24 17895774984529646867
14950920 106 15864653755107521941
15320295 198 18202006555565288152
15326921 28 18042957693339764341
15328684 2 17530963605358440928
15419008 42 18130793334880506990
15444296 121 17822868588098524534
15484559 13 15183249844438282467
15799311 1 14996284751572615882
16990366 60 17250907222256136939
18470217 77 18194960971022190171
19304671 126 17770786706819471821
20691028 202 18336829689164967981
21033648 29 18411136931052673908
21814621 53 18413673513506432418
21859007 373 18412547612908012494
23522609 53 17241350056711420004
23559900 14 18268448857725970758
23569914 2 17485890229847599648
23929065 36 18337952406864859011
3459 39 18261386737099430685
376196 1 18342178821813535431
3862424 121 11242536545355505472
397638 26 18409444748182120624
4144715 1 18263652916954129306
58902169 19 13757812416314299194
6371009 1 18260829341324557615
7918774 8 12035441719005165996
9555976 147 18187916330918249178
9849439 229 18263358093604236425
9896288 288 18187932823909943611

> <PUBCHEM_SHAPE_MULTIPOLES>
705.11
21.56
5.15
2.05
10.91
0.33
0.11
17.79
6.6
-12.2
1.21
3.57
-0.04
5.15

> <PUBCHEM_SHAPE_SELFOVERLAP>
1529.368

> <PUBCHEM_SHAPE_VOLUME>
383.3

> <PUBCHEM_COORDINATE_TYPE>
2
5
10

$$$$
