24896921
  -OEChem-01171810113D

 29 31  0     0  0  0  0  0  0999 V2000
   -0.2637    1.3552    0.1352 O   0  0  0  0  0  0  0  0  0  0  0  0
   -2.0248    2.7744    0.2872 O   0  0  0  0  0  0  0  0  0  0  0  0
    5.9063   -0.3065   -0.0175 N   0  0  0  0  0  0  0  0  0  0  0  0
   -2.0029   -0.8193   -0.0873 C   0  0  0  0  0  0  0  0  0  0  0  0
    0.2420    0.0402   -0.0064 C   0  0  0  0  0  0  0  0  0  0  0  0
   -2.5166    0.4735    0.0468 C   0  0  0  0  0  0  0  0  0  0  0  0
    1.7142   -0.0498   -0.0091 C   0  0  0  0  0  0  0  0  0  0  0  0
   -0.5622   -1.0263   -0.1095 C   0  0  0  0  0  0  0  0  0  0  0  0
   -2.8830   -1.9024   -0.1976 C   0  0  0  0  0  0  0  0  0  0  0  0
   -1.6017    1.6320    0.1663 C   0  0  0  0  0  0  0  0  0  0  0  0
   -3.9003    0.6835    0.0699 C   0  0  0  0  0  0  0  0  0  0  0  0
    2.3443   -1.1884    0.4932 C   0  0  0  0  0  0  0  0  0  0  0  0
    2.4766    1.0035   -0.5143 C   0  0  0  0  0  0  0  0  0  0  0  0
   -4.2624   -1.6923   -0.1745 C   0  0  0  0  0  0  0  0  0  0  0  0
   -4.7698   -0.4015   -0.0410 C   0  0  0  0  0  0  0  0  0  0  0  0
    4.4987   -0.2203   -0.0147 C   0  0  0  0  0  0  0  0  0  0  0  0
    3.7365   -1.2737    0.4904 C   0  0  0  0  0  0  0  0  0  0  0  0
    3.8688    0.9183   -0.5171 C   0  0  0  0  0  0  0  0  0  0  0  0
   -0.1955   -2.0394   -0.2297 H   0  0  0  0  0  0  0  0  0  0  0  0
   -2.5065   -2.9172   -0.3024 H   0  0  0  0  0  0  0  0  0  0  0  0
   -4.3183    1.6811    0.1733 H   0  0  0  0  0  0  0  0  0  0  0  0
    1.7846   -2.0204    0.9121 H   0  0  0  0  0  0  0  0  0  0  0  0
    2.0107    1.8984   -0.9193 H   0  0  0  0  0  0  0  0  0  0  0  0
   -4.9410   -2.5360   -0.2607 H   0  0  0  0  0  0  0  0  0  0  0  0
   -5.8437   -0.2399   -0.0232 H   0  0  0  0  0  0  0  0  0  0  0  0
    4.2162   -2.1644    0.8883 H   0  0  0  0  0  0  0  0  0  0  0  0
    4.4519    1.7449   -0.9150 H   0  0  0  0  0  0  0  0  0  0  0  0
    6.3637   -1.1315    0.3472 H   0  0  0  0  0  0  0  0  0  0  0  0
    6.4596    0.4571   -0.3828 H   0  0  0  0  0  0  0  0  0  0  0  0
  1  5  1  0  0  0  0
  1 10  1  0  0  0  0
  2 10  2  0  0  0  0
  3 16  1  0  0  0  0
  3 28  1  0  0  0  0
  3 29  1  0  0  0  0
  4  6  1  0  0  0  0
  4  8  1  0  0  0  0
  4  9  2  0  0  0  0
  5  7  1  0  0  0  0
  5  8  2  0  0  0  0
  6 10  1  0  0  0  0
  6 11  2  0  0  0  0
  7 12  2  0  0  0  0
  7 13  1  0  0  0  0
  8 19  1  0  0  0  0
  9 14  1  0  0  0  0
  9 20  1  0  0  0  0
 11 15  1  0  0  0  0
 11 21  1  0  0  0  0
 12 17  1  0  0  0  0
 12 22  1  0  0  0  0
 13 18  2  0  0  0  0
 13 23  1  0  0  0  0
 14 15  2  0  0  0  0
 14 24  1  0  0  0  0
 15 25  1  0  0  0  0
 16 17  2  0  0  0  0
 16 18  1  0  0  0  0
 17 26  1  0  0  0  0
 18 27  1  0  0  0  0
M  END
> <PUBCHEM_COMPOUND_CID>
24896921

> <PUBCHEM_CONFORMER_RMSD>
0.6

> <PUBCHEM_CONFORMER_DIVERSEORDER>
1
2

> <PUBCHEM_MMFF94_PARTIAL_CHARGES>
29
1 -0.23
10 0.63
11 -0.15
12 -0.15
13 -0.15
14 -0.15
15 -0.15
16 0.1
17 -0.15
18 -0.15
19 0.15
2 -0.57
20 0.15
21 0.15
22 0.15
23 0.15
24 0.15
25 0.15
26 0.15
27 0.15
28 0.4
29 0.4
3 -0.9
4 0.03
5 0.05
6 0.09
7 0.03
8 -0.18
9 -0.15

> <PUBCHEM_EFFECTIVE_ROTOR_COUNT>
1

> <PUBCHEM_PHARMACOPHORE_FEATURES>
6
1 2 acceptor
1 3 cation
1 3 donor
6 1 4 5 6 8 10 rings
6 4 6 9 11 14 15 rings
6 7 12 13 16 17 18 rings

> <PUBCHEM_HEAVY_ATOM_COUNT>
18

> <PUBCHEM_ATOM_DEF_STEREO_COUNT>
0

> <PUBCHEM_ATOM_UDEF_STEREO_COUNT>
0

> <PUBCHEM_BOND_DEF_STEREO_COUNT>
0

> <PUBCHEM_BOND_UDEF_STEREO_COUNT>
0

> <PUBCHEM_ISOTOPIC_ATOM_COUNT>
0

> <PUBCHEM_COMPONENT_COUNT>
1

> <PUBCHEM_CACTVS_TAUTO_COUNT>
2

> <PUBCHEM_CONFORMER_ID>
017BE59900000001

> <PUBCHEM_MMFF94_ENERGY>
69.9032

> <PUBCHEM_FEATURE_SELFOVERLAP>
30.472

> <PUBCHEM_SHAPE_FINGERPRINT>
10062212 137 18411980299732256279
10616163 171 18411983563401369247
10968037 39 18408604785643549910
11045515 52 18040432218009446637
11046707 91 18343582971191752167
11806522 49 18334294279827819662
12107183 9 17687460161914553562
12236239 1 18186802470110438254
12390115 104 17843699763616092473
12553582 1 18341038727002531063
13140716 1 18269843163244814873
13167823 11 18407758131789103410
13288520 33 18413390938252747863
13862211 1 18341893047859105559
15042514 8 18341334508541938495
15196674 1 18410575123328496525
15442244 35 18191865618024605106
15536298 74 18341893060258522272
17492 89 18337671910439487706
17802600 8 18412260640595001040
17804303 29 18272932747731828417
17834072 33 18334296487535916590
17862501 102 18333728001248383386
18186145 218 17168136879567391522
18522853 276 18410572885977556920
18681886 176 18411697725639244858
19050596 39 18408604768648193058
200 152 18334573559596337067
20510252 161 18201440212276018681
21267235 1 18409175432168030387
221490 88 18189904303575161546
22646028 1 18260827098797818378
2297311 6 18201449072872392084
23402539 116 18413102875038843975
23557571 272 18060425672913320768
23559900 14 18340480157783818104
26918003 58 17894912953151955579
3004659 81 18187359956369716854
335352 9 18411980274394865461
34797466 226 17632024139258723796
3545911 37 18408886222176505934
4214541 1 18409729526020018276
474 4 17459197442268838412
5104073 3 18410856585488800016
5374978 207 18411694413591809832
542803 24 17095243622575195766
559249 180 18190173499609897826
573450 72 18335693897836886970
58051976 378 18341895169076902358
67856867 119 18262517125906889724
7495541 125 17775280603972607000
77779 3 18409167714227655654
9709674 26 18410300185514089126

> <PUBCHEM_SHAPE_MULTIPOLES>
353.71
10.54
1.97
0.67
6.26
0.63
-0.01
-2.45
-0.32
-1.46
0.11
0.13
-0.01
-0.67

> <PUBCHEM_SHAPE_SELFOVERLAP>
787.392

> <PUBCHEM_SHAPE_VOLUME>
187.7

> <PUBCHEM_COORDINATE_TYPE>
2
5
10

$$$$
