5339344
  -OEChem-01171809293D

 45 47  0     0  0  0  0  0  0999 V2000
   -1.2127   -2.8964    0.5116 O   0  0  0  0  0  0  0  0  0  0  0  0
   -0.1395   -1.0714   -2.1718 O   0  0  0  0  0  0  0  0  0  0  0  0
    4.7063   -1.0337   -1.1420 O   0  0  0  0  0  0  0  0  0  0  0  0
   -3.1903   -1.8837    1.0620 N   0  0  0  0  0  0  0  0  0  0  0  0
   -4.0710    2.7693   -0.2563 C   0  0  0  0  0  0  0  0  0  0  0  0
   -3.2715    2.5278   -1.5187 C   0  0  0  0  0  0  0  0  0  0  0  0
   -4.6893    1.4595    0.2105 C   0  0  0  0  0  0  0  0  0  0  0  0
   -2.1144    1.5808   -1.2261 C   0  0  0  0  0  0  0  0  0  0  0  0
   -3.7404    0.2817    0.2880 C   0  0  0  0  0  0  0  0  0  0  0  0
   -2.4527    0.3296   -0.4327 C   0  0  0  0  0  0  0  0  0  0  0  0
   -4.0627   -0.8216    1.0003 C   0  0  0  0  0  0  0  0  0  0  0  0
   -1.5940   -0.7152   -0.3570 C   0  0  0  0  0  0  0  0  0  0  0  0
   -1.9673   -1.9290    0.4354 C   0  0  0  0  0  0  0  0  0  0  0  0
   -5.3464   -1.0416    1.7521 C   0  0  0  0  0  0  0  0  0  0  0  0
   -0.2776   -0.6769   -1.0225 C   0  0  0  0  0  0  0  0  0  0  0  0
    0.8208   -0.1302   -0.1873 C   0  0  0  0  0  0  0  0  0  0  0  0
    2.0621   -0.0607   -0.6899 C   0  0  0  0  0  0  0  0  0  0  0  0
    3.2348    0.4522    0.0409 C   0  0  0  0  0  0  0  0  0  0  0  0
    4.4992   -0.0541   -0.2161 C   0  0  0  0  0  0  0  0  0  0  0  0
    3.0376    1.4483    0.9852 C   0  0  0  0  0  0  0  0  0  0  0  0
    5.5937    0.4476    0.4881 C   0  0  0  0  0  0  0  0  0  0  0  0
    4.1322    1.9499    1.6895 C   0  0  0  0  0  0  0  0  0  0  0  0
    5.4101    1.4496    1.4411 C   0  0  0  0  0  0  0  0  0  0  0  0
    4.6331   -2.3818   -0.6845 C   0  0  0  0  0  0  0  0  0  0  0  0
   -4.8623    3.5031   -0.4466 H   0  0  0  0  0  0  0  0  0  0  0  0
   -3.4270    3.1862    0.5280 H   0  0  0  0  0  0  0  0  0  0  0  0
   -2.8812    3.4766   -1.9041 H   0  0  0  0  0  0  0  0  0  0  0  0
   -3.9153    2.1051   -2.3002 H   0  0  0  0  0  0  0  0  0  0  0  0
   -5.5025    1.1949   -0.4787 H   0  0  0  0  0  0  0  0  0  0  0  0
   -5.1446    1.6498    1.1899 H   0  0  0  0  0  0  0  0  0  0  0  0
   -1.3577    2.1396   -0.6583 H   0  0  0  0  0  0  0  0  0  0  0  0
   -1.6559    1.3115   -2.1854 H   0  0  0  0  0  0  0  0  0  0  0  0
   -3.4732   -2.6933    1.6073 H   0  0  0  0  0  0  0  0  0  0  0  0
   -6.1166   -0.3003    1.5251 H   0  0  0  0  0  0  0  0  0  0  0  0
   -5.1597   -1.0178    2.8309 H   0  0  0  0  0  0  0  0  0  0  0  0
   -5.7730   -2.0193    1.4999 H   0  0  0  0  0  0  0  0  0  0  0  0
    0.5780    0.1776    0.8239 H   0  0  0  0  0  0  0  0  0  0  0  0
    2.2583   -0.4038   -1.7029 H   0  0  0  0  0  0  0  0  0  0  0  0
    2.0606    1.8762    1.1912 H   0  0  0  0  0  0  0  0  0  0  0  0
    6.5927    0.0637    0.2995 H   0  0  0  0  0  0  0  0  0  0  0  0
    3.9904    2.7335    2.4282 H   0  0  0  0  0  0  0  0  0  0  0  0
    6.2625    1.8412    1.9886 H   0  0  0  0  0  0  0  0  0  0  0  0
    3.6517   -2.5950   -0.2493 H   0  0  0  0  0  0  0  0  0  0  0  0
    5.4194   -2.5785    0.0512 H   0  0  0  0  0  0  0  0  0  0  0  0
    4.7849   -3.0430   -1.5421 H   0  0  0  0  0  0  0  0  0  0  0  0
  1 13  2  0  0  0  0
  2 15  2  0  0  0  0
  3 19  1  0  0  0  0
  3 24  1  0  0  0  0
  4 11  1  0  0  0  0
  4 13  1  0  0  0  0
  4 33  1  0  0  0  0
  5  6  1  0  0  0  0
  5  7  1  0  0  0  0
  5 25  1  0  0  0  0
  5 26  1  0  0  0  0
  6  8  1  0  0  0  0
  6 27  1  0  0  0  0
  6 28  1  0  0  0  0
  7  9  1  0  0  0  0
  7 29  1  0  0  0  0
  7 30  1  0  0  0  0
  8 10  1  0  0  0  0
  8 31  1  0  0  0  0
  8 32  1  0  0  0  0
  9 10  1  0  0  0  0
  9 11  2  0  0  0  0
 10 12  2  0  0  0  0
 11 14  1  0  0  0  0
 12 13  1  0  0  0  0
 12 15  1  0  0  0  0
 14 34  1  0  0  0  0
 14 35  1  0  0  0  0
 14 36  1  0  0  0  0
 15 16  1  0  0  0  0
 16 17  2  0  0  0  0
 16 37  1  0  0  0  0
 17 18  1  0  0  0  0
 17 38  1  0  0  0  0
 18 19  1  0  0  0  0
 18 20  2  0  0  0  0
 19 21  2  0  0  0  0
 20 22  1  0  0  0  0
 20 39  1  0  0  0  0
 21 23  1  0  0  0  0
 21 40  1  0  0  0  0
 22 23  2  0  0  0  0
 22 41  1  0  0  0  0
 23 42  1  0  0  0  0
 24 43  1  0  0  0  0
 24 44  1  0  0  0  0
 24 45  1  0  0  0  0
M  END
> <PUBCHEM_COMPOUND_CID>
5339344

> <PUBCHEM_CONFORMER_RMSD>
0.8

> <PUBCHEM_CONFORMER_DIVERSEORDER>
1
45
16
21
17
37
42
9
46
48
11
49
20
47
13
6
35
30
14
15
7
50
44
10
36
43
38
18
39
4
40
32
22
19
26
29
33
2
41
5
31
25
24
27
34
28
3
8
23
51
12

> <PUBCHEM_MMFF94_PARTIAL_CHARGES>
29
1 -0.57
10 -0.14
11 -0.03
12 0.03
13 0.62
14 0.14
15 0.54
16 -0.14
17 -0.18
18 0.03
19 0.08
2 -0.57
20 -0.15
21 -0.15
22 -0.15
23 -0.15
24 0.28
3 -0.36
33 0.37
37 0.15
38 0.15
39 0.15
4 -0.54
40 0.15
41 0.15
42 0.15
7 0.14
8 0.14
9 -0.14

> <PUBCHEM_EFFECTIVE_ROTOR_COUNT>
4.8

> <PUBCHEM_PHARMACOPHORE_FEATURES>
8
1 1 acceptor
1 12 anion
1 2 acceptor
1 3 acceptor
1 4 donor
6 18 19 20 21 22 23 rings
6 4 9 10 11 12 13 rings
6 5 6 7 8 9 10 rings

> <PUBCHEM_HEAVY_ATOM_COUNT>
24

> <PUBCHEM_ATOM_DEF_STEREO_COUNT>
0

> <PUBCHEM_ATOM_UDEF_STEREO_COUNT>
0

> <PUBCHEM_BOND_DEF_STEREO_COUNT>
1

> <PUBCHEM_BOND_UDEF_STEREO_COUNT>
0

> <PUBCHEM_ISOTOPIC_ATOM_COUNT>
0

> <PUBCHEM_COMPONENT_COUNT>
1

> <PUBCHEM_CACTVS_TAUTO_COUNT>
13

> <PUBCHEM_CONFORMER_ID>
005178D000000001

> <PUBCHEM_MMFF94_ENERGY>
79.4471

> <PUBCHEM_FEATURE_SELFOVERLAP>
40.617

> <PUBCHEM_SHAPE_FINGERPRINT>
10319926 262 18261107444446219298
11089746 13 15267335254714533808
11370993 144 18343302539654847572
11545043 162 18334861580414293792
11595378 159 17603576426697697344
12403259 415 18342181054990099116
12507560 40 18412545409821911006
12596602 18 16805605918595069632
12633257 1 18267314299159206057
12892183 10 18187644695585025491
12925494 130 18192149287845954065
13103583 49 15430326784874609173
13402501 40 18271802406724060249
13583140 156 18272085028530313846
13675066 3 18411980273877816148
14420673 8 17825104805702989914
15042514 8 18116447019179121163
15081414 286 17917714630422959976
15484559 13 15399118001575958424
17349148 13 14836119966422190254
17844677 252 18261118486765120844
1813 80 16153432752885374998
19377110 9 16515683386170361284
20645477 56 18341328972112042886
20645477 70 17489590056937119806
21033648 144 16772937242512520824
21033648 29 18272076202209295816
21065198 57 18412545431423380358
21065199 12 18411701023588819058
21065201 7 18113900433809541378
21279426 13 18267590096215602990
21792961 116 18272659996714540958
22122407 14 17346326942864848057
23559900 14 18262812748147060862
268830 7 16988842795886783616
2838139 119 17916299429855798461
5104073 3 18335416816643407922
5265222 85 18189639240618743966
57724786 102 17561092435915120936
5924683 9 18127405868088343279
9981440 41 18187927223635468857
9995097 60 18342457024166889390

> <PUBCHEM_SHAPE_MULTIPOLES>
471.32
13.43
2.76
1.57
9.15
0.01
-0.01
2.85
4.48
-1.54
0.01
-0.12
0.13
3.49

> <PUBCHEM_SHAPE_SELFOVERLAP>
1013.252

> <PUBCHEM_SHAPE_VOLUME>
259.5

> <PUBCHEM_COORDINATE_TYPE>
2
5
10

$$$$
