8195301
  -OEChem-01171810103D

 31 33  0     0  0  0  0  0  0999 V2000
    4.0352    1.3697   -0.3631 S   0  0  0  0  0  0  0  0  0  0  0  0
   -4.0474   -1.3815   -0.4628 O   0  0  0  0  0  0  0  0  0  0  0  0
   -4.5242    1.4024    0.1146 O   0  0  0  0  0  0  0  0  0  0  0  0
    0.8525   -1.8987    0.4736 O   0  0  0  0  0  0  0  0  0  0  0  0
    1.6950    0.2400   -0.0204 N   0  0  0  0  0  0  0  0  0  0  0  0
    3.6674   -1.1285    0.1906 N   0  0  0  0  0  0  0  0  0  0  0  0
   -3.0419   -0.5054   -0.1480 C   0  0  0  0  0  0  0  0  0  0  0  0
   -3.2741    0.8414    0.1427 C   0  0  0  0  0  0  0  0  0  0  0  0
   -5.3342   -0.8646   -0.1126 C   0  0  0  0  0  0  0  0  0  0  0  0
   -5.4654    0.5740   -0.5734 C   0  0  0  0  0  0  0  0  0  0  0  0
   -0.6762   -0.1710    0.1985 C   0  0  0  0  0  0  0  0  0  0  0  0
   -1.7408   -1.0087   -0.1348 C   0  0  0  0  0  0  0  0  0  0  0  0
   -2.2105    1.6749    0.4891 C   0  0  0  0  0  0  0  0  0  0  0  0
   -0.9113    1.1673    0.5154 C   0  0  0  0  0  0  0  0  0  0  0  0
    0.6801   -0.6949    0.2227 C   0  0  0  0  0  0  0  0  0  0  0  0
    3.0734    0.0040   -0.0274 C   0  0  0  0  0  0  0  0  0  0  0  0
    5.4199    0.3700   -0.2063 C   0  0  0  0  0  0  0  0  0  0  0  0
    5.0287   -0.9194    0.0872 C   0  0  0  0  0  0  0  0  0  0  0  0
    6.7738    0.9290   -0.3856 C   0  0  0  0  0  0  0  0  0  0  0  0
   -5.4645   -0.9548    0.9730 H   0  0  0  0  0  0  0  0  0  0  0  0
   -6.0882   -1.4902   -0.6003 H   0  0  0  0  0  0  0  0  0  0  0  0
   -5.2933    0.6700   -1.6526 H   0  0  0  0  0  0  0  0  0  0  0  0
   -6.4675    0.9542   -0.3520 H   0  0  0  0  0  0  0  0  0  0  0  0
   -1.5713   -2.0544   -0.3804 H   0  0  0  0  0  0  0  0  0  0  0  0
   -2.3852    2.7185    0.7366 H   0  0  0  0  0  0  0  0  0  0  0  0
   -0.1189    1.8442    0.8210 H   0  0  0  0  0  0  0  0  0  0  0  0
    1.4554    1.1986   -0.2549 H   0  0  0  0  0  0  0  0  0  0  0  0
    5.7000   -1.7547    0.2377 H   0  0  0  0  0  0  0  0  0  0  0  0
    6.9703    1.7221    0.3434 H   0  0  0  0  0  0  0  0  0  0  0  0
    7.5388    0.1571   -0.2501 H   0  0  0  0  0  0  0  0  0  0  0  0
    6.8965    1.3444   -1.3913 H   0  0  0  0  0  0  0  0  0  0  0  0
  1 16  1  0  0  0  0
  1 17  1  0  0  0  0
  2  7  1  0  0  0  0
  2  9  1  0  0  0  0
  3  8  1  0  0  0  0
  3 10  1  0  0  0  0
  4 15  2  0  0  0  0
  5 15  1  0  0  0  0
  5 16  1  0  0  0  0
  5 27  1  0  0  0  0
  6 16  2  0  0  0  0
  6 18  1  0  0  0  0
  7  8  2  0  0  0  0
  7 12  1  0  0  0  0
  8 13  1  0  0  0  0
  9 10  1  0  0  0  0
  9 20  1  0  0  0  0
  9 21  1  0  0  0  0
 10 22  1  0  0  0  0
 10 23  1  0  0  0  0
 11 12  2  0  0  0  0
 11 14  1  0  0  0  0
 11 15  1  0  0  0  0
 12 24  1  0  0  0  0
 13 14  2  0  0  0  0
 13 25  1  0  0  0  0
 14 26  1  0  0  0  0
 17 18  2  0  0  0  0
 17 19  1  0  0  0  0
 18 28  1  0  0  0  0
 19 29  1  0  0  0  0
 19 30  1  0  0  0  0
 19 31  1  0  0  0  0
M  END
> <PUBCHEM_COMPOUND_CID>
8195301

> <PUBCHEM_CONFORMER_RMSD>
0.6

> <PUBCHEM_CONFORMER_DIVERSEORDER>
3
7
1
8
13
10
12
4
2
11
5
9
6

> <PUBCHEM_MMFF94_PARTIAL_CHARGES>
24
1 -0.08
10 0.28
11 0.09
12 -0.15
13 -0.15
14 -0.15
15 0.54
16 0.44
17 -0.14
18 0.08
19 0.18
2 -0.36
24 0.15
25 0.15
26 0.15
27 0.37
28 0.15
3 -0.36
4 -0.57
5 -0.49
6 -0.57
7 0.08
8 0.08
9 0.28

> <PUBCHEM_EFFECTIVE_ROTOR_COUNT>
3.8

> <PUBCHEM_PHARMACOPHORE_FEATURES>
7
1 2 acceptor
1 3 acceptor
1 4 acceptor
1 5 donor
5 1 6 16 17 18 rings
6 2 3 7 8 9 10 rings
6 7 8 11 12 13 14 rings

> <PUBCHEM_HEAVY_ATOM_COUNT>
19

> <PUBCHEM_ATOM_DEF_STEREO_COUNT>
0

> <PUBCHEM_ATOM_UDEF_STEREO_COUNT>
0

> <PUBCHEM_BOND_DEF_STEREO_COUNT>
0

> <PUBCHEM_BOND_UDEF_STEREO_COUNT>
0

> <PUBCHEM_ISOTOPIC_ATOM_COUNT>
0

> <PUBCHEM_COMPONENT_COUNT>
1

> <PUBCHEM_CACTVS_TAUTO_COUNT>
3

> <PUBCHEM_CONFORMER_ID>
007D0CE500000003

> <PUBCHEM_MMFF94_ENERGY>
49.8794

> <PUBCHEM_FEATURE_SELFOVERLAP>
35.564

> <PUBCHEM_SHAPE_FINGERPRINT>
10595046 47 18411418410398146186
10730089 173 18342740723651764332
10968037 39 18413107277591169295
11089746 13 13479133531574029422
11315181 36 18060142054452485184
12107183 9 17617658757099265210
12236239 1 18334856104199220042
12916748 109 18411425003346986434
13167823 11 18410853239846737386
13288520 33 18202564003960222821
13533116 47 16515672309459975568
13631057 29 17604715620051158835
14123256 10 18342175587290951036
14251718 22 18412826897799548444
14528608 73 18409448102814809494
15048467 5 18114177515351330053
15196674 1 18411136926573031648
17834072 33 18411417323792447926
18681886 176 18342452686334303656
19489759 90 14273732954190226709
200 152 18343581841224898305
20300324 65 18272653445723732921
20645477 70 18272092635318653158
21267235 1 18341897441826654135
2297311 6 17703798019533982865
23402539 116 18342171180665068078
23402655 69 18413107260553809342
23536379 177 18408603647725032370
23557571 272 17560809809502072096
23559900 14 18271518797016286640
29717793 49 18130794439135137646
300161 21 18333728018470411424
3004659 81 18410014291806964342
335352 9 18343578556783036813
34797466 226 17489314126663311900
351380 180 18411138043718313140
3545911 37 18410576197676871516
4073 2 17895481427193163482
4214541 1 18411418401496936276
42788 4 18409166610452631158
4325135 7 18412826897530523453
4463277 17 18413671310150805233
474 4 17967538990817783340
474229 33 18412828001205665151
5104073 3 18410293592527638050
542803 24 17822012016921647572
59755656 215 18343308033414099758
59755656 520 17603581958753257602
67856867 119 18337110193526445100
7495541 125 17632290203111593512

> <PUBCHEM_SHAPE_MULTIPOLES>
367.29
14.96
1.61
0.69
9.48
0.02
-0.01
1.98
-2.54
-0.34
0.11
-0.06
0.05
-0.59

> <PUBCHEM_SHAPE_SELFOVERLAP>
787.449

> <PUBCHEM_SHAPE_VOLUME>
204.7

> <PUBCHEM_COORDINATE_TYPE>
2
5
10

$$$$
