99844
  -OEChem-01171810203D

 27 28  0     0  0  0  0  0  0999 V2000
   -3.3262    1.0819   -1.2148 O   0  0  0  0  0  0  0  0  0  0  0  0
   -4.3297   -0.5372    0.8095 O   0  0  0  0  0  0  0  0  0  0  0  0
    3.9775   -1.0648   -1.4281 O   0  0  0  0  0  0  0  0  0  0  0  0
    0.9889    1.1944    1.4394 O   0  0  0  0  0  0  0  0  0  0  0  0
   -0.3420   -0.8252   -0.3098 C   0  0  0  0  0  0  0  0  0  0  0  0
    2.0818   -0.2152   -0.1921 C   0  0  0  0  0  0  0  0  0  0  0  0
    1.0556   -0.9294   -0.6986 C   0  0  0  0  0  0  0  0  0  0  0  0
   -1.1787    0.0871   -0.9526 C   0  0  0  0  0  0  0  0  0  0  0  0
   -2.5189    0.1871   -0.5796 C   0  0  0  0  0  0  0  0  0  0  0  0
   -0.8456   -1.6374    0.7063 C   0  0  0  0  0  0  0  0  0  0  0  0
   -3.0226   -0.6251    0.4364 C   0  0  0  0  0  0  0  0  0  0  0  0
   -2.1859   -1.5374    1.0794 C   0  0  0  0  0  0  0  0  0  0  0  0
    3.4918   -0.3296   -0.5936 C   0  0  0  0  0  0  0  0  0  0  0  0
    1.9817    0.8116    0.8558 C   0  0  0  0  0  0  0  0  0  0  0  0
    4.2134    0.6524    0.2427 C   0  0  0  0  0  0  0  0  0  0  0  0
    3.3639    1.2944    1.0579 C   0  0  0  0  0  0  0  0  0  0  0  0
   -3.4050    2.3927   -0.6581 C   0  0  0  0  0  0  0  0  0  0  0  0
    1.2546   -1.6658   -1.4744 H   0  0  0  0  0  0  0  0  0  0  0  0
   -0.7941    0.7238   -1.7466 H   0  0  0  0  0  0  0  0  0  0  0  0
   -0.2059   -2.3533    1.2170 H   0  0  0  0  0  0  0  0  0  0  0  0
   -2.5652   -2.1761    1.8726 H   0  0  0  0  0  0  0  0  0  0  0  0
    5.2785    0.8091    0.1828 H   0  0  0  0  0  0  0  0  0  0  0  0
    3.6231    2.0600    1.7713 H   0  0  0  0  0  0  0  0  0  0  0  0
   -2.4215    2.8730   -0.6680 H   0  0  0  0  0  0  0  0  0  0  0  0
   -3.7945    2.3548    0.3641 H   0  0  0  0  0  0  0  0  0  0  0  0
   -4.0897    2.9848   -1.2714 H   0  0  0  0  0  0  0  0  0  0  0  0
   -4.4981   -1.1730    1.5260 H   0  0  0  0  0  0  0  0  0  0  0  0
  1  9  1  0  0  0  0
  1 17  1  0  0  0  0
  2 11  1  0  0  0  0
  2 27  1  0  0  0  0
  3 13  2  0  0  0  0
  4 14  2  0  0  0  0
  5  7  1  0  0  0  0
  5  8  2  0  0  0  0
  5 10  1  0  0  0  0
  6  7  2  0  0  0  0
  6 13  1  0  0  0  0
  6 14  1  0  0  0  0
  7 18  1  0  0  0  0
  8  9  1  0  0  0  0
  8 19  1  0  0  0  0
  9 11  2  0  0  0  0
 10 12  2  0  0  0  0
 10 20  1  0  0  0  0
 11 12  1  0  0  0  0
 12 21  1  0  0  0  0
 13 15  1  0  0  0  0
 14 16  1  0  0  0  0
 15 16  2  0  0  0  0
 15 22  1  0  0  0  0
 16 23  1  0  0  0  0
 17 24  1  0  0  0  0
 17 25  1  0  0  0  0
 17 26  1  0  0  0  0
M  END
> <PUBCHEM_COMPOUND_CID>
99844

> <PUBCHEM_CONFORMER_RMSD>
0.6

> <PUBCHEM_CONFORMER_DIVERSEORDER>
2
4
1
3

> <PUBCHEM_MMFF94_PARTIAL_CHARGES>
24
1 -0.36
10 -0.15
11 0.08
12 -0.15
13 0.54
14 0.54
15 -0.14
16 -0.14
17 0.28
18 0.15
19 0.15
2 -0.53
20 0.15
21 0.15
22 0.15
23 0.15
27 0.45
3 -0.57
4 -0.57
5 0.03
6 0.03
7 -0.18
8 -0.15
9 0.08

> <PUBCHEM_EFFECTIVE_ROTOR_COUNT>
2

> <PUBCHEM_PHARMACOPHORE_FEATURES>
7
1 1 acceptor
1 2 donor
1 3 acceptor
1 4 acceptor
1 6 anion
5 6 13 14 15 16 rings
6 5 8 9 10 11 12 rings

> <PUBCHEM_HEAVY_ATOM_COUNT>
17

> <PUBCHEM_ATOM_DEF_STEREO_COUNT>
0

> <PUBCHEM_ATOM_UDEF_STEREO_COUNT>
0

> <PUBCHEM_BOND_DEF_STEREO_COUNT>
0

> <PUBCHEM_BOND_UDEF_STEREO_COUNT>
0

> <PUBCHEM_ISOTOPIC_ATOM_COUNT>
0

> <PUBCHEM_COMPONENT_COUNT>
1

> <PUBCHEM_CACTVS_TAUTO_COUNT>
3

> <PUBCHEM_CONFORMER_ID>
0001860400000002

> <PUBCHEM_MMFF94_ENERGY>
57.29

> <PUBCHEM_FEATURE_SELFOVERLAP>
35.522

> <PUBCHEM_SHAPE_FINGERPRINT>
10062212 137 14908181941179073671
10498660 4 18114452362835255285
10608611 8 18411695517256122668
1100329 8 14160578278359355562
11471102 20 17846503651520988094
12236239 1 15936407866286705590
124424 183 18342453729842642222
12654215 9 18273491256952796576
13134695 92 17275386499953672704
13464514 151 18053664672718730173
13581323 91 17530962518272655659
13764800 53 18187362104249094649
15219456 202 18412544310115201782
15375358 24 18272358802836326112
15653759 3 18334013921141718458
16945 1 18040714822430394427
18186145 218 17989207049059798566
18219364 16 18131631222384941939
19049666 15 18338800017985153610
19422 9 16153422852959032642
200 152 16056880225892167682
20510252 161 18261112976369241177
20645477 56 18341894151095579042
20645477 70 17632304458382712990
21618674 53 16298685926852854710
21639500 275 17203039789833284368
23175994 123 18129959913619403878
23402539 116 18114736140394334791
23493267 7 18187365398161709938
23559900 14 18335702694484115286
25 1 18271805666397742855
3082319 5 15123790716598015988
4028521 119 18341885247855598149
6049 1 18339367460511159880
77492 1 15482677887604748486
81228 2 17763175143580126427
90316 7 16515673425486775813

> <PUBCHEM_SHAPE_MULTIPOLES>
326.37
8.04
1.76
1.28
1.48
0.57
0.04
1.87
-0.3
-1.4
0.1
0.32
0.04
1.74

> <PUBCHEM_SHAPE_SELFOVERLAP>
708.826

> <PUBCHEM_SHAPE_VOLUME>
178.6

> <PUBCHEM_COORDINATE_TYPE>
2
5
10

$$$$
