421494
  -OEChem-01171810153D

 65 69  0     1  0  0  0  0  0999 V2000
   -4.0154    3.0075    1.1901 O   0  0  0  0  0  0  0  0  0  0  0  0
   -5.9664    2.0711   -0.5504 O   0  0  0  0  0  0  0  0  0  0  0  0
   -1.3958   -2.4316   -0.0433 N   0  0  1  0  0  0  0  0  0  0  0  0
    2.6404   -0.5381   -1.2919 N   0  0  0  0  0  0  0  0  0  0  0  0
   -1.5175   -1.2295    0.8076 C   0  0  1  0  0  0  0  0  0  0  0  0
   -0.1661   -0.4797    0.7264 C   0  0  0  0  0  0  0  0  0  0  0  0
    1.0548   -1.3662    0.8824 C   0  0  0  0  0  0  0  0  0  0  0  0
   -0.3956   -3.3564    0.5106 C   0  0  0  0  0  0  0  0  0  0  0  0
    0.9400   -2.7099    0.8193 C   0  0  0  0  0  0  0  0  0  0  0  0
   -2.6860   -3.1038   -0.2139 C   0  0  0  0  0  0  0  0  0  0  0  0
   -2.6948   -0.3342    0.4293 C   0  0  0  0  0  0  0  0  0  0  0  0
    2.3364   -0.6109    1.1025 C   0  0  0  0  0  0  0  0  0  0  0  0
   -3.6246   -2.1975   -1.0074 C   0  0  0  0  0  0  0  0  0  0  0  0
   -3.7121   -0.8154   -0.4173 C   0  0  0  0  0  0  0  0  0  0  0  0
    2.6590    0.3086   -0.0827 C   0  0  1  0  0  0  0  0  0  0  0  0
    2.0577   -3.6903    1.0456 C   0  0  0  0  0  0  0  0  0  0  0  0
    3.9555    1.0885    0.0957 C   0  0  0  0  0  0  0  0  0  0  0  0
   -2.8300    0.9529    0.9757 C   0  0  0  0  0  0  0  0  0  0  0  0
   -4.7978    0.0078   -0.7508 C   0  0  0  0  0  0  0  0  0  0  0  0
    3.0905    0.2109   -2.4624 C   0  0  0  0  0  0  0  0  0  0  0  0
    4.8467    1.2415   -0.9861 C   0  0  0  0  0  0  0  0  0  0  0  0
    4.5622    0.5859   -2.3132 C   0  0  0  0  0  0  0  0  0  0  0  0
   -3.9207    1.7606    0.6487 C   0  0  0  0  0  0  0  0  0  0  0  0
    2.7820   -4.0147   -0.2443 C   0  0  0  0  0  0  0  0  0  0  0  0
   -4.9006    1.2910   -0.2194 C   0  0  0  0  0  0  0  0  0  0  0  0
    4.2537    1.7346    1.3064 C   0  0  0  0  0  0  0  0  0  0  0  0
    6.0325    1.9727   -0.8225 C   0  0  0  0  0  0  0  0  0  0  0  0
    5.4306    2.4708    1.4559 C   0  0  0  0  0  0  0  0  0  0  0  0
    6.3225    2.5841    0.3946 C   0  0  0  0  0  0  0  0  0  0  0  0
   -3.4158    4.0770    0.4620 C   0  0  0  0  0  0  0  0  0  0  0  0
   -6.9253    1.5128   -1.4469 C   0  0  0  0  0  0  0  0  0  0  0  0
   -1.6947   -1.5412    1.8483 H   0  0  0  0  0  0  0  0  0  0  0  0
   -0.1339    0.2828    1.5144 H   0  0  0  0  0  0  0  0  0  0  0  0
   -0.1106    0.0459   -0.2355 H   0  0  0  0  0  0  0  0  0  0  0  0
   -0.2332   -4.1531   -0.2260 H   0  0  0  0  0  0  0  0  0  0  0  0
   -0.7700   -3.8296    1.4285 H   0  0  0  0  0  0  0  0  0  0  0  0
   -3.1278   -3.3601    0.7585 H   0  0  0  0  0  0  0  0  0  0  0  0
   -2.5631   -4.0394   -0.7731 H   0  0  0  0  0  0  0  0  0  0  0  0
    2.2225   -0.0342    2.0283 H   0  0  0  0  0  0  0  0  0  0  0  0
    3.1849   -1.2813    1.2790 H   0  0  0  0  0  0  0  0  0  0  0  0
   -4.6192   -2.6586   -1.0304 H   0  0  0  0  0  0  0  0  0  0  0  0
   -3.2726   -2.1097   -2.0431 H   0  0  0  0  0  0  0  0  0  0  0  0
    1.8754    1.0716   -0.1854 H   0  0  0  0  0  0  0  0  0  0  0  0
    2.7706   -3.3173    1.7887 H   0  0  0  0  0  0  0  0  0  0  0  0
    1.6539   -4.6135    1.4800 H   0  0  0  0  0  0  0  0  0  0  0  0
   -2.0873    1.3362    1.6707 H   0  0  0  0  0  0  0  0  0  0  0  0
    1.6946   -0.8738   -1.4692 H   0  0  0  0  0  0  0  0  0  0  0  0
   -5.5322   -0.4167   -1.4279 H   0  0  0  0  0  0  0  0  0  0  0  0
    2.4701    1.1048   -2.6053 H   0  0  0  0  0  0  0  0  0  0  0  0
    2.9683   -0.4085   -3.3578 H   0  0  0  0  0  0  0  0  0  0  0  0
    4.8398    1.2608   -3.1315 H   0  0  0  0  0  0  0  0  0  0  0  0
    5.1854   -0.3138   -2.3934 H   0  0  0  0  0  0  0  0  0  0  0  0
    3.5281   -4.7965   -0.0668 H   0  0  0  0  0  0  0  0  0  0  0  0
    3.3115   -3.1441   -0.6403 H   0  0  0  0  0  0  0  0  0  0  0  0
    2.0967   -4.3792   -1.0166 H   0  0  0  0  0  0  0  0  0  0  0  0
    3.5710    1.6844    2.1497 H   0  0  0  0  0  0  0  0  0  0  0  0
    6.7330    2.0729   -1.6478 H   0  0  0  0  0  0  0  0  0  0  0  0
    5.6476    2.9585    2.4019 H   0  0  0  0  0  0  0  0  0  0  0  0
    7.2393    3.1540    0.5124 H   0  0  0  0  0  0  0  0  0  0  0  0
   -3.8745    4.1753   -0.5270 H   0  0  0  0  0  0  0  0  0  0  0  0
   -2.3377    3.9155    0.3619 H   0  0  0  0  0  0  0  0  0  0  0  0
   -3.5803    5.0043    1.0175 H   0  0  0  0  0  0  0  0  0  0  0  0
   -7.4212    0.6373   -1.0138 H   0  0  0  0  0  0  0  0  0  0  0  0
   -6.4862    1.3018   -2.4280 H   0  0  0  0  0  0  0  0  0  0  0  0
   -7.6998    2.2712   -1.6027 H   0  0  0  0  0  0  0  0  0  0  0  0
  1 23  1  0  0  0  0
  1 30  1  0  0  0  0
  2 25  1  0  0  0  0
  2 31  1  0  0  0  0
  3  5  1  0  0  0  0
  3  8  1  0  0  0  0
  3 10  1  0  0  0  0
  4 15  1  0  0  0  0
  4 20  1  0  0  0  0
  4 47  1  0  0  0  0
  5  6  1  0  0  0  0
  5 11  1  0  0  0  0
  5 32  1  0  0  0  0
  6  7  1  0  0  0  0
  6 33  1  0  0  0  0
  6 34  1  0  0  0  0
  7  9  2  0  0  0  0
  7 12  1  0  0  0  0
  8  9  1  0  0  0  0
  8 35  1  0  0  0  0
  8 36  1  0  0  0  0
  9 16  1  0  0  0  0
 10 13  1  0  0  0  0
 10 37  1  0  0  0  0
 10 38  1  0  0  0  0
 11 14  1  0  0  0  0
 11 18  2  0  0  0  0
 12 15  1  0  0  0  0
 12 39  1  0  0  0  0
 12 40  1  0  0  0  0
 13 14  1  0  0  0  0
 13 41  1  0  0  0  0
 13 42  1  0  0  0  0
 14 19  2  0  0  0  0
 15 17  1  0  0  0  0
 15 43  1  0  0  0  0
 16 24  1  0  0  0  0
 16 44  1  0  0  0  0
 16 45  1  0  0  0  0
 17 21  1  0  0  0  0
 17 26  2  0  0  0  0
 18 23  1  0  0  0  0
 18 46  1  0  0  0  0
 19 25  1  0  0  0  0
 19 48  1  0  0  0  0
 20 22  1  0  0  0  0
 20 49  1  0  0  0  0
 20 50  1  0  0  0  0
 21 22  1  0  0  0  0
 21 27  2  0  0  0  0
 22 51  1  0  0  0  0
 22 52  1  0  0  0  0
 23 25  2  0  0  0  0
 24 53  1  0  0  0  0
 24 54  1  0  0  0  0
 24 55  1  0  0  0  0
 26 28  1  0  0  0  0
 26 56  1  0  0  0  0
 27 29  1  0  0  0  0
 27 57  1  0  0  0  0
 28 29  2  0  0  0  0
 28 58  1  0  0  0  0
 29 59  1  0  0  0  0
 30 60  1  0  0  0  0
 30 61  1  0  0  0  0
 30 62  1  0  0  0  0
 31 63  1  0  0  0  0
 31 64  1  0  0  0  0
 31 65  1  0  0  0  0
M  END
> <PUBCHEM_COMPOUND_CID>
421494

> <PUBCHEM_CONFORMER_RMSD>
0.8

> <PUBCHEM_CONFORMER_DIVERSEORDER>
1
51
30
86
41
62
23
71
78
83
80
89
61
22
56
52
84
8
37
55
70
87
49
48
91
3
75
7
18
15
60
65
19
11
64
44
95
72
92
9
69
39
93
63
36
28
68
40
29
45
59
42
58
88
25
54
21
27
82
6
67
35
85
74
43
16
73
34
14
26
50
57
13
47
17
81
4
53
10
79
32
31
38
90
76
46
2
24
94
12
66
77
33
20
5

> <PUBCHEM_MMFF94_PARTIAL_CHARGES>
37
1 -0.36
10 0.27
11 -0.14
12 0.14
13 0.14
14 -0.14
15 0.41
16 0.14
17 -0.14
18 -0.15
19 -0.15
2 -0.36
20 0.27
21 -0.14
22 0.14
23 0.08
25 0.08
26 -0.15
27 -0.15
28 -0.15
29 -0.15
3 -0.81
30 0.28
31 0.28
4 -0.9
46 0.15
47 0.36
48 0.15
5 0.41
56 0.15
57 0.15
58 0.15
59 0.15
6 0.14
7 -0.28
8 0.41
9 -0.28

> <PUBCHEM_EFFECTIVE_ROTOR_COUNT>
6.6

> <PUBCHEM_PHARMACOPHORE_FEATURES>
11
1 1 acceptor
1 2 acceptor
1 24 hydrophobe
1 3 cation
1 4 cation
1 4 donor
6 11 14 18 19 23 25 rings
6 17 21 26 27 28 29 rings
6 3 5 10 11 13 14 rings
6 3 5 6 7 8 9 rings
6 4 15 17 20 21 22 rings

> <PUBCHEM_HEAVY_ATOM_COUNT>
31

> <PUBCHEM_ATOM_DEF_STEREO_COUNT>
0

> <PUBCHEM_ATOM_UDEF_STEREO_COUNT>
2

> <PUBCHEM_BOND_DEF_STEREO_COUNT>
0

> <PUBCHEM_BOND_UDEF_STEREO_COUNT>
0

> <PUBCHEM_ISOTOPIC_ATOM_COUNT>
0

> <PUBCHEM_COMPONENT_COUNT>
1

> <PUBCHEM_CACTVS_TAUTO_COUNT>
1

> <PUBCHEM_CONFORMER_ID>
00066E7600000001

> <PUBCHEM_MMFF94_ENERGY>
93.1634

> <PUBCHEM_FEATURE_SELFOVERLAP>
55.891

> <PUBCHEM_SHAPE_FINGERPRINT>
10721379 63 18269000782709254698
10937287 8 18408888408283549115
11331351 85 17259623647633817970
11434127 23 18200877391208552892
12107183 9 18261940879098223946
12422481 6 17095510782673790022
12633257 1 15574714733147966114
12788726 201 17612048361353497390
13540713 5 18264466482534657995
14251764 30 9295027760099834956
14294032 229 18190191263679394155
14739800 52 18341039761978516272
15439362 3 18334011671286412706
15513586 35 16663476560151132893
16989378 47 14762419668239015236
16992787 43 18341611496200971329
18608769 82 18266745864838957579
20567600 9 18262810557718637446
20775530 9 11095880428335129537
21033650 10 18045803409931448230
21792934 111 11025794285475768311
22393880 68 18272942634831251870
23559900 14 18200307702510134922
245318 6 18188220792797038197
3918712 181 18338226158984580080
44249763 50 17844796169707849120
469060 322 18046088178926581771
474 4 18041000583953362747
508706 21 18269843180182311720
5283173 99 18272094950163269456
56633871 153 8214136374673024937
6058803 2 18053649301801287979
7288768 16 17967250910224018379
9849439 229 18334572451653108467
9981440 41 18262237840899510906

> <PUBCHEM_SHAPE_MULTIPOLES>
616.26
15.22
4.92
1.62
0.53
2.24
-0.76
-16.6
-4.01
0.74
1.32
-1.56
-0.41
-0.19

> <PUBCHEM_SHAPE_SELFOVERLAP>
1328.811

> <PUBCHEM_SHAPE_VOLUME>
337.6

> <PUBCHEM_COORDINATE_TYPE>
2
5
10

$$$$
