5473208
  -OEChem-01171810163D

 51 55  0     0  0  0  0  0  0999 V2000
    4.3275   -2.9704   -0.9402 O   0  0  0  0  0  0  0  0  0  0  0  0
   -4.3531    2.9686   -0.9361 O   0  0  0  0  0  0  0  0  0  0  0  0
    3.2438    3.6716    1.6220 O   0  0  0  0  0  0  0  0  0  0  0  0
   -3.2279   -3.6698    1.6177 O   0  0  0  0  0  0  0  0  0  0  0  0
    4.8301    1.9243    1.5160 N   0  0  0  0  0  0  0  0  0  0  0  0
   -4.8257   -1.9330    1.5123 N   0  0  0  0  0  0  0  0  0  0  0  0
    0.0099    0.0061   -0.0240 N   0  0  0  0  0  0  0  0  0  0  0  0
    3.6480    0.3762    0.2933 C   0  0  0  0  0  0  0  0  0  0  0  0
   -3.6527   -0.3752    0.2934 C   0  0  0  0  0  0  0  0  0  0  0  0
    2.8226    1.5651    0.4771 C   0  0  0  0  0  0  0  0  0  0  0  0
   -2.8194   -1.5588    0.4762 C   0  0  0  0  0  0  0  0  0  0  0  0
    4.8555    0.6477    0.9436 C   0  0  0  0  0  0  0  0  0  0  0  0
   -4.8591   -0.6557    0.9417 C   0  0  0  0  0  0  0  0  0  0  0  0
    3.6094    2.5634    1.2761 C   0  0  0  0  0  0  0  0  0  0  0  0
   -3.6005   -2.5635    1.2729 C   0  0  0  0  0  0  0  0  0  0  0  0
    3.4474   -0.8321   -0.3468 C   0  0  0  0  0  0  0  0  0  0  0  0
   -3.4595    0.8353   -0.3448 C   0  0  0  0  0  0  0  0  0  0  0  0
    1.5822    1.7917    0.0402 C   0  0  0  0  0  0  0  0  0  0  0  0
   -1.5633   -1.7788    0.0357 C   0  0  0  0  0  0  0  0  0  0  0  0
    5.8955   -0.2603    0.9815 C   0  0  0  0  0  0  0  0  0  0  0  0
   -5.9052    0.2452    0.9797 C   0  0  0  0  0  0  0  0  0  0  0  0
    0.7587    0.8552   -0.7467 C   0  0  0  0  0  0  0  0  0  0  0  0
   -0.7474   -0.8569   -0.7380 C   0  0  0  0  0  0  0  0  0  0  0  0
    4.4883   -1.7665   -0.3210 C   0  0  0  0  0  0  0  0  0  0  0  0
   -4.5066    1.7628   -0.3189 C   0  0  0  0  0  0  0  0  0  0  0  0
    5.7003   -1.4833    0.3367 C   0  0  0  0  0  0  0  0  0  0  0  0
   -5.7175    1.4704    0.3369 C   0  0  0  0  0  0  0  0  0  0  0  0
    0.8089    0.9075   -2.1203 C   0  0  0  0  0  0  0  0  0  0  0  0
   -0.7797   -0.8984   -2.1226 C   0  0  0  0  0  0  0  0  0  0  0  0
    0.0161    0.0041   -2.8195 C   0  0  0  0  0  0  0  0  0  0  0  0
    3.0798   -3.2023   -1.5900 C   0  0  0  0  0  0  0  0  0  0  0  0
   -3.1063    3.2099   -1.5840 C   0  0  0  0  0  0  0  0  0  0  0  0
    5.6050    2.3207    2.0346 H   0  0  0  0  0  0  0  0  0  0  0  0
   -5.5986   -2.3354    2.0293 H   0  0  0  0  0  0  0  0  0  0  0  0
    2.5086   -1.0242   -0.8389 H   0  0  0  0  0  0  0  0  0  0  0  0
   -2.5201    1.0318   -0.8352 H   0  0  0  0  0  0  0  0  0  0  0  0
    1.0869    2.7330    0.2668 H   0  0  0  0  0  0  0  0  0  0  0  0
   -1.0728   -2.7214    0.2683 H   0  0  0  0  0  0  0  0  0  0  0  0
    6.8281   -0.0409    1.4883 H   0  0  0  0  0  0  0  0  0  0  0  0
   -6.8370    0.0188    1.4850 H   0  0  0  0  0  0  0  0  0  0  0  0
    6.4965   -2.2237    0.3452 H   0  0  0  0  0  0  0  0  0  0  0  0
   -6.5187    2.2054    0.3454 H   0  0  0  0  0  0  0  0  0  0  0  0
    1.4335    1.6155   -2.6540 H   0  0  0  0  0  0  0  0  0  0  0  0
   -1.4011   -1.6061   -2.6618 H   0  0  0  0  0  0  0  0  0  0  0  0
    0.0186    0.0033   -3.9053 H   0  0  0  0  0  0  0  0  0  0  0  0
    2.9178   -2.5018   -2.4164 H   0  0  0  0  0  0  0  0  0  0  0  0
    2.2475   -3.2061   -0.8777 H   0  0  0  0  0  0  0  0  0  0  0  0
    3.1262   -4.2046   -2.0286 H   0  0  0  0  0  0  0  0  0  0  0  0
   -2.9387    2.5115   -2.4113 H   0  0  0  0  0  0  0  0  0  0  0  0
   -2.2749    3.2178   -0.8708 H   0  0  0  0  0  0  0  0  0  0  0  0
   -3.1587    4.2125   -2.0211 H   0  0  0  0  0  0  0  0  0  0  0  0
  1 24  1  0  0  0  0
  1 31  1  0  0  0  0
  2 25  1  0  0  0  0
  2 32  1  0  0  0  0
  3 14  2  0  0  0  0
  4 15  2  0  0  0  0
  5 12  1  0  0  0  0
  5 14  1  0  0  0  0
  5 33  1  0  0  0  0
  6 13  1  0  0  0  0
  6 15  1  0  0  0  0
  6 34  1  0  0  0  0
  7 22  2  0  0  0  0
  7 23  1  0  0  0  0
  8 10  1  0  0  0  0
  8 12  2  0  0  0  0
  8 16  1  0  0  0  0
  9 11  1  0  0  0  0
  9 13  2  0  0  0  0
  9 17  1  0  0  0  0
 10 14  1  0  0  0  0
 10 18  2  0  0  0  0
 11 15  1  0  0  0  0
 11 19  2  0  0  0  0
 12 20  1  0  0  0  0
 13 21  1  0  0  0  0
 16 24  2  0  0  0  0
 16 35  1  0  0  0  0
 17 25  2  0  0  0  0
 17 36  1  0  0  0  0
 18 22  1  0  0  0  0
 18 37  1  0  0  0  0
 19 23  1  0  0  0  0
 19 38  1  0  0  0  0
 20 26  2  0  0  0  0
 20 39  1  0  0  0  0
 21 27  2  0  0  0  0
 21 40  1  0  0  0  0
 22 28  1  0  0  0  0
 23 29  2  0  0  0  0
 24 26  1  0  0  0  0
 25 27  1  0  0  0  0
 26 41  1  0  0  0  0
 27 42  1  0  0  0  0
 28 30  2  0  0  0  0
 28 43  1  0  0  0  0
 29 30  1  0  0  0  0
 29 44  1  0  0  0  0
 30 45  1  0  0  0  0
 31 46  1  0  0  0  0
 31 47  1  0  0  0  0
 31 48  1  0  0  0  0
 32 49  1  0  0  0  0
 32 50  1  0  0  0  0
 32 51  1  0  0  0  0
M  END
> <PUBCHEM_COMPOUND_CID>
5473208

> <PUBCHEM_CONFORMER_RMSD>
0.8

> <PUBCHEM_CONFORMER_DIVERSEORDER>
1
2

> <PUBCHEM_MMFF94_PARTIAL_CHARGES>
45
1 -0.36
10 -0.01
11 -0.01
12 0.12
13 0.12
14 0.62
15 0.62
16 -0.15
17 -0.15
18 -0.18
19 -0.18
2 -0.36
20 -0.15
21 -0.15
22 0.34
23 0.34
24 0.08
25 0.08
26 -0.15
27 -0.15
28 -0.15
29 -0.15
3 -0.57
30 -0.15
31 0.28
32 0.28
33 0.37
34 0.37
35 0.15
36 0.15
37 0.15
38 0.15
39 0.15
4 -0.57
40 0.15
41 0.15
42 0.15
43 0.15
44 0.15
45 0.15
5 -0.55
6 -0.55
7 -0.62
8 0.03
9 0.03

> <PUBCHEM_EFFECTIVE_ROTOR_COUNT>
4.4

> <PUBCHEM_PHARMACOPHORE_FEATURES>
12
1 1 acceptor
1 2 acceptor
1 3 acceptor
1 4 acceptor
1 5 donor
1 6 donor
1 7 acceptor
5 5 8 10 12 14 rings
5 6 9 11 13 15 rings
6 7 22 23 28 29 30 rings
6 8 12 16 20 24 26 rings
6 9 13 17 21 25 27 rings

> <PUBCHEM_HEAVY_ATOM_COUNT>
32

> <PUBCHEM_ATOM_DEF_STEREO_COUNT>
0

> <PUBCHEM_ATOM_UDEF_STEREO_COUNT>
0

> <PUBCHEM_BOND_DEF_STEREO_COUNT>
2

> <PUBCHEM_BOND_UDEF_STEREO_COUNT>
0

> <PUBCHEM_ISOTOPIC_ATOM_COUNT>
0

> <PUBCHEM_COMPONENT_COUNT>
1

> <PUBCHEM_CACTVS_TAUTO_COUNT>
7

> <PUBCHEM_CONFORMER_ID>
005383B800000001

> <PUBCHEM_MMFF94_ENERGY>
135.7117

> <PUBCHEM_FEATURE_SELFOVERLAP>
61.078

> <PUBCHEM_SHAPE_FINGERPRINT>
10319926 262 18334022700571946635
10764073 3 18194401095668766902
11370993 144 18412260640494592341
11991303 11 13553403223086089295
12128747 34 18410575041713405981
12553582 1 15719382979688121610
12717326 135 16880182305358018973
12892183 10 18194401323296751686
13009979 54 17313959639909403029
13583140 156 18272650194317360749
14420673 8 18187929430611095914
150020 26 18342735273217641808
15348495 7 18410574023811432115
15361156 5 18261961850616765414
17349148 13 16272214063190325831
17818456 19 18040726882867003215
1813 80 16443344307848032310
19301679 30 17900275388043057867
19304152 47 17408786070474448280
20429552 37 18341895156323927478
20511986 3 16916768717891097322
20567600 75 18340487763985971399
21033648 29 18272356581921548601
21279426 13 18122343480150727463
21315764 268 18411978100630178345
21792938 324 16334449496894045451
21792965 131 17774705559756096479
21859007 373 18041834001140719845
22122407 14 17489314087549307353
23559900 14 18336563658526111614
3737641 26 16806151169225368874
394071 54 17417817201872011070
508706 21 18187644661720860727
552612 73 18335137618459001348
563151 74 17845918719898754416
6371380 46 18336260129135142842
77296 10 18131344246162241911
9995097 60 18413670205742862442

> <PUBCHEM_SHAPE_MULTIPOLES>
620.12
14.49
3.87
1.92
0.18
0.01
0.96
0.03
-6.4
0
-0.55
-0.02
0
4.28

> <PUBCHEM_SHAPE_SELFOVERLAP>
1392.955

> <PUBCHEM_SHAPE_VOLUME>
328.9

> <PUBCHEM_COORDINATE_TYPE>
2
5
10

$$$$
