4779986
  -OEChem-01171809493D

 44 47  0     0  0  0  0  0  0999 V2000
    3.4852   -2.5431    0.7318 O   0  0  0  0  0  0  0  0  0  0  0  0
   -1.7605   -0.6967   -0.7235 O   0  0  0  0  0  0  0  0  0  0  0  0
   -4.6954    0.7683    2.0477 O   0  0  0  0  0  0  0  0  0  0  0  0
   -3.9801   -0.4953   -2.0147 O   0  0  0  0  0  0  0  0  0  0  0  0
   -0.3671   -0.5229    1.1062 O   0  0  0  0  0  0  0  0  0  0  0  0
   -5.2511    0.2719   -0.2209 N   0  0  0  0  0  0  0  0  0  0  0  0
    4.7184    2.7130   -0.6200 C   0  0  0  0  0  0  0  0  0  0  0  0
    4.2827    1.3073   -0.3400 C   0  0  0  0  0  0  0  0  0  0  0  0
    6.2373    2.5986   -0.4298 C   0  0  0  0  0  0  0  0  0  0  0  0
    6.4688    1.4840    0.6000 C   0  0  0  0  0  0  0  0  0  0  0  0
    5.2786    0.6072    0.3544 C   0  0  0  0  0  0  0  0  0  0  0  0
    2.8582   -0.6074   -0.2562 C   0  0  0  0  0  0  0  0  0  0  0  0
    3.0564    0.7288   -0.6551 C   0  0  0  0  0  0  0  0  0  0  0  0
    5.1062   -0.7062    0.7715 C   0  0  0  0  0  0  0  0  0  0  0  0
    3.8744   -1.2706    0.4338 C   0  0  0  0  0  0  0  0  0  0  0  0
   -7.4038    1.1886   -0.1880 C   0  0  0  0  0  0  0  0  0  0  0  0
   -6.4949    0.2676   -0.9681 C   0  0  0  0  0  0  0  0  0  0  0  0
    1.7986   -1.5469   -0.3742 C   0  0  0  0  0  0  0  0  0  0  0  0
   -6.9641    0.9753    1.2486 C   0  0  0  0  0  0  0  0  0  0  0  0
   -5.4867    0.6855    1.1199 C   0  0  0  0  0  0  0  0  0  0  0  0
    0.4906   -1.3373   -1.0229 C   0  0  0  0  0  0  0  0  0  0  0  0
    2.2300   -2.7002    0.2384 C   0  0  0  0  0  0  0  0  0  0  0  0
   -4.0637   -0.1584   -0.8323 C   0  0  0  0  0  0  0  0  0  0  0  0
   -2.8519   -0.2048    0.0609 C   0  0  0  0  0  0  0  0  0  0  0  0
   -0.5661   -0.8061   -0.0674 C   0  0  0  0  0  0  0  0  0  0  0  0
    4.4665    3.0356   -1.6341 H   0  0  0  0  0  0  0  0  0  0  0  0
    4.2775    3.3964    0.1130 H   0  0  0  0  0  0  0  0  0  0  0  0
    6.6979    2.3071   -1.3842 H   0  0  0  0  0  0  0  0  0  0  0  0
    6.6935    3.5469   -0.1290 H   0  0  0  0  0  0  0  0  0  0  0  0
    6.4420    1.8766    1.6216 H   0  0  0  0  0  0  0  0  0  0  0  0
    7.4151    0.9659    0.4210 H   0  0  0  0  0  0  0  0  0  0  0  0
    2.2899    1.2864   -1.1824 H   0  0  0  0  0  0  0  0  0  0  0  0
    5.8637   -1.2536    1.3174 H   0  0  0  0  0  0  0  0  0  0  0  0
   -8.4645    0.9760   -0.3468 H   0  0  0  0  0  0  0  0  0  0  0  0
   -7.2185    2.2300   -0.4789 H   0  0  0  0  0  0  0  0  0  0  0  0
   -6.8740   -0.7607   -0.9819 H   0  0  0  0  0  0  0  0  0  0  0  0
   -6.3406    0.5982   -1.9997 H   0  0  0  0  0  0  0  0  0  0  0  0
   -7.4554    0.1059    1.6966 H   0  0  0  0  0  0  0  0  0  0  0  0
   -7.1374    1.8620    1.8632 H   0  0  0  0  0  0  0  0  0  0  0  0
    0.5874   -0.6254   -1.8507 H   0  0  0  0  0  0  0  0  0  0  0  0
    0.1259   -2.2865   -1.4338 H   0  0  0  0  0  0  0  0  0  0  0  0
    1.7853   -3.6713    0.4012 H   0  0  0  0  0  0  0  0  0  0  0  0
   -3.0378   -0.8905    0.8937 H   0  0  0  0  0  0  0  0  0  0  0  0
   -2.6216    0.8052    0.4147 H   0  0  0  0  0  0  0  0  0  0  0  0
  1 15  1  0  0  0  0
  1 22  1  0  0  0  0
  2 24  1  0  0  0  0
  2 25  1  0  0  0  0
  3 20  2  0  0  0  0
  4 23  2  0  0  0  0
  5 25  2  0  0  0  0
  6 17  1  0  0  0  0
  6 20  1  0  0  0  0
  6 23  1  0  0  0  0
  7  8  1  0  0  0  0
  7  9  1  0  0  0  0
  7 26  1  0  0  0  0
  7 27  1  0  0  0  0
  8 11  1  0  0  0  0
  8 13  2  0  0  0  0
  9 10  1  0  0  0  0
  9 28  1  0  0  0  0
  9 29  1  0  0  0  0
 10 11  1  0  0  0  0
 10 30  1  0  0  0  0
 10 31  1  0  0  0  0
 11 14  2  0  0  0  0
 12 13  1  0  0  0  0
 12 15  2  0  0  0  0
 12 18  1  0  0  0  0
 13 32  1  0  0  0  0
 14 15  1  0  0  0  0
 14 33  1  0  0  0  0
 16 17  1  0  0  0  0
 16 19  1  0  0  0  0
 16 34  1  0  0  0  0
 16 35  1  0  0  0  0
 17 36  1  0  0  0  0
 17 37  1  0  0  0  0
 18 21  1  0  0  0  0
 18 22  2  0  0  0  0
 19 20  1  0  0  0  0
 19 38  1  0  0  0  0
 19 39  1  0  0  0  0
 21 25  1  0  0  0  0
 21 40  1  0  0  0  0
 21 41  1  0  0  0  0
 22 42  1  0  0  0  0
 23 24  1  0  0  0  0
 24 43  1  0  0  0  0
 24 44  1  0  0  0  0
M  END
> <PUBCHEM_COMPOUND_CID>
4779986

> <PUBCHEM_CONFORMER_RMSD>
1

> <PUBCHEM_CONFORMER_DIVERSEORDER>
1
134
88
136
81
59
106
256
300
250
82
154
127
292
178
167
36
264
233
282
166
98
203
183
51
110
279
89
230
191
152
47
180
286
274
84
266
277
240
42
307
197
66
209
101
201
40
145
238
130
64
196
251
151
260
58
182
149
103
291
190
280
308
142
179
234
18
241
104
150
111
124
17
113
195
76
224
283
52
217
29
57
243
160
144
293
48
90
119
94
194
6
12
255
63
157
147
173
107
254
19
304
223
102
121
271
298
259
24
83
16
181
92
226
11
155
135
285
184
20
199
15
204
257
85
161
10
261
43
276
4
218
303
96
14
54
137
244
220
188
198
91
162
141
74
13
229
5
242
158
270
3
65
117
41
299
114
53
100
34
68
148
305
265
249
281
69
185
78
278
25
72
75
73
214
61
225
205
109
120
9
193
35
171
32
93
164
236
309
294
206
28
123
227
219
132
2
212
213
116
67
231
245
108
22
207
56
71
202
33
187
80
200
45
122
290
310
49
126
258
7
263
30
23
222
133
208
177
97
267
129
287
46
228
153
297
38
295
39
79
175
174
156
55
269
232
105
125
189
210
21
273
176
143
37
237
87
239
272
216
60
70
95
288
163
215
284
268
86
165
221
31
170
252
262
246
131
50
306
302
77
99
140
138
186
275
169
44
168
172
235
26
289
8
211
112
27
192
118
247
296
248
62
301
128
139
115
253
159
146

> <PUBCHEM_MMFF94_PARTIAL_CHARGES>
25
1 -0.28
10 0.14
11 -0.14
13 -0.15
14 -0.15
15 0.14
17 0.3
18 -0.18
19 0.06
2 -0.43
20 0.57
21 0.24
22 -0.01
23 0.57
24 0.34
25 0.66
3 -0.57
32 0.15
33 0.15
4 -0.57
42 0.15
5 -0.57
6 -0.42
7 0.14
8 -0.14

> <PUBCHEM_EFFECTIVE_ROTOR_COUNT>
7.4

> <PUBCHEM_PHARMACOPHORE_FEATURES>
8
1 1 acceptor
1 3 acceptor
1 4 acceptor
1 5 acceptor
5 1 12 15 18 22 rings
5 6 16 17 19 20 rings
5 7 8 9 10 11 rings
6 8 11 12 13 14 15 rings

> <PUBCHEM_HEAVY_ATOM_COUNT>
25

> <PUBCHEM_ATOM_DEF_STEREO_COUNT>
0

> <PUBCHEM_ATOM_UDEF_STEREO_COUNT>
0

> <PUBCHEM_BOND_DEF_STEREO_COUNT>
0

> <PUBCHEM_BOND_UDEF_STEREO_COUNT>
0

> <PUBCHEM_ISOTOPIC_ATOM_COUNT>
0

> <PUBCHEM_COMPONENT_COUNT>
1

> <PUBCHEM_CACTVS_TAUTO_COUNT>
2

> <PUBCHEM_CONFORMER_ID>
0048EFD200000001

> <PUBCHEM_MMFF94_ENERGY>
41.8011

> <PUBCHEM_FEATURE_SELFOVERLAP>
40.792

> <PUBCHEM_SHAPE_FINGERPRINT>
10 15 17240483632294425068
10411042 1 17904194833859079010
10554248 39 17630597926241993765
10595046 47 18342172263656404383
10670039 82 16056610823915558985
10693767 8 10375882853001214588
10906281 52 17846509110519691663
11646440 116 17458063763490563524
12236239 1 18060134328096489407
125118 31 18338235964811063385
12596602 18 18409170991968438403
12788726 201 17489316252075882273
13167372 99 18341049614417364505
13533116 47 17968657103780659370
13685833 64 9943807793907335445
13955234 65 18115583747626630402
14251764 75 18118692247471290924
14429380 56 18335690646815799445
14461889 52 18041003989814982219
15183329 4 17346599681893798465
15188451 53 13767924650276871279
15326921 28 14130716088848778903
15348495 7 16878234150968002473
15475509 35 15864616269033682322
155225 6 17898579923875083916
17844677 252 18263645057105883935
18335252 114 18343300366913189868
19427546 62 18408040727995423642
1979834 28 17894354375870796422
20157964 124 18408603647698794902
21033648 29 17240475880411108703
21033650 10 15913343381080631283
21298829 104 18341329002662942104
21623969 137 18040437693744121097
22122407 14 18270972331173896801
23081809 10 17846771885192965151
23569914 152 11380500992308146553
255183 451 17842283562896830846
3004659 81 17131275640825478646
3178227 256 18040710343586659194
328310 630 18341894104420833157
3472631 163 18059859514745826388
394071 54 18334017194023154580
397830 11 17968107459878247995
4073 2 18187649141187822755
4340502 62 17530963579440944458
445580 126 18411692202126913520
445580 37 16774083973041877777
465052 167 8286198370434635696
5104073 3 18113617919124308762
531348 171 8862949360366055419
5364581 5 17314241136329711077
5385378 56 18407755933520072562
543368 44 18202283619868515833
5911458 16 18131359608922675257
6608658 132 17203060599113793529
7970288 3 9222971257010629980

> <PUBCHEM_SHAPE_MULTIPOLES>
480.16
20.97
2.41
1.27
24.32
0.03
0.1
-13.89
2.66
-4.98
-0.03
1.76
-0.07
-1.6

> <PUBCHEM_SHAPE_SELFOVERLAP>
1051.08

> <PUBCHEM_SHAPE_VOLUME>
263

> <PUBCHEM_COORDINATE_TYPE>
2
5
10

$$$$
