736314
  -OEChem-01171809173D

 32 35  0     0  0  0  0  0  0999 V2000
    1.6506    1.4538    0.5296 S   0  0  0  0  0  0  0  0  0  0  0  0
   -2.1257   -1.5936    0.8411 S   0  0  0  0  0  0  0  0  0  0  0  0
    0.7709    2.0270   -0.4656 O   0  0  0  0  0  0  0  0  0  0  0  0
    2.2427    2.2201    1.6044 O   0  0  0  0  0  0  0  0  0  0  0  0
    1.4161   -2.3496    1.0415 O   0  0  0  0  0  0  0  0  0  0  0  0
    0.9885   -0.0151    1.1370 N   0  0  0  0  0  0  0  0  0  0  0  0
   -2.0970    0.9816    0.7019 N   0  0  0  0  0  0  0  0  0  0  0  0
    2.9211    0.5917   -0.2936 C   0  0  0  0  0  0  0  0  0  0  0  0
    2.8298   -0.7868   -0.1023 C   0  0  0  0  0  0  0  0  0  0  0  0
   -0.2134    0.0246    1.9817 C   0  0  0  0  0  0  0  0  0  0  0  0
    1.6930   -1.2021    0.7431 C   0  0  0  0  0  0  0  0  0  0  0  0
   -1.4737   -0.0589    1.1700 C   0  0  0  0  0  0  0  0  0  0  0  0
    3.9139    1.1760   -1.0526 C   0  0  0  0  0  0  0  0  0  0  0  0
    3.7561   -1.6361   -0.6822 C   0  0  0  0  0  0  0  0  0  0  0  0
    4.8511    0.3249   -1.6400 C   0  0  0  0  0  0  0  0  0  0  0  0
    4.7733   -1.0683   -1.4568 C   0  0  0  0  0  0  0  0  0  0  0  0
   -3.4015   -0.8316   -0.0330 C   0  0  0  0  0  0  0  0  0  0  0  0
   -3.2161    0.5538    0.0024 C   0  0  0  0  0  0  0  0  0  0  0  0
   -4.4882   -1.4174   -0.7021 C   0  0  0  0  0  0  0  0  0  0  0  0
   -4.1530    1.3799   -0.6558 C   0  0  0  0  0  0  0  0  0  0  0  0
   -5.4009   -0.5773   -1.3451 C   0  0  0  0  0  0  0  0  0  0  0  0
   -5.2375    0.8033   -1.3235 C   0  0  0  0  0  0  0  0  0  0  0  0
   -0.2205    0.9574    2.5589 H   0  0  0  0  0  0  0  0  0  0  0  0
   -0.1624   -0.7784    2.7268 H   0  0  0  0  0  0  0  0  0  0  0  0
    3.9721    2.2491   -1.1925 H   0  0  0  0  0  0  0  0  0  0  0  0
    3.7056   -2.7112   -0.5478 H   0  0  0  0  0  0  0  0  0  0  0  0
    5.6513    0.7407   -2.2465 H   0  0  0  0  0  0  0  0  0  0  0  0
    5.5149   -1.7107   -1.9245 H   0  0  0  0  0  0  0  0  0  0  0  0
   -4.6223   -2.4945   -0.7232 H   0  0  0  0  0  0  0  0  0  0  0  0
   -4.0348    2.4597   -0.6454 H   0  0  0  0  0  0  0  0  0  0  0  0
   -6.2491   -1.0105   -1.8686 H   0  0  0  0  0  0  0  0  0  0  0  0
   -5.9573    1.4409   -1.8293 H   0  0  0  0  0  0  0  0  0  0  0  0
  1  3  2  0  0  0  0
  1  4  2  0  0  0  0
  1  6  1  0  0  0  0
  1  8  1  0  0  0  0
  2 12  1  0  0  0  0
  2 17  1  0  0  0  0
  5 11  2  0  0  0  0
  6 10  1  0  0  0  0
  6 11  1  0  0  0  0
  7 12  2  0  0  0  0
  7 18  1  0  0  0  0
  8  9  1  0  0  0  0
  8 13  2  0  0  0  0
  9 11  1  0  0  0  0
  9 14  2  0  0  0  0
 10 12  1  0  0  0  0
 10 23  1  0  0  0  0
 10 24  1  0  0  0  0
 13 15  1  0  0  0  0
 13 25  1  0  0  0  0
 14 16  1  0  0  0  0
 14 26  1  0  0  0  0
 15 16  2  0  0  0  0
 15 27  1  0  0  0  0
 16 28  1  0  0  0  0
 17 18  1  0  0  0  0
 17 19  2  0  0  0  0
 18 20  2  0  0  0  0
 19 21  1  0  0  0  0
 19 29  1  0  0  0  0
 20 22  1  0  0  0  0
 20 30  1  0  0  0  0
 21 22  2  0  0  0  0
 21 31  1  0  0  0  0
 22 32  1  0  0  0  0
M  END
> <PUBCHEM_COMPOUND_CID>
736314

> <PUBCHEM_CONFORMER_RMSD>
0.6

> <PUBCHEM_CONFORMER_DIVERSEORDER>
1
12
7
13
9
8
15
10
4
16
11
3
14
2
5
6

> <PUBCHEM_MMFF94_PARTIAL_CHARGES>
30
1 1.45
10 0.54
11 0.72
12 0.2
13 -0.15
14 -0.15
15 -0.15
16 -0.15
17 0.04
18 0.23
19 -0.15
2 -0.08
20 -0.15
21 -0.15
22 -0.15
25 0.15
26 0.15
27 0.15
28 0.15
29 0.15
3 -0.65
30 0.15
31 0.15
32 0.15
4 -0.65
5 -0.57
6 -0.73
7 -0.57
8 -0.01
9 0.09

> <PUBCHEM_EFFECTIVE_ROTOR_COUNT>
2.2

> <PUBCHEM_PHARMACOPHORE_FEATURES>
8
1 3 acceptor
1 4 acceptor
1 5 acceptor
1 7 acceptor
5 1 6 8 9 11 rings
5 2 7 12 17 18 rings
6 17 18 19 20 21 22 rings
6 8 9 13 14 15 16 rings

> <PUBCHEM_HEAVY_ATOM_COUNT>
22

> <PUBCHEM_ATOM_DEF_STEREO_COUNT>
0

> <PUBCHEM_ATOM_UDEF_STEREO_COUNT>
0

> <PUBCHEM_BOND_DEF_STEREO_COUNT>
0

> <PUBCHEM_BOND_UDEF_STEREO_COUNT>
0

> <PUBCHEM_ISOTOPIC_ATOM_COUNT>
0

> <PUBCHEM_COMPONENT_COUNT>
1

> <PUBCHEM_CACTVS_TAUTO_COUNT>
1

> <PUBCHEM_CONFORMER_ID>
000B3C3A00000001

> <PUBCHEM_MMFF94_ENERGY>
42.9893

> <PUBCHEM_FEATURE_SELFOVERLAP>
40.754

> <PUBCHEM_SHAPE_FINGERPRINT>
10498660 4 17167861976149087309
10670039 82 17240479161286250509
11796584 16 16558753382185055917
11961588 58 17313105310151709598
12363563 72 15913330203994028635
12596602 18 8430311333648926039
12670546 177 18409450267241170927
12730499 353 17603595097184362011
12788726 201 17985834726876105465
12892183 10 10303815345861814070
13103583 49 11383844765675587119
13675066 3 8574440832861721107
1420 369 15051734187770013095
14341114 328 8286189570183887159
14576447 43 17988932158642453598
14848178 5 16558753373447564886
15183329 4 18340487777308729557
15188451 53 12247384710479382565
15209294 21 11674884419668601642
15210252 30 17385727993274780132
15475509 84 11748027215057436950
16752209 62 17632292324968115739
17349148 13 15913334610530182749
1813 80 14620794929153267587
18186145 218 18408597063925231225
18608769 82 17823147868621526691
193927 3 16487262075068585439
19784866 240 16487258768276161215
19862831 5 18412267228847791587
200 152 17418379090588338019
20645477 70 17917990624192640825
20739085 24 9943808889731034250
20775438 99 17127013036282153551
20871999 31 18410578362071298441
21637258 2 16558754460570084862
21756936 100 11459867216382592698
221357 26 18411981369142079277
22182313 1 18120099630411308154
22393880 68 18410007766844319543
231179 274 15647057070680176564
23402655 69 18259987041680640925
23557571 272 17750802245275823707
23559900 14 18272642489457638593
2838139 119 16298108717829518374
2871803 45 18408887330283395124
3009799 131 18041001705430281274
3060560 45 18410005555173532378
312423 11 16702029715840241377
3472631 163 15864072100339411799
4028521 119 17603589629485031471
46194498 28 17898589814482139005
463206 1 16845564336239293823
474 4 16515688861688914271
5281201 14 18412823620744938737
57724786 102 14707196670208922685
5924683 9 8646472008999436009
59682541 52 18340195307173524119
633830 44 16806158840442919963
7064713 232 8718820998929345749
7808743 9 15430043183572062823
7970288 3 16415481553766416319
960060 61 18409732850430064436
9709674 26 18267296711399887027

> <PUBCHEM_SHAPE_MULTIPOLES>
432.88
11.6
2.04
1.65
5.44
0.02
0.17
0.42
-8.26
-0.65
0.26
-0.38
-0.09
0.49

> <PUBCHEM_SHAPE_SELFOVERLAP>
939.508

> <PUBCHEM_SHAPE_VOLUME>
237.8

> <PUBCHEM_COORDINATE_TYPE>
2
5
10

$$$$
