1991339
  -OEChem-01171810043D

 48 50  0     0  0  0  0  0  0999 V2000
    0.1967    2.3181    0.7106 O   0  0  0  0  0  0  0  0  0  0  0  0
   -4.2751    1.1506   -1.3150 O   0  0  0  0  0  0  0  0  0  0  0  0
    0.8494    0.6344   -0.6145 N   0  0  0  0  0  0  0  0  0  0  0  0
    1.5537    2.1087    0.9868 N   0  0  0  0  0  0  0  0  0  0  0  0
   -4.6603   -0.3719    0.4314 N   0  0  0  0  0  0  0  0  0  0  0  0
   -8.1046   -0.2966   -0.8593 N   0  0  0  0  0  0  0  0  0  0  0  0
    7.1160   -1.1444   -0.0890 C   0  0  0  0  0  0  0  0  0  0  0  0
    5.7038   -0.5399   -0.0206 C   0  0  0  0  0  0  0  0  0  0  0  0
    7.2533   -2.2988   -1.1072 C   0  0  0  0  0  0  0  0  0  0  0  0
    8.1291   -0.0531   -0.4978 C   0  0  0  0  0  0  0  0  0  0  0  0
    7.5073   -1.7077    1.2943 C   0  0  0  0  0  0  0  0  0  0  0  0
    5.4795    0.4933    0.8541 C   0  0  0  0  0  0  0  0  0  0  0  0
    4.7322   -1.0617   -0.8370 C   0  0  0  0  0  0  0  0  0  0  0  0
    3.1840    0.5377    0.1023 C   0  0  0  0  0  0  0  0  0  0  0  0
    4.1983    1.0412    0.9166 C   0  0  0  0  0  0  0  0  0  0  0  0
    3.4510   -0.5139   -0.7746 C   0  0  0  0  0  0  0  0  0  0  0  0
    1.8652    1.1016    0.1665 C   0  0  0  0  0  0  0  0  0  0  0  0
   -1.5321    1.4284   -0.7053 C   0  0  0  0  0  0  0  0  0  0  0  0
   -0.1382    1.4088   -0.2421 C   0  0  0  0  0  0  0  0  0  0  0  0
   -2.4511    0.5026    0.1195 C   0  0  0  0  0  0  0  0  0  0  0  0
   -3.8964    0.4822   -0.3588 C   0  0  0  0  0  0  0  0  0  0  0  0
   -6.0402   -0.6593    0.3063 C   0  0  0  0  0  0  0  0  0  0  0  0
   -6.6486   -1.5363    1.1795 C   0  0  0  0  0  0  0  0  0  0  0  0
   -6.7838   -0.0663   -0.6854 C   0  0  0  0  0  0  0  0  0  0  0  0
   -8.0062   -1.7987    1.0325 C   0  0  0  0  0  0  0  0  0  0  0  0
   -8.6829   -1.1590    0.0065 C   0  0  0  0  0  0  0  0  0  0  0  0
    8.2781   -2.6908   -1.1143 H   0  0  0  0  0  0  0  0  0  0  0  0
    6.5983   -3.1431   -0.8617 H   0  0  0  0  0  0  0  0  0  0  0  0
    7.0375   -1.9712   -2.1311 H   0  0  0  0  0  0  0  0  0  0  0  0
    8.1900    0.7575    0.2365 H   0  0  0  0  0  0  0  0  0  0  0  0
    9.1387   -0.4693   -0.5960 H   0  0  0  0  0  0  0  0  0  0  0  0
    7.8590    0.3951   -1.4615 H   0  0  0  0  0  0  0  0  0  0  0  0
    6.7860   -2.4614    1.6320 H   0  0  0  0  0  0  0  0  0  0  0  0
    7.5555   -0.9300    2.0643 H   0  0  0  0  0  0  0  0  0  0  0  0
    8.4945   -2.1836    1.2614 H   0  0  0  0  0  0  0  0  0  0  0  0
    6.2527    0.9004    1.4966 H   0  0  0  0  0  0  0  0  0  0  0  0
    4.8836   -1.8755   -1.5345 H   0  0  0  0  0  0  0  0  0  0  0  0
    4.0276    1.8595    1.6118 H   0  0  0  0  0  0  0  0  0  0  0  0
    2.6814   -0.9277   -1.4216 H   0  0  0  0  0  0  0  0  0  0  0  0
   -1.5646    1.1235   -1.7585 H   0  0  0  0  0  0  0  0  0  0  0  0
   -1.9231    2.4528   -0.6729 H   0  0  0  0  0  0  0  0  0  0  0  0
   -2.0652   -0.5243    0.0830 H   0  0  0  0  0  0  0  0  0  0  0  0
   -2.4421    0.8188    1.1704 H   0  0  0  0  0  0  0  0  0  0  0  0
   -4.1872   -0.8545    1.1926 H   0  0  0  0  0  0  0  0  0  0  0  0
   -6.0909   -2.0224    1.9747 H   0  0  0  0  0  0  0  0  0  0  0  0
   -6.4033    0.6312   -1.4160 H   0  0  0  0  0  0  0  0  0  0  0  0
   -8.5184   -2.4821    1.6999 H   0  0  0  0  0  0  0  0  0  0  0  0
   -9.7428   -1.3296   -0.1506 H   0  0  0  0  0  0  0  0  0  0  0  0
  1  4  1  0  0  0  0
  1 19  1  0  0  0  0
  2 21  2  0  0  0  0
  3 17  1  0  0  0  0
  3 19  2  0  0  0  0
  4 17  2  0  0  0  0
  5 21  1  0  0  0  0
  5 22  1  0  0  0  0
  5 44  1  0  0  0  0
  6 24  1  0  0  0  0
  6 26  2  0  0  0  0
  7  8  1  0  0  0  0
  7  9  1  0  0  0  0
  7 10  1  0  0  0  0
  7 11  1  0  0  0  0
  8 12  2  0  0  0  0
  8 13  1  0  0  0  0
  9 27  1  0  0  0  0
  9 28  1  0  0  0  0
  9 29  1  0  0  0  0
 10 30  1  0  0  0  0
 10 31  1  0  0  0  0
 10 32  1  0  0  0  0
 11 33  1  0  0  0  0
 11 34  1  0  0  0  0
 11 35  1  0  0  0  0
 12 15  1  0  0  0  0
 12 36  1  0  0  0  0
 13 16  2  0  0  0  0
 13 37  1  0  0  0  0
 14 15  2  0  0  0  0
 14 16  1  0  0  0  0
 14 17  1  0  0  0  0
 15 38  1  0  0  0  0
 16 39  1  0  0  0  0
 18 19  1  0  0  0  0
 18 20  1  0  0  0  0
 18 40  1  0  0  0  0
 18 41  1  0  0  0  0
 20 21  1  0  0  0  0
 20 42  1  0  0  0  0
 20 43  1  0  0  0  0
 22 23  1  0  0  0  0
 22 24  2  0  0  0  0
 23 25  2  0  0  0  0
 23 45  1  0  0  0  0
 24 46  1  0  0  0  0
 25 26  1  0  0  0  0
 25 47  1  0  0  0  0
 26 48  1  0  0  0  0
M  END
> <PUBCHEM_COMPOUND_CID>
1991339

> <PUBCHEM_CONFORMER_RMSD>
0.8

> <PUBCHEM_CONFORMER_DIVERSEORDER>
1
74
37
57
14
89
20
38
52
30
84
21
73
80
39
99
103
25
34
54
46
104
9
63
33
48
7
65
19
72
62
90
60
93
12
87
66
31
45
81
26
16
83
15
13
4
85
5
75
77
55
58
102
91
8
59
47
43
2
35
28
40
78
11
3
71
29
32
97
92
64
23
42
69
36
17
98
79
41
82
70
94
76
88
6
61
51
56
86
68
10
24
18
53
101
49
27
67
96
100
22
95
50
44

> <PUBCHEM_MMFF94_PARTIAL_CHARGES>
32
1 -0.02
12 -0.15
13 -0.15
14 0.05
15 -0.15
16 -0.15
17 0.46
18 0.18
19 0.3
2 -0.57
20 0.06
21 0.57
22 0.12
23 -0.15
24 0.16
25 -0.15
26 0.16
3 -0.57
36 0.15
37 0.15
38 0.15
39 0.15
4 -0.41
44 0.37
45 0.15
46 0.15
47 0.15
48 0.15
5 -0.55
6 -0.62
7 0.14
8 -0.14

> <PUBCHEM_EFFECTIVE_ROTOR_COUNT>
7

> <PUBCHEM_PHARMACOPHORE_FEATURES>
8
1 2 acceptor
1 5 donor
1 6 acceptor
3 3 4 17 cation
4 7 9 10 11 hydrophobe
5 1 3 4 17 19 rings
6 6 22 23 24 25 26 rings
6 8 12 13 14 15 16 rings

> <PUBCHEM_HEAVY_ATOM_COUNT>
26

> <PUBCHEM_ATOM_DEF_STEREO_COUNT>
0

> <PUBCHEM_ATOM_UDEF_STEREO_COUNT>
0

> <PUBCHEM_BOND_DEF_STEREO_COUNT>
0

> <PUBCHEM_BOND_UDEF_STEREO_COUNT>
0

> <PUBCHEM_ISOTOPIC_ATOM_COUNT>
0

> <PUBCHEM_COMPONENT_COUNT>
1

> <PUBCHEM_CACTVS_TAUTO_COUNT>
6

> <PUBCHEM_CONFORMER_ID>
001E62AB00000001

> <PUBCHEM_MMFF94_ENERGY>
70.7751

> <PUBCHEM_FEATURE_SELFOVERLAP>
40.596

> <PUBCHEM_SHAPE_FINGERPRINT>
10 15 11959732664294890367
106641 1 17275100639809805008
11408170 108 18201441372840829103
11409948 41 14924489855515365320
125118 31 11312049964007870010
13150687 139 13190339041765193288
13540713 5 16413206784441783837
13668630 136 18260266356552415945
13673619 4 18410009935892819093
13685833 64 18412826893103797457
13885169 127 18410292476717601933
14178184 131 18269557303202577095
14216079 64 18411981351566733474
14251764 18 17346599685608217800
14294032 229 16806435904705243549
14344974 52 9007054653079763467
14428016 86 8502660311321966188
14598715 104 11167949013769907363
14729087 3 11095887060270971699
15183329 4 15719391724473690097
15352257 5 18408323284955473403
15419008 91 18115566249940558949
15510794 2 18335696148162639201
15510800 12 18338811047445819662
15690457 1 18131629002488379759
15706992 2 13038900080072762482
1577012 14 14635141288237745789
17134984 74 18040996216451742338
1754911 235 12324238378469397899
1768 4 8790884112612081743
1818759 1 18409736157634327987
18335252 98 18413108360550792140
18643901 69 17894914019063162527
19301679 30 17346047649826111276
2026 5 18334854978950333747
20281389 69 11743846858757761061
20721686 124 12396292648287510064
21049683 271 18411703210419087620
21095123 293 12247671699946526146
21150785 3 15864069875187318300
21267235 1 18202847634984467164
21521239 73 16443344231408831754
21623969 137 18202004317422570943
22149856 69 17703518697121618032
22224240 67 16056876931420169734
23389318 12 18261403269214666436
23576562 1 13840848685300512263
246663 6 18410857663446391158
3004659 81 17313103085780844885
3178227 256 17989204850463693942
33532 11 18413106160441132599
3383291 50 18341895199358529235
4107672 100 17168135699385198981
437795 83 11098120181494414039
439807 62 18186518782708943498
504579 68 15285358418429385655
5104073 3 17201634438770988346
5283384 27 9223231836611885427
54039377 194 18342462517598860070
5470011 282 17675927612205507342
58083652 198 16988264431053780817
58260988 393 15195294084167725218
5937810 71 11242233153657230751
59682541 35 18201997746660522154
59682541 52 14056996076031366368
59755656 215 18040994051608669051
6009941 240 18270399370221706017
6058803 2 16053193722350563725
636775 72 11167676374052952499
636775 8 18336273379362419942
9962374 69 18130496543955193877
9995097 26 17968101944644146340
999808 66 18411419514516062447

> <PUBCHEM_SHAPE_MULTIPOLES>
503.41
30.22
2.01
1.13
25.12
0.04
0.06
21.53
0.58
-0.82
0.29
-0.26
0.16
2.02

> <PUBCHEM_SHAPE_SELFOVERLAP>
1078.98

> <PUBCHEM_SHAPE_VOLUME>
278.4

> <PUBCHEM_COORDINATE_TYPE>
2
5
10

$$$$
