16023006
  -OEChem-01171810043D

 68 72  0     0  0  0  0  0  0999 V2000
    3.6346   -2.1762    1.4714 O   0  0  0  0  0  0  0  0  0  0  0  0
   -2.4571    5.7248   -0.1094 O   0  0  0  0  0  0  0  0  0  0  0  0
    0.2844   -2.9947   -0.3847 N   0  0  0  0  0  0  0  0  0  0  0  0
    4.5195   -1.1142   -0.4016 N   0  0  0  0  0  0  0  0  0  0  0  0
   -1.8603   -4.1141   -0.1039 N   0  0  0  0  0  0  0  0  0  0  0  0
   -2.6380    0.1944   -0.0381 N   0  0  0  0  0  0  0  0  0  0  0  0
   -1.4928   -0.5034   -0.1779 N   0  0  0  0  0  0  0  0  0  0  0  0
   -3.3115   -4.1338    0.0802 N   0  0  0  0  0  0  0  0  0  0  0  0
    3.1703   -3.0728   -0.6933 C   0  0  0  0  0  0  0  0  0  0  0  0
    2.2690   -2.3721   -1.7076 C   0  0  0  0  0  0  0  0  0  0  0  0
    2.4087   -4.1526    0.0729 C   0  0  0  0  0  0  0  0  0  0  0  0
    0.9358   -1.9063   -1.1188 C   0  0  0  0  0  0  0  0  0  0  0  0
    1.0887   -3.6480    0.6552 C   0  0  0  0  0  0  0  0  0  0  0  0
    3.7939   -2.0924    0.2565 C   0  0  0  0  0  0  0  0  0  0  0  0
   -1.1041   -2.9737   -0.2084 C   0  0  0  0  0  0  0  0  0  0  0  0
   -1.8713   -1.7918   -0.1202 C   0  0  0  0  0  0  0  0  0  0  0  0
   -3.3006   -1.8545    0.0614 C   0  0  0  0  0  0  0  0  0  0  0  0
   -3.7593   -0.5700    0.1095 C   0  0  0  0  0  0  0  0  0  0  0  0
    5.1992   -0.0386    0.2837 C   0  0  0  0  0  0  0  0  0  0  0  0
   -4.0661   -3.0058    0.1671 C   0  0  0  0  0  0  0  0  0  0  0  0
    4.3079    1.1521    0.4995 C   0  0  0  0  0  0  0  0  0  0  0  0
   -5.1095    0.0056    0.2773 C   0  0  0  0  0  0  0  0  0  0  0  0
   -2.5925    1.5894   -0.0560 C   0  0  0  0  0  0  0  0  0  0  0  0
   -5.5331   -3.1319    0.3524 C   0  0  0  0  0  0  0  0  0  0  0  0
    4.2355    2.1639   -0.4507 C   0  0  0  0  0  0  0  0  0  0  0  0
    3.5579    1.2213    1.6680 C   0  0  0  0  0  0  0  0  0  0  0  0
   -3.5323    2.3143    0.6643 C   0  0  0  0  0  0  0  0  0  0  0  0
   -1.6081    2.2326   -0.7943 C   0  0  0  0  0  0  0  0  0  0  0  0
    3.4017    3.2601   -0.2297 C   0  0  0  0  0  0  0  0  0  0  0  0
    5.0352    2.1039   -1.7105 C   0  0  0  0  0  0  0  0  0  0  0  0
    2.7239    2.3175    1.8892 C   0  0  0  0  0  0  0  0  0  0  0  0
   -3.4868    3.7084    0.6460 C   0  0  0  0  0  0  0  0  0  0  0  0
   -1.5626    3.6266   -0.8126 C   0  0  0  0  0  0  0  0  0  0  0  0
    2.6460    3.3368    0.9403 C   0  0  0  0  0  0  0  0  0  0  0  0
   -2.5020    4.3645   -0.0924 C   0  0  0  0  0  0  0  0  0  0  0  0
   -1.4240    6.3306   -0.8850 C   0  0  0  0  0  0  0  0  0  0  0  0
    3.9988   -3.5539   -1.2308 H   0  0  0  0  0  0  0  0  0  0  0  0
    2.7551   -1.5242   -2.2006 H   0  0  0  0  0  0  0  0  0  0  0  0
    2.0479   -3.0926   -2.5076 H   0  0  0  0  0  0  0  0  0  0  0  0
    2.1875   -4.9741   -0.6217 H   0  0  0  0  0  0  0  0  0  0  0  0
    3.0235   -4.5830    0.8726 H   0  0  0  0  0  0  0  0  0  0  0  0
    0.3084   -1.5655   -1.9517 H   0  0  0  0  0  0  0  0  0  0  0  0
    1.1114   -1.0544   -0.4506 H   0  0  0  0  0  0  0  0  0  0  0  0
    1.2522   -2.9484    1.4823 H   0  0  0  0  0  0  0  0  0  0  0  0
    0.5537   -4.5103    1.0728 H   0  0  0  0  0  0  0  0  0  0  0  0
    4.6358   -1.1647   -1.4086 H   0  0  0  0  0  0  0  0  0  0  0  0
    5.5605   -0.4113    1.2506 H   0  0  0  0  0  0  0  0  0  0  0  0
    6.0972    0.2118   -0.2893 H   0  0  0  0  0  0  0  0  0  0  0  0
   -5.8709   -0.6648   -0.1284 H   0  0  0  0  0  0  0  0  0  0  0  0
   -5.2806    0.9157   -0.3039 H   0  0  0  0  0  0  0  0  0  0  0  0
   -5.3618    0.1490    1.3323 H   0  0  0  0  0  0  0  0  0  0  0  0
   -5.8031   -4.1766    0.5420 H   0  0  0  0  0  0  0  0  0  0  0  0
   -6.0640   -2.8175   -0.5504 H   0  0  0  0  0  0  0  0  0  0  0  0
   -5.8739   -2.5505    1.2137 H   0  0  0  0  0  0  0  0  0  0  0  0
    3.6104    0.4377    2.4183 H   0  0  0  0  0  0  0  0  0  0  0  0
   -4.2325    1.8855    1.3678 H   0  0  0  0  0  0  0  0  0  0  0  0
   -0.8691    1.6851   -1.3738 H   0  0  0  0  0  0  0  0  0  0  0  0
    3.3286    4.0632   -0.9583 H   0  0  0  0  0  0  0  0  0  0  0  0
    4.8458    1.1721   -2.2528 H   0  0  0  0  0  0  0  0  0  0  0  0
    6.1043    2.1936   -1.4928 H   0  0  0  0  0  0  0  0  0  0  0  0
    4.7742    2.9218   -2.3916 H   0  0  0  0  0  0  0  0  0  0  0  0
    2.1353    2.3774    2.8000 H   0  0  0  0  0  0  0  0  0  0  0  0
   -4.2020    4.2788    1.2326 H   0  0  0  0  0  0  0  0  0  0  0  0
   -0.7725    4.0717   -1.4077 H   0  0  0  0  0  0  0  0  0  0  0  0
    1.9956    4.1896    1.1118 H   0  0  0  0  0  0  0  0  0  0  0  0
   -1.5379    7.4150   -0.7844 H   0  0  0  0  0  0  0  0  0  0  0  0
   -0.4305    6.0765   -0.5002 H   0  0  0  0  0  0  0  0  0  0  0  0
   -1.5295    6.0954   -1.9495 H   0  0  0  0  0  0  0  0  0  0  0  0
  1 14  2  0  0  0  0
  2 35  1  0  0  0  0
  2 36  1  0  0  0  0
  3 12  1  0  0  0  0
  3 13  1  0  0  0  0
  3 15  1  0  0  0  0
  4 14  1  0  0  0  0
  4 19  1  0  0  0  0
  4 46  1  0  0  0  0
  5  8  1  0  0  0  0
  5 15  2  0  0  0  0
  6  7  1  0  0  0  0
  6 18  1  0  0  0  0
  6 23  1  0  0  0  0
  7 16  2  0  0  0  0
  8 20  2  0  0  0  0
  9 10  1  0  0  0  0
  9 11  1  0  0  0  0
  9 14  1  0  0  0  0
  9 37  1  0  0  0  0
 10 12  1  0  0  0  0
 10 38  1  0  0  0  0
 10 39  1  0  0  0  0
 11 13  1  0  0  0  0
 11 40  1  0  0  0  0
 11 41  1  0  0  0  0
 12 42  1  0  0  0  0
 12 43  1  0  0  0  0
 13 44  1  0  0  0  0
 13 45  1  0  0  0  0
 15 16  1  0  0  0  0
 16 17  1  0  0  0  0
 17 18  2  0  0  0  0
 17 20  1  0  0  0  0
 18 22  1  0  0  0  0
 19 21  1  0  0  0  0
 19 47  1  0  0  0  0
 19 48  1  0  0  0  0
 20 24  1  0  0  0  0
 21 25  1  0  0  0  0
 21 26  2  0  0  0  0
 22 49  1  0  0  0  0
 22 50  1  0  0  0  0
 22 51  1  0  0  0  0
 23 27  2  0  0  0  0
 23 28  1  0  0  0  0
 24 52  1  0  0  0  0
 24 53  1  0  0  0  0
 24 54  1  0  0  0  0
 25 29  2  0  0  0  0
 25 30  1  0  0  0  0
 26 31  1  0  0  0  0
 26 55  1  0  0  0  0
 27 32  1  0  0  0  0
 27 56  1  0  0  0  0
 28 33  2  0  0  0  0
 28 57  1  0  0  0  0
 29 34  1  0  0  0  0
 29 58  1  0  0  0  0
 30 59  1  0  0  0  0
 30 60  1  0  0  0  0
 30 61  1  0  0  0  0
 31 34  2  0  0  0  0
 31 62  1  0  0  0  0
 32 35  2  0  0  0  0
 32 63  1  0  0  0  0
 33 35  1  0  0  0  0
 33 64  1  0  0  0  0
 34 65  1  0  0  0  0
 36 66  1  0  0  0  0
 36 67  1  0  0  0  0
 36 68  1  0  0  0  0
M  END
> <PUBCHEM_COMPOUND_CID>
16023006

> <PUBCHEM_CONFORMER_RMSD>
1

> <PUBCHEM_CONFORMER_DIVERSEORDER>
6
152
126
217
95
123
63
205
244
158
41
271
337
266
184
78
292
154
125
112
291
375
280
261
222
211
190
274
59
127
248
399
307
304
288
286
252
212
315
348
225
387
35
26
251
159
331
128
73
144
203
129
70
204
313
69
346
195
226
369
234
45
197
155
25
319
221
74
364
397
175
86
356
177
104
273
171
40
391
355
138
191
165
232
317
361
230
71
398
56
257
308
377
28
82
368
302
157
162
122
376
323
169
188
218
395
34
67
343
108
167
88
120
189
349
133
193
365
293
145
250
243
33
316
318
181
321
208
242
282
22
360
367
5
259
151
269
312
245
262
110
228
358
202
301
81
216
27
15
65
386
200
378
131
215
31
253
370
117
314
214
83
258
85
380
300
92
240
101
77
156
310
320
347
339
187
79
363
173
241
327
160
7
385
180
263
58
68
239
192
137
60
84
330
311
16
342
199
237
30
329
345
116
270
338
102
111
284
196
75
371
98
389
135
186
264
247
334
354
164
227
219
256
325
118
233
119
372
352
194
48
289
279
235
4
146
238
260
183
91
36
9
24
93
148
336
276
153
114
362
297
87
136
383
213
396
224
229
150
89
294
392
366
32
174
3
373
170
198
61
306
163
287
324
140
47
109
236
55
142
353
322
57
223
209
147
143
374
37
384
18
172
246
53
99
10
351
328
388
210
332
121
166
275
97
96
207
100
13
176
39
340
105
254
2
305
149
344
201
12
335
255
382
124
357
80
206
106
277
44
309
130
350
132
168
278
400
161
46
296
333
49
52
299
265
326
113
50
185
285
182
11
14
23
54
94
17
298
72
115
341
394
178
231
381
283
29
38
20
8
267
141
179
103
19
134
66
1
220
281
51
303
390
268
393
249
64
42
290
62
272
107
90
359
76
379
139
43
295
21

> <PUBCHEM_MMFF94_PARTIAL_CHARGES>
42
1 -0.57
12 0.37
13 0.37
14 0.57
15 0.41
16 0.29
18 -0.33
19 0.44
2 -0.36
20 0.17
21 -0.14
22 0.18
23 -0.02
24 0.14
25 -0.14
26 -0.15
27 -0.15
28 -0.15
29 -0.15
3 -0.84
30 0.14
31 -0.15
32 -0.15
33 -0.15
34 -0.15
35 0.08
36 0.28
4 -0.73
46 0.37
5 -0.31
55 0.15
56 0.15
57 0.15
58 0.15
6 0.59
62 0.15
63 0.15
64 0.15
65 0.15
7 -0.71
8 -0.31
9 0.06

> <PUBCHEM_EFFECTIVE_ROTOR_COUNT>
8.2

> <PUBCHEM_PHARMACOPHORE_FEATURES>
11
1 1 acceptor
1 2 acceptor
1 4 donor
1 7 acceptor
1 8 acceptor
3 3 5 15 cation
5 6 7 16 17 18 rings
6 21 25 26 29 31 34 rings
6 23 27 28 32 33 35 rings
6 3 9 10 11 12 13 rings
6 5 8 15 16 17 20 rings

> <PUBCHEM_HEAVY_ATOM_COUNT>
36

> <PUBCHEM_ATOM_DEF_STEREO_COUNT>
0

> <PUBCHEM_ATOM_UDEF_STEREO_COUNT>
0

> <PUBCHEM_BOND_DEF_STEREO_COUNT>
0

> <PUBCHEM_BOND_UDEF_STEREO_COUNT>
0

> <PUBCHEM_ISOTOPIC_ATOM_COUNT>
0

> <PUBCHEM_COMPONENT_COUNT>
1

> <PUBCHEM_CACTVS_TAUTO_COUNT>
2

> <PUBCHEM_CONFORMER_ID>
00F47DDE00000006

> <PUBCHEM_MMFF94_ENERGY>
132.9325

> <PUBCHEM_FEATURE_SELFOVERLAP>
55.961

> <PUBCHEM_SHAPE_FINGERPRINT>
10439779 11 18121767336622697482
12677640 9 18196649601733633069
12925494 130 18269270171484133065
13561361 72 18338791333619089200
1361 2 17834111231488343521
13617811 41 18194672890264055867
14394314 77 18122350348162460749
14725015 67 18340195397489403258
150020 26 18129934577670700040
15320467 1 18338517435028440204
15419008 145 18337657707957566722
15444296 121 18187918440570715794
15961568 22 18195813087853724790
16067690 210 18187642526753187875
16992727 255 18119833326409307942
19611394 137 17393613900922562274
20764821 26 18266458694366041604
23559900 14 18200880578228182846
3298306 158 18201152247540231546
4144715 1 18337392622223694690
508706 21 18341328894903099012
5109719 28 17620482303366634505
54131252 217 16680276780629766725
5776283 40 17835255811205839700
6371009 1 18266156366964256863
9961470 85 18339633448094939549

> <PUBCHEM_SHAPE_MULTIPOLES>
699.24
11.19
9.03
1.21
2.43
7.71
0.07
-1.04
1.01
-5.18
-1.08
1.42
0.42
0.62

> <PUBCHEM_SHAPE_SELFOVERLAP>
1519.696

> <PUBCHEM_SHAPE_VOLUME>
379.8

> <PUBCHEM_COORDINATE_TYPE>
2
5
10

$$$$
