2121469
  -OEChem-01171809373D

 49 52  0     0  0  0  0  0  0999 V2000
   -1.4280    2.8297    0.2730 S   0  0  0  0  0  0  0  0  0  0  0  0
   -5.0049   -1.1821    0.2545 S   0  0  0  0  0  0  0  0  0  0  0  0
   -2.6057   -1.6685    2.0648 S   0  0  0  0  0  0  0  0  0  0  0  0
    0.0035   -0.7588   -2.1932 O   0  0  0  0  0  0  0  0  0  0  0  0
   -4.0406    2.0293   -0.0648 O   0  0  0  0  0  0  0  0  0  0  0  0
   -2.3125    0.6085   -0.8166 N   0  0  0  0  0  0  0  0  0  0  0  0
   -2.7218   -2.4495   -0.3731 N   0  0  0  0  0  0  0  0  0  0  0  0
   -1.4851   -2.8604    0.0928 N   0  0  0  0  0  0  0  0  0  0  0  0
   -0.1807   -2.7837    2.0729 N   0  0  0  0  0  0  0  0  0  0  0  0
    2.4893    2.0735   -0.1500 C   0  0  0  0  0  0  0  0  0  0  0  0
    3.0489    3.4813    0.1076 C   0  0  0  0  0  0  0  0  0  0  0  0
    0.9920    2.0629   -0.1511 C   0  0  0  0  0  0  0  0  0  0  0  0
    2.3174    4.1781    1.2643 C   0  0  0  0  0  0  0  0  0  0  0  0
    0.8190    4.3524    0.9691 C   0  0  0  0  0  0  0  0  0  0  0  0
    0.2491    3.0986    0.3832 C   0  0  0  0  0  0  0  0  0  0  0  0
    0.1506    1.0250   -0.6527 C   0  0  0  0  0  0  0  0  0  0  0  0
   -1.1867    1.3139   -0.4862 C   0  0  0  0  0  0  0  0  0  0  0  0
    0.6059   -0.1989   -1.2640 C   0  0  0  0  0  0  0  0  0  0  0  0
    1.8465   -0.8759   -0.7875 C   0  0  0  0  0  0  0  0  0  0  0  0
   -3.6469    0.9967   -0.6008 C   0  0  0  0  0  0  0  0  0  0  0  0
    2.5868   -1.6077   -1.6884 C   0  0  0  0  0  0  0  0  0  0  0  0
    2.2044   -0.7439    0.5352 C   0  0  0  0  0  0  0  0  0  0  0  0
    3.7470   -2.2411   -1.2430 C   0  0  0  0  0  0  0  0  0  0  0  0
    3.3645   -1.3772    0.9807 C   0  0  0  0  0  0  0  0  0  0  0  0
    4.1358   -2.1260    0.0918 C   0  0  0  0  0  0  0  0  0  0  0  0
   -4.6406   -0.0332   -1.0944 C   0  0  0  0  0  0  0  0  0  0  0  0
    5.3768   -2.8026    0.5682 C   0  0  0  0  0  0  0  0  0  0  0  0
   -3.3863   -1.8240    0.5588 C   0  0  0  0  0  0  0  0  0  0  0  0
   -1.2977   -2.5165    1.3490 C   0  0  0  0  0  0  0  0  0  0  0  0
    2.8785    1.4886    0.6824 H   0  0  0  0  0  0  0  0  0  0  0  0
    2.9004    1.6966   -1.0917 H   0  0  0  0  0  0  0  0  0  0  0  0
    2.9439    4.0895   -0.8002 H   0  0  0  0  0  0  0  0  0  0  0  0
    4.1210    3.4175    0.3270 H   0  0  0  0  0  0  0  0  0  0  0  0
    2.7677    5.1586    1.4561 H   0  0  0  0  0  0  0  0  0  0  0  0
    2.4445    3.5835    2.1783 H   0  0  0  0  0  0  0  0  0  0  0  0
    0.6845    5.1716    0.2519 H   0  0  0  0  0  0  0  0  0  0  0  0
    0.2964    4.6300    1.8914 H   0  0  0  0  0  0  0  0  0  0  0  0
   -2.1459   -0.2807   -1.2809 H   0  0  0  0  0  0  0  0  0  0  0  0
    2.3016   -1.7015   -2.7318 H   0  0  0  0  0  0  0  0  0  0  0  0
    1.5868   -0.2350    1.2692 H   0  0  0  0  0  0  0  0  0  0  0  0
    4.3395   -2.8217   -1.9451 H   0  0  0  0  0  0  0  0  0  0  0  0
    3.6470   -1.2955    2.0270 H   0  0  0  0  0  0  0  0  0  0  0  0
   -5.5592    0.4775   -1.3992 H   0  0  0  0  0  0  0  0  0  0  0  0
   -4.2523   -0.5700   -1.9656 H   0  0  0  0  0  0  0  0  0  0  0  0
    5.8423   -2.2430    1.3866 H   0  0  0  0  0  0  0  0  0  0  0  0
    5.1422   -3.8115    0.9218 H   0  0  0  0  0  0  0  0  0  0  0  0
    6.1198   -2.8754   -0.2332 H   0  0  0  0  0  0  0  0  0  0  0  0
   -0.0871   -2.4913    3.0400 H   0  0  0  0  0  0  0  0  0  0  0  0
    0.6084   -3.2814    1.6740 H   0  0  0  0  0  0  0  0  0  0  0  0
  1 15  1  0  0  0  0
  1 17  1  0  0  0  0
  2 26  1  0  0  0  0
  2 28  1  0  0  0  0
  3 28  1  0  0  0  0
  3 29  1  0  0  0  0
  4 18  2  0  0  0  0
  5 20  2  0  0  0  0
  6 17  1  0  0  0  0
  6 20  1  0  0  0  0
  6 38  1  0  0  0  0
  7  8  1  0  0  0  0
  7 28  2  0  0  0  0
  8 29  2  0  0  0  0
  9 29  1  0  0  0  0
  9 48  1  0  0  0  0
  9 49  1  0  0  0  0
 10 11  1  0  0  0  0
 10 12  1  0  0  0  0
 10 30  1  0  0  0  0
 10 31  1  0  0  0  0
 11 13  1  0  0  0  0
 11 32  1  0  0  0  0
 11 33  1  0  0  0  0
 12 15  2  0  0  0  0
 12 16  1  0  0  0  0
 13 14  1  0  0  0  0
 13 34  1  0  0  0  0
 13 35  1  0  0  0  0
 14 15  1  0  0  0  0
 14 36  1  0  0  0  0
 14 37  1  0  0  0  0
 16 17  2  0  0  0  0
 16 18  1  0  0  0  0
 18 19  1  0  0  0  0
 19 21  2  0  0  0  0
 19 22  1  0  0  0  0
 20 26  1  0  0  0  0
 21 23  1  0  0  0  0
 21 39  1  0  0  0  0
 22 24  2  0  0  0  0
 22 40  1  0  0  0  0
 23 25  2  0  0  0  0
 23 41  1  0  0  0  0
 24 25  1  0  0  0  0
 24 42  1  0  0  0  0
 25 27  1  0  0  0  0
 26 43  1  0  0  0  0
 26 44  1  0  0  0  0
 27 45  1  0  0  0  0
 27 46  1  0  0  0  0
 27 47  1  0  0  0  0
M  END
> <PUBCHEM_COMPOUND_CID>
2121469

> <PUBCHEM_CONFORMER_RMSD>
1

> <PUBCHEM_CONFORMER_DIVERSEORDER>
1
57
106
14
16
40
27
90
45
15
28
65
10
77
53
21
83
80
79
66
102
78
13
31
8
105
32
46
30
85
104
2
61
96
23
41
89
86
12
39
22
72
18
54
3
94
58
76
37
92
93
48
17
9
59
98
50
62
36
82
91
100
71
11
81
88
47
52
97
68
5
35
19
73
44
64
24
33
38
84
75
6
99
63
25
55
29
7
42
43
101
56
103
51
26
70
4
67
49
74
69
95
34
20
87
60

> <PUBCHEM_MMFF94_PARTIAL_CHARGES>
34
1 -0.08
10 0.18
12 -0.18
14 0.18
15 -0.14
16 -0.09
17 0.1
18 0.57
19 0.09
2 -0.29
20 0.57
21 -0.15
22 -0.15
23 -0.15
24 -0.15
25 -0.14
26 0.29
27 0.14
28 0.43
29 0.46
3 -0.08
38 0.37
39 0.15
4 -0.57
40 0.15
41 0.15
42 0.15
48 0.4
49 0.4
5 -0.57
6 -0.49
7 -0.34
8 -0.34
9 -0.88

> <PUBCHEM_EFFECTIVE_ROTOR_COUNT>
7.8

> <PUBCHEM_PHARMACOPHORE_FEATURES>
10
1 4 acceptor
1 5 acceptor
1 6 donor
1 7 acceptor
1 9 donor
3 8 9 29 cation
5 1 12 15 16 17 rings
5 3 7 8 28 29 rings
6 10 11 12 13 14 15 rings
6 19 21 22 23 24 25 rings

> <PUBCHEM_HEAVY_ATOM_COUNT>
29

> <PUBCHEM_ATOM_DEF_STEREO_COUNT>
0

> <PUBCHEM_ATOM_UDEF_STEREO_COUNT>
0

> <PUBCHEM_BOND_DEF_STEREO_COUNT>
0

> <PUBCHEM_BOND_UDEF_STEREO_COUNT>
0

> <PUBCHEM_ISOTOPIC_ATOM_COUNT>
0

> <PUBCHEM_COMPONENT_COUNT>
1

> <PUBCHEM_CACTVS_TAUTO_COUNT>
8

> <PUBCHEM_CONFORMER_ID>
00205EFD00000001

> <PUBCHEM_MMFF94_ENERGY>
71.7508

> <PUBCHEM_FEATURE_SELFOVERLAP>
50.804

> <PUBCHEM_SHAPE_FINGERPRINT>
10675989 125 16389011576117373509
10906281 52 18055933007940643228
1100329 8 18267587897071372321
11578080 2 17531786014006678636
12293681 4 18196373615830219098
12422481 6 18122600989943624064
12553582 1 18197519340762657798
12633257 1 18340211782330305067
12788726 201 18193290606706351782
13140716 1 18408892819573450193
140371 6 17912650107249190756
14223421 5 18121503711160355285
14725015 67 18335979784225149259
14787075 74 18335701581744363036
14955137 171 18271237314209393936
15420108 30 17627242490999412158
15927050 60 17911793889171911140
16112460 7 18269290001432788369
16728300 4 16819079540567185570
17980427 23 17703242753356137018
20600515 1 18192441766254343604
20642791 13 17626098646635103101
20775438 99 17689696976905100895
21033648 29 17058346116654408362
22223350 30 17825412892687288331
23419403 2 18116974736839924374
23559900 14 18410003338627204396
238918 7 17762903560318650464
3178227 256 17978246963227311057
392239 28 18265330604215457914
5171179 24 18340482369839330770
56638632 33 18261388923786637572
59755656 215 18192432093750758509
6004065 56 18270102561831466679
7226269 152 18191305974789858918
81228 2 17697336017967715652
9709674 26 18337670918733669101
9896288 288 17188421464994037976

> <PUBCHEM_SHAPE_MULTIPOLES>
576.69
8.53
5.53
1.6
2.17
4.75
-0.13
-5.8
0.11
-4.1
-2.26
0.08
-0.87
1.48

> <PUBCHEM_SHAPE_SELFOVERLAP>
1216.12

> <PUBCHEM_SHAPE_VOLUME>
326

> <PUBCHEM_COORDINATE_TYPE>
2
5
10

$$$$
