5737516
  -OEChem-01171809293D

 51 53  0     0  0  0  0  0  0999 V2000
   -4.5559    1.9040   -0.0566 S   0  0  0  0  0  0  0  0  0  0  0  0
    4.1645   -1.7755   -1.4987 O   0  0  0  0  0  0  0  0  0  0  0  0
    5.6342    2.2108    0.7118 O   0  0  0  0  0  0  0  0  0  0  0  0
    6.2134   -0.0685   -0.7514 O   0  0  0  0  0  0  0  0  0  0  0  0
   -1.6831    2.0748    1.0859 O   0  0  0  0  0  0  0  0  0  0  0  0
   -2.5409    0.0657    0.4426 N   0  0  0  0  0  0  0  0  0  0  0  0
   -4.6211   -0.7510    0.1773 N   0  0  0  0  0  0  0  0  0  0  0  0
   -2.4364   -1.3252    0.4554 C   0  0  0  0  0  0  0  0  0  0  0  0
   -3.7412   -1.7902    0.2894 C   0  0  0  0  0  0  0  0  0  0  0  0
   -3.8853    0.3314    0.2713 C   0  0  0  0  0  0  0  0  0  0  0  0
   -1.3555   -2.2100    0.5927 C   0  0  0  0  0  0  0  0  0  0  0  0
   -1.4849    0.9809    0.5769 C   0  0  0  0  0  0  0  0  0  0  0  0
   -3.9948   -3.1732    0.2570 C   0  0  0  0  0  0  0  0  0  0  0  0
    2.3099    0.7810    0.3122 C   0  0  0  0  0  0  0  0  0  0  0  0
   -1.6247   -3.5829    0.5585 C   0  0  0  0  0  0  0  0  0  0  0  0
   -0.1603    0.5730    0.0895 C   0  0  0  0  0  0  0  0  0  0  0  0
   -2.9229   -4.0593    0.3933 C   0  0  0  0  0  0  0  0  0  0  0  0
    0.9184    1.0839    0.6913 C   0  0  0  0  0  0  0  0  0  0  0  0
    3.3211    1.6472    0.6952 C   0  0  0  0  0  0  0  0  0  0  0  0
    2.5795   -0.3637   -0.4198 C   0  0  0  0  0  0  0  0  0  0  0  0
    3.8967   -0.6503   -0.7787 C   0  0  0  0  0  0  0  0  0  0  0  0
    4.6381    1.3606    0.3362 C   0  0  0  0  0  0  0  0  0  0  0  0
    4.9260    0.2119   -0.4007 C   0  0  0  0  0  0  0  0  0  0  0  0
   -6.2664    1.4676   -0.4722 C   0  0  0  0  0  0  0  0  0  0  0  0
   -7.0481    2.6996   -0.7976 C   0  0  0  0  0  0  0  0  0  0  0  0
    4.4437   -2.9647   -0.7626 C   0  0  0  0  0  0  0  0  0  0  0  0
    6.2595    1.9612    1.9691 C   0  0  0  0  0  0  0  0  0  0  0  0
    6.6728    0.4523   -1.9965 C   0  0  0  0  0  0  0  0  0  0  0  0
   -7.6561    2.9089   -1.9709 C   0  0  0  0  0  0  0  0  0  0  0  0
   -0.3379   -1.8800    0.7587 H   0  0  0  0  0  0  0  0  0  0  0  0
   -5.0047   -3.5505    0.1288 H   0  0  0  0  0  0  0  0  0  0  0  0
   -0.8056   -4.2891    0.6711 H   0  0  0  0  0  0  0  0  0  0  0  0
   -0.1170   -0.0999   -0.7575 H   0  0  0  0  0  0  0  0  0  0  0  0
   -3.1058   -5.1303    0.3719 H   0  0  0  0  0  0  0  0  0  0  0  0
    0.8070    1.7761    1.5234 H   0  0  0  0  0  0  0  0  0  0  0  0
    3.1050    2.5459    1.2680 H   0  0  0  0  0  0  0  0  0  0  0  0
    1.8080   -1.0683   -0.7156 H   0  0  0  0  0  0  0  0  0  0  0  0
   -6.7341    0.9707    0.3846 H   0  0  0  0  0  0  0  0  0  0  0  0
   -6.2683    0.7680   -1.3153 H   0  0  0  0  0  0  0  0  0  0  0  0
   -7.1495    3.4560   -0.0227 H   0  0  0  0  0  0  0  0  0  0  0  0
    3.5816   -3.2475   -0.1503 H   0  0  0  0  0  0  0  0  0  0  0  0
    4.6456   -3.7692   -1.4751 H   0  0  0  0  0  0  0  0  0  0  0  0
    5.3260   -2.8282   -0.1295 H   0  0  0  0  0  0  0  0  0  0  0  0
    7.0355    2.7162    2.1216 H   0  0  0  0  0  0  0  0  0  0  0  0
    5.5304    2.0391    2.7819 H   0  0  0  0  0  0  0  0  0  0  0  0
    6.7273    0.9717    1.9774 H   0  0  0  0  0  0  0  0  0  0  0  0
    6.0784    0.0528   -2.8243 H   0  0  0  0  0  0  0  0  0  0  0  0
    7.7130    0.1445   -2.1333 H   0  0  0  0  0  0  0  0  0  0  0  0
    6.6291    1.5459   -1.9965 H   0  0  0  0  0  0  0  0  0  0  0  0
   -8.2212    3.8187   -2.1419 H   0  0  0  0  0  0  0  0  0  0  0  0
   -7.6021    2.1844   -2.7758 H   0  0  0  0  0  0  0  0  0  0  0  0
  1 10  1  0  0  0  0
  1 24  1  0  0  0  0
  2 21  1  0  0  0  0
  2 26  1  0  0  0  0
  3 22  1  0  0  0  0
  3 27  1  0  0  0  0
  4 23  1  0  0  0  0
  4 28  1  0  0  0  0
  5 12  2  0  0  0  0
  6  8  1  0  0  0  0
  6 10  1  0  0  0  0
  6 12  1  0  0  0  0
  7  9  1  0  0  0  0
  7 10  2  0  0  0  0
  8  9  1  0  0  0  0
  8 11  2  0  0  0  0
  9 13  2  0  0  0  0
 11 15  1  0  0  0  0
 11 30  1  0  0  0  0
 12 16  1  0  0  0  0
 13 17  1  0  0  0  0
 13 31  1  0  0  0  0
 14 18  1  0  0  0  0
 14 19  2  0  0  0  0
 14 20  1  0  0  0  0
 15 17  2  0  0  0  0
 15 32  1  0  0  0  0
 16 18  2  0  0  0  0
 16 33  1  0  0  0  0
 17 34  1  0  0  0  0
 18 35  1  0  0  0  0
 19 22  1  0  0  0  0
 19 36  1  0  0  0  0
 20 21  2  0  0  0  0
 20 37  1  0  0  0  0
 21 23  1  0  0  0  0
 22 23  2  0  0  0  0
 24 25  1  0  0  0  0
 24 38  1  0  0  0  0
 24 39  1  0  0  0  0
 25 29  2  0  0  0  0
 25 40  1  0  0  0  0
 26 41  1  0  0  0  0
 26 42  1  0  0  0  0
 26 43  1  0  0  0  0
 27 44  1  0  0  0  0
 27 45  1  0  0  0  0
 27 46  1  0  0  0  0
 28 47  1  0  0  0  0
 28 48  1  0  0  0  0
 28 49  1  0  0  0  0
 29 50  1  0  0  0  0
 29 51  1  0  0  0  0
M  END
> <PUBCHEM_COMPOUND_CID>
5737516

> <PUBCHEM_CONFORMER_RMSD>
1

> <PUBCHEM_CONFORMER_DIVERSEORDER>
1
22
26
35
44
16
23
27
40
30
29
37
33
17
19
38
20
25
12
28
8
31
36
14
34
13
39
32
42
2
4
3
21
15
18
11
24
5
41
6
43
9
7
10

> <PUBCHEM_MMFF94_PARTIAL_CHARGES>
40
1 -0.29
10 0.24
11 -0.15
12 0.56
13 -0.15
14 0.03
15 -0.15
16 -0.14
17 -0.15
18 -0.18
19 -0.15
2 -0.36
20 -0.15
21 0.08
22 0.08
23 0.08
24 0.37
25 -0.29
26 0.28
27 0.28
28 0.28
29 -0.3
3 -0.36
30 0.15
31 0.15
32 0.15
33 0.15
34 0.15
35 0.15
36 0.15
37 0.15
4 -0.36
40 0.15
5 -0.57
50 0.15
51 0.15
6 0.29
7 -0.57
8 -0.15
9 0.23

> <PUBCHEM_EFFECTIVE_ROTOR_COUNT>
9

> <PUBCHEM_PHARMACOPHORE_FEATURES>
8
1 2 acceptor
1 29 hydrophobe
1 3 acceptor
1 4 acceptor
1 5 acceptor
5 6 7 8 9 10 rings
6 14 19 20 21 22 23 rings
6 8 9 11 13 15 17 rings

> <PUBCHEM_HEAVY_ATOM_COUNT>
29

> <PUBCHEM_ATOM_DEF_STEREO_COUNT>
0

> <PUBCHEM_ATOM_UDEF_STEREO_COUNT>
0

> <PUBCHEM_BOND_DEF_STEREO_COUNT>
1

> <PUBCHEM_BOND_UDEF_STEREO_COUNT>
0

> <PUBCHEM_ISOTOPIC_ATOM_COUNT>
0

> <PUBCHEM_COMPONENT_COUNT>
1

> <PUBCHEM_CACTVS_TAUTO_COUNT>
1

> <PUBCHEM_CONFORMER_ID>
00578C2C00000001

> <PUBCHEM_MMFF94_ENERGY>
112.3816

> <PUBCHEM_FEATURE_SELFOVERLAP>
40.71

> <PUBCHEM_SHAPE_FINGERPRINT>
10411042 1 17688025732421355331
105312 117 18114170922808438079
10835480 77 18272365399600709520
11007060 377 18272934899932996113
12293681 160 18201995483603524569
12373685 5 18127948919357613702
13402501 40 18199758110099871098
14790565 3 18051983519883128673
14910302 57 18334575720370945894
14931854 50 18342185414487588334
15183329 4 18270963440728639665
15361156 5 18045796842267348935
15927050 60 18410569566738782475
19958102 18 18337954463784773045
21279426 13 18341055125282443951
21859007 373 18042392539493146269
22393880 68 18412270549448673162
23559900 14 18343866636485947480
23572383 38 18272374195719520550
239999 70 17845948411503277436
27425 322 17385735702460922543
32027 91 18269840818225027526
3633792 109 18269551638018861769
4015057 19 17561078150980644689
4073 2 18341053003552600256
4403749 210 17913755383503384160
44249763 50 18261098699518810381
4874694 18 18271231790395940272
5104073 3 18059582403735346874
5265222 85 18189909775437362655
5283173 99 18410294747916089936
6698420 124 18201450130188942417
9709674 26 18342464784724660250

> <PUBCHEM_SHAPE_MULTIPOLES>
567.22
19.18
4.3
1.33
0.65
3.95
0.32
-14.44
7.04
-5.93
-0.12
1.43
-0.66
4.37

> <PUBCHEM_SHAPE_SELFOVERLAP>
1201.589

> <PUBCHEM_SHAPE_VOLUME>
321.1

> <PUBCHEM_COORDINATE_TYPE>
2
5
10

$$$$
