83156
  -OEChem-01171810133D

 28 30  0     0  0  0  0  0  0999 V2000
    1.7563    0.5574   -2.3017 O   0  0  0  0  0  0  0  0  0  0  0  0
    1.6528    0.5957    2.3303 O   0  0  0  0  0  0  0  0  0  0  0  0
   -1.6544    0.5944   -2.3305 O   0  0  0  0  0  0  0  0  0  0  0  0
   -1.7554    0.5569    2.3015 O   0  0  0  0  0  0  0  0  0  0  0  0
    1.4361    0.1298    0.0120 N   0  0  0  0  0  0  0  0  0  0  0  0
   -1.4362    0.1291   -0.0121 N   0  0  0  0  0  0  0  0  0  0  0  0
    0.6977   -1.0975    0.0057 C   0  0  0  0  0  0  0  0  0  0  0  0
   -0.6971   -1.0979   -0.0061 C   0  0  0  0  0  0  0  0  0  0  0  0
    1.3954   -2.3053    0.0117 C   0  0  0  0  0  0  0  0  0  0  0  0
   -1.3942   -2.3061   -0.0116 C   0  0  0  0  0  0  0  0  0  0  0  0
    1.8561    0.8116   -1.1124 C   0  0  0  0  0  0  0  0  0  0  0  0
    1.8364    0.8118    1.1435 C   0  0  0  0  0  0  0  0  0  0  0  0
   -1.8375    0.8106   -1.1436 C   0  0  0  0  0  0  0  0  0  0  0  0
   -1.8560    0.8108    1.1124 C   0  0  0  0  0  0  0  0  0  0  0  0
    0.6984   -3.5135    0.0062 C   0  0  0  0  0  0  0  0  0  0  0  0
   -0.6964   -3.5139   -0.0054 C   0  0  0  0  0  0  0  0  0  0  0  0
    2.5666    2.0100   -0.6430 C   0  0  0  0  0  0  0  0  0  0  0  0
    2.5646    2.0043    0.6863 C   0  0  0  0  0  0  0  0  0  0  0  0
   -2.5660    2.0029   -0.6863 C   0  0  0  0  0  0  0  0  0  0  0  0
   -2.5673    2.0088    0.6430 C   0  0  0  0  0  0  0  0  0  0  0  0
    2.4823   -2.3175    0.0209 H   0  0  0  0  0  0  0  0  0  0  0  0
   -2.4811   -2.3189   -0.0205 H   0  0  0  0  0  0  0  0  0  0  0  0
    1.2416   -4.4539    0.0110 H   0  0  0  0  0  0  0  0  0  0  0  0
   -1.2390   -4.4546   -0.0097 H   0  0  0  0  0  0  0  0  0  0  0  0
    3.0130    2.7467   -1.2895 H   0  0  0  0  0  0  0  0  0  0  0  0
    3.0027    2.7394    1.3404 H   0  0  0  0  0  0  0  0  0  0  0  0
   -3.0048    2.7376   -1.3403 H   0  0  0  0  0  0  0  0  0  0  0  0
   -3.0138    2.7455    1.2897 H   0  0  0  0  0  0  0  0  0  0  0  0
  1 11  2  0  0  0  0
  2 12  2  0  0  0  0
  3 13  2  0  0  0  0
  4 14  2  0  0  0  0
  5  7  1  0  0  0  0
  5 11  1  0  0  0  0
  5 12  1  0  0  0  0
  6  8  1  0  0  0  0
  6 13  1  0  0  0  0
  6 14  1  0  0  0  0
  7  8  1  0  0  0  0
  7  9  2  0  0  0  0
  8 10  2  0  0  0  0
  9 15  1  0  0  0  0
  9 21  1  0  0  0  0
 10 16  1  0  0  0  0
 10 22  1  0  0  0  0
 11 17  1  0  0  0  0
 12 18  1  0  0  0  0
 13 19  1  0  0  0  0
 14 20  1  0  0  0  0
 15 16  2  0  0  0  0
 15 23  1  0  0  0  0
 16 24  1  0  0  0  0
 17 18  2  0  0  0  0
 17 25  1  0  0  0  0
 18 26  1  0  0  0  0
 19 20  2  0  0  0  0
 19 27  1  0  0  0  0
 20 28  1  0  0  0  0
M  END
> <PUBCHEM_COMPOUND_CID>
83156

> <PUBCHEM_CONFORMER_RMSD>
0.6

> <PUBCHEM_CONFORMER_DIVERSEORDER>
1

> <PUBCHEM_MMFF94_PARTIAL_CHARGES>
28
1 -0.57
10 -0.15
11 0.62
12 0.62
13 0.62
14 0.62
15 -0.15
16 -0.15
17 -0.14
18 -0.14
19 -0.14
2 -0.57
20 -0.14
21 0.15
22 0.15
23 0.15
24 0.15
25 0.15
26 0.15
27 0.15
28 0.15
3 -0.57
4 -0.57
5 -0.24
6 -0.24
7 0.12
8 0.12
9 -0.15

> <PUBCHEM_EFFECTIVE_ROTOR_COUNT>
2.4

> <PUBCHEM_PHARMACOPHORE_FEATURES>
7
1 1 acceptor
1 2 acceptor
1 3 acceptor
1 4 acceptor
5 5 11 12 17 18 rings
5 6 13 14 19 20 rings
6 7 8 9 10 15 16 rings

> <PUBCHEM_HEAVY_ATOM_COUNT>
20

> <PUBCHEM_ATOM_DEF_STEREO_COUNT>
0

> <PUBCHEM_ATOM_UDEF_STEREO_COUNT>
0

> <PUBCHEM_BOND_DEF_STEREO_COUNT>
0

> <PUBCHEM_BOND_UDEF_STEREO_COUNT>
0

> <PUBCHEM_ISOTOPIC_ATOM_COUNT>
0

> <PUBCHEM_COMPONENT_COUNT>
1

> <PUBCHEM_CACTVS_TAUTO_COUNT>
1

> <PUBCHEM_CONFORMER_ID>
000144D400000001

> <PUBCHEM_MMFF94_ENERGY>
84.2748

> <PUBCHEM_FEATURE_SELFOVERLAP>
35.524

> <PUBCHEM_SHAPE_FINGERPRINT>
10165383 225 17977990922138935341
11578080 2 13241385110103103403
13132413 78 17552071801875882184
13134695 92 17403445283105292901
14614273 12 18265049326327330791
14817 1 14786084610877777336
15852999 172 17975375179791882095
16945 1 17906179446896147503
18981168 100 18410863161004705409
19765921 60 17988625398924447617
19868273 325 17400637624318460394
20510252 161 17979913040520968400
20511035 2 17531516603603599164
20600515 1 17331121010131474594
23419403 2 15732984875206493098
23557571 272 17477218583692339124
238 59 18263925436881686997
350125 39 18410020939393062731
5845 1 9404496782053095282
6442390 28 18197242393087743635
6992083 37 18042663131533840448
81228 2 17763204808934512026

> <PUBCHEM_SHAPE_MULTIPOLES>
378.15
3.71
3.7
1.8
3.97
0.05
0
-0.05
0
-3.14
0
-0.93
0
-0.02

> <PUBCHEM_SHAPE_SELFOVERLAP>
844.696

> <PUBCHEM_SHAPE_VOLUME>
197.3

> <PUBCHEM_COORDINATE_TYPE>
2
5
10

$$$$
