46944084
  -OEChem-01171810183D

 64 67  0     0  0  0  0  0  0999 V2000
    1.1501    5.9471   -1.0739 S   0  0  0  0  0  0  0  0  0  0  0  0
    3.8165   -3.7363   -0.0034 O   0  0  0  0  0  0  0  0  0  0  0  0
   -5.7627    2.3186    1.4476 O   0  0  0  0  0  0  0  0  0  0  0  0
   -2.4079   -1.3560   -0.0574 N   0  0  0  0  0  0  0  0  0  0  0  0
   -4.1854   -2.5591    0.5659 N   0  0  0  0  0  0  0  0  0  0  0  0
   -5.5339   -0.0029    1.2307 N   0  0  0  0  0  0  0  0  0  0  0  0
    2.8370   -1.8368    0.8961 N   0  0  0  0  0  0  0  0  0  0  0  0
    6.0056   -0.0026    1.5804 N   0  0  0  0  0  0  0  0  0  0  0  0
   -2.0778   -2.6718   -0.2600 C   0  0  0  0  0  0  0  0  0  0  0  0
   -3.7041   -1.3373    0.4469 C   0  0  0  0  0  0  0  0  0  0  0  0
   -2.1683    1.0032   -0.0182 C   0  0  0  0  0  0  0  0  0  0  0  0
   -1.6482   -0.2124   -0.2894 C   0  0  0  0  0  0  0  0  0  0  0  0
   -0.8133   -3.1391   -0.7775 C   0  0  0  0  0  0  0  0  0  0  0  0
   -4.2641   -0.0575    0.7349 C   0  0  0  0  0  0  0  0  0  0  0  0
   -3.5359    1.0556    0.5141 C   0  0  0  0  0  0  0  0  0  0  0  0
   -3.1839   -3.3881    0.1304 C   0  0  0  0  0  0  0  0  0  0  0  0
   -1.3589    2.2098   -0.2756 C   0  0  0  0  0  0  0  0  0  0  0  0
    0.3690   -2.8480   -0.0972 C   0  0  0  0  0  0  0  0  0  0  0  0
    1.5905   -3.2993   -0.5969 C   0  0  0  0  0  0  0  0  0  0  0  0
   -0.7741   -3.8815   -1.9578 C   0  0  0  0  0  0  0  0  0  0  0  0
    3.9920   -1.3889    1.6406 C   0  0  0  0  0  0  0  0  0  0  0  0
    4.8633   -0.4647    0.8027 C   0  0  0  0  0  0  0  0  0  0  0  0
    1.6297   -4.0417   -1.7771 C   0  0  0  0  0  0  0  0  0  0  0  0
    0.4475   -4.3327   -2.4577 C   0  0  0  0  0  0  0  0  0  0  0  0
   -1.9831    3.4069   -0.6262 C   0  0  0  0  0  0  0  0  0  0  0  0
    0.0307    2.1531   -0.1684 C   0  0  0  0  0  0  0  0  0  0  0  0
    2.8237   -2.9962    0.1122 C   0  0  0  0  0  0  0  0  0  0  0  0
   -1.2177    4.5474   -0.8694 C   0  0  0  0  0  0  0  0  0  0  0  0
    0.7961    3.2936   -0.4117 C   0  0  0  0  0  0  0  0  0  0  0  0
    0.1719    4.4906   -0.7623 C   0  0  0  0  0  0  0  0  0  0  0  0
    7.0434   -1.0341    1.6368 C   0  0  0  0  0  0  0  0  0  0  0  0
    6.5497    1.2333    1.0142 C   0  0  0  0  0  0  0  0  0  0  0  0
   -6.1814    1.1718    1.5469 C   0  0  0  0  0  0  0  0  0  0  0  0
    2.8337    5.3260   -0.8011 C   0  0  0  0  0  0  0  0  0  0  0  0
    3.8507    6.4302   -1.0191 C   0  0  0  0  0  0  0  0  0  0  0  0
   -0.6660   -0.3612   -0.7194 H   0  0  0  0  0  0  0  0  0  0  0  0
   -3.8541    2.0590    0.7342 H   0  0  0  0  0  0  0  0  0  0  0  0
   -3.3154   -4.4610    0.1227 H   0  0  0  0  0  0  0  0  0  0  0  0
    0.3112   -2.3056    0.8434 H   0  0  0  0  0  0  0  0  0  0  0  0
   -1.6851   -4.1156   -2.5035 H   0  0  0  0  0  0  0  0  0  0  0  0
    4.5394   -2.2748    1.9766 H   0  0  0  0  0  0  0  0  0  0  0  0
    3.6161   -0.8675    2.5281 H   0  0  0  0  0  0  0  0  0  0  0  0
    4.2366    0.3885    0.5076 H   0  0  0  0  0  0  0  0  0  0  0  0
    5.1721   -0.9484   -0.1337 H   0  0  0  0  0  0  0  0  0  0  0  0
   -6.0269   -0.8806    1.3736 H   0  0  0  0  0  0  0  0  0  0  0  0
    2.5714   -4.3987   -2.1859 H   0  0  0  0  0  0  0  0  0  0  0  0
    0.4781   -4.9092   -3.3776 H   0  0  0  0  0  0  0  0  0  0  0  0
   -3.0603    3.4847   -0.7443 H   0  0  0  0  0  0  0  0  0  0  0  0
    0.5561    1.2499    0.1308 H   0  0  0  0  0  0  0  0  0  0  0  0
    2.0312   -1.2206    0.9076 H   0  0  0  0  0  0  0  0  0  0  0  0
   -1.7212    5.4702   -1.1469 H   0  0  0  0  0  0  0  0  0  0  0  0
    1.8653    3.1681   -0.3013 H   0  0  0  0  0  0  0  0  0  0  0  0
    7.4085   -1.3103    0.6407 H   0  0  0  0  0  0  0  0  0  0  0  0
    7.8987   -0.6796    2.2238 H   0  0  0  0  0  0  0  0  0  0  0  0
    6.6897   -1.9395    2.1391 H   0  0  0  0  0  0  0  0  0  0  0  0
    7.3933    1.5932    1.6139 H   0  0  0  0  0  0  0  0  0  0  0  0
    6.8921    1.0983   -0.0182 H   0  0  0  0  0  0  0  0  0  0  0  0
    5.7966    2.0293    1.0283 H   0  0  0  0  0  0  0  0  0  0  0  0
   -7.1945    0.9613    1.9285 H   0  0  0  0  0  0  0  0  0  0  0  0
    3.0553    4.5171   -1.5047 H   0  0  0  0  0  0  0  0  0  0  0  0
    2.9401    4.9658    0.2272 H   0  0  0  0  0  0  0  0  0  0  0  0
    3.8099    6.8184   -2.0426 H   0  0  0  0  0  0  0  0  0  0  0  0
    3.6953    7.2631   -0.3248 H   0  0  0  0  0  0  0  0  0  0  0  0
    4.8622    6.0450   -0.8519 H   0  0  0  0  0  0  0  0  0  0  0  0
  1 30  1  0  0  0  0
  1 34  1  0  0  0  0
  2 27  2  0  0  0  0
  3 33  2  0  0  0  0
  4  9  1  0  0  0  0
  4 10  1  0  0  0  0
  4 12  1  0  0  0  0
  5 10  2  0  0  0  0
  5 16  1  0  0  0  0
  6 14  1  0  0  0  0
  6 33  1  0  0  0  0
  6 45  1  0  0  0  0
  7 21  1  0  0  0  0
  7 27  1  0  0  0  0
  7 50  1  0  0  0  0
  8 22  1  0  0  0  0
  8 31  1  0  0  0  0
  8 32  1  0  0  0  0
  9 13  1  0  0  0  0
  9 16  2  0  0  0  0
 10 14  1  0  0  0  0
 11 12  2  0  0  0  0
 11 15  1  0  0  0  0
 11 17  1  0  0  0  0
 12 36  1  0  0  0  0
 13 18  2  0  0  0  0
 13 20  1  0  0  0  0
 14 15  2  0  0  0  0
 15 37  1  0  0  0  0
 16 38  1  0  0  0  0
 17 25  2  0  0  0  0
 17 26  1  0  0  0  0
 18 19  1  0  0  0  0
 18 39  1  0  0  0  0
 19 23  2  0  0  0  0
 19 27  1  0  0  0  0
 20 24  2  0  0  0  0
 20 40  1  0  0  0  0
 21 22  1  0  0  0  0
 21 41  1  0  0  0  0
 21 42  1  0  0  0  0
 22 43  1  0  0  0  0
 22 44  1  0  0  0  0
 23 24  1  0  0  0  0
 23 46  1  0  0  0  0
 24 47  1  0  0  0  0
 25 28  1  0  0  0  0
 25 48  1  0  0  0  0
 26 29  2  0  0  0  0
 26 49  1  0  0  0  0
 28 30  2  0  0  0  0
 28 51  1  0  0  0  0
 29 30  1  0  0  0  0
 29 52  1  0  0  0  0
 31 53  1  0  0  0  0
 31 54  1  0  0  0  0
 31 55  1  0  0  0  0
 32 56  1  0  0  0  0
 32 57  1  0  0  0  0
 32 58  1  0  0  0  0
 33 59  1  0  0  0  0
 34 35  1  0  0  0  0
 34 60  1  0  0  0  0
 34 61  1  0  0  0  0
 35 62  1  0  0  0  0
 35 63  1  0  0  0  0
 35 64  1  0  0  0  0
M  END
> <PUBCHEM_COMPOUND_CID>
46944084

> <PUBCHEM_CONFORMER_RMSD>
1.2

> <PUBCHEM_CONFORMER_DIVERSEORDER>
1
15
27
3
14
5
26
13
12
28
11
17
10
9
19
18
23
8
24
2
4
25
22
21
6
20
16
7

> <PUBCHEM_MMFF94_PARTIAL_CHARGES>
48
1 -0.33
10 0.14
11 -0.03
12 -0.18
13 0.05
14 0.15
15 -0.15
16 0.08
17 0.03
18 -0.15
19 0.09
2 -0.57
20 -0.15
21 0.3
22 0.27
23 -0.15
24 -0.15
25 -0.15
26 -0.15
27 0.54
28 -0.15
29 -0.15
3 -0.57
30 0.1
31 0.27
32 0.27
33 0.57
34 0.23
36 0.15
37 0.15
38 0.15
39 0.15
4 0.33
40 0.15
45 0.37
46 0.15
47 0.15
48 0.15
49 0.15
5 -0.57
50 0.37
51 0.15
52 0.15
59 0.06
6 -0.54
7 -0.73
8 -0.81
9 -0.2

> <PUBCHEM_EFFECTIVE_ROTOR_COUNT>
11

> <PUBCHEM_PHARMACOPHORE_FEATURES>
11
1 2 acceptor
1 3 acceptor
1 35 hydrophobe
1 6 donor
1 7 donor
1 8 cation
3 4 5 10 cation
5 4 5 9 10 16 rings
6 13 18 19 20 23 24 rings
6 17 25 26 28 29 30 rings
6 4 10 11 12 14 15 rings

> <PUBCHEM_HEAVY_ATOM_COUNT>
35

> <PUBCHEM_ATOM_DEF_STEREO_COUNT>
0

> <PUBCHEM_ATOM_UDEF_STEREO_COUNT>
0

> <PUBCHEM_BOND_DEF_STEREO_COUNT>
0

> <PUBCHEM_BOND_UDEF_STEREO_COUNT>
0

> <PUBCHEM_ISOTOPIC_ATOM_COUNT>
0

> <PUBCHEM_COMPONENT_COUNT>
1

> <PUBCHEM_CACTVS_TAUTO_COUNT>
4

> <PUBCHEM_CONFORMER_ID>
02CC4F5400000001

> <PUBCHEM_MMFF94_ENERGY>
101.0804

> <PUBCHEM_FEATURE_SELFOVERLAP>
55.935

> <PUBCHEM_SHAPE_FINGERPRINT>
10305334 12 17548428458338543532
12107183 9 18409737296022838145
12788726 201 17684403597041652591
14394314 77 18335986484163881376
14725015 67 17832429692016416883
15160629 57 18114472261360728517
15322534 239 16750994538186170772
15351339 4 16175643231680019656
15840311 113 17198278677785665513
15961568 22 18410853244184149574
16067690 210 18115015308620277882
16110190 28 18410291432343769000
16628084 112 17690837191779140335
17627616 140 17472124554852531350
19311894 1 16393814917073997188
20775438 99 12725892651649749478
21133410 171 16405028746288370798
21796203 349 18045250316606205744
24771293 8 18271526387040689011
25019877 29 17131269211259826758
3178227 256 16465323838433026723
474144 1 17968391138304751732
50080093 196 17686318169208546392
5047190 48 18340768143956868320
50677037 204 17981019119850163376
57676310 188 17612308955196753636
6608658 132 18269254915950617606
9982175 49 18267296728120775005
9982175 69 17324900583844423796

> <PUBCHEM_SHAPE_MULTIPOLES>
687.49
12.36
10.27
1.65
8.82
10.86
-0.26
1.28
10.08
8.28
-6.59
0.6
-1.13
-3.64

> <PUBCHEM_SHAPE_SELFOVERLAP>
1469.488

> <PUBCHEM_SHAPE_VOLUME>
384.3

> <PUBCHEM_COORDINATE_TYPE>
2
5
10

$$$$
