658723
  -OEChem-01171810083D

 59 62  0     0  0  0  0  0  0999 V2000
   -1.5311   -4.9142    0.4508 Br  0  0  0  0  0  0  0  0  0  0  0  0
   -0.5815   -0.3013    1.5073 O   0  0  0  0  0  0  0  0  0  0  0  0
   -6.0212    2.3534   -0.6278 O   0  0  0  0  0  0  0  0  0  0  0  0
   -3.9083    3.2008   -0.3506 O   0  0  0  0  0  0  0  0  0  0  0  0
    4.3059    0.5924   -0.0995 N   0  0  0  0  0  0  0  0  0  0  0  0
    1.6393    1.1934    0.8422 N   0  0  0  0  0  0  0  0  0  0  0  0
   -1.8678    1.0437    0.0743 N   0  0  0  0  0  0  0  0  0  0  0  0
   -5.1681   -0.1970   -0.3590 N   0  0  0  0  0  0  0  0  0  0  0  0
    5.6324   -0.0048    0.0420 C   0  0  0  0  0  0  0  0  0  0  0  0
    5.8801   -0.9992   -1.0977 C   0  0  0  0  0  0  0  0  0  0  0  0
    6.6997    1.0949    0.0579 C   0  0  0  0  0  0  0  0  0  0  0  0
    7.2882   -1.5876   -1.0267 C   0  0  0  0  0  0  0  0  0  0  0  0
    8.1067    0.5037    0.1282 C   0  0  0  0  0  0  0  0  0  0  0  0
    4.0742    1.6006    0.9421 C   0  0  0  0  0  0  0  0  0  0  0  0
    3.2622   -0.4392   -0.0560 C   0  0  0  0  0  0  0  0  0  0  0  0
    8.3539   -0.4957   -0.9984 C   0  0  0  0  0  0  0  0  0  0  0  0
    2.6823    2.2255    0.7967 C   0  0  0  0  0  0  0  0  0  0  0  0
    1.8703    0.1856   -0.2001 C   0  0  0  0  0  0  0  0  0  0  0  0
    0.3124    1.7898    0.7026 C   0  0  0  0  0  0  0  0  0  0  0  0
   -0.7449    0.7060    0.8262 C   0  0  0  0  0  0  0  0  0  0  0  0
   -3.0471    0.3015   -0.0645 C   0  0  0  0  0  0  0  0  0  0  0  0
   -3.1603   -1.1024   -0.0048 C   0  0  0  0  0  0  0  0  0  0  0  0
   -4.2797    0.8417   -0.2810 C   0  0  0  0  0  0  0  0  0  0  0  0
   -4.5123   -1.3962   -0.1941 C   0  0  0  0  0  0  0  0  0  0  0  0
   -2.2563   -2.1655    0.1907 C   0  0  0  0  0  0  0  0  0  0  0  0
   -5.0075   -2.7050   -0.1980 C   0  0  0  0  0  0  0  0  0  0  0  0
   -4.6652    2.2130   -0.4130 C   0  0  0  0  0  0  0  0  0  0  0  0
   -2.7374   -3.4798    0.1893 C   0  0  0  0  0  0  0  0  0  0  0  0
   -4.0922   -3.7432   -0.0023 C   0  0  0  0  0  0  0  0  0  0  0  0
   -6.5266    3.6851   -0.7768 C   0  0  0  0  0  0  0  0  0  0  0  0
    5.6960   -0.5514    0.9945 H   0  0  0  0  0  0  0  0  0  0  0  0
    5.7408   -0.5103   -2.0709 H   0  0  0  0  0  0  0  0  0  0  0  0
    5.1980   -1.8539   -1.0589 H   0  0  0  0  0  0  0  0  0  0  0  0
    6.6154    1.7436    0.9354 H   0  0  0  0  0  0  0  0  0  0  0  0
    6.6168    1.7277   -0.8354 H   0  0  0  0  0  0  0  0  0  0  0  0
    7.4578   -2.2444   -1.8875 H   0  0  0  0  0  0  0  0  0  0  0  0
    7.3799   -2.2095   -0.1275 H   0  0  0  0  0  0  0  0  0  0  0  0
    8.2461    0.0042    1.0951 H   0  0  0  0  0  0  0  0  0  0  0  0
    8.8486    1.3085    0.0749 H   0  0  0  0  0  0  0  0  0  0  0  0
    4.7620    2.4463    0.8533 H   0  0  0  0  0  0  0  0  0  0  0  0
    4.1878    1.1709    1.9464 H   0  0  0  0  0  0  0  0  0  0  0  0
    3.3148   -1.0196    0.8750 H   0  0  0  0  0  0  0  0  0  0  0  0
    3.3468   -1.1382   -0.8927 H   0  0  0  0  0  0  0  0  0  0  0  0
    8.3589    0.0331   -1.9595 H   0  0  0  0  0  0  0  0  0  0  0  0
    9.3440   -0.9496   -0.8782 H   0  0  0  0  0  0  0  0  0  0  0  0
    2.6285    2.7954   -0.1412 H   0  0  0  0  0  0  0  0  0  0  0  0
    2.5347    2.9362    1.6191 H   0  0  0  0  0  0  0  0  0  0  0  0
    1.1516   -0.6384   -0.1519 H   0  0  0  0  0  0  0  0  0  0  0  0
    1.7734    0.6340   -1.1989 H   0  0  0  0  0  0  0  0  0  0  0  0
    0.2155    2.3183   -0.2541 H   0  0  0  0  0  0  0  0  0  0  0  0
    0.1266    2.5079    1.5103 H   0  0  0  0  0  0  0  0  0  0  0  0
   -1.9420    2.0090   -0.2391 H   0  0  0  0  0  0  0  0  0  0  0  0
   -6.1623   -0.1011   -0.5149 H   0  0  0  0  0  0  0  0  0  0  0  0
   -1.1873   -2.0112    0.2611 H   0  0  0  0  0  0  0  0  0  0  0  0
   -6.0622   -2.9108   -0.3470 H   0  0  0  0  0  0  0  0  0  0  0  0
   -4.4616   -4.7665   -0.0026 H   0  0  0  0  0  0  0  0  0  0  0  0
   -6.0669    4.1674   -1.6445 H   0  0  0  0  0  0  0  0  0  0  0  0
   -7.6060    3.6233   -0.9384 H   0  0  0  0  0  0  0  0  0  0  0  0
   -6.3385    4.2632    0.1326 H   0  0  0  0  0  0  0  0  0  0  0  0
  1 28  1  0  0  0  0
  2 20  2  0  0  0  0
  3 27  1  0  0  0  0
  3 30  1  0  0  0  0
  4 27  2  0  0  0  0
  5  9  1  0  0  0  0
  5 14  1  0  0  0  0
  5 15  1  0  0  0  0
  6 17  1  0  0  0  0
  6 18  1  0  0  0  0
  6 19  1  0  0  0  0
  7 20  1  0  0  0  0
  7 21  1  0  0  0  0
  7 52  1  0  0  0  0
  8 23  1  0  0  0  0
  8 24  1  0  0  0  0
  8 53  1  0  0  0  0
  9 10  1  0  0  0  0
  9 11  1  0  0  0  0
  9 31  1  0  0  0  0
 10 12  1  0  0  0  0
 10 32  1  0  0  0  0
 10 33  1  0  0  0  0
 11 13  1  0  0  0  0
 11 34  1  0  0  0  0
 11 35  1  0  0  0  0
 12 16  1  0  0  0  0
 12 36  1  0  0  0  0
 12 37  1  0  0  0  0
 13 16  1  0  0  0  0
 13 38  1  0  0  0  0
 13 39  1  0  0  0  0
 14 17  1  0  0  0  0
 14 40  1  0  0  0  0
 14 41  1  0  0  0  0
 15 18  1  0  0  0  0
 15 42  1  0  0  0  0
 15 43  1  0  0  0  0
 16 44  1  0  0  0  0
 16 45  1  0  0  0  0
 17 46  1  0  0  0  0
 17 47  1  0  0  0  0
 18 48  1  0  0  0  0
 18 49  1  0  0  0  0
 19 20  1  0  0  0  0
 19 50  1  0  0  0  0
 19 51  1  0  0  0  0
 21 22  1  0  0  0  0
 21 23  2  0  0  0  0
 22 24  2  0  0  0  0
 22 25  1  0  0  0  0
 23 27  1  0  0  0  0
 24 26  1  0  0  0  0
 25 28  2  0  0  0  0
 25 54  1  0  0  0  0
 26 29  2  0  0  0  0
 26 55  1  0  0  0  0
 28 29  1  0  0  0  0
 29 56  1  0  0  0  0
 30 57  1  0  0  0  0
 30 58  1  0  0  0  0
 30 59  1  0  0  0  0
M  END
> <PUBCHEM_COMPOUND_CID>
658723

> <PUBCHEM_CONFORMER_RMSD>
1

> <PUBCHEM_CONFORMER_DIVERSEORDER>
1
61
54
44
13
31
33
46
30
57
60
62
35
49
51
58
3
23
7
18
32
36
55
34
48
39
19
50
53
52
26
22
41
38
24
59
10
4
16
43
56
28
47
14
9
25
45
40
37
27
17
5
11
15
2
42
6
21
8
29
20
12
63

> <PUBCHEM_MMFF94_PARTIAL_CHARGES>
29
1 -0.11
14 0.27
15 0.27
17 0.27
18 0.27
19 0.33
2 -0.57
20 0.57
21 0.06
23 -0.24
24 -0.15
25 -0.15
26 -0.15
27 0.81
28 0.11
29 -0.15
3 -0.43
30 0.28
4 -0.57
5 -0.81
52 0.37
53 0.27
54 0.15
55 0.15
56 0.15
6 -0.81
7 -0.49
8 0.03
9 0.27

> <PUBCHEM_EFFECTIVE_ROTOR_COUNT>
9.4

> <PUBCHEM_PHARMACOPHORE_FEATURES>
12
1 1 hydrophobe
1 2 acceptor
1 4 acceptor
1 5 cation
1 6 cation
1 7 donor
1 8 cation
1 8 donor
5 8 21 22 23 24 rings
6 22 24 25 26 28 29 rings
6 5 6 14 15 17 18 rings
6 9 10 11 12 13 16 rings

> <PUBCHEM_HEAVY_ATOM_COUNT>
30

> <PUBCHEM_ATOM_DEF_STEREO_COUNT>
0

> <PUBCHEM_ATOM_UDEF_STEREO_COUNT>
0

> <PUBCHEM_BOND_DEF_STEREO_COUNT>
0

> <PUBCHEM_BOND_UDEF_STEREO_COUNT>
0

> <PUBCHEM_ISOTOPIC_ATOM_COUNT>
0

> <PUBCHEM_COMPONENT_COUNT>
1

> <PUBCHEM_CACTVS_TAUTO_COUNT>
6

> <PUBCHEM_CONFORMER_ID>
000A0D2300000001

> <PUBCHEM_MMFF94_ENERGY>
63.9111

> <PUBCHEM_FEATURE_SELFOVERLAP>
60.99

> <PUBCHEM_SHAPE_FINGERPRINT>
10050765 1 18265612259523577656
10165383 225 18339925910394422753
10369192 42 14273743927552099753
10391435 84 18202277018693556448
10411042 1 17976821206115540067
10835480 77 18273208712540506680
10940486 97 18260832626284085693
11200772 48 18334298660230576162
11315181 36 17489588965235016448
117089 54 17685783818784076971
11796584 16 18411416207517676106
12643181 29 18411697660824429606
12758862 11 18272645736384784808
13690498 29 18337109080955504087
13761468 95 17604981516838394269
14444916 359 18340498789947904243
14461889 52 18201431546081580866
150020 25 18202005422394834148
15064986 266 18339645641865165413
15183329 4 18339359656846019416
15230672 131 18335979758113071322
15352257 5 18343305898947156974
15361156 5 18118972626640087811
15419008 91 18200295702978113280
15439362 3 18048876291628245085
15890870 6 18267019450346419117
15927050 60 18340760448241137575
17627616 140 18335138640318800834
20505436 4 17749947753095201129
21033650 10 18040713658177948041
21133410 127 17393321010471762565
21279426 13 18343306942413148590
21315764 119 18409733924435801276
21623969 137 17418103130982924550
21756936 100 17312825953264224601
22393880 68 18410569608959779922
23516275 137 17971769769717393386
23559900 14 18272082829480970688
23572383 38 18130518461416496398
23576562 1 18187086199444651629
24771750 20 18122054300984415327
249057 3 18408323272218453213
25025965 108 17058921153411231950
3004659 81 18335699486032437578
4073 2 18411418440816488360
4144715 1 18266175213566069544
44062 13 18412544348717224791
4625314 4 18411141355982260356
5265222 85 18409452521966950279
5283173 99 18410853295586204632
58083652 198 15339109157335217610
58902169 19 17676497142533863342
6009941 240 18341613698711325852
6698420 124 18130510743640028913
70634741 139 18341617078966911696

> <PUBCHEM_SHAPE_MULTIPOLES>
585.8
21.47
4.86
0.95
37.38
3.79
-0.05
-3.94
7
-11.2
-0.01
0.64
-0.1
2.67

> <PUBCHEM_SHAPE_SELFOVERLAP>
1233.18

> <PUBCHEM_SHAPE_VOLUME>
335.4

> <PUBCHEM_COORDINATE_TYPE>
2
5
10

$$$$
