263454
  -OEChem-01171810173D

 40 41  0     0  0  0  0  0  0999 V2000
    4.7704   -1.6572    0.4923 O   0  0  0  0  0  0  0  0  0  0  0  0
   -3.8119   -1.5870   -1.1327 O   0  0  0  0  0  0  0  0  0  0  0  0
    0.0079   -1.0055    2.0199 O   0  0  0  0  0  0  0  0  0  0  0  0
    3.5643    0.3454   -0.0652 C   0  0  0  0  0  0  0  0  0  0  0  0
   -3.8322    0.1827    0.4926 C   0  0  0  0  0  0  0  0  0  0  0  0
    4.7408   -0.4037   -0.0437 C   0  0  0  0  0  0  0  0  0  0  0  0
   -4.4262   -0.5219   -0.5430 C   0  0  0  0  0  0  0  0  0  0  0  0
    3.5627    1.6255   -0.6196 C   0  0  0  0  0  0  0  0  0  0  0  0
   -4.4682    1.2644    1.0832 C   0  0  0  0  0  0  0  0  0  0  0  0
    2.3246   -0.1862    0.4849 C   0  0  0  0  0  0  0  0  0  0  0  0
   -2.5013   -0.2046    0.9928 C   0  0  0  0  0  0  0  0  0  0  0  0
    5.9154    0.1272   -0.5767 C   0  0  0  0  0  0  0  0  0  0  0  0
   -5.6867   -0.1360   -0.9992 C   0  0  0  0  0  0  0  0  0  0  0  0
    4.7374    2.1562   -1.1525 C   0  0  0  0  0  0  0  0  0  0  0  0
   -5.7286    1.6502    0.6268 C   0  0  0  0  0  0  0  0  0  0  0  0
    5.9138    1.4072   -1.1310 C   0  0  0  0  0  0  0  0  0  0  0  0
   -6.3378    0.9501   -0.4143 C   0  0  0  0  0  0  0  0  0  0  0  0
    1.1466    0.4733    0.5285 C   0  0  0  0  0  0  0  0  0  0  0  0
   -1.3422    0.2901    0.5345 C   0  0  0  0  0  0  0  0  0  0  0  0
   -0.0556   -0.1712    1.1256 C   0  0  0  0  0  0  0  0  0  0  0  0
    5.9991   -2.3536    0.4776 C   0  0  0  0  0  0  0  0  0  0  0  0
   -4.4921   -2.2453   -2.1810 C   0  0  0  0  0  0  0  0  0  0  0  0
    2.6844    2.2595   -0.6684 H   0  0  0  0  0  0  0  0  0  0  0  0
   -4.0058    1.8187    1.8959 H   0  0  0  0  0  0  0  0  0  0  0  0
    2.3719   -1.1868    0.9078 H   0  0  0  0  0  0  0  0  0  0  0  0
   -2.5229   -0.9435    1.7900 H   0  0  0  0  0  0  0  0  0  0  0  0
    6.8651   -0.3962   -0.5948 H   0  0  0  0  0  0  0  0  0  0  0  0
   -6.2201   -0.6321   -1.8027 H   0  0  0  0  0  0  0  0  0  0  0  0
    4.7372    3.1528   -1.5846 H   0  0  0  0  0  0  0  0  0  0  0  0
   -6.2358    2.4958    1.0822 H   0  0  0  0  0  0  0  0  0  0  0  0
    6.8279    1.8216   -1.5463 H   0  0  0  0  0  0  0  0  0  0  0  0
   -7.3193    1.2515   -0.7688 H   0  0  0  0  0  0  0  0  0  0  0  0
    0.9892    1.4582    0.1078 H   0  0  0  0  0  0  0  0  0  0  0  0
   -1.3192    1.0266   -0.2620 H   0  0  0  0  0  0  0  0  0  0  0  0
    5.8280   -3.3292    0.9449 H   0  0  0  0  0  0  0  0  0  0  0  0
    6.7623   -1.8471    1.0787 H   0  0  0  0  0  0  0  0  0  0  0  0
    6.3441   -2.5507   -0.5434 H   0  0  0  0  0  0  0  0  0  0  0  0
   -4.6491   -1.5867   -3.0422 H   0  0  0  0  0  0  0  0  0  0  0  0
   -5.4266   -2.7022   -1.8372 H   0  0  0  0  0  0  0  0  0  0  0  0
   -3.8504   -3.0636   -2.5245 H   0  0  0  0  0  0  0  0  0  0  0  0
  1  6  1  0  0  0  0
  1 21  1  0  0  0  0
  2  7  1  0  0  0  0
  2 22  1  0  0  0  0
  3 20  2  0  0  0  0
  4  6  1  0  0  0  0
  4  8  2  0  0  0  0
  4 10  1  0  0  0  0
  5  7  1  0  0  0  0
  5  9  2  0  0  0  0
  5 11  1  0  0  0  0
  6 12  2  0  0  0  0
  7 13  2  0  0  0  0
  8 14  1  0  0  0  0
  8 23  1  0  0  0  0
  9 15  1  0  0  0  0
  9 24  1  0  0  0  0
 10 18  2  0  0  0  0
 10 25  1  0  0  0  0
 11 19  2  0  0  0  0
 11 26  1  0  0  0  0
 12 16  1  0  0  0  0
 12 27  1  0  0  0  0
 13 17  1  0  0  0  0
 13 28  1  0  0  0  0
 14 16  2  0  0  0  0
 14 29  1  0  0  0  0
 15 17  2  0  0  0  0
 15 30  1  0  0  0  0
 16 31  1  0  0  0  0
 17 32  1  0  0  0  0
 18 20  1  0  0  0  0
 18 33  1  0  0  0  0
 19 20  1  0  0  0  0
 19 34  1  0  0  0  0
 21 35  1  0  0  0  0
 21 36  1  0  0  0  0
 21 37  1  0  0  0  0
 22 38  1  0  0  0  0
 22 39  1  0  0  0  0
 22 40  1  0  0  0  0
M  END
> <PUBCHEM_COMPOUND_CID>
263454

> <PUBCHEM_CONFORMER_RMSD>
0.8

> <PUBCHEM_CONFORMER_DIVERSEORDER>
68
56
54
14
63
4
65
9
34
6
62
2
67
32
13
70
52
23
69
17
66
16
59
49
22
8
41
28
1
37
72
12
44
55
60
3
61
7
58
5
39
24
11
57
64
10
36
33
73
38
35
25
43
46
53
30
40
29
45
20
51
21
48
47
19
15
71
27
18
50
26
42
31

> <PUBCHEM_MMFF94_PARTIAL_CHARGES>
34
1 -0.36
10 -0.18
11 -0.18
12 -0.15
13 -0.15
14 -0.15
15 -0.15
16 -0.15
17 -0.15
18 -0.14
19 -0.14
2 -0.36
20 0.54
21 0.28
22 0.28
23 0.15
24 0.15
25 0.15
26 0.15
27 0.15
28 0.15
29 0.15
3 -0.57
30 0.15
31 0.15
32 0.15
33 0.15
34 0.15
4 0.03
5 0.03
6 0.08
7 0.08
8 -0.15
9 -0.15

> <PUBCHEM_EFFECTIVE_ROTOR_COUNT>
6

> <PUBCHEM_PHARMACOPHORE_FEATURES>
5
1 1 acceptor
1 2 acceptor
1 3 acceptor
6 4 6 8 12 14 16 rings
6 5 7 9 13 15 17 rings

> <PUBCHEM_HEAVY_ATOM_COUNT>
22

> <PUBCHEM_ATOM_DEF_STEREO_COUNT>
0

> <PUBCHEM_ATOM_UDEF_STEREO_COUNT>
0

> <PUBCHEM_BOND_DEF_STEREO_COUNT>
0

> <PUBCHEM_BOND_UDEF_STEREO_COUNT>
2

> <PUBCHEM_ISOTOPIC_ATOM_COUNT>
0

> <PUBCHEM_COMPONENT_COUNT>
1

> <PUBCHEM_CACTVS_TAUTO_COUNT>
1

> <PUBCHEM_CONFORMER_ID>
0004051E00000044

> <PUBCHEM_MMFF94_ENERGY>
87.3568

> <PUBCHEM_FEATURE_SELFOVERLAP>
25.373

> <PUBCHEM_SHAPE_FINGERPRINT>
10595046 47 18340770437358926988
10613725 11 18412262822195385235
10803635 8 17917989465205488239
11315181 36 15339119048560464721
11796584 16 17489870440285541086
11809386 21 18060128882484529967
12236239 1 18409449180915053705
12403259 415 16226045578524703779
12616971 3 18408885122443319058
12969540 114 17167854305152919227
13167372 99 18262805059997526848
13533116 47 18335422331887791824
13690498 29 17916018144105179447
14251752 14 18201999910949512247
14528608 73 18340207483237184308
14848160 23 14405187252723816608
15081414 286 17313393356961627604
15183329 4 18272937111102271877
15250474 111 18272081695361937878
16990350 14 15545204661603532809
16992779 147 11322667840440030623
17627616 140 16128382528124923829
17857418 61 18202560670485618650
17870717 6 17132119061307626069
18222031 100 16271932614521690880
193927 3 15267073587161673472
19489759 90 16773801372762838025
20157964 124 18259990370818229226
20281389 69 14996277020314783125
20645477 56 15719391746291294971
21033648 29 15430029963731368823
220451 1 18131078133745017186
22061861 79 17967251988039003066
221357 26 18040998410858147060
2303208 19 16298679312429204464
23081809 10 18342742905252622801
23198884 109 18334012796593470843
23402539 116 18408325492520814089
23536379 177 18412546496190200033
23559900 14 17202749514901276881
2838139 119 17894908559585294492
29717793 49 18340773654858909974
3004659 81 18201723925421190270
3014965 18 17895193247487400666
4073 2 17531259412783170962
44062 13 17418087776253191255
44317340 157 18336832008383685961
531348 171 18340202986780588557
559249 180 18059569157961493439
59755656 520 17967255287101459827
633830 44 18113054943479743507

> <PUBCHEM_SHAPE_MULTIPOLES>
435.14
19.4
2.05
1.48
1.65
0.57
0.21
-1.14
5.62
1.13
0.64
-1
0.45
-3.5

> <PUBCHEM_SHAPE_SELFOVERLAP>
923.047

> <PUBCHEM_SHAPE_VOLUME>
243

> <PUBCHEM_COORDINATE_TYPE>
2
5
10

$$$$
