6866727
  -OEChem-01171809353D

 36 38  0     0  0  0  0  0  0999 V2000
    0.9939    3.0755   -0.9065 Br  0  0  0  0  0  0  0  0  0  0  0  0
   -2.3476    3.8370    0.3432 S   0  0  0  0  0  0  0  0  0  0  0  0
   -1.9810    1.1466   -0.0792 N   0  0  0  0  0  0  0  0  0  0  0  0
   -1.8409   -2.9588   -1.0515 N   0  0  0  0  0  0  0  0  0  0  0  0
   -2.1986   -1.6693   -0.9271 N   0  0  0  0  0  0  0  0  0  0  0  0
   -1.8455    0.3779    2.0093 N   0  0  0  0  0  0  0  0  0  0  0  0
   -2.0211    1.7369    2.0359 N   0  0  0  0  0  0  0  0  0  0  0  0
   -2.0807    1.1414   -1.4136 N   0  0  0  0  0  0  0  0  0  0  0  0
   -1.6497   -1.3003    0.2412 C   0  0  0  0  0  0  0  0  0  0  0  0
   -1.8191    0.0706    0.7404 C   0  0  0  0  0  0  0  0  0  0  0  0
   -1.0891   -3.4249   -0.0133 C   0  0  0  0  0  0  0  0  0  0  0  0
   -0.9444   -2.3666    0.8502 C   0  0  0  0  0  0  0  0  0  0  0  0
   -2.1144    2.2427    0.7368 C   0  0  0  0  0  0  0  0  0  0  0  0
   -0.5984   -4.8115    0.0400 C   0  0  0  0  0  0  0  0  0  0  0  0
    2.2877    0.1114   -0.3551 C   0  0  0  0  0  0  0  0  0  0  0  0
   -0.9432    1.2492   -2.0198 C   0  0  0  0  0  0  0  0  0  0  0  0
    1.0047    0.2149   -1.0324 C   0  0  0  0  0  0  0  0  0  0  0  0
    0.3635    1.3687   -1.3156 C   0  0  0  0  0  0  0  0  0  0  0  0
    3.4699    0.1299   -1.0954 C   0  0  0  0  0  0  0  0  0  0  0  0
    2.3363   -0.0070    1.0339 C   0  0  0  0  0  0  0  0  0  0  0  0
    4.7008    0.0303   -0.4465 C   0  0  0  0  0  0  0  0  0  0  0  0
    3.5672   -0.1068    1.6826 C   0  0  0  0  0  0  0  0  0  0  0  0
    4.7496   -0.0878    0.9426 C   0  0  0  0  0  0  0  0  0  0  0  0
   -0.4056   -2.3622    1.7869 H   0  0  0  0  0  0  0  0  0  0  0  0
   -2.1464   -3.4626   -1.8750 H   0  0  0  0  0  0  0  0  0  0  0  0
   -1.4335   -5.5192    0.0306 H   0  0  0  0  0  0  0  0  0  0  0  0
    0.0461   -5.0278   -0.8181 H   0  0  0  0  0  0  0  0  0  0  0  0
   -0.0169   -4.9895    0.9503 H   0  0  0  0  0  0  0  0  0  0  0  0
   -2.0758    2.2332    2.9161 H   0  0  0  0  0  0  0  0  0  0  0  0
   -0.9004    1.2737   -3.1206 H   0  0  0  0  0  0  0  0  0  0  0  0
    0.5907   -0.7363   -1.3542 H   0  0  0  0  0  0  0  0  0  0  0  0
    3.4488    0.2208   -2.1787 H   0  0  0  0  0  0  0  0  0  0  0  0
    1.4243   -0.0218    1.6255 H   0  0  0  0  0  0  0  0  0  0  0  0
    5.6212    0.0448   -1.0228 H   0  0  0  0  0  0  0  0  0  0  0  0
    3.6050   -0.1986    2.7641 H   0  0  0  0  0  0  0  0  0  0  0  0
    5.7078   -0.1653    1.4478 H   0  0  0  0  0  0  0  0  0  0  0  0
  1 18  1  0  0  0  0
  2 13  2  0  0  0  0
  3  8  1  0  0  0  0
  3 10  1  0  0  0  0
  3 13  1  0  0  0  0
  4  5  1  0  0  0  0
  4 11  1  0  0  0  0
  4 25  1  0  0  0  0
  5  9  2  0  0  0  0
  6  7  1  0  0  0  0
  6 10  2  0  0  0  0
  7 13  1  0  0  0  0
  7 29  1  0  0  0  0
  8 16  2  0  0  0  0
  9 10  1  0  0  0  0
  9 12  1  0  0  0  0
 11 12  2  0  0  0  0
 11 14  1  0  0  0  0
 12 24  1  0  0  0  0
 14 26  1  0  0  0  0
 14 27  1  0  0  0  0
 14 28  1  0  0  0  0
 15 17  1  0  0  0  0
 15 19  2  0  0  0  0
 15 20  1  0  0  0  0
 16 18  1  0  0  0  0
 16 30  1  0  0  0  0
 17 18  2  0  0  0  0
 17 31  1  0  0  0  0
 19 21  1  0  0  0  0
 19 32  1  0  0  0  0
 20 22  2  0  0  0  0
 20 33  1  0  0  0  0
 21 23  2  0  0  0  0
 21 34  1  0  0  0  0
 22 23  1  0  0  0  0
 22 35  1  0  0  0  0
 23 36  1  0  0  0  0
M  END
> <PUBCHEM_COMPOUND_CID>
6866727

> <PUBCHEM_CONFORMER_RMSD>
0.6

> <PUBCHEM_CONFORMER_DIVERSEORDER>
1
4
9
10
8
6
2
3
5
7

> <PUBCHEM_MMFF94_PARTIAL_CHARGES>
33
1 -0.11
10 0.6
11 -0.33
12 -0.15
13 0.5
14 0.18
15 0.03
16 0.38
17 -0.18
18 0.12
19 -0.15
2 -0.38
20 -0.15
21 -0.15
22 -0.15
23 -0.15
24 0.15
25 0.27
29 0.37
3 -0.06
30 0.06
31 0.15
32 0.15
33 0.15
34 0.15
35 0.15
36 0.15
4 0.3
5 -0.71
6 -0.51
7 -0.37
8 -0.51
9 0.2

> <PUBCHEM_EFFECTIVE_ROTOR_COUNT>
4

> <PUBCHEM_PHARMACOPHORE_FEATURES>
10
1 1 hydrophobe
1 2 acceptor
1 4 donor
1 5 acceptor
1 7 donor
1 8 acceptor
3 3 6 10 cation
5 3 6 7 10 13 rings
5 4 5 9 11 12 rings
6 15 19 20 21 22 23 rings

> <PUBCHEM_HEAVY_ATOM_COUNT>
23

> <PUBCHEM_ATOM_DEF_STEREO_COUNT>
0

> <PUBCHEM_ATOM_UDEF_STEREO_COUNT>
0

> <PUBCHEM_BOND_DEF_STEREO_COUNT>
2

> <PUBCHEM_BOND_UDEF_STEREO_COUNT>
0

> <PUBCHEM_ISOTOPIC_ATOM_COUNT>
0

> <PUBCHEM_COMPONENT_COUNT>
1

> <PUBCHEM_CACTVS_TAUTO_COUNT>
9

> <PUBCHEM_CONFORMER_ID>
0068C72700000001

> <PUBCHEM_MMFF94_ENERGY>
82.9542

> <PUBCHEM_FEATURE_SELFOVERLAP>
50.748

> <PUBCHEM_SHAPE_FINGERPRINT>
10366900 7 17775283910939136518
11552529 35 18270676593148625434
11578080 2 17973149910223955837
12156800 1 14717426522262294490
12173636 292 18341046294439332232
12539773 59 18041269976791216896
12553582 1 18115869775210229742
12596599 1 18339085986072597356
12633257 1 18130518512586410072
12788726 201 18338238283628608207
12839892 36 18192740915527678097
13004483 165 18194681690393601903
13083527 12 17469296585255325680
13140716 1 18048323528498687682
133893 2 17543335073838885559
14081887 123 18268413810924021728
14142880 1 18336257934438457697
20600515 1 17759202530916971546
20602899 9 18264746831859736863
20775438 99 15889098424156318890
20775530 9 17760364796492010846
21421861 104 17114964729683092851
21452121 199 17762894768330678218
23419403 2 17335573920834211037
23728640 28 18335423456367506411
257057 1 17833548272971627575
3027735 51 18339343219769190927
35225 105 18058713737345267802
5265222 85 18048906017213348774
81228 2 18057622021341746155

> <PUBCHEM_SHAPE_MULTIPOLES>
453.23
6.09
4.85
1.76
9.28
4.27
-0.24
-1.64
-1.53
-4.73
0.48
-0.2
-0.61
-0.95

> <PUBCHEM_SHAPE_SELFOVERLAP>
958.092

> <PUBCHEM_SHAPE_VOLUME>
260

> <PUBCHEM_COORDINATE_TYPE>
2
5
10

$$$$
