1734089
  -OEChem-01171809393D

 34 35  0     0  0  0  0  0  0999 V2000
    0.7767   -0.8839    1.0897 O   0  0  0  0  0  0  0  0  0  0  0  0
    1.2420    2.3417    0.1292 O   0  0  0  0  0  0  0  0  0  0  0  0
   -2.1530   -3.4600   -0.0461 O   0  5  0  0  0  0  0  0  0  0  0  0
   -0.1292   -3.1342    0.7393 O   0  0  0  0  0  0  0  0  0  0  0  0
   -4.2574    2.3188   -0.8660 O   0  5  0  0  0  0  0  0  0  0  0  0
   -4.9793    0.2646   -1.1453 O   0  0  0  0  0  0  0  0  0  0  0  0
   -1.2249   -2.6981    0.3140 N   0  3  0  0  0  0  0  0  0  0  0  0
   -4.0880    1.0774   -0.7997 N   0  3  0  0  0  0  0  0  0  0  0  0
    0.4217    2.3304    2.2705 N   0  0  0  0  0  0  0  0  0  0  0  0
   -0.4157   -0.4070    0.6263 C   0  0  0  0  0  0  0  0  0  0  0  0
   -0.6267    0.9693    0.5430 C   0  0  0  0  0  0  0  0  0  0  0  0
   -1.4214   -1.2915    0.2369 C   0  0  0  0  0  0  0  0  0  0  0  0
   -1.8434    1.4611    0.0703 C   0  0  0  0  0  0  0  0  0  0  0  0
   -2.8491    0.5766   -0.3192 C   0  0  0  0  0  0  0  0  0  0  0  0
   -2.6382   -0.7998   -0.2360 C   0  0  0  0  0  0  0  0  0  0  0  0
    1.9193   -0.5338    0.3938 C   0  0  0  0  0  0  0  0  0  0  0  0
    4.2058    0.1645   -1.0008 C   0  0  0  0  0  0  0  0  0  0  0  0
    1.9167   -0.6075   -0.9884 C   0  0  0  0  0  0  0  0  0  0  0  0
    3.0382   -0.1194    1.0951 C   0  0  0  0  0  0  0  0  0  0  0  0
    0.4088    1.9119    0.9443 C   0  0  0  0  0  0  0  0  0  0  0  0
    3.0691   -0.2555   -1.6912 C   0  0  0  0  0  0  0  0  0  0  0  0
    4.1905    0.2327    0.3923 C   0  0  0  0  0  0  0  0  0  0  0  0
    5.4376    0.5417   -1.7519 C   0  0  0  0  0  0  0  0  0  0  0  0
   -1.9842    2.5384    0.0142 H   0  0  0  0  0  0  0  0  0  0  0  0
   -3.4242   -1.4869   -0.5404 H   0  0  0  0  0  0  0  0  0  0  0  0
    1.0520   -0.9490   -1.5492 H   0  0  0  0  0  0  0  0  0  0  0  0
    3.0277   -0.0659    2.1796 H   0  0  0  0  0  0  0  0  0  0  0  0
    3.0706   -0.3179   -2.7762 H   0  0  0  0  0  0  0  0  0  0  0  0
    5.0703    0.5571    0.9416 H   0  0  0  0  0  0  0  0  0  0  0  0
    5.1903    0.9489   -2.7382 H   0  0  0  0  0  0  0  0  0  0  0  0
    6.0038    1.3139   -1.2198 H   0  0  0  0  0  0  0  0  0  0  0  0
    6.0795   -0.3347   -1.8853 H   0  0  0  0  0  0  0  0  0  0  0  0
   -0.2553    1.9949    2.9482 H   0  0  0  0  0  0  0  0  0  0  0  0
    1.1176    2.9897    2.6027 H   0  0  0  0  0  0  0  0  0  0  0  0
  1 10  1  0  0  0  0
  1 16  1  0  0  0  0
  2 20  2  0  0  0  0
  3  7  1  0  0  0  0
  4  7  2  0  0  0  0
  5  8  1  0  0  0  0
  6  8  2  0  0  0  0
  7 12  1  0  0  0  0
  8 14  1  0  0  0  0
  9 20  1  0  0  0  0
  9 33  1  0  0  0  0
  9 34  1  0  0  0  0
 10 11  2  0  0  0  0
 10 12  1  0  0  0  0
 11 13  1  0  0  0  0
 11 20  1  0  0  0  0
 12 15  2  0  0  0  0
 13 14  2  0  0  0  0
 13 24  1  0  0  0  0
 14 15  1  0  0  0  0
 15 25  1  0  0  0  0
 16 18  2  0  0  0  0
 16 19  1  0  0  0  0
 17 21  2  0  0  0  0
 17 22  1  0  0  0  0
 17 23  1  0  0  0  0
 18 21  1  0  0  0  0
 18 26  1  0  0  0  0
 19 22  2  0  0  0  0
 19 27  1  0  0  0  0
 21 28  1  0  0  0  0
 22 29  1  0  0  0  0
 23 30  1  0  0  0  0
 23 31  1  0  0  0  0
 23 32  1  0  0  0  0
M  CHG  4   3  -1   5  -1   7   1   8   1
M  END
> <PUBCHEM_COMPOUND_CID>
1734089

> <PUBCHEM_CONFORMER_RMSD>
0.8

> <PUBCHEM_CONFORMER_DIVERSEORDER>
1
2
3
4

> <PUBCHEM_MMFF94_PARTIAL_CHARGES>
31
1 -0.17
10 0.08
11 0.09
12 0.13
13 -0.15
14 0.13
15 -0.15
16 0.08
17 -0.14
18 -0.15
19 -0.15
2 -0.57
20 0.54
21 -0.15
22 -0.15
23 0.14
24 0.15
25 0.15
26 0.15
27 0.15
28 0.15
29 0.15
3 -0.52
33 0.37
34 0.37
4 -0.52
5 -0.52
6 -0.52
7 0.91
8 0.91
9 -0.8

> <PUBCHEM_EFFECTIVE_ROTOR_COUNT>
5

> <PUBCHEM_PHARMACOPHORE_FEATURES>
11
1 1 acceptor
1 2 acceptor
1 3 acceptor
1 3 anion
1 4 acceptor
1 5 acceptor
1 5 anion
1 6 acceptor
1 9 donor
6 10 11 12 13 14 15 rings
6 16 17 18 19 21 22 rings

> <PUBCHEM_HEAVY_ATOM_COUNT>
23

> <PUBCHEM_ATOM_DEF_STEREO_COUNT>
0

> <PUBCHEM_ATOM_UDEF_STEREO_COUNT>
0

> <PUBCHEM_BOND_DEF_STEREO_COUNT>
0

> <PUBCHEM_BOND_UDEF_STEREO_COUNT>
0

> <PUBCHEM_ISOTOPIC_ATOM_COUNT>
0

> <PUBCHEM_COMPONENT_COUNT>
1

> <PUBCHEM_CACTVS_TAUTO_COUNT>
2

> <PUBCHEM_CONFORMER_ID>
001A75C900000001

> <PUBCHEM_MMFF94_ENERGY>
92.5954

> <PUBCHEM_FEATURE_SELFOVERLAP>
56.012

> <PUBCHEM_SHAPE_FINGERPRINT>
10366900 7 17703518709948471508
10498660 4 18411709807123896108
10759866 29 17967813817069302962
10906281 52 18131641101147755552
11578080 2 17317846422072228364
11640471 11 17603599521095381748
11796584 16 14476952377254546605
11961588 58 18114177583453680372
12236239 1 17676485051947866250
12293681 160 18271527477087143760
12403814 3 17022897939400579373
12714826 92 18191040073333045123
12788726 201 18058735689086895048
13140716 1 18196089061267245995
13149001 5 18270392905630650617
13583140 156 17095819788032509496
14115302 16 18334858324787060964
14790565 3 18267593403319984457
15375358 24 18201994439256187640
16752209 62 18339922593656011096
16945 1 18410015437560626992
17357779 13 17632305570689408912
17492 54 18260830384310825445
1813 80 13758080714136641360
200 152 15482673451029970006
20600515 1 18268970090777694160
20645476 183 18113340820829736527
20871999 31 18342463637931170261
21069387 34 15554447426654521815
22182313 1 17985262121809315416
23227448 37 18263084473447691716
23402539 116 18342727491089620998
23419403 2 17487615453637602218
23557571 272 18270685410731918794
23559900 14 18342741810980071158
23566358 2 18124318473912863324
2748010 2 18051403265195118235
298252 57 18040999509820713521
350125 39 18336269033161120561
3759504 43 17894635859268896091
394222 165 17751357274855481171
465052 167 11095583637821909997
56616090 284 18060424569011514102
57724786 102 14924522956764992252
81228 2 17916599626394194072
9709674 26 18056186101936537109

> <PUBCHEM_SHAPE_MULTIPOLES>
423.17
8.4
2.77
1.47
2.37
1.54
-0.02
-2.24
5.39
-2.49
-0.82
0.98
-0.51
0.58

> <PUBCHEM_SHAPE_SELFOVERLAP>
924.521

> <PUBCHEM_SHAPE_VOLUME>
229.1

> <PUBCHEM_COORDINATE_TYPE>
2
5
10

$$$$
