1489050
  -OEChem-01171809273D

 41 44  0     0  0  0  0  0  0999 V2000
    1.2662    1.1310    1.6819 S   0  0  0  0  0  0  0  0  0  0  0  0
   -1.2784    1.7890    1.4690 O   0  0  0  0  0  0  0  0  0  0  0  0
    4.5390    1.6688    0.6674 O   0  0  0  0  0  0  0  0  0  0  0  0
    2.0598    1.8149   -2.0543 N   0  0  0  0  0  0  0  0  0  0  0  0
   -1.6480    2.7288   -2.1732 N   0  0  0  0  0  0  0  0  0  0  0  0
   -3.2204   -1.0940    0.2813 C   0  0  0  0  0  0  0  0  0  0  0  0
   -4.4966   -0.5012    0.1317 C   0  0  0  0  0  0  0  0  0  0  0  0
   -2.3289    1.0416    1.0318 C   0  0  0  0  0  0  0  0  0  0  0  0
   -2.1469   -0.3089    0.7325 C   0  0  0  0  0  0  0  0  0  0  0  0
    2.2378    1.2279    0.2753 C   0  0  0  0  0  0  0  0  0  0  0  0
   -0.0727    1.6568    0.8012 C   0  0  0  0  0  0  0  0  0  0  0  0
    1.5204    1.6553   -0.8203 C   0  0  0  0  0  0  0  0  0  0  0  0
   -4.6618    0.8594    0.4382 C   0  0  0  0  0  0  0  0  0  0  0  0
    0.1548    1.9067   -0.5005 C   0  0  0  0  0  0  0  0  0  0  0  0
   -3.5841    1.6246    0.8851 C   0  0  0  0  0  0  0  0  0  0  0  0
   -3.0549   -2.4547   -0.0246 C   0  0  0  0  0  0  0  0  0  0  0  0
   -5.5700   -1.2864   -0.3195 C   0  0  0  0  0  0  0  0  0  0  0  0
    3.6187    0.8743    0.3751 C   0  0  0  0  0  0  0  0  0  0  0  0
    4.0836   -0.5330    0.1462 C   0  0  0  0  0  0  0  0  0  0  0  0
   -4.1325   -3.2197   -0.4721 C   0  0  0  0  0  0  0  0  0  0  0  0
   -5.3875   -2.6367   -0.6193 C   0  0  0  0  0  0  0  0  0  0  0  0
    3.1489   -1.4836   -0.1803 C   0  0  0  0  0  0  0  0  0  0  0  0
    5.4228   -0.8059    0.2741 C   0  0  0  0  0  0  0  0  0  0  0  0
    3.5813   -2.7927   -0.3928 C   0  0  0  0  0  0  0  0  0  0  0  0
    5.8553   -2.1148    0.0615 C   0  0  0  0  0  0  0  0  0  0  0  0
    4.9346   -3.1082   -0.2718 C   0  0  0  0  0  0  0  0  0  0  0  0
   -0.8405    2.3606   -1.4238 C   0  0  0  0  0  0  0  0  0  0  0  0
   -1.1736   -0.7778    0.8626 H   0  0  0  0  0  0  0  0  0  0  0  0
   -5.6339    1.3362    0.3305 H   0  0  0  0  0  0  0  0  0  0  0  0
   -3.7314    2.6760    1.1165 H   0  0  0  0  0  0  0  0  0  0  0  0
   -2.0829   -2.9316    0.0826 H   0  0  0  0  0  0  0  0  0  0  0  0
   -6.5599   -0.8517   -0.4419 H   0  0  0  0  0  0  0  0  0  0  0  0
   -3.9911   -4.2710   -0.7056 H   0  0  0  0  0  0  0  0  0  0  0  0
   -6.2259   -3.2329   -0.9677 H   0  0  0  0  0  0  0  0  0  0  0  0
    2.0897   -1.2800   -0.2880 H   0  0  0  0  0  0  0  0  0  0  0  0
    6.1623   -0.0550    0.5323 H   0  0  0  0  0  0  0  0  0  0  0  0
    3.0377    1.6261   -2.2538 H   0  0  0  0  0  0  0  0  0  0  0  0
    1.5188    2.1306   -2.8537 H   0  0  0  0  0  0  0  0  0  0  0  0
    2.8649   -3.5663   -0.6533 H   0  0  0  0  0  0  0  0  0  0  0  0
    6.9090   -2.3611    0.1555 H   0  0  0  0  0  0  0  0  0  0  0  0
    5.2714   -4.1273   -0.4375 H   0  0  0  0  0  0  0  0  0  0  0  0
  1 10  1  0  0  0  0
  1 11  1  0  0  0  0
  2  8  1  0  0  0  0
  2 11  1  0  0  0  0
  3 18  2  0  0  0  0
  4 12  1  0  0  0  0
  4 37  1  0  0  0  0
  4 38  1  0  0  0  0
  5 27  3  0  0  0  0
  6  7  1  0  0  0  0
  6  9  1  0  0  0  0
  6 16  2  0  0  0  0
  7 13  1  0  0  0  0
  7 17  2  0  0  0  0
  8  9  2  0  0  0  0
  8 15  1  0  0  0  0
  9 28  1  0  0  0  0
 10 12  2  0  0  0  0
 10 18  1  0  0  0  0
 11 14  2  0  0  0  0
 12 14  1  0  0  0  0
 13 15  2  0  0  0  0
 13 29  1  0  0  0  0
 14 27  1  0  0  0  0
 15 30  1  0  0  0  0
 16 20  1  0  0  0  0
 16 31  1  0  0  0  0
 17 21  1  0  0  0  0
 17 32  1  0  0  0  0
 18 19  1  0  0  0  0
 19 22  2  0  0  0  0
 19 23  1  0  0  0  0
 20 21  2  0  0  0  0
 20 33  1  0  0  0  0
 21 34  1  0  0  0  0
 22 24  1  0  0  0  0
 22 35  1  0  0  0  0
 23 25  2  0  0  0  0
 23 36  1  0  0  0  0
 24 26  2  0  0  0  0
 24 39  1  0  0  0  0
 25 26  1  0  0  0  0
 25 40  1  0  0  0  0
 26 41  1  0  0  0  0
M  END
> <PUBCHEM_COMPOUND_CID>
1489050

> <PUBCHEM_CONFORMER_RMSD>
0.8

> <PUBCHEM_CONFORMER_DIVERSEORDER>
1
21
15
9
25
23
10
16
22
2
24
12
11
26
13
14
4
6
5
19
7
20
3
18
8
17

> <PUBCHEM_MMFF94_PARTIAL_CHARGES>
39
1 -0.08
10 -0.05
11 0.1
12 0.08
13 -0.15
14 0.02
15 -0.15
16 -0.15
17 -0.15
18 0.57
19 0.09
2 -0.15
20 -0.15
21 -0.15
22 -0.15
23 -0.15
24 -0.15
25 -0.15
26 -0.15
27 0.54
28 0.15
29 0.15
3 -0.57
30 0.15
31 0.15
32 0.15
33 0.15
34 0.15
35 0.15
36 0.15
37 0.4
38 0.4
39 0.15
4 -0.88
40 0.15
41 0.15
5 -0.56
8 0.08
9 -0.15

> <PUBCHEM_EFFECTIVE_ROTOR_COUNT>
4

> <PUBCHEM_PHARMACOPHORE_FEATURES>
9
1 2 acceptor
1 3 acceptor
1 4 cation
1 4 donor
1 5 acceptor
5 1 10 11 12 14 rings
6 19 22 23 24 25 26 rings
6 6 7 16 17 20 21 rings
6 6 7 8 9 13 15 rings

> <PUBCHEM_HEAVY_ATOM_COUNT>
27

> <PUBCHEM_ATOM_DEF_STEREO_COUNT>
0

> <PUBCHEM_ATOM_UDEF_STEREO_COUNT>
0

> <PUBCHEM_BOND_DEF_STEREO_COUNT>
0

> <PUBCHEM_BOND_UDEF_STEREO_COUNT>
0

> <PUBCHEM_ISOTOPIC_ATOM_COUNT>
0

> <PUBCHEM_COMPONENT_COUNT>
1

> <PUBCHEM_CACTVS_TAUTO_COUNT>
3

> <PUBCHEM_CONFORMER_ID>
0016B89A00000001

> <PUBCHEM_MMFF94_ENERGY>
87.369

> <PUBCHEM_FEATURE_SELFOVERLAP>
45.698

> <PUBCHEM_SHAPE_FINGERPRINT>
10042902 136 18411709768237270494
10693767 8 17627208389998871215
117089 54 18119259604061645419
11796584 16 18131078090716326761
12107183 9 18127139584621624465
13533116 47 18271805773793005091
13583140 156 17417799669314544112
14251751 18 18411419488187076198
14429115 67 18412831312667447183
1454969 45 18263085565229169220
14848178 5 18412258454213859311
14910302 57 18338505374633562305
15250474 111 18341617022615397826
15352361 1 18342176665391442226
15361156 5 18114760243402588172
17492 89 18193278718237136251
17857418 61 18342739615291927634
1813 80 17748828514123426012
19141452 34 18339085865212314985
19958102 18 18336817650703381703
20028762 73 18272087167804621334
20775530 9 18411131446195340179
22620623 9 17750227019752177229
23559900 14 18272361014481194745
244849 19 17914302797716492936
25222932 49 17487330688536477614
3004659 81 18335698360039161474
354706 109 18128512938858508555
439807 62 18339926021726027091
4435113 14 16525258165296280123
46194498 28 17532085171363382871
463206 1 18408611369812857074
5081480 168 15719400563663981919
5104073 3 17704076200333984545
5326457 24 18411140272484359047
66674814 147 18187641452916820650
7970288 3 17981884456755312207

> <PUBCHEM_SHAPE_MULTIPOLES>
537.8
13.36
3.93
1.35
2.66
2.06
0.4
12.1
-0.17
-0.24
1.13
-0.17
-1.22
-0.38

> <PUBCHEM_SHAPE_SELFOVERLAP>
1195.252

> <PUBCHEM_SHAPE_VOLUME>
286.5

> <PUBCHEM_COORDINATE_TYPE>
2
5
10

$$$$
