4247523
  -OEChem-01171809403D

 49 53  0     0  0  0  0  0  0999 V2000
   -2.7766   -1.6346    0.7681 O   0  0  0  0  0  0  0  0  0  0  0  0
   -6.8037   -1.4649   -0.8388 O   0  5  0  0  0  0  0  0  0  0  0  0
   -4.8221   -2.3271   -0.4362 O   0  0  0  0  0  0  0  0  0  0  0  0
    1.9415   -0.5647    0.2180 N   0  0  0  0  0  0  0  0  0  0  0  0
    0.9578    0.3137   -0.0437 N   0  0  0  0  0  0  0  0  0  0  0  0
   -1.4193    0.1504    0.1049 N   0  0  0  0  0  0  0  0  0  0  0  0
   -3.7089    1.6645    0.3707 N   0  0  0  0  0  0  0  0  0  0  0  0
   -4.9511    2.1031    0.1053 N   0  0  0  0  0  0  0  0  0  0  0  0
   -5.5942   -1.3329   -0.5076 N   0  3  0  0  0  0  0  0  0  0  0  0
    3.3177   -0.1765    0.0315 C   0  0  0  0  0  0  0  0  0  0  0  0
    5.4968   -0.6669   -1.2109 C   0  0  0  0  0  0  0  0  0  0  0  0
    4.9036    1.7147   -0.6329 C   0  0  0  0  0  0  0  0  0  0  0  0
    5.5991    0.1146    1.1734 C   0  0  0  0  0  0  0  0  0  0  0  0
    4.0299   -1.0874   -1.0138 C   0  0  0  0  0  0  0  0  0  0  0  0
    3.4334    1.3072   -0.4319 C   0  0  0  0  0  0  0  0  0  0  0  0
    4.1292   -0.2977    1.3631 C   0  0  0  0  0  0  0  0  0  0  0  0
    5.5465    0.7950   -1.6842 C   0  0  0  0  0  0  0  0  0  0  0  0
    6.2474   -0.7957    0.1216 C   0  0  0  0  0  0  0  0  0  0  0  0
    5.6578    1.5721    0.6960 C   0  0  0  0  0  0  0  0  0  0  0  0
    1.4932   -1.7790    0.6504 C   0  0  0  0  0  0  0  0  0  0  0  0
    0.1228   -1.6881    0.6729 C   0  0  0  0  0  0  0  0  0  0  0  0
   -0.1501   -0.3780    0.2359 C   0  0  0  0  0  0  0  0  0  0  0  0
   -2.6466   -0.4813    0.3688 C   0  0  0  0  0  0  0  0  0  0  0  0
   -3.8338    0.3678    0.1700 C   0  0  0  0  0  0  0  0  0  0  0  0
   -5.0973   -0.0530   -0.2125 C   0  0  0  0  0  0  0  0  0  0  0  0
   -5.8210    1.1140   -0.2489 C   0  0  0  0  0  0  0  0  0  0  0  0
   -5.2521    3.5108    0.2106 C   0  0  0  0  0  0  0  0  0  0  0  0
    5.9657   -1.3128   -1.9618 H   0  0  0  0  0  0  0  0  0  0  0  0
    4.9530    2.7548   -0.9744 H   0  0  0  0  0  0  0  0  0  0  0  0
    6.1342    0.0174    2.1247 H   0  0  0  0  0  0  0  0  0  0  0  0
    3.4992   -1.0337   -1.9739 H   0  0  0  0  0  0  0  0  0  0  0  0
    3.9948   -2.1392   -0.7016 H   0  0  0  0  0  0  0  0  0  0  0  0
    2.9733    1.9810    0.3037 H   0  0  0  0  0  0  0  0  0  0  0  0
    2.8960    1.4554   -1.3786 H   0  0  0  0  0  0  0  0  0  0  0  0
    4.0935   -1.3273    1.7428 H   0  0  0  0  0  0  0  0  0  0  0  0
    3.6668    0.3284    2.1382 H   0  0  0  0  0  0  0  0  0  0  0  0
    6.5871    1.0962   -1.8569 H   0  0  0  0  0  0  0  0  0  0  0  0
    5.0230    0.8972   -2.6427 H   0  0  0  0  0  0  0  0  0  0  0  0
    6.2298   -1.8377    0.4638 H   0  0  0  0  0  0  0  0  0  0  0  0
    7.3012   -0.5228   -0.0130 H   0  0  0  0  0  0  0  0  0  0  0  0
    6.7019    1.8845    0.5709 H   0  0  0  0  0  0  0  0  0  0  0  0
    5.2163    2.2333    1.4516 H   0  0  0  0  0  0  0  0  0  0  0  0
    2.1611   -2.5915    0.9012 H   0  0  0  0  0  0  0  0  0  0  0  0
   -0.5442   -2.4826    0.9701 H   0  0  0  0  0  0  0  0  0  0  0  0
   -1.4392    1.1147   -0.2178 H   0  0  0  0  0  0  0  0  0  0  0  0
   -6.8550    1.3231   -0.4900 H   0  0  0  0  0  0  0  0  0  0  0  0
   -5.0586    3.8276    1.2384 H   0  0  0  0  0  0  0  0  0  0  0  0
   -4.6089    4.0530   -0.4870 H   0  0  0  0  0  0  0  0  0  0  0  0
   -6.3020    3.6799   -0.0410 H   0  0  0  0  0  0  0  0  0  0  0  0
  1 23  2  0  0  0  0
  2  9  1  0  0  0  0
  3  9  2  0  0  0  0
  4  5  1  0  0  0  0
  4 10  1  0  0  0  0
  4 20  1  0  0  0  0
  5 22  2  0  0  0  0
  6 22  1  0  0  0  0
  6 23  1  0  0  0  0
  6 45  1  0  0  0  0
  7  8  1  0  0  0  0
  7 24  2  0  0  0  0
  8 26  1  0  0  0  0
  8 27  1  0  0  0  0
  9 25  1  0  0  0  0
 10 14  1  0  0  0  0
 10 15  1  0  0  0  0
 10 16  1  0  0  0  0
 11 14  1  0  0  0  0
 11 17  1  0  0  0  0
 11 18  1  0  0  0  0
 11 28  1  0  0  0  0
 12 15  1  0  0  0  0
 12 17  1  0  0  0  0
 12 19  1  0  0  0  0
 12 29  1  0  0  0  0
 13 16  1  0  0  0  0
 13 18  1  0  0  0  0
 13 19  1  0  0  0  0
 13 30  1  0  0  0  0
 14 31  1  0  0  0  0
 14 32  1  0  0  0  0
 15 33  1  0  0  0  0
 15 34  1  0  0  0  0
 16 35  1  0  0  0  0
 16 36  1  0  0  0  0
 17 37  1  0  0  0  0
 17 38  1  0  0  0  0
 18 39  1  0  0  0  0
 18 40  1  0  0  0  0
 19 41  1  0  0  0  0
 19 42  1  0  0  0  0
 20 21  2  0  0  0  0
 20 43  1  0  0  0  0
 21 22  1  0  0  0  0
 21 44  1  0  0  0  0
 23 24  1  0  0  0  0
 24 25  1  0  0  0  0
 25 26  2  0  0  0  0
 26 46  1  0  0  0  0
 27 47  1  0  0  0  0
 27 48  1  0  0  0  0
 27 49  1  0  0  0  0
M  CHG  2   2  -1   9   1
M  END
> <PUBCHEM_COMPOUND_CID>
4247523

> <PUBCHEM_CONFORMER_RMSD>
0.8

> <PUBCHEM_CONFORMER_DIVERSEORDER>
1
9
6
7
4
8
2
3
5

> <PUBCHEM_MMFF94_PARTIAL_CHARGES>
22
1 -0.57
10 0.26
2 -0.52
20 -0.3
21 -0.15
22 0.35
23 0.72
24 0.2
25 0.08
26 -0.3
27 0.26
3 -0.52
4 0.31
43 0.15
44 0.15
45 0.37
46 0.15
5 -0.71
6 -0.49
7 -0.71
8 0.31
9 0.96

> <PUBCHEM_EFFECTIVE_ROTOR_COUNT>
6.2

> <PUBCHEM_PHARMACOPHORE_FEATURES>
12
1 1 acceptor
1 2 acceptor
1 2 anion
1 3 acceptor
1 6 donor
1 7 acceptor
5 4 5 20 21 22 rings
5 7 8 24 25 26 rings
6 10 11 12 14 15 17 rings
6 10 11 13 14 16 18 rings
6 10 12 13 15 16 19 rings
6 11 12 13 17 18 19 rings

> <PUBCHEM_HEAVY_ATOM_COUNT>
27

> <PUBCHEM_ATOM_DEF_STEREO_COUNT>
0

> <PUBCHEM_ATOM_UDEF_STEREO_COUNT>
0

> <PUBCHEM_BOND_DEF_STEREO_COUNT>
0

> <PUBCHEM_BOND_UDEF_STEREO_COUNT>
0

> <PUBCHEM_ISOTOPIC_ATOM_COUNT>
0

> <PUBCHEM_COMPONENT_COUNT>
1

> <PUBCHEM_CACTVS_TAUTO_COUNT>
3

> <PUBCHEM_CONFORMER_ID>
0040CFE300000001

> <PUBCHEM_MMFF94_ENERGY>
60.6006

> <PUBCHEM_FEATURE_SELFOVERLAP>
73.468

> <PUBCHEM_SHAPE_FINGERPRINT>
10595046 47 18409164420156616163
11089746 13 18187082854044078160
11524674 6 15554449630806494255
12107183 9 17831290606432914219
12166972 35 18409732888885004744
12236239 1 18410854360637665526
12516196 113 18060701710118524081
13167372 99 18335420132453423720
13533116 47 16805876304625163962
13631057 29 18340481275229805907
13690498 29 18059847420608648367
13785724 45 17684921407047484490
14251764 18 18040995159794354264
14528608 73 18408324393119819606
14933364 13 18272373066122009625
15183329 4 18040151820662760276
15352257 5 15697716004094675895
15419008 42 17843685452378426133
15537594 2 12319743557227477949
1577012 14 18260833687256804932
16992828 155 17751356184705097525
17780758 139 8862941672184743335
17844677 252 18343025505505568009
1813 80 13470692546585109306
18608769 82 18335989757403344923
19489759 90 18411981360567826019
20281389 69 17530682100095335309
20511986 3 18041826368730418739
20691028 202 17981889645060287313
21236236 1 18410573990184903251
21315763 129 18411980269155931504
22061861 79 16845858974979075012
22950370 63 10519988166524568394
2303208 19 17131834291484578319
23081809 10 18113057125396787618
23522609 53 17823721710127091004
23559900 14 18268983349605435153
23569914 152 16121072759711769197
23569914 2 17481090796978606312
24771293 8 18335982064779742524
2767999 5 17894628162439165870
2838139 119 18409445877631541936
3004659 81 18335423461495877824
312425 54 8286203846618165125
335352 9 18260551126597659502
34797466 226 17560806584176740156
394071 54 15936702548925896134
4073 2 18186808001612078338
4325135 7 18410853278838891023
465052 167 10809343326508986424
497634 4 18408321082375281181
504579 68 18339068329530460015
5104073 3 17968381130936026163
5283173 99 18341896272909663129
542803 24 17385726889446383570
59682541 52 17131271238472924308
6327066 14 18118960288354847685
999808 66 12750950092503170557

> <PUBCHEM_SHAPE_MULTIPOLES>
508.15
19.46
2.39
1.08
10.59
1.22
0.11
4.19
3.04
3.71
-0.07
-1.58
-0.06
-0.83

> <PUBCHEM_SHAPE_SELFOVERLAP>
1127.603

> <PUBCHEM_SHAPE_VOLUME>
265.6

> <PUBCHEM_COORDINATE_TYPE>
2
5
10

$$$$
