664340
  -OEChem-01171809163D

 39 41  0     0  0  0  0  0  0999 V2000
   -4.6012    0.9152   -0.8696 O   0  0  0  0  0  0  0  0  0  0  0  0
    1.7512   -2.4536   -0.4527 O   0  0  0  0  0  0  0  0  0  0  0  0
    0.3232   -4.2285   -0.2534 O   0  0  0  0  0  0  0  0  0  0  0  0
   -2.0913    0.5392    0.4190 N   0  0  0  0  0  0  0  0  0  0  0  0
   -1.2494   -0.0044    1.4829 C   0  0  0  0  0  0  0  0  0  0  0  0
   -2.7346   -0.5415   -0.3409 C   0  0  0  0  0  0  0  0  0  0  0  0
   -3.1106    1.4427    0.9707 C   0  0  0  0  0  0  0  0  0  0  0  0
   -0.2131   -0.8585    0.8128 C   0  0  0  0  0  0  0  0  0  0  0  0
   -3.6164    0.0503   -1.4367 C   0  0  0  0  0  0  0  0  0  0  0  0
   -3.9845    1.9873   -0.1557 C   0  0  0  0  0  0  0  0  0  0  0  0
    1.0639   -0.2667    0.3912 C   0  0  0  0  0  0  0  0  0  0  0  0
    2.0076   -1.0858   -0.2304 C   0  0  0  0  0  0  0  0  0  0  0  0
   -0.4294   -2.1624    0.5889 C   0  0  0  0  0  0  0  0  0  0  0  0
    1.3958    1.0821    0.5767 C   0  0  0  0  0  0  0  0  0  0  0  0
    2.6325    1.5798    0.1502 C   0  0  0  0  0  0  0  0  0  0  0  0
    3.2450   -0.6039   -0.6615 C   0  0  0  0  0  0  0  0  0  0  0  0
    3.5554    0.7380   -0.4682 C   0  0  0  0  0  0  0  0  0  0  0  0
    2.9648    3.0196    0.3592 C   0  0  0  0  0  0  0  0  0  0  0  0
    0.5565   -3.0397   -0.0648 C   0  0  0  0  0  0  0  0  0  0  0  0
    2.5346    3.8907   -0.8176 C   0  0  0  0  0  0  0  0  0  0  0  0
   -0.8047    0.7808    2.1023 H   0  0  0  0  0  0  0  0  0  0  0  0
   -1.8471   -0.6116    2.1781 H   0  0  0  0  0  0  0  0  0  0  0  0
   -3.3455   -1.1740    0.3160 H   0  0  0  0  0  0  0  0  0  0  0  0
   -2.0284   -1.1638   -0.8931 H   0  0  0  0  0  0  0  0  0  0  0  0
   -2.6336    2.2827    1.4884 H   0  0  0  0  0  0  0  0  0  0  0  0
   -3.7399    0.9091    1.6948 H   0  0  0  0  0  0  0  0  0  0  0  0
   -3.0268    0.6044   -2.1776 H   0  0  0  0  0  0  0  0  0  0  0  0
   -4.1438   -0.7503   -1.9658 H   0  0  0  0  0  0  0  0  0  0  0  0
   -4.7814    2.6122    0.2599 H   0  0  0  0  0  0  0  0  0  0  0  0
   -3.4066    2.6066   -0.8526 H   0  0  0  0  0  0  0  0  0  0  0  0
   -1.3487   -2.6452    0.9077 H   0  0  0  0  0  0  0  0  0  0  0  0
    0.7014    1.7769    1.0401 H   0  0  0  0  0  0  0  0  0  0  0  0
    3.9608   -1.2636   -1.1428 H   0  0  0  0  0  0  0  0  0  0  0  0
    4.5168    1.1173   -0.8038 H   0  0  0  0  0  0  0  0  0  0  0  0
    2.4877    3.3855    1.2771 H   0  0  0  0  0  0  0  0  0  0  0  0
    4.0439    3.1348    0.5217 H   0  0  0  0  0  0  0  0  0  0  0  0
    3.0302    3.5792   -1.7433 H   0  0  0  0  0  0  0  0  0  0  0  0
    2.7943    4.9369   -0.6280 H   0  0  0  0  0  0  0  0  0  0  0  0
    1.4528    3.8324   -0.9787 H   0  0  0  0  0  0  0  0  0  0  0  0
  1  9  1  0  0  0  0
  1 10  1  0  0  0  0
  2 12  1  0  0  0  0
  2 19  1  0  0  0  0
  3 19  2  0  0  0  0
  4  5  1  0  0  0  0
  4  6  1  0  0  0  0
  4  7  1  0  0  0  0
  5  8  1  0  0  0  0
  5 21  1  0  0  0  0
  5 22  1  0  0  0  0
  6  9  1  0  0  0  0
  6 23  1  0  0  0  0
  6 24  1  0  0  0  0
  7 10  1  0  0  0  0
  7 25  1  0  0  0  0
  7 26  1  0  0  0  0
  8 11  1  0  0  0  0
  8 13  2  0  0  0  0
  9 27  1  0  0  0  0
  9 28  1  0  0  0  0
 10 29  1  0  0  0  0
 10 30  1  0  0  0  0
 11 12  2  0  0  0  0
 11 14  1  0  0  0  0
 12 16  1  0  0  0  0
 13 19  1  0  0  0  0
 13 31  1  0  0  0  0
 14 15  2  0  0  0  0
 14 32  1  0  0  0  0
 15 17  1  0  0  0  0
 15 18  1  0  0  0  0
 16 17  2  0  0  0  0
 16 33  1  0  0  0  0
 17 34  1  0  0  0  0
 18 20  1  0  0  0  0
 18 35  1  0  0  0  0
 18 36  1  0  0  0  0
 20 37  1  0  0  0  0
 20 38  1  0  0  0  0
 20 39  1  0  0  0  0
M  END
> <PUBCHEM_COMPOUND_CID>
664340

> <PUBCHEM_CONFORMER_RMSD>
0.6

> <PUBCHEM_CONFORMER_DIVERSEORDER>
1
16
4
6
9
5
7
10
15
8
3
12
11
14
2
13

> <PUBCHEM_MMFF94_PARTIAL_CHARGES>
23
1 -0.56
10 0.28
11 0.03
12 0.08
13 -0.14
14 -0.15
15 -0.14
16 -0.15
17 -0.15
18 0.14
19 0.71
2 -0.23
3 -0.57
31 0.15
32 0.15
33 0.15
34 0.15
4 -0.81
5 0.41
6 0.27
7 0.27
8 -0.17
9 0.28

> <PUBCHEM_EFFECTIVE_ROTOR_COUNT>
4.2

> <PUBCHEM_PHARMACOPHORE_FEATURES>
7
1 1 acceptor
1 20 hydrophobe
1 3 acceptor
1 4 cation
6 1 4 6 7 9 10 rings
6 11 12 14 15 16 17 rings
6 2 8 11 12 13 19 rings

> <PUBCHEM_HEAVY_ATOM_COUNT>
20

> <PUBCHEM_ATOM_DEF_STEREO_COUNT>
0

> <PUBCHEM_ATOM_UDEF_STEREO_COUNT>
0

> <PUBCHEM_BOND_DEF_STEREO_COUNT>
0

> <PUBCHEM_BOND_UDEF_STEREO_COUNT>
0

> <PUBCHEM_ISOTOPIC_ATOM_COUNT>
0

> <PUBCHEM_COMPONENT_COUNT>
1

> <PUBCHEM_CACTVS_TAUTO_COUNT>
1

> <PUBCHEM_CONFORMER_ID>
000A231400000001

> <PUBCHEM_MMFF94_ENERGY>
61.0992

> <PUBCHEM_FEATURE_SELFOVERLAP>
35.547

> <PUBCHEM_SHAPE_FINGERPRINT>
10670039 82 16749605850648365940
10693767 8 17843121407335607398
10871710 139 16747918091213292604
11370993 70 18339635754149057412
116883 192 17042886789899520078
11725454 13 17531229665565280631
12173636 292 18194964264808061613
12403260 363 18338506564497570290
12730499 353 18335990792131370515
12788726 201 17469869447782387074
12892183 10 11602540918469312013
13009979 54 17127049002343447659
13134695 92 17970614200176066138
13583140 156 17531518910069414560
14250199 8 18339643343725573601
15210252 30 17825972337620309284
16945 1 18268158573449094898
17134986 127 18408884066087014568
18186145 218 18342185465736882888
192875 21 18341043017605859688
21524375 3 18259981604278457122
21639500 275 18337107869626799659
2255824 54 18340484465430008155
22749437 52 18265331887915475708
22907989 373 17619072075991072916
23558518 356 17901945567631979882
23598291 2 17700139802878000571
238 59 18411419501166930131
25 1 18335990757075462163
26353 1 17337621962962112454
2748010 2 18266478665947942610
3060560 45 18411415077461365742
350125 39 18193858130414698122
352729 6 18198913689443237330
4280585 95 17411912669459253758
474 4 18410291406626998145
6287921 2 18334869345863144381
633830 44 18130523975769141593
7832392 63 17908988703674434793
81228 2 17545890785343614722
84936 182 18273208694674640640
9981440 41 18194671799136667592

> <PUBCHEM_SHAPE_MULTIPOLES>
389
7.02
4.23
1.09
4.59
1.37
0.02
-6.15
-2.1
-2.61
-0.6
0.62
-0.19
0.07

> <PUBCHEM_SHAPE_SELFOVERLAP>
830.372

> <PUBCHEM_SHAPE_VOLUME>
215.9

> <PUBCHEM_COORDINATE_TYPE>
2
5
10

$$$$
