1432812
  -OEChem-01171809443D

 39 41  0     0  0  0  0  0  0999 V2000
    4.9061    1.0644   -0.1095 S   0  0  0  0  0  0  0  0  0  0  0  0
    7.6849    0.0734   -0.0409 O   0  0  0  0  0  0  0  0  0  0  0  0
   -1.5608   -0.8597    0.1008 N   0  0  0  0  0  0  0  0  0  0  0  0
   -1.9197    1.3226   -0.1200 N   0  0  0  0  0  0  0  0  0  0  0  0
    2.6227   -0.2616   -0.5487 N   0  0  0  0  0  0  0  0  0  0  0  0
   -2.9240   -0.7139    0.0724 C   0  0  0  0  0  0  0  0  0  0  0  0
   -3.1228    0.6569   -0.0660 C   0  0  0  0  0  0  0  0  0  0  0  0
   -5.2678   -1.1216    0.0889 C   0  0  0  0  0  0  0  0  0  0  0  0
   -5.4990    0.2490   -0.0498 C   0  0  0  0  0  0  0  0  0  0  0  0
   -3.9685   -1.6356    0.1533 C   0  0  0  0  0  0  0  0  0  0  0  0
   -1.0055    0.3840   -0.0174 C   0  0  0  0  0  0  0  0  0  0  0  0
   -4.4347    1.1559   -0.1291 C   0  0  0  0  0  0  0  0  0  0  0  0
    0.4231    0.5855   -0.0232 C   0  0  0  0  0  0  0  0  0  0  0  0
   -6.4135   -2.0795    0.1728 C   0  0  0  0  0  0  0  0  0  0  0  0
   -6.8945    0.7824   -0.1176 C   0  0  0  0  0  0  0  0  0  0  0  0
    0.9802    1.7609    0.4640 C   0  0  0  0  0  0  0  0  0  0  0  0
    1.2770   -0.3866   -0.5143 C   0  0  0  0  0  0  0  0  0  0  0  0
    2.3607    1.9265    0.4454 C   0  0  0  0  0  0  0  0  0  0  0  0
    3.1309    0.8948   -0.0668 C   0  0  0  0  0  0  0  0  0  0  0  0
    5.3772   -0.6706    0.0613 C   0  0  0  0  0  0  0  0  0  0  0  0
    6.8813   -0.8525    0.0584 C   0  0  0  0  0  0  0  0  0  0  0  0
    7.3667   -2.2747    0.1861 C   0  0  0  0  0  0  0  0  0  0  0  0
   -3.7706   -2.6966    0.2608 H   0  0  0  0  0  0  0  0  0  0  0  0
   -1.0670   -1.7365    0.2036 H   0  0  0  0  0  0  0  0  0  0  0  0
   -4.6059    2.2225   -0.2371 H   0  0  0  0  0  0  0  0  0  0  0  0
   -7.0218   -2.0345   -0.7363 H   0  0  0  0  0  0  0  0  0  0  0  0
   -6.0699   -3.1146    0.2790 H   0  0  0  0  0  0  0  0  0  0  0  0
   -7.0395   -1.8577    1.0432 H   0  0  0  0  0  0  0  0  0  0  0  0
   -6.9073    1.8727   -0.2255 H   0  0  0  0  0  0  0  0  0  0  0  0
   -7.4249    0.3674   -0.9807 H   0  0  0  0  0  0  0  0  0  0  0  0
   -7.4440    0.5436    0.7987 H   0  0  0  0  0  0  0  0  0  0  0  0
    0.3582    2.5575    0.8641 H   0  0  0  0  0  0  0  0  0  0  0  0
    0.9168   -1.3262   -0.9225 H   0  0  0  0  0  0  0  0  0  0  0  0
    2.8011    2.8426    0.8256 H   0  0  0  0  0  0  0  0  0  0  0  0
    4.9854   -1.0667    1.0033 H   0  0  0  0  0  0  0  0  0  0  0  0
    4.9805   -1.2499   -0.7782 H   0  0  0  0  0  0  0  0  0  0  0  0
    8.4601   -2.2940    0.1793 H   0  0  0  0  0  0  0  0  0  0  0  0
    7.0125   -2.6995    1.1286 H   0  0  0  0  0  0  0  0  0  0  0  0
    6.9980   -2.8649   -0.6565 H   0  0  0  0  0  0  0  0  0  0  0  0
  1 19  1  0  0  0  0
  1 20  1  0  0  0  0
  2 21  2  0  0  0  0
  3  6  1  0  0  0  0
  3 11  1  0  0  0  0
  3 24  1  0  0  0  0
  4  7  1  0  0  0  0
  4 11  2  0  0  0  0
  5 17  1  0  0  0  0
  5 19  2  0  0  0  0
  6  7  2  0  0  0  0
  6 10  1  0  0  0  0
  7 12  1  0  0  0  0
  8  9  1  0  0  0  0
  8 10  2  0  0  0  0
  8 14  1  0  0  0  0
  9 12  2  0  0  0  0
  9 15  1  0  0  0  0
 10 23  1  0  0  0  0
 11 13  1  0  0  0  0
 12 25  1  0  0  0  0
 13 16  1  0  0  0  0
 13 17  2  0  0  0  0
 14 26  1  0  0  0  0
 14 27  1  0  0  0  0
 14 28  1  0  0  0  0
 15 29  1  0  0  0  0
 15 30  1  0  0  0  0
 15 31  1  0  0  0  0
 16 18  2  0  0  0  0
 16 32  1  0  0  0  0
 17 33  1  0  0  0  0
 18 19  1  0  0  0  0
 18 34  1  0  0  0  0
 20 21  1  0  0  0  0
 20 35  1  0  0  0  0
 20 36  1  0  0  0  0
 21 22  1  0  0  0  0
 22 37  1  0  0  0  0
 22 38  1  0  0  0  0
 22 39  1  0  0  0  0
M  END
> <PUBCHEM_COMPOUND_CID>
1432812

> <PUBCHEM_CONFORMER_RMSD>
0.6

> <PUBCHEM_CONFORMER_DIVERSEORDER>
1
26
29
50
60
73
57
38
33
20
45
43
76
71
28
47
78
51
59
42
7
10
58
65
37
79
55
19
56
22
17
14
36
16
3
31
32
64
12
62
8
77
2
4
34
68
44
61
67
35
39
9
74
21
52
69
54
15
18
46
6
25
40
48
5
75
49
53
23
13
11
72
63
27
70
30
41
24
66

> <PUBCHEM_MMFF94_PARTIAL_CHARGES>
28
1 -0.33
10 -0.15
11 0.13
12 -0.15
13 0.05
14 0.14
15 0.14
16 -0.15
17 0.16
18 -0.15
19 0.41
2 -0.57
20 0.29
21 0.45
22 0.06
23 0.15
24 0.27
25 0.15
3 0.03
32 0.15
33 0.15
34 0.15
4 -0.57
5 -0.62
6 -0.15
7 0.23
8 -0.14
9 -0.14

> <PUBCHEM_EFFECTIVE_ROTOR_COUNT>
4

> <PUBCHEM_PHARMACOPHORE_FEATURES>
7
1 2 acceptor
1 3 donor
1 5 acceptor
3 3 4 11 cation
5 3 4 6 7 11 rings
6 5 13 16 17 18 19 rings
6 6 7 8 9 10 12 rings

> <PUBCHEM_HEAVY_ATOM_COUNT>
22

> <PUBCHEM_ATOM_DEF_STEREO_COUNT>
0

> <PUBCHEM_ATOM_UDEF_STEREO_COUNT>
0

> <PUBCHEM_BOND_DEF_STEREO_COUNT>
0

> <PUBCHEM_BOND_UDEF_STEREO_COUNT>
0

> <PUBCHEM_ISOTOPIC_ATOM_COUNT>
0

> <PUBCHEM_COMPONENT_COUNT>
1

> <PUBCHEM_CACTVS_TAUTO_COUNT>
3

> <PUBCHEM_CONFORMER_ID>
0015DCEC00000001

> <PUBCHEM_MMFF94_ENERGY>
47.5693

> <PUBCHEM_FEATURE_SELFOVERLAP>
35.629

> <PUBCHEM_SHAPE_FINGERPRINT>
10299344 5 18259706688318141950
10319926 262 18341037584371997209
106641 1 12607397815171829943
11315181 36 18343587352116559641
11524674 6 17203327831762783047
11578080 2 16662593378053371599
11719270 70 18131070416311694566
11991303 11 13984957237757054440
12091667 2 17167864154045730789
12166972 35 18187368752816777948
12236239 1 17967533506007493949
125118 31 10519985972419285466
12516196 113 18272368672934929448
12616971 3 17132108082875845700
13288520 33 18409167718928726917
13533116 47 16950833731498085904
13668630 136 18334858303702744342
13685833 64 18413109459598163874
13862211 1 18412827988768759918
13885169 127 18409448050948569964
14251752 14 18186799153884275389
14251764 18 18413389860848933268
14251764 46 17846498127570657196
15183329 4 18259981556949245538
15716309 27 18272368672518152526
18006028 8 18131630071787653688
200 152 17775569767004152089
21130935 74 18343582971018004066
21150785 3 13984664758641496698
21267235 1 18409733979795440377
21315763 28 18411136965739407781
21792934 111 18130213896848609152
220451 1 14634865366463831809
22224240 67 15770051727435103582
23035841 295 18259984876943179824
23402539 116 18411978096582715181
23522609 53 18122376624425017109
23536379 177 18333169466574284584
23559900 14 18339073904034500145
28498 318 18409164381222147412
29717793 49 17748550346888445372
3004659 81 18187082854429310376
335352 9 18411417319608439133
3545911 37 18410292519445436421
4073 2 17968944227002848082
4214541 1 18411701015500070257
4340502 62 14261635024035407540
465052 167 18343585144930370958
5104073 3 18201725101651444841
559249 180 18411135840468753063
5718773 13 18341047536044031679
59682541 35 18201991141702564706
59755656 215 18260546697610781322
59755656 520 17240199958700862051
6138700 20 18408604738351677234
999808 66 17968107455688957867

> <PUBCHEM_SHAPE_MULTIPOLES>
435.79
20.94
1.98
0.66
16.55
0.46
0
9.73
-0.37
0.36
-0.22
0.06
-0.02
0.22

> <PUBCHEM_SHAPE_SELFOVERLAP>
932.602

> <PUBCHEM_SHAPE_VOLUME>
245.3

> <PUBCHEM_COORDINATE_TYPE>
2
5
10

$$$$
