24747936
  -OEChem-01171809593D

 42 45  0     0  0  0  0  0  0999 V2000
   -4.7478    2.3213    0.8754 O   0  0  0  0  0  0  0  0  0  0  0  0
    2.4925    1.3148   -0.0425 O   0  0  0  0  0  0  0  0  0  0  0  0
    3.5885   -2.6247    0.1124 O   0  0  0  0  0  0  0  0  0  0  0  0
   -4.7249    1.0111    0.3066 C   0  0  0  0  0  0  0  0  0  0  0  0
   -5.5608    0.0794    1.1986 C   0  0  0  0  0  0  0  0  0  0  0  0
   -5.3111    1.0868   -1.1123 C   0  0  0  0  0  0  0  0  0  0  0  0
   -5.7980   -1.2942    0.5709 C   0  0  0  0  0  0  0  0  0  0  0  0
   -5.5488   -0.2893   -1.7344 C   0  0  0  0  0  0  0  0  0  0  0  0
   -6.3964   -1.1770   -0.8277 C   0  0  0  0  0  0  0  0  0  0  0  0
   -3.3180    0.5719    0.2672 C   0  0  0  0  0  0  0  0  0  0  0  0
   -2.1717    0.2147    0.2344 C   0  0  0  0  0  0  0  0  0  0  0  0
   -0.8074   -0.2090    0.1933 C   0  0  0  0  0  0  0  0  0  0  0  0
    1.8500   -1.0363    0.1106 C   0  0  0  0  0  0  0  0  0  0  0  0
    1.5469    0.3238    0.0539 C   0  0  0  0  0  0  0  0  0  0  0  0
    0.2137    0.7369    0.0953 C   0  0  0  0  0  0  0  0  0  0  0  0
   -0.4989   -1.5684    0.2503 C   0  0  0  0  0  0  0  0  0  0  0  0
    4.2586   -0.3720   -0.0393 C   0  0  0  0  0  0  0  0  0  0  0  0
    0.8310   -1.9873    0.2089 C   0  0  0  0  0  0  0  0  0  0  0  0
    3.2613   -1.4481    0.0648 C   0  0  0  0  0  0  0  0  0  0  0  0
    3.8155    0.9495   -0.0868 C   0  0  0  0  0  0  0  0  0  0  0  0
    5.6239   -0.6652   -0.0894 C   0  0  0  0  0  0  0  0  0  0  0  0
    4.7450    1.9869   -0.1851 C   0  0  0  0  0  0  0  0  0  0  0  0
    6.5477    0.3753   -0.1887 C   0  0  0  0  0  0  0  0  0  0  0  0
    6.1094    1.6990   -0.2364 C   0  0  0  0  0  0  0  0  0  0  0  0
   -6.5334    0.5479    1.4026 H   0  0  0  0  0  0  0  0  0  0  0  0
   -5.0849   -0.0413    2.1808 H   0  0  0  0  0  0  0  0  0  0  0  0
   -4.6585    1.6796   -1.7666 H   0  0  0  0  0  0  0  0  0  0  0  0
   -6.2649    1.6313   -1.0827 H   0  0  0  0  0  0  0  0  0  0  0  0
   -6.4722   -1.8760    1.2097 H   0  0  0  0  0  0  0  0  0  0  0  0
   -4.8542   -1.8503    0.5209 H   0  0  0  0  0  0  0  0  0  0  0  0
   -4.5888   -0.7798   -1.9349 H   0  0  0  0  0  0  0  0  0  0  0  0
   -6.0495   -0.1708   -2.7022 H   0  0  0  0  0  0  0  0  0  0  0  0
   -7.4093   -0.7617   -0.7562 H   0  0  0  0  0  0  0  0  0  0  0  0
   -6.4916   -2.1738   -1.2725 H   0  0  0  0  0  0  0  0  0  0  0  0
   -5.6721    2.6219    0.9065 H   0  0  0  0  0  0  0  0  0  0  0  0
   -0.0220    1.7983    0.0506 H   0  0  0  0  0  0  0  0  0  0  0  0
   -1.2861   -2.3150    0.3266 H   0  0  0  0  0  0  0  0  0  0  0  0
    1.0521   -3.0500    0.2540 H   0  0  0  0  0  0  0  0  0  0  0  0
    5.9837   -1.6896   -0.0533 H   0  0  0  0  0  0  0  0  0  0  0  0
    4.4144    3.0214   -0.2230 H   0  0  0  0  0  0  0  0  0  0  0  0
    7.6106    0.1548   -0.2286 H   0  0  0  0  0  0  0  0  0  0  0  0
    6.8314    2.5068   -0.3134 H   0  0  0  0  0  0  0  0  0  0  0  0
  1  4  1  0  0  0  0
  1 35  1  0  0  0  0
  2 14  1  0  0  0  0
  2 20  1  0  0  0  0
  3 19  2  0  0  0  0
  4  5  1  0  0  0  0
  4  6  1  0  0  0  0
  4 10  1  0  0  0  0
  5  7  1  0  0  0  0
  5 25  1  0  0  0  0
  5 26  1  0  0  0  0
  6  8  1  0  0  0  0
  6 27  1  0  0  0  0
  6 28  1  0  0  0  0
  7  9  1  0  0  0  0
  7 29  1  0  0  0  0
  7 30  1  0  0  0  0
  8  9  1  0  0  0  0
  8 31  1  0  0  0  0
  8 32  1  0  0  0  0
  9 33  1  0  0  0  0
  9 34  1  0  0  0  0
 10 11  3  0  0  0  0
 11 12  1  0  0  0  0
 12 15  2  0  0  0  0
 12 16  1  0  0  0  0
 13 14  2  0  0  0  0
 13 18  1  0  0  0  0
 13 19  1  0  0  0  0
 14 15  1  0  0  0  0
 15 36  1  0  0  0  0
 16 18  2  0  0  0  0
 16 37  1  0  0  0  0
 17 19  1  0  0  0  0
 17 20  1  0  0  0  0
 17 21  2  0  0  0  0
 18 38  1  0  0  0  0
 20 22  2  0  0  0  0
 21 23  1  0  0  0  0
 21 39  1  0  0  0  0
 22 24  1  0  0  0  0
 22 40  1  0  0  0  0
 23 24  2  0  0  0  0
 23 41  1  0  0  0  0
 24 42  1  0  0  0  0
M  END
> <PUBCHEM_COMPOUND_CID>
24747936

> <PUBCHEM_CONFORMER_RMSD>
0.6

> <PUBCHEM_CONFORMER_DIVERSEORDER>
1
3
4
2

> <PUBCHEM_MMFF94_PARTIAL_CHARGES>
27
1 -0.68
10 -0.2
11 -0.07
12 0.07
13 0.09
14 0.08
15 -0.15
16 -0.15
17 0.09
18 -0.15
19 0.4
2 -0.17
20 0.08
21 -0.15
22 -0.15
23 -0.15
24 -0.15
3 -0.57
35 0.4
36 0.15
37 0.15
38 0.15
39 0.15
4 0.48
40 0.15
41 0.15
42 0.15

> <PUBCHEM_EFFECTIVE_ROTOR_COUNT>
1.2

> <PUBCHEM_PHARMACOPHORE_FEATURES>
8
1 1 acceptor
1 1 donor
1 2 acceptor
1 3 acceptor
6 12 13 14 15 16 18 rings
6 17 20 21 22 23 24 rings
6 2 13 14 17 19 20 rings
6 4 5 6 7 8 9 rings

> <PUBCHEM_HEAVY_ATOM_COUNT>
24

> <PUBCHEM_ATOM_DEF_STEREO_COUNT>
0

> <PUBCHEM_ATOM_UDEF_STEREO_COUNT>
0

> <PUBCHEM_BOND_DEF_STEREO_COUNT>
0

> <PUBCHEM_BOND_UDEF_STEREO_COUNT>
0

> <PUBCHEM_ISOTOPIC_ATOM_COUNT>
0

> <PUBCHEM_COMPONENT_COUNT>
1

> <PUBCHEM_CACTVS_TAUTO_COUNT>
1

> <PUBCHEM_CONFORMER_ID>
01799FA000000001

> <PUBCHEM_MMFF94_ENERGY>
54.0088

> <PUBCHEM_FEATURE_SELFOVERLAP>
40.654

> <PUBCHEM_SHAPE_FINGERPRINT>
10 15 17822290240925042072
10411042 1 17832988244562020154
10595046 47 18342175553379488579
10693767 8 17986681377248429286
10763959 59 17531242868152915612
10835480 77 18261105228417278261
11089746 13 18272368681166219744
11315181 36 18410575098619034829
11315621 246 17417804102326831605
11578080 2 16915081062237522658
12107183 9 17620479012951239209
12166972 35 18272090534362487137
12236239 1 17988925552555334832
12730499 353 18335425664540158026
12838862 33 18337940278241095032
13073987 5 18410297978206146329
13533116 47 18059859429215732274
13631057 29 18341327916384226415
13782708 43 17459465555312523922
13785724 45 17619350909980387730
14251764 18 18408321099597334936
14528608 73 18413388734997737556
14767858 380 18272928353895836685
14849402 71 18270124641884471177
14856354 85 16200435810427148429
15064986 266 18335420141960860031
15142383 8 10087651385368243802
15183329 4 17989203763188063527
15461852 350 14851606609585786443
1577012 14 18343023263522103065
15799311 1 16415206697529584783
17093844 174 10952052234907191663
17844677 252 18339368457260090145
19489759 90 15502373431399127941
21033648 29 16733265639090139565
21150785 3 18343297098158026711
21236236 1 18338518659358065139
21267235 1 18338805507924087610
220451 1 17346882234711952407
23081809 10 18131349678973571795
23522609 53 17702126788004582065
23559900 14 18339076115715726521
2838139 119 18412825798029795596
32027 91 13335837346696879401
335352 9 18409452493152510206
34797466 226 16343705486614181144
3545911 37 18408888459643399194
4073 2 18114471114841499483
4325135 7 18342738533587734703
4340502 62 17022905644809447898
5104073 3 18187936023617348273
59755656 215 18333732408006310782
7495541 125 17274813666889950883
9996256 80 18342176695656413359

> <PUBCHEM_SHAPE_MULTIPOLES>
476.3
18.64
2.09
0.94
6.06
0.26
-0.19
-3.48
-2.37
-1.08
0.14
1.74
-0.07
-0.52

> <PUBCHEM_SHAPE_SELFOVERLAP>
1052.801

> <PUBCHEM_SHAPE_VOLUME>
252.7

> <PUBCHEM_COORDINATE_TYPE>
2
5
10

$$$$
