4571217
  -OEChem-01171809463D

 54 55  0     1  0  0  0  0  0999 V2000
   -1.2656   -1.2367    2.9975 Cl  0  0  0  0  0  0  0  0  0  0  0  0
   -0.6409   -3.0782   -2.3258 S   0  0  0  0  0  0  0  0  0  0  0  0
    2.3683   -0.3894    0.6916 O   0  0  0  0  0  0  0  0  0  0  0  0
    1.3251    2.1719    0.4303 N   0  0  1  0  0  0  0  0  0  0  0  0
    1.4010   -3.0660   -0.6808 N   0  0  0  0  0  0  0  0  0  0  0  0
   -0.4083   -1.8237    0.1300 N   0  0  0  0  0  0  0  0  0  0  0  0
    1.2047    2.4310   -0.9995 C   0  0  0  0  0  0  0  0  0  0  0  0
   -0.2203    2.1479   -1.4719 C   0  0  0  0  0  0  0  0  0  0  0  0
    2.7302    2.0082    0.8079 C   0  0  0  0  0  0  0  0  0  0  0  0
    0.7147    3.2547    1.2037 C   0  0  0  0  0  0  0  0  0  0  0  0
   -0.3742    2.4341   -2.9661 C   0  0  0  0  0  0  0  0  0  0  0  0
    3.2021    0.6445    0.4049 C   0  0  0  0  0  0  0  0  0  0  0  0
    0.7746    2.9662    2.6941 C   0  0  0  0  0  0  0  0  0  0  0  0
    4.3409    0.1883   -0.2172 C   0  0  0  0  0  0  0  0  0  0  0  0
   -1.7806    2.1209   -3.4517 C   0  0  0  0  0  0  0  0  0  0  0  0
    2.9813   -1.5180    0.2475 C   0  0  0  0  0  0  0  0  0  0  0  0
    4.1975   -1.2159   -0.3194 C   0  0  0  0  0  0  0  0  0  0  0  0
    2.2530   -2.7776    0.4538 C   0  0  0  0  0  0  0  0  0  0  0  0
    0.0977   -2.6259   -0.8864 C   0  0  0  0  0  0  0  0  0  0  0  0
   -1.6656   -1.1882    0.2977 C   0  0  0  0  0  0  0  0  0  0  0  0
   -4.1449    0.0644    0.5568 C   0  0  0  0  0  0  0  0  0  0  0  0
   -2.1578   -0.8710    1.5638 C   0  0  0  0  0  0  0  0  0  0  0  0
   -2.4131   -0.8791   -0.8387 C   0  0  0  0  0  0  0  0  0  0  0  0
   -3.3974   -0.2446    1.6932 C   0  0  0  0  0  0  0  0  0  0  0  0
   -3.6527   -0.2528   -0.7092 C   0  0  0  0  0  0  0  0  0  0  0  0
   -5.4698    0.7352    0.6942 C   0  0  0  0  0  0  0  0  0  0  0  0
    1.8671    1.7737   -1.5771 H   0  0  0  0  0  0  0  0  0  0  0  0
    1.4993    3.4592   -1.2482 H   0  0  0  0  0  0  0  0  0  0  0  0
   -0.9579    2.7507   -0.9333 H   0  0  0  0  0  0  0  0  0  0  0  0
   -0.4563    1.0970   -1.2809 H   0  0  0  0  0  0  0  0  0  0  0  0
    2.9020    2.0419    1.8871 H   0  0  0  0  0  0  0  0  0  0  0  0
    3.3633    2.7872    0.3642 H   0  0  0  0  0  0  0  0  0  0  0  0
    1.1920    4.2215    0.9989 H   0  0  0  0  0  0  0  0  0  0  0  0
   -0.3450    3.3586    0.9515 H   0  0  0  0  0  0  0  0  0  0  0  0
    0.3443    1.8362   -3.5388 H   0  0  0  0  0  0  0  0  0  0  0  0
   -0.1517    3.4888   -3.1658 H   0  0  0  0  0  0  0  0  0  0  0  0
    0.0589    3.6111    3.2172 H   0  0  0  0  0  0  0  0  0  0  0  0
    1.7537    3.1837    3.1306 H   0  0  0  0  0  0  0  0  0  0  0  0
    0.5002    1.9303    2.9220 H   0  0  0  0  0  0  0  0  0  0  0  0
    5.1714    0.7908   -0.5561 H   0  0  0  0  0  0  0  0  0  0  0  0
   -2.0083    1.0576   -3.3346 H   0  0  0  0  0  0  0  0  0  0  0  0
   -1.8779    2.3704   -4.5130 H   0  0  0  0  0  0  0  0  0  0  0  0
   -2.5276    2.6978   -2.8972 H   0  0  0  0  0  0  0  0  0  0  0  0
    4.8951   -1.9180   -0.7533 H   0  0  0  0  0  0  0  0  0  0  0  0
    1.6933   -2.7876    1.3925 H   0  0  0  0  0  0  0  0  0  0  0  0
    2.9682   -3.6061    0.5168 H   0  0  0  0  0  0  0  0  0  0  0  0
    1.8039   -3.6373   -1.4178 H   0  0  0  0  0  0  0  0  0  0  0  0
    0.1312   -1.8008    0.9878 H   0  0  0  0  0  0  0  0  0  0  0  0
   -2.0576   -0.9888   -1.8514 H   0  0  0  0  0  0  0  0  0  0  0  0
   -3.7856    0.0033    2.6787 H   0  0  0  0  0  0  0  0  0  0  0  0
   -4.2159    0.0041   -1.6027 H   0  0  0  0  0  0  0  0  0  0  0  0
   -6.2601   -0.0138    0.8058 H   0  0  0  0  0  0  0  0  0  0  0  0
   -5.4876    1.3980    1.5661 H   0  0  0  0  0  0  0  0  0  0  0  0
   -5.6938    1.3532   -0.1819 H   0  0  0  0  0  0  0  0  0  0  0  0
  1 22  1  0  0  0  0
  2 19  2  0  0  0  0
  3 12  1  0  0  0  0
  3 16  1  0  0  0  0
  4  7  1  0  0  0  0
  4  9  1  0  0  0  0
  4 10  1  0  0  0  0
  5 18  1  0  0  0  0
  5 19  1  0  0  0  0
  5 47  1  0  0  0  0
  6 19  1  0  0  0  0
  6 20  1  0  0  0  0
  6 48  1  0  0  0  0
  7  8  1  0  0  0  0
  7 27  1  0  0  0  0
  7 28  1  0  0  0  0
  8 11  1  0  0  0  0
  8 29  1  0  0  0  0
  8 30  1  0  0  0  0
  9 12  1  0  0  0  0
  9 31  1  0  0  0  0
  9 32  1  0  0  0  0
 10 13  1  0  0  0  0
 10 33  1  0  0  0  0
 10 34  1  0  0  0  0
 11 15  1  0  0  0  0
 11 35  1  0  0  0  0
 11 36  1  0  0  0  0
 12 14  2  0  0  0  0
 13 37  1  0  0  0  0
 13 38  1  0  0  0  0
 13 39  1  0  0  0  0
 14 17  1  0  0  0  0
 14 40  1  0  0  0  0
 15 41  1  0  0  0  0
 15 42  1  0  0  0  0
 15 43  1  0  0  0  0
 16 17  2  0  0  0  0
 16 18  1  0  0  0  0
 17 44  1  0  0  0  0
 18 45  1  0  0  0  0
 18 46  1  0  0  0  0
 20 22  2  0  0  0  0
 20 23  1  0  0  0  0
 21 24  2  0  0  0  0
 21 25  1  0  0  0  0
 21 26  1  0  0  0  0
 22 24  1  0  0  0  0
 23 25  2  0  0  0  0
 23 49  1  0  0  0  0
 24 50  1  0  0  0  0
 25 51  1  0  0  0  0
 26 52  1  0  0  0  0
 26 53  1  0  0  0  0
 26 54  1  0  0  0  0
M  END
> <PUBCHEM_COMPOUND_CID>
4571217

> <PUBCHEM_CONFORMER_RMSD>
1.2

> <PUBCHEM_CONFORMER_DIVERSEORDER>
18
77
72
68
6
171
83
81
139
92
46
3
160
113
137
20
164
128
119
45
42
98
28
32
147
29
157
95
101
48
40
88
166
59
135
165
132
64
116
19
162
22
25
13
69
154
121
173
87
176
47
94
138
168
150
70
102
103
100
130
24
62
141
151
117
5
127
112
156
80
134
161
140
14
57
110
2
12
49
52
37
96
36
1
104
54
155
63
158
177
111
105
38
34
86
31
23
122
172
61
144
133
55
93
66
67
65
58
11
146
16
153
60
43
90
44
30
115
91
15
120
74
131
163
79
53
114
145
167
84
21
73
136
99
129
10
174
26
56
170
108
107
7
126
27
125
4
85
109
175
142
76
50
148
123
41
17
39
143
152
71
33
106
9
89
35
149
97
51
8
75
169
82
159
118
124
78

> <PUBCHEM_MMFF94_PARTIAL_CHARGES>
29
1 -0.18
10 0.27
12 -0.04
14 -0.15
16 -0.04
17 -0.15
18 0.48
19 0.5
2 -0.38
20 0.12
21 -0.14
22 0.18
23 -0.15
24 -0.15
25 -0.15
26 0.14
3 -0.28
4 -0.81
40 0.15
44 0.15
47 0.37
48 0.37
49 0.15
5 -0.73
50 0.15
51 0.15
6 -0.55
7 0.27
9 0.45

> <PUBCHEM_EFFECTIVE_ROTOR_COUNT>
11

> <PUBCHEM_PHARMACOPHORE_FEATURES>
8
1 15 hydrophobe
1 2 acceptor
1 3 acceptor
1 4 cation
1 5 donor
1 6 donor
5 3 12 14 16 17 rings
6 20 21 22 23 24 25 rings

> <PUBCHEM_HEAVY_ATOM_COUNT>
26

> <PUBCHEM_ATOM_DEF_STEREO_COUNT>
0

> <PUBCHEM_ATOM_UDEF_STEREO_COUNT>
0

> <PUBCHEM_BOND_DEF_STEREO_COUNT>
0

> <PUBCHEM_BOND_UDEF_STEREO_COUNT>
0

> <PUBCHEM_ISOTOPIC_ATOM_COUNT>
0

> <PUBCHEM_COMPONENT_COUNT>
1

> <PUBCHEM_CACTVS_TAUTO_COUNT>
3

> <PUBCHEM_CONFORMER_ID>
0045C05100000012

> <PUBCHEM_MMFF94_ENERGY>
51.2491

> <PUBCHEM_FEATURE_SELFOVERLAP>
40.637

> <PUBCHEM_SHAPE_FINGERPRINT>
10119406 146 15171086862230100383
104564 63 18126018070013170378
10708813 3 18199743820242173327
11244481 83 16881069859906234685
11370993 70 17553181599744721208
12156800 1 16977638591921702660
12539773 59 16845572041188588785
12655364 131 17056643158644599896
13402501 40 18188204295490160989
13615921 28 17130137839421463184
13726171 33 17240762839750710476
13965767 371 18194942227599898152
14251757 17 17900247620598693709
19930381 70 18199740500754556617
20600515 1 17825138967534621619
21285901 2 18040998388992628085
23419403 2 18191014604604124445
3493558 16 17768540387346905537
35225 105 15624244257387779296
3524813 1 18335414647510856092
474 4 18202007590494177011
57527585 103 17041486012202012167
81228 2 17252902384623991967

> <PUBCHEM_SHAPE_MULTIPOLES>
519.97
7.27
4.29
2.95
2.78
0.4
1.09
-0.41
-1.87
-2.19
1.17
1.89
1.72
0.99

> <PUBCHEM_SHAPE_SELFOVERLAP>
1044.241

> <PUBCHEM_SHAPE_VOLUME>
309.5

> <PUBCHEM_COORDINATE_TYPE>
2
5
10

$$$$
