3715215
  -OEChem-01171809343D

 46 48  0     1  0  0  0  0  0999 V2000
   -1.5923   -0.5963   -1.9096 O   0  0  0  0  0  0  0  0  0  0  0  0
    3.2690    1.8237    0.6753 O   0  0  0  0  0  0  0  0  0  0  0  0
    0.3214    0.3124    0.0786 C   0  0  1  0  0  0  0  0  0  0  0  0
   -0.7321   -0.7944    0.3428 C   0  0  0  0  0  0  0  0  0  0  0  0
   -0.3282    1.6897   -0.0403 C   0  0  0  0  0  0  0  0  0  0  0  0
    1.4566    0.3417    1.0964 C   0  0  0  0  0  0  0  0  0  0  0  0
   -1.8116   -0.8726   -0.7329 C   0  0  0  0  0  0  0  0  0  0  0  0
   -1.3880    1.9947    0.7845 C   0  0  0  0  0  0  0  0  0  0  0  0
    0.1691    2.5774   -0.9685 C   0  0  0  0  0  0  0  0  0  0  0  0
    2.8375    0.6762    0.6294 C   0  0  0  0  0  0  0  0  0  0  0  0
   -3.1880   -1.2733   -0.3315 C   0  0  0  0  0  0  0  0  0  0  0  0
    1.3751    0.0448    2.4026 C   0  0  0  0  0  0  0  0  0  0  0  0
    3.7025   -0.4187    0.1367 C   0  0  0  0  0  0  0  0  0  0  0  0
   -1.9812    3.2524    0.6756 C   0  0  0  0  0  0  0  0  0  0  0  0
   -0.4241    3.8352   -1.0773 C   0  0  0  0  0  0  0  0  0  0  0  0
   -1.4992    4.1727   -0.2552 C   0  0  0  0  0  0  0  0  0  0  0  0
   -3.3444   -2.1231    0.7417 C   0  0  0  0  0  0  0  0  0  0  0  0
   -4.2572   -0.7806   -1.0475 C   0  0  0  0  0  0  0  0  0  0  0  0
    3.2098   -1.7100    0.1236 C   0  0  0  0  0  0  0  0  0  0  0  0
    4.9809   -0.1216   -0.2971 C   0  0  0  0  0  0  0  0  0  0  0  0
   -4.6340   -2.4989    1.1176 C   0  0  0  0  0  0  0  0  0  0  0  0
   -5.5468   -1.1563   -0.6716 C   0  0  0  0  0  0  0  0  0  0  0  0
   -5.7353   -2.0154    0.4110 C   0  0  0  0  0  0  0  0  0  0  0  0
    4.0254   -2.7422   -0.3405 C   0  0  0  0  0  0  0  0  0  0  0  0
    5.7964   -1.1536   -0.7610 C   0  0  0  0  0  0  0  0  0  0  0  0
    5.3186   -2.4639   -0.7829 C   0  0  0  0  0  0  0  0  0  0  0  0
    0.7632    0.0707   -0.8997 H   0  0  0  0  0  0  0  0  0  0  0  0
   -0.2319   -1.7716    0.3492 H   0  0  0  0  0  0  0  0  0  0  0  0
   -1.1917   -0.6741    1.3278 H   0  0  0  0  0  0  0  0  0  0  0  0
   -1.7731    1.3204    1.5399 H   0  0  0  0  0  0  0  0  0  0  0  0
    1.0058    2.3234   -1.6119 H   0  0  0  0  0  0  0  0  0  0  0  0
    0.4337   -0.2266    2.8664 H   0  0  0  0  0  0  0  0  0  0  0  0
    2.2452    0.0748    3.0516 H   0  0  0  0  0  0  0  0  0  0  0  0
   -2.8142    3.5181    1.3200 H   0  0  0  0  0  0  0  0  0  0  0  0
   -0.0485    4.5520   -1.8016 H   0  0  0  0  0  0  0  0  0  0  0  0
   -1.9601    5.1526   -0.3388 H   0  0  0  0  0  0  0  0  0  0  0  0
   -2.5055   -2.5331    1.2945 H   0  0  0  0  0  0  0  0  0  0  0  0
   -4.1263   -0.1064   -1.8885 H   0  0  0  0  0  0  0  0  0  0  0  0
    2.2147   -1.9799    0.4568 H   0  0  0  0  0  0  0  0  0  0  0  0
    5.3731    0.8910   -0.2894 H   0  0  0  0  0  0  0  0  0  0  0  0
   -4.7809   -3.1722    1.9571 H   0  0  0  0  0  0  0  0  0  0  0  0
   -6.4044   -0.7790   -1.2209 H   0  0  0  0  0  0  0  0  0  0  0  0
   -6.7393   -2.3088    0.7032 H   0  0  0  0  0  0  0  0  0  0  0  0
    3.6541   -3.7628   -0.3575 H   0  0  0  0  0  0  0  0  0  0  0  0
    6.8034   -0.9373   -1.1056 H   0  0  0  0  0  0  0  0  0  0  0  0
    5.9535   -3.2675   -1.1443 H   0  0  0  0  0  0  0  0  0  0  0  0
  1  7  2  0  0  0  0
  2 10  2  0  0  0  0
  3  4  1  0  0  0  0
  3  5  1  0  0  0  0
  3  6  1  0  0  0  0
  3 27  1  0  0  0  0
  4  7  1  0  0  0  0
  4 28  1  0  0  0  0
  4 29  1  0  0  0  0
  5  8  2  0  0  0  0
  5  9  1  0  0  0  0
  6 10  1  0  0  0  0
  6 12  2  0  0  0  0
  7 11  1  0  0  0  0
  8 14  1  0  0  0  0
  8 30  1  0  0  0  0
  9 15  2  0  0  0  0
  9 31  1  0  0  0  0
 10 13  1  0  0  0  0
 11 17  2  0  0  0  0
 11 18  1  0  0  0  0
 12 32  1  0  0  0  0
 12 33  1  0  0  0  0
 13 19  2  0  0  0  0
 13 20  1  0  0  0  0
 14 16  2  0  0  0  0
 14 34  1  0  0  0  0
 15 16  1  0  0  0  0
 15 35  1  0  0  0  0
 16 36  1  0  0  0  0
 17 21  1  0  0  0  0
 17 37  1  0  0  0  0
 18 22  2  0  0  0  0
 18 38  1  0  0  0  0
 19 24  1  0  0  0  0
 19 39  1  0  0  0  0
 20 25  2  0  0  0  0
 20 40  1  0  0  0  0
 21 23  2  0  0  0  0
 21 41  1  0  0  0  0
 22 23  1  0  0  0  0
 22 42  1  0  0  0  0
 23 43  1  0  0  0  0
 24 26  2  0  0  0  0
 24 44  1  0  0  0  0
 25 26  1  0  0  0  0
 25 45  1  0  0  0  0
 26 46  1  0  0  0  0
M  END
> <PUBCHEM_COMPOUND_CID>
3715215

> <PUBCHEM_CONFORMER_RMSD>
1

> <PUBCHEM_CONFORMER_DIVERSEORDER>
1
317
73
587
82
323
361
75
626
427
287
252
634
36
30
71
44
542
548
63
110
294
429
162
473
602
84
158
336
329
343
52
76
525
327
365
13
460
118
301
492
352
577
169
230
495
377
161
143
215
48
545
611
373
477
22
124
257
550
87
202
123
585
223
586
245
147
41
72
58
6
557
93
175
582
34
4
613
450
3
408
126
19
197
478
430
356
354
425
46
642
501
35
194
47
449
367
439
246
57
7
27
505
358
14
523
94
307
570
31
517
15
51
64
604
353
16
128
53
157
440
125
181
112
556
469
403
563
96
224
59
149
91
568
2
346
219
275
637
198
117
163
282
152
304
589
77
471
594
286
646
407
145
233
633
441
159
5
409
284
28
155
251
136
391
220
422
332
85
250
56
9
153
114
497
499
614
97
272
43
207
21
362
326
259
184
106
270
415
420
26
20
10
357
193
23
315
122
600
290
322
11
629
484
530
443
37

> <PUBCHEM_MMFF94_PARTIAL_CHARGES>
43
1 -0.57
10 0.47
11 0.09
12 -0.3
13 0.09
14 -0.15
15 -0.15
16 -0.15
17 -0.15
18 -0.15
19 -0.15
2 -0.57
20 -0.15
21 -0.15
22 -0.15
23 -0.15
24 -0.15
25 -0.15
26 -0.15
3 0.28
30 0.15
31 0.15
32 0.15
33 0.15
34 0.15
35 0.15
36 0.15
37 0.15
38 0.15
39 0.15
4 0.06
40 0.15
41 0.15
42 0.15
43 0.15
44 0.15
45 0.15
46 0.15
5 -0.14
6 -0.12
7 0.42
8 -0.15
9 -0.15

> <PUBCHEM_EFFECTIVE_ROTOR_COUNT>
7

> <PUBCHEM_PHARMACOPHORE_FEATURES>
6
1 1 acceptor
1 12 hydrophobe
1 2 acceptor
6 11 17 18 21 22 23 rings
6 13 19 20 24 25 26 rings
6 5 8 9 14 15 16 rings

> <PUBCHEM_HEAVY_ATOM_COUNT>
26

> <PUBCHEM_ATOM_DEF_STEREO_COUNT>
0

> <PUBCHEM_ATOM_UDEF_STEREO_COUNT>
1

> <PUBCHEM_BOND_DEF_STEREO_COUNT>
0

> <PUBCHEM_BOND_UDEF_STEREO_COUNT>
0

> <PUBCHEM_ISOTOPIC_ATOM_COUNT>
0

> <PUBCHEM_COMPONENT_COUNT>
1

> <PUBCHEM_CACTVS_TAUTO_COUNT>
2

> <PUBCHEM_CONFORMER_ID>
0038B08F00000001

> <PUBCHEM_MMFF94_ENERGY>
85.1164

> <PUBCHEM_FEATURE_SELFOVERLAP>
30.447

> <PUBCHEM_SHAPE_FINGERPRINT>
10688039 33 18410858754384136198
11135609 187 17682409392044646796
11578080 2 17774422924826602424
11809386 21 18191864527330142130
11991303 11 17972598780273558965
12160290 23 17907542914630006549
12166972 35 17986952041665198635
12422481 6 17845670148539773999
12516196 113 18409166653582139383
12549972 3 17486745529655478296
12623949 98 17917161579756921118
12633257 1 16056882476349659215
12714826 92 18059850624126496074
12760667 363 18202565051257711366
12788726 201 18261948561739843675
13009979 54 18129397024043601097
13135754 10 18341613659782683621
13540713 4 18129363935737079656
13583140 156 14189292600002522267
13673619 4 18131919252120121266
13690498 29 18271537386246543982
14022347 108 18188757444349344611
140371 6 18190750923402802688
14251757 5 18187641358880505997
14251764 30 18337391642696447927
14713325 29 18196657297940033054
14840074 17 17917433171945227654
14866123 147 18122063096496941803
14955137 171 18338802350648254435
15042514 8 18339367353438119057
15081414 286 18265895941833442497
15664445 248 18188483704946714080
17909252 39 18337678615236292896
17980427 26 16125534977613825976
1813 80 18337667611192178105
19301676 85 16613651713982256959
20567600 254 9511468800874618874
21033648 29 17845639452682855811
21033650 10 16733260140783050996
21120745 212 18338811030260773348
21307412 95 17194618351673746806
21478907 32 18411138017616232457
21703447 108 18410562990831720106
21859007 373 11527130879177072890
22182313 1 17915714554130676640
22950370 63 18410296947108449103
23175994 123 18335698399358336191
23559900 14 18264201595085076011
24771750 20 17176881493228317133
2838139 119 13117996717218286182
38695281 34 17545599419120803580
4144715 1 18189620626303783603
437815 12 18335698377936442447
44062 13 18052543175628399126
46194498 28 17679580310107861519
5104073 3 18201151037066570418
513202 73 18339653221981770323
5309563 4 18410858793144882423
57634706 306 9367062199774521507
59554788 170 18413386557792417662
70251023 43 18409732867747109744
7399639 24 18271511109684183904
7970288 3 18339644554806656927
9658208 31 17981308007039107136
9971528 1 18198333143055978137

> <PUBCHEM_SHAPE_MULTIPOLES>
523.33
11.83
4.43
1.37
2.73
4.69
0.31
-13.26
-1.85
-2.39
-0.52
-0.15
0.03
1.12

> <PUBCHEM_SHAPE_SELFOVERLAP>
1137.756

> <PUBCHEM_SHAPE_VOLUME>
283.2

> <PUBCHEM_COORDINATE_TYPE>
2
5
10

$$$$
