25161455
  -OEChem-01171810093D

 42 44  0     0  0  0  0  0  0999 V2000
   -0.3858    1.8388    0.6546 O   0  0  0  0  0  0  0  0  0  0  0  0
   -1.8138    0.0242    0.4437 N   0  0  0  0  0  0  0  0  0  0  0  0
    1.6403   -2.0637    0.0481 N   0  0  0  0  0  0  0  0  0  0  0  0
    0.3955   -1.5709    0.1512 N   0  0  0  0  0  0  0  0  0  0  0  0
   -3.0485    0.7677    0.5623 C   0  0  0  0  0  0  0  0  0  0  0  0
   -3.5129    1.2855   -0.8031 C   0  0  0  0  0  0  0  0  0  0  0  0
   -4.1366   -0.0750    1.2362 C   0  0  0  0  0  0  0  0  0  0  0  0
   -4.0349    0.1676   -1.7059 C   0  0  0  0  0  0  0  0  0  0  0  0
   -4.6575   -1.1906    0.3301 C   0  0  0  0  0  0  0  0  0  0  0  0
   -5.1241   -0.6495   -1.0178 C   0  0  0  0  0  0  0  0  0  0  0  0
    1.9700    0.0810    0.3551 C   0  0  0  0  0  0  0  0  0  0  0  0
    2.5894    1.4169    0.5403 C   0  0  0  0  0  0  0  0  0  0  0  0
    3.6291    1.7574   -0.5293 C   0  0  0  0  0  0  0  0  0  0  0  0
    4.9247    0.9413   -0.4402 C   0  0  0  0  0  0  0  0  0  0  0  0
    2.6212   -1.1188    0.1609 C   0  0  0  0  0  0  0  0  0  0  0  0
    4.8069   -0.5173   -0.8995 C   0  0  0  0  0  0  0  0  0  0  0  0
    4.0691   -1.4338    0.0779 C   0  0  0  0  0  0  0  0  0  0  0  0
    0.6003   -0.2652    0.3391 C   0  0  0  0  0  0  0  0  0  0  0  0
   -0.5324    0.6047    0.4965 C   0  0  0  0  0  0  0  0  0  0  0  0
   -2.8425    1.6342    1.2027 H   0  0  0  0  0  0  0  0  0  0  0  0
   -2.6973    1.8119   -1.3131 H   0  0  0  0  0  0  0  0  0  0  0  0
   -4.3159    2.0180   -0.6510 H   0  0  0  0  0  0  0  0  0  0  0  0
   -4.9756    0.5780    1.5088 H   0  0  0  0  0  0  0  0  0  0  0  0
   -3.7576   -0.5114    2.1682 H   0  0  0  0  0  0  0  0  0  0  0  0
   -3.2076   -0.4930   -1.9926 H   0  0  0  0  0  0  0  0  0  0  0  0
   -4.4304    0.5996   -2.6322 H   0  0  0  0  0  0  0  0  0  0  0  0
   -5.4905   -1.7024    0.8256 H   0  0  0  0  0  0  0  0  0  0  0  0
   -3.8770   -1.9442    0.1730 H   0  0  0  0  0  0  0  0  0  0  0  0
   -6.0116   -0.0218   -0.8705 H   0  0  0  0  0  0  0  0  0  0  0  0
   -5.4260   -1.4810   -1.6646 H   0  0  0  0  0  0  0  0  0  0  0  0
   -1.8726   -0.9735    0.2614 H   0  0  0  0  0  0  0  0  0  0  0  0
    1.8455    2.2149    0.5232 H   0  0  0  0  0  0  0  0  0  0  0  0
    3.0546    1.4585    1.5334 H   0  0  0  0  0  0  0  0  0  0  0  0
    3.1941    1.6582   -1.5316 H   0  0  0  0  0  0  0  0  0  0  0  0
    3.8970    2.8150   -0.4086 H   0  0  0  0  0  0  0  0  0  0  0  0
    5.6646    1.4298   -1.0874 H   0  0  0  0  0  0  0  0  0  0  0  0
    5.3297    0.9850    0.5780 H   0  0  0  0  0  0  0  0  0  0  0  0
    5.8244   -0.9107   -1.0197 H   0  0  0  0  0  0  0  0  0  0  0  0
    4.3381   -0.5576   -1.8909 H   0  0  0  0  0  0  0  0  0  0  0  0
    4.5169   -1.3572    1.0759 H   0  0  0  0  0  0  0  0  0  0  0  0
    4.2040   -2.4722   -0.2493 H   0  0  0  0  0  0  0  0  0  0  0  0
    1.7501   -3.0592   -0.1007 H   0  0  0  0  0  0  0  0  0  0  0  0
  1 19  2  0  0  0  0
  2  5  1  0  0  0  0
  2 19  1  0  0  0  0
  2 31  1  0  0  0  0
  3  4  1  0  0  0  0
  3 15  1  0  0  0  0
  3 42  1  0  0  0  0
  4 18  2  0  0  0  0
  5  6  1  0  0  0  0
  5  7  1  0  0  0  0
  5 20  1  0  0  0  0
  6  8  1  0  0  0  0
  6 21  1  0  0  0  0
  6 22  1  0  0  0  0
  7  9  1  0  0  0  0
  7 23  1  0  0  0  0
  7 24  1  0  0  0  0
  8 10  1  0  0  0  0
  8 25  1  0  0  0  0
  8 26  1  0  0  0  0
  9 10  1  0  0  0  0
  9 27  1  0  0  0  0
  9 28  1  0  0  0  0
 10 29  1  0  0  0  0
 10 30  1  0  0  0  0
 11 12  1  0  0  0  0
 11 15  2  0  0  0  0
 11 18  1  0  0  0  0
 12 13  1  0  0  0  0
 12 32  1  0  0  0  0
 12 33  1  0  0  0  0
 13 14  1  0  0  0  0
 13 34  1  0  0  0  0
 13 35  1  0  0  0  0
 14 16  1  0  0  0  0
 14 36  1  0  0  0  0
 14 37  1  0  0  0  0
 15 17  1  0  0  0  0
 16 17  1  0  0  0  0
 16 38  1  0  0  0  0
 16 39  1  0  0  0  0
 17 40  1  0  0  0  0
 17 41  1  0  0  0  0
 18 19  1  0  0  0  0
M  END
> <PUBCHEM_COMPOUND_CID>
25161455

> <PUBCHEM_CONFORMER_RMSD>
0.8

> <PUBCHEM_CONFORMER_DIVERSEORDER>
1
7
8
15
14
5
3
4
2
9
13
12
10
6
18
11
16
17

> <PUBCHEM_MMFF94_PARTIAL_CHARGES>
13
1 -0.57
11 -0.18
12 0.18
15 -0.33
17 0.18
18 0.2
19 0.72
2 -0.73
3 0.3
31 0.37
4 -0.71
42 0.27
5 0.3

> <PUBCHEM_EFFECTIVE_ROTOR_COUNT>
5.2

> <PUBCHEM_PHARMACOPHORE_FEATURES>
7
1 1 acceptor
1 2 donor
1 3 donor
1 4 acceptor
5 3 4 11 15 18 rings
6 5 6 7 8 9 10 rings
7 11 12 13 14 15 16 17 rings

> <PUBCHEM_HEAVY_ATOM_COUNT>
19

> <PUBCHEM_ATOM_DEF_STEREO_COUNT>
0

> <PUBCHEM_ATOM_UDEF_STEREO_COUNT>
0

> <PUBCHEM_BOND_DEF_STEREO_COUNT>
0

> <PUBCHEM_BOND_UDEF_STEREO_COUNT>
0

> <PUBCHEM_ISOTOPIC_ATOM_COUNT>
0

> <PUBCHEM_COMPONENT_COUNT>
1

> <PUBCHEM_CACTVS_TAUTO_COUNT>
5

> <PUBCHEM_CONFORMER_ID>
017FEEEF00000001

> <PUBCHEM_MMFF94_ENERGY>
13.983

> <PUBCHEM_FEATURE_SELFOVERLAP>
35.555

> <PUBCHEM_SHAPE_FINGERPRINT>
10090160 65 18407760335218050738
11089746 13 13695872553844698238
11128504 68 17917713530341106508
11471102 20 18409450280611193784
11615757 297 18202567267465617433
11796584 16 14404916751763178668
12236239 1 17632300081647280321
12616971 3 18201163173931751467
12670546 177 18408881828356390719
128620 24 18410575093506312197
13167823 11 18060420218130476301
13583140 156 16805322227330572256
13760787 5 18342460335270150545
13862211 1 18341330007669088458
14004511 7 10953459626553869777
14251757 5 17914890070243889039
14251758 9 8935011368691230202
14251764 18 9079111163957731579
14251764 38 16515686658302387045
14528608 73 18409730677108164116
14576447 43 18201992253001873991
15196674 1 18411140212191462160
15475509 84 11675416566829175254
15788980 27 18272369750396623173
15961568 22 16805608126487913756
17349148 13 18411420592162340232
17834072 33 18343582953595106279
1813 80 14764629724394254376
18186145 218 17749109954872169545
19489759 90 16081087091042799089
200 152 18272651229462611953
20281475 54 18059574633506524467
20645477 56 17531525370365047429
20645477 70 18409735028200432002
21267235 1 18342468035941050259
21709351 56 18410292467341404732
231179 274 17676486151190533400
23402539 116 18060142011581881240
23402655 69 18341049614459523433
23557571 272 17312825970285565133
23559900 14 17968374555256946354
23596394 208 18113896035583766674
2871803 45 18409445882042482313
29717793 49 17846779585594397773
3268164 11 16660358191215027591
341906 21 15647046066836912037
34797466 226 16443641163150193223
351380 3 17632574972581590079
42 15 11239998953553056080
4990 188 17846508019286482980
5104073 3 18410576149836282761
5281201 14 18187649085136482820
5283173 99 17749660797471305541
5924683 9 10015282651785034429
602551 16 15267051579754471935
9971528 1 12468625111024494936

> <PUBCHEM_SHAPE_MULTIPOLES>
370.2
11.88
1.8
1.1
3.25
0.06
-0.24
0.67
-3.16
-1.24
0.03
1.14
-0.12
0.04

> <PUBCHEM_SHAPE_SELFOVERLAP>
773.662

> <PUBCHEM_SHAPE_VOLUME>
208.2

> <PUBCHEM_COORDINATE_TYPE>
2
5
10

$$$$
