5765586
  -OEChem-01171809483D

 39 41  0     0  0  0  0  0  0999 V2000
   -1.1909    0.4268   -0.4427 O   0  0  0  0  0  0  0  0  0  0  0  0
    3.6225    2.1537   -1.7019 O   0  5  0  0  0  0  0  0  0  0  0  0
    2.3133    3.3244   -0.3730 O   0  0  0  0  0  0  0  0  0  0  0  0
    0.8104   -0.6780    1.0890 N   0  0  0  0  0  0  0  0  0  0  0  0
   -2.8609   -0.5184    0.9115 N   0  0  0  0  0  0  0  0  0  0  0  0
    3.3064    2.6159   -0.5954 N   0  3  0  0  0  0  0  0  0  0  0  0
    1.5596   -1.4668    0.2452 C   0  0  0  0  0  0  0  0  0  0  0  0
    2.8273   -0.8873    0.1586 C   0  0  0  0  0  0  0  0  0  0  0  0
    2.8119    0.2754    0.9790 C   0  0  0  0  0  0  0  0  0  0  0  0
    1.5585    0.3772    1.5373 C   0  0  0  0  0  0  0  0  0  0  0  0
   -0.5688   -0.9143    1.4576 C   0  0  0  0  0  0  0  0  0  0  0  0
    1.2157   -2.6371   -0.4407 C   0  0  0  0  0  0  0  0  0  0  0  0
    3.8011   -1.5042   -0.6518 C   0  0  0  0  0  0  0  0  0  0  0  0
   -1.5540   -0.2471    0.5158 C   0  0  0  0  0  0  0  0  0  0  0  0
    2.1978   -3.2312   -1.2384 C   0  0  0  0  0  0  0  0  0  0  0  0
    3.4712   -2.6751   -1.3439 C   0  0  0  0  0  0  0  0  0  0  0  0
    3.8635    1.1891    1.2103 C   0  0  0  0  0  0  0  0  0  0  0  0
   -4.0571   -0.0795    0.2960 C   0  0  0  0  0  0  0  0  0  0  0  0
    4.1495    2.3102    0.5046 C   0  0  0  0  0  0  0  0  0  0  0  0
   -5.2751   -0.4535    0.8391 C   0  0  0  0  0  0  0  0  0  0  0  0
   -3.9848    0.7145   -0.8366 C   0  0  0  0  0  0  0  0  0  0  0  0
   -6.4543   -0.0210    0.2324 C   0  0  0  0  0  0  0  0  0  0  0  0
   -5.1640    1.1470   -1.4433 C   0  0  0  0  0  0  0  0  0  0  0  0
   -6.3988    0.7793   -0.9088 C   0  0  0  0  0  0  0  0  0  0  0  0
    1.1368    1.1112    2.2123 H   0  0  0  0  0  0  0  0  0  0  0  0
   -0.7163   -0.5209    2.4703 H   0  0  0  0  0  0  0  0  0  0  0  0
   -0.7467   -1.9940    1.4882 H   0  0  0  0  0  0  0  0  0  0  0  0
    0.2265   -3.0761   -0.3691 H   0  0  0  0  0  0  0  0  0  0  0  0
    4.7984   -1.0838   -0.7456 H   0  0  0  0  0  0  0  0  0  0  0  0
    1.9630   -4.1406   -1.7856 H   0  0  0  0  0  0  0  0  0  0  0  0
    4.2181   -3.1550   -1.9708 H   0  0  0  0  0  0  0  0  0  0  0  0
    4.5190    0.9648    2.0494 H   0  0  0  0  0  0  0  0  0  0  0  0
   -2.9882   -1.0984    1.7382 H   0  0  0  0  0  0  0  0  0  0  0  0
    4.9462    3.0198    0.6619 H   0  0  0  0  0  0  0  0  0  0  0  0
   -5.3297   -1.0765    1.7275 H   0  0  0  0  0  0  0  0  0  0  0  0
   -3.0706    1.0405   -1.3099 H   0  0  0  0  0  0  0  0  0  0  0  0
   -7.4159   -0.3073    0.6484 H   0  0  0  0  0  0  0  0  0  0  0  0
   -5.1223    1.7701   -2.3320 H   0  0  0  0  0  0  0  0  0  0  0  0
   -7.3171    1.1160   -1.3811 H   0  0  0  0  0  0  0  0  0  0  0  0
  1 14  2  0  0  0  0
  2  6  1  0  0  0  0
  3  6  2  0  0  0  0
  4  7  1  0  0  0  0
  4 10  1  0  0  0  0
  4 11  1  0  0  0  0
  5 14  1  0  0  0  0
  5 18  1  0  0  0  0
  5 33  1  0  0  0  0
  6 19  1  0  0  0  0
  7  8  1  0  0  0  0
  7 12  2  0  0  0  0
  8  9  1  0  0  0  0
  8 13  2  0  0  0  0
  9 10  2  0  0  0  0
  9 17  1  0  0  0  0
 10 25  1  0  0  0  0
 11 14  1  0  0  0  0
 11 26  1  0  0  0  0
 11 27  1  0  0  0  0
 12 15  1  0  0  0  0
 12 28  1  0  0  0  0
 13 16  1  0  0  0  0
 13 29  1  0  0  0  0
 15 16  2  0  0  0  0
 15 30  1  0  0  0  0
 16 31  1  0  0  0  0
 17 19  2  0  0  0  0
 17 32  1  0  0  0  0
 18 20  2  0  0  0  0
 18 21  1  0  0  0  0
 19 34  1  0  0  0  0
 20 22  1  0  0  0  0
 20 35  1  0  0  0  0
 21 23  2  0  0  0  0
 21 36  1  0  0  0  0
 22 24  2  0  0  0  0
 22 37  1  0  0  0  0
 23 24  1  0  0  0  0
 23 38  1  0  0  0  0
 24 39  1  0  0  0  0
M  CHG  2   2  -1   6   1
M  END
> <PUBCHEM_COMPOUND_CID>
5765586

> <PUBCHEM_CONFORMER_RMSD>
0.8

> <PUBCHEM_CONFORMER_DIVERSEORDER>
1
13
42
11
73
37
68
62
29
79
36
63
69
45
15
66
12
57
8
7
16
19
6
75
28
59
14
58
39
60
53
30
21
71
44
51
47
52
34
77
74
38
46
26
2
25
23
72
32
43
27
70
55
56
54
50
48
5
24
22
65
76
17
78
67
3
35
40
9
10
31
64
61
4
18
20
41
49
33

> <PUBCHEM_MMFF94_PARTIAL_CHARGES>
36
1 -0.57
10 -0.3
11 0.32
12 -0.15
13 -0.15
14 0.57
15 -0.15
16 -0.15
17 -0.1
18 0.12
19 0.05
2 -0.52
20 -0.15
21 -0.15
22 -0.15
23 -0.15
24 -0.15
25 0.15
28 0.15
29 0.15
3 -0.52
30 0.15
31 0.15
32 0.15
33 0.37
34 0.15
35 0.15
36 0.15
37 0.15
38 0.15
39 0.15
4 0.05
5 -0.55
6 0.84
7 -0.15
9 -0.05

> <PUBCHEM_EFFECTIVE_ROTOR_COUNT>
6

> <PUBCHEM_PHARMACOPHORE_FEATURES>
9
1 1 acceptor
1 2 acceptor
1 2 anion
1 3 acceptor
1 4 cation
1 5 donor
5 4 7 8 9 10 rings
6 18 20 21 22 23 24 rings
6 7 8 12 13 15 16 rings

> <PUBCHEM_HEAVY_ATOM_COUNT>
24

> <PUBCHEM_ATOM_DEF_STEREO_COUNT>
0

> <PUBCHEM_ATOM_UDEF_STEREO_COUNT>
0

> <PUBCHEM_BOND_DEF_STEREO_COUNT>
1

> <PUBCHEM_BOND_UDEF_STEREO_COUNT>
0

> <PUBCHEM_ISOTOPIC_ATOM_COUNT>
0

> <PUBCHEM_COMPONENT_COUNT>
1

> <PUBCHEM_CACTVS_TAUTO_COUNT>
4

> <PUBCHEM_CONFORMER_ID>
0057F9D200000001

> <PUBCHEM_MMFF94_ENERGY>
70.8447

> <PUBCHEM_FEATURE_SELFOVERLAP>
45.84

> <PUBCHEM_SHAPE_FINGERPRINT>
10693767 8 17274270435759685686
10930396 42 18192694685133681194
12236239 1 16343699894313638827
12730499 353 18343304790054375635
13533116 47 17774999068961461899
13836976 161 18131632275058475238
14170010 4 18272649026893611786
14863182 85 17203318975967602686
15081414 286 18408891745615861649
15799311 1 16773799229869803751
15961568 22 17749391507000588757
17134986 127 18196382644094204660
17844677 252 18339362955718298257
1979834 28 18410569621576123816
20645477 70 18201438047560072195
21304303 282 17196828790983343652
21304303 94 16415490362812652238
21860390 5 18334011700828548556
22149856 69 18201731678238450675
23227448 37 18189049957813978991
23522609 53 17059794290434458113
23559900 14 18412825759406836283
239999 70 18335419041188917251
3004659 81 17489303027956291431
312423 11 17702956829141317731
341906 21 16660642921650224527
34797466 226 18335138696632143247
46194498 28 18410857620639221471
5281201 14 18339644434541446893
6025842 7 18131348605068535594
6327066 14 18124029289939835648
633830 44 18337101268900382211
7164475 11 17773883003838891184
960060 61 17632572743345759835

> <PUBCHEM_SHAPE_MULTIPOLES>
461.36
13.4
3.14
1.48
24.78
0.14
0.09
3.72
2.86
-6.39
1.52
-0.22
0.12
1.43

> <PUBCHEM_SHAPE_SELFOVERLAP>
1007.671

> <PUBCHEM_SHAPE_VOLUME>
250.8

> <PUBCHEM_COORDINATE_TYPE>
2
5
10

$$$$
