3812720
  -OEChem-01171809243D

 48 48  0     1  0  0  0  0  0999 V2000
   -3.3548   -2.5764   -1.3650 O   0  0  0  0  0  0  0  0  0  0  0  0
    2.0070   -1.2629    1.0026 O   0  0  0  0  0  0  0  0  0  0  0  0
   -1.8896    1.9700    0.2210 O   0  0  0  0  0  0  0  0  0  0  0  0
    2.1758    0.7513   -1.6435 O   0  0  0  0  0  0  0  0  0  0  0  0
    0.0622   -0.9788    2.2057 O   0  0  0  0  0  0  0  0  0  0  0  0
   -0.1280    2.1852    1.6881 O   0  0  0  0  0  0  0  0  0  0  0  0
    2.1942    2.2505    0.1058 O   0  0  0  0  0  0  0  0  0  0  0  0
   -1.2635   -1.0026   -0.2465 N   0  0  0  0  0  0  0  0  0  0  0  0
    0.1181   -0.5289   -0.1991 C   0  0  1  0  0  0  0  0  0  0  0  0
   -1.3238   -2.4567   -0.0431 C   0  0  0  0  0  0  0  0  0  0  0  0
   -1.8936   -0.6466   -1.5254 C   0  0  0  0  0  0  0  0  0  0  0  0
    0.1636    0.9985   -0.4308 C   0  0  0  0  0  0  0  0  0  0  0  0
   -2.7733   -2.9295   -0.1094 C   0  0  0  0  0  0  0  0  0  0  0  0
   -3.3298   -1.1614   -1.5559 C   0  0  0  0  0  0  0  0  0  0  0  0
    0.6867   -0.9403    1.1534 C   0  0  0  0  0  0  0  0  0  0  0  0
   -0.5994    1.7838    0.6327 C   0  0  0  0  0  0  0  0  0  0  0  0
    1.6170    1.4314   -0.5965 C   0  0  0  0  0  0  0  0  0  0  0  0
    2.6824   -1.6749    2.1947 C   0  0  0  0  0  0  0  0  0  0  0  0
   -2.7275    2.6980    1.1241 C   0  0  0  0  0  0  0  0  0  0  0  0
    3.5504    1.0482   -1.9093 C   0  0  0  0  0  0  0  0  0  0  0  0
    4.1238   -1.9938    1.8596 C   0  0  0  0  0  0  0  0  0  0  0  0
   -4.1127    2.8163    0.5249 C   0  0  0  0  0  0  0  0  0  0  0  0
    4.0148    0.2196   -3.0881 C   0  0  0  0  0  0  0  0  0  0  0  0
    0.6923   -1.0531   -0.9758 H   0  0  0  0  0  0  0  0  0  0  0  0
   -0.7442   -2.9710   -0.8217 H   0  0  0  0  0  0  0  0  0  0  0  0
   -0.9330   -2.7772    0.9265 H   0  0  0  0  0  0  0  0  0  0  0  0
   -1.9727    0.4261   -1.7024 H   0  0  0  0  0  0  0  0  0  0  0  0
   -1.3330   -1.0876   -2.3603 H   0  0  0  0  0  0  0  0  0  0  0  0
   -0.2533    1.2986   -1.4001 H   0  0  0  0  0  0  0  0  0  0  0  0
   -3.3747   -2.5071    0.7050 H   0  0  0  0  0  0  0  0  0  0  0  0
   -2.8145   -4.0199   -0.0206 H   0  0  0  0  0  0  0  0  0  0  0  0
   -3.7813   -0.9513   -2.5308 H   0  0  0  0  0  0  0  0  0  0  0  0
   -3.9502   -0.6773   -0.7917 H   0  0  0  0  0  0  0  0  0  0  0  0
    2.1914   -2.5650    2.6034 H   0  0  0  0  0  0  0  0  0  0  0  0
    2.6443   -0.8664    2.9332 H   0  0  0  0  0  0  0  0  0  0  0  0
   -2.3079    3.6970    1.2869 H   0  0  0  0  0  0  0  0  0  0  0  0
   -2.7823    2.1656    2.0802 H   0  0  0  0  0  0  0  0  0  0  0  0
    4.1526    0.8056   -1.0266 H   0  0  0  0  0  0  0  0  0  0  0  0
    3.6558    2.1138   -2.1410 H   0  0  0  0  0  0  0  0  0  0  0  0
    4.6719   -2.3112    2.7510 H   0  0  0  0  0  0  0  0  0  0  0  0
    4.1778   -2.7892    1.1088 H   0  0  0  0  0  0  0  0  0  0  0  0
    4.6220   -1.1180    1.4306 H   0  0  0  0  0  0  0  0  0  0  0  0
   -4.5379    1.8244    0.3400 H   0  0  0  0  0  0  0  0  0  0  0  0
   -4.0717    3.3293   -0.4416 H   0  0  0  0  0  0  0  0  0  0  0  0
   -4.7812    3.3690    1.1908 H   0  0  0  0  0  0  0  0  0  0  0  0
    3.4093    0.4368   -3.9742 H   0  0  0  0  0  0  0  0  0  0  0  0
    3.8978   -0.8487   -2.8773 H   0  0  0  0  0  0  0  0  0  0  0  0
    5.0644    0.4213   -3.3189 H   0  0  0  0  0  0  0  0  0  0  0  0
  1 13  1  0  0  0  0
  1 14  1  0  0  0  0
  2 15  1  0  0  0  0
  2 18  1  0  0  0  0
  3 16  1  0  0  0  0
  3 19  1  0  0  0  0
  4 17  1  0  0  0  0
  4 20  1  0  0  0  0
  5 15  2  0  0  0  0
  6 16  2  0  0  0  0
  7 17  2  0  0  0  0
  8  9  1  0  0  0  0
  8 10  1  0  0  0  0
  8 11  1  0  0  0  0
  9 12  1  0  0  0  0
  9 15  1  0  0  0  0
  9 24  1  0  0  0  0
 10 13  1  0  0  0  0
 10 25  1  0  0  0  0
 10 26  1  0  0  0  0
 11 14  1  0  0  0  0
 11 27  1  0  0  0  0
 11 28  1  0  0  0  0
 12 16  1  0  0  0  0
 12 17  1  0  0  0  0
 12 29  1  0  0  0  0
 13 30  1  0  0  0  0
 13 31  1  0  0  0  0
 14 32  1  0  0  0  0
 14 33  1  0  0  0  0
 18 21  1  0  0  0  0
 18 34  1  0  0  0  0
 18 35  1  0  0  0  0
 19 22  1  0  0  0  0
 19 36  1  0  0  0  0
 19 37  1  0  0  0  0
 20 23  1  0  0  0  0
 20 38  1  0  0  0  0
 20 39  1  0  0  0  0
 21 40  1  0  0  0  0
 21 41  1  0  0  0  0
 21 42  1  0  0  0  0
 22 43  1  0  0  0  0
 22 44  1  0  0  0  0
 22 45  1  0  0  0  0
 23 46  1  0  0  0  0
 23 47  1  0  0  0  0
 23 48  1  0  0  0  0
M  END
> <PUBCHEM_COMPOUND_CID>
3812720

> <PUBCHEM_CONFORMER_RMSD>
1

> <PUBCHEM_CONFORMER_DIVERSEORDER>
1
17
36
11
16
3
18
21
6
8
7
39
26
29
30
22
19
4
23
38
2
27
24
35
37
10
15
34
14
31
13
40
20
33
12
5
25
32
9
28
41

> <PUBCHEM_MMFF94_PARTIAL_CHARGES>
20
1 -0.56
10 0.27
11 0.27
12 0.12
13 0.28
14 0.28
15 0.66
16 0.66
17 0.66
18 0.28
19 0.28
2 -0.43
20 0.28
3 -0.43
4 -0.43
5 -0.57
6 -0.57
7 -0.57
8 -0.81
9 0.33

> <PUBCHEM_EFFECTIVE_ROTOR_COUNT>
12.2

> <PUBCHEM_PHARMACOPHORE_FEATURES>
7
1 1 acceptor
1 12 anion
1 5 acceptor
1 6 acceptor
1 7 acceptor
1 8 cation
6 1 8 10 11 13 14 rings

> <PUBCHEM_HEAVY_ATOM_COUNT>
23

> <PUBCHEM_ATOM_DEF_STEREO_COUNT>
0

> <PUBCHEM_ATOM_UDEF_STEREO_COUNT>
1

> <PUBCHEM_BOND_DEF_STEREO_COUNT>
0

> <PUBCHEM_BOND_UDEF_STEREO_COUNT>
0

> <PUBCHEM_ISOTOPIC_ATOM_COUNT>
0

> <PUBCHEM_COMPONENT_COUNT>
1

> <PUBCHEM_CACTVS_TAUTO_COUNT>
1

> <PUBCHEM_CONFORMER_ID>
003A2D7000000001

> <PUBCHEM_MMFF94_ENERGY>
37.2523

> <PUBCHEM_FEATURE_SELFOVERLAP>
35.526

> <PUBCHEM_SHAPE_FINGERPRINT>
10756046 70 18042690485731986606
1100329 8 18198321997336718857
12035759 4 18260831514114058102
12788726 201 18413112783771170531
133893 2 17312817178571665794
14863182 85 17767126402397705633
14955137 171 17974293123095696730
16945 1 17534616320166338519
18915476 22 16371017277916750790
19784866 140 18265345073475403399
20473742 2 16734411303919949008
20600515 1 17844794906803264104
21041028 32 18267568256438985971
22112679 90 18337103458800927180
229495 10 17386294185859612901
23419403 2 17257021378440630840
23526113 38 17471865069760060416
23557571 272 17561075900016412608
23558518 356 18120109513300542820
25147074 1 18261110751185752702
266924 1 18333452062263003582
266924 78 17168151113173581922
2748010 2 15951596837972972587
298252 57 18053131456623646852
394222 165 17755896059098254120
68419 9 18410573963687261728
81228 2 17976787974840274083
9925002 15 18263631888567453160

> <PUBCHEM_SHAPE_MULTIPOLES>
427.26
6.68
3.68
2.49
1.68
0.22
0.64
-0.17
1.8
-3.12
-0.86
2.74
0.33
-3.96

> <PUBCHEM_SHAPE_SELFOVERLAP>
846.638

> <PUBCHEM_SHAPE_VOLUME>
252.9

> <PUBCHEM_COORDINATE_TYPE>
2
5
10

$$$$
