2740652
  -OEChem-01171810013D

 50 52  0     0  0  0  0  0  0999 V2000
   -6.6899   -0.0807    0.4255 O   0  0  0  0  0  0  0  0  0  0  0  0
    7.7967   -0.0537   -0.0415 O   0  0  0  0  0  0  0  0  0  0  0  0
   -5.9686    1.9150   -0.4666 O   0  0  0  0  0  0  0  0  0  0  0  0
    3.9761   -1.6798    0.6853 O   0  0  0  0  0  0  0  0  0  0  0  0
   -2.2837   -0.2713   -0.2542 N   0  0  0  0  0  0  0  0  0  0  0  0
   -2.8271   -1.4964   -0.4154 N   0  0  0  0  0  0  0  0  0  0  0  0
    3.2486    0.3543   -0.1886 N   0  0  0  0  0  0  0  0  0  0  0  0
    7.4111    1.2651    0.1667 N   0  0  0  0  0  0  0  0  0  0  0  0
   -3.2235    0.7179   -0.1192 C   0  0  0  0  0  0  0  0  0  0  0  0
   -4.4472    0.0990   -0.1978 C   0  0  0  0  0  0  0  0  0  0  0  0
   -0.9094   -0.1162   -0.2380 C   0  0  0  0  0  0  0  0  0  0  0  0
   -4.1417   -1.2631   -0.3800 C   0  0  0  0  0  0  0  0  0  0  0  0
   -2.8680    2.1397    0.0692 C   0  0  0  0  0  0  0  0  0  0  0  0
   -0.3367    1.0723   -0.6906 C   0  0  0  0  0  0  0  0  0  0  0  0
   -0.0963   -1.1480    0.2311 C   0  0  0  0  0  0  0  0  0  0  0  0
    1.8624    0.1974   -0.2052 C   0  0  0  0  0  0  0  0  0  0  0  0
    1.0493    1.2290   -0.6743 C   0  0  0  0  0  0  0  0  0  0  0  0
    1.2897   -0.9911    0.2475 C   0  0  0  0  0  0  0  0  0  0  0  0
   -5.0818   -2.3884   -0.5268 C   0  0  0  0  0  0  0  0  0  0  0  0
   -5.7241    0.7420   -0.1084 C   0  0  0  0  0  0  0  0  0  0  0  0
    5.6170   -0.0717    0.1695 C   0  0  0  0  0  0  0  0  0  0  0  0
    4.2298   -0.5614    0.2429 C   0  0  0  0  0  0  0  0  0  0  0  0
    6.6961   -0.8485   -0.0364 C   0  0  0  0  0  0  0  0  0  0  0  0
    6.0816    1.2209    0.2912 C   0  0  0  0  0  0  0  0  0  0  0  0
   -8.0126    0.4490    0.5653 C   0  0  0  0  0  0  0  0  0  0  0  0
    6.9296   -2.2840   -0.2450 C   0  0  0  0  0  0  0  0  0  0  0  0
    5.3307    2.4658    0.5266 C   0  0  0  0  0  0  0  0  0  0  0  0
   -8.9079   -0.6131    1.1672 C   0  0  0  0  0  0  0  0  0  0  0  0
   -2.0154    2.2987    0.7350 H   0  0  0  0  0  0  0  0  0  0  0  0
   -2.7383    2.6575   -0.8856 H   0  0  0  0  0  0  0  0  0  0  0  0
   -3.6936    2.6585    0.5725 H   0  0  0  0  0  0  0  0  0  0  0  0
   -0.8843    1.8627   -1.1844 H   0  0  0  0  0  0  0  0  0  0  0  0
   -0.5138   -2.0817    0.6005 H   0  0  0  0  0  0  0  0  0  0  0  0
    1.4848    2.1498   -1.0546 H   0  0  0  0  0  0  0  0  0  0  0  0
    1.8439   -1.8363    0.6284 H   0  0  0  0  0  0  0  0  0  0  0  0
   -5.8644   -2.1527   -1.2554 H   0  0  0  0  0  0  0  0  0  0  0  0
   -4.5748   -3.2951   -0.8744 H   0  0  0  0  0  0  0  0  0  0  0  0
   -5.5576   -2.6201    0.4315 H   0  0  0  0  0  0  0  0  0  0  0  0
    3.5687    1.2325   -0.5832 H   0  0  0  0  0  0  0  0  0  0  0  0
   -7.9844    1.3272    1.2193 H   0  0  0  0  0  0  0  0  0  0  0  0
   -8.3919    0.7412   -0.4200 H   0  0  0  0  0  0  0  0  0  0  0  0
    6.2319   -2.6875   -0.9855 H   0  0  0  0  0  0  0  0  0  0  0  0
    7.9454   -2.4760   -0.6051 H   0  0  0  0  0  0  0  0  0  0  0  0
    6.7931   -2.8336    0.6914 H   0  0  0  0  0  0  0  0  0  0  0  0
    5.9791    3.2403    0.9525 H   0  0  0  0  0  0  0  0  0  0  0  0
    4.9259    2.8622   -0.4099 H   0  0  0  0  0  0  0  0  0  0  0  0
    4.5122    2.3172    1.2378 H   0  0  0  0  0  0  0  0  0  0  0  0
   -9.9293   -0.2417    1.2874 H   0  0  0  0  0  0  0  0  0  0  0  0
   -8.9278   -1.5050    0.5322 H   0  0  0  0  0  0  0  0  0  0  0  0
   -8.5284   -0.9278    2.1449 H   0  0  0  0  0  0  0  0  0  0  0  0
  1 20  1  0  0  0  0
  1 25  1  0  0  0  0
  2  8  1  0  0  0  0
  2 23  1  0  0  0  0
  3 20  2  0  0  0  0
  4 22  2  0  0  0  0
  5  6  1  0  0  0  0
  5  9  1  0  0  0  0
  5 11  1  0  0  0  0
  6 12  2  0  0  0  0
  7 16  1  0  0  0  0
  7 22  1  0  0  0  0
  7 39  1  0  0  0  0
  8 24  2  0  0  0  0
  9 10  2  0  0  0  0
  9 13  1  0  0  0  0
 10 12  1  0  0  0  0
 10 20  1  0  0  0  0
 11 14  2  0  0  0  0
 11 15  1  0  0  0  0
 12 19  1  0  0  0  0
 13 29  1  0  0  0  0
 13 30  1  0  0  0  0
 13 31  1  0  0  0  0
 14 17  1  0  0  0  0
 14 32  1  0  0  0  0
 15 18  2  0  0  0  0
 15 33  1  0  0  0  0
 16 17  2  0  0  0  0
 16 18  1  0  0  0  0
 17 34  1  0  0  0  0
 18 35  1  0  0  0  0
 19 36  1  0  0  0  0
 19 37  1  0  0  0  0
 19 38  1  0  0  0  0
 21 22  1  0  0  0  0
 21 23  2  0  0  0  0
 21 24  1  0  0  0  0
 23 26  1  0  0  0  0
 24 27  1  0  0  0  0
 25 28  1  0  0  0  0
 25 40  1  0  0  0  0
 25 41  1  0  0  0  0
 26 42  1  0  0  0  0
 26 43  1  0  0  0  0
 26 44  1  0  0  0  0
 27 45  1  0  0  0  0
 27 46  1  0  0  0  0
 27 47  1  0  0  0  0
 28 48  1  0  0  0  0
 28 49  1  0  0  0  0
 28 50  1  0  0  0  0
M  END
> <PUBCHEM_COMPOUND_CID>
2740652

> <PUBCHEM_CONFORMER_RMSD>
0.8

> <PUBCHEM_CONFORMER_DIVERSEORDER>
2
34
11
39
5
55
18
53
21
6
17
57
50
54
26
16
9
43
24
41
37
52
48
36
29
1
49
19
51
56
22
4
27
12
46
42
35
20
8
15
33
38
25
14
40
45
7
3
13
32
31
10
47
28
44
30
23

> <PUBCHEM_MMFF94_PARTIAL_CHARGES>
32
1 -0.43
10 -0.09
11 -0.02
12 0.11
13 0.18
14 -0.15
15 -0.15
16 0.12
17 -0.15
18 -0.15
19 0.18
2 -0.02
20 0.81
21 -0.09
22 0.72
23 -0.04
24 0.11
25 0.28
26 0.18
27 0.18
3 -0.57
32 0.15
33 0.15
34 0.15
35 0.15
39 0.37
4 -0.57
5 0.59
6 -0.71
7 -0.55
8 -0.41
9 -0.33

> <PUBCHEM_EFFECTIVE_ROTOR_COUNT>
7

> <PUBCHEM_PHARMACOPHORE_FEATURES>
8
1 3 acceptor
1 4 acceptor
1 6 acceptor
1 7 donor
1 8 acceptor
5 2 8 21 23 24 rings
5 5 6 9 10 12 rings
6 11 14 15 16 17 18 rings

> <PUBCHEM_HEAVY_ATOM_COUNT>
28

> <PUBCHEM_ATOM_DEF_STEREO_COUNT>
0

> <PUBCHEM_ATOM_UDEF_STEREO_COUNT>
0

> <PUBCHEM_BOND_DEF_STEREO_COUNT>
0

> <PUBCHEM_BOND_UDEF_STEREO_COUNT>
0

> <PUBCHEM_ISOTOPIC_ATOM_COUNT>
0

> <PUBCHEM_COMPONENT_COUNT>
1

> <PUBCHEM_CACTVS_TAUTO_COUNT>
2

> <PUBCHEM_CONFORMER_ID>
0029D1AC00000002

> <PUBCHEM_MMFF94_ENERGY>
72.7978

> <PUBCHEM_FEATURE_SELFOVERLAP>
40.598

> <PUBCHEM_SHAPE_FINGERPRINT>
10 15 18408042918549265051
10299344 5 18410292510633877798
106641 1 18186804699330359913
11135926 11 18335128774778454039
11315181 36 18060702810210088785
11524674 6 16487252192449539287
11719270 70 17632858603779992614
12166972 35 18409730686268362832
12236239 1 18412823603496458974
12516196 113 18040151812236635412
14251764 18 18411701002303685367
14251764 46 12751518479262422636
14849402 71 18337112396438843101
14933364 13 18412262843976254544
15183329 4 18334002887318162943
15247644 1 15068340112190705480
15461852 350 17703781545083661581
15840311 113 18408044034935313828
15849732 13 18259985967954505247
16120349 18 18411978091786899549
17844677 252 18342461431051391280
18608769 82 18335986450035777683
20281389 69 18409728456483653177
21033648 29 17988065812025098634
21130935 74 18341893034610356114
21267235 1 18261116257850751845
21315763 28 18412543193339321676
22224240 67 17530684312056149555
23559900 14 18342448291955376273
23569943 247 17534899685509402922
24771293 8 18190452947905779716
335352 9 18411415121038792861
3383291 50 17604436318106393219
34797466 226 17918279744596338492
3545911 37 18411980243944881223
4073 2 18114747139826640162
4463277 17 18408038507396325356
5758199 1 18040715870101669738
59682541 35 18334581269816832593
6691757 9 17275108362900261319

> <PUBCHEM_SHAPE_MULTIPOLES>
532.83
25.48
2.14
0.77
3.07
0
0.05
0.94
5.07
-1
-0.08
0.55
0.01
0.28

> <PUBCHEM_SHAPE_SELFOVERLAP>
1148.812

> <PUBCHEM_SHAPE_VOLUME>
297

> <PUBCHEM_COORDINATE_TYPE>
2
5
10

$$$$
