2585197
  -OEChem-01171809383D

 37 38  0     0  0  0  0  0  0999 V2000
    3.4177    2.9118   -0.2274 Cl  0  0  0  0  0  0  0  0  0  0  0  0
    5.6075    1.0749    1.3917 Cl  0  0  0  0  0  0  0  0  0  0  0  0
   -0.0355   -1.7270    1.0286 O   0  0  0  0  0  0  0  0  0  0  0  0
    1.3132    1.2030   -1.3139 O   0  0  0  0  0  0  0  0  0  0  0  0
   -1.4426   -1.6085   -0.8198 N   0  0  0  0  0  0  0  0  0  0  0  0
    2.0520   -0.8639   -0.5709 N   0  0  0  0  0  0  0  0  0  0  0  0
    2.9885   -1.6010    0.1147 N   0  0  0  0  0  0  0  0  0  0  0  0
   -3.2219   -0.3424    0.2669 C   0  0  0  0  0  0  0  0  0  0  0  0
   -3.4377    0.5326   -0.9752 C   0  0  0  0  0  0  0  0  0  0  0  0
   -4.5200   -0.4738    1.0749 C   0  0  0  0  0  0  0  0  0  0  0  0
   -4.0187    1.8967   -0.6097 C   0  0  0  0  0  0  0  0  0  0  0  0
   -5.0994    0.8918    1.4369 C   0  0  0  0  0  0  0  0  0  0  0  0
   -5.3041    1.7620    0.2008 C   0  0  0  0  0  0  0  0  0  0  0  0
   -2.6910   -1.7191   -0.1288 C   0  0  0  0  0  0  0  0  0  0  0  0
   -0.2008   -1.6209   -0.1840 C   0  0  0  0  0  0  0  0  0  0  0  0
    0.9430   -1.5434   -1.1726 C   0  0  0  0  0  0  0  0  0  0  0  0
    2.1438    0.5297   -0.7023 C   0  0  0  0  0  0  0  0  0  0  0  0
    3.3126    1.1975   -0.0610 C   0  0  0  0  0  0  0  0  0  0  0  0
    3.9797   -0.9729    0.6502 C   0  0  0  0  0  0  0  0  0  0  0  0
    4.2137    0.4728    0.6009 C   0  0  0  0  0  0  0  0  0  0  0  0
   -2.4736    0.1519    0.9024 H   0  0  0  0  0  0  0  0  0  0  0  0
   -4.1162    0.0282   -1.6752 H   0  0  0  0  0  0  0  0  0  0  0  0
   -2.4927    0.6928   -1.5071 H   0  0  0  0  0  0  0  0  0  0  0  0
   -4.3324   -1.0413    1.9942 H   0  0  0  0  0  0  0  0  0  0  0  0
   -5.2630   -1.0394    0.4981 H   0  0  0  0  0  0  0  0  0  0  0  0
   -4.2176    2.4692   -1.5227 H   0  0  0  0  0  0  0  0  0  0  0  0
   -3.2798    2.4648   -0.0310 H   0  0  0  0  0  0  0  0  0  0  0  0
   -4.4233    1.4015    2.1344 H   0  0  0  0  0  0  0  0  0  0  0  0
   -6.0548    0.7603    1.9573 H   0  0  0  0  0  0  0  0  0  0  0  0
   -5.6558    2.7549    0.5027 H   0  0  0  0  0  0  0  0  0  0  0  0
   -6.0879    1.3228   -0.4286 H   0  0  0  0  0  0  0  0  0  0  0  0
   -3.3914   -2.2354   -0.7946 H   0  0  0  0  0  0  0  0  0  0  0  0
   -2.5512   -2.3429    0.7612 H   0  0  0  0  0  0  0  0  0  0  0  0
   -1.4750   -1.5341   -1.8324 H   0  0  0  0  0  0  0  0  0  0  0  0
    0.6317   -1.0226   -2.0843 H   0  0  0  0  0  0  0  0  0  0  0  0
    1.2402   -2.5620   -1.4453 H   0  0  0  0  0  0  0  0  0  0  0  0
    4.7291   -1.5662    1.1996 H   0  0  0  0  0  0  0  0  0  0  0  0
  1 18  1  0  0  0  0
  2 20  1  0  0  0  0
  3 15  2  0  0  0  0
  4 17  2  0  0  0  0
  5 14  1  0  0  0  0
  5 15  1  0  0  0  0
  5 34  1  0  0  0  0
  6  7  1  0  0  0  0
  6 16  1  0  0  0  0
  6 17  1  0  0  0  0
  7 19  2  0  0  0  0
  8  9  1  0  0  0  0
  8 10  1  0  0  0  0
  8 14  1  0  0  0  0
  8 21  1  0  0  0  0
  9 11  1  0  0  0  0
  9 22  1  0  0  0  0
  9 23  1  0  0  0  0
 10 12  1  0  0  0  0
 10 24  1  0  0  0  0
 10 25  1  0  0  0  0
 11 13  1  0  0  0  0
 11 26  1  0  0  0  0
 11 27  1  0  0  0  0
 12 13  1  0  0  0  0
 12 28  1  0  0  0  0
 12 29  1  0  0  0  0
 13 30  1  0  0  0  0
 13 31  1  0  0  0  0
 14 32  1  0  0  0  0
 14 33  1  0  0  0  0
 15 16  1  0  0  0  0
 16 35  1  0  0  0  0
 16 36  1  0  0  0  0
 17 18  1  0  0  0  0
 18 20  2  0  0  0  0
 19 20  1  0  0  0  0
 19 37  1  0  0  0  0
M  END
> <PUBCHEM_COMPOUND_CID>
2585197

> <PUBCHEM_CONFORMER_RMSD>
0.8

> <PUBCHEM_CONFORMER_DIVERSEORDER>
1
28
22
41
125
119
37
108
35
51
15
76
150
100
137
91
69
84
95
44
131
96
133
132
93
70
25
46
99
10
6
139
111
52
142
39
57
36
75
30
43
55
115
3
135
56
19
127
145
120
4
13
118
141
97
83
31
14
24
33
26
136
147
80
74
114
49
71
9
67
144
128
65
112
50
58
88
117
134
89
110
7
29
129
109
64
2
54
98
86
126
90
92
16
8
122
106
23
104
11
130
102
45
62
47
113
20
61
81
94
27
63
72
146
116
73
32
5
121
149
148
140
103
124
123
105
17
107
79
59
21
12
87
34
85
138
42
77
78
101
40
18
143
38
66
60
53
82
68
48

> <PUBCHEM_MMFF94_PARTIAL_CHARGES>
16
1 -0.14
14 0.3
15 0.57
16 0.36
17 0.62
18 0.15
19 0.38
2 -0.14
20 0.15
3 -0.57
34 0.37
37 0.06
4 -0.57
5 -0.73
6 -0.3
7 -0.51

> <PUBCHEM_EFFECTIVE_ROTOR_COUNT>
6.2

> <PUBCHEM_PHARMACOPHORE_FEATURES>
6
1 3 acceptor
1 4 acceptor
1 5 donor
1 7 acceptor
6 6 7 17 18 19 20 rings
6 8 9 10 11 12 13 rings

> <PUBCHEM_HEAVY_ATOM_COUNT>
20

> <PUBCHEM_ATOM_DEF_STEREO_COUNT>
0

> <PUBCHEM_ATOM_UDEF_STEREO_COUNT>
0

> <PUBCHEM_BOND_DEF_STEREO_COUNT>
0

> <PUBCHEM_BOND_UDEF_STEREO_COUNT>
0

> <PUBCHEM_ISOTOPIC_ATOM_COUNT>
0

> <PUBCHEM_COMPONENT_COUNT>
1

> <PUBCHEM_CACTVS_TAUTO_COUNT>
2

> <PUBCHEM_CONFORMER_ID>
0027726D00000001

> <PUBCHEM_MMFF94_ENERGY>
32.0215

> <PUBCHEM_FEATURE_SELFOVERLAP>
30.447

> <PUBCHEM_SHAPE_FINGERPRINT>
10928967 22 11891334266028786857
11796584 16 11314296240008127619
12107183 9 18337943477332471514
12596602 18 15502381148696177909
12633257 1 17749941280373510250
12670546 177 12535627176051220867
12892183 10 18042124439112692474
12978246 48 18411422804187386497
13103583 49 16660359268597795001
13544653 18 8502368936593506799
13583140 156 17313649504241334287
13675066 3 18186241714505815391
14123255 352 18272647952428886785
14251764 30 13262669306102091200
14251764 38 18408045091544890353
14790565 3 17829050158841050868
14951699 99 18054495070972203976
15188451 53 16226334823904531051
15238133 3 18334297595912038868
15475509 8 18338812191051527892
1601671 61 18409167732124891516
17870717 6 11167936957901578761
18915474 69 9655585114416139262
193927 3 10881400915660914587
20281475 54 8934732088416713695
20715895 44 18268430123289387665
20871999 31 12319741362609978587
21054139 6 9799698117044984944
21713013 43 10447934957516621323
22393880 68 10951775152991123299
23403322 49 8718823181146953595
235170 7 13038904387476522153
23559900 14 17703517605979054438
2838139 119 16845285073217946848
312425 83 14763526841365272537
351380 3 11891337547531019529
3680242 22 18340211795183980993
3737641 26 15069725423853392168
38570 142 16953127441576551516
4259306 186 8862946069460919841
4280585 95 9219913523558289928
465052 167 12540708010999136091
474 4 18412266133742004699
5104073 3 18408603656178291731
6328613 192 18408893953793060708
636775 72 17334209526380849728
7970288 3 12035740829191921985
79837 15 18115870865684128363
960060 61 10663820750173837387

> <PUBCHEM_SHAPE_MULTIPOLES>
388.65
12.78
2.56
1.25
3.44
0.65
-0.14
7.2
-4.96
-0.44
0.32
0.15
0.1
0.07

> <PUBCHEM_SHAPE_SELFOVERLAP>
779.263

> <PUBCHEM_SHAPE_VOLUME>
227.8

> <PUBCHEM_COORDINATE_TYPE>
2
5
10

$$$$
