6861939
  -OEChem-01171809463D

 25 26  0     0  0  0  0  0  0999 V2000
   -0.5843   -2.1495   -0.0883 Br  0  0  0  0  0  0  0  0  0  0  0  0
    3.4621   -0.1917    0.0106 N   0  0  0  0  0  0  0  0  0  0  0  0
    2.1826   -0.6943    0.0271 N   0  0  0  0  0  0  0  0  0  0  0  0
    5.1109    1.1977   -0.0189 N   0  0  0  0  0  0  0  0  0  0  0  0
    5.6158   -0.0872   -0.0083 N   0  0  0  0  0  0  0  0  0  0  0  0
   -2.6141    0.4258    0.0193 C   0  0  0  0  0  0  0  0  0  0  0  0
   -3.2932    0.3539   -1.1972 C   0  0  0  0  0  0  0  0  0  0  0  0
   -3.3134    0.2836    1.2178 C   0  0  0  0  0  0  0  0  0  0  0  0
   -1.1769    0.6490    0.0377 C   0  0  0  0  0  0  0  0  0  0  0  0
   -4.6714    0.1400   -1.2151 C   0  0  0  0  0  0  0  0  0  0  0  0
   -4.6917    0.0696    1.1998 C   0  0  0  0  0  0  0  0  0  0  0  0
   -5.3706   -0.0021   -0.0166 C   0  0  0  0  0  0  0  0  0  0  0  0
   -0.2363   -0.3190    0.0036 C   0  0  0  0  0  0  0  0  0  0  0  0
    1.1864    0.1300    0.0259 C   0  0  0  0  0  0  0  0  0  0  0  0
    3.8002    1.1069   -0.0073 C   0  0  0  0  0  0  0  0  0  0  0  0
    4.5938   -0.9128    0.0099 C   0  0  0  0  0  0  0  0  0  0  0  0
   -2.7625    0.4632   -2.1400 H   0  0  0  0  0  0  0  0  0  0  0  0
   -2.7987    0.3376    2.1742 H   0  0  0  0  0  0  0  0  0  0  0  0
   -0.8917    1.6978    0.0869 H   0  0  0  0  0  0  0  0  0  0  0  0
   -5.2002    0.0842   -2.1621 H   0  0  0  0  0  0  0  0  0  0  0  0
   -5.2364   -0.0411    2.1329 H   0  0  0  0  0  0  0  0  0  0  0  0
   -6.4437   -0.1687   -0.0305 H   0  0  0  0  0  0  0  0  0  0  0  0
    1.3034    1.2252    0.0358 H   0  0  0  0  0  0  0  0  0  0  0  0
    3.1412    1.9622   -0.0134 H   0  0  0  0  0  0  0  0  0  0  0  0
    4.6386   -1.9925    0.0222 H   0  0  0  0  0  0  0  0  0  0  0  0
  1 13  1  0  0  0  0
  2  3  1  0  0  0  0
  2 15  1  0  0  0  0
  2 16  1  0  0  0  0
  3 14  2  0  0  0  0
  4  5  1  0  0  0  0
  4 15  2  0  0  0  0
  5 16  2  0  0  0  0
  6  7  2  0  0  0  0
  6  8  1  0  0  0  0
  6  9  1  0  0  0  0
  7 10  1  0  0  0  0
  7 17  1  0  0  0  0
  8 11  2  0  0  0  0
  8 18  1  0  0  0  0
  9 13  2  0  0  0  0
  9 19  1  0  0  0  0
 10 12  2  0  0  0  0
 10 20  1  0  0  0  0
 11 12  1  0  0  0  0
 11 21  1  0  0  0  0
 12 22  1  0  0  0  0
 13 14  1  0  0  0  0
 14 23  1  0  0  0  0
 15 24  1  0  0  0  0
 16 25  1  0  0  0  0
M  END
> <PUBCHEM_COMPOUND_CID>
6861939

> <PUBCHEM_CONFORMER_RMSD>
0.6

> <PUBCHEM_CONFORMER_DIVERSEORDER>
1
5
4
2
3
6
7

> <PUBCHEM_MMFF94_PARTIAL_CHARGES>
25
1 -0.11
10 -0.15
11 -0.15
12 -0.15
13 0.12
14 0.38
15 0.04
16 0.04
17 0.15
18 0.15
19 0.15
2 0.51
20 0.15
21 0.15
22 0.15
23 0.06
24 0.15
25 0.15
3 -0.65
4 -0.34
5 -0.34
6 0.03
7 -0.15
8 -0.15
9 -0.18

> <PUBCHEM_EFFECTIVE_ROTOR_COUNT>
3

> <PUBCHEM_PHARMACOPHORE_FEATURES>
6
1 1 hydrophobe
1 3 acceptor
3 2 4 15 cation
3 2 5 16 cation
5 2 4 5 15 16 rings
6 6 7 8 10 11 12 rings

> <PUBCHEM_HEAVY_ATOM_COUNT>
16

> <PUBCHEM_ATOM_DEF_STEREO_COUNT>
0

> <PUBCHEM_ATOM_UDEF_STEREO_COUNT>
0

> <PUBCHEM_BOND_DEF_STEREO_COUNT>
2

> <PUBCHEM_BOND_UDEF_STEREO_COUNT>
0

> <PUBCHEM_ISOTOPIC_ATOM_COUNT>
0

> <PUBCHEM_COMPONENT_COUNT>
1

> <PUBCHEM_CACTVS_TAUTO_COUNT>
1

> <PUBCHEM_CONFORMER_ID>
0068B47300000001

> <PUBCHEM_MMFF94_ENERGY>
39.8457

> <PUBCHEM_FEATURE_SELFOVERLAP>
32.948

> <PUBCHEM_SHAPE_FINGERPRINT>
10 15 17749384927954572848
10912923 1 17703789210677254698
11128504 68 17703787046114081176
11287383 113 17967254221253075064
11401426 45 12468356856025562843
12107183 9 16553429379089970306
12236239 1 17847062173252383405
12815109 37 8142084256206092154
13288520 33 15410891877803424397
13533116 47 17774723061668373670
13675066 3 17603307063660616998
14123238 8 17489869336362602365
1420 363 18040721354721886035
14573314 32 16443344230507147323
17834072 33 17418371415202361105
17834076 25 17561366179850101222
17844677 252 18259990348858602908
187816 3 17846780710691128467
19489759 90 16153425043550628477
200 152 18413385428289767865
20325693 3 15267341812939709749
204376 136 18409731768067066143
20645477 56 18260824938656024580
20645477 70 18337107857264624366
21033648 29 18188473744458839548
21033650 10 16628871463676991920
21236236 1 8790620199350962231
22224240 67 18408329895769758187
23402539 116 17917710184403379217
23536379 177 15984825917567583230
23557571 272 16878226346917344215
23559900 14 18200871877039957640
34797466 226 16588322565354797390
351380 180 17313103055410034381
3545911 37 18408888451802459806
366044 4 18412262839359917139
42788 4 18409166605978322245
474229 33 18410856572931360567
5104073 3 18338512066830757634
542803 24 17632579348572931264
69090 78 18412261744348835590

> <PUBCHEM_SHAPE_MULTIPOLES>
315.29
13.36
1.29
0.99
8.49
0.67
0
-2.41
0.03
0.74
0.03
-1.51
-0.07
-0.01

> <PUBCHEM_SHAPE_SELFOVERLAP>
654.798

> <PUBCHEM_SHAPE_VOLUME>
183

> <PUBCHEM_COORDINATE_TYPE>
2
5
10

$$$$
