620459
  -OEChem-01171809333D

 27 29  0     0  0  0  0  0  0999 V2000
   -0.4426    1.3942    0.1422 S   0  0  0  0  0  0  0  0  0  0  0  0
    4.8723    1.7467    0.1773 O   0  0  0  0  0  0  0  0  0  0  0  0
    5.7344   -0.3459   -0.0335 O   0  0  0  0  0  0  0  0  0  0  0  0
   -0.6685   -1.1621   -0.1167 N   0  0  0  0  0  0  0  0  0  0  0  0
    1.0124    0.4739    0.0493 C   0  0  0  0  0  0  0  0  0  0  0  0
    0.6894   -0.8796   -0.0878 C   0  0  0  0  0  0  0  0  0  0  0  0
   -1.3520   -0.0472   -0.0038 C   0  0  0  0  0  0  0  0  0  0  0  0
   -2.7931    0.0400    0.0035 C   0  0  0  0  0  0  0  0  0  0  0  0
    2.3438    0.9176    0.0944 C   0  0  0  0  0  0  0  0  0  0  0  0
    1.7380   -1.8202   -0.1827 C   0  0  0  0  0  0  0  0  0  0  0  0
    3.3625   -0.0339   -0.0014 C   0  0  0  0  0  0  0  0  0  0  0  0
    3.0658   -1.3855   -0.1383 C   0  0  0  0  0  0  0  0  0  0  0  0
   -3.5573   -1.0868    0.3045 C   0  0  0  0  0  0  0  0  0  0  0  0
   -3.4189    1.2505   -0.2913 C   0  0  0  0  0  0  0  0  0  0  0  0
   -4.9496   -1.0026    0.3108 C   0  0  0  0  0  0  0  0  0  0  0  0
   -4.8112    1.3347   -0.2848 C   0  0  0  0  0  0  0  0  0  0  0  0
   -5.5767    0.2081    0.0162 C   0  0  0  0  0  0  0  0  0  0  0  0
    4.7513    0.3979    0.0420 C   0  0  0  0  0  0  0  0  0  0  0  0
    2.5418    1.9795    0.2018 H   0  0  0  0  0  0  0  0  0  0  0  0
    1.5172   -2.8784   -0.2899 H   0  0  0  0  0  0  0  0  0  0  0  0
    3.8563   -2.1282   -0.2133 H   0  0  0  0  0  0  0  0  0  0  0  0
   -3.0917   -2.0406    0.5404 H   0  0  0  0  0  0  0  0  0  0  0  0
   -2.8844    2.1565   -0.5600 H   0  0  0  0  0  0  0  0  0  0  0  0
   -5.5459   -1.8796    0.5455 H   0  0  0  0  0  0  0  0  0  0  0  0
   -5.3006    2.2754   -0.5202 H   0  0  0  0  0  0  0  0  0  0  0  0
   -6.6608    0.2731    0.0199 H   0  0  0  0  0  0  0  0  0  0  0  0
    5.8117    2.0279    0.2050 H   0  0  0  0  0  0  0  0  0  0  0  0
  1  5  1  0  0  0  0
  1  7  1  0  0  0  0
  2 18  1  0  0  0  0
  2 27  1  0  0  0  0
  3 18  2  0  0  0  0
  4  6  1  0  0  0  0
  4  7  2  0  0  0  0
  5  6  2  0  0  0  0
  5  9  1  0  0  0  0
  6 10  1  0  0  0  0
  7  8  1  0  0  0  0
  8 13  2  0  0  0  0
  8 14  1  0  0  0  0
  9 11  2  0  0  0  0
  9 19  1  0  0  0  0
 10 12  2  0  0  0  0
 10 20  1  0  0  0  0
 11 12  1  0  0  0  0
 11 18  1  0  0  0  0
 12 21  1  0  0  0  0
 13 15  1  0  0  0  0
 13 22  1  0  0  0  0
 14 16  2  0  0  0  0
 14 23  1  0  0  0  0
 15 17  2  0  0  0  0
 15 24  1  0  0  0  0
 16 17  1  0  0  0  0
 16 25  1  0  0  0  0
 17 26  1  0  0  0  0
M  END
> <PUBCHEM_COMPOUND_CID>
620459

> <PUBCHEM_CONFORMER_RMSD>
0.6

> <PUBCHEM_CONFORMER_DIVERSEORDER>
1

> <PUBCHEM_MMFF94_PARTIAL_CHARGES>
27
1 -0.08
10 -0.15
11 0.09
12 -0.15
13 -0.15
14 -0.15
15 -0.15
16 -0.15
17 -0.15
18 0.63
19 0.15
2 -0.65
20 0.15
21 0.15
22 0.15
23 0.15
24 0.15
25 0.15
26 0.15
27 0.5
3 -0.57
4 -0.57
5 0.04
6 0.23
7 0.33
8 0.05
9 -0.15

> <PUBCHEM_EFFECTIVE_ROTOR_COUNT>
2

> <PUBCHEM_PHARMACOPHORE_FEATURES>
7
1 2 acceptor
1 3 acceptor
1 4 acceptor
3 2 3 18 anion
5 1 4 5 6 7 rings
6 5 6 9 10 11 12 rings
6 8 13 14 15 16 17 rings

> <PUBCHEM_HEAVY_ATOM_COUNT>
18

> <PUBCHEM_ATOM_DEF_STEREO_COUNT>
0

> <PUBCHEM_ATOM_UDEF_STEREO_COUNT>
0

> <PUBCHEM_BOND_DEF_STEREO_COUNT>
0

> <PUBCHEM_BOND_UDEF_STEREO_COUNT>
0

> <PUBCHEM_ISOTOPIC_ATOM_COUNT>
0

> <PUBCHEM_COMPONENT_COUNT>
1

> <PUBCHEM_CACTVS_TAUTO_COUNT>
1

> <PUBCHEM_CONFORMER_ID>
000977AB00000001

> <PUBCHEM_MMFF94_ENERGY>
49.8809

> <PUBCHEM_FEATURE_SELFOVERLAP>
35.651

> <PUBCHEM_SHAPE_FINGERPRINT>
10 15 18335695109450623056
10366900 7 15626220204637819223
11287383 113 18407761451677211680
11401426 45 18410855464681611437
11471102 20 18341611495060838766
12107183 9 17617094707497157057
12236239 1 17561365080264620393
13214271 11 18410291415506751975
13862211 1 18412258445882485022
14341114 176 18410018715084864809
14528608 73 18341613741423764732
15196674 1 18410575054730319559
15375358 24 18335141985775641675
15788980 27 15647050460746607015
17834072 33 18343862233859300959
19489759 90 17458344139361399081
200 152 18060416907122089267
20645477 56 18260828173030324349
20645477 70 18200877257948781654
21267235 1 18411428305697022974
21709351 56 18334570269936245069
23402539 116 18113896070069962775
23402655 69 18272930501337280063
23557571 272 17458623376349023205
23559900 14 18194960742919548098
239999 70 18271531914374000822
26918003 58 18407478864488620283
2916195 48 18342450495637492072
300161 21 18259979358416574095
3004659 81 18261675883684323178
335352 9 18411982464817649934
33824 294 18409167675705208634
34797466 226 17775293793226621557
34934 24 18411695487154610239
3545911 37 18410294701082841093
4072396 5 18338505375182006682
4073 2 18040723592426624282
4214541 1 18409167697480355085
42788 4 18410293618276315849
4340502 62 17240484701830978994
474229 33 18411700997486829255
5104073 3 18336548218297933339
542803 24 17385727997421306517
59755656 215 18340211795875122782
59755656 520 17675922114405269026
77779 3 18410013208936869239
9709674 26 18408892828137420187

> <PUBCHEM_SHAPE_MULTIPOLES>
357.56
12.5
1.66
0.63
0.19
0.04
0
-1.61
0.2
-0.23
-0.02
0.12
0
0.48

> <PUBCHEM_SHAPE_SELFOVERLAP>
785.159

> <PUBCHEM_SHAPE_VOLUME>
194.3

> <PUBCHEM_COORDINATE_TYPE>
2
5
10

$$$$
