1089417
  -OEChem-01171810203D

 58 60  0     0  0  0  0  0  0999 V2000
    2.7146    3.2489    0.0497 O   0  0  0  0  0  0  0  0  0  0  0  0
   -2.8205    3.1732    0.0556 O   0  0  0  0  0  0  0  0  0  0  0  0
    5.5936   -1.8208   -2.3625 O   0  0  0  0  0  0  0  0  0  0  0  0
    5.4368   -1.9775    2.2994 O   0  0  0  0  0  0  0  0  0  0  0  0
   -7.5346   -0.9720   -0.1138 O   0  0  0  0  0  0  0  0  0  0  0  0
   -3.3758   -3.0801    0.0475 O   0  0  0  0  0  0  0  0  0  0  0  0
    5.3759   -1.6431   -0.0277 N   0  0  0  0  0  0  0  0  0  0  0  0
   -5.3516   -1.8214   -0.0297 N   0  0  0  0  0  0  0  0  0  0  0  0
    4.7083   -0.4183   -0.0093 C   0  0  0  0  0  0  0  0  0  0  0  0
   -4.6974   -0.5283   -0.0065 C   0  0  0  0  0  0  0  0  0  0  0  0
    3.3750    2.0319    0.0291 C   0  0  0  0  0  0  0  0  0  0  0  0
   -3.4368    1.9601    0.0363 C   0  0  0  0  0  0  0  0  0  0  0  0
    5.1253    0.6159   -0.8473 C   0  0  0  0  0  0  0  0  0  0  0  0
   -5.1439    0.4943   -0.8436 C   0  0  0  0  0  0  0  0  0  0  0  0
    3.6247   -0.2273    0.8480 C   0  0  0  0  0  0  0  0  0  0  0  0
   -3.6205   -0.3066    0.8520 C   0  0  0  0  0  0  0  0  0  0  0  0
    1.3537    3.2302    0.0513 C   0  0  0  0  0  0  0  0  0  0  0  0
   -1.4358    3.1919    0.0545 C   0  0  0  0  0  0  0  0  0  0  0  0
    4.4587    1.8409   -0.8281 C   0  0  0  0  0  0  0  0  0  0  0  0
   -4.5137    1.7384   -0.8222 C   0  0  0  0  0  0  0  0  0  0  0  0
    2.9581    0.9978    0.8673 C   0  0  0  0  0  0  0  0  0  0  0  0
   -2.9902    0.9375    0.8734 C   0  0  0  0  0  0  0  0  0  0  0  0
    0.6457    4.0608    0.9200 C   0  0  0  0  0  0  0  0  0  0  0  0
   -0.7489    4.0418    0.9216 C   0  0  0  0  0  0  0  0  0  0  0  0
    0.6669    2.3804   -0.8158 C   0  0  0  0  0  0  0  0  0  0  0  0
   -0.7278    2.3613   -0.8142 C   0  0  0  0  0  0  0  0  0  0  0  0
    6.0031   -2.1066   -1.2350 C   0  0  0  0  0  0  0  0  0  0  0  0
    5.4398   -2.4497    1.1603 C   0  0  0  0  0  0  0  0  0  0  0  0
   -6.7243   -1.8707   -0.3514 C   0  0  0  0  0  0  0  0  0  0  0  0
   -4.5828   -2.9653    0.2717 C   0  0  0  0  0  0  0  0  0  0  0  0
    7.2334   -2.9704   -1.0799 C   0  0  0  0  0  0  0  0  0  0  0  0
    5.4942   -3.9478    0.9692 C   0  0  0  0  0  0  0  0  0  0  0  0
   -7.1758   -3.1146   -1.0812 C   0  0  0  0  0  0  0  0  0  0  0  0
   -5.3277   -4.0849    0.9613 C   0  0  0  0  0  0  0  0  0  0  0  0
    5.9850    0.5173   -1.5042 H   0  0  0  0  0  0  0  0  0  0  0  0
   -5.9559    0.3490   -1.5501 H   0  0  0  0  0  0  0  0  0  0  0  0
    3.2522   -1.0170    1.4944 H   0  0  0  0  0  0  0  0  0  0  0  0
   -3.2699   -1.0655    1.5457 H   0  0  0  0  0  0  0  0  0  0  0  0
    4.7918    2.6458   -1.4775 H   0  0  0  0  0  0  0  0  0  0  0  0
   -4.8602    2.5289   -1.4824 H   0  0  0  0  0  0  0  0  0  0  0  0
    2.1268    1.1243    1.5559 H   0  0  0  0  0  0  0  0  0  0  0  0
   -2.1730    1.0915    1.5732 H   0  0  0  0  0  0  0  0  0  0  0  0
    1.1753    4.7245    1.5980 H   0  0  0  0  0  0  0  0  0  0  0  0
   -1.2953    4.6904    1.6005 H   0  0  0  0  0  0  0  0  0  0  0  0
    1.1919    1.7429   -1.5224 H   0  0  0  0  0  0  0  0  0  0  0  0
   -1.2377    1.7096   -1.5186 H   0  0  0  0  0  0  0  0  0  0  0  0
    6.9887   -4.0220   -1.2413 H   0  0  0  0  0  0  0  0  0  0  0  0
    7.9529   -2.6723   -1.8506 H   0  0  0  0  0  0  0  0  0  0  0  0
    7.7276   -2.8179   -0.1180 H   0  0  0  0  0  0  0  0  0  0  0  0
    6.5120   -4.3173    1.1089 H   0  0  0  0  0  0  0  0  0  0  0  0
    4.8629   -4.4079    1.7374 H   0  0  0  0  0  0  0  0  0  0  0  0
    5.0854   -4.2572    0.0048 H   0  0  0  0  0  0  0  0  0  0  0  0
   -7.6772   -3.7967   -0.3911 H   0  0  0  0  0  0  0  0  0  0  0  0
   -7.8971   -2.8167   -1.8496 H   0  0  0  0  0  0  0  0  0  0  0  0
   -6.3529   -3.6160   -1.5961 H   0  0  0  0  0  0  0  0  0  0  0  0
   -5.5708   -4.8738    0.2463 H   0  0  0  0  0  0  0  0  0  0  0  0
   -4.6711   -4.5105    1.7277 H   0  0  0  0  0  0  0  0  0  0  0  0
   -6.2260   -3.7325    1.4736 H   0  0  0  0  0  0  0  0  0  0  0  0
  1 11  1  0  0  0  0
  1 17  1  0  0  0  0
  2 12  1  0  0  0  0
  2 18  1  0  0  0  0
  3 27  2  0  0  0  0
  4 28  2  0  0  0  0
  5 29  2  0  0  0  0
  6 30  2  0  0  0  0
  7  9  1  0  0  0  0
  7 27  1  0  0  0  0
  7 28  1  0  0  0  0
  8 10  1  0  0  0  0
  8 29  1  0  0  0  0
  8 30  1  0  0  0  0
  9 13  2  0  0  0  0
  9 15  1  0  0  0  0
 10 14  2  0  0  0  0
 10 16  1  0  0  0  0
 11 19  2  0  0  0  0
 11 21  1  0  0  0  0
 12 20  2  0  0  0  0
 12 22  1  0  0  0  0
 13 19  1  0  0  0  0
 13 35  1  0  0  0  0
 14 20  1  0  0  0  0
 14 36  1  0  0  0  0
 15 21  2  0  0  0  0
 15 37  1  0  0  0  0
 16 22  2  0  0  0  0
 16 38  1  0  0  0  0
 17 23  2  0  0  0  0
 17 25  1  0  0  0  0
 18 24  2  0  0  0  0
 18 26  1  0  0  0  0
 19 39  1  0  0  0  0
 20 40  1  0  0  0  0
 21 41  1  0  0  0  0
 22 42  1  0  0  0  0
 23 24  1  0  0  0  0
 23 43  1  0  0  0  0
 24 44  1  0  0  0  0
 25 26  2  0  0  0  0
 25 45  1  0  0  0  0
 26 46  1  0  0  0  0
 27 31  1  0  0  0  0
 28 32  1  0  0  0  0
 29 33  1  0  0  0  0
 30 34  1  0  0  0  0
 31 47  1  0  0  0  0
 31 48  1  0  0  0  0
 31 49  1  0  0  0  0
 32 50  1  0  0  0  0
 32 51  1  0  0  0  0
 32 52  1  0  0  0  0
 33 53  1  0  0  0  0
 33 54  1  0  0  0  0
 33 55  1  0  0  0  0
 34 56  1  0  0  0  0
 34 57  1  0  0  0  0
 34 58  1  0  0  0  0
M  END
> <PUBCHEM_COMPOUND_CID>
1089417

> <PUBCHEM_CONFORMER_RMSD>
1.2

> <PUBCHEM_CONFORMER_DIVERSEORDER>
1
21
2
3
15
19
11
25
5
29
17
9
8
28
24
10
18
22
14
26
16
7
6
20
4
13
27
12
23

> <PUBCHEM_MMFF94_PARTIAL_CHARGES>
46
1 -0.17
10 0.12
11 0.08
12 0.08
13 -0.15
14 -0.15
15 -0.15
16 -0.15
17 0.08
18 0.08
19 -0.15
2 -0.17
20 -0.15
21 -0.15
22 -0.15
23 -0.15
24 -0.15
25 -0.15
26 -0.15
27 0.57
28 0.57
29 0.57
3 -0.57
30 0.57
31 0.06
32 0.06
33 0.06
34 0.06
35 0.15
36 0.15
37 0.15
38 0.15
39 0.15
4 -0.57
40 0.15
41 0.15
42 0.15
43 0.15
44 0.15
45 0.15
46 0.15
5 -0.57
6 -0.57
7 -0.24
8 -0.24
9 0.12

> <PUBCHEM_EFFECTIVE_ROTOR_COUNT>
10

> <PUBCHEM_PHARMACOPHORE_FEATURES>
9
1 1 acceptor
1 2 acceptor
1 3 acceptor
1 4 acceptor
1 5 acceptor
1 6 acceptor
6 10 12 14 16 20 22 rings
6 17 18 23 24 25 26 rings
6 9 11 13 15 19 21 rings

> <PUBCHEM_HEAVY_ATOM_COUNT>
34

> <PUBCHEM_ATOM_DEF_STEREO_COUNT>
0

> <PUBCHEM_ATOM_UDEF_STEREO_COUNT>
0

> <PUBCHEM_BOND_DEF_STEREO_COUNT>
0

> <PUBCHEM_BOND_UDEF_STEREO_COUNT>
0

> <PUBCHEM_ISOTOPIC_ATOM_COUNT>
0

> <PUBCHEM_COMPONENT_COUNT>
1

> <PUBCHEM_CACTVS_TAUTO_COUNT>
1

> <PUBCHEM_CONFORMER_ID>
00109F8900000001

> <PUBCHEM_MMFF94_ENERGY>
159.9263

> <PUBCHEM_FEATURE_SELFOVERLAP>
45.677

> <PUBCHEM_SHAPE_FINGERPRINT>
10622 236 18335135367283805552
11146346 29 18340495567915844438
11197282 1 18338518641945424667
117089 54 18342466910992136486
11973864 118 17969204777089602986
12120059 20 18334023796184389344
12124843 1 18113902654033574398
13165053 137 17908981011583615339
1361 4 18410575110554708964
13782708 43 17917987256874892814
14251764 75 9367348154016207417
15001296 14 18115862078528277523
15230672 131 18189046513640714717
15351339 4 18187354433099972682
15510800 12 18130507435723244428
15530120 55 17604449430630524276
15538507 19 18049718526383636146
15684393 108 17168725066806777074
17138139 8 18041283154499681554
17909252 39 18267588098628822144
19246450 95 17911541817657990905
19301676 85 18336820880550949671
19309040 13 11169907295027811737
20156587 161 16882136133231391626
208703 8 18412260640542221254
21307412 95 18337947879805974749
229767 8 18337117877175497227
23559900 14 18337663218053492877
23569914 152 18052220031342648565
2838139 119 9295022232118800481
32027 91 18340759429980616329
373842 8 18412261731490626095
4435113 14 17270612257325924830
50009960 94 18263620966671497418
57366028 249 9941323968390515011
6058803 2 18267606661831838192
6201320 77 17243048819646308363
6697151 62 17988063604898178941
7970288 3 18410572868665987920
9831232 110 18118681256770955397
9980921 52 17558246981849088591

> <PUBCHEM_SHAPE_MULTIPOLES>
654.53
21.07
6.49
1.34
3.27
0.01
-0.04
28.39
-3.94
0.39
1.06
-1.83
0.71
-0.1

> <PUBCHEM_SHAPE_SELFOVERLAP>
1410.227

> <PUBCHEM_SHAPE_VOLUME>
357.3

> <PUBCHEM_COORDINATE_TYPE>
2
5
10

$$$$
