54718137
  -OEChem-01171810073D

 51 54  0     1  0  0  0  0  0999 V2000
    4.2926   -0.8340    0.6636 O   0  0  0  0  0  0  0  0  0  0  0  0
    2.5880    2.6058   -1.4594 O   0  0  0  0  0  0  0  0  0  0  0  0
    0.1217    2.6197   -1.4168 O   0  0  0  0  0  0  0  0  0  0  0  0
   -7.1485   -1.1226    0.7397 O   0  0  0  0  0  0  0  0  0  0  0  0
    3.7913    1.4440    0.1598 N   0  0  0  0  0  0  0  0  0  0  0  0
    3.8354    0.4123    1.2368 C   0  0  1  0  0  0  0  0  0  0  0  0
    1.4754   -0.1099    0.8072 C   0  0  2  0  0  0  0  0  0  0  0  0
    2.4647    0.2462    1.9065 C   0  0  0  0  0  0  0  0  0  0  0  0
    1.9775   -1.3386    0.0872 C   0  0  0  0  0  0  0  0  0  0  0  0
    1.3749    1.0647   -0.1265 C   0  0  0  0  0  0  0  0  0  0  0  0
    4.8511    0.7635    2.3375 C   0  0  0  0  0  0  0  0  0  0  0  0
    2.6258    1.7805   -0.5458 C   0  0  0  0  0  0  0  0  0  0  0  0
    3.3499   -1.6171    0.0498 C   0  0  0  0  0  0  0  0  0  0  0  0
    5.0300    2.1427   -0.1789 C   0  0  0  0  0  0  0  0  0  0  0  0
    1.0868   -2.1956   -0.5726 C   0  0  0  0  0  0  0  0  0  0  0  0
    0.1989    1.5223   -0.5825 C   0  0  0  0  0  0  0  0  0  0  0  0
    3.8220   -2.7474   -0.6203 C   0  0  0  0  0  0  0  0  0  0  0  0
    1.5612   -3.3215   -1.2461 C   0  0  0  0  0  0  0  0  0  0  0  0
    2.9271   -3.5979   -1.2681 C   0  0  0  0  0  0  0  0  0  0  0  0
   -1.0646    0.8995   -0.2345 C   0  0  0  0  0  0  0  0  0  0  0  0
   -2.2727    1.3088   -0.6571 C   0  0  0  0  0  0  0  0  0  0  0  0
   -3.5502    0.6724   -0.2898 C   0  0  0  0  0  0  0  0  0  0  0  0
   -3.5646   -0.6387    0.1866 C   0  0  0  0  0  0  0  0  0  0  0  0
   -4.7450    1.3804   -0.4197 C   0  0  0  0  0  0  0  0  0  0  0  0
   -4.7738   -1.2417    0.5327 C   0  0  0  0  0  0  0  0  0  0  0  0
   -5.9542    0.7774   -0.0736 C   0  0  0  0  0  0  0  0  0  0  0  0
   -5.9686   -0.5337    0.4025 C   0  0  0  0  0  0  0  0  0  0  0  0
   -8.3322   -0.3415    0.5819 C   0  0  0  0  0  0  0  0  0  0  0  0
    0.5586   -0.3633    1.3422 H   0  0  0  0  0  0  0  0  0  0  0  0
    2.1589    1.1650    2.4242 H   0  0  0  0  0  0  0  0  0  0  0  0
    2.4989   -0.5597    2.6527 H   0  0  0  0  0  0  0  0  0  0  0  0
    5.8782    0.7700    1.9560 H   0  0  0  0  0  0  0  0  0  0  0  0
    4.8367    0.0077    3.1320 H   0  0  0  0  0  0  0  0  0  0  0  0
    4.6389    1.7394    2.7870 H   0  0  0  0  0  0  0  0  0  0  0  0
    5.3078    2.8028    0.6471 H   0  0  0  0  0  0  0  0  0  0  0  0
    4.9173    2.7526   -1.0791 H   0  0  0  0  0  0  0  0  0  0  0  0
    5.8182    1.4060   -0.3587 H   0  0  0  0  0  0  0  0  0  0  0  0
    0.0187   -1.9980   -0.5632 H   0  0  0  0  0  0  0  0  0  0  0  0
    4.8855   -2.9699   -0.6442 H   0  0  0  0  0  0  0  0  0  0  0  0
    0.8652   -3.9838   -1.7526 H   0  0  0  0  0  0  0  0  0  0  0  0
    3.2948   -4.4758   -1.7914 H   0  0  0  0  0  0  0  0  0  0  0  0
   -1.0404    0.0472    0.4261 H   0  0  0  0  0  0  0  0  0  0  0  0
    0.9569    3.1087   -1.4266 H   0  0  0  0  0  0  0  0  0  0  0  0
   -2.3602    2.1766   -1.3069 H   0  0  0  0  0  0  0  0  0  0  0  0
   -2.6672   -1.2424    0.2805 H   0  0  0  0  0  0  0  0  0  0  0  0
   -4.7515    2.4034   -0.7884 H   0  0  0  0  0  0  0  0  0  0  0  0
   -4.7802   -2.2653    0.8974 H   0  0  0  0  0  0  0  0  0  0  0  0
   -6.8445    1.3841   -0.1991 H   0  0  0  0  0  0  0  0  0  0  0  0
   -9.1753   -0.9653    0.8964 H   0  0  0  0  0  0  0  0  0  0  0  0
   -8.5035   -0.0779   -0.4673 H   0  0  0  0  0  0  0  0  0  0  0  0
   -8.3241    0.5378    1.2349 H   0  0  0  0  0  0  0  0  0  0  0  0
  1  6  1  0  0  0  0
  1 13  1  0  0  0  0
  2 12  2  0  0  0  0
  3 16  1  0  0  0  0
  3 43  1  0  0  0  0
  4 27  1  0  0  0  0
  4 28  1  0  0  0  0
  5  6  1  0  0  0  0
  5 12  1  0  0  0  0
  5 14  1  0  0  0  0
  6  8  1  0  0  0  0
  6 11  1  0  0  0  0
  7  8  1  0  0  0  0
  7  9  1  0  0  0  0
  7 10  1  0  0  0  0
  7 29  1  0  0  0  0
  8 30  1  0  0  0  0
  8 31  1  0  0  0  0
  9 13  1  0  0  0  0
  9 15  2  0  0  0  0
 10 12  1  0  0  0  0
 10 16  2  0  0  0  0
 11 32  1  0  0  0  0
 11 33  1  0  0  0  0
 11 34  1  0  0  0  0
 13 17  2  0  0  0  0
 14 35  1  0  0  0  0
 14 36  1  0  0  0  0
 14 37  1  0  0  0  0
 15 18  1  0  0  0  0
 15 38  1  0  0  0  0
 16 20  1  0  0  0  0
 17 19  1  0  0  0  0
 17 39  1  0  0  0  0
 18 19  2  0  0  0  0
 18 40  1  0  0  0  0
 19 41  1  0  0  0  0
 20 21  2  0  0  0  0
 20 42  1  0  0  0  0
 21 22  1  0  0  0  0
 21 44  1  0  0  0  0
 22 23  2  0  0  0  0
 22 24  1  0  0  0  0
 23 25  1  0  0  0  0
 23 45  1  0  0  0  0
 24 26  2  0  0  0  0
 24 46  1  0  0  0  0
 25 27  2  0  0  0  0
 25 47  1  0  0  0  0
 26 27  1  0  0  0  0
 26 48  1  0  0  0  0
 28 49  1  0  0  0  0
 28 50  1  0  0  0  0
 28 51  1  0  0  0  0
M  END
> <PUBCHEM_COMPOUND_CID>
54718137

> <PUBCHEM_CONFORMER_RMSD>
0.8

> <PUBCHEM_CONFORMER_DIVERSEORDER>
1
4
3
5
6
2

> <PUBCHEM_MMFF94_PARTIAL_CHARGES>
37
1 -0.36
10 -0.12
12 0.62
13 0.08
14 0.3
15 -0.15
16 0.08
17 -0.15
18 -0.15
19 -0.15
2 -0.57
20 -0.15
21 -0.18
22 0.03
23 -0.15
24 -0.15
25 -0.15
26 -0.15
27 0.08
28 0.28
3 -0.53
38 0.15
39 0.15
4 -0.36
40 0.15
41 0.15
42 0.15
43 0.45
44 0.15
45 0.15
46 0.15
47 0.15
48 0.15
5 -0.66
6 0.58
7 0.28
9 -0.14

> <PUBCHEM_EFFECTIVE_ROTOR_COUNT>
3.6

> <PUBCHEM_PHARMACOPHORE_FEATURES>
8
1 1 acceptor
1 2 acceptor
1 3 donor
1 4 acceptor
6 1 6 7 8 9 13 rings
6 22 23 24 25 26 27 rings
6 5 6 7 8 10 12 rings
6 9 13 15 17 18 19 rings

> <PUBCHEM_HEAVY_ATOM_COUNT>
28

> <PUBCHEM_ATOM_DEF_STEREO_COUNT>
0

> <PUBCHEM_ATOM_UDEF_STEREO_COUNT>
2

> <PUBCHEM_BOND_DEF_STEREO_COUNT>
2

> <PUBCHEM_BOND_UDEF_STEREO_COUNT>
0

> <PUBCHEM_ISOTOPIC_ATOM_COUNT>
0

> <PUBCHEM_COMPONENT_COUNT>
1

> <PUBCHEM_CACTVS_TAUTO_COUNT>
3

> <PUBCHEM_CONFORMER_ID>
0342EEB900000001

> <PUBCHEM_MMFF94_ENERGY>
103.3172

> <PUBCHEM_FEATURE_SELFOVERLAP>
42.065

> <PUBCHEM_SHAPE_FINGERPRINT>
10165383 225 18201153352228028936
10316853 100 18409174289970987071
11135609 99 16588296190450867354
11421498 54 18131074809546273928
11443803 9 18042977652469566012
12035758 1 18057014975787545370
12107183 9 17767417786017020913
12422481 6 18196345114564737570
12596602 18 16702296897503517379
12623949 98 17987243239514503150
12730499 353 18273494572393528642
12778500 126 17345762871697595667
13150687 139 17825413975219299516
13402501 40 18338238159259887303
13533116 47 18060421288094505707
13583140 156 17631433619124466769
13911882 115 18411700967432529914
14211702 104 17896049896511921635
14251740 57 18411142403041534119
14790565 3 18051130599249423476
14863182 85 18411983572475938180
15419008 42 17973143068794000349
15927050 60 17545886391872249556
16990366 60 18121217576504117466
16992610 120 18119821455226080092
17492 54 18043841761139240110
1768 124 18341051908879739271
17909252 39 18270689640895176350
1813 80 17167866344442142181
18681886 176 18265615558132229452
19301679 30 18408611336471126057
1979834 28 18413103970165794408
20645477 70 18260550021894174653
21033650 10 16807584850730914157
21049683 271 18198069080415490102
21130935 74 18272938198800240259
21197605 99 18264491857053359899
21344244 181 17845671304440034598
21623969 137 18410572890393856563
21859007 373 17532358791768393797
22149856 69 18270695220716876195
22182313 1 18120917439861779172
22224240 67 18129932494305586864
22956985 138 17973151839038980570
23559900 14 18266458707287457757
239999 70 18260547805590686842
25222932 49 17749096829394331419
3004659 81 17967254195884249973
3178227 256 18202274802422022602
32027 91 18049717413370116039
3411729 13 17823142391973942628
3421961 26 18269557143565288750
4340502 62 17988917899250615776
46194498 28 18260551104104497405
465052 167 18040427789892434664
5104073 3 18199464373054308329
58260988 521 18269257003773884106
6441014 3 17402616247455407055
6823239 73 18264490594026480422
9709674 26 18260835908160851475

> <PUBCHEM_SHAPE_MULTIPOLES>
547.77
15.83
3.36
1.39
36.13
2.37
0.44
1.14
5.07
-4.83
-1.89
-1.6
-0.29
1.55

> <PUBCHEM_SHAPE_SELFOVERLAP>
1202.27

> <PUBCHEM_SHAPE_VOLUME>
294.8

> <PUBCHEM_COORDINATE_TYPE>
2
5
10

$$$$
