49789998
  -OEChem-01171810193D

 48 51  0     1  0  0  0  0  0999 V2000
   -5.4126   -1.9986   -0.2508 S   0  0  0  0  0  0  0  0  0  0  0  0
    2.2806    2.8168   -0.9480 O   0  0  0  0  0  0  0  0  0  0  0  0
    0.1447    3.0510    0.4098 O   0  0  0  0  0  0  0  0  0  0  0  0
   -6.3983   -2.7163   -1.0374 O   0  0  0  0  0  0  0  0  0  0  0  0
   -4.0183   -2.3937   -0.2782 O   0  0  0  0  0  0  0  0  0  0  0  0
   -1.0270    1.4154   -0.8104 N   0  0  0  0  0  0  0  0  0  0  0  0
    4.2585    2.5890    0.3496 N   0  0  0  0  0  0  0  0  0  0  0  0
   -5.5820   -0.3149   -0.5709 N   0  0  0  0  0  0  0  0  0  0  0  0
    1.7326    0.4467   -1.1732 C   0  0  0  0  0  0  0  0  0  0  0  0
    1.2461    1.8901   -1.3435 C   0  0  1  0  0  0  0  0  0  0  0  0
    2.9404    0.6851   -0.3590 C   0  0  0  0  0  0  0  0  0  0  0  0
    3.2134    2.0330   -0.2844 C   0  0  0  0  0  0  0  0  0  0  0  0
    3.7971   -0.2027    0.2572 C   0  0  0  0  0  0  0  0  0  0  0  0
    0.0674    2.2005   -0.4710 C   0  0  0  0  0  0  0  0  0  0  0  0
    3.5774   -1.6302    0.2057 C   0  0  0  0  0  0  0  0  0  0  0  0
    4.8978    0.3163    0.9371 C   0  0  0  0  0  0  0  0  0  0  0  0
    5.0820    1.6994    0.9533 C   0  0  0  0  0  0  0  0  0  0  0  0
   -2.3103    1.4231   -0.2142 C   0  0  0  0  0  0  0  0  0  0  0  0
    2.8156   -2.2547    1.1933 C   0  0  0  0  0  0  0  0  0  0  0  0
    4.1269   -2.3836   -0.8317 C   0  0  0  0  0  0  0  0  0  0  0  0
   -3.3019    0.5603   -0.6812 C   0  0  0  0  0  0  0  0  0  0  0  0
   -4.5666    0.5679   -0.0930 C   0  0  0  0  0  0  0  0  0  0  0  0
   -2.5835    2.2935    0.8411 C   0  0  0  0  0  0  0  0  0  0  0  0
    2.6033   -3.6325    1.1436 C   0  0  0  0  0  0  0  0  0  0  0  0
    3.9144   -3.7614   -0.8815 C   0  0  0  0  0  0  0  0  0  0  0  0
   -4.8399    1.4385    0.9621 C   0  0  0  0  0  0  0  0  0  0  0  0
   -3.8482    2.3011    1.4292 C   0  0  0  0  0  0  0  0  0  0  0  0
    3.1527   -4.3857    0.1063 C   0  0  0  0  0  0  0  0  0  0  0  0
   -5.9625   -2.0537    1.4400 C   0  0  0  0  0  0  0  0  0  0  0  0
    1.0171   -0.2137   -0.6759 H   0  0  0  0  0  0  0  0  0  0  0  0
    2.0119    0.0196   -2.1423 H   0  0  0  0  0  0  0  0  0  0  0  0
    0.9727    2.0968   -2.3853 H   0  0  0  0  0  0  0  0  0  0  0  0
    5.6092   -0.3280    1.4452 H   0  0  0  0  0  0  0  0  0  0  0  0
   -0.9175    0.7601   -1.5814 H   0  0  0  0  0  0  0  0  0  0  0  0
    5.9300    2.1360    1.4715 H   0  0  0  0  0  0  0  0  0  0  0  0
    2.3794   -1.6821    2.0085 H   0  0  0  0  0  0  0  0  0  0  0  0
    4.7228   -1.9126   -1.6100 H   0  0  0  0  0  0  0  0  0  0  0  0
   -3.0904   -0.1086   -1.5126 H   0  0  0  0  0  0  0  0  0  0  0  0
   -1.8682    2.9894    1.2564 H   0  0  0  0  0  0  0  0  0  0  0  0
    2.0099   -4.1187    1.9124 H   0  0  0  0  0  0  0  0  0  0  0  0
    4.3420   -4.3480   -1.6893 H   0  0  0  0  0  0  0  0  0  0  0  0
   -5.8214    1.4524    1.4288 H   0  0  0  0  0  0  0  0  0  0  0  0
   -4.0621    2.9781    2.2512 H   0  0  0  0  0  0  0  0  0  0  0  0
   -6.5369    0.0546   -0.4699 H   0  0  0  0  0  0  0  0  0  0  0  0
    2.9873   -5.4583    0.0674 H   0  0  0  0  0  0  0  0  0  0  0  0
   -6.9726   -1.6442    1.4996 H   0  0  0  0  0  0  0  0  0  0  0  0
   -5.2696   -1.4873    2.0643 H   0  0  0  0  0  0  0  0  0  0  0  0
   -5.9696   -3.0993    1.7563 H   0  0  0  0  0  0  0  0  0  0  0  0
  1  4  2  0  0  0  0
  1  5  2  0  0  0  0
  1  8  1  0  0  0  0
  1 29  1  0  0  0  0
  2 10  1  0  0  0  0
  2 12  1  0  0  0  0
  3 14  2  0  0  0  0
  6 14  1  0  0  0  0
  6 18  1  0  0  0  0
  6 34  1  0  0  0  0
  7 12  2  0  0  0  0
  7 17  1  0  0  0  0
  8 22  1  0  0  0  0
  8 44  1  0  0  0  0
  9 10  1  0  0  0  0
  9 11  1  0  0  0  0
  9 30  1  0  0  0  0
  9 31  1  0  0  0  0
 10 14  1  0  0  0  0
 10 32  1  0  0  0  0
 11 12  1  0  0  0  0
 11 13  2  0  0  0  0
 13 15  1  0  0  0  0
 13 16  1  0  0  0  0
 15 19  2  0  0  0  0
 15 20  1  0  0  0  0
 16 17  2  0  0  0  0
 16 33  1  0  0  0  0
 17 35  1  0  0  0  0
 18 21  2  0  0  0  0
 18 23  1  0  0  0  0
 19 24  1  0  0  0  0
 19 36  1  0  0  0  0
 20 25  2  0  0  0  0
 20 37  1  0  0  0  0
 21 22  1  0  0  0  0
 21 38  1  0  0  0  0
 22 26  2  0  0  0  0
 23 27  2  0  0  0  0
 23 39  1  0  0  0  0
 24 28  2  0  0  0  0
 24 40  1  0  0  0  0
 25 28  1  0  0  0  0
 25 41  1  0  0  0  0
 26 27  1  0  0  0  0
 26 42  1  0  0  0  0
 27 43  1  0  0  0  0
 28 45  1  0  0  0  0
 29 46  1  0  0  0  0
 29 47  1  0  0  0  0
 29 48  1  0  0  0  0
M  END
> <PUBCHEM_COMPOUND_CID>
49789998

> <PUBCHEM_CONFORMER_RMSD>
1

> <PUBCHEM_CONFORMER_DIVERSEORDER>
2
78
88
122
125
66
128
80
40
103
115
21
38
51
54
60
134
25
65
104
140
75
107
120
144
12
126
57
129
145
123
109
127
124
141
91
142
24
137
49
74
105
50
17
101
116
108
77
44
59
7
48
84
136
71
41
113
121
34
16
73
9
138
114
33
143
72
92
62
69
76
130
87
95
47
56
112
68
97
1
133
29
86
85
55
45
19
118
4
111
35
3
96
63
22
14
46
11
39
102
131
100
18
30
42
79
6
89
52
98
99
28
106
43
119
83
53
8
31
37
82
61
93
64
36
20
15
58
139
67
5
90
110
117
94
10
13
70
132
135
27
23
32
81
26

> <PUBCHEM_MMFF94_PARTIAL_CHARGES>
40
1 1.33
10 0.34
11 -0.14
12 0.39
14 0.57
16 -0.15
17 0.16
18 0.12
19 -0.15
2 -0.36
20 -0.15
21 -0.15
22 0.2
23 -0.15
24 -0.15
25 -0.15
26 -0.15
27 -0.15
28 -0.15
29 0.11
3 -0.57
33 0.15
34 0.37
35 0.15
36 0.15
37 0.15
38 0.15
39 0.15
4 -0.65
40 0.15
41 0.15
42 0.15
43 0.15
44 0.42
45 0.15
5 -0.65
6 -0.55
7 -0.62
8 -0.76
9 0.14

> <PUBCHEM_EFFECTIVE_ROTOR_COUNT>
6.6

> <PUBCHEM_PHARMACOPHORE_FEATURES>
9
1 3 acceptor
1 4 acceptor
1 5 acceptor
1 6 donor
1 8 donor
5 2 9 10 11 12 rings
6 15 19 20 24 25 28 rings
6 18 21 22 23 26 27 rings
6 7 11 12 13 16 17 rings

> <PUBCHEM_HEAVY_ATOM_COUNT>
29

> <PUBCHEM_ATOM_DEF_STEREO_COUNT>
0

> <PUBCHEM_ATOM_UDEF_STEREO_COUNT>
1

> <PUBCHEM_BOND_DEF_STEREO_COUNT>
0

> <PUBCHEM_BOND_UDEF_STEREO_COUNT>
0

> <PUBCHEM_ISOTOPIC_ATOM_COUNT>
0

> <PUBCHEM_COMPONENT_COUNT>
1

> <PUBCHEM_CACTVS_TAUTO_COUNT>
2

> <PUBCHEM_CONFORMER_ID>
02F7BC2E00000002

> <PUBCHEM_MMFF94_ENERGY>
94.0023

> <PUBCHEM_FEATURE_SELFOVERLAP>
45.804

> <PUBCHEM_SHAPE_FINGERPRINT>
10042902 136 18194410991701009486
10622 236 18342725322474535127
10928967 22 17828210887037782434
11315621 136 18334866008504860446
114674 6 18115591440049492986
11963148 33 18117269256435030002
12107183 9 17838626552261553761
12596602 18 17917713512924153232
13103583 49 17696762056076804792
13150687 139 17678768776833991892
13533116 47 18411703140918285089
1361 2 18408322206966220131
13692114 37 18124028195007660748
13726171 33 16415207745660225104
14211702 104 18336272318621470667
14251740 57 18341895160571389646
14480069 147 18334585667974470707
14863182 85 18334017190524824364
14950920 106 17987519195515994145
15001296 14 18335136458527057443
15250474 111 18338517564256845191
15347590 135 17915455206308991616
15361156 5 17896336747774921053
17492 89 18340485560757497022
17857418 61 18338796836057972037
19246450 95 17118616774376177601
20028762 73 18411133684532190630
21133410 38 18341623628766021971
21197605 99 18264207087783920730
22224240 67 18338790209214020128
23572383 38 18187080676527593443
25222932 49 18201715210241392252
3117164 225 17910397190765165976
312425 54 18058169423334052425
32027 91 18049996701807254246
4073 2 18409452513715061321
4874694 18 18336812153039857853
50009960 94 18043228194327127770
508706 21 17095527271079638883
5104073 3 18059867129812740385
5326457 24 18411418419204287307
56633871 153 18123196706033357499
7970288 3 17905608800715363934
86090 222 17459491990455839048

> <PUBCHEM_SHAPE_MULTIPOLES>
562.24
14.98
5.3
1.27
17.12
4.14
0.13
8.45
1.99
-3.39
0.2
0.21
0.06
-0.73

> <PUBCHEM_SHAPE_SELFOVERLAP>
1222.579

> <PUBCHEM_SHAPE_VOLUME>
308.4

> <PUBCHEM_COORDINATE_TYPE>
2
5
10

$$$$
