2238214
  -OEChem-01171809283D

 42 44  0     0  0  0  0  0  0999 V2000
   -0.6697   -0.4425    0.5780 S   0  0  0  0  0  0  0  0  0  0  0  0
    0.1657    0.4251   -0.5436 O   0  0  0  0  0  0  0  0  0  0  0  0
   -0.4302   -1.8485    0.3115 O   0  0  0  0  0  0  0  0  0  0  0  0
   -0.4259    0.1328    1.8866 O   0  0  0  0  0  0  0  0  0  0  0  0
    1.9458    2.1199    1.0010 O   0  0  0  0  0  0  0  0  0  0  0  0
    1.8825   -1.5131   -1.8562 O   0  0  0  0  0  0  0  0  0  0  0  0
    1.5327    0.2926   -0.4055 N   0  0  0  0  0  0  0  0  0  0  0  0
   -2.3720   -0.1349    0.2245 C   0  0  0  0  0  0  0  0  0  0  0  0
   -2.7658    1.1218   -0.2203 C   0  0  0  0  0  0  0  0  0  0  0  0
   -3.3040   -1.1520    0.3938 C   0  0  0  0  0  0  0  0  0  0  0  0
   -4.1107    1.3647   -0.4998 C   0  0  0  0  0  0  0  0  0  0  0  0
   -4.6489   -0.9092    0.1142 C   0  0  0  0  0  0  0  0  0  0  0  0
   -5.0521    0.3492   -0.3325 C   0  0  0  0  0  0  0  0  0  0  0  0
   -1.7665    2.2200   -0.4069 C   0  0  0  0  0  0  0  0  0  0  0  0
   -2.8855   -2.5068    0.8727 C   0  0  0  0  0  0  0  0  0  0  0  0
   -4.5698    2.7024   -0.9814 C   0  0  0  0  0  0  0  0  0  0  0  0
   -5.6780   -1.9785    0.2839 C   0  0  0  0  0  0  0  0  0  0  0  0
    3.6270    0.5843    0.3043 C   0  0  0  0  0  0  0  0  0  0  0  0
    3.6080   -0.5107   -0.5569 C   0  0  0  0  0  0  0  0  0  0  0  0
    2.2667    1.1271    0.3781 C   0  0  0  0  0  0  0  0  0  0  0  0
    2.2352   -0.6810   -1.0438 C   0  0  0  0  0  0  0  0  0  0  0  0
    4.7857    1.0080    0.9205 C   0  0  0  0  0  0  0  0  0  0  0  0
    4.7467   -1.2340   -0.8429 C   0  0  0  0  0  0  0  0  0  0  0  0
    5.9511    0.2860    0.6464 C   0  0  0  0  0  0  0  0  0  0  0  0
    5.9318   -0.8228   -0.2257 C   0  0  0  0  0  0  0  0  0  0  0  0
   -6.1008    0.5391   -0.5489 H   0  0  0  0  0  0  0  0  0  0  0  0
   -1.0373    2.2675    0.4065 H   0  0  0  0  0  0  0  0  0  0  0  0
   -1.2740    2.1370   -1.3804 H   0  0  0  0  0  0  0  0  0  0  0  0
   -2.2254    3.2132   -0.3760 H   0  0  0  0  0  0  0  0  0  0  0  0
   -2.2145   -2.4459    1.7357 H   0  0  0  0  0  0  0  0  0  0  0  0
   -3.7208   -3.0998    1.2569 H   0  0  0  0  0  0  0  0  0  0  0  0
   -2.4487   -3.0930    0.0582 H   0  0  0  0  0  0  0  0  0  0  0  0
   -4.4732    3.4523   -0.1897 H   0  0  0  0  0  0  0  0  0  0  0  0
   -4.0056    3.0172   -1.8657 H   0  0  0  0  0  0  0  0  0  0  0  0
   -5.6248    2.6817   -1.2778 H   0  0  0  0  0  0  0  0  0  0  0  0
   -5.8028   -2.2318    1.3417 H   0  0  0  0  0  0  0  0  0  0  0  0
   -6.6579   -1.6544   -0.0851 H   0  0  0  0  0  0  0  0  0  0  0  0
   -5.4125   -2.8741   -0.2877 H   0  0  0  0  0  0  0  0  0  0  0  0
    4.8022    1.8612    1.5882 H   0  0  0  0  0  0  0  0  0  0  0  0
    4.7336   -2.0840   -1.5147 H   0  0  0  0  0  0  0  0  0  0  0  0
    6.8884    0.5826    1.1101 H   0  0  0  0  0  0  0  0  0  0  0  0
    6.8546   -1.3634   -0.4204 H   0  0  0  0  0  0  0  0  0  0  0  0
  1  2  1  0  0  0  0
  1  3  2  0  0  0  0
  1  4  2  0  0  0  0
  1  8  1  0  0  0  0
  2  7  1  0  0  0  0
  5 20  2  0  0  0  0
  6 21  2  0  0  0  0
  7 20  1  0  0  0  0
  7 21  1  0  0  0  0
  8  9  2  0  0  0  0
  8 10  1  0  0  0  0
  9 11  1  0  0  0  0
  9 14  1  0  0  0  0
 10 12  2  0  0  0  0
 10 15  1  0  0  0  0
 11 13  2  0  0  0  0
 11 16  1  0  0  0  0
 12 13  1  0  0  0  0
 12 17  1  0  0  0  0
 13 26  1  0  0  0  0
 14 27  1  0  0  0  0
 14 28  1  0  0  0  0
 14 29  1  0  0  0  0
 15 30  1  0  0  0  0
 15 31  1  0  0  0  0
 15 32  1  0  0  0  0
 16 33  1  0  0  0  0
 16 34  1  0  0  0  0
 16 35  1  0  0  0  0
 17 36  1  0  0  0  0
 17 37  1  0  0  0  0
 17 38  1  0  0  0  0
 18 19  1  0  0  0  0
 18 20  1  0  0  0  0
 18 22  2  0  0  0  0
 19 21  1  0  0  0  0
 19 23  2  0  0  0  0
 22 24  1  0  0  0  0
 22 39  1  0  0  0  0
 23 25  1  0  0  0  0
 23 40  1  0  0  0  0
 24 25  2  0  0  0  0
 24 41  1  0  0  0  0
 25 42  1  0  0  0  0
M  END
> <PUBCHEM_COMPOUND_CID>
2238214

> <PUBCHEM_CONFORMER_RMSD>
0.6

> <PUBCHEM_CONFORMER_DIVERSEORDER>
2
5
4
1
3
6
7

> <PUBCHEM_MMFF94_PARTIAL_CHARGES>
30
1 1.49
10 -0.14
11 -0.14
12 -0.14
13 -0.15
14 0.14
15 0.14
16 0.14
17 0.14
18 0.09
19 0.09
2 -0.22
20 0.54
21 0.54
22 -0.15
23 -0.15
24 -0.15
25 -0.15
26 0.15
3 -0.65
39 0.15
4 -0.65
40 0.15
41 0.15
42 0.15
5 -0.57
6 -0.57
7 -0.08
8 -0.01
9 -0.14

> <PUBCHEM_EFFECTIVE_ROTOR_COUNT>
3.2

> <PUBCHEM_PHARMACOPHORE_FEATURES>
7
1 3 acceptor
1 4 acceptor
1 5 acceptor
1 6 acceptor
5 7 18 19 20 21 rings
6 18 19 22 23 24 25 rings
6 8 9 10 11 12 13 rings

> <PUBCHEM_HEAVY_ATOM_COUNT>
25

> <PUBCHEM_ATOM_DEF_STEREO_COUNT>
0

> <PUBCHEM_ATOM_UDEF_STEREO_COUNT>
0

> <PUBCHEM_BOND_DEF_STEREO_COUNT>
0

> <PUBCHEM_BOND_UDEF_STEREO_COUNT>
0

> <PUBCHEM_ISOTOPIC_ATOM_COUNT>
0

> <PUBCHEM_COMPONENT_COUNT>
1

> <PUBCHEM_CACTVS_TAUTO_COUNT>
1

> <PUBCHEM_CONFORMER_ID>
0022270600000002

> <PUBCHEM_MMFF94_ENERGY>
77.7986

> <PUBCHEM_FEATURE_SELFOVERLAP>
35.635

> <PUBCHEM_SHAPE_FINGERPRINT>
10 15 18271232929216271912
10411042 1 17973166416542883947
10835480 77 18343575240108961432
11545043 162 18408039624003601825
11796584 16 18260269599696453386
11828532 37 17970916794119355795
12107183 9 17537140468161624600
12166972 35 16950565540575653183
12236239 1 16660362584502250028
12403259 415 18343580759162457544
12616971 3 15195566826948103201
13402501 40 18413951684908954309
13533116 47 16773802464006511926
13583140 156 18344143704636236798
13782708 43 18272652402363730087
14294032 229 17168974588319063461
14341114 176 18412267259171116288
14573314 32 18408323268044071022
15042514 8 18116720819102008435
15183329 4 18261107444055757738
15788980 27 18131630092924477302
15961568 22 17969223511473333492
16988056 13 14967795541670956110
17349148 13 17346604071144328186
17844677 252 18334299789907337804
18927931 339 18260553346615612459
19489759 90 18259703397903694859
200 152 17060338496127121328
20645477 70 17703796890448214310
21033648 29 18130210623492471472
21033650 10 17679042412682821276
21065201 7 18261106387414564713
21267235 1 18187933919373704739
21279426 13 18265895765803021990
21623969 137 17703794729742028214
22393880 68 18337393729691708463
23402539 116 18334571343509224709
23557571 272 18410294722341536265
23559900 14 18410852174610439072
26918003 58 18131635599099151930
3004659 81 18187086101704550722
351380 180 18411980273476856828
4073 2 18334861619179918922
4214541 1 18408323276481252061
5104073 3 18201439134360267706
5283173 99 18338515244400011928
542803 24 16660648448951348566
59755656 215 18260825994991723611
9709674 26 18339081600557404335
9981440 41 18041284279565523915

> <PUBCHEM_SHAPE_MULTIPOLES>
484.01
13.9
2.35
1.14
6.06
0.34
-0.02
-1.33
-0.39
-3.16
-0.07
0.61
-0.08
2.05

> <PUBCHEM_SHAPE_SELFOVERLAP>
1053.941

> <PUBCHEM_SHAPE_VOLUME>
268.1

> <PUBCHEM_COORDINATE_TYPE>
2
5
10

$$$$
