6351467
  -OEChem-01171810063D

 59 63  0     1  0  0  0  0  0999 V2000
   -5.5547    0.8868    0.6976 O   0  0  0  0  0  0  0  0  0  0  0  0
   -1.0763    2.5093   -0.0448 O   0  0  0  0  0  0  0  0  0  0  0  0
    4.7380    0.4669   -1.6318 O   0  0  0  0  0  0  0  0  0  0  0  0
    8.1244   -1.2879   -1.0882 O   0  0  0  0  0  0  0  0  0  0  0  0
    6.3476   -2.4736   -0.2926 O   0  0  0  0  0  0  0  0  0  0  0  0
    1.0420    3.2552   -0.3715 O   0  0  0  0  0  0  0  0  0  0  0  0
    5.2268   -0.1336    0.5493 N   0  0  0  0  0  0  0  0  0  0  0  0
    6.6744   -0.1773    0.3895 C   0  0  1  0  0  0  0  0  0  0  0  0
    7.2207   -0.1955    1.8125 C   0  0  0  0  0  0  0  0  0  0  0  0
    6.1134   -0.8815    2.6090 C   0  0  0  0  0  0  0  0  0  0  0  0
    4.8417   -0.3893    1.9349 C   0  0  0  0  0  0  0  0  0  0  0  0
   -5.1841   -1.2265   -0.0145 C   0  0  0  0  0  0  0  0  0  0  0  0
   -5.5388   -2.6401   -0.3083 C   0  0  0  0  0  0  0  0  0  0  0  0
   -6.0992   -0.3356    0.4994 C   0  0  0  0  0  0  0  0  0  0  0  0
   -7.0719   -2.8236   -0.3522 C   0  0  0  0  0  0  0  0  0  0  0  0
   -3.9691   -0.5056   -0.1403 C   0  0  0  0  0  0  0  0  0  0  0  0
   -7.5263   -0.5755    0.7996 C   0  0  0  0  0  0  0  0  0  0  0  0
   -7.7889   -2.0955    0.8057 C   0  0  0  0  0  0  0  0  0  0  0  0
   -4.2487    0.7835    0.3091 C   0  0  0  0  0  0  0  0  0  0  0  0
    4.3764    0.2600   -0.4722 C   0  0  0  0  0  0  0  0  0  0  0  0
   -1.6687    0.2060   -0.5658 C   0  0  0  0  0  0  0  0  0  0  0  0
    2.9274    0.4187   -0.0863 C   0  0  0  0  0  0  0  0  0  0  0  0
   -2.6606   -0.7966   -0.5804 C   0  0  0  0  0  0  0  0  0  0  0  0
   -3.3098    1.8069    0.3499 C   0  0  0  0  0  0  0  0  0  0  0  0
    2.0876    0.8507   -1.2749 C   0  0  0  0  0  0  0  0  0  0  0  0
   -2.0247    1.4704   -0.0974 C   0  0  0  0  0  0  0  0  0  0  0  0
   -0.2761   -0.0242   -1.0110 C   0  0  0  0  0  0  0  0  0  0  0  0
    0.6280    0.9743   -0.9185 C   0  0  0  0  0  0  0  0  0  0  0  0
    6.9996   -1.4415   -0.3476 C   0  0  0  0  0  0  0  0  0  0  0  0
    0.2406    2.3276   -0.4288 C   0  0  0  0  0  0  0  0  0  0  0  0
   -3.6372    3.1766    0.8386 C   0  0  0  0  0  0  0  0  0  0  0  0
    0.0465   -1.3894   -1.5680 C   0  0  0  0  0  0  0  0  0  0  0  0
    7.0066    0.6900   -0.1908 H   0  0  0  0  0  0  0  0  0  0  0  0
    7.3438    0.8321    2.1755 H   0  0  0  0  0  0  0  0  0  0  0  0
    8.1806   -0.7116    1.9093 H   0  0  0  0  0  0  0  0  0  0  0  0
    6.1982   -1.9697    2.5055 H   0  0  0  0  0  0  0  0  0  0  0  0
    6.1440   -0.6402    3.6752 H   0  0  0  0  0  0  0  0  0  0  0  0
    4.0297   -1.1196    1.9862 H   0  0  0  0  0  0  0  0  0  0  0  0
    4.5024    0.5559    2.3722 H   0  0  0  0  0  0  0  0  0  0  0  0
   -5.1032   -2.9587   -1.2616 H   0  0  0  0  0  0  0  0  0  0  0  0
   -5.1200   -3.2805    0.4772 H   0  0  0  0  0  0  0  0  0  0  0  0
   -7.4565   -2.4347   -1.3041 H   0  0  0  0  0  0  0  0  0  0  0  0
   -7.3106   -3.8928   -0.3243 H   0  0  0  0  0  0  0  0  0  0  0  0
   -7.8054   -0.1425    1.7656 H   0  0  0  0  0  0  0  0  0  0  0  0
   -8.1411   -0.0998    0.0271 H   0  0  0  0  0  0  0  0  0  0  0  0
   -7.4399   -2.5201    1.7561 H   0  0  0  0  0  0  0  0  0  0  0  0
   -8.8679   -2.2792    0.7521 H   0  0  0  0  0  0  0  0  0  0  0  0
    2.8561    1.1615    0.7165 H   0  0  0  0  0  0  0  0  0  0  0  0
    2.5631   -0.5411    0.2977 H   0  0  0  0  0  0  0  0  0  0  0  0
   -2.4492   -1.8029   -0.9289 H   0  0  0  0  0  0  0  0  0  0  0  0
    2.4635    1.8032   -1.6723 H   0  0  0  0  0  0  0  0  0  0  0  0
    2.2246    0.1603   -2.1149 H   0  0  0  0  0  0  0  0  0  0  0  0
   -4.6852    3.2627    1.1428 H   0  0  0  0  0  0  0  0  0  0  0  0
   -3.0194    3.4286    1.7067 H   0  0  0  0  0  0  0  0  0  0  0  0
   -3.4609    3.9147    0.0492 H   0  0  0  0  0  0  0  0  0  0  0  0
   -0.1603   -2.1664   -0.8233 H   0  0  0  0  0  0  0  0  0  0  0  0
    1.0930   -1.5210   -1.8492 H   0  0  0  0  0  0  0  0  0  0  0  0
   -0.5501   -1.5891   -2.4650 H   0  0  0  0  0  0  0  0  0  0  0  0
    8.3552   -2.1060   -1.5779 H   0  0  0  0  0  0  0  0  0  0  0  0
  1 14  1  0  0  0  0
  1 19  1  0  0  0  0
  2 26  1  0  0  0  0
  2 30  1  0  0  0  0
  3 20  2  0  0  0  0
  4 29  1  0  0  0  0
  4 59  1  0  0  0  0
  5 29  2  0  0  0  0
  6 30  2  0  0  0  0
  7  8  1  0  0  0  0
  7 11  1  0  0  0  0
  7 20  1  0  0  0  0
  8  9  1  0  0  0  0
  8 29  1  0  0  0  0
  8 33  1  0  0  0  0
  9 10  1  0  0  0  0
  9 34  1  0  0  0  0
  9 35  1  0  0  0  0
 10 11  1  0  0  0  0
 10 36  1  0  0  0  0
 10 37  1  0  0  0  0
 11 38  1  0  0  0  0
 11 39  1  0  0  0  0
 12 13  1  0  0  0  0
 12 14  2  0  0  0  0
 12 16  1  0  0  0  0
 13 15  1  0  0  0  0
 13 40  1  0  0  0  0
 13 41  1  0  0  0  0
 14 17  1  0  0  0  0
 15 18  1  0  0  0  0
 15 42  1  0  0  0  0
 15 43  1  0  0  0  0
 16 19  2  0  0  0  0
 16 23  1  0  0  0  0
 17 18  1  0  0  0  0
 17 44  1  0  0  0  0
 17 45  1  0  0  0  0
 18 46  1  0  0  0  0
 18 47  1  0  0  0  0
 19 24  1  0  0  0  0
 20 22  1  0  0  0  0
 21 23  2  0  0  0  0
 21 26  1  0  0  0  0
 21 27  1  0  0  0  0
 22 25  1  0  0  0  0
 22 48  1  0  0  0  0
 22 49  1  0  0  0  0
 23 50  1  0  0  0  0
 24 26  2  0  0  0  0
 24 31  1  0  0  0  0
 25 28  1  0  0  0  0
 25 51  1  0  0  0  0
 25 52  1  0  0  0  0
 27 28  2  0  0  0  0
 27 32  1  0  0  0  0
 28 30  1  0  0  0  0
 31 53  1  0  0  0  0
 31 54  1  0  0  0  0
 31 55  1  0  0  0  0
 32 56  1  0  0  0  0
 32 57  1  0  0  0  0
 32 58  1  0  0  0  0
M  END
> <PUBCHEM_COMPOUND_CID>
6351467

> <PUBCHEM_CONFORMER_RMSD>
1

> <PUBCHEM_CONFORMER_DIVERSEORDER>
2
14
6
29
18
22
9
5
1
31
21
28
20
30
26
8
12
27
17
25
11
33
15
24
16
3
23
13
7
32
10
4
19

> <PUBCHEM_MMFF94_PARTIAL_CHARGES>
29
1 -0.28
11 0.3
12 -0.18
13 0.18
14 -0.04
17 0.18
19 0.14
2 -0.23
20 0.57
21 0.03
22 0.06
23 -0.15
24 -0.14
25 0.14
26 0.08
27 -0.17
28 -0.12
29 0.66
3 -0.57
30 0.71
31 0.14
32 0.14
4 -0.65
5 -0.57
50 0.15
59 0.5
6 -0.57
7 -0.66
8 0.36

> <PUBCHEM_EFFECTIVE_ROTOR_COUNT>
6.8

> <PUBCHEM_PHARMACOPHORE_FEATURES>
11
1 1 acceptor
1 3 acceptor
1 4 acceptor
1 5 acceptor
1 6 acceptor
3 4 5 29 anion
5 1 12 14 16 19 rings
5 7 8 9 10 11 rings
6 12 13 14 15 17 18 rings
6 16 19 21 23 24 26 rings
6 2 21 26 27 28 30 rings

> <PUBCHEM_HEAVY_ATOM_COUNT>
32

> <PUBCHEM_ATOM_DEF_STEREO_COUNT>
1

> <PUBCHEM_ATOM_UDEF_STEREO_COUNT>
0

> <PUBCHEM_BOND_DEF_STEREO_COUNT>
0

> <PUBCHEM_BOND_UDEF_STEREO_COUNT>
0

> <PUBCHEM_ISOTOPIC_ATOM_COUNT>
0

> <PUBCHEM_COMPONENT_COUNT>
1

> <PUBCHEM_CACTVS_TAUTO_COUNT>
1

> <PUBCHEM_CONFORMER_ID>
0060EA6B00000002

> <PUBCHEM_MMFF94_ENERGY>
73.9347

> <PUBCHEM_FEATURE_SELFOVERLAP>
56.102

> <PUBCHEM_SHAPE_FINGERPRINT>
10 15 17060338543598549870
10190206 1 12180114341990740374
10258705 36 17987529126251510294
10299344 5 18040156223067678450
10319926 262 18201716219980939824
10533779 47 16845298190692303134
10939801 23 18269836591976980924
11136131 41 17333080332011674225
11456790 92 18341066189898693801
11475781 23 10665228138448668738
11973863 73 18040436565127734425
12166972 35 17822012042254030837
13540713 4 17773047345380030997
13540713 5 18264790872782483357
13673619 4 17676201394457934613
13782708 43 17988637506289288822
14068700 675 18409166649508685897
15131766 46 13182728243556956617
15183329 4 12685082683703154229
15198563 99 13840531935372935031
15840311 113 12463305708150314433
16994733 274 12247689257619837679
18393751 57 14405188382769772597
20028762 73 18334575729198939178
20105231 36 18130795530410921630
2026 5 16660911193613060538
21033648 29 17275104994527348233
21130935 74 18341896226277179890
21267235 1 18409454690930820172
21298829 104 11095880484581518674
21792934 111 18202282529305798553
21987483 16 17981601882319247539
22122407 14 13829849175160620986
23522609 53 17898038821750429789
23559900 14 17678183895875651161
23569914 152 13988826341618171659
23576562 1 9078814274602346163
255183 313 17060052675039088479
2747138 104 18413670222954393402
2838139 119 14045734907482235488
3004659 81 17967255295638302156
3383291 50 18334858355016168387
397830 11 15840985697250217271
4058900 60 10591775298188524685
406291 66 18259699012542100219
4616759 239 17489597762388647699
474113 269 18340759438844617679
5104073 3 17773607022315086419
5718773 13 18336264639151341063
5937810 71 12468626210932515655
59682541 52 15140960664961651862
6201320 221 17024562573898496010
6201320 82 12030971135103566515
96874 4 18113327626584773707
9831232 110 18269845216477059950
9896288 288 18199190598938251705
9953998 17 17418094334868822259

> <PUBCHEM_SHAPE_MULTIPOLES>
618.35
24.19
2.89
1.5
13.49
1.02
0.57
-18.81
8.03
-3.64
-0.08
2.87
-0.31
-0.76

> <PUBCHEM_SHAPE_SELFOVERLAP>
1358.577

> <PUBCHEM_SHAPE_VOLUME>
335.4

> <PUBCHEM_COORDINATE_TYPE>
2
5
10

$$$$
