16008294
  -OEChem-01171809413D

 61 64  0     0  0  0  0  0  0999 V2000
    5.0529    0.5602   -2.3744 O   0  0  0  0  0  0  0  0  0  0  0  0
   -6.0873   -1.4784    1.2067 O   0  0  0  0  0  0  0  0  0  0  0  0
   -4.6527    1.7097   -2.0421 O   0  0  0  0  0  0  0  0  0  0  0  0
    0.6670   -1.4892   -0.3189 N   0  0  0  0  0  0  0  0  0  0  0  0
    1.5197   -2.3492    1.7522 N   0  0  0  0  0  0  0  0  0  0  0  0
   -0.5021   -1.0242   -0.8467 N   0  0  0  0  0  0  0  0  0  0  0  0
    3.8367    0.9432   -0.4338 N   0  0  0  0  0  0  0  0  0  0  0  0
    2.9706   -2.0871   -0.2738 C   0  0  0  0  0  0  0  0  0  0  0  0
    1.9121   -1.6099   -0.9655 C   0  0  0  0  0  0  0  0  0  0  0  0
    4.3733   -2.2531   -0.7731 C   0  0  0  0  0  0  0  0  0  0  0  0
    2.6717   -2.4662    1.1619 C   0  0  0  0  0  0  0  0  0  0  0  0
    0.4966   -1.8529    1.0136 C   0  0  0  0  0  0  0  0  0  0  0  0
    5.2322   -1.0143   -0.5401 C   0  0  0  0  0  0  0  0  0  0  0  0
   -1.3802   -1.1000    0.1509 C   0  0  0  0  0  0  0  0  0  0  0  0
   -0.8200   -1.6060    1.3282 C   0  0  0  0  0  0  0  0  0  0  0  0
    1.9505   -1.1887   -2.4115 C   0  0  0  0  0  0  0  0  0  0  0  0
    3.8004   -3.0302    1.9995 C   0  0  0  0  0  0  0  0  0  0  0  0
   -2.7446   -0.6843   -0.0433 C   0  0  0  0  0  0  0  0  0  0  0  0
    4.7144    0.2327   -1.2404 C   0  0  0  0  0  0  0  0  0  0  0  0
   -3.0391    0.3233   -0.9593 C   0  0  0  0  0  0  0  0  0  0  0  0
   -3.7654   -1.2912    0.6849 C   0  0  0  0  0  0  0  0  0  0  0  0
    3.2132    2.1757   -0.8564 C   0  0  0  0  0  0  0  0  0  0  0  0
   -5.0875   -0.8885    0.4961 C   0  0  0  0  0  0  0  0  0  0  0  0
   -4.3612    0.7259   -1.1480 C   0  0  0  0  0  0  0  0  0  0  0  0
    2.3100    2.7400    0.2018 C   0  0  0  0  0  0  0  0  0  0  0  0
   -5.3854    0.1200   -0.4203 C   0  0  0  0  0  0  0  0  0  0  0  0
    0.9696    2.3731    0.2290 C   0  0  0  0  0  0  0  0  0  0  0  0
    2.8232    3.6240    1.1437 C   0  0  0  0  0  0  0  0  0  0  0  0
    0.1305    2.8977    1.2121 C   0  0  0  0  0  0  0  0  0  0  0  0
    1.9840    4.1485    2.1267 C   0  0  0  0  0  0  0  0  0  0  0  0
    0.6378    3.7853    2.1610 C   0  0  0  0  0  0  0  0  0  0  0  0
   -7.4156   -1.0178    0.9637 C   0  0  0  0  0  0  0  0  0  0  0  0
   -6.0255    2.0718   -2.1846 C   0  0  0  0  0  0  0  0  0  0  0  0
    4.3620   -2.4807   -1.8457 H   0  0  0  0  0  0  0  0  0  0  0  0
    4.8585   -3.1270   -0.3273 H   0  0  0  0  0  0  0  0  0  0  0  0
    6.2439   -1.2008   -0.9214 H   0  0  0  0  0  0  0  0  0  0  0  0
    5.3474   -0.8062    0.5297 H   0  0  0  0  0  0  0  0  0  0  0  0
   -1.2835   -1.7734    2.2904 H   0  0  0  0  0  0  0  0  0  0  0  0
    1.6548   -0.1395   -2.5141 H   0  0  0  0  0  0  0  0  0  0  0  0
    1.2543   -1.7983   -2.9987 H   0  0  0  0  0  0  0  0  0  0  0  0
    2.9319   -1.2960   -2.8766 H   0  0  0  0  0  0  0  0  0  0  0  0
    4.6457   -2.3408    2.0306 H   0  0  0  0  0  0  0  0  0  0  0  0
    4.1139   -3.9978    1.5985 H   0  0  0  0  0  0  0  0  0  0  0  0
    3.4612   -3.1875    3.0287 H   0  0  0  0  0  0  0  0  0  0  0  0
    3.6275    0.5925    0.4969 H   0  0  0  0  0  0  0  0  0  0  0  0
   -2.2568    0.8169   -1.5316 H   0  0  0  0  0  0  0  0  0  0  0  0
   -3.5600   -2.0864    1.3977 H   0  0  0  0  0  0  0  0  0  0  0  0
    4.0055    2.8889   -1.1141 H   0  0  0  0  0  0  0  0  0  0  0  0
    2.6604    1.9857   -1.7837 H   0  0  0  0  0  0  0  0  0  0  0  0
   -6.4087    0.4317   -0.5663 H   0  0  0  0  0  0  0  0  0  0  0  0
    0.5637    1.6893   -0.5098 H   0  0  0  0  0  0  0  0  0  0  0  0
    3.8706    3.9121    1.1273 H   0  0  0  0  0  0  0  0  0  0  0  0
   -0.9180    2.6153    1.2375 H   0  0  0  0  0  0  0  0  0  0  0  0
    2.3790    4.8393    2.8660 H   0  0  0  0  0  0  0  0  0  0  0  0
   -0.0157    4.1936    2.9264 H   0  0  0  0  0  0  0  0  0  0  0  0
   -7.5371    0.0338    1.2452 H   0  0  0  0  0  0  0  0  0  0  0  0
   -8.0798   -1.5971    1.6139 H   0  0  0  0  0  0  0  0  0  0  0  0
   -7.7306   -1.2164   -0.0665 H   0  0  0  0  0  0  0  0  0  0  0  0
   -6.0709    2.8674   -2.9357 H   0  0  0  0  0  0  0  0  0  0  0  0
   -6.4320    2.4897   -1.2572 H   0  0  0  0  0  0  0  0  0  0  0  0
   -6.6254    1.2399   -2.5695 H   0  0  0  0  0  0  0  0  0  0  0  0
  1 19  2  0  0  0  0
  2 23  1  0  0  0  0
  2 32  1  0  0  0  0
  3 24  1  0  0  0  0
  3 33  1  0  0  0  0
  4  6  1  0  0  0  0
  4  9  1  0  0  0  0
  4 12  1  0  0  0  0
  5 11  2  0  0  0  0
  5 12  1  0  0  0  0
  6 14  2  0  0  0  0
  7 19  1  0  0  0  0
  7 22  1  0  0  0  0
  7 45  1  0  0  0  0
  8  9  2  0  0  0  0
  8 10  1  0  0  0  0
  8 11  1  0  0  0  0
  9 16  1  0  0  0  0
 10 13  1  0  0  0  0
 10 34  1  0  0  0  0
 10 35  1  0  0  0  0
 11 17  1  0  0  0  0
 12 15  2  0  0  0  0
 13 19  1  0  0  0  0
 13 36  1  0  0  0  0
 13 37  1  0  0  0  0
 14 15  1  0  0  0  0
 14 18  1  0  0  0  0
 15 38  1  0  0  0  0
 16 39  1  0  0  0  0
 16 40  1  0  0  0  0
 16 41  1  0  0  0  0
 17 42  1  0  0  0  0
 17 43  1  0  0  0  0
 17 44  1  0  0  0  0
 18 20  2  0  0  0  0
 18 21  1  0  0  0  0
 20 24  1  0  0  0  0
 20 46  1  0  0  0  0
 21 23  2  0  0  0  0
 21 47  1  0  0  0  0
 22 25  1  0  0  0  0
 22 48  1  0  0  0  0
 22 49  1  0  0  0  0
 23 26  1  0  0  0  0
 24 26  2  0  0  0  0
 25 27  2  0  0  0  0
 25 28  1  0  0  0  0
 26 50  1  0  0  0  0
 27 29  1  0  0  0  0
 27 51  1  0  0  0  0
 28 30  2  0  0  0  0
 28 52  1  0  0  0  0
 29 31  2  0  0  0  0
 29 53  1  0  0  0  0
 30 31  1  0  0  0  0
 30 54  1  0  0  0  0
 31 55  1  0  0  0  0
 32 56  1  0  0  0  0
 32 57  1  0  0  0  0
 32 58  1  0  0  0  0
 33 59  1  0  0  0  0
 33 60  1  0  0  0  0
 33 61  1  0  0  0  0
M  END
> <PUBCHEM_COMPOUND_CID>
16008294

> <PUBCHEM_CONFORMER_RMSD>
1

> <PUBCHEM_CONFORMER_DIVERSEORDER>
22
25
102
65
101
132
20
137
116
104
31
125
41
64
59
36
29
135
108
63
15
9
56
58
84
122
82
120
131
141
16
33
32
51
12
117
61
8
96
124
66
10
110
89
136
107
119
17
49
75
11
86
23
133
28
14
44
67
105
2
80
35
85
111
73
34
123
100
21
126
42
95
143
113
99
24
68
87
69
53
139
7
72
94
19
3
74
118
1
39
121
27
90
13
70
81
4
97
83
127
57
40
79
55
46
140
106
128
71
138
18
129
112
26
93
6
134
78
77
38
92
103
5
109
30
115
50
88
43
114
98
91
76
142
52
130
37
48
45
60
54
47
62

> <PUBCHEM_MMFF94_PARTIAL_CHARGES>
43
1 -0.57
10 0.14
11 0.37
12 -0.03
13 0.06
14 0.23
15 -0.15
16 0.14
17 0.06
18 0.05
19 0.57
2 -0.36
20 -0.15
21 -0.15
22 0.44
23 0.08
24 0.08
25 -0.14
26 -0.15
27 -0.15
28 -0.15
29 -0.15
3 -0.36
30 -0.15
31 -0.15
32 0.28
33 0.28
38 0.15
4 0.6
45 0.37
46 0.15
47 0.15
5 -0.58
50 0.15
51 0.15
52 0.15
53 0.15
54 0.15
55 0.15
6 -0.71
7 -0.73
8 -0.12
9 -0.17

> <PUBCHEM_EFFECTIVE_ROTOR_COUNT>
9

> <PUBCHEM_PHARMACOPHORE_FEATURES>
10
1 1 acceptor
1 2 acceptor
1 3 acceptor
1 5 acceptor
1 6 acceptor
1 7 donor
5 4 6 12 14 15 rings
6 18 20 21 23 24 26 rings
6 25 27 28 29 30 31 rings
6 4 5 8 9 11 12 rings

> <PUBCHEM_HEAVY_ATOM_COUNT>
33

> <PUBCHEM_ATOM_DEF_STEREO_COUNT>
0

> <PUBCHEM_ATOM_UDEF_STEREO_COUNT>
0

> <PUBCHEM_BOND_DEF_STEREO_COUNT>
0

> <PUBCHEM_BOND_UDEF_STEREO_COUNT>
0

> <PUBCHEM_ISOTOPIC_ATOM_COUNT>
0

> <PUBCHEM_COMPONENT_COUNT>
1

> <PUBCHEM_CACTVS_TAUTO_COUNT>
2

> <PUBCHEM_CONFORMER_ID>
00F4446600000016

> <PUBCHEM_MMFF94_ENERGY>
98.8562

> <PUBCHEM_FEATURE_SELFOVERLAP>
50.875

> <PUBCHEM_SHAPE_FINGERPRINT>
10006869 2 18199165349389644226
10165383 225 17749679601212556886
10675989 125 17985832767986403624
11456790 92 18262811678952898875
11578080 2 18040708148441555205
11646440 116 18342460344303099722
12156800 1 15362440617840935692
12166972 35 18041008301861816286
12522641 24 18270410507218916147
12769317 202 18408600387844854710
12788726 201 18196935474745909266
131258 43 18122066399849947486
14931854 50 18336561438787499564
15351339 4 18410573972488596336
15968369 153 17988349374757627601
18608769 82 18043260243303926971
21033648 29 18113893896880132997
21344244 78 18265602209606008978
22122407 14 18058753367921021449
23559900 14 17967247599257510639
3298306 158 18267575991094765808
44426695 316 17327757097552152757
5104073 3 17023187055356419563
513532 50 17560216124979107832
5265222 85 17830735714234674940
552612 73 18261111873064189109
5776283 40 17752506501252766500
6086070 43 18339634560849528757
6669772 16 18126841827418677920

> <PUBCHEM_SHAPE_MULTIPOLES>
641.59
13.69
4.71
2.2
22.05
5.05
0.33
-2.98
3.8
-5.27
-3.21
-0.42
0.55
2.21

> <PUBCHEM_SHAPE_SELFOVERLAP>
1386.012

> <PUBCHEM_SHAPE_VOLUME>
350.7

> <PUBCHEM_COORDINATE_TYPE>
2
5
10

$$$$
