1123597
  -OEChem-01171809473D

 43 46  0     0  0  0  0  0  0999 V2000
   -5.8409    1.8926   -0.5155 O   0  0  0  0  0  0  0  0  0  0  0  0
   -7.5760   -0.2729    0.2664 O   0  0  0  0  0  0  0  0  0  0  0  0
   -1.5902   -2.1528   -0.3155 O   0  0  0  0  0  0  0  0  0  0  0  0
    6.9034    1.2118    0.2189 O   0  0  0  0  0  0  0  0  0  0  0  0
    5.0352   -1.6588   -0.4220 O   0  0  0  0  0  0  0  0  0  0  0  0
   -1.2277    0.1104    0.1862 N   0  0  0  0  0  0  0  0  0  0  0  0
    4.3362    0.5255    0.0957 N   0  0  0  0  0  0  0  0  0  0  0  0
   -5.3746    0.6417   -0.2061 C   0  0  0  0  0  0  0  0  0  0  0  0
   -6.2165   -0.4107    0.1621 C   0  0  0  0  0  0  0  0  0  0  0  0
   -3.4601   -0.8111    0.0222 C   0  0  0  0  0  0  0  0  0  0  0  0
   -7.2496    1.8903   -0.7638 C   0  0  0  0  0  0  0  0  0  0  0  0
   -7.9710    1.1011    0.3112 C   0  0  0  0  0  0  0  0  0  0  0  0
   -3.9944    0.4460   -0.2616 C   0  0  0  0  0  0  0  0  0  0  0  0
   -5.6824   -1.6708    0.4326 C   0  0  0  0  0  0  0  0  0  0  0  0
   -4.3033   -1.8692    0.3634 C   0  0  0  0  0  0  0  0  0  0  0  0
   -2.0228   -1.0210   -0.0443 C   0  0  0  0  0  0  0  0  0  0  0  0
    0.1849    0.2151    0.1634 C   0  0  0  0  0  0  0  0  0  0  0  0
    2.9452    0.4215    0.1181 C   0  0  0  0  0  0  0  0  0  0  0  0
    0.9422   -0.9091   -0.1166 C   0  0  0  0  0  0  0  0  0  0  0  0
    0.7755    1.4403    0.4214 C   0  0  0  0  0  0  0  0  0  0  0  0
    2.3330   -0.8052   -0.1394 C   0  0  0  0  0  0  0  0  0  0  0  0
    2.1664    1.5444    0.3986 C   0  0  0  0  0  0  0  0  0  0  0  0
    5.2729   -0.4838   -0.1638 C   0  0  0  0  0  0  0  0  0  0  0  0
    6.6974   -0.0664   -0.0867 C   0  0  0  0  0  0  0  0  0  0  0  0
    7.8044   -0.7860   -0.2791 C   0  0  0  0  0  0  0  0  0  0  0  0
    8.8564    0.1382   -0.0731 C   0  0  0  0  0  0  0  0  0  0  0  0
    8.2564    1.3388    0.2273 C   0  0  0  0  0  0  0  0  0  0  0  0
   -7.4287    1.4714   -1.7618 H   0  0  0  0  0  0  0  0  0  0  0  0
   -7.5891    2.9308   -0.7639 H   0  0  0  0  0  0  0  0  0  0  0  0
   -7.7579    1.4943    1.3130 H   0  0  0  0  0  0  0  0  0  0  0  0
   -9.0529    1.1417    0.1511 H   0  0  0  0  0  0  0  0  0  0  0  0
   -3.3759    1.2819   -0.5763 H   0  0  0  0  0  0  0  0  0  0  0  0
   -6.3310   -2.4977    0.7087 H   0  0  0  0  0  0  0  0  0  0  0  0
   -3.9050   -2.8552    0.5888 H   0  0  0  0  0  0  0  0  0  0  0  0
   -1.6907    0.9780    0.4427 H   0  0  0  0  0  0  0  0  0  0  0  0
    0.5434   -1.8904   -0.3257 H   0  0  0  0  0  0  0  0  0  0  0  0
    0.1784    2.3210    0.6406 H   0  0  0  0  0  0  0  0  0  0  0  0
    2.8669   -1.7177   -0.3640 H   0  0  0  0  0  0  0  0  0  0  0  0
    2.6300    2.5066    0.6012 H   0  0  0  0  0  0  0  0  0  0  0  0
    4.7076    1.4517    0.2972 H   0  0  0  0  0  0  0  0  0  0  0  0
    7.8910   -1.8323   -0.5335 H   0  0  0  0  0  0  0  0  0  0  0  0
    9.9189   -0.0475   -0.1357 H   0  0  0  0  0  0  0  0  0  0  0  0
    8.6319    2.3248    0.4596 H   0  0  0  0  0  0  0  0  0  0  0  0
  1  8  1  0  0  0  0
  1 11  1  0  0  0  0
  2  9  1  0  0  0  0
  2 12  1  0  0  0  0
  3 16  2  0  0  0  0
  4 24  1  0  0  0  0
  4 27  1  0  0  0  0
  5 23  2  0  0  0  0
  6 16  1  0  0  0  0
  6 17  1  0  0  0  0
  6 35  1  0  0  0  0
  7 18  1  0  0  0  0
  7 23  1  0  0  0  0
  7 40  1  0  0  0  0
  8  9  2  0  0  0  0
  8 13  1  0  0  0  0
  9 14  1  0  0  0  0
 10 13  2  0  0  0  0
 10 15  1  0  0  0  0
 10 16  1  0  0  0  0
 11 12  1  0  0  0  0
 11 28  1  0  0  0  0
 11 29  1  0  0  0  0
 12 30  1  0  0  0  0
 12 31  1  0  0  0  0
 13 32  1  0  0  0  0
 14 15  2  0  0  0  0
 14 33  1  0  0  0  0
 15 34  1  0  0  0  0
 17 19  2  0  0  0  0
 17 20  1  0  0  0  0
 18 21  2  0  0  0  0
 18 22  1  0  0  0  0
 19 21  1  0  0  0  0
 19 36  1  0  0  0  0
 20 22  2  0  0  0  0
 20 37  1  0  0  0  0
 21 38  1  0  0  0  0
 22 39  1  0  0  0  0
 23 24  1  0  0  0  0
 24 25  2  0  0  0  0
 25 26  1  0  0  0  0
 25 41  1  0  0  0  0
 26 27  2  0  0  0  0
 26 42  1  0  0  0  0
 27 43  1  0  0  0  0
M  END
> <PUBCHEM_COMPOUND_CID>
1123597

> <PUBCHEM_CONFORMER_RMSD>
0.8

> <PUBCHEM_CONFORMER_DIVERSEORDER>
1
5
4
15
13
14
9
16
12
8
10
3
2
11
6
7

> <PUBCHEM_MMFF94_PARTIAL_CHARGES>
39
1 -0.36
10 0.09
11 0.28
12 0.28
13 -0.15
14 -0.15
15 -0.15
16 0.54
17 0.12
18 0.12
19 -0.15
2 -0.36
20 -0.15
21 -0.15
22 -0.15
23 0.71
24 0.05
25 -0.15
26 -0.15
27 -0.01
3 -0.57
32 0.15
33 0.15
34 0.15
35 0.37
36 0.15
37 0.15
38 0.15
39 0.15
4 -0.28
40 0.37
41 0.15
42 0.15
43 0.15
5 -0.57
6 -0.55
7 -0.55
8 0.08
9 0.08

> <PUBCHEM_EFFECTIVE_ROTOR_COUNT>
6.8

> <PUBCHEM_PHARMACOPHORE_FEATURES>
11
1 1 acceptor
1 2 acceptor
1 3 acceptor
1 4 acceptor
1 5 acceptor
1 6 donor
1 7 donor
5 4 24 25 26 27 rings
6 1 2 8 9 11 12 rings
6 17 18 19 20 21 22 rings
6 8 9 10 13 14 15 rings

> <PUBCHEM_HEAVY_ATOM_COUNT>
27

> <PUBCHEM_ATOM_DEF_STEREO_COUNT>
0

> <PUBCHEM_ATOM_UDEF_STEREO_COUNT>
0

> <PUBCHEM_BOND_DEF_STEREO_COUNT>
0

> <PUBCHEM_BOND_UDEF_STEREO_COUNT>
0

> <PUBCHEM_ISOTOPIC_ATOM_COUNT>
0

> <PUBCHEM_COMPONENT_COUNT>
1

> <PUBCHEM_CACTVS_TAUTO_COUNT>
4

> <PUBCHEM_CONFORMER_ID>
0011250D00000001

> <PUBCHEM_MMFF94_ENERGY>
85.3853

> <PUBCHEM_FEATURE_SELFOVERLAP>
55.866

> <PUBCHEM_SHAPE_FINGERPRINT>
10 15 18113618967797214497
10050765 1 18052255386727490032
100830 39 18409166580794646069
10299344 5 17676486151074469562
10674148 151 18187079573121724120
10835480 77 18412825759269296254
11315181 36 17988928877450749163
11719270 70 18201719544671047798
12104220 1 18201159863182750001
12664476 115 18411134732879140537
12838862 33 18130211706267243690
13885169 127 18408041805704504649
14251764 18 18040429992804430074
14251764 46 18408885140166416199
14428016 248 17313111869495238108
14856354 85 16443349801459804995
14933364 13 18408885148360828844
15183329 4 18413107238519765017
15419008 47 18272926120677425952
15461852 350 17489300919575157887
15510794 2 18341618113468922150
1577012 14 18187075148577869923
15849732 13 18272370888863630948
16087824 20 18338798902133186657
16120349 18 18340766039750480148
17093844 174 18334295383798023323
18006028 8 17203610389302996584
19841028 212 18187926120025053226
20238998 120 18413671318689012304
21150785 3 14692571018160327604
21267235 1 18409452522341581299
21792934 111 18131342004790362328
21792961 116 18131071498431916976
22224240 67 14345797153687662344
232437 2 18410293610430530542
23559900 14 18130781304270792673
249057 3 18412544335784856796
28498 318 18273216383377769302
3004659 81 18334855034773696472
335352 9 18413386553486680253
4017518 198 16558755624664764502
4073 2 17968382354617089986
4339292 15 17916861457013906351
444735 82 18335985389379893636
5758199 1 17312820476806064082
59567204 34 18410011005993881381
59682541 35 10809349948973795964
5969126 39 15123795054768174161
59755656 520 17168142360700276291
6009941 240 18186805793903786714
636775 72 18339924810687940761
6691757 9 15338842010069330079
67123 10 18410575101842948111

> <PUBCHEM_SHAPE_MULTIPOLES>
516.34
28.56
1.85
0.68
19.58
0.06
0.01
-6.64
0.82
-1.91
0.05
-0.23
-0.05
1.23

> <PUBCHEM_SHAPE_SELFOVERLAP>
1144.715

> <PUBCHEM_SHAPE_VOLUME>
273.1

> <PUBCHEM_COORDINATE_TYPE>
2
5
10

$$$$
