6217526
  -OEChem-01171809393D

 54 57  0     0  0  0  0  0  0999 V2000
   -2.6657   -1.0159    1.6167 S   0  0  0  0  0  0  0  0  0  0  0  0
   -3.3443    0.1392    2.1648 O   0  0  0  0  0  0  0  0  0  0  0  0
   -2.5740   -2.2443    2.3768 O   0  0  0  0  0  0  0  0  0  0  0  0
   -1.0069    1.1973   -0.5075 N   0  0  0  0  0  0  0  0  0  0  0  0
   -0.4240    1.8060    1.5491 N   0  0  0  0  0  0  0  0  0  0  0  0
    5.3100   -0.9699   -0.5680 C   0  0  0  0  0  0  0  0  0  0  0  0
    3.8872   -1.1177   -0.1460 C   0  0  0  0  0  0  0  0  0  0  0  0
    5.4715    0.1673   -1.6240 C   0  0  0  0  0  0  0  0  0  0  0  0
    5.8502   -2.2863   -1.2082 C   0  0  0  0  0  0  0  0  0  0  0  0
    6.3173   -0.6203    0.5774 C   0  0  0  0  0  0  0  0  0  0  0  0
    2.9089   -1.4297   -1.0899 C   0  0  0  0  0  0  0  0  0  0  0  0
    3.5348   -0.9431    1.1922 C   0  0  0  0  0  0  0  0  0  0  0  0
    1.2405   -1.3911    0.6381 C   0  0  0  0  0  0  0  0  0  0  0  0
   -1.0758   -0.5366    1.1036 C   0  0  0  0  0  0  0  0  0  0  0  0
    1.5779   -1.5671   -0.6957 C   0  0  0  0  0  0  0  0  0  0  0  0
    2.2039   -1.0807    1.5866 C   0  0  0  0  0  0  0  0  0  0  0  0
   -0.1623   -1.5361    1.0537 C   0  0  0  0  0  0  0  0  0  0  0  0
   -0.8223    0.8095    0.7904 C   0  0  0  0  0  0  0  0  0  0  0  0
   -3.4303   -1.4137    0.0738 C   0  0  0  0  0  0  0  0  0  0  0  0
   -0.7077    2.5329   -0.5921 C   0  0  0  0  0  0  0  0  0  0  0  0
   -0.3467    2.8894    0.7044 C   0  0  0  0  0  0  0  0  0  0  0  0
   -0.7212    3.4323   -1.6587 C   0  0  0  0  0  0  0  0  0  0  0  0
   -3.3440   -2.7080   -0.4094 C   0  0  0  0  0  0  0  0  0  0  0  0
   -4.1002   -0.4235   -0.6239 C   0  0  0  0  0  0  0  0  0  0  0  0
    0.0255    4.2178    0.9708 C   0  0  0  0  0  0  0  0  0  0  0  0
   -0.3477    4.7503   -1.3755 C   0  0  0  0  0  0  0  0  0  0  0  0
    0.0192    5.1381   -0.0848 C   0  0  0  0  0  0  0  0  0  0  0  0
   -3.9461   -3.0219   -1.6279 C   0  0  0  0  0  0  0  0  0  0  0  0
   -4.7024   -0.7373   -1.8424 C   0  0  0  0  0  0  0  0  0  0  0  0
   -4.6253   -2.0365   -2.3443 C   0  0  0  0  0  0  0  0  0  0  0  0
    6.5208    0.2964   -1.9138 H   0  0  0  0  0  0  0  0  0  0  0  0
    5.1125    1.1231   -1.2246 H   0  0  0  0  0  0  0  0  0  0  0  0
    4.9070   -0.0411   -2.5394 H   0  0  0  0  0  0  0  0  0  0  0  0
    5.7678   -3.1233   -0.5048 H   0  0  0  0  0  0  0  0  0  0  0  0
    6.9043   -2.1880   -1.4926 H   0  0  0  0  0  0  0  0  0  0  0  0
    5.2957   -2.5590   -2.1127 H   0  0  0  0  0  0  0  0  0  0  0  0
    6.3356   -1.3998    1.3480 H   0  0  0  0  0  0  0  0  0  0  0  0
    6.0687    0.3355    1.0532 H   0  0  0  0  0  0  0  0  0  0  0  0
    7.3394   -0.5288    0.1901 H   0  0  0  0  0  0  0  0  0  0  0  0
    3.1552   -1.5705   -2.1384 H   0  0  0  0  0  0  0  0  0  0  0  0
    4.2539   -0.6997    1.9664 H   0  0  0  0  0  0  0  0  0  0  0  0
    0.8245   -1.8101   -1.4405 H   0  0  0  0  0  0  0  0  0  0  0  0
    1.9412   -0.9424    2.6322 H   0  0  0  0  0  0  0  0  0  0  0  0
   -0.4197   -2.5629    1.3014 H   0  0  0  0  0  0  0  0  0  0  0  0
   -1.3055    0.6100   -1.2755 H   0  0  0  0  0  0  0  0  0  0  0  0
   -1.0065    3.1287   -2.6596 H   0  0  0  0  0  0  0  0  0  0  0  0
   -2.8148   -3.4881    0.1290 H   0  0  0  0  0  0  0  0  0  0  0  0
   -4.1678    0.5944   -0.2528 H   0  0  0  0  0  0  0  0  0  0  0  0
    0.3124    4.5291    1.9702 H   0  0  0  0  0  0  0  0  0  0  0  0
   -0.3434    5.4861   -2.1759 H   0  0  0  0  0  0  0  0  0  0  0  0
    0.3046    6.1698    0.1043 H   0  0  0  0  0  0  0  0  0  0  0  0
   -3.8846   -4.0330   -2.0198 H   0  0  0  0  0  0  0  0  0  0  0  0
   -5.2300    0.0302   -2.4011 H   0  0  0  0  0  0  0  0  0  0  0  0
   -5.0934   -2.2806   -3.2934 H   0  0  0  0  0  0  0  0  0  0  0  0
  1  2  2  0  0  0  0
  1  3  2  0  0  0  0
  1 14  1  0  0  0  0
  1 19  1  0  0  0  0
  4 18  1  0  0  0  0
  4 20  1  0  0  0  0
  4 45  1  0  0  0  0
  5 18  2  0  0  0  0
  5 21  1  0  0  0  0
  6  7  1  0  0  0  0
  6  8  1  0  0  0  0
  6  9  1  0  0  0  0
  6 10  1  0  0  0  0
  7 11  2  0  0  0  0
  7 12  1  0  0  0  0
  8 31  1  0  0  0  0
  8 32  1  0  0  0  0
  8 33  1  0  0  0  0
  9 34  1  0  0  0  0
  9 35  1  0  0  0  0
  9 36  1  0  0  0  0
 10 37  1  0  0  0  0
 10 38  1  0  0  0  0
 10 39  1  0  0  0  0
 11 15  1  0  0  0  0
 11 40  1  0  0  0  0
 12 16  2  0  0  0  0
 12 41  1  0  0  0  0
 13 15  2  0  0  0  0
 13 16  1  0  0  0  0
 13 17  1  0  0  0  0
 14 17  2  0  0  0  0
 14 18  1  0  0  0  0
 15 42  1  0  0  0  0
 16 43  1  0  0  0  0
 17 44  1  0  0  0  0
 19 23  2  0  0  0  0
 19 24  1  0  0  0  0
 20 21  1  0  0  0  0
 20 22  2  0  0  0  0
 21 25  2  0  0  0  0
 22 26  1  0  0  0  0
 22 46  1  0  0  0  0
 23 28  1  0  0  0  0
 23 47  1  0  0  0  0
 24 29  2  0  0  0  0
 24 48  1  0  0  0  0
 25 27  1  0  0  0  0
 25 49  1  0  0  0  0
 26 27  2  0  0  0  0
 26 50  1  0  0  0  0
 27 51  1  0  0  0  0
 28 30  2  0  0  0  0
 28 52  1  0  0  0  0
 29 30  1  0  0  0  0
 29 53  1  0  0  0  0
 30 54  1  0  0  0  0
M  END
> <PUBCHEM_COMPOUND_CID>
6217526

> <PUBCHEM_CONFORMER_RMSD>
0.8

> <PUBCHEM_CONFORMER_DIVERSEORDER>
1
16
12
9
3
15
7
6
13
10
8
11
4
5
14
2

> <PUBCHEM_MMFF94_PARTIAL_CHARGES>
42
1 1.33
11 -0.15
12 -0.15
13 0.03
14 0.03
15 -0.15
16 -0.15
17 -0.18
18 0.14
19 -0.01
2 -0.65
20 -0.15
21 0.23
22 -0.15
23 -0.15
24 -0.15
25 -0.15
26 -0.15
27 -0.15
28 -0.15
29 -0.15
3 -0.65
30 -0.15
4 0.03
40 0.15
41 0.15
42 0.15
43 0.15
44 0.15
45 0.27
46 0.15
47 0.15
48 0.15
49 0.15
5 -0.57
50 0.15
51 0.15
52 0.15
53 0.15
54 0.15
6 0.14
7 -0.14

> <PUBCHEM_EFFECTIVE_ROTOR_COUNT>
5

> <PUBCHEM_PHARMACOPHORE_FEATURES>
9
1 2 acceptor
1 3 acceptor
1 4 donor
3 4 5 18 cation
4 6 8 9 10 hydrophobe
5 4 5 18 20 21 rings
6 19 23 24 28 29 30 rings
6 20 21 22 25 26 27 rings
6 7 11 12 13 15 16 rings

> <PUBCHEM_HEAVY_ATOM_COUNT>
30

> <PUBCHEM_ATOM_DEF_STEREO_COUNT>
0

> <PUBCHEM_ATOM_UDEF_STEREO_COUNT>
0

> <PUBCHEM_BOND_DEF_STEREO_COUNT>
1

> <PUBCHEM_BOND_UDEF_STEREO_COUNT>
0

> <PUBCHEM_ISOTOPIC_ATOM_COUNT>
0

> <PUBCHEM_COMPONENT_COUNT>
1

> <PUBCHEM_CACTVS_TAUTO_COUNT>
1

> <PUBCHEM_CONFORMER_ID>
005EDF3600000001

> <PUBCHEM_MMFF94_ENERGY>
81.8548

> <PUBCHEM_FEATURE_SELFOVERLAP>
45.796

> <PUBCHEM_SHAPE_FINGERPRINT>
10006869 2 17756435859436069169
10556698 54 17393830299192276733
10670039 82 18191050966556615620
10930396 42 17975940411238108512
10985338 15 17767101130420402857
11045515 52 18410290319788944493
11115154 58 18339347610053468461
11445158 3 17975442370909743787
11477941 20 18266199300354056444
11488393 25 17617102842118379283
12156800 1 15795900137391851556
12160290 23 18048316639492334785
12166972 35 18057314188372702383
12293681 160 17967807224188917787
12788726 201 18189606142824592225
13149001 5 18042963366822653411
133893 2 18050859007065716425
13681431 1 18337955726409985097
13782708 43 17775293729767963710
13911987 19 18187375367024157326
14068700 675 17703500095539624983
14347332 77 18268145362678733978
14556957 393 18188226337716037980
14910302 57 17702401554437360110
14955137 171 18265639704321901563
15439362 3 17977656838693307205
15849732 13 18201452333480635371
1813 80 18271512204299541735
18365409 1 17632297819085914113
19319366 153 17317586697221036041
20600515 1 18269297766269129914
21304303 282 17606108490270424753
21344244 246 17908697676663778820
23558518 356 17540241056803672115
23559900 14 16917054586514422603
23929065 36 18121471624003129888
26353 1 18410851071062086085
3298306 158 17685497945839170596
4280585 95 18340752836530375758
46194498 28 17977357746003556319
469060 322 18272930527038934630
497634 4 17346602941705326218
5080951 261 17558523856541427102
5081480 168 18261382412884846405
5171179 24 18270104820784271777
532947 4 18048595112345128640
6669772 16 17403744835609915140
6913067 236 18202555181950385818

> <PUBCHEM_SHAPE_MULTIPOLES>
599.53
10.95
5.57
2.14
13.23
10.62
0.09
-11.94
-5.21
-2.71
-1.61
-1.56
-0.58
-0.48

> <PUBCHEM_SHAPE_SELFOVERLAP>
1306.151

> <PUBCHEM_SHAPE_VOLUME>
329.1

> <PUBCHEM_COORDINATE_TYPE>
2
5
10

$$$$
