44142130
  -OEChem-01171810103D

 36 39  0     0  0  0  0  0  0999 V2000
    3.5045    1.8698    1.3347 S   0  0  0  0  0  0  0  0  0  0  0  0
    0.2166   -1.1574   -1.6179 S   0  0  0  0  0  0  0  0  0  0  0  0
   -3.5314    1.3181    1.0255 O   0  0  0  0  0  0  0  0  0  0  0  0
    4.2690   -0.5021    0.3921 N   0  0  0  0  0  0  0  0  0  0  0  0
    2.7165   -1.8064   -0.9371 N   0  0  0  0  0  0  0  0  0  0  0  0
   -1.9756   -2.4309   -0.4647 N   0  0  0  0  0  0  0  0  0  0  0  0
   -0.2863   -2.2839    0.8872 N   0  0  0  0  0  0  0  0  0  0  0  0
   -2.3835   -3.0097    0.6734 N   0  0  0  0  0  0  0  0  0  0  0  0
   -1.3461   -2.9171    1.4964 N   0  0  0  0  0  0  0  0  0  0  0  0
    1.2383    1.4736    0.1931 C   0  0  0  0  0  0  0  0  0  0  0  0
    2.0240    0.3142   -0.0982 C   0  0  0  0  0  0  0  0  0  0  0  0
   -0.1148    1.7811   -0.1991 C   0  0  0  0  0  0  0  0  0  0  0  0
    3.2855    0.4153    0.4739 C   0  0  0  0  0  0  0  0  0  0  0  0
    1.9196    2.3934    0.9603 C   0  0  0  0  0  0  0  0  0  0  0  0
    1.7663   -0.8540   -0.8230 C   0  0  0  0  0  0  0  0  0  0  0  0
   -1.1812    1.3973    0.6139 C   0  0  0  0  0  0  0  0  0  0  0  0
   -0.3570    2.4618   -1.3923 C   0  0  0  0  0  0  0  0  0  0  0  0
   -2.4899    1.6941    0.2339 C   0  0  0  0  0  0  0  0  0  0  0  0
   -1.6659    2.7586   -1.7723 C   0  0  0  0  0  0  0  0  0  0  0  0
   -2.7324    2.3748   -0.9592 C   0  0  0  0  0  0  0  0  0  0  0  0
    3.8964   -1.5743   -0.3291 C   0  0  0  0  0  0  0  0  0  0  0  0
   -0.6976   -1.9918   -0.3252 C   0  0  0  0  0  0  0  0  0  0  0  0
   -2.8622   -2.3500   -1.5979 C   0  0  0  0  0  0  0  0  0  0  0  0
   -3.2127    0.6254    2.2316 C   0  0  0  0  0  0  0  0  0  0  0  0
    1.5733    3.3513    1.3257 H   0  0  0  0  0  0  0  0  0  0  0  0
   -0.9392    0.8705    1.5319 H   0  0  0  0  0  0  0  0  0  0  0  0
    0.4627    2.7672   -2.0383 H   0  0  0  0  0  0  0  0  0  0  0  0
   -1.8549    3.2880   -2.7016 H   0  0  0  0  0  0  0  0  0  0  0  0
   -3.7498    2.6079   -1.2610 H   0  0  0  0  0  0  0  0  0  0  0  0
    4.6422   -2.3542   -0.4357 H   0  0  0  0  0  0  0  0  0  0  0  0
   -2.4047   -2.8813   -2.4358 H   0  0  0  0  0  0  0  0  0  0  0  0
   -3.8200   -2.8129   -1.3463 H   0  0  0  0  0  0  0  0  0  0  0  0
   -3.0159   -1.2963   -1.8433 H   0  0  0  0  0  0  0  0  0  0  0  0
   -4.1590    0.3997    2.7339 H   0  0  0  0  0  0  0  0  0  0  0  0
   -2.6308    1.2540    2.9142 H   0  0  0  0  0  0  0  0  0  0  0  0
   -2.7228   -0.3320    2.0304 H   0  0  0  0  0  0  0  0  0  0  0  0
  1 13  1  0  0  0  0
  1 14  1  0  0  0  0
  2 15  1  0  0  0  0
  2 22  1  0  0  0  0
  3 18  1  0  0  0  0
  3 24  1  0  0  0  0
  4 13  1  0  0  0  0
  4 21  2  0  0  0  0
  5 15  2  0  0  0  0
  5 21  1  0  0  0  0
  6  8  1  0  0  0  0
  6 22  1  0  0  0  0
  6 23  1  0  0  0  0
  7  9  1  0  0  0  0
  7 22  2  0  0  0  0
  8  9  2  0  0  0  0
 10 11  1  0  0  0  0
 10 12  1  0  0  0  0
 10 14  2  0  0  0  0
 11 13  2  0  0  0  0
 11 15  1  0  0  0  0
 12 16  2  0  0  0  0
 12 17  1  0  0  0  0
 14 25  1  0  0  0  0
 16 18  1  0  0  0  0
 16 26  1  0  0  0  0
 17 19  2  0  0  0  0
 17 27  1  0  0  0  0
 18 20  2  0  0  0  0
 19 20  1  0  0  0  0
 19 28  1  0  0  0  0
 20 29  1  0  0  0  0
 21 30  1  0  0  0  0
 23 31  1  0  0  0  0
 23 32  1  0  0  0  0
 23 33  1  0  0  0  0
 24 34  1  0  0  0  0
 24 35  1  0  0  0  0
 24 36  1  0  0  0  0
M  END
> <PUBCHEM_COMPOUND_CID>
44142130

> <PUBCHEM_CONFORMER_RMSD>
0.8

> <PUBCHEM_CONFORMER_DIVERSEORDER>
2
26
1
38
9
27
39
36
22
10
35
30
16
23
25
34
20
4
8
7
3
33
28
31
37
29
6
32
21
19
24
5
14
18
15
13
11
12
17

> <PUBCHEM_MMFF94_PARTIAL_CHARGES>
28
1 -0.08
10 -0.05
12 0.05
13 0.3
14 -0.11
15 0.41
16 -0.15
17 -0.15
18 0.08
19 -0.15
2 -0.16
20 -0.15
21 0.47
22 0.24
23 0.26
24 0.28
25 0.15
26 0.15
27 0.15
28 0.15
29 0.15
3 -0.36
30 0.15
4 -0.57
5 -0.62
6 0.31
7 -0.34
8 -0.42

> <PUBCHEM_EFFECTIVE_ROTOR_COUNT>
4

> <PUBCHEM_PHARMACOPHORE_FEATURES>
8
1 3 acceptor
1 5 acceptor
3 4 5 21 cation
3 6 7 22 cation
5 1 10 11 13 14 rings
5 6 7 8 9 22 rings
6 12 16 17 18 19 20 rings
6 4 5 11 13 15 21 rings

> <PUBCHEM_HEAVY_ATOM_COUNT>
24

> <PUBCHEM_ATOM_DEF_STEREO_COUNT>
0

> <PUBCHEM_ATOM_UDEF_STEREO_COUNT>
0

> <PUBCHEM_BOND_DEF_STEREO_COUNT>
0

> <PUBCHEM_BOND_UDEF_STEREO_COUNT>
0

> <PUBCHEM_ISOTOPIC_ATOM_COUNT>
0

> <PUBCHEM_COMPONENT_COUNT>
1

> <PUBCHEM_CACTVS_TAUTO_COUNT>
1

> <PUBCHEM_CONFORMER_ID>
02A18E3200000002

> <PUBCHEM_MMFF94_ENERGY>
63.2984

> <PUBCHEM_FEATURE_SELFOVERLAP>
40.678

> <PUBCHEM_SHAPE_FINGERPRINT>
104564 63 18053392277123600204
1100329 8 17760065342676567826
12035758 1 18270686355413935578
12156800 1 16400199501654755355
12422481 6 18126313980749925683
12553582 1 17973733763476614469
12633257 1 18343022155794821008
12730499 353 17831287308257558469
13140716 1 18272638057589329504
13149001 5 18199192802282698996
13965767 371 17269510850984717347
14223421 5 18268983362099816660
15324884 4 18188490155571186132
16945 1 17844244030218819012
17357779 13 18197764707907288598
20600515 1 17244114323037621214
21197605 99 18272658991344475243
21236236 1 18269551797174984944
22182313 1 18130497648432058772
23419403 2 17127935444885837172
23558518 356 18337656603201756092
238 59 17833243360590511173
2748010 2 18201426026626813156
2818148 4 17755618092808630783
3383291 50 17550668812429518478
350125 39 17982438593504329728
35225 105 17312823753786846659
3524813 1 18265344901792411625
4340502 62 18059304167359558569
484985 159 16309567759284252112
495365 180 17761466129054097197
5282274 181 18269856313960135873
6438718 38 18201723959248464727
81228 2 18263357143545876429
9981440 41 16551374697222484696

> <PUBCHEM_SHAPE_MULTIPOLES>
465.85
6.21
4.12
1.72
3.28
1.33
-0.15
0.03
-1.5
-2.42
0.35
-1.26
-0.2
1.08

> <PUBCHEM_SHAPE_SELFOVERLAP>
1002.836

> <PUBCHEM_SHAPE_VOLUME>
258.8

> <PUBCHEM_COORDINATE_TYPE>
2
5
10

$$$$
