16452961
  -OEChem-01171810033D

 41 43  0     0  0  0  0  0  0999 V2000
   -2.8278   -4.1100    0.2672 Cl  0  0  0  0  0  0  0  0  0  0  0  0
    2.3159   -0.8897   -0.8328 S   0  0  0  0  0  0  0  0  0  0  0  0
   -4.2327    2.0610   -1.2038 S   0  0  0  0  0  0  0  0  0  0  0  0
    3.4299   -1.7552   -0.4834 O   0  0  0  0  0  0  0  0  0  0  0  0
    2.2165   -0.3324   -2.1714 O   0  0  0  0  0  0  0  0  0  0  0  0
   -2.9530   -1.3292    1.7623 O   0  0  0  0  0  0  0  0  0  0  0  0
   -0.2204   -1.0989   -0.0634 N   0  0  0  0  0  0  0  0  0  0  0  0
    0.8842   -3.1285   -0.7478 N   0  0  0  0  0  0  0  0  0  0  0  0
   -2.9015   -0.0168   -0.1819 N   0  0  0  0  0  0  0  0  0  0  0  0
   -4.7575    1.0050    1.0712 N   0  0  0  0  0  0  0  0  0  0  0  0
   -5.6656    2.0383    0.9201 N   0  0  0  0  0  0  0  0  0  0  0  0
    2.2515    0.4463    0.3159 C   0  0  0  0  0  0  0  0  0  0  0  0
    3.6369    0.9807    0.4751 C   0  0  0  0  0  0  0  0  0  0  0  0
    4.1114    2.0017   -0.3482 C   0  0  0  0  0  0  0  0  0  0  0  0
    0.8355   -1.8032   -0.5139 C   0  0  0  0  0  0  0  0  0  0  0  0
    4.4601    0.4434    1.4647 C   0  0  0  0  0  0  0  0  0  0  0  0
    5.4091    2.4856   -0.1820 C   0  0  0  0  0  0  0  0  0  0  0  0
    3.2486    2.5922   -1.4147 C   0  0  0  0  0  0  0  0  0  0  0  0
    5.7578    0.9274    1.6312 C   0  0  0  0  0  0  0  0  0  0  0  0
    6.2322    1.9483    0.8078 C   0  0  0  0  0  0  0  0  0  0  0  0
   -1.3326   -1.8266    0.1692 C   0  0  0  0  0  0  0  0  0  0  0  0
   -1.4127   -3.1897   -0.0300 C   0  0  0  0  0  0  0  0  0  0  0  0
   -0.2620   -3.7938   -0.4942 C   0  0  0  0  0  0  0  0  0  0  0  0
   -2.4655   -1.0517    0.6557 C   0  0  0  0  0  0  0  0  0  0  0  0
   -3.9524    0.9079    0.0348 C   0  0  0  0  0  0  0  0  0  0  0  0
   -5.5008    2.6699   -0.2225 C   0  0  0  0  0  0  0  0  0  0  0  0
   -6.3052    3.8183   -0.6851 C   0  0  0  0  0  0  0  0  0  0  0  0
    1.5125    1.1803   -0.0093 H   0  0  0  0  0  0  0  0  0  0  0  0
    1.9049    0.0475    1.2765 H   0  0  0  0  0  0  0  0  0  0  0  0
    4.1056   -0.3523    2.1146 H   0  0  0  0  0  0  0  0  0  0  0  0
    5.7951    3.2792   -0.8162 H   0  0  0  0  0  0  0  0  0  0  0  0
    3.6785    3.5318   -1.7832 H   0  0  0  0  0  0  0  0  0  0  0  0
    2.2528    2.8532   -1.0468 H   0  0  0  0  0  0  0  0  0  0  0  0
    3.1739    1.9258   -2.2757 H   0  0  0  0  0  0  0  0  0  0  0  0
    6.3988    0.5090    2.4016 H   0  0  0  0  0  0  0  0  0  0  0  0
    7.2427    2.3246    0.9371 H   0  0  0  0  0  0  0  0  0  0  0  0
   -0.2157   -4.8616   -0.6847 H   0  0  0  0  0  0  0  0  0  0  0  0
   -2.4169    0.1147   -1.0669 H   0  0  0  0  0  0  0  0  0  0  0  0
   -5.6770    4.7015   -0.8392 H   0  0  0  0  0  0  0  0  0  0  0  0
   -6.8185    3.5860   -1.6237 H   0  0  0  0  0  0  0  0  0  0  0  0
   -7.0678    4.0769    0.0567 H   0  0  0  0  0  0  0  0  0  0  0  0
  1 22  1  0  0  0  0
  2  4  2  0  0  0  0
  2  5  2  0  0  0  0
  2 12  1  0  0  0  0
  2 15  1  0  0  0  0
  3 25  1  0  0  0  0
  3 26  1  0  0  0  0
  6 24  2  0  0  0  0
  7 15  1  0  0  0  0
  7 21  2  0  0  0  0
  8 15  2  0  0  0  0
  8 23  1  0  0  0  0
  9 24  1  0  0  0  0
  9 25  1  0  0  0  0
  9 38  1  0  0  0  0
 10 11  1  0  0  0  0
 10 25  2  0  0  0  0
 11 26  2  0  0  0  0
 12 13  1  0  0  0  0
 12 28  1  0  0  0  0
 12 29  1  0  0  0  0
 13 14  1  0  0  0  0
 13 16  2  0  0  0  0
 14 17  2  0  0  0  0
 14 18  1  0  0  0  0
 16 19  1  0  0  0  0
 16 30  1  0  0  0  0
 17 20  1  0  0  0  0
 17 31  1  0  0  0  0
 18 32  1  0  0  0  0
 18 33  1  0  0  0  0
 18 34  1  0  0  0  0
 19 20  2  0  0  0  0
 19 35  1  0  0  0  0
 20 36  1  0  0  0  0
 21 22  1  0  0  0  0
 21 24  1  0  0  0  0
 22 23  2  0  0  0  0
 23 37  1  0  0  0  0
 26 27  1  0  0  0  0
 27 39  1  0  0  0  0
 27 40  1  0  0  0  0
 27 41  1  0  0  0  0
M  END
> <PUBCHEM_COMPOUND_CID>
16452961

> <PUBCHEM_CONFORMER_RMSD>
0.8

> <PUBCHEM_CONFORMER_DIVERSEORDER>
17
367
85
306
323
298
374
256
361
14
349
140
332
278
203
261
152
324
142
124
185
209
392
389
27
153
387
177
147
165
327
109
136
288
146
287
383
375
250
196
293
353
160
99
36
189
9
273
386
225
310
313
391
350
91
73
249
96
252
234
393
139
312
80
162
114
253
148
10
161
271
229
224
356
135
228
330
211
172
341
33
155
340
213
149
394
372
208
402
400
358
86
194
269
118
268
365
233
41
186
397
170
326
38
357
112
74
366
360
163
122
242
321
355
101
210
218
32
95
255
301
322
12
248
364
28
53
217
267
90
190
98
207
237
46
373
52
363
403
316
100
151
216
21
156
133
247
290
311
369
108
257
328
31
214
265
359
220
380
40
354
92
127
244
197
47
50
362
144
345
111
202
260
204
401
123
376
18
226
381
154
231
219
159
131
75
205
368
134
238
331
110
62
199
348
201
295
254
315
178
93
395
304
183
377
305
343
379
173
181
104
143
346
319
307
338
120
83
56
132
246
174
195
13
240
137
277
8
43
126
115
285
227
274
370
352
23
318
382
266
279
284
145
292
335
223
77
336
141
334
102
49
309
69
245
166
329
128
63
107
396
239
291
20
286
344
303
138
258
103
113
243
179
283
169
251
289
82
97
60
150
337
236
198
281
206
193
221
158
191
105
87
106
235
275
263
5
39
230
164
388
94
67
71
55
157
276
384
81
378
182
212
347
320
188
222
270
241
187
184
65
333
88
180
130
72
116
3
317
296
64
76
339
2
299
19
1
390
68
308
117
84
15
371
58
79
325
215
129
59
119
300
280
192
37
61
351
66
167
25
294
48
42
16
7
171
57
297
399
121
398
29
26
44
34
125
262
89
342
302
51
176
30
24
54
175
22
168
45
264
259
200
35
385
232
70
6
314
272
11
4
282
78

> <PUBCHEM_MMFF94_PARTIAL_CHARGES>
33
1 -0.18
10 -0.34
11 -0.34
12 0.25
13 -0.14
14 -0.14
15 0.61
16 -0.15
17 -0.15
18 0.14
19 -0.15
2 1.2
20 -0.15
21 0.4
22 0.18
23 0.16
24 0.54
25 0.44
26 0.2
27 0.18
3 -0.08
30 0.15
31 0.15
35 0.15
36 0.15
37 0.15
38 0.37
4 -0.65
5 -0.65
6 -0.57
7 -0.62
8 -0.62
9 -0.49

> <PUBCHEM_EFFECTIVE_ROTOR_COUNT>
6

> <PUBCHEM_PHARMACOPHORE_FEATURES>
10
1 11 acceptor
1 4 acceptor
1 5 acceptor
1 6 acceptor
1 7 acceptor
1 9 donor
3 7 8 15 cation
5 3 10 11 25 26 rings
6 13 14 16 17 19 20 rings
6 7 8 15 21 22 23 rings

> <PUBCHEM_HEAVY_ATOM_COUNT>
27

> <PUBCHEM_ATOM_DEF_STEREO_COUNT>
0

> <PUBCHEM_ATOM_UDEF_STEREO_COUNT>
0

> <PUBCHEM_BOND_DEF_STEREO_COUNT>
0

> <PUBCHEM_BOND_UDEF_STEREO_COUNT>
0

> <PUBCHEM_ISOTOPIC_ATOM_COUNT>
0

> <PUBCHEM_COMPONENT_COUNT>
1

> <PUBCHEM_CACTVS_TAUTO_COUNT>
3

> <PUBCHEM_CONFORMER_ID>
00FB0D6100000011

> <PUBCHEM_MMFF94_ENERGY>
62.1639

> <PUBCHEM_FEATURE_SELFOVERLAP>
50.766

> <PUBCHEM_SHAPE_FINGERPRINT>
10074138 170 17822305621319084891
10319926 262 17603878766736451603
10439779 11 18411132571629875888
105312 117 18341891926202260465
10675989 125 18053385401150316281
11135609 127 18051678951168304709
11552529 35 16955911521130201906
12107183 9 18262785299496225914
12403259 118 18264483069818680504
12403259 415 18341345430400880055
12422481 6 17894346657503692644
12633257 1 18115014307955953924
12769317 202 18198618848522883761
12788726 201 18048025561027298667
13103583 49 17095796711594857544
13540713 4 18200049416051306094
13965767 371 18040711437811458350
14294032 229 18199755906897530255
144659 39 17967806137456956289
14848178 96 18342461383395268625
14904385 31 18334293145503799717
14950920 106 16878787252287166384
16120349 189 18409163312049837885
16988056 13 17545036005536969159
19246450 95 17608897964608831776
20715895 44 18339357466101481608
21033648 29 18335147453532461149
21133410 38 17985270664880147321
21279426 13 18059591208692687694
21304303 282 17986931107130097807
21388113 180 18337955593356039757
21401589 2 18410578379572934555
21859007 373 18189051993433389820
23559900 14 18272665523916061862
23569914 2 16913372412621255696
2748736 6 18340197514655474913
2838139 119 18271234019225477872
3246875 12 18411139139483450651
3459 39 18343293808149820104
376196 1 18339646637939661495
508706 21 18268998746277058479
6327066 14 18409441484339284821
6371009 1 18264762328450127813
6695519 79 18196398969586963235
7808743 9 18410009982994508513
9849439 229 18408889516611730989
9981440 41 18409449198142733947

> <PUBCHEM_SHAPE_MULTIPOLES>
522.7
15.02
5.24
1.37
0.56
2.7
-0.02
-20.3
3.6
6.4
-1.07
-0.74
-0.25
1.16

> <PUBCHEM_SHAPE_SELFOVERLAP>
1089.121

> <PUBCHEM_SHAPE_VOLUME>
299.6

> <PUBCHEM_COORDINATE_TYPE>
2
5
10

$$$$
