1086028
  -OEChem-01171810053D

 54 57  0     0  0  0  0  0  0999 V2000
   -6.4572    1.6767    1.3595 O   0  0  0  0  0  0  0  0  0  0  0  0
    6.5466   -0.4948   -0.0351 O   0  0  0  0  0  0  0  0  0  0  0  0
    4.5635    2.3150   -0.7448 O   0  0  0  0  0  0  0  0  0  0  0  0
    9.6448   -2.1019    0.1409 O   0  5  0  0  0  0  0  0  0  0  0  0
    7.6059   -2.8006    0.5798 O   0  0  0  0  0  0  0  0  0  0  0  0
   -1.6182    0.5256    0.3651 N   0  0  0  0  0  0  0  0  0  0  0  0
   -4.5038    0.7192    0.5115 N   0  0  0  0  0  0  0  0  0  0  0  0
    3.9785    0.1933    0.0209 N   0  0  0  0  0  0  0  0  0  0  0  0
    8.3990   -1.8874    0.2065 N   0  3  0  0  0  0  0  0  0  0  0  0
   -2.2767    1.7987    0.6709 C   0  0  0  0  0  0  0  0  0  0  0  0
   -2.4587   -0.6588    0.1705 C   0  0  0  0  0  0  0  0  0  0  0  0
   -3.6329    1.5582    1.3297 C   0  0  0  0  0  0  0  0  0  0  0  0
   -3.8395   -0.2621   -0.3522 C   0  0  0  0  0  0  0  0  0  0  0  0
   -0.2305    0.4427    0.2790 C   0  0  0  0  0  0  0  0  0  0  0  0
   -5.8898    0.8572    0.6381 C   0  0  0  0  0  0  0  0  0  0  0  0
   -6.7535   -0.0376   -0.1498 C   0  0  0  0  0  0  0  0  0  0  0  0
    0.4597   -0.7432    0.6239 C   0  0  0  0  0  0  0  0  0  0  0  0
    0.5473    1.5417   -0.1561 C   0  0  0  0  0  0  0  0  0  0  0  0
    1.8494   -0.8256    0.5387 C   0  0  0  0  0  0  0  0  0  0  0  0
    1.9371    1.4593   -0.2415 C   0  0  0  0  0  0  0  0  0  0  0  0
   -7.1712   -1.2648    0.3604 C   0  0  0  0  0  0  0  0  0  0  0  0
    2.5883    0.2757    0.1058 C   0  0  0  0  0  0  0  0  0  0  0  0
   -7.1495    0.3644   -1.4236 C   0  0  0  0  0  0  0  0  0  0  0  0
   -7.9891   -2.0941   -0.4072 C   0  0  0  0  0  0  0  0  0  0  0  0
   -6.7589   -1.7182    1.7230 C   0  0  0  0  0  0  0  0  0  0  0  0
   -7.9673   -0.4651   -2.1911 C   0  0  0  0  0  0  0  0  0  0  0  0
   -8.3870   -1.6943   -1.6829 C   0  0  0  0  0  0  0  0  0  0  0  0
    4.8922    1.1853   -0.3891 C   0  0  0  0  0  0  0  0  0  0  0  0
    6.3040    0.7657   -0.4068 C   0  0  0  0  0  0  0  0  0  0  0  0
    7.4043    1.4587   -0.7423 C   0  0  0  0  0  0  0  0  0  0  0  0
    8.4684    0.5424   -0.5662 C   0  0  0  0  0  0  0  0  0  0  0  0
    7.8948   -0.6312   -0.1352 C   0  0  0  0  0  0  0  0  0  0  0  0
   -2.4078    2.3697   -0.2563 H   0  0  0  0  0  0  0  0  0  0  0  0
   -1.6669    2.3985    1.3575 H   0  0  0  0  0  0  0  0  0  0  0  0
   -2.5587   -1.1919    1.1238 H   0  0  0  0  0  0  0  0  0  0  0  0
   -2.0068   -1.3445   -0.5565 H   0  0  0  0  0  0  0  0  0  0  0  0
   -3.5060    1.0416    2.2892 H   0  0  0  0  0  0  0  0  0  0  0  0
   -4.1261    2.5140    1.5378 H   0  0  0  0  0  0  0  0  0  0  0  0
   -3.7492    0.2050   -1.3407 H   0  0  0  0  0  0  0  0  0  0  0  0
   -4.4556   -1.1570   -0.4690 H   0  0  0  0  0  0  0  0  0  0  0  0
   -0.0832   -1.6169    0.9778 H   0  0  0  0  0  0  0  0  0  0  0  0
    0.0704    2.4754   -0.4463 H   0  0  0  0  0  0  0  0  0  0  0  0
    2.3443   -1.7532    0.8154 H   0  0  0  0  0  0  0  0  0  0  0  0
    2.4308    2.3554   -0.5879 H   0  0  0  0  0  0  0  0  0  0  0  0
   -6.8279    1.3198   -1.8301 H   0  0  0  0  0  0  0  0  0  0  0  0
   -8.3248   -3.0554   -0.0273 H   0  0  0  0  0  0  0  0  0  0  0  0
   -5.6731   -1.8481    1.7740 H   0  0  0  0  0  0  0  0  0  0  0  0
   -7.2149   -2.6787    1.9873 H   0  0  0  0  0  0  0  0  0  0  0  0
   -7.0729   -0.9935    2.4815 H   0  0  0  0  0  0  0  0  0  0  0  0
   -8.2769   -0.1540   -3.1845 H   0  0  0  0  0  0  0  0  0  0  0  0
    4.3761   -0.7055    0.2865 H   0  0  0  0  0  0  0  0  0  0  0  0
   -9.0235   -2.3402   -2.2808 H   0  0  0  0  0  0  0  0  0  0  0  0
    7.4701    2.4851   -1.0730 H   0  0  0  0  0  0  0  0  0  0  0  0
    9.5209    0.7218   -0.7347 H   0  0  0  0  0  0  0  0  0  0  0  0
  1 15  2  0  0  0  0
  2 29  1  0  0  0  0
  2 32  1  0  0  0  0
  3 28  2  0  0  0  0
  4  9  1  0  0  0  0
  5  9  2  0  0  0  0
  6 10  1  0  0  0  0
  6 11  1  0  0  0  0
  6 14  1  0  0  0  0
  7 12  1  0  0  0  0
  7 13  1  0  0  0  0
  7 15  1  0  0  0  0
  8 22  1  0  0  0  0
  8 28  1  0  0  0  0
  8 51  1  0  0  0  0
  9 32  1  0  0  0  0
 10 12  1  0  0  0  0
 10 33  1  0  0  0  0
 10 34  1  0  0  0  0
 11 13  1  0  0  0  0
 11 35  1  0  0  0  0
 11 36  1  0  0  0  0
 12 37  1  0  0  0  0
 12 38  1  0  0  0  0
 13 39  1  0  0  0  0
 13 40  1  0  0  0  0
 14 17  2  0  0  0  0
 14 18  1  0  0  0  0
 15 16  1  0  0  0  0
 16 21  1  0  0  0  0
 16 23  2  0  0  0  0
 17 19  1  0  0  0  0
 17 41  1  0  0  0  0
 18 20  2  0  0  0  0
 18 42  1  0  0  0  0
 19 22  2  0  0  0  0
 19 43  1  0  0  0  0
 20 22  1  0  0  0  0
 20 44  1  0  0  0  0
 21 24  2  0  0  0  0
 21 25  1  0  0  0  0
 23 26  1  0  0  0  0
 23 45  1  0  0  0  0
 24 27  1  0  0  0  0
 24 46  1  0  0  0  0
 25 47  1  0  0  0  0
 25 48  1  0  0  0  0
 25 49  1  0  0  0  0
 26 27  2  0  0  0  0
 26 50  1  0  0  0  0
 27 52  1  0  0  0  0
 28 29  1  0  0  0  0
 29 30  2  0  0  0  0
 30 31  1  0  0  0  0
 30 53  1  0  0  0  0
 31 32  2  0  0  0  0
 31 54  1  0  0  0  0
M  CHG  2   4  -1   9   1
M  END
> <PUBCHEM_COMPOUND_CID>
1086028

> <PUBCHEM_CONFORMER_RMSD>
1

> <PUBCHEM_CONFORMER_DIVERSEORDER>
1
17
6
29
15
27
19
24
26
20
28
25
4
13
12
11
22
16
7
10
23
8
14
18
2
21
9
5
3

> <PUBCHEM_MMFF94_PARTIAL_CHARGES>
43
1 -0.57
10 0.37
11 0.37
12 0.3
13 0.3
14 0.1
15 0.54
16 0.09
17 -0.15
18 -0.15
19 -0.15
2 -0.28
20 -0.15
21 -0.14
22 0.12
23 -0.15
24 -0.15
25 0.14
26 -0.15
27 -0.15
28 0.71
29 0.05
3 -0.57
30 -0.15
31 -0.15
32 0.22
4 -0.52
41 0.15
42 0.15
43 0.15
44 0.15
45 0.15
46 0.15
5 -0.52
50 0.15
51 0.37
52 0.15
53 0.15
54 0.15
6 -0.84
7 -0.66
8 -0.55
9 0.96

> <PUBCHEM_EFFECTIVE_ROTOR_COUNT>
8.2

> <PUBCHEM_PHARMACOPHORE_FEATURES>
12
1 1 acceptor
1 2 acceptor
1 3 acceptor
1 4 acceptor
1 4 anion
1 5 acceptor
1 6 cation
1 8 donor
5 2 29 30 31 32 rings
6 14 17 18 19 20 22 rings
6 16 21 23 24 26 27 rings
6 6 7 10 11 12 13 rings

> <PUBCHEM_HEAVY_ATOM_COUNT>
32

> <PUBCHEM_ATOM_DEF_STEREO_COUNT>
0

> <PUBCHEM_ATOM_UDEF_STEREO_COUNT>
0

> <PUBCHEM_BOND_DEF_STEREO_COUNT>
0

> <PUBCHEM_BOND_UDEF_STEREO_COUNT>
0

> <PUBCHEM_ISOTOPIC_ATOM_COUNT>
0

> <PUBCHEM_COMPONENT_COUNT>
1

> <PUBCHEM_CACTVS_TAUTO_COUNT>
2

> <PUBCHEM_CONFORMER_ID>
0010924C00000001

> <PUBCHEM_MMFF94_ENERGY>
100.7698

> <PUBCHEM_FEATURE_SELFOVERLAP>
60.989

> <PUBCHEM_SHAPE_FINGERPRINT>
10 15 10303815388536888239
10066227 49 18335702707042294250
10162869 55 18408040720111519836
10299344 5 18413673508752035016
10669705 176 18113616794174828695
11135609 127 18262805207266365364
11135926 11 18186524289627111603
11181472 205 12829477113668113052
11315181 36 18260833722418091417
11386260 185 17022908990731734628
11456790 92 12535350065568761774
11497681 19 18411134719165563567
11578821 258 11025804205880830694
12082328 90 18407757023977607421
12089408 11 18343305855923598568
12592606 108 18410293610287735486
13553643 46 9871476404242546362
14251764 18 18343023289666219108
150020 25 17676482869719338645
15160629 178 18266171734579651967
15183329 4 18334572451869282169
15198563 99 16588020161413989172
15247644 1 16558751239381803463
15301273 46 15936408936086775830
15461852 350 17917998290857230237
1577012 14 18411702050386709497
1754908 1 15410895158567893822
1754911 235 17603581928455884063
18335252 114 17676487280883380284
18681886 176 18201715189220476609
195137 175 11025799794784834339
20156587 128 18337101295144751831
20165401 70 18267584616460474766
21315759 40 18342463634016387880
21315763 28 18413109471892774248
21521721 280 11095883761657415780
21792961 116 18261108569474189611
21792965 169 18187096044432353532
23569917 315 18335711554290283146
23576562 1 16298957601052001159
249057 25 18271260364887856808
3178227 256 12679464205071002772
335352 9 18334299786508799300
335507 130 18059864982645219829
4339292 15 16558739140901937613
4353968 344 18335416812153664308
437795 160 17704062993636589882
44389302 135 18057604275302393714
44802255 64 16878213235253231395
4625314 4 17603586361004447773
54039377 194 18200874102355717951
59682541 35 13542463176767565180
6081469 158 17967811648026416188
9953998 17 13902194803322926277
9962374 69 17417803002467400973

> <PUBCHEM_SHAPE_MULTIPOLES>
609.27
34.25
2.2
1.27
27.52
0.64
0.25
17.28
7.94
1.67
-0.32
-3.38
0.1
-2.3

> <PUBCHEM_SHAPE_SELFOVERLAP>
1324.536

> <PUBCHEM_SHAPE_VOLUME>
330.3

> <PUBCHEM_COORDINATE_TYPE>
2
5
10

$$$$
