2098526
  -OEChem-01171809373D

 45 46  0     0  0  0  0  0  0999 V2000
   -2.6687   -1.2302   -2.5969 Cl  0  0  0  0  0  0  0  0  0  0  0  0
    0.9171   -4.2162    0.0941 Cl  0  0  0  0  0  0  0  0  0  0  0  0
   -3.8377   -0.7550    0.1347 O   0  0  0  0  0  0  0  0  0  0  0  0
   -1.6836    2.0634   -0.3266 O   0  0  0  0  0  0  0  0  0  0  0  0
   -2.5136    3.2947    1.4391 O   0  0  0  0  0  0  0  0  0  0  0  0
    0.3286    1.0872   -1.8405 O   0  0  0  0  0  0  0  0  0  0  0  0
    1.9592    2.0941   -0.5222 N   0  0  0  0  0  0  0  0  0  0  0  0
   -4.7823    1.2906    0.9449 C   0  0  0  0  0  0  0  0  0  0  0  0
   -4.0120    2.1219   -0.0758 C   0  0  0  0  0  0  0  0  0  0  0  0
   -4.0354    0.0165    1.3115 C   0  0  0  0  0  0  0  0  0  0  0  0
    3.1144    1.6230   -1.2512 C   0  0  0  0  0  0  0  0  0  0  0  0
   -2.6745    2.5797    0.4598 C   0  0  0  0  0  0  0  0  0  0  0  0
    4.0220    0.7928   -0.3903 C   0  0  0  0  0  0  0  0  0  0  0  0
   -0.3490    2.4096    0.0575 C   0  0  0  0  0  0  0  0  0  0  0  0
   -2.7289   -1.5603    0.1021 C   0  0  0  0  0  0  0  0  0  0  0  0
    0.6578    1.7826   -0.8834 C   0  0  0  0  0  0  0  0  0  0  0  0
    5.0502    1.4018    0.3292 C   0  0  0  0  0  0  0  0  0  0  0  0
    3.8368   -0.5874   -0.3093 C   0  0  0  0  0  0  0  0  0  0  0  0
   -2.0880   -1.8608   -1.0998 C   0  0  0  0  0  0  0  0  0  0  0  0
   -2.2427   -2.0817    1.3011 C   0  0  0  0  0  0  0  0  0  0  0  0
    5.8934    0.6307    1.1292 C   0  0  0  0  0  0  0  0  0  0  0  0
    4.6800   -1.3584    0.4908 C   0  0  0  0  0  0  0  0  0  0  0  0
    5.7083   -0.7493    1.2101 C   0  0  0  0  0  0  0  0  0  0  0  0
   -0.9607   -2.6825   -1.1028 C   0  0  0  0  0  0  0  0  0  0  0  0
   -1.1157   -2.9033    1.2983 C   0  0  0  0  0  0  0  0  0  0  0  0
   -0.4746   -3.2036    0.0964 C   0  0  0  0  0  0  0  0  0  0  0  0
   -4.9671    1.8776    1.8518 H   0  0  0  0  0  0  0  0  0  0  0  0
   -5.7559    1.0319    0.5120 H   0  0  0  0  0  0  0  0  0  0  0  0
   -4.5815    3.0213   -0.3371 H   0  0  0  0  0  0  0  0  0  0  0  0
   -3.8765    1.5660   -1.0106 H   0  0  0  0  0  0  0  0  0  0  0  0
   -3.0909    0.2915    1.7976 H   0  0  0  0  0  0  0  0  0  0  0  0
   -4.6411   -0.5624    2.0185 H   0  0  0  0  0  0  0  0  0  0  0  0
    2.8051    1.0557   -2.1366 H   0  0  0  0  0  0  0  0  0  0  0  0
    3.6457    2.5086   -1.6188 H   0  0  0  0  0  0  0  0  0  0  0  0
   -0.1551    2.0416    1.0717 H   0  0  0  0  0  0  0  0  0  0  0  0
   -0.2293    3.4984    0.0223 H   0  0  0  0  0  0  0  0  0  0  0  0
    2.1188    2.6966    0.2804 H   0  0  0  0  0  0  0  0  0  0  0  0
    5.2037    2.4765    0.2764 H   0  0  0  0  0  0  0  0  0  0  0  0
    3.0373   -1.0730   -0.8628 H   0  0  0  0  0  0  0  0  0  0  0  0
   -2.7267   -1.9027    2.2565 H   0  0  0  0  0  0  0  0  0  0  0  0
    6.6937    1.1049    1.6898 H   0  0  0  0  0  0  0  0  0  0  0  0
    4.5349   -2.4329    0.5548 H   0  0  0  0  0  0  0  0  0  0  0  0
    6.3644   -1.3497    1.8335 H   0  0  0  0  0  0  0  0  0  0  0  0
   -0.4592   -2.9168   -2.0394 H   0  0  0  0  0  0  0  0  0  0  0  0
   -0.7515   -3.3082    2.2391 H   0  0  0  0  0  0  0  0  0  0  0  0
  1 19  1  0  0  0  0
  2 26  1  0  0  0  0
  3 10  1  0  0  0  0
  3 15  1  0  0  0  0
  4 12  1  0  0  0  0
  4 14  1  0  0  0  0
  5 12  2  0  0  0  0
  6 16  2  0  0  0  0
  7 11  1  0  0  0  0
  7 16  1  0  0  0  0
  7 37  1  0  0  0  0
  8  9  1  0  0  0  0
  8 10  1  0  0  0  0
  8 27  1  0  0  0  0
  8 28  1  0  0  0  0
  9 12  1  0  0  0  0
  9 29  1  0  0  0  0
  9 30  1  0  0  0  0
 10 31  1  0  0  0  0
 10 32  1  0  0  0  0
 11 13  1  0  0  0  0
 11 33  1  0  0  0  0
 11 34  1  0  0  0  0
 13 17  2  0  0  0  0
 13 18  1  0  0  0  0
 14 16  1  0  0  0  0
 14 35  1  0  0  0  0
 14 36  1  0  0  0  0
 15 19  2  0  0  0  0
 15 20  1  0  0  0  0
 17 21  1  0  0  0  0
 17 38  1  0  0  0  0
 18 22  2  0  0  0  0
 18 39  1  0  0  0  0
 19 24  1  0  0  0  0
 20 25  2  0  0  0  0
 20 40  1  0  0  0  0
 21 23  2  0  0  0  0
 21 41  1  0  0  0  0
 22 23  1  0  0  0  0
 22 42  1  0  0  0  0
 23 43  1  0  0  0  0
 24 26  2  0  0  0  0
 24 44  1  0  0  0  0
 25 26  1  0  0  0  0
 25 45  1  0  0  0  0
M  END
> <PUBCHEM_COMPOUND_CID>
2098526

> <PUBCHEM_CONFORMER_RMSD>
1.4

> <PUBCHEM_CONFORMER_DIVERSEORDER>
2
16
72
26
12
82
53
81
7
14
11
91
77
3
64
1
27
33
6
86
65
83
78
17
31
13
41
75
90
85
47
62
36
80
68
35
23
22
32
79
20
38
89
39
55
87
45
34
28
70
15
19
44
25
63
54
88
21
51
4
71
50
61
67
57
8
69
42
84
58
9
46
5
48
73
43
29
24
56
60
59
74
10
49
37
30
76
66
40
18
52

> <PUBCHEM_MMFF94_PARTIAL_CHARGES>
34
1 -0.18
10 0.28
11 0.44
12 0.66
13 -0.14
14 0.34
15 0.08
16 0.57
17 -0.15
18 -0.15
19 0.18
2 -0.18
20 -0.15
21 -0.15
22 -0.15
23 -0.15
24 -0.15
25 -0.15
26 0.18
3 -0.36
37 0.37
38 0.15
39 0.15
4 -0.43
40 0.15
41 0.15
42 0.15
43 0.15
44 0.15
45 0.15
5 -0.57
6 -0.57
7 -0.73
9 0.06

> <PUBCHEM_EFFECTIVE_ROTOR_COUNT>
11

> <PUBCHEM_PHARMACOPHORE_FEATURES>
6
1 3 acceptor
1 5 acceptor
1 6 acceptor
1 7 donor
6 13 17 18 21 22 23 rings
6 15 19 20 24 25 26 rings

> <PUBCHEM_HEAVY_ATOM_COUNT>
26

> <PUBCHEM_ATOM_DEF_STEREO_COUNT>
0

> <PUBCHEM_ATOM_UDEF_STEREO_COUNT>
0

> <PUBCHEM_BOND_DEF_STEREO_COUNT>
0

> <PUBCHEM_BOND_UDEF_STEREO_COUNT>
0

> <PUBCHEM_ISOTOPIC_ATOM_COUNT>
0

> <PUBCHEM_COMPONENT_COUNT>
1

> <PUBCHEM_CACTVS_TAUTO_COUNT>
2

> <PUBCHEM_CONFORMER_ID>
0020055E00000002

> <PUBCHEM_MMFF94_ENERGY>
53.1252

> <PUBCHEM_FEATURE_SELFOVERLAP>
30.447

> <PUBCHEM_SHAPE_FINGERPRINT>
10939801 23 18263933309810428712
11513181 2 18201721708854829494
12422481 6 18188487948300205274
12788726 201 18269568284926693404
12978246 48 18408328778386878656
16120349 306 18336257947196447848
16728300 4 18114183072912937099
20554085 129 17986944151531357513
229767 44 18407757032530579666
23728640 28 18340211894268629339
3298306 158 18264773147325098565
338550 245 18333737901258867852
3459 110 17059201726033034464
445580 42 18262800812200472459
469060 322 16298104293718212914
5171179 24 17626682504489010102
9543594 6 18195252105385585006

> <PUBCHEM_SHAPE_MULTIPOLES>
510.35
11.34
4.73
1.65
14.49
2.24
0.63
-3.85
-4.16
-2.67
-0.5
-0.92
0.28
-1.42

> <PUBCHEM_SHAPE_SELFOVERLAP>
1043.842

> <PUBCHEM_SHAPE_VOLUME>
294.6

> <PUBCHEM_COORDINATE_TYPE>
2
5
10

$$$$
