12005647
  -OEChem-01171809343D

 53 54  0     1  0  0  0  0  0999 V2000
    5.2187    0.1271    0.8907 Cl  0  0  0  0  0  0  0  0  0  0  0  0
   -0.7684   -1.6350    1.4253 S   0  0  0  0  0  0  0  0  0  0  0  0
   -2.3476   -0.8661   -1.7291 O   0  0  0  0  0  0  0  0  0  0  0  0
   -0.9949   -2.7202    0.4886 O   0  0  0  0  0  0  0  0  0  0  0  0
   -1.0178   -1.8488    2.8389 O   0  0  0  0  0  0  0  0  0  0  0  0
   -3.5954   -2.4792   -0.6622 O   0  0  0  0  0  0  0  0  0  0  0  0
    2.9328   -1.7853   -2.2289 O   0  5  0  0  0  0  0  0  0  0  0  0
    4.7689   -0.8853   -1.4304 O   0  0  0  0  0  0  0  0  0  0  0  0
   -1.6221   -0.2334    0.8987 N   0  0  1  0  0  0  0  0  0  0  0  0
    3.5712   -1.2311   -1.3040 N   0  3  0  0  0  0  0  0  0  0  0  0
   -3.0415   -0.4013    0.4881 C   0  0  0  0  0  0  0  0  0  0  0  0
   -1.4073    1.0323    1.6436 C   0  0  0  0  0  0  0  0  0  0  0  0
   -3.5747    0.9623    0.0543 C   0  0  0  0  0  0  0  0  0  0  0  0
   -3.8179   -0.9583    1.6790 C   0  0  0  0  0  0  0  0  0  0  0  0
   -3.0450   -1.3846   -0.6736 C   0  0  0  0  0  0  0  0  0  0  0  0
   -0.9012    2.1357    0.7574 C   0  0  0  0  0  0  0  0  0  0  0  0
    0.9247   -1.1421    1.2594 C   0  0  0  0  0  0  0  0  0  0  0  0
    0.1170    1.8736   -0.1505 C   0  0  0  0  0  0  0  0  0  0  0  0
   -1.4585    3.4042    0.8552 C   0  0  0  0  0  0  0  0  0  0  0  0
    1.5790   -1.3737    0.0638 C   0  0  0  0  0  0  0  0  0  0  0  0
    1.5559   -0.5361    2.3297 C   0  0  0  0  0  0  0  0  0  0  0  0
    0.5858    2.8974   -0.9739 C   0  0  0  0  0  0  0  0  0  0  0  0
    2.9125   -0.9853   -0.0662 C   0  0  0  0  0  0  0  0  0  0  0  0
   -0.9897    4.4279    0.0319 C   0  0  0  0  0  0  0  0  0  0  0  0
   -2.2769   -1.6958   -2.8931 C   0  0  0  0  0  0  0  0  0  0  0  0
    2.8892   -0.1477    2.1997 C   0  0  0  0  0  0  0  0  0  0  0  0
    0.0325    4.1745   -0.8827 C   0  0  0  0  0  0  0  0  0  0  0  0
    3.5675   -0.3722    1.0018 C   0  0  0  0  0  0  0  0  0  0  0  0
    1.6796    2.6272   -1.9511 C   0  0  0  0  0  0  0  0  0  0  0  0
   -1.4764   -0.9807   -3.9605 C   0  0  0  0  0  0  0  0  0  0  0  0
   -0.6541    0.8953    2.4238 H   0  0  0  0  0  0  0  0  0  0  0  0
   -2.2845    1.3349    2.2239 H   0  0  0  0  0  0  0  0  0  0  0  0
   -4.5481    0.8147   -0.4349 H   0  0  0  0  0  0  0  0  0  0  0  0
   -3.7866    1.6543    0.8736 H   0  0  0  0  0  0  0  0  0  0  0  0
   -2.9566    1.4485   -0.7068 H   0  0  0  0  0  0  0  0  0  0  0  0
   -3.5363   -1.9874    1.9275 H   0  0  0  0  0  0  0  0  0  0  0  0
   -4.8904   -0.9862    1.4497 H   0  0  0  0  0  0  0  0  0  0  0  0
   -3.6975   -0.3553    2.5847 H   0  0  0  0  0  0  0  0  0  0  0  0
    0.5359    0.8918   -0.2721 H   0  0  0  0  0  0  0  0  0  0  0  0
   -2.2521    3.6166    1.5660 H   0  0  0  0  0  0  0  0  0  0  0  0
    1.0449   -1.8430   -0.7575 H   0  0  0  0  0  0  0  0  0  0  0  0
    1.0530   -0.3617    3.2754 H   0  0  0  0  0  0  0  0  0  0  0  0
   -1.4198    5.4226    0.1038 H   0  0  0  0  0  0  0  0  0  0  0  0
   -3.2893   -1.8959   -3.2609 H   0  0  0  0  0  0  0  0  0  0  0  0
   -1.7883   -2.6424   -2.6367 H   0  0  0  0  0  0  0  0  0  0  0  0
    3.3856    0.3268    3.0425 H   0  0  0  0  0  0  0  0  0  0  0  0
    0.3891    4.9820   -1.5165 H   0  0  0  0  0  0  0  0  0  0  0  0
    1.5025    1.6828   -2.4770 H   0  0  0  0  0  0  0  0  0  0  0  0
    1.7463    3.4127   -2.7114 H   0  0  0  0  0  0  0  0  0  0  0  0
    2.6415    2.5685   -1.4317 H   0  0  0  0  0  0  0  0  0  0  0  0
   -0.4671   -0.7568   -3.5987 H   0  0  0  0  0  0  0  0  0  0  0  0
   -1.9422   -0.0228   -4.2143 H   0  0  0  0  0  0  0  0  0  0  0  0
   -1.4006   -1.5884   -4.8664 H   0  0  0  0  0  0  0  0  0  0  0  0
  1 28  1  0  0  0  0
  2  4  2  0  0  0  0
  2  5  2  0  0  0  0
  2  9  1  0  0  0  0
  2 17  1  0  0  0  0
  3 15  1  0  0  0  0
  3 25  1  0  0  0  0
  6 15  2  0  0  0  0
  7 10  1  0  0  0  0
  8 10  2  0  0  0  0
  9 11  1  0  0  0  0
  9 12  1  0  0  0  0
 10 23  1  0  0  0  0
 11 13  1  0  0  0  0
 11 14  1  0  0  0  0
 11 15  1  0  0  0  0
 12 16  1  0  0  0  0
 12 31  1  0  0  0  0
 12 32  1  0  0  0  0
 13 33  1  0  0  0  0
 13 34  1  0  0  0  0
 13 35  1  0  0  0  0
 14 36  1  0  0  0  0
 14 37  1  0  0  0  0
 14 38  1  0  0  0  0
 16 18  1  0  0  0  0
 16 19  2  0  0  0  0
 17 20  2  0  0  0  0
 17 21  1  0  0  0  0
 18 22  2  0  0  0  0
 18 39  1  0  0  0  0
 19 24  1  0  0  0  0
 19 40  1  0  0  0  0
 20 23  1  0  0  0  0
 20 41  1  0  0  0  0
 21 26  2  0  0  0  0
 21 42  1  0  0  0  0
 22 27  1  0  0  0  0
 22 29  1  0  0  0  0
 23 28  2  0  0  0  0
 24 27  2  0  0  0  0
 24 43  1  0  0  0  0
 25 30  1  0  0  0  0
 25 44  1  0  0  0  0
 25 45  1  0  0  0  0
 26 28  1  0  0  0  0
 26 46  1  0  0  0  0
 27 47  1  0  0  0  0
 29 48  1  0  0  0  0
 29 49  1  0  0  0  0
 29 50  1  0  0  0  0
 30 51  1  0  0  0  0
 30 52  1  0  0  0  0
 30 53  1  0  0  0  0
M  CHG  2   7  -1  10   1
M  END
> <PUBCHEM_COMPOUND_CID>
12005647

> <PUBCHEM_CONFORMER_RMSD>
1

> <PUBCHEM_CONFORMER_DIVERSEORDER>
1
99
62
102
112
113
73
19
111
4
63
100
38
90
115
114
42
17
107
109
32
106
54
101
85
52
93
11
91
97
117
53
118
59
61
108
83
105
71
72
94
116
110
98
51
43
82
58
36
88
27
13
7
84
39
24
33
80
96
74
9
81
14
34
78
104
89
21
87
8
16
12
60
20
45
44
41
28
70
69
15
50
18
37
46
103
79
57
56
6
29
48
31
55
40
25
95
2
65
68
49
22
86
10
3
67
5
77
64
35
47
92
75
66
26
76
30
23

> <PUBCHEM_MMFF94_PARTIAL_CHARGES>
34
1 -0.18
10 0.91
11 0.42
12 0.5
15 0.66
16 -0.14
17 -0.01
18 -0.15
19 -0.15
2 1.45
20 -0.15
21 -0.15
22 -0.14
23 0.13
24 -0.15
25 0.28
26 -0.15
27 -0.15
28 0.18
29 0.14
3 -0.43
39 0.15
4 -0.65
40 0.15
41 0.15
42 0.15
43 0.15
46 0.15
47 0.15
5 -0.65
6 -0.57
7 -0.52
8 -0.52
9 -0.85

> <PUBCHEM_EFFECTIVE_ROTOR_COUNT>
9

> <PUBCHEM_PHARMACOPHORE_FEATURES>
9
1 4 acceptor
1 5 acceptor
1 6 acceptor
1 7 acceptor
1 7 anion
1 8 acceptor
3 11 13 14 hydrophobe
6 16 18 19 22 24 27 rings
6 17 20 21 23 26 28 rings

> <PUBCHEM_HEAVY_ATOM_COUNT>
30

> <PUBCHEM_ATOM_DEF_STEREO_COUNT>
0

> <PUBCHEM_ATOM_UDEF_STEREO_COUNT>
0

> <PUBCHEM_BOND_DEF_STEREO_COUNT>
0

> <PUBCHEM_BOND_UDEF_STEREO_COUNT>
0

> <PUBCHEM_ISOTOPIC_ATOM_COUNT>
0

> <PUBCHEM_COMPONENT_COUNT>
1

> <PUBCHEM_CACTVS_TAUTO_COUNT>
1

> <PUBCHEM_CONFORMER_ID>
00B7310F00000001

> <PUBCHEM_MMFF94_ENERGY>
93.5806

> <PUBCHEM_FEATURE_SELFOVERLAP>
45.776

> <PUBCHEM_SHAPE_FINGERPRINT>
10006869 2 17829323593427421841
10064457 181 7803305847323306869
10165383 225 17477225837765683776
10498660 4 18189620449265872264
10871710 139 18116729416808649296
11477941 20 18413673522376052284
11578080 2 17845941706690362208
11759241 127 18131060572219758424
12156800 1 16966676512558691841
12166972 35 16805325513645081394
12422481 6 17840904830822379921
12788726 201 18262526879229096624
13149001 5 17898554626105590779
133893 2 17829587793676142269
13615921 28 17755907221501505004
13681431 1 18193541488150952081
13911987 19 18113891715189759602
14251757 17 17024282284601290052
14863182 85 15543415141951952047
14955137 171 18338534001133513459
15849732 13 18131912659666919441
17357779 13 18340751724397194192
1813 80 18341047505788733027
20600515 1 18191002664515608560
20905425 154 17539988576992368954
21304303 282 17178506189029886297
22889148 1 17696161761192424605
23402539 116 18337658772545310730
23419403 2 17544138013411386937
238 59 17545877587014186581
26353 1 18055038147462456645
35225 105 17908687441619906812
469060 322 16984861503127255160
6287921 2 17487321879875077584
6438718 38 18196097642258442528
81228 2 18262800644675863600

> <PUBCHEM_SHAPE_MULTIPOLES>
577.93
6.9
4.34
3.03
5.98
6.19
-2.29
-3.84
-0.47
-1.91
-0.71
-0.64
-1.7
-0.66

> <PUBCHEM_SHAPE_SELFOVERLAP>
1198.86

> <PUBCHEM_SHAPE_VOLUME>
332.6

> <PUBCHEM_COORDINATE_TYPE>
2
5
10

$$$$
