16453495
  -OEChem-01171810033D

 46 49  0     0  0  0  0  0  0999 V2000
    0.8224   -5.6772    0.1298 Cl  0  0  0  0  0  0  0  0  0  0  0  0
   -2.9787   -0.9019   -0.3787 S   0  0  0  0  0  0  0  0  0  0  0  0
   -2.0038    2.3257   -1.5920 F   0  0  0  0  0  0  0  0  0  0  0  0
    3.3708    3.5043    1.0846 O   0  0  0  0  0  0  0  0  0  0  0  0
    4.1753    3.4856   -1.1871 O   0  0  0  0  0  0  0  0  0  0  0  0
   -3.0579   -0.5125   -1.7860 O   0  0  0  0  0  0  0  0  0  0  0  0
   -4.2172   -1.1891    0.3457 O   0  0  0  0  0  0  0  0  0  0  0  0
    2.4564   -3.0860   -0.7544 O   0  0  0  0  0  0  0  0  0  0  0  0
    1.9935   -1.8659    1.1470 N   0  0  0  0  0  0  0  0  0  0  0  0
   -0.5877   -1.9471   -0.1386 N   0  0  0  0  0  0  0  0  0  0  0  0
   -2.4564   -3.4658   -0.2309 N   0  0  0  0  0  0  0  0  0  0  0  0
   -2.1813    0.4314    0.4977 C   0  0  0  0  0  0  0  0  0  0  0  0
    3.5789   -0.1337    0.6556 C   0  0  0  0  0  0  0  0  0  0  0  0
   -3.0727    1.6317    0.4109 C   0  0  0  0  0  0  0  0  0  0  0  0
    3.3466   -1.4250    1.3668 C   0  0  0  0  0  0  0  0  0  0  0  0
    3.5583    2.2416    0.6129 C   0  0  0  0  0  0  0  0  0  0  0  0
   -1.8985   -2.2402   -0.2349 C   0  0  0  0  0  0  0  0  0  0  0  0
    3.3287    1.0740    1.3114 C   0  0  0  0  0  0  0  0  0  0  0  0
    4.0176    2.2309   -0.6842 C   0  0  0  0  0  0  0  0  0  0  0  0
    4.0482   -0.1446   -0.6697 C   0  0  0  0  0  0  0  0  0  0  0  0
    4.2726    1.0521   -1.3544 C   0  0  0  0  0  0  0  0  0  0  0  0
    0.2150   -3.0193   -0.0285 C   0  0  0  0  0  0  0  0  0  0  0  0
   -2.9322    2.5261   -0.6463 C   0  0  0  0  0  0  0  0  0  0  0  0
   -4.0376    1.8449    1.3911 C   0  0  0  0  0  0  0  0  0  0  0  0
    1.6420   -2.6838    0.0759 C   0  0  0  0  0  0  0  0  0  0  0  0
    3.7642    4.2873   -0.0610 C   0  0  0  0  0  0  0  0  0  0  0  0
   -0.2176   -4.3221   -0.0111 C   0  0  0  0  0  0  0  0  0  0  0  0
   -3.7639    3.6432   -0.7239 C   0  0  0  0  0  0  0  0  0  0  0  0
   -4.8692    2.9622    1.3135 C   0  0  0  0  0  0  0  0  0  0  0  0
   -1.5834   -4.4882   -0.1171 C   0  0  0  0  0  0  0  0  0  0  0  0
   -4.7324    3.8613    0.2560 C   0  0  0  0  0  0  0  0  0  0  0  0
   -2.0243    0.1211    1.5357 H   0  0  0  0  0  0  0  0  0  0  0  0
   -1.2078    0.6297    0.0392 H   0  0  0  0  0  0  0  0  0  0  0  0
    4.0525   -2.1924    1.0288 H   0  0  0  0  0  0  0  0  0  0  0  0
    3.4890   -1.3100    2.4471 H   0  0  0  0  0  0  0  0  0  0  0  0
    2.9646    1.0999    2.3330 H   0  0  0  0  0  0  0  0  0  0  0  0
    4.2496   -1.0845   -1.1768 H   0  0  0  0  0  0  0  0  0  0  0  0
    4.6356    1.0481   -2.3758 H   0  0  0  0  0  0  0  0  0  0  0  0
    1.2718   -1.5466    1.7874 H   0  0  0  0  0  0  0  0  0  0  0  0
   -4.1534    1.1528    2.2207 H   0  0  0  0  0  0  0  0  0  0  0  0
    4.5966    4.9390    0.2285 H   0  0  0  0  0  0  0  0  0  0  0  0
    2.9173    4.9126   -0.3661 H   0  0  0  0  0  0  0  0  0  0  0  0
   -3.6570    4.3431   -1.5473 H   0  0  0  0  0  0  0  0  0  0  0  0
   -5.6232    3.1321    2.0766 H   0  0  0  0  0  0  0  0  0  0  0  0
   -2.0397   -5.4733   -0.1146 H   0  0  0  0  0  0  0  0  0  0  0  0
   -5.3797    4.7312    0.1955 H   0  0  0  0  0  0  0  0  0  0  0  0
  1 27  1  0  0  0  0
  2  6  2  0  0  0  0
  2  7  2  0  0  0  0
  2 12  1  0  0  0  0
  2 17  1  0  0  0  0
  3 23  1  0  0  0  0
  4 16  1  0  0  0  0
  4 26  1  0  0  0  0
  5 19  1  0  0  0  0
  5 26  1  0  0  0  0
  8 25  2  0  0  0  0
  9 15  1  0  0  0  0
  9 25  1  0  0  0  0
  9 39  1  0  0  0  0
 10 17  1  0  0  0  0
 10 22  2  0  0  0  0
 11 17  2  0  0  0  0
 11 30  1  0  0  0  0
 12 14  1  0  0  0  0
 12 32  1  0  0  0  0
 12 33  1  0  0  0  0
 13 15  1  0  0  0  0
 13 18  2  0  0  0  0
 13 20  1  0  0  0  0
 14 23  1  0  0  0  0
 14 24  2  0  0  0  0
 15 34  1  0  0  0  0
 15 35  1  0  0  0  0
 16 18  1  0  0  0  0
 16 19  2  0  0  0  0
 18 36  1  0  0  0  0
 19 21  1  0  0  0  0
 20 21  2  0  0  0  0
 20 37  1  0  0  0  0
 21 38  1  0  0  0  0
 22 25  1  0  0  0  0
 22 27  1  0  0  0  0
 23 28  2  0  0  0  0
 24 29  1  0  0  0  0
 24 40  1  0  0  0  0
 26 41  1  0  0  0  0
 26 42  1  0  0  0  0
 27 30  2  0  0  0  0
 28 31  1  0  0  0  0
 28 43  1  0  0  0  0
 29 31  2  0  0  0  0
 29 44  1  0  0  0  0
 30 45  1  0  0  0  0
 31 46  1  0  0  0  0
M  END
> <PUBCHEM_COMPOUND_CID>
16453495

> <PUBCHEM_CONFORMER_RMSD>
1.2

> <PUBCHEM_CONFORMER_DIVERSEORDER>
2
206
282
123
542
224
487
488
45
191
59
42
318
401
531
142
324
231
538
384
259
157
526
298
359
270
67
425
1
107
100
344
112
79
503
300
565
544
276
252
202
31
421
509
47
21
207
507
44
36
357
275
77
192
54
188
297
564
129
273
400
80
546
133
26
120
274
196
134
387
386
46
534
541
341
288
185
232
242
28
22
448
243
440
254
53
528
307
210
225
327
6
125
213
152
181
348
87
14
155
550
246
377
50
458
68
193
383
127
48
222
334
11
279
399
439
168
512
111
345
467
178
530
90
454
104
293
25
56
171
32
95
96
513
85
93
101
286
510
420
416
86
10
299
163
522
226
474
4
160
62
524
40
429
147
220
172
83
18
258
272
169
23
97
132
57
39
110
438
8
84
143
51
553
69
109
17
418
362
124
49
117
495
72
66
184
60
145
514
128
5
119
3
182
456
183
88
19
76
428
290
35
63
81
292
9
562
102
265

> <PUBCHEM_MMFF94_PARTIAL_CHARGES>
40
1 -0.18
10 -0.62
11 -0.62
12 0.25
13 -0.14
14 -0.14
15 0.44
16 0.08
17 0.61
18 -0.15
19 0.08
2 1.2
20 -0.15
21 -0.15
22 0.4
23 0.19
24 -0.15
25 0.54
26 0.56
27 0.18
28 -0.15
29 -0.15
3 -0.19
30 0.16
31 -0.15
36 0.15
37 0.15
38 0.15
39 0.37
4 -0.36
40 0.15
43 0.15
44 0.15
45 0.15
46 0.15
5 -0.36
6 -0.65
7 -0.65
8 -0.57
9 -0.73

> <PUBCHEM_EFFECTIVE_ROTOR_COUNT>
7.6

> <PUBCHEM_PHARMACOPHORE_FEATURES>
12
1 10 acceptor
1 4 acceptor
1 5 acceptor
1 6 acceptor
1 7 acceptor
1 8 acceptor
1 9 donor
3 10 11 17 cation
5 4 5 16 19 26 rings
6 10 11 17 22 27 30 rings
6 13 16 18 19 20 21 rings
6 14 23 24 28 29 31 rings

> <PUBCHEM_HEAVY_ATOM_COUNT>
31

> <PUBCHEM_ATOM_DEF_STEREO_COUNT>
0

> <PUBCHEM_ATOM_UDEF_STEREO_COUNT>
0

> <PUBCHEM_BOND_DEF_STEREO_COUNT>
0

> <PUBCHEM_BOND_UDEF_STEREO_COUNT>
0

> <PUBCHEM_ISOTOPIC_ATOM_COUNT>
0

> <PUBCHEM_COMPONENT_COUNT>
1

> <PUBCHEM_CACTVS_TAUTO_COUNT>
2

> <PUBCHEM_CONFORMER_ID>
00FB0F7700000002

> <PUBCHEM_MMFF94_ENERGY>
70.8408

> <PUBCHEM_FEATURE_SELFOVERLAP>
61.073

> <PUBCHEM_SHAPE_FINGERPRINT>
10498660 4 18049436243293599474
10670039 82 17903074783417332788
10937287 8 18411138034701039331
10951579 204 17760382372263643172
11059048 146 18411986862089031988
11059845 2 18195500754359783032
11211813 163 18191325951849168596
11273773 38 18265619788690294620
12156800 1 15253068154050136666
12788726 201 18053373585357141715
12925494 130 17762618387618704561
12978246 48 18335975462907950272
13617811 41 18194667393043877905
14117953 113 17979068284947075804
14394314 77 17834400395131864115
14790565 3 18412269424124530619
14840074 17 18192165991020715059
150020 26 17829324692380146300
15082195 135 18194663888376574695
151778 21 18337112250435906696
15320467 1 18050850219246740952
15322535 138 18339631364940810288
15444296 121 18260255340568789194
15961568 22 17043451411223129340
16992727 255 18190483631426027308
20764821 26 18337377262839907956
21458453 9 18117869701399354057
21860390 5 17840862976002278374
24180151 248 18055376857153171070
325973 47 17472980601590295317
4573279 73 18270097047810831733
5252454 2 18333737905374903084
53794403 172 18338521824500743757
6201320 215 17621316171562954752
6371009 1 18266714983353835178
653340 110 18123748927085263512
6608658 132 17694212670700674902
9980921 221 17902816372668917948

> <PUBCHEM_SHAPE_MULTIPOLES>
592.12
10.59
8.29
1.28
4.44
5.29
-0.02
-13.58
0.71
-2.34
-0.51
-0.1
-0.71
-1.04

> <PUBCHEM_SHAPE_SELFOVERLAP>
1280.722

> <PUBCHEM_SHAPE_VOLUME>
329.1

> <PUBCHEM_COORDINATE_TYPE>
2
5
10

$$$$
