5719932
  -OEChem-01171809323D

 40 42  0     0  0  0  0  0  0999 V2000
    3.1863    2.3471   -0.2347 O   0  0  0  0  0  0  0  0  0  0  0  0
    1.4718    0.4028   -2.4759 O   0  0  0  0  0  0  0  0  0  0  0  0
    4.6381    0.8546    0.7276 N   0  0  0  0  0  0  0  0  0  0  0  0
   -3.1126   -0.1414   -0.0829 C   0  0  0  0  0  0  0  0  0  0  0  0
    2.6700    0.0320   -0.4852 C   0  0  0  0  0  0  0  0  0  0  0  0
    3.0604   -1.2297   -0.2026 C   0  0  0  0  0  0  0  0  0  0  0  0
   -2.2321    0.9165   -0.3262 C   0  0  0  0  0  0  0  0  0  0  0  0
   -4.3229    0.1211    0.6020 C   0  0  0  0  0  0  0  0  0  0  0  0
    5.0203   -0.4340    1.0115 C   0  0  0  0  0  0  0  0  0  0  0  0
    4.2736   -1.4567    0.5731 C   0  0  0  0  0  0  0  0  0  0  0  0
    3.5078    1.1845    0.0047 C   0  0  0  0  0  0  0  0  0  0  0  0
    1.4463    0.3115   -1.2551 C   0  0  0  0  0  0  0  0  0  0  0  0
   -0.9515    0.7336   -1.0324 C   0  0  0  0  0  0  0  0  0  0  0  0
   -2.5192    2.2117    0.0873 C   0  0  0  0  0  0  0  0  0  0  0  0
   -2.8288   -1.4528   -0.4977 C   0  0  0  0  0  0  0  0  0  0  0  0
   -4.6064    1.4325    1.0171 C   0  0  0  0  0  0  0  0  0  0  0  0
    2.3731   -2.5071   -0.6075 C   0  0  0  0  0  0  0  0  0  0  0  0
    0.2182    0.4654   -0.4337 C   0  0  0  0  0  0  0  0  0  0  0  0
   -5.2141   -0.9354    0.8512 C   0  0  0  0  0  0  0  0  0  0  0  0
   -3.7095    2.4699    0.7606 C   0  0  0  0  0  0  0  0  0  0  0  0
    6.2732   -0.6038    1.8094 C   0  0  0  0  0  0  0  0  0  0  0  0
   -3.7258   -2.4903   -0.2417 C   0  0  0  0  0  0  0  0  0  0  0  0
   -4.9161   -2.2320    0.4313 C   0  0  0  0  0  0  0  0  0  0  0  0
    4.5610   -2.4816    0.7888 H   0  0  0  0  0  0  0  0  0  0  0  0
    5.2251    1.6085    1.0735 H   0  0  0  0  0  0  0  0  0  0  0  0
   -1.0195    0.8363   -2.1127 H   0  0  0  0  0  0  0  0  0  0  0  0
   -1.8334    3.0336   -0.1043 H   0  0  0  0  0  0  0  0  0  0  0  0
   -1.9133   -1.7024   -1.0287 H   0  0  0  0  0  0  0  0  0  0  0  0
   -5.5308    1.6576    1.5451 H   0  0  0  0  0  0  0  0  0  0  0  0
    3.0437   -3.1323   -1.2076 H   0  0  0  0  0  0  0  0  0  0  0  0
    1.4763   -2.3270   -1.2077 H   0  0  0  0  0  0  0  0  0  0  0  0
    2.0650   -3.0753    0.2771 H   0  0  0  0  0  0  0  0  0  0  0  0
    0.2947    0.3625    0.6437 H   0  0  0  0  0  0  0  0  0  0  0  0
   -6.1504   -0.7566    1.3758 H   0  0  0  0  0  0  0  0  0  0  0  0
   -3.9412    3.4797    1.0868 H   0  0  0  0  0  0  0  0  0  0  0  0
    6.1763   -0.1130    2.7834 H   0  0  0  0  0  0  0  0  0  0  0  0
    7.1256   -0.1624    1.2823 H   0  0  0  0  0  0  0  0  0  0  0  0
    6.5032   -1.6593    1.9896 H   0  0  0  0  0  0  0  0  0  0  0  0
   -3.4949   -3.5001   -0.5686 H   0  0  0  0  0  0  0  0  0  0  0  0
   -5.6140   -3.0401    0.6302 H   0  0  0  0  0  0  0  0  0  0  0  0
  1 11  2  0  0  0  0
  2 12  2  0  0  0  0
  3  9  1  0  0  0  0
  3 11  1  0  0  0  0
  3 25  1  0  0  0  0
  4  7  1  0  0  0  0
  4  8  1  0  0  0  0
  4 15  2  0  0  0  0
  5  6  2  0  0  0  0
  5 11  1  0  0  0  0
  5 12  1  0  0  0  0
  6 10  1  0  0  0  0
  6 17  1  0  0  0  0
  7 13  1  0  0  0  0
  7 14  2  0  0  0  0
  8 16  1  0  0  0  0
  8 19  2  0  0  0  0
  9 10  2  0  0  0  0
  9 21  1  0  0  0  0
 10 24  1  0  0  0  0
 12 18  1  0  0  0  0
 13 18  2  0  0  0  0
 13 26  1  0  0  0  0
 14 20  1  0  0  0  0
 14 27  1  0  0  0  0
 15 22  1  0  0  0  0
 15 28  1  0  0  0  0
 16 20  2  0  0  0  0
 16 29  1  0  0  0  0
 17 30  1  0  0  0  0
 17 31  1  0  0  0  0
 17 32  1  0  0  0  0
 18 33  1  0  0  0  0
 19 23  1  0  0  0  0
 19 34  1  0  0  0  0
 20 35  1  0  0  0  0
 21 36  1  0  0  0  0
 21 37  1  0  0  0  0
 21 38  1  0  0  0  0
 22 23  2  0  0  0  0
 22 39  1  0  0  0  0
 23 40  1  0  0  0  0
M  END
> <PUBCHEM_COMPOUND_CID>
5719932

> <PUBCHEM_CONFORMER_RMSD>
0.6

> <PUBCHEM_CONFORMER_DIVERSEORDER>
1
50
46
37
15
27
51
7
36
17
45
28
10
41
33
5
18
24
40
8
52
53
16
21
11
6
13
54
9
4
19
42
22
14
12
20
23
38
49
48
2
39
35
26
34
3
47
43
25
29
31
32
30
44

> <PUBCHEM_MMFF94_PARTIAL_CHARGES>
32
1 -0.57
10 -0.15
11 0.62
12 0.54
13 -0.18
14 -0.15
15 -0.15
16 -0.15
17 0.14
18 -0.14
19 -0.15
2 -0.57
20 -0.15
21 0.14
22 -0.15
23 -0.15
24 0.15
25 0.37
26 0.15
27 0.15
28 0.15
29 0.15
3 -0.54
33 0.15
34 0.15
35 0.15
39 0.15
40 0.15
5 0.03
6 -0.14
7 0.03
9 -0.03

> <PUBCHEM_EFFECTIVE_ROTOR_COUNT>
3

> <PUBCHEM_PHARMACOPHORE_FEATURES>
7
1 1 acceptor
1 2 acceptor
1 3 donor
1 5 anion
6 3 5 6 9 10 11 rings
6 4 7 8 14 16 20 rings
6 4 8 15 19 22 23 rings

> <PUBCHEM_HEAVY_ATOM_COUNT>
23

> <PUBCHEM_ATOM_DEF_STEREO_COUNT>
0

> <PUBCHEM_ATOM_UDEF_STEREO_COUNT>
0

> <PUBCHEM_BOND_DEF_STEREO_COUNT>
1

> <PUBCHEM_BOND_UDEF_STEREO_COUNT>
0

> <PUBCHEM_ISOTOPIC_ATOM_COUNT>
0

> <PUBCHEM_COMPONENT_COUNT>
1

> <PUBCHEM_CACTVS_TAUTO_COUNT>
13

> <PUBCHEM_CONFORMER_ID>
0057477C00000001

> <PUBCHEM_MMFF94_ENERGY>
75.335

> <PUBCHEM_FEATURE_SELFOVERLAP>
35.548

> <PUBCHEM_SHAPE_FINGERPRINT>
10319926 262 18272938180791539902
11405975 8 18410857633440006305
12107183 9 17978231556292266753
12363563 72 16008748013190261197
12403259 118 17988920084930611424
12523318 42 18342739607303113563
12596602 18 18186798114523178656
12633257 1 18408601435922636184
12892183 10 18271525312381071022
13167823 11 18408323289149720346
13583140 156 17988629788080207033
14178342 30 18409733919734496269
14341114 176 18271810081998617672
14341114 328 18272374208530601800
14420673 8 18051137995019901670
14844126 61 18411698825077598131
14849402 71 18266175214357632944
15188451 53 18260260871911015883
15788980 27 17022901241903317109
16126227 98 17908420604863126672
16989378 47 14202792331555558674
17349148 13 17530687623190948338
17492 89 18411144623345031807
17780758 139 18409161095741049025
17857418 61 18260827107234817707
1813 80 17240773847682298062
18222031 100 16515680053090811308
19050596 39 18412545418158780948
19377110 9 18335144245129003244
20645477 70 15285646533478368220
21033648 29 16630256831074189121
21065198 48 18408325514001107252
21065198 57 18340773615650433381
21065199 12 18271808977717268935
21637258 2 15575263304442196930
21673915 165 18408886239214320563
21756936 100 17844516920257589732
21792934 111 18410578384369178617
21859007 373 17680141877198573237
23366157 5 17830750003754152429
23522609 53 17896909594071743884
23559900 14 17843990073007630853
2838139 119 11599711909933262482
312425 54 18338232644489854570
339767 52 18334288782380755927
3633792 109 18263067852773140525
392239 28 18342739658346914075
4214541 1 18411420583635942657
5104073 3 18411981381594653408
559249 180 17894907409140181083
5924683 9 18342735239384904207
6371380 46 17403460671756304204
67856867 119 18261959668615337908
6823239 73 18059032583233276678
7064713 232 18411420579103722023

> <PUBCHEM_SHAPE_MULTIPOLES>
456.61
13.82
2.65
1.34
6.11
0.3
0.25
2.88
-7.31
-2.3
-0.11
1.12
-0.08
-0.64

> <PUBCHEM_SHAPE_SELFOVERLAP>
999.873

> <PUBCHEM_SHAPE_VOLUME>
247.2

> <PUBCHEM_COORDINATE_TYPE>
2
5
10

$$$$
