242048
  -OEChem-01171810143D

 43 47  0     1  0  0  0  0  0999 V2000
    1.8152    0.1685    1.6492 O   0  0  0  0  0  0  0  0  0  0  0  0
    3.4372    1.5716    2.5122 O   0  0  0  0  0  0  0  0  0  0  0  0
   -6.7188    0.4282   -0.0556 O   0  0  0  0  0  0  0  0  0  0  0  0
    1.1525   -0.1092    0.3623 C   0  0  2  0  0  0  0  0  0  0  0  0
    1.7576    0.9742   -0.4813 C   0  0  0  0  0  0  0  0  0  0  0  0
   -0.3635    0.0739    0.5066 C   0  0  0  0  0  0  0  0  0  0  0  0
    1.5587   -1.5535    0.0475 C   0  0  0  0  0  0  0  0  0  0  0  0
    2.6793    1.6992    0.2517 C   0  0  0  0  0  0  0  0  0  0  0  0
    2.7332    1.1789    1.6039 C   0  0  0  0  0  0  0  0  0  0  0  0
   -1.2069   -0.2292   -0.5625 C   0  0  0  0  0  0  0  0  0  0  0  0
    1.5048    1.3297   -1.7999 C   0  0  0  0  0  0  0  0  0  0  0  0
   -0.8970    0.5417    1.7040 C   0  0  0  0  0  0  0  0  0  0  0  0
   -2.5971   -0.0675   -0.4468 C   0  0  0  0  0  0  0  0  0  0  0  0
    1.2368   -2.5829    0.9357 C   0  0  0  0  0  0  0  0  0  0  0  0
    2.2529   -1.8470   -1.1289 C   0  0  0  0  0  0  0  0  0  0  0  0
    3.3902    2.7661   -0.2695 C   0  0  0  0  0  0  0  0  0  0  0  0
   -3.1397    0.4082    0.7708 C   0  0  0  0  0  0  0  0  0  0  0  0
   -2.2758    0.7081    1.8367 C   0  0  0  0  0  0  0  0  0  0  0  0
    2.2081    2.4024   -2.3577 C   0  0  0  0  0  0  0  0  0  0  0  0
    3.1472    3.1149   -1.5968 C   0  0  0  0  0  0  0  0  0  0  0  0
   -3.4609   -0.3678   -1.5128 C   0  0  0  0  0  0  0  0  0  0  0  0
    1.6068   -3.8971    0.6495 C   0  0  0  0  0  0  0  0  0  0  0  0
    2.6228   -3.1611   -1.4153 C   0  0  0  0  0  0  0  0  0  0  0  0
   -4.5300    0.5698    0.8863 C   0  0  0  0  0  0  0  0  0  0  0  0
    2.2997   -4.1861   -0.5260 C   0  0  0  0  0  0  0  0  0  0  0  0
   -4.8399   -0.2012   -1.3803 C   0  0  0  0  0  0  0  0  0  0  0  0
   -5.3733    0.2669   -0.1832 C   0  0  0  0  0  0  0  0  0  0  0  0
   -0.7937   -0.6132   -1.4927 H   0  0  0  0  0  0  0  0  0  0  0  0
    0.7900    0.7902   -2.4107 H   0  0  0  0  0  0  0  0  0  0  0  0
   -0.2746    0.7905    2.5580 H   0  0  0  0  0  0  0  0  0  0  0  0
    0.6991   -2.3770    1.8576 H   0  0  0  0  0  0  0  0  0  0  0  0
    2.5356   -1.0912   -1.8515 H   0  0  0  0  0  0  0  0  0  0  0  0
    4.1065    3.3203    0.3265 H   0  0  0  0  0  0  0  0  0  0  0  0
   -2.6711    1.0756    2.7816 H   0  0  0  0  0  0  0  0  0  0  0  0
    2.0265    2.6870   -3.3905 H   0  0  0  0  0  0  0  0  0  0  0  0
    3.6836    3.9466   -2.0453 H   0  0  0  0  0  0  0  0  0  0  0  0
   -3.0661   -0.7348   -2.4579 H   0  0  0  0  0  0  0  0  0  0  0  0
    1.3557   -4.6951    1.3420 H   0  0  0  0  0  0  0  0  0  0  0  0
    3.1637   -3.3868   -2.3297 H   0  0  0  0  0  0  0  0  0  0  0  0
   -4.9563    0.9351    1.8191 H   0  0  0  0  0  0  0  0  0  0  0  0
    2.5881   -5.2092   -0.7488 H   0  0  0  0  0  0  0  0  0  0  0  0
   -5.4920   -0.4389   -2.2163 H   0  0  0  0  0  0  0  0  0  0  0  0
   -6.9140    0.7597    0.8378 H   0  0  0  0  0  0  0  0  0  0  0  0
  1  4  1  0  0  0  0
  1  9  1  0  0  0  0
  2  9  2  0  0  0  0
  3 27  1  0  0  0  0
  3 43  1  0  0  0  0
  4  5  1  0  0  0  0
  4  6  1  0  0  0  0
  4  7  1  0  0  0  0
  5  8  1  0  0  0  0
  5 11  2  0  0  0  0
  6 10  2  0  0  0  0
  6 12  1  0  0  0  0
  7 14  2  0  0  0  0
  7 15  1  0  0  0  0
  8  9  1  0  0  0  0
  8 16  2  0  0  0  0
 10 13  1  0  0  0  0
 10 28  1  0  0  0  0
 11 19  1  0  0  0  0
 11 29  1  0  0  0  0
 12 18  2  0  0  0  0
 12 30  1  0  0  0  0
 13 17  2  0  0  0  0
 13 21  1  0  0  0  0
 14 22  1  0  0  0  0
 14 31  1  0  0  0  0
 15 23  2  0  0  0  0
 15 32  1  0  0  0  0
 16 20  1  0  0  0  0
 16 33  1  0  0  0  0
 17 18  1  0  0  0  0
 17 24  1  0  0  0  0
 18 34  1  0  0  0  0
 19 20  2  0  0  0  0
 19 35  1  0  0  0  0
 20 36  1  0  0  0  0
 21 26  2  0  0  0  0
 21 37  1  0  0  0  0
 22 25  2  0  0  0  0
 22 38  1  0  0  0  0
 23 25  1  0  0  0  0
 23 39  1  0  0  0  0
 24 27  2  0  0  0  0
 24 40  1  0  0  0  0
 25 41  1  0  0  0  0
 26 27  1  0  0  0  0
 26 42  1  0  0  0  0
M  END
> <PUBCHEM_COMPOUND_CID>
242048

> <PUBCHEM_CONFORMER_RMSD>
0.6

> <PUBCHEM_CONFORMER_DIVERSEORDER>
1
12
9
6
3
4
15
11
10
5
16
14
2
13
7
8

> <PUBCHEM_MMFF94_PARTIAL_CHARGES>
41
1 -0.43
10 -0.15
11 -0.15
12 -0.15
14 -0.15
15 -0.15
16 -0.15
18 -0.15
19 -0.15
2 -0.57
20 -0.15
21 -0.15
22 -0.15
23 -0.15
24 -0.15
25 -0.15
26 -0.15
27 0.08
28 0.15
29 0.15
3 -0.53
30 0.15
31 0.15
32 0.15
33 0.15
34 0.15
35 0.15
36 0.15
37 0.15
38 0.15
39 0.15
4 0.71
40 0.15
41 0.15
42 0.15
43 0.45
5 -0.14
6 -0.14
7 -0.14
8 0.09
9 0.63

> <PUBCHEM_EFFECTIVE_ROTOR_COUNT>
2.4

> <PUBCHEM_PHARMACOPHORE_FEATURES>
7
1 2 acceptor
1 3 donor
5 1 4 5 8 9 rings
6 13 17 21 24 26 27 rings
6 5 8 11 16 19 20 rings
6 6 10 12 13 17 18 rings
6 7 14 15 22 23 25 rings

> <PUBCHEM_HEAVY_ATOM_COUNT>
27

> <PUBCHEM_ATOM_DEF_STEREO_COUNT>
0

> <PUBCHEM_ATOM_UDEF_STEREO_COUNT>
1

> <PUBCHEM_BOND_DEF_STEREO_COUNT>
0

> <PUBCHEM_BOND_UDEF_STEREO_COUNT>
0

> <PUBCHEM_ISOTOPIC_ATOM_COUNT>
0

> <PUBCHEM_COMPONENT_COUNT>
1

> <PUBCHEM_CACTVS_TAUTO_COUNT>
3

> <PUBCHEM_CONFORMER_ID>
0003B18000000001

> <PUBCHEM_MMFF94_ENERGY>
86.7933

> <PUBCHEM_FEATURE_SELFOVERLAP>
35.639

> <PUBCHEM_SHAPE_FINGERPRINT>
10554248 39 12107784126080007635
10764073 3 14855770373630140288
10930396 42 18262783118285757794
11578080 2 18053371103378280496
12160290 23 17620760921825563626
12633257 1 14852993174683604768
12788726 201 16745367735295430962
13149001 5 18045533900238323762
133893 2 18339094691401607266
13533116 47 18272089362658756459
13681431 1 18192160304347033402
13899415 180 17972869263906602050
14863182 85 18342165692029192506
15324115 91 18412829101043950787
15439362 3 18335711589266557180
1813 80 17982460295219572647
20567600 347 18058723736224389454
20600515 1 16339488601664951834
21304303 282 17765702908306374220
21421861 104 17988915626960118123
21756936 100 15796536978427110556
22149856 69 18339656637477634515
2255824 54 18411705344004477302
22907989 373 17256262951635262372
23419403 2 17909526386720141536
23559900 14 18334582300387839987
23598288 3 17612305656233427114
238 59 18336283274434488602
25222932 49 17129557276429692839
27425 322 17629747131337985769
3004659 81 17988077782441940799
312423 11 18058742303747467769
34797466 226 18040716979342415781
4340502 62 18340199782761736523
4409770 3 17548705531258683262
46194498 28 18114185207453076239
469060 322 17905899424373036563
474 4 18408886269215404881
5081480 168 18044107752178742893
5895379 119 14057549086745201583
70251023 43 18265341599310668635

> <PUBCHEM_SHAPE_MULTIPOLES>
538.04
9.15
4
2.07
18.24
3.88
0.22
-2.94
-1.31
-7.56
-1.29
-0.99
-0.95
-0.37

> <PUBCHEM_SHAPE_SELFOVERLAP>
1229.829

> <PUBCHEM_SHAPE_VOLUME>
279.9

> <PUBCHEM_COORDINATE_TYPE>
2
5
10

$$$$
