776110
  -OEChem-01171809573D

 42 44  0     0  0  0  0  0  0999 V2000
    3.7956    1.7841   -0.0880 O   0  0  0  0  0  0  0  0  0  0  0  0
    0.8910    1.8742   -0.1180 O   0  0  0  0  0  0  0  0  0  0  0  0
    5.9004   -0.0286    0.0566 O   0  0  0  0  0  0  0  0  0  0  0  0
   -6.4768   -1.4167    0.0571 O   0  0  0  0  0  0  0  0  0  0  0  0
   -0.0188   -0.3077    0.0286 N   0  0  0  0  0  0  0  0  0  0  0  0
   -5.5013    0.7248   -0.0881 N   0  0  0  0  0  0  0  0  0  0  0  0
    0.5368   -1.6595    0.1283 C   0  0  0  0  0  0  0  0  0  0  0  0
    2.0060   -1.4178    0.1226 C   0  0  0  0  0  0  0  0  0  0  0  0
    2.2711   -0.0562    0.0287 C   0  0  0  0  0  0  0  0  0  0  0  0
    0.9942    0.6632   -0.0319 C   0  0  0  0  0  0  0  0  0  0  0  0
   -1.3842   -0.0500   -0.0001 C   0  0  0  0  0  0  0  0  0  0  0  0
    3.5564    0.4518    0.0033 C   0  0  0  0  0  0  0  0  0  0  0  0
    3.0426   -2.3298    0.1955 C   0  0  0  0  0  0  0  0  0  0  0  0
    4.6079   -0.4631    0.0764 C   0  0  0  0  0  0  0  0  0  0  0  0
    4.3534   -1.8430    0.1718 C   0  0  0  0  0  0  0  0  0  0  0  0
   -1.8500    1.2640   -0.0963 C   0  0  0  0  0  0  0  0  0  0  0  0
   -2.2993   -1.1043    0.0664 C   0  0  0  0  0  0  0  0  0  0  0  0
   -3.2205    1.5220   -0.1256 C   0  0  0  0  0  0  0  0  0  0  0  0
   -3.6699   -0.8463    0.0370 C   0  0  0  0  0  0  0  0  0  0  0  0
   -4.1305    0.4669   -0.0591 C   0  0  0  0  0  0  0  0  0  0  0  0
    4.5275    2.3914    0.9782 C   0  0  0  0  0  0  0  0  0  0  0  0
    6.5238    0.0881   -1.2201 C   0  0  0  0  0  0  0  0  0  0  0  0
   -6.5563   -0.1958   -0.0322 C   0  0  0  0  0  0  0  0  0  0  0  0
   -7.8991    0.4882   -0.0909 C   0  0  0  0  0  0  0  0  0  0  0  0
    0.2352   -2.2497   -0.7428 H   0  0  0  0  0  0  0  0  0  0  0  0
    0.2211   -2.1217    1.0689 H   0  0  0  0  0  0  0  0  0  0  0  0
    2.8508   -3.3947    0.2695 H   0  0  0  0  0  0  0  0  0  0  0  0
    5.1822   -2.5446    0.2291 H   0  0  0  0  0  0  0  0  0  0  0  0
   -1.2219    2.1407   -0.1528 H   0  0  0  0  0  0  0  0  0  0  0  0
   -1.9830   -2.1407    0.1417 H   0  0  0  0  0  0  0  0  0  0  0  0
   -3.5670    2.5499   -0.2006 H   0  0  0  0  0  0  0  0  0  0  0  0
   -4.3127   -1.7137    0.0924 H   0  0  0  0  0  0  0  0  0  0  0  0
   -5.7569    1.7075   -0.1593 H   0  0  0  0  0  0  0  0  0  0  0  0
    4.1587    3.4143    1.0987 H   0  0  0  0  0  0  0  0  0  0  0  0
    5.5895    2.4412    0.7226 H   0  0  0  0  0  0  0  0  0  0  0  0
    4.3871    1.8622    1.9272 H   0  0  0  0  0  0  0  0  0  0  0  0
    6.5733   -0.8878   -1.7133 H   0  0  0  0  0  0  0  0  0  0  0  0
    7.5424    0.4568   -1.0715 H   0  0  0  0  0  0  0  0  0  0  0  0
    5.9826    0.8008   -1.8505 H   0  0  0  0  0  0  0  0  0  0  0  0
   -8.0133    1.1520    0.7707 H   0  0  0  0  0  0  0  0  0  0  0  0
   -8.6970   -0.2592   -0.0724 H   0  0  0  0  0  0  0  0  0  0  0  0
   -7.9796    1.0695   -1.0137 H   0  0  0  0  0  0  0  0  0  0  0  0
  1 12  1  0  0  0  0
  1 21  1  0  0  0  0
  2 10  2  0  0  0  0
  3 14  1  0  0  0  0
  3 22  1  0  0  0  0
  4 23  2  0  0  0  0
  5  7  1  0  0  0  0
  5 10  1  0  0  0  0
  5 11  1  0  0  0  0
  6 20  1  0  0  0  0
  6 23  1  0  0  0  0
  6 33  1  0  0  0  0
  7  8  1  0  0  0  0
  7 25  1  0  0  0  0
  7 26  1  0  0  0  0
  8  9  2  0  0  0  0
  8 13  1  0  0  0  0
  9 10  1  0  0  0  0
  9 12  1  0  0  0  0
 11 16  2  0  0  0  0
 11 17  1  0  0  0  0
 12 14  2  0  0  0  0
 13 15  2  0  0  0  0
 13 27  1  0  0  0  0
 14 15  1  0  0  0  0
 15 28  1  0  0  0  0
 16 18  1  0  0  0  0
 16 29  1  0  0  0  0
 17 19  2  0  0  0  0
 17 30  1  0  0  0  0
 18 20  2  0  0  0  0
 18 31  1  0  0  0  0
 19 20  1  0  0  0  0
 19 32  1  0  0  0  0
 21 34  1  0  0  0  0
 21 35  1  0  0  0  0
 21 36  1  0  0  0  0
 22 37  1  0  0  0  0
 22 38  1  0  0  0  0
 22 39  1  0  0  0  0
 23 24  1  0  0  0  0
 24 40  1  0  0  0  0
 24 41  1  0  0  0  0
 24 42  1  0  0  0  0
M  END
> <PUBCHEM_COMPOUND_CID>
776110

> <PUBCHEM_CONFORMER_RMSD>
0.8

> <PUBCHEM_CONFORMER_DIVERSEORDER>
2
3
4
5
6
1

> <PUBCHEM_MMFF94_PARTIAL_CHARGES>
31
1 -0.36
10 0.54
11 0.12
12 0.08
13 -0.15
14 0.08
15 -0.15
16 -0.15
17 -0.15
18 -0.15
19 -0.15
2 -0.57
20 0.12
21 0.28
22 0.28
23 0.57
24 0.06
27 0.15
28 0.15
29 0.15
3 -0.36
30 0.15
31 0.15
32 0.15
33 0.37
4 -0.57
5 -0.48
6 -0.55
7 0.44
8 -0.14
9 0.09

> <PUBCHEM_EFFECTIVE_ROTOR_COUNT>
5.4

> <PUBCHEM_PHARMACOPHORE_FEATURES>
8
1 1 acceptor
1 2 acceptor
1 3 acceptor
1 4 acceptor
1 6 donor
5 5 7 8 9 10 rings
6 11 16 17 18 19 20 rings
6 8 9 12 13 14 15 rings

> <PUBCHEM_HEAVY_ATOM_COUNT>
24

> <PUBCHEM_ATOM_DEF_STEREO_COUNT>
0

> <PUBCHEM_ATOM_UDEF_STEREO_COUNT>
0

> <PUBCHEM_BOND_DEF_STEREO_COUNT>
0

> <PUBCHEM_BOND_UDEF_STEREO_COUNT>
0

> <PUBCHEM_ISOTOPIC_ATOM_COUNT>
0

> <PUBCHEM_COMPONENT_COUNT>
1

> <PUBCHEM_CACTVS_TAUTO_COUNT>
2

> <PUBCHEM_CONFORMER_ID>
000BD7AE00000002

> <PUBCHEM_MMFF94_ENERGY>
101.4387

> <PUBCHEM_FEATURE_SELFOVERLAP>
40.69

> <PUBCHEM_SHAPE_FINGERPRINT>
10 15 18261104223326469880
10411042 1 18051130299213895530
10595046 47 18342173375999946019
10968037 39 18334577941248969119
11524674 6 16415477164948240711
11578080 2 16914796284135841594
12107183 9 17619913850915548139
12166972 35 18409169917472636117
12236239 1 18060420192555857891
12403259 415 18334284362289936796
12516196 113 18272086089086542577
12730499 353 18410295817764094114
12788726 201 17274829008882319737
13533116 47 17531236219453623882
14170010 4 18334012809083123693
14251764 18 18409449167623917955
14251764 46 17275386494999218190
14341114 176 18409733967496081387
14461889 52 18263640821983618875
14617045 38 18409452474759519230
14933364 13 18409449172657389389
15183329 4 18412545388668840969
15196674 1 18409728418282368297
17834072 33 18413666911698183623
17844677 252 18339929221080711905
18335252 98 18187654613324122507
200 152 18272929402131587883
20645477 70 18340205189598275214
21236236 1 18340205177678711297
21267235 1 18411986827554960423
21792934 111 18340192004475834329
221357 26 18343585118712537848
23522609 53 18195276375650175872
23559900 14 18409445924913144553
239999 70 18273500061662322414
255183 451 17914061889587030110
29717793 49 17489593363539678548
3004659 81 18334011679195196216
335352 9 18410578388595632438
34797466 226 17489591173328098364
350125 39 18410292489127477269
3545911 37 18407760339338645789
4073 2 18041564749303394859
4093350 32 17060622218078836812
4214541 1 18337953381257653409
4325135 7 18408324380155900711
4340502 62 17385720300898298603
4463277 17 18410573973142255545
5104073 3 18336828602653611673
59755656 215 18407763629373570686
59755656 520 17095519621817381259

> <PUBCHEM_SHAPE_MULTIPOLES>
460.47
17.63
2.07
0.71
19.98
0.12
0.04
0.8
1.53
-2.03
-0.32
-0.63
0.1
0.33

> <PUBCHEM_SHAPE_SELFOVERLAP>
1003.04

> <PUBCHEM_SHAPE_VOLUME>
252.3

> <PUBCHEM_COORDINATE_TYPE>
2
5
10

$$$$
