2056741
  -OEChem-01171809193D

 44 46  0     0  0  0  0  0  0999 V2000
   -3.6999   -0.3576    0.2045 S   0  0  0  0  0  0  0  0  0  0  0  0
    4.5356    0.0387   -0.4793 O   0  0  0  0  0  0  0  0  0  0  0  0
   -2.4424    1.9272   -2.0790 O   0  0  0  0  0  0  0  0  0  0  0  0
    1.2783    1.7641   -0.1511 N   0  0  0  0  0  0  0  0  0  0  0  0
   -1.3669   -1.7981    0.1845 N   0  0  0  0  0  0  0  0  0  0  0  0
   -1.6320   -0.5234    1.9508 N   0  0  0  0  0  0  0  0  0  0  0  0
   -0.4248   -1.1816    2.0789 N   0  0  0  0  0  0  0  0  0  0  0  0
    0.2273    1.5506   -1.0042 C   0  0  0  0  0  0  0  0  0  0  0  0
    0.8054    2.1950    1.0610 C   0  0  0  0  0  0  0  0  0  0  0  0
   -0.8958    1.8518   -0.3105 C   0  0  0  0  0  0  0  0  0  0  0  0
    2.6746    1.5669   -0.4798 C   0  0  0  0  0  0  0  0  0  0  0  0
   -0.5682    2.2566    0.9804 C   0  0  0  0  0  0  0  0  0  0  0  0
    0.4298    1.0792   -2.3917 C   0  0  0  0  0  0  0  0  0  0  0  0
    3.1525    0.1543   -0.1713 C   0  0  0  0  0  0  0  0  0  0  0  0
   -2.2566    1.7526   -0.8745 C   0  0  0  0  0  0  0  0  0  0  0  0
    1.7023    2.5116    2.1919 C   0  0  0  0  0  0  0  0  0  0  0  0
   -3.4094    1.4299    0.0666 C   0  0  0  0  0  0  0  0  0  0  0  0
   -2.1795   -0.9018    0.8174 C   0  0  0  0  0  0  0  0  0  0  0  0
   -0.2692   -1.9446    1.0180 C   0  0  0  0  0  0  0  0  0  0  0  0
   -1.5170   -2.4673   -1.0234 C   0  0  0  0  0  0  0  0  0  0  0  0
    5.0259   -1.2645   -0.1949 C   0  0  0  0  0  0  0  0  0  0  0  0
    0.7557   -2.8373    0.5978 C   0  0  0  0  0  0  0  0  0  0  0  0
   -0.5481   -3.3096   -1.4198 C   0  0  0  0  0  0  0  0  0  0  0  0
    0.6223   -3.4926   -0.5724 C   0  0  0  0  0  0  0  0  0  0  0  0
    3.2752    2.3020    0.0676 H   0  0  0  0  0  0  0  0  0  0  0  0
    2.8317    1.8099   -1.5368 H   0  0  0  0  0  0  0  0  0  0  0  0
   -1.2234    2.5704    1.7807 H   0  0  0  0  0  0  0  0  0  0  0  0
    0.6418    1.9246   -3.0540 H   0  0  0  0  0  0  0  0  0  0  0  0
    1.2517    0.3624   -2.4738 H   0  0  0  0  0  0  0  0  0  0  0  0
   -0.4553    0.5621   -2.7746 H   0  0  0  0  0  0  0  0  0  0  0  0
    2.5878   -0.5759   -0.7622 H   0  0  0  0  0  0  0  0  0  0  0  0
    2.9961   -0.0779    0.8888 H   0  0  0  0  0  0  0  0  0  0  0  0
    2.3364    3.3732    1.9603 H   0  0  0  0  0  0  0  0  0  0  0  0
    2.3414    1.6607    2.4461 H   0  0  0  0  0  0  0  0  0  0  0  0
    1.1231    2.7624    3.0872 H   0  0  0  0  0  0  0  0  0  0  0  0
   -3.2607    1.8690    1.0558 H   0  0  0  0  0  0  0  0  0  0  0  0
   -4.3137    1.8924   -0.3438 H   0  0  0  0  0  0  0  0  0  0  0  0
   -2.4064   -2.2940   -1.6157 H   0  0  0  0  0  0  0  0  0  0  0  0
    4.4983   -2.0124   -0.7948 H   0  0  0  0  0  0  0  0  0  0  0  0
    6.0879   -1.2966   -0.4523 H   0  0  0  0  0  0  0  0  0  0  0  0
    4.9177   -1.4912    0.8702 H   0  0  0  0  0  0  0  0  0  0  0  0
    1.6319   -2.9777    1.2204 H   0  0  0  0  0  0  0  0  0  0  0  0
   -0.6110   -3.8567   -2.3524 H   0  0  0  0  0  0  0  0  0  0  0  0
    1.3907   -4.1766   -0.9159 H   0  0  0  0  0  0  0  0  0  0  0  0
  1 17  1  0  0  0  0
  1 18  1  0  0  0  0
  2 14  1  0  0  0  0
  2 21  1  0  0  0  0
  3 15  2  0  0  0  0
  4  8  1  0  0  0  0
  4  9  1  0  0  0  0
  4 11  1  0  0  0  0
  5 18  1  0  0  0  0
  5 19  1  0  0  0  0
  5 20  1  0  0  0  0
  6  7  1  0  0  0  0
  6 18  2  0  0  0  0
  7 19  2  0  0  0  0
  8 10  2  0  0  0  0
  8 13  1  0  0  0  0
  9 12  2  0  0  0  0
  9 16  1  0  0  0  0
 10 12  1  0  0  0  0
 10 15  1  0  0  0  0
 11 14  1  0  0  0  0
 11 25  1  0  0  0  0
 11 26  1  0  0  0  0
 12 27  1  0  0  0  0
 13 28  1  0  0  0  0
 13 29  1  0  0  0  0
 13 30  1  0  0  0  0
 14 31  1  0  0  0  0
 14 32  1  0  0  0  0
 15 17  1  0  0  0  0
 16 33  1  0  0  0  0
 16 34  1  0  0  0  0
 16 35  1  0  0  0  0
 17 36  1  0  0  0  0
 17 37  1  0  0  0  0
 19 22  1  0  0  0  0
 20 23  2  0  0  0  0
 20 38  1  0  0  0  0
 21 39  1  0  0  0  0
 21 40  1  0  0  0  0
 21 41  1  0  0  0  0
 22 24  2  0  0  0  0
 22 42  1  0  0  0  0
 23 24  1  0  0  0  0
 23 43  1  0  0  0  0
 24 44  1  0  0  0  0
M  END
> <PUBCHEM_COMPOUND_CID>
2056741

> <PUBCHEM_CONFORMER_RMSD>
1

> <PUBCHEM_CONFORMER_DIVERSEORDER>
4
79
164
11
256
363
221
298
102
18
109
72
326
94
346
284
248
115
1
180
9
98
272
85
247
335
96
317
325
194
45
183
149
176
288
122
246
358
165
36
167
48
144
200
225
255
199
49
14
262
142
273
34
285
318
349
158
258
78
148
308
215
71
324
219
353
214
32
355
2
3
307
138
227
306
212
315
226
316
152
100
291
57
352
311
313
73
281
13
110
108
340
19
28
27
70
155
163
297
234
365
97
237
41
25
104
228
140
292
46
58
242
76
344
87
23
20
195
126
60
207
141
134
16
161
63
118
279
95
189
56
333
130
264
197
329
29
239
7
205
121
274
276
131
39
124
193
301
35
169
198
74
217
68
12
369
229
127
231
64
170
351
275
6
184
270
211
345
300
366
320
65
268
208
361
250
37
112
249
269
213
253
154
362
172
69
244
260
204
259
236
143
330
310
17
289
322
123
290
93
33
31
209
53
293
139
230
368
50
101
190
357
21
113
107
160
309
287
350
282
129
77
8
173
267
55
62
252
174
120
186
283
44
92
278
182
342
343
235
245
162
156
15
90
181
356
75
223
331
280
265
286
341
24
263
10
321
40
61
145
81
240
266
150
233
89
114
52
119
159
38
106
328
157
299
314
347
5
305
254
171
177
332
206
327
125
80
339
261
179
338
304
216
175
88
128
91
66
359
136
51
84
99
312
295
354
277
238
336
67
319
59
364
210
191
82
367
43
271
201
133
196
132
116
360
147
22
26
251
146
30
302
166
218
83
222
224
243
303
111
370
220
117
337
257
185
334
47
178
168
86
294
105
232
192
42
202
135
241
348
137
54
187
296
151
103
203
188
153
323

> <PUBCHEM_MMFF94_PARTIAL_CHARGES>
29
1 -0.29
10 -0.09
11 0.26
12 -0.15
13 0.18
14 0.28
15 0.6
16 0.18
17 0.29
18 0.24
19 0.14
2 -0.56
20 -0.18
21 0.28
22 -0.11
23 -0.15
24 -0.15
27 0.15
3 -0.57
38 0.15
4 0.05
42 0.15
43 0.15
44 0.15
5 0.33
6 -0.34
7 -0.34
8 -0.33
9 -0.33

> <PUBCHEM_EFFECTIVE_ROTOR_COUNT>
7

> <PUBCHEM_PHARMACOPHORE_FEATURES>
8
1 2 acceptor
1 3 acceptor
1 4 cation
3 5 6 18 cation
3 5 7 19 cation
5 4 8 9 10 12 rings
5 5 6 7 18 19 rings
6 5 19 20 22 23 24 rings

> <PUBCHEM_HEAVY_ATOM_COUNT>
24

> <PUBCHEM_ATOM_DEF_STEREO_COUNT>
0

> <PUBCHEM_ATOM_UDEF_STEREO_COUNT>
0

> <PUBCHEM_BOND_DEF_STEREO_COUNT>
0

> <PUBCHEM_BOND_UDEF_STEREO_COUNT>
0

> <PUBCHEM_ISOTOPIC_ATOM_COUNT>
0

> <PUBCHEM_COMPONENT_COUNT>
1

> <PUBCHEM_CACTVS_TAUTO_COUNT>
2

> <PUBCHEM_CONFORMER_ID>
001F622500000004

> <PUBCHEM_MMFF94_ENERGY>
44.3627

> <PUBCHEM_FEATURE_SELFOVERLAP>
43.177

> <PUBCHEM_SHAPE_FINGERPRINT>
10498660 4 14950690842978039548
107951 10 17458632168094291402
11578080 2 17771628137545306480
12156800 1 17550048915108183806
12422481 6 18117867458861916337
12633257 1 17701844247622117696
12715332 25 18413109467597352172
128993 33 9289175089152710779
14251751 93 18040709243009310364
17492 54 18117259381481419807
19591789 44 18411417345183102695
19930381 70 18055639408387196534
20905425 154 18189054205431185159
23419403 2 15951820584030351197
23559900 14 18411981369612025896
238 59 17829290697935096869
469060 322 14651577939117093735
5265222 85 18263945348398122604
5845 1 11839920801412769973
59755656 215 18188486879344121413
6287921 2 16904954168971670490
81228 2 17758381251729420305

> <PUBCHEM_SHAPE_MULTIPOLES>
466.1
5.56
4.27
1.91
5.32
2.68
0.01
-0.22
0.59
0.07
0.2
-0.32
-0.6
0.72

> <PUBCHEM_SHAPE_SELFOVERLAP>
982.236

> <PUBCHEM_SHAPE_VOLUME>
266.8

> <PUBCHEM_COORDINATE_TYPE>
2
5
10

$$$$
