328054
  -OEChem-01171810183D

 33 36  0     0  0  0  0  0  0999 V2000
    3.3665   -2.8512    0.0022 O   0  0  0  0  0  0  0  0  0  0  0  0
   -1.8261    1.3558   -0.0019 N   0  0  0  0  0  0  0  0  0  0  0  0
    0.4326    0.7703   -0.0031 N   0  0  0  0  0  0  0  0  0  0  0  0
   -1.3813   -0.8219   -0.0036 N   0  0  0  0  0  0  0  0  0  0  0  0
    1.5916   -1.3209   -0.0010 N   0  0  0  0  0  0  0  0  0  0  0  0
   -3.0477    0.7327   -0.0006 C   0  0  0  0  0  0  0  0  0  0  0  0
   -2.7432   -0.6258   -0.0017 C   0  0  0  0  0  0  0  0  0  0  0  0
    2.8935    0.5593   -0.0010 C   0  0  0  0  0  0  0  0  0  0  0  0
   -0.9091    0.3720   -0.0035 C   0  0  0  0  0  0  0  0  0  0  0  0
    1.5493   -0.0147   -0.0021 C   0  0  0  0  0  0  0  0  0  0  0  0
    3.7578   -0.5189    0.0005 C   0  0  0  0  0  0  0  0  0  0  0  0
   -4.3531    1.2256    0.0014 C   0  0  0  0  0  0  0  0  0  0  0  0
   -5.3832    0.2794    0.0024 C   0  0  0  0  0  0  0  0  0  0  0  0
   -3.7907   -1.5624   -0.0010 C   0  0  0  0  0  0  0  0  0  0  0  0
   -5.1091   -1.0902    0.0010 C   0  0  0  0  0  0  0  0  0  0  0  0
    3.3510    1.8599   -0.0009 C   0  0  0  0  0  0  0  0  0  0  0  0
    2.9222   -1.7156    0.0004 C   0  0  0  0  0  0  0  0  0  0  0  0
    5.1276   -0.3660    0.0031 C   0  0  0  0  0  0  0  0  0  0  0  0
    4.7371    2.0452    0.0011 C   0  0  0  0  0  0  0  0  0  0  0  0
   -6.8026    0.7443    0.0051 C   0  0  0  0  0  0  0  0  0  0  0  0
    5.6169    0.9428    0.0032 C   0  0  0  0  0  0  0  0  0  0  0  0
   -1.6593    2.3537   -0.0013 H   0  0  0  0  0  0  0  0  0  0  0  0
    0.5947    1.7761   -0.0029 H   0  0  0  0  0  0  0  0  0  0  0  0
   -4.5516    2.2920    0.0042 H   0  0  0  0  0  0  0  0  0  0  0  0
   -3.5881   -2.6286   -0.0014 H   0  0  0  0  0  0  0  0  0  0  0  0
   -5.9229   -1.8121    0.0037 H   0  0  0  0  0  0  0  0  0  0  0  0
    2.6802    2.7104   -0.0022 H   0  0  0  0  0  0  0  0  0  0  0  0
    5.8009   -1.2148    0.0048 H   0  0  0  0  0  0  0  0  0  0  0  0
    5.1450    3.0528    0.0013 H   0  0  0  0  0  0  0  0  0  0  0  0
   -7.1816    0.7863    1.0310 H   0  0  0  0  0  0  0  0  0  0  0  0
   -6.8965    1.7395   -0.4428 H   0  0  0  0  0  0  0  0  0  0  0  0
   -7.4378    0.0695   -0.5789 H   0  0  0  0  0  0  0  0  0  0  0  0
    6.6899    1.1165    0.0050 H   0  0  0  0  0  0  0  0  0  0  0  0
  1 17  2  0  0  0  0
  2  6  1  0  0  0  0
  2  9  1  0  0  0  0
  2 22  1  0  0  0  0
  3  9  1  0  0  0  0
  3 10  1  0  0  0  0
  3 23  1  0  0  0  0
  4  7  1  0  0  0  0
  4  9  2  0  0  0  0
  5 10  2  0  0  0  0
  5 17  1  0  0  0  0
  6  7  2  0  0  0  0
  6 12  1  0  0  0  0
  7 14  1  0  0  0  0
  8 10  1  0  0  0  0
  8 11  1  0  0  0  0
  8 16  2  0  0  0  0
 11 17  1  0  0  0  0
 11 18  2  0  0  0  0
 12 13  2  0  0  0  0
 12 24  1  0  0  0  0
 13 15  1  0  0  0  0
 13 20  1  0  0  0  0
 14 15  2  0  0  0  0
 14 25  1  0  0  0  0
 15 26  1  0  0  0  0
 16 19  1  0  0  0  0
 16 27  1  0  0  0  0
 18 21  1  0  0  0  0
 18 28  1  0  0  0  0
 19 21  2  0  0  0  0
 19 29  1  0  0  0  0
 20 30  1  0  0  0  0
 20 31  1  0  0  0  0
 20 32  1  0  0  0  0
 21 33  1  0  0  0  0
M  END
> <PUBCHEM_COMPOUND_CID>
328054

> <PUBCHEM_CONFORMER_RMSD>
0.6

> <PUBCHEM_CONFORMER_DIVERSEORDER>
1
12
9
8
11
16
17
7
2
18
10
15
13
6
14
5
4
3

> <PUBCHEM_MMFF94_PARTIAL_CHARGES>
30
1 -0.57
10 0.41
11 0.09
12 -0.15
13 -0.14
14 -0.15
15 -0.15
16 -0.15
17 0.69
18 -0.15
19 -0.15
2 0.03
20 0.14
21 -0.15
22 0.27
23 0.4
24 0.15
25 0.15
26 0.15
27 0.15
28 0.15
29 0.15
3 -0.53
33 0.15
4 -0.57
5 -0.66
6 -0.15
7 0.23
8 0.09
9 0.27

> <PUBCHEM_EFFECTIVE_ROTOR_COUNT>
2

> <PUBCHEM_PHARMACOPHORE_FEATURES>
9
1 1 acceptor
1 2 donor
1 3 donor
1 5 donor
4 2 3 4 9 cation
5 2 4 6 7 9 rings
5 5 8 10 11 17 rings
6 6 7 12 13 14 15 rings
6 8 11 16 18 19 21 rings

> <PUBCHEM_HEAVY_ATOM_COUNT>
21

> <PUBCHEM_ATOM_DEF_STEREO_COUNT>
0

> <PUBCHEM_ATOM_UDEF_STEREO_COUNT>
0

> <PUBCHEM_BOND_DEF_STEREO_COUNT>
0

> <PUBCHEM_BOND_UDEF_STEREO_COUNT>
0

> <PUBCHEM_ISOTOPIC_ATOM_COUNT>
0

> <PUBCHEM_COMPONENT_COUNT>
1

> <PUBCHEM_CACTVS_TAUTO_COUNT>
7

> <PUBCHEM_CONFORMER_ID>
0005017600000001

> <PUBCHEM_MMFF94_ENERGY>
52.7641

> <PUBCHEM_FEATURE_SELFOVERLAP>
45.948

> <PUBCHEM_SHAPE_FINGERPRINT>
10411042 1 17978228258823857066
10595046 47 18413388752451958705
10835480 77 18408597063788724189
11315181 36 18060705013306999537
11719270 70 18412820271135041954
12107183 9 17692819189888137537
12236239 1 18060419122745010765
12516196 113 18060416932739289201
12730499 353 18408612469741086218
12788726 201 17274548628974635009
13073987 5 18411422778807245377
13167823 11 18413106147798849871
13533116 47 18272367529819604875
14251764 18 18202568397986086275
14341114 176 18411987944225169989
14528608 73 18340488958255911316
15196674 1 18410575089248462883
15250474 111 18270665546034493103
15961568 22 17458348589138157020
17834072 33 18413669131911231181
17844677 252 18339649931973322989
1813 80 16950005811689409493
18335252 98 18336270137147538011
18681886 176 18341328998583720224
19427546 62 18263084465200349122
200 152 18202001040568148113
20645477 70 18342740672254867622
21065198 48 18272375217684392857
21267235 1 18412270506292888654
23402539 116 18334289898744893581
23557571 272 17458059339674034429
23559900 14 18339918320337735329
239999 70 18273221880994203654
245318 6 17027421519348654844
29717793 49 17775571918418751340
300161 21 18335697248022140773
3004659 81 18335702711231246770
335352 9 18411140234710823198
33824 294 18408039607230005338
34797466 226 17846225478725639229
3545911 37 18409167709785034325
4073 2 18113624524762657531
4214541 1 18410855434722712165
42630746 31 18413389830905449046
4325135 7 18411136952311232597
4340502 62 17530684311892729778
4463277 17 18410575085343781801
474 4 18041283270073836444
5104073 3 18408325458466882195
5283173 99 18115297883177343405
542803 24 17603304872958264340
59755656 215 18409172095642885070
67856867 119 18189338042350278453
77779 3 18411138017674014395
8272917 22 18341615889150259238
9709674 26 18408328782518919626

> <PUBCHEM_SHAPE_MULTIPOLES>
406.38
15.35
2.04
0.6
8.8
0.64
0
-2.8
0.02
-1.83
0
0.01
-0.01
0

> <PUBCHEM_SHAPE_SELFOVERLAP>
924.775

> <PUBCHEM_SHAPE_VOLUME>
215.3

> <PUBCHEM_COORDINATE_TYPE>
2
5
10

$$$$
