53382992
  -OEChem-01171810213D

 62 65  0     1  0  0  0  0  0999 V2000
    1.3184    1.5948   -2.5454 S   0  0  0  0  0  0  0  0  0  0  0  0
   -0.2726   -1.0729    2.4134 O   0  0  0  0  0  0  0  0  0  0  0  0
    3.9884    0.2948   -1.7400 O   0  0  0  0  0  0  0  0  0  0  0  0
   -0.9216    1.6672    0.3790 N   0  0  0  0  0  0  0  0  0  0  0  0
   -1.7190    2.7441   -1.3944 N   0  0  0  0  0  0  0  0  0  0  0  0
    0.1665   -1.0134    0.1368 N   0  0  0  0  0  0  0  0  0  0  0  0
    0.0850    1.0846    1.3565 C   0  0  1  0  0  0  0  0  0  0  0  0
   -0.0577    1.6680    2.7771 C   0  0  0  0  0  0  0  0  0  0  0  0
   -2.2863    1.5780    0.4796 C   0  0  0  0  0  0  0  0  0  0  0  0
   -0.6320    2.3723   -0.7560 C   0  0  0  0  0  0  0  0  0  0  0  0
   -2.7609    2.2577   -0.6387 C   0  0  0  0  0  0  0  0  0  0  0  0
   -0.0258   -0.4424    1.3872 C   0  0  0  0  0  0  0  0  0  0  0  0
    0.7567    2.6567   -1.1727 C   0  0  0  0  0  0  0  0  0  0  0  0
    0.1464    3.1771    2.8247 C   0  0  0  0  0  0  0  0  0  0  0  0
   -3.1206    0.9793    1.4242 C   0  0  0  0  0  0  0  0  0  0  0  0
   -4.1477    2.3557   -0.8429 C   0  0  0  0  0  0  0  0  0  0  0  0
   -4.4980    1.0867    1.2053 C   0  0  0  0  0  0  0  0  0  0  0  0
    0.0918   -2.4391   -0.0766 C   0  0  0  0  0  0  0  0  0  0  0  0
   -5.0046    1.7622    0.0926 C   0  0  0  0  0  0  0  0  0  0  0  0
   -1.3006   -2.8836   -0.4196 C   0  0  0  0  0  0  0  0  0  0  0  0
    2.9887    2.2611   -2.7148 C   0  0  0  0  0  0  0  0  0  0  0  0
    3.9170    1.7113   -1.6434 C   0  0  0  0  0  0  0  0  0  0  0  0
   -2.1845   -3.2534    0.5940 C   0  0  0  0  0  0  0  0  0  0  0  0
   -1.7101   -2.9269   -1.7522 C   0  0  0  0  0  0  0  0  0  0  0  0
   -3.4782   -3.6666    0.2750 C   0  0  0  0  0  0  0  0  0  0  0  0
   -3.0036   -3.3401   -2.0713 C   0  0  0  0  0  0  0  0  0  0  0  0
   -3.8876   -3.7099   -1.0577 C   0  0  0  0  0  0  0  0  0  0  0  0
    4.2876   -0.3885   -0.5902 C   0  0  0  0  0  0  0  0  0  0  0  0
    5.0849    0.2067    0.3874 C   0  0  0  0  0  0  0  0  0  0  0  0
    3.7947   -1.6789   -0.3976 C   0  0  0  0  0  0  0  0  0  0  0  0
    5.3895   -0.4887    1.5577 C   0  0  0  0  0  0  0  0  0  0  0  0
    4.0992   -2.3745    0.7726 C   0  0  0  0  0  0  0  0  0  0  0  0
    4.8966   -1.7793    1.7502 C   0  0  0  0  0  0  0  0  0  0  0  0
    1.0862    1.3062    0.9848 H   0  0  0  0  0  0  0  0  0  0  0  0
    0.6957    1.2028    3.4262 H   0  0  0  0  0  0  0  0  0  0  0  0
   -1.0258    1.4280    3.2256 H   0  0  0  0  0  0  0  0  0  0  0  0
    1.4731    2.6520   -0.3531 H   0  0  0  0  0  0  0  0  0  0  0  0
    0.7708    3.6850   -1.5557 H   0  0  0  0  0  0  0  0  0  0  0  0
    1.1148    3.4549    2.3966 H   0  0  0  0  0  0  0  0  0  0  0  0
    0.1222    3.5267    3.8618 H   0  0  0  0  0  0  0  0  0  0  0  0
   -0.6390    3.7061    2.2767 H   0  0  0  0  0  0  0  0  0  0  0  0
   -2.7446    0.4347    2.2810 H   0  0  0  0  0  0  0  0  0  0  0  0
    0.3711   -0.4221   -0.6633 H   0  0  0  0  0  0  0  0  0  0  0  0
   -4.5511    2.8781   -1.7045 H   0  0  0  0  0  0  0  0  0  0  0  0
   -5.1866    0.6308    1.9125 H   0  0  0  0  0  0  0  0  0  0  0  0
    0.4539   -2.9654    0.8145 H   0  0  0  0  0  0  0  0  0  0  0  0
    0.7790   -2.6869   -0.8927 H   0  0  0  0  0  0  0  0  0  0  0  0
   -6.0800    1.8277   -0.0512 H   0  0  0  0  0  0  0  0  0  0  0  0
    2.9686    3.3552   -2.6990 H   0  0  0  0  0  0  0  0  0  0  0  0
    3.3518    1.9501   -3.7002 H   0  0  0  0  0  0  0  0  0  0  0  0
    4.9204    2.1214   -1.8101 H   0  0  0  0  0  0  0  0  0  0  0  0
    3.5719    2.0425   -0.6567 H   0  0  0  0  0  0  0  0  0  0  0  0
   -1.8789   -3.2280    1.6362 H   0  0  0  0  0  0  0  0  0  0  0  0
   -1.0316   -2.6388   -2.5508 H   0  0  0  0  0  0  0  0  0  0  0  0
   -4.1664   -3.9547    1.0642 H   0  0  0  0  0  0  0  0  0  0  0  0
   -3.3228   -3.3730   -3.1089 H   0  0  0  0  0  0  0  0  0  0  0  0
   -4.8949   -4.0313   -1.3061 H   0  0  0  0  0  0  0  0  0  0  0  0
    5.5115    1.1978    0.2657 H   0  0  0  0  0  0  0  0  0  0  0  0
    3.1785   -2.1484   -1.1589 H   0  0  0  0  0  0  0  0  0  0  0  0
    6.0154   -0.0282    2.3165 H   0  0  0  0  0  0  0  0  0  0  0  0
    3.7155   -3.3794    0.9220 H   0  0  0  0  0  0  0  0  0  0  0  0
    5.1346   -2.3213    2.6607 H   0  0  0  0  0  0  0  0  0  0  0  0
  1 13  1  0  0  0  0
  1 21  1  0  0  0  0
  2 12  2  0  0  0  0
  3 22  1  0  0  0  0
  3 28  1  0  0  0  0
  4  7  1  0  0  0  0
  4  9  1  0  0  0  0
  4 10  1  0  0  0  0
  5 10  2  0  0  0  0
  5 11  1  0  0  0  0
  6 12  1  0  0  0  0
  6 18  1  0  0  0  0
  6 43  1  0  0  0  0
  7  8  1  0  0  0  0
  7 12  1  0  0  0  0
  7 34  1  0  0  0  0
  8 14  1  0  0  0  0
  8 35  1  0  0  0  0
  8 36  1  0  0  0  0
  9 11  1  0  0  0  0
  9 15  2  0  0  0  0
 10 13  1  0  0  0  0
 11 16  2  0  0  0  0
 13 37  1  0  0  0  0
 13 38  1  0  0  0  0
 14 39  1  0  0  0  0
 14 40  1  0  0  0  0
 14 41  1  0  0  0  0
 15 17  1  0  0  0  0
 15 42  1  0  0  0  0
 16 19  1  0  0  0  0
 16 44  1  0  0  0  0
 17 19  2  0  0  0  0
 17 45  1  0  0  0  0
 18 20  1  0  0  0  0
 18 46  1  0  0  0  0
 18 47  1  0  0  0  0
 19 48  1  0  0  0  0
 20 23  2  0  0  0  0
 20 24  1  0  0  0  0
 21 22  1  0  0  0  0
 21 49  1  0  0  0  0
 21 50  1  0  0  0  0
 22 51  1  0  0  0  0
 22 52  1  0  0  0  0
 23 25  1  0  0  0  0
 23 53  1  0  0  0  0
 24 26  2  0  0  0  0
 24 54  1  0  0  0  0
 25 27  2  0  0  0  0
 25 55  1  0  0  0  0
 26 27  1  0  0  0  0
 26 56  1  0  0  0  0
 27 57  1  0  0  0  0
 28 29  2  0  0  0  0
 28 30  1  0  0  0  0
 29 31  1  0  0  0  0
 29 58  1  0  0  0  0
 30 32  2  0  0  0  0
 30 59  1  0  0  0  0
 31 33  2  0  0  0  0
 31 60  1  0  0  0  0
 32 33  1  0  0  0  0
 32 61  1  0  0  0  0
 33 62  1  0  0  0  0
M  END
> <PUBCHEM_COMPOUND_CID>
53382992

> <PUBCHEM_CONFORMER_RMSD>
1.2

> <PUBCHEM_CONFORMER_DIVERSEORDER>
1
232
206
108
24
102
40
4
291
66
86
115
253
215
113
247
88
47
266
55
145
208
287
241
19
219
121
69
32
299
230
245
3
166
263
191
201
212
110
74
269
5
140
274
118
130
246
228
150
162
190
112
160
65
273
142
72
76
107
207
57
294
202
197
132
283
244
286
181
175
255
125
101
134
211
138
218
249
58
173
236
156
87
155
77
149
192
297
180
11
189
117
163
97
20
172
296
262
116
171
105
239
63
158
282
198
36
131
275
220
303
128
6
227
300
174
281
200
71
224
29
271
46
217
98
34
119
248
51
261
50
61
27
264
85
92
25
251
257
10
161
64
147
133
7
265
41
9
169
114
199
153
96
100
221
154
90
159
238
184
106
225
164
91
45
288
187
82
188
44
137
268
258
256
70
277
33
292
83
235
254
242
177
94
60
68
280
111
81
148
209
176
31
78
183
178
120
73
243
136
270
229
62
278
279
28
30
193
56
304
205
59
139
12
54
35
170
237
93
186
26
276
295
203
18
104
284
289
23
38
15
298
75
52
124
222
49
223
168
109
259
95
194
210
21
302
13
301
48
250
214
234
290
80
231
152
182
179
14
240
151
42
260
2
195
84
272
122
123
157
146
135
252
167
165
293
226
127
204
196
99
185
213
53
267
103
89
129
17
285
141
43
126
79
233
22
143
16
37
8
144
216
39
67

> <PUBCHEM_MMFF94_PARTIAL_CHARGES>
46
1 -0.46
10 0.01
11 0.23
12 0.57
13 0.41
15 -0.15
16 -0.15
17 -0.15
18 0.44
19 -0.15
2 -0.57
20 -0.14
21 0.23
22 0.28
23 -0.15
24 -0.15
25 -0.15
26 -0.15
27 -0.15
28 0.08
29 -0.15
3 -0.36
30 -0.15
31 -0.15
32 -0.15
33 -0.15
4 0.05
42 0.15
43 0.37
44 0.15
45 0.15
48 0.15
5 -0.57
53 0.15
54 0.15
55 0.15
56 0.15
57 0.15
58 0.15
59 0.15
6 -0.73
60 0.15
61 0.15
62 0.15
7 0.32
9 -0.15

> <PUBCHEM_EFFECTIVE_ROTOR_COUNT>
12

> <PUBCHEM_PHARMACOPHORE_FEATURES>
9
1 14 hydrophobe
1 2 acceptor
1 3 acceptor
1 6 donor
3 4 5 10 cation
5 4 5 9 10 11 rings
6 20 23 24 25 26 27 rings
6 28 29 30 31 32 33 rings
6 9 11 15 16 17 19 rings

> <PUBCHEM_HEAVY_ATOM_COUNT>
33

> <PUBCHEM_ATOM_DEF_STEREO_COUNT>
0

> <PUBCHEM_ATOM_UDEF_STEREO_COUNT>
1

> <PUBCHEM_BOND_DEF_STEREO_COUNT>
0

> <PUBCHEM_BOND_UDEF_STEREO_COUNT>
0

> <PUBCHEM_ISOTOPIC_ATOM_COUNT>
0

> <PUBCHEM_COMPONENT_COUNT>
1

> <PUBCHEM_CACTVS_TAUTO_COUNT>
2

> <PUBCHEM_CONFORMER_ID>
032E8F5000000001

> <PUBCHEM_MMFF94_ENERGY>
74.0082

> <PUBCHEM_FEATURE_SELFOVERLAP>
45.778

> <PUBCHEM_SHAPE_FINGERPRINT>
10032420 55 17337327719317428384
10675989 125 17471862870890123941
11578080 2 18058453282160485504
12058002 1 16486991595356099753
12156800 1 18268976743170000717
12422481 6 17972065572778660937
12788726 201 18195819680633714662
20771845 140 18127990632897676497
2132832 1 18189043343801863062
23419403 2 17057821868999665041
38695281 34 18191870024756340957
4066623 53 17983273105691680015
5171179 24 17700670007906124035
563151 97 17681848628477206748
6287921 2 17550971194815115911
6438754 60 17903642121957126446

> <PUBCHEM_SHAPE_MULTIPOLES>
656.29
10.04
5.3
2.73
7.7
3.34
-0.17
2.57
-0.23
-5.5
1.26
1.39
-1.54
-2.88

> <PUBCHEM_SHAPE_SELFOVERLAP>
1386.993

> <PUBCHEM_SHAPE_VOLUME>
369.3

> <PUBCHEM_COORDINATE_TYPE>
2
5
10

$$$$
