661535
  -OEChem-01171809163D

 65 70  0     0  0  0  0  0  0999 V2000
    1.4346    0.9069   -0.7101 N   0  0  0  0  0  0  0  0  0  0  0  0
   -2.2396    1.0003    0.8451 N   0  0  0  0  0  0  0  0  0  0  0  0
   -0.5073    2.2520   -0.3055 N   0  0  0  0  0  0  0  0  0  0  0  0
   -1.9351   -1.3664    1.4192 N   0  0  0  0  0  0  0  0  0  0  0  0
   -7.0572    0.4758   -0.1159 N   0  0  0  0  0  0  0  0  0  0  0  0
   -8.4952    0.7324   -1.7669 N   0  0  0  0  0  0  0  0  0  0  0  0
   -0.2436   -0.1296    0.3286 C   0  0  0  0  0  0  0  0  0  0  0  0
    1.8414   -0.3835   -0.4812 C   0  0  0  0  0  0  0  0  0  0  0  0
    0.8195   -1.0506    0.1622 C   0  0  0  0  0  0  0  0  0  0  0  0
    0.1677    1.0754   -0.2229 C   0  0  0  0  0  0  0  0  0  0  0  0
    2.2155    1.9360   -1.3659 C   0  0  0  0  0  0  0  0  0  0  0  0
   -1.5687   -0.2333    0.9244 C   0  0  0  0  0  0  0  0  0  0  0  0
   -3.5906    1.0952    1.4055 C   0  0  0  0  0  0  0  0  0  0  0  0
    3.1472   -0.8634   -0.8905 C   0  0  0  0  0  0  0  0  0  0  0  0
    0.9094   -2.4309    0.5534 C   0  0  0  0  0  0  0  0  0  0  0  0
   -4.6368    0.7296    0.3569 C   0  0  0  0  0  0  0  0  0  0  0  0
   -1.6853    2.1380    0.2396 C   0  0  0  0  0  0  0  0  0  0  0  0
    3.0416    2.7128   -0.3767 C   0  0  0  0  0  0  0  0  0  0  0  0
   -6.0652    0.8197    0.8985 C   0  0  0  0  0  0  0  0  0  0  0  0
    3.3130   -1.4232   -2.1531 C   0  0  0  0  0  0  0  0  0  0  0  0
    4.2240   -0.7611   -0.0159 C   0  0  0  0  0  0  0  0  0  0  0  0
    0.4975   -3.4319   -0.3254 C   0  0  0  0  0  0  0  0  0  0  0  0
    1.4084   -2.7670    1.8111 C   0  0  0  0  0  0  0  0  0  0  0  0
    2.4637    3.1402    0.8111 C   0  0  0  0  0  0  0  0  0  0  0  0
    4.3705    2.9921   -0.6650 C   0  0  0  0  0  0  0  0  0  0  0  0
    4.5692   -1.8855   -2.5455 C   0  0  0  0  0  0  0  0  0  0  0  0
    5.4803   -1.2233   -0.4081 C   0  0  0  0  0  0  0  0  0  0  0  0
    0.5849   -4.7713    0.0541 C   0  0  0  0  0  0  0  0  0  0  0  0
    1.4959   -4.1063    2.1907 C   0  0  0  0  0  0  0  0  0  0  0  0
    5.6528   -1.7856   -1.6731 C   0  0  0  0  0  0  0  0  0  0  0  0
    1.0840   -5.1085    1.3121 C   0  0  0  0  0  0  0  0  0  0  0  0
    3.2293    3.8607    1.7280 C   0  0  0  0  0  0  0  0  0  0  0  0
    5.1362    3.7124    0.2518 C   0  0  0  0  0  0  0  0  0  0  0  0
   -7.5447   -0.7665   -0.3573 C   0  0  0  0  0  0  0  0  0  0  0  0
   -7.6453    1.3468   -0.9743 C   0  0  0  0  0  0  0  0  0  0  0  0
    4.5655    4.1466    1.4483 C   0  0  0  0  0  0  0  0  0  0  0  0
   -8.4376   -0.5851   -1.3872 C   0  0  0  0  0  0  0  0  0  0  0  0
    2.8335    1.4683   -2.1393 H   0  0  0  0  0  0  0  0  0  0  0  0
    1.5319    2.6155   -1.8886 H   0  0  0  0  0  0  0  0  0  0  0  0
   -3.7732    2.1184    1.7591 H   0  0  0  0  0  0  0  0  0  0  0  0
   -3.6961    0.4665    2.2969 H   0  0  0  0  0  0  0  0  0  0  0  0
   -4.4500   -0.2867   -0.0136 H   0  0  0  0  0  0  0  0  0  0  0  0
   -4.5322    1.3902   -0.5137 H   0  0  0  0  0  0  0  0  0  0  0  0
   -2.3611    3.0091    0.2505 H   0  0  0  0  0  0  0  0  0  0  0  0
   -6.2103    0.1350    1.7420 H   0  0  0  0  0  0  0  0  0  0  0  0
   -6.2919    1.8346    1.2449 H   0  0  0  0  0  0  0  0  0  0  0  0
    2.4777   -1.5077   -2.8438 H   0  0  0  0  0  0  0  0  0  0  0  0
    4.1050   -0.3259    0.9733 H   0  0  0  0  0  0  0  0  0  0  0  0
    0.1059   -3.1859   -1.3096 H   0  0  0  0  0  0  0  0  0  0  0  0
    1.7335   -1.9978    2.5079 H   0  0  0  0  0  0  0  0  0  0  0  0
   -2.8843   -1.3134    1.7950 H   0  0  0  0  0  0  0  0  0  0  0  0
    1.4318    2.9616    1.0765 H   0  0  0  0  0  0  0  0  0  0  0  0
    4.8256    2.6590   -1.5934 H   0  0  0  0  0  0  0  0  0  0  0  0
    4.7034   -2.3233   -3.5303 H   0  0  0  0  0  0  0  0  0  0  0  0
    6.3240   -1.1453    0.2712 H   0  0  0  0  0  0  0  0  0  0  0  0
    0.2643   -5.5516   -0.6299 H   0  0  0  0  0  0  0  0  0  0  0  0
    1.8846   -4.3690    3.1702 H   0  0  0  0  0  0  0  0  0  0  0  0
    6.6309   -2.1455   -1.9786 H   0  0  0  0  0  0  0  0  0  0  0  0
    1.1521   -6.1513    1.6076 H   0  0  0  0  0  0  0  0  0  0  0  0
    2.7849    4.2019    2.6584 H   0  0  0  0  0  0  0  0  0  0  0  0
    6.1767    3.9350    0.0342 H   0  0  0  0  0  0  0  0  0  0  0  0
   -7.2341   -1.6432    0.1937 H   0  0  0  0  0  0  0  0  0  0  0  0
   -7.4252    2.4057   -0.9865 H   0  0  0  0  0  0  0  0  0  0  0  0
    5.1615    4.7080    2.1617 H   0  0  0  0  0  0  0  0  0  0  0  0
   -9.0412   -1.3366   -1.8752 H   0  0  0  0  0  0  0  0  0  0  0  0
  1  8  1  0  0  0  0
  1 10  1  0  0  0  0
  1 11  1  0  0  0  0
  2 12  1  0  0  0  0
  2 13  1  0  0  0  0
  2 17  1  0  0  0  0
  3 10  1  0  0  0  0
  3 17  2  0  0  0  0
  4 12  2  0  0  0  0
  4 51  1  0  0  0  0
  5 19  1  0  0  0  0
  5 34  1  0  0  0  0
  5 35  1  0  0  0  0
  6 35  2  0  0  0  0
  6 37  1  0  0  0  0
  7  9  1  0  0  0  0
  7 10  2  0  0  0  0
  7 12  1  0  0  0  0
  8  9  2  0  0  0  0
  8 14  1  0  0  0  0
  9 15  1  0  0  0  0
 11 18  1  0  0  0  0
 11 38  1  0  0  0  0
 11 39  1  0  0  0  0
 13 16  1  0  0  0  0
 13 40  1  0  0  0  0
 13 41  1  0  0  0  0
 14 20  2  0  0  0  0
 14 21  1  0  0  0  0
 15 22  2  0  0  0  0
 15 23  1  0  0  0  0
 16 19  1  0  0  0  0
 16 42  1  0  0  0  0
 16 43  1  0  0  0  0
 17 44  1  0  0  0  0
 18 24  2  0  0  0  0
 18 25  1  0  0  0  0
 19 45  1  0  0  0  0
 19 46  1  0  0  0  0
 20 26  1  0  0  0  0
 20 47  1  0  0  0  0
 21 27  2  0  0  0  0
 21 48  1  0  0  0  0
 22 28  1  0  0  0  0
 22 49  1  0  0  0  0
 23 29  2  0  0  0  0
 23 50  1  0  0  0  0
 24 32  1  0  0  0  0
 24 52  1  0  0  0  0
 25 33  2  0  0  0  0
 25 53  1  0  0  0  0
 26 30  2  0  0  0  0
 26 54  1  0  0  0  0
 27 30  1  0  0  0  0
 27 55  1  0  0  0  0
 28 31  2  0  0  0  0
 28 56  1  0  0  0  0
 29 31  1  0  0  0  0
 29 57  1  0  0  0  0
 30 58  1  0  0  0  0
 31 59  1  0  0  0  0
 32 36  2  0  0  0  0
 32 60  1  0  0  0  0
 33 36  1  0  0  0  0
 33 61  1  0  0  0  0
 34 37  2  0  0  0  0
 34 62  1  0  0  0  0
 35 63  1  0  0  0  0
 36 64  1  0  0  0  0
 37 65  1  0  0  0  0
M  END
> <PUBCHEM_COMPOUND_CID>
661535

> <PUBCHEM_CONFORMER_RMSD>
1

> <PUBCHEM_CONFORMER_DIVERSEORDER>
1
15
30
20
31
34
32
6
16
19
26
22
14
17
27
29
11
23
13
33
28
21
4
12
7
8
5
18
9
3
10
2
24
25

> <PUBCHEM_MMFF94_PARTIAL_CHARGES>
56
1 0.05
10 -0.03
11 0.4
12 0.59
13 0.37
14 0.05
15 0.05
17 0.44
18 -0.14
19 0.26
2 -0.47
20 -0.15
21 -0.15
22 -0.15
23 -0.15
24 -0.15
25 -0.15
26 -0.15
27 -0.15
28 -0.15
29 -0.15
3 -0.58
30 -0.15
31 -0.15
32 -0.15
33 -0.15
34 -0.3
35 0.04
36 -0.15
37 0.08
4 -0.85
44 0.06
47 0.15
48 0.15
49 0.15
5 0.05
50 0.15
51 0.4
52 0.15
53 0.15
54 0.15
55 0.15
56 0.15
57 0.15
58 0.15
59 0.15
6 -0.57
60 0.15
61 0.15
62 0.15
63 0.15
64 0.15
65 0.15
7 -0.09
8 -0.2
9 -0.05

> <PUBCHEM_EFFECTIVE_ROTOR_COUNT>
8

> <PUBCHEM_PHARMACOPHORE_FEATURES>
11
1 1 cation
1 4 donor
3 2 3 17 cation
3 2 4 12 cation
3 5 6 35 cation
5 1 7 8 9 10 rings
5 5 6 34 35 37 rings
6 14 20 21 26 27 30 rings
6 15 22 23 28 29 31 rings
6 18 24 25 32 33 36 rings
6 2 3 7 10 12 17 rings

> <PUBCHEM_HEAVY_ATOM_COUNT>
37

> <PUBCHEM_ATOM_DEF_STEREO_COUNT>
0

> <PUBCHEM_ATOM_UDEF_STEREO_COUNT>
0

> <PUBCHEM_BOND_DEF_STEREO_COUNT>
0

> <PUBCHEM_BOND_UDEF_STEREO_COUNT>
0

> <PUBCHEM_ISOTOPIC_ATOM_COUNT>
0

> <PUBCHEM_COMPONENT_COUNT>
1

> <PUBCHEM_CACTVS_TAUTO_COUNT>
1

> <PUBCHEM_CONFORMER_ID>
000A181F00000001

> <PUBCHEM_MMFF94_ENERGY>
92.2895

> <PUBCHEM_FEATURE_SELFOVERLAP>
56.031

> <PUBCHEM_SHAPE_FINGERPRINT>
10693767 8 18126291839318457799
11093857 51 17677919909588980799
11607047 191 18127954499090532824
13140716 1 18264510475588284632
13636023 20 18124602972435793698
13692114 37 18129093593098945262
14725015 67 18337950100593827024
15001296 14 18341607127612401223
15324884 4 17899727770404334561
15439362 3 18338519759159934204
18681886 176 17917430869847939947
20028762 73 18272094855062371366
20775438 99 18201724002166496166
21049683 118 18123731296101725872
21304303 282 17978780534796779611
22311459 1 18336834078209724010
23559900 14 18188506742813685961
25223398 141 17606426438315836723
3178227 256 18191610612688584714
6004065 56 18271529702486779878
6086070 43 18195524779404782489
70251023 43 18129665192631457557

> <PUBCHEM_SHAPE_MULTIPOLES>
731.56
17.28
6.17
1.88
50.95
3.01
-0.22
-7.97
-9.18
-10.09
3.25
-1.01
0.91
1.94

> <PUBCHEM_SHAPE_SELFOVERLAP>
1630.549

> <PUBCHEM_SHAPE_VOLUME>
384.7

> <PUBCHEM_COORDINATE_TYPE>
2
5
10

$$$$
