16189324
  -OEChem-01171809423D

 75 79  0     0  0  0  0  0  0999 V2000
   -5.3715   -1.7478   -1.3120 S   0  0  0  0  0  0  0  0  0  0  0  0
   -2.3845    4.4743   -0.1265 F   0  0  0  0  0  0  0  0  0  0  0  0
    3.1086   -4.5559   -0.3069 O   0  0  0  0  0  0  0  0  0  0  0  0
   -1.6594   -0.8155   -1.4712 O   0  0  0  0  0  0  0  0  0  0  0  0
    5.7035    0.2982    0.5370 N   0  0  0  0  0  0  0  0  0  0  0  0
    6.1685    2.7129   -0.9835 N   0  0  0  0  0  0  0  0  0  0  0  0
    3.0282   -3.0146    1.4236 N   0  0  0  0  0  0  0  0  0  0  0  0
   -3.3861    0.6250   -0.9004 N   0  0  0  0  0  0  0  0  0  0  0  0
    5.2453    0.4242   -0.8520 C   0  0  0  0  0  0  0  0  0  0  0  0
    5.7353    1.6141    1.1870 C   0  0  0  0  0  0  0  0  0  0  0  0
    6.1346    1.3972   -1.6338 C   0  0  0  0  0  0  0  0  0  0  0  0
    6.6257    2.5866    0.4058 C   0  0  0  0  0  0  0  0  0  0  0  0
    4.8536   -0.6284    1.2819 C   0  0  0  0  0  0  0  0  0  0  0  0
    7.0201    3.6383   -1.7282 C   0  0  0  0  0  0  0  0  0  0  0  0
    5.2751   -2.0723    1.0045 C   0  0  0  0  0  0  0  0  0  0  0  0
    4.4288   -3.0825    1.7738 C   0  0  0  0  0  0  0  0  0  0  0  0
    6.5120    3.8314   -3.1469 C   0  0  0  0  0  0  0  0  0  0  0  0
    2.4510   -3.7651    0.3927 C   0  0  0  0  0  0  0  0  0  0  0  0
    1.0315   -3.5667    0.1465 C   0  0  0  0  0  0  0  0  0  0  0  0
   -4.7534    0.8580   -0.5225 C   0  0  0  0  0  0  0  0  0  0  0  0
   -2.4917    1.7820   -0.9953 C   0  0  0  0  0  0  0  0  0  0  0  0
    0.1964   -3.1484    1.1826 C   0  0  0  0  0  0  0  0  0  0  0  0
    0.5050   -3.7952   -1.1248 C   0  0  0  0  0  0  0  0  0  0  0  0
   -2.8369   -0.6405   -1.1420 C   0  0  0  0  0  0  0  0  0  0  0  0
   -5.7239   -0.1470   -0.6381 C   0  0  0  0  0  0  0  0  0  0  0  0
   -3.7029   -1.8362   -0.9494 C   0  0  0  0  0  0  0  0  0  0  0  0
   -1.6919   -3.1871   -0.3241 C   0  0  0  0  0  0  0  0  0  0  0  0
   -1.9541    2.1880    0.3464 C   0  0  0  0  0  0  0  0  0  0  0  0
   -3.1280   -2.9863   -0.5722 C   0  0  0  0  0  0  0  0  0  0  0  0
   -1.1652   -2.9586    0.9472 C   0  0  0  0  0  0  0  0  0  0  0  0
   -0.8566   -3.6054   -1.3601 C   0  0  0  0  0  0  0  0  0  0  0  0
   -5.1647    2.1162   -0.0375 C   0  0  0  0  0  0  0  0  0  0  0  0
   -7.0568    0.1076   -0.2683 C   0  0  0  0  0  0  0  0  0  0  0  0
   -6.4897    2.3604    0.3325 C   0  0  0  0  0  0  0  0  0  0  0  0
   -1.9303    3.5336    0.7132 C   0  0  0  0  0  0  0  0  0  0  0  0
   -1.4777    1.2166    1.2267 C   0  0  0  0  0  0  0  0  0  0  0  0
   -7.4368    1.3542    0.2191 C   0  0  0  0  0  0  0  0  0  0  0  0
   -1.4301    3.9076    1.9605 C   0  0  0  0  0  0  0  0  0  0  0  0
   -0.9775    1.5907    2.4740 C   0  0  0  0  0  0  0  0  0  0  0  0
   -0.9536    2.9362    2.8409 C   0  0  0  0  0  0  0  0  0  0  0  0
    4.2032    0.7705   -0.8917 H   0  0  0  0  0  0  0  0  0  0  0  0
    5.2842   -0.5435   -1.3637 H   0  0  0  0  0  0  0  0  0  0  0  0
    4.7223    2.0295    1.2783 H   0  0  0  0  0  0  0  0  0  0  0  0
    6.1432    1.5199    2.2009 H   0  0  0  0  0  0  0  0  0  0  0  0
    7.1458    0.9790   -1.7308 H   0  0  0  0  0  0  0  0  0  0  0  0
    5.7047    1.4613   -2.6387 H   0  0  0  0  0  0  0  0  0  0  0  0
    6.5837    3.5644    0.9007 H   0  0  0  0  0  0  0  0  0  0  0  0
    7.6689    2.2445    0.4456 H   0  0  0  0  0  0  0  0  0  0  0  0
    4.9743   -0.4632    2.3610 H   0  0  0  0  0  0  0  0  0  0  0  0
    3.7920   -0.4623    1.0606 H   0  0  0  0  0  0  0  0  0  0  0  0
    7.0070    4.6163   -1.2313 H   0  0  0  0  0  0  0  0  0  0  0  0
    8.0642    3.3014   -1.7534 H   0  0  0  0  0  0  0  0  0  0  0  0
    5.1972   -2.2997   -0.0648 H   0  0  0  0  0  0  0  0  0  0  0  0
    6.3270   -2.2098    1.2847 H   0  0  0  0  0  0  0  0  0  0  0  0
    4.7957   -4.0956    1.5767 H   0  0  0  0  0  0  0  0  0  0  0  0
    4.5027   -2.9026    2.8516 H   0  0  0  0  0  0  0  0  0  0  0  0
    7.0203    4.6882   -3.6035 H   0  0  0  0  0  0  0  0  0  0  0  0
    6.7189    2.9682   -3.7868 H   0  0  0  0  0  0  0  0  0  0  0  0
    5.4370    4.0408   -3.1680 H   0  0  0  0  0  0  0  0  0  0  0  0
    2.4722   -2.3347    1.9309 H   0  0  0  0  0  0  0  0  0  0  0  0
   -1.6332    1.5372   -1.6336 H   0  0  0  0  0  0  0  0  0  0  0  0
   -3.0067    2.5976   -1.5169 H   0  0  0  0  0  0  0  0  0  0  0  0
    0.5578   -2.9888    2.1941 H   0  0  0  0  0  0  0  0  0  0  0  0
    1.1394   -4.1170   -1.9466 H   0  0  0  0  0  0  0  0  0  0  0  0
   -3.7231   -3.8898   -0.4507 H   0  0  0  0  0  0  0  0  0  0  0  0
   -1.8053   -2.6379    1.7657 H   0  0  0  0  0  0  0  0  0  0  0  0
   -1.2526   -3.7873   -2.3564 H   0  0  0  0  0  0  0  0  0  0  0  0
   -4.4922    2.9572    0.0671 H   0  0  0  0  0  0  0  0  0  0  0  0
   -7.8182   -0.6645   -0.3621 H   0  0  0  0  0  0  0  0  0  0  0  0
   -6.7773    3.3395    0.7043 H   0  0  0  0  0  0  0  0  0  0  0  0
   -1.4664    0.1631    0.9746 H   0  0  0  0  0  0  0  0  0  0  0  0
   -8.4686    1.5391    0.5014 H   0  0  0  0  0  0  0  0  0  0  0  0
   -1.4113    4.9553    2.2457 H   0  0  0  0  0  0  0  0  0  0  0  0
   -0.6034    0.8346    3.1582 H   0  0  0  0  0  0  0  0  0  0  0  0
   -0.5633    3.2276    3.8116 H   0  0  0  0  0  0  0  0  0  0  0  0
  1 25  1  0  0  0  0
  1 26  1  0  0  0  0
  2 35  1  0  0  0  0
  3 18  2  0  0  0  0
  4 24  2  0  0  0  0
  5  9  1  0  0  0  0
  5 10  1  0  0  0  0
  5 13  1  0  0  0  0
  6 11  1  0  0  0  0
  6 12  1  0  0  0  0
  6 14  1  0  0  0  0
  7 16  1  0  0  0  0
  7 18  1  0  0  0  0
  7 60  1  0  0  0  0
  8 20  1  0  0  0  0
  8 21  1  0  0  0  0
  8 24  1  0  0  0  0
  9 11  1  0  0  0  0
  9 41  1  0  0  0  0
  9 42  1  0  0  0  0
 10 12  1  0  0  0  0
 10 43  1  0  0  0  0
 10 44  1  0  0  0  0
 11 45  1  0  0  0  0
 11 46  1  0  0  0  0
 12 47  1  0  0  0  0
 12 48  1  0  0  0  0
 13 15  1  0  0  0  0
 13 49  1  0  0  0  0
 13 50  1  0  0  0  0
 14 17  1  0  0  0  0
 14 51  1  0  0  0  0
 14 52  1  0  0  0  0
 15 16  1  0  0  0  0
 15 53  1  0  0  0  0
 15 54  1  0  0  0  0
 16 55  1  0  0  0  0
 16 56  1  0  0  0  0
 17 57  1  0  0  0  0
 17 58  1  0  0  0  0
 17 59  1  0  0  0  0
 18 19  1  0  0  0  0
 19 22  2  0  0  0  0
 19 23  1  0  0  0  0
 20 25  1  0  0  0  0
 20 32  2  0  0  0  0
 21 28  1  0  0  0  0
 21 61  1  0  0  0  0
 21 62  1  0  0  0  0
 22 30  1  0  0  0  0
 22 63  1  0  0  0  0
 23 31  2  0  0  0  0
 23 64  1  0  0  0  0
 24 26  1  0  0  0  0
 25 33  2  0  0  0  0
 26 29  2  0  0  0  0
 27 29  1  0  0  0  0
 27 30  2  0  0  0  0
 27 31  1  0  0  0  0
 28 35  1  0  0  0  0
 28 36  2  0  0  0  0
 29 65  1  0  0  0  0
 30 66  1  0  0  0  0
 31 67  1  0  0  0  0
 32 34  1  0  0  0  0
 32 68  1  0  0  0  0
 33 37  1  0  0  0  0
 33 69  1  0  0  0  0
 34 37  2  0  0  0  0
 34 70  1  0  0  0  0
 35 38  2  0  0  0  0
 36 39  1  0  0  0  0
 36 71  1  0  0  0  0
 37 72  1  0  0  0  0
 38 40  1  0  0  0  0
 38 73  1  0  0  0  0
 39 40  2  0  0  0  0
 39 74  1  0  0  0  0
 40 75  1  0  0  0  0
M  END
> <PUBCHEM_COMPOUND_CID>
16189324

> <PUBCHEM_CONFORMER_RMSD>
1.2

> <PUBCHEM_CONFORMER_DIVERSEORDER>
1
46
58
53
137
153
152
98
188
104
19
155
160
114
22
130
108
149
76
80
164
124
5
50
40
97
100
26
125
88
169
8
135
92
170
110
33
86
128
154
25
171
70
141
180
150
45
111
15
120
113
144
29
61
133
162
118
43
36
115
87
96
2
23
71
24
178
66
109
147
93
90
132
99
42
116
102
106
143
20
129
136
123
112
14
95
107
55
47
174
79
34
172
56
159
103
18
13
60
83
72
75
91
181
177
38
54
39
140
51
157
139
27
185
12
10
101
146
11
94
31
67
127
138
183
126
65
142
3
158
48
117
74
131
166
16
21
184
17
148
175
84
161
189
121
85
176
151
167
105
163
37
52
182
30
44
73
9
165
134
187
119
81
57
7
77
4
28
49
62
69
168
68
89
59
82
156
41
6
179
122
63
186
32
145
64
35
173
78

> <PUBCHEM_MMFF94_PARTIAL_CHARGES>
52
1 -0.2
10 0.27
11 0.27
12 0.27
13 0.27
14 0.27
16 0.3
18 0.54
19 0.09
2 -0.19
20 0.12
21 0.44
22 -0.15
23 -0.15
24 0.62
25 0.1
26 0.12
27 0.03
28 -0.14
29 -0.18
3 -0.57
30 -0.15
31 -0.15
32 -0.15
33 -0.15
34 -0.15
35 0.19
36 -0.15
37 -0.15
38 -0.15
39 -0.15
4 -0.57
40 -0.15
5 -0.81
6 -0.81
60 0.37
63 0.15
64 0.15
65 0.15
66 0.15
67 0.15
68 0.15
69 0.15
7 -0.73
70 0.15
71 0.15
72 0.15
73 0.15
74 0.15
75 0.15
8 -0.48
9 0.27

> <PUBCHEM_EFFECTIVE_ROTOR_COUNT>
11.6

> <PUBCHEM_PHARMACOPHORE_FEATURES>
10
1 3 acceptor
1 4 acceptor
1 5 cation
1 6 cation
1 7 donor
6 1 8 20 24 25 26 rings
6 19 22 23 27 30 31 rings
6 20 25 32 33 34 37 rings
6 28 35 36 38 39 40 rings
6 5 6 9 10 11 12 rings

> <PUBCHEM_HEAVY_ATOM_COUNT>
40

> <PUBCHEM_ATOM_DEF_STEREO_COUNT>
0

> <PUBCHEM_ATOM_UDEF_STEREO_COUNT>
0

> <PUBCHEM_BOND_DEF_STEREO_COUNT>
1

> <PUBCHEM_BOND_UDEF_STEREO_COUNT>
0

> <PUBCHEM_ISOTOPIC_ATOM_COUNT>
0

> <PUBCHEM_COMPONENT_COUNT>
1

> <PUBCHEM_CACTVS_TAUTO_COUNT>
2

> <PUBCHEM_CONFORMER_ID>
00F7078C00000001

> <PUBCHEM_MMFF94_ENERGY>
111.554

> <PUBCHEM_FEATURE_SELFOVERLAP>
50.767

> <PUBCHEM_SHAPE_FINGERPRINT>
12788726 201 18271806860889430722
13627167 48 18340223963654505102
14394314 77 18413666912062479473
14747282 125 17845635049708822295
14932702 115 18059842948961929842
15001296 14 18409443657550415290
15538507 32 18272077340586450752
21792938 131 18122051264558795599
44426701 206 17386013871109823492
5265222 85 18265615570689966821
6036956 94 18409454673867495753

> <PUBCHEM_SHAPE_MULTIPOLES>
788.09
19.23
7.26
2.19
14.97
2.03
-0.13
-16.59
7.14
5.14
-0.22
2.77
-1.72
-6.25

> <PUBCHEM_SHAPE_SELFOVERLAP>
1680.93

> <PUBCHEM_SHAPE_VOLUME>
440.9

> <PUBCHEM_COORDINATE_TYPE>
2
5
10

$$$$
