2201555
  -OEChem-01171809573D

 38 40  0     0  0  0  0  0  0999 V2000
   -0.6350   -0.1237    0.7880 S   0  0  0  0  0  0  0  0  0  0  0  0
    0.1846    0.1202   -0.6182 O   0  0  0  0  0  0  0  0  0  0  0  0
   -2.0338    2.4400    0.0483 O   0  0  0  0  0  0  0  0  0  0  0  0
   -0.4566   -1.5139    1.1637 O   0  0  0  0  0  0  0  0  0  0  0  0
   -0.3180    0.9551    1.7038 O   0  0  0  0  0  0  0  0  0  0  0  0
    2.0850    2.2303   -0.0157 O   0  0  0  0  0  0  0  0  0  0  0  0
    1.7767   -2.2804   -0.9776 O   0  0  0  0  0  0  0  0  0  0  0  0
   -5.3264   -1.9822    0.0418 O   0  0  0  0  0  0  0  0  0  0  0  0
    1.5506   -0.0060   -0.4641 N   0  0  0  0  0  0  0  0  0  0  0  0
    3.6809    0.4632    0.0009 C   0  0  0  0  0  0  0  0  0  0  0  0
    3.5881   -0.8964   -0.2891 C   0  0  0  0  0  0  0  0  0  0  0  0
   -2.3381    0.0817    0.3706 C   0  0  0  0  0  0  0  0  0  0  0  0
    2.3449    1.0501   -0.1439 C   0  0  0  0  0  0  0  0  0  0  0  0
    2.1915   -1.1947   -0.6226 C   0  0  0  0  0  0  0  0  0  0  0  0
   -2.8336    1.3367    0.0506 C   0  0  0  0  0  0  0  0  0  0  0  0
    4.8780    1.0561    0.3430 C   0  0  0  0  0  0  0  0  0  0  0  0
    4.6878   -1.7275   -0.2506 C   0  0  0  0  0  0  0  0  0  0  0  0
   -3.1600   -1.0356    0.3712 C   0  0  0  0  0  0  0  0  0  0  0  0
   -4.5087   -0.8940    0.0443 C   0  0  0  0  0  0  0  0  0  0  0  0
   -4.1822    1.4782   -0.2761 C   0  0  0  0  0  0  0  0  0  0  0  0
    6.0049    0.2302    0.3911 C   0  0  0  0  0  0  0  0  0  0  0  0
    5.9109   -1.1465    0.0975 C   0  0  0  0  0  0  0  0  0  0  0  0
   -5.0197    0.3630   -0.2794 C   0  0  0  0  0  0  0  0  0  0  0  0
   -1.3774    2.7616   -1.1763 C   0  0  0  0  0  0  0  0  0  0  0  0
   -6.6943   -1.7655   -0.3012 C   0  0  0  0  0  0  0  0  0  0  0  0
    4.9519    2.1139    0.5660 H   0  0  0  0  0  0  0  0  0  0  0  0
    4.6173   -2.7844   -0.4788 H   0  0  0  0  0  0  0  0  0  0  0  0
   -2.7864   -2.0250    0.6169 H   0  0  0  0  0  0  0  0  0  0  0  0
   -4.5865    2.4550   -0.5285 H   0  0  0  0  0  0  0  0  0  0  0  0
    6.9702    0.6534    0.6570 H   0  0  0  0  0  0  0  0  0  0  0  0
    6.8052   -1.7628    0.1418 H   0  0  0  0  0  0  0  0  0  0  0  0
   -6.0562    0.5442   -0.5425 H   0  0  0  0  0  0  0  0  0  0  0  0
   -1.9456    3.5459   -1.6852 H   0  0  0  0  0  0  0  0  0  0  0  0
   -1.2845    1.8991   -1.8441 H   0  0  0  0  0  0  0  0  0  0  0  0
   -0.3812    3.1470   -0.9459 H   0  0  0  0  0  0  0  0  0  0  0  0
   -7.1919   -1.1110    0.4224 H   0  0  0  0  0  0  0  0  0  0  0  0
   -7.1975   -2.7368   -0.2524 H   0  0  0  0  0  0  0  0  0  0  0  0
   -6.7988   -1.4028   -1.3294 H   0  0  0  0  0  0  0  0  0  0  0  0
  1  2  1  0  0  0  0
  1  4  2  0  0  0  0
  1  5  2  0  0  0  0
  1 12  1  0  0  0  0
  2  9  1  0  0  0  0
  3 15  1  0  0  0  0
  3 24  1  0  0  0  0
  6 13  2  0  0  0  0
  7 14  2  0  0  0  0
  8 19  1  0  0  0  0
  8 25  1  0  0  0  0
  9 13  1  0  0  0  0
  9 14  1  0  0  0  0
 10 11  1  0  0  0  0
 10 13  1  0  0  0  0
 10 16  2  0  0  0  0
 11 14  1  0  0  0  0
 11 17  2  0  0  0  0
 12 15  2  0  0  0  0
 12 18  1  0  0  0  0
 15 20  1  0  0  0  0
 16 21  1  0  0  0  0
 16 26  1  0  0  0  0
 17 22  1  0  0  0  0
 17 27  1  0  0  0  0
 18 19  2  0  0  0  0
 18 28  1  0  0  0  0
 19 23  1  0  0  0  0
 20 23  2  0  0  0  0
 20 29  1  0  0  0  0
 21 22  2  0  0  0  0
 21 30  1  0  0  0  0
 22 31  1  0  0  0  0
 23 32  1  0  0  0  0
 24 33  1  0  0  0  0
 24 34  1  0  0  0  0
 24 35  1  0  0  0  0
 25 36  1  0  0  0  0
 25 37  1  0  0  0  0
 25 38  1  0  0  0  0
M  END
> <PUBCHEM_COMPOUND_CID>
2201555

> <PUBCHEM_CONFORMER_RMSD>
0.8

> <PUBCHEM_CONFORMER_DIVERSEORDER>
1
14
4
16
8
9
15
13
10
7
12
11
3
5
6
2

> <PUBCHEM_MMFF94_PARTIAL_CHARGES>
32
1 1.49
10 0.09
11 0.09
12 -0.01
13 0.54
14 0.54
15 0.08
16 -0.15
17 -0.15
18 -0.15
19 0.08
2 -0.22
20 -0.15
21 -0.15
22 -0.15
23 -0.15
24 0.28
25 0.28
26 0.15
27 0.15
28 0.15
29 0.15
3 -0.36
30 0.15
31 0.15
32 0.15
4 -0.65
5 -0.65
6 -0.57
7 -0.57
8 -0.36
9 -0.08

> <PUBCHEM_EFFECTIVE_ROTOR_COUNT>
5.2

> <PUBCHEM_PHARMACOPHORE_FEATURES>
9
1 3 acceptor
1 4 acceptor
1 5 acceptor
1 6 acceptor
1 7 acceptor
1 8 acceptor
5 9 10 11 13 14 rings
6 10 11 16 17 21 22 rings
6 12 15 18 19 20 23 rings

> <PUBCHEM_HEAVY_ATOM_COUNT>
25

> <PUBCHEM_ATOM_DEF_STEREO_COUNT>
0

> <PUBCHEM_ATOM_UDEF_STEREO_COUNT>
0

> <PUBCHEM_BOND_DEF_STEREO_COUNT>
0

> <PUBCHEM_BOND_UDEF_STEREO_COUNT>
0

> <PUBCHEM_ISOTOPIC_ATOM_COUNT>
0

> <PUBCHEM_COMPONENT_COUNT>
1

> <PUBCHEM_CACTVS_TAUTO_COUNT>
1

> <PUBCHEM_CONFORMER_ID>
002197D300000001

> <PUBCHEM_MMFF94_ENERGY>
82.5626

> <PUBCHEM_FEATURE_SELFOVERLAP>
45.791

> <PUBCHEM_SHAPE_FINGERPRINT>
10 15 18341321293660246528
10595046 47 18408887326051620816
12107183 9 17543063481687249712
12166972 35 18342461460831579472
12236239 1 17275102804330884350
12403259 226 18409726240460123348
12403260 363 18334579031706613956
12616971 3 15051724292455597984
13402501 40 18410573985151457632
13533116 47 17749381521749959362
14251764 18 18113615695274883882
15183329 4 18040149600233435122
15196674 1 18410857642119468596
15961568 22 18113624521259462052
17349148 13 17312831450215259830
17492 89 18199472060624489102
18681886 176 18342736334691053746
19489759 90 18113900442056604250
200 152 17988924452859084360
20028762 73 18343300387760961222
21033648 29 17488161743703039264
21130935 74 18272088262757128634
21267235 1 18411426123916894703
22393880 68 18190177892986966751
23402539 116 18334010597048047445
23557571 272 18409167710127873721
23559900 14 18410848876286688793
34797466 226 17203617025391543276
350125 39 18341332270995475644
351380 180 18407760335096536416
4073 2 18260272953353586338
4214541 1 18410576145599408149
4325135 7 18201438103484025351
5104073 3 18272087145864548464
5283173 99 18337106752830236472
59755656 215 18113614582193110683
67856867 119 18335705000206625412
7495541 125 17775000232285461755
9709674 26 18410022021819825227

> <PUBCHEM_SHAPE_MULTIPOLES>
472.27
14.44
2.44
0.92
1.09
0.66
-0.12
-5.96
0.44
1.32
0.49
0.02
0.07
0.58

> <PUBCHEM_SHAPE_SELFOVERLAP>
1024.511

> <PUBCHEM_SHAPE_VOLUME>
261

> <PUBCHEM_COORDINATE_TYPE>
2
5
10

$$$$
