2205293
  -OEChem-01171809293D

 50 54  0     0  0  0  0  0  0999 V2000
    6.1079   -1.3082    0.5841 O   0  0  0  0  0  0  0  0  0  0  0  0
   -2.5863   -0.5062    0.8044 O   0  0  0  0  0  0  0  0  0  0  0  0
    4.2576   -2.6376    0.4757 O   0  0  0  0  0  0  0  0  0  0  0  0
   -1.5566   -0.9187   -1.2652 N   0  0  0  0  0  0  0  0  0  0  0  0
   -5.1576   -0.8236   -0.2503 C   0  0  0  0  0  0  0  0  0  0  0  0
   -5.7948    0.4223   -0.1304 C   0  0  0  0  0  0  0  0  0  0  0  0
   -3.9508   -1.0181   -1.1155 C   0  0  0  0  0  0  0  0  0  0  0  0
   -6.9319    0.5403    0.7039 C   0  0  0  0  0  0  0  0  0  0  0  0
   -5.6343   -1.9368    0.4427 C   0  0  0  0  0  0  0  0  0  0  0  0
    2.5142   -0.4954   -0.3916 C   0  0  0  0  0  0  0  0  0  0  0  0
    3.9487   -0.3455   -0.0832 C   0  0  0  0  0  0  0  0  0  0  0  0
   -2.6314   -0.7793   -0.3908 C   0  0  0  0  0  0  0  0  0  0  0  0
   -5.3287    1.5532   -0.8202 C   0  0  0  0  0  0  0  0  0  0  0  0
   -7.3983   -0.5908    1.3937 C   0  0  0  0  0  0  0  0  0  0  0  0
   -0.1800   -0.7746   -0.9699 C   0  0  0  0  0  0  0  0  0  0  0  0
   -6.7527   -1.8207    1.2629 C   0  0  0  0  0  0  0  0  0  0  0  0
   -7.5694    1.7859    0.8239 C   0  0  0  0  0  0  0  0  0  0  0  0
    5.9315    1.0579    0.0713 C   0  0  0  0  0  0  0  0  0  0  0  0
    4.5179    0.8633   -0.2064 C   0  0  0  0  0  0  0  0  0  0  0  0
    2.1082   -0.8121   -1.6880 C   0  0  0  0  0  0  0  0  0  0  0  0
    1.5633   -0.3194    0.6135 C   0  0  0  0  0  0  0  0  0  0  0  0
    0.7513   -0.9527   -1.9793 C   0  0  0  0  0  0  0  0  0  0  0  0
    0.2064   -0.4602    0.3224 C   0  0  0  0  0  0  0  0  0  0  0  0
    6.6959   -0.0359    0.4588 C   0  0  0  0  0  0  0  0  0  0  0  0
   -5.9743    2.7831   -0.6891 C   0  0  0  0  0  0  0  0  0  0  0  0
   -7.0924    2.8993    0.1313 C   0  0  0  0  0  0  0  0  0  0  0  0
    4.7543   -1.5241    0.3394 C   0  0  0  0  0  0  0  0  0  0  0  0
    6.5487    2.3061   -0.0414 C   0  0  0  0  0  0  0  0  0  0  0  0
    8.0563    0.0805    0.7368 C   0  0  0  0  0  0  0  0  0  0  0  0
    7.9127    2.4393    0.2341 C   0  0  0  0  0  0  0  0  0  0  0  0
    8.6647    1.3285    0.6225 C   0  0  0  0  0  0  0  0  0  0  0  0
   -3.9328   -2.0566   -1.4770 H   0  0  0  0  0  0  0  0  0  0  0  0
   -3.9939   -0.4178   -2.0303 H   0  0  0  0  0  0  0  0  0  0  0  0
   -5.1425   -2.9023    0.3560 H   0  0  0  0  0  0  0  0  0  0  0  0
   -4.4528    1.5289   -1.4609 H   0  0  0  0  0  0  0  0  0  0  0  0
   -8.2706   -0.5230    2.0406 H   0  0  0  0  0  0  0  0  0  0  0  0
   -7.1230   -2.6873    1.8027 H   0  0  0  0  0  0  0  0  0  0  0  0
   -8.4449    1.9000    1.4597 H   0  0  0  0  0  0  0  0  0  0  0  0
   -1.7685   -1.1517   -2.2332 H   0  0  0  0  0  0  0  0  0  0  0  0
    3.9435    1.7309   -0.5192 H   0  0  0  0  0  0  0  0  0  0  0  0
    2.8377   -0.9531   -2.4820 H   0  0  0  0  0  0  0  0  0  0  0  0
    1.8657   -0.0731    1.6287 H   0  0  0  0  0  0  0  0  0  0  0  0
    0.4457   -1.1999   -2.9922 H   0  0  0  0  0  0  0  0  0  0  0  0
   -0.4664   -0.3089    1.1532 H   0  0  0  0  0  0  0  0  0  0  0  0
   -5.6017    3.6515   -1.2247 H   0  0  0  0  0  0  0  0  0  0  0  0
   -7.5939    3.8572    0.2337 H   0  0  0  0  0  0  0  0  0  0  0  0
    5.9816    3.1833   -0.3429 H   0  0  0  0  0  0  0  0  0  0  0  0
    8.6391   -0.7842    1.0387 H   0  0  0  0  0  0  0  0  0  0  0  0
    8.3897    3.4113    0.1455 H   0  0  0  0  0  0  0  0  0  0  0  0
    9.7241    1.4384    0.8352 H   0  0  0  0  0  0  0  0  0  0  0  0
  1 24  1  0  0  0  0
  1 27  1  0  0  0  0
  2 12  2  0  0  0  0
  3 27  2  0  0  0  0
  4 12  1  0  0  0  0
  4 15  1  0  0  0  0
  4 39  1  0  0  0  0
  5  6  1  0  0  0  0
  5  7  1  0  0  0  0
  5  9  2  0  0  0  0
  6  8  1  0  0  0  0
  6 13  2  0  0  0  0
  7 12  1  0  0  0  0
  7 32  1  0  0  0  0
  7 33  1  0  0  0  0
  8 14  1  0  0  0  0
  8 17  2  0  0  0  0
  9 16  1  0  0  0  0
  9 34  1  0  0  0  0
 10 11  1  0  0  0  0
 10 20  2  0  0  0  0
 10 21  1  0  0  0  0
 11 19  2  0  0  0  0
 11 27  1  0  0  0  0
 13 25  1  0  0  0  0
 13 35  1  0  0  0  0
 14 16  2  0  0  0  0
 14 36  1  0  0  0  0
 15 22  2  0  0  0  0
 15 23  1  0  0  0  0
 16 37  1  0  0  0  0
 17 26  1  0  0  0  0
 17 38  1  0  0  0  0
 18 19  1  0  0  0  0
 18 24  1  0  0  0  0
 18 28  2  0  0  0  0
 19 40  1  0  0  0  0
 20 22  1  0  0  0  0
 20 41  1  0  0  0  0
 21 23  2  0  0  0  0
 21 42  1  0  0  0  0
 22 43  1  0  0  0  0
 23 44  1  0  0  0  0
 24 29  2  0  0  0  0
 25 26  2  0  0  0  0
 25 45  1  0  0  0  0
 26 46  1  0  0  0  0
 28 30  1  0  0  0  0
 28 47  1  0  0  0  0
 29 31  1  0  0  0  0
 29 48  1  0  0  0  0
 30 31  2  0  0  0  0
 30 49  1  0  0  0  0
 31 50  1  0  0  0  0
M  END
> <PUBCHEM_COMPOUND_CID>
2205293

> <PUBCHEM_CONFORMER_RMSD>
0.8

> <PUBCHEM_CONFORMER_DIVERSEORDER>
1
84
55
67
60
62
35
18
46
34
82
39
68
38
81
85
65
73
20
24
71
70
37
74
76
13
75
42
45
32
51
54
43
4
80
59
83
23
72
36
33
58
77
52
16
47
49
31
29
44
61
21
48
11
26
14
79
56
50
7
17
28
40
64
3
63
69
15
53
78
66
19
8
2
12
57
6
25
30
27
9
22
41
5
10

> <PUBCHEM_MMFF94_PARTIAL_CHARGES>
46
1 -0.23
10 0.03
11 -0.01
12 0.57
13 -0.15
14 -0.15
15 0.12
16 -0.15
17 -0.15
18 0.03
19 -0.18
2 -0.57
20 -0.15
21 -0.15
22 -0.15
23 -0.15
24 0.08
25 -0.15
26 -0.15
27 0.71
28 -0.15
29 -0.15
3 -0.57
30 -0.15
31 -0.15
34 0.15
35 0.15
36 0.15
37 0.15
38 0.15
39 0.37
4 -0.55
40 0.15
41 0.15
42 0.15
43 0.15
44 0.15
45 0.15
46 0.15
47 0.15
48 0.15
49 0.15
5 -0.14
50 0.15
7 0.2
9 -0.15

> <PUBCHEM_EFFECTIVE_ROTOR_COUNT>
5

> <PUBCHEM_PHARMACOPHORE_FEATURES>
8
1 2 acceptor
1 3 acceptor
1 4 donor
6 1 11 18 19 24 27 rings
6 10 15 20 21 22 23 rings
6 18 24 28 29 30 31 rings
6 5 6 8 9 14 16 rings
6 6 8 13 17 25 26 rings

> <PUBCHEM_HEAVY_ATOM_COUNT>
31

> <PUBCHEM_ATOM_DEF_STEREO_COUNT>
0

> <PUBCHEM_ATOM_UDEF_STEREO_COUNT>
0

> <PUBCHEM_BOND_DEF_STEREO_COUNT>
0

> <PUBCHEM_BOND_UDEF_STEREO_COUNT>
0

> <PUBCHEM_ISOTOPIC_ATOM_COUNT>
0

> <PUBCHEM_COMPONENT_COUNT>
1

> <PUBCHEM_CACTVS_TAUTO_COUNT>
2

> <PUBCHEM_CONFORMER_ID>
0021A66D00000001

> <PUBCHEM_MMFF94_ENERGY>
109.5737

> <PUBCHEM_FEATURE_SELFOVERLAP>
40.652

> <PUBCHEM_SHAPE_FINGERPRINT>
10 15 18343304769206987487
10100884 174 17534348027020299811
10554248 39 17417528008195245030
10625338 131 18342452621541283136
11181472 205 17916875612687140336
11315181 36 18409725176246821807
11386260 185 13398620689536129546
11456790 92 18334564760295317576
11578821 258 18202002152823390488
11646440 116 16008749100065017172
12082328 90 18409164428936578243
125118 31 18413388731198993144
12539765 74 18343026592981958350
12645989 146 10447932788553147946
12664476 115 18130788976074270681
13668630 136 7997978981373769368
13782708 43 11530484424016825543
14294032 229 17561075951371476199
14849402 71 17677342743352169996
14933364 13 18408885131038437451
15021287 119 15719399443089422183
15183329 4 17275384300703440385
1577012 14 17989200469354699670
16989713 51 16844434115990990839
17093844 174 18113053827695367011
1754908 1 17240479226116980608
17686467 74 18268707389635621291
2026 5 11025796505494864833
21130935 74 18113899333945363315
22149856 69 15358254858335252492
23569943 247 16444736139203172947
23576562 1 15768910502700378881
24771293 8 18040434425796053982
3103668 31 15121791860625995029
3383291 50 14996285825135059641
3525247 154 17488456361512733417
3663271 9 18259701194564568171
3711267 37 17917717941631833496
397830 11 18334295348895076679
4073 2 18260269667730297035
4093350 32 18408602531524776266
4098825 35 18408322194202293457
4169191 19 17989489606600259433
4340502 62 18259701225215258614
437795 83 17060343968596582433
44280117 145 17846777448009050455
444735 82 18334298712593473692
49967989 163 13254496692303105277
504843 32 17203322347464177447
5758199 1 17894911836729542538
58083652 198 15502659342771159775
636775 72 18270683061765700905
68570916 9 18188775092465116974
9689198 14 18341897402670561396
9953998 17 17967816038231948437
9962374 69 14851894711011557139
999808 66 11602823484673878381

> <PUBCHEM_SHAPE_MULTIPOLES>
615.38
29.99
2.58
1.25
10.96
1.46
-0.32
15.33
10.21
-1.82
0.08
-0.9
-0.37
0.9

> <PUBCHEM_SHAPE_SELFOVERLAP>
1381.1

> <PUBCHEM_SHAPE_VOLUME>
322.6

> <PUBCHEM_COORDINATE_TYPE>
2
5
10

$$$$
