9550980
  -OEChem-01171809243D

 49 51  0     0  0  0  0  0  0999 V2000
   -2.1515   -0.5831   -0.0514 S   0  0  0  0  0  0  0  0  0  0  0  0
   -4.3721    4.5022   -0.6842 F   0  0  0  0  0  0  0  0  0  0  0  0
    3.9734    2.2559   -0.6026 O   0  0  0  0  0  0  0  0  0  0  0  0
    5.7380    0.2362   -1.3338 O   0  0  0  0  0  0  0  0  0  0  0  0
    0.7940   -3.5529    1.3107 O   0  0  0  0  0  0  0  0  0  0  0  0
   -4.3414   -2.0955   -0.8173 O   0  0  0  0  0  0  0  0  0  0  0  0
   -3.1365   -3.8702   -1.6879 O   0  0  0  0  0  0  0  0  0  0  0  0
    0.1511   -1.3001    1.2391 N   0  0  0  0  0  0  0  0  0  0  0  0
   -0.5164    0.9940    1.1544 N   0  0  0  0  0  0  0  0  0  0  0  0
    1.3395   -0.9177    2.0082 C   0  0  0  0  0  0  0  0  0  0  0  0
    2.5084   -0.6073    1.1187 C   0  0  0  0  0  0  0  0  0  0  0  0
    2.7013    0.6923    0.6654 C   0  0  0  0  0  0  0  0  0  0  0  0
   -0.7108   -0.2520    0.8648 C   0  0  0  0  0  0  0  0  0  0  0  0
    3.3860   -1.6227    0.7578 C   0  0  0  0  0  0  0  0  0  0  0  0
    0.0055   -2.6717    0.9615 C   0  0  0  0  0  0  0  0  0  0  0  0
    3.7878    0.9808   -0.1607 C   0  0  0  0  0  0  0  0  0  0  0  0
    4.6732   -0.0327   -0.5277 C   0  0  0  0  0  0  0  0  0  0  0  0
    4.4722   -1.3344   -0.0685 C   0  0  0  0  0  0  0  0  0  0  0  0
   -1.1841   -3.0994    0.1889 C   0  0  0  0  0  0  0  0  0  0  0  0
   -2.1225   -2.2709   -0.2625 C   0  0  0  0  0  0  0  0  0  0  0  0
   -1.4955    1.8852    0.6878 C   0  0  0  0  0  0  0  0  0  0  0  0
   -3.2366   -2.8584   -1.0127 C   0  0  0  0  0  0  0  0  0  0  0  0
   -2.5975    2.1825    1.4850 C   0  0  0  0  0  0  0  0  0  0  0  0
   -1.3591    2.4665   -0.5699 C   0  0  0  0  0  0  0  0  0  0  0  0
    3.0231    3.2325   -0.1816 C   0  0  0  0  0  0  0  0  0  0  0  0
   -3.5707    3.0676    1.0210 C   0  0  0  0  0  0  0  0  0  0  0  0
   -2.3321    3.3518   -1.0338 C   0  0  0  0  0  0  0  0  0  0  0  0
    5.5336    0.1134   -2.7400 C   0  0  0  0  0  0  0  0  0  0  0  0
   -3.4380    3.6523   -0.2385 C   0  0  0  0  0  0  0  0  0  0  0  0
   -5.5222   -2.5442   -1.4902 C   0  0  0  0  0  0  0  0  0  0  0  0
    1.1165   -0.0576    2.6518 H   0  0  0  0  0  0  0  0  0  0  0  0
    1.6074   -1.7281    2.6983 H   0  0  0  0  0  0  0  0  0  0  0  0
    2.0012    1.4476    0.9980 H   0  0  0  0  0  0  0  0  0  0  0  0
    3.2515   -2.6391    1.1146 H   0  0  0  0  0  0  0  0  0  0  0  0
    5.1597   -2.1282   -0.3480 H   0  0  0  0  0  0  0  0  0  0  0  0
   -1.2477   -4.1704    0.0114 H   0  0  0  0  0  0  0  0  0  0  0  0
   -2.7080    1.7357    2.4696 H   0  0  0  0  0  0  0  0  0  0  0  0
   -0.4994    2.2417   -1.1958 H   0  0  0  0  0  0  0  0  0  0  0  0
    3.3218    4.1860   -0.6297 H   0  0  0  0  0  0  0  0  0  0  0  0
    2.0191    3.0074   -0.5567 H   0  0  0  0  0  0  0  0  0  0  0  0
    3.0423    3.3732    0.9045 H   0  0  0  0  0  0  0  0  0  0  0  0
   -4.4313    3.3023    1.6403 H   0  0  0  0  0  0  0  0  0  0  0  0
   -2.2285    3.8077   -2.0140 H   0  0  0  0  0  0  0  0  0  0  0  0
    4.7539    0.8032   -3.0780 H   0  0  0  0  0  0  0  0  0  0  0  0
    5.2640   -0.9152   -2.9996 H   0  0  0  0  0  0  0  0  0  0  0  0
    6.4690    0.3680   -3.2456 H   0  0  0  0  0  0  0  0  0  0  0  0
   -5.3642   -2.5436   -2.5729 H   0  0  0  0  0  0  0  0  0  0  0  0
   -5.8009   -3.5429   -1.1405 H   0  0  0  0  0  0  0  0  0  0  0  0
   -6.3329   -1.8501   -1.2532 H   0  0  0  0  0  0  0  0  0  0  0  0
  1 13  1  0  0  0  0
  1 20  1  0  0  0  0
  2 29  1  0  0  0  0
  3 16  1  0  0  0  0
  3 25  1  0  0  0  0
  4 17  1  0  0  0  0
  4 28  1  0  0  0  0
  5 15  2  0  0  0  0
  6 22  1  0  0  0  0
  6 30  1  0  0  0  0
  7 22  2  0  0  0  0
  8 10  1  0  0  0  0
  8 13  1  0  0  0  0
  8 15  1  0  0  0  0
  9 13  2  0  0  0  0
  9 21  1  0  0  0  0
 10 11  1  0  0  0  0
 10 31  1  0  0  0  0
 10 32  1  0  0  0  0
 11 12  2  0  0  0  0
 11 14  1  0  0  0  0
 12 16  1  0  0  0  0
 12 33  1  0  0  0  0
 14 18  2  0  0  0  0
 14 34  1  0  0  0  0
 15 19  1  0  0  0  0
 16 17  2  0  0  0  0
 17 18  1  0  0  0  0
 18 35  1  0  0  0  0
 19 20  2  0  0  0  0
 19 36  1  0  0  0  0
 20 22  1  0  0  0  0
 21 23  2  0  0  0  0
 21 24  1  0  0  0  0
 23 26  1  0  0  0  0
 23 37  1  0  0  0  0
 24 27  2  0  0  0  0
 24 38  1  0  0  0  0
 25 39  1  0  0  0  0
 25 40  1  0  0  0  0
 25 41  1  0  0  0  0
 26 29  2  0  0  0  0
 26 42  1  0  0  0  0
 27 29  1  0  0  0  0
 27 43  1  0  0  0  0
 28 44  1  0  0  0  0
 28 45  1  0  0  0  0
 28 46  1  0  0  0  0
 30 47  1  0  0  0  0
 30 48  1  0  0  0  0
 30 49  1  0  0  0  0
M  END
> <PUBCHEM_COMPOUND_CID>
9550980

> <PUBCHEM_CONFORMER_RMSD>
0.8

> <PUBCHEM_CONFORMER_DIVERSEORDER>
22
44
40
33
37
18
19
20
10
42
32
31
23
24
29
38
28
39
34
30
16
43
26
12
17
41
4
36
14
11
21
25
5
7
15
27
2
8
35
9
13
3
1
6

> <PUBCHEM_MMFF94_PARTIAL_CHARGES>
38
1 -0.24
10 0.44
11 -0.14
12 -0.15
13 0.65
14 -0.15
15 0.62
16 0.08
17 0.08
18 -0.15
19 -0.14
2 -0.19
20 0.12
21 0.18
22 0.71
23 -0.15
24 -0.15
25 0.28
26 -0.15
27 -0.15
28 0.28
29 0.19
3 -0.36
30 0.28
33 0.15
34 0.15
35 0.15
36 0.15
37 0.15
38 0.15
4 -0.36
42 0.15
43 0.15
5 -0.57
6 -0.43
7 -0.57
8 -0.42
9 -0.63

> <PUBCHEM_EFFECTIVE_ROTOR_COUNT>
7

> <PUBCHEM_PHARMACOPHORE_FEATURES>
7
1 3 acceptor
1 4 acceptor
1 5 acceptor
1 7 acceptor
6 1 8 13 15 19 20 rings
6 11 12 14 16 17 18 rings
6 21 23 24 26 27 29 rings

> <PUBCHEM_HEAVY_ATOM_COUNT>
30

> <PUBCHEM_ATOM_DEF_STEREO_COUNT>
0

> <PUBCHEM_ATOM_UDEF_STEREO_COUNT>
0

> <PUBCHEM_BOND_DEF_STEREO_COUNT>
0

> <PUBCHEM_BOND_UDEF_STEREO_COUNT>
0

> <PUBCHEM_ISOTOPIC_ATOM_COUNT>
0

> <PUBCHEM_COMPONENT_COUNT>
1

> <PUBCHEM_CACTVS_TAUTO_COUNT>
1

> <PUBCHEM_CONFORMER_ID>
0091BC8400000016

> <PUBCHEM_MMFF94_ENERGY>
119.807

> <PUBCHEM_FEATURE_SELFOVERLAP>
35.528

> <PUBCHEM_SHAPE_FINGERPRINT>
10675989 125 18119515776862541201
10871710 139 18334863818123897091
12788726 201 18337663213256735939
13540713 5 18188196594962381442
13583140 156 16375501997052621803
14251757 5 18340760533712968759
1454969 45 18337397046398147017
14681490 219 18194675106298297837
14790565 3 18409729586761308505
14840074 17 18336837412032611417
15210252 30 17826778541161317085
15276724 80 18412831312925747463
15475509 8 18200600327664752255
17980427 26 16952813844038221907
19311894 1 18270973323585557216
20642791 239 17678170710225533431
21285901 2 17917153908771484463
21641784 216 18334853939751870733
21756936 100 17604733113615848696
22393880 68 18343312453240895382
22907989 373 18342725317783402301
23227448 37 18337112250367068369
23558518 356 18336817641628312930
244849 19 17060038355655066226
25147074 1 18187635861328038506
3298306 158 17972045738487747160
3388396 114 17614306758674923652
340366 18 17979071579282521962
3552219 110 15507491782037288450
38695281 34 18050285860670666617
4353968 344 18196940092585443236
57307002 19 17045401931555186792
6371009 1 17901384812639975396
7164475 11 18339912792646006618

> <PUBCHEM_SHAPE_MULTIPOLES>
574.65
10.8
5.77
1.74
7.44
1.79
-0.45
1.04
-6.84
-8.84
-1.07
0.84
-0.5
-2.47

> <PUBCHEM_SHAPE_SELFOVERLAP>
1227.436

> <PUBCHEM_SHAPE_VOLUME>
322.1

> <PUBCHEM_COORDINATE_TYPE>
2
5
10

$$$$
