864329
  -OEChem-01171809213D

 42 43  0     0  0  0  0  0  0999 V2000
    4.4915    0.1568    0.4369 S   0  0  0  0  0  0  0  0  0  0  0  0
    1.8135   -1.6076    1.4816 O   0  0  0  0  0  0  0  0  0  0  0  0
    8.0909    0.9380   -0.8035 O   0  0  0  0  0  0  0  0  0  0  0  0
    6.9843    1.6035    1.0668 O   0  0  0  0  0  0  0  0  0  0  0  0
    1.3583   -0.6535   -0.6216 N   0  0  0  0  0  0  0  0  0  0  0  0
   -4.2395    0.3977   -0.4212 C   0  0  0  0  0  0  0  0  0  0  0  0
   -5.0603   -0.8954   -0.2736 C   0  0  0  0  0  0  0  0  0  0  0  0
   -4.5936    1.4044    0.6874 C   0  0  0  0  0  0  0  0  0  0  0  0
   -6.5594   -0.6034   -0.2305 C   0  0  0  0  0  0  0  0  0  0  0  0
   -6.0945    1.6869    0.7265 C   0  0  0  0  0  0  0  0  0  0  0  0
   -6.9060    0.4019    0.8639 C   0  0  0  0  0  0  0  0  0  0  0  0
   -2.7486    0.1182   -0.4745 C   0  0  0  0  0  0  0  0  0  0  0  0
   -2.0211    0.4479   -1.6156 C   0  0  0  0  0  0  0  0  0  0  0  0
   -2.1132   -0.4677    0.6182 C   0  0  0  0  0  0  0  0  0  0  0  0
   -0.6512    0.1904   -1.6648 C   0  0  0  0  0  0  0  0  0  0  0  0
   -0.7432   -0.7252    0.5692 C   0  0  0  0  0  0  0  0  0  0  0  0
   -0.0120   -0.3960   -0.5723 C   0  0  0  0  0  0  0  0  0  0  0  0
    2.1676   -1.2311    0.3672 C   0  0  0  0  0  0  0  0  0  0  0  0
    3.6157   -1.3470   -0.0584 C   0  0  0  0  0  0  0  0  0  0  0  0
    6.1338   -0.2708   -0.1874 C   0  0  0  0  0  0  0  0  0  0  0  0
    7.0870    0.8519    0.1057 C   0  0  0  0  0  0  0  0  0  0  0  0
   -4.5330    0.8566   -1.3766 H   0  0  0  0  0  0  0  0  0  0  0  0
   -4.7810   -1.4318    0.6419 H   0  0  0  0  0  0  0  0  0  0  0  0
   -4.8472   -1.5735   -1.1094 H   0  0  0  0  0  0  0  0  0  0  0  0
   -4.0519    2.3452    0.5282 H   0  0  0  0  0  0  0  0  0  0  0  0
   -4.2819    1.0278    1.6697 H   0  0  0  0  0  0  0  0  0  0  0  0
   -6.8829   -0.2114   -1.2026 H   0  0  0  0  0  0  0  0  0  0  0  0
   -7.1111   -1.5353   -0.0629 H   0  0  0  0  0  0  0  0  0  0  0  0
   -6.3913    2.2103   -0.1907 H   0  0  0  0  0  0  0  0  0  0  0  0
   -6.3212    2.3570    1.5635 H   0  0  0  0  0  0  0  0  0  0  0  0
   -6.7134   -0.0475    1.8459 H   0  0  0  0  0  0  0  0  0  0  0  0
   -7.9758    0.6358    0.8238 H   0  0  0  0  0  0  0  0  0  0  0  0
   -2.5044    0.9052   -2.4746 H   0  0  0  0  0  0  0  0  0  0  0  0
   -2.6641   -0.7320    1.5164 H   0  0  0  0  0  0  0  0  0  0  0  0
   -0.0939    0.4521   -2.5607 H   0  0  0  0  0  0  0  0  0  0  0  0
   -0.3209   -1.1820    1.4531 H   0  0  0  0  0  0  0  0  0  0  0  0
    1.8179   -0.3815   -1.4880 H   0  0  0  0  0  0  0  0  0  0  0  0
    3.6854   -1.4874   -1.1414 H   0  0  0  0  0  0  0  0  0  0  0  0
    4.0547   -2.2209    0.4332 H   0  0  0  0  0  0  0  0  0  0  0  0
    6.5063   -1.1807    0.2908 H   0  0  0  0  0  0  0  0  0  0  0  0
    6.0695   -0.4152   -1.2699 H   0  0  0  0  0  0  0  0  0  0  0  0
    8.7101    1.6703   -0.5968 H   0  0  0  0  0  0  0  0  0  0  0  0
  1 19  1  0  0  0  0
  1 20  1  0  0  0  0
  2 18  2  0  0  0  0
  3 21  1  0  0  0  0
  3 42  1  0  0  0  0
  4 21  2  0  0  0  0
  5 17  1  0  0  0  0
  5 18  1  0  0  0  0
  5 37  1  0  0  0  0
  6  7  1  0  0  0  0
  6  8  1  0  0  0  0
  6 12  1  0  0  0  0
  6 22  1  0  0  0  0
  7  9  1  0  0  0  0
  7 23  1  0  0  0  0
  7 24  1  0  0  0  0
  8 10  1  0  0  0  0
  8 25  1  0  0  0  0
  8 26  1  0  0  0  0
  9 11  1  0  0  0  0
  9 27  1  0  0  0  0
  9 28  1  0  0  0  0
 10 11  1  0  0  0  0
 10 29  1  0  0  0  0
 10 30  1  0  0  0  0
 11 31  1  0  0  0  0
 11 32  1  0  0  0  0
 12 13  2  0  0  0  0
 12 14  1  0  0  0  0
 13 15  1  0  0  0  0
 13 33  1  0  0  0  0
 14 16  2  0  0  0  0
 14 34  1  0  0  0  0
 15 17  2  0  0  0  0
 15 35  1  0  0  0  0
 16 17  1  0  0  0  0
 16 36  1  0  0  0  0
 18 19  1  0  0  0  0
 19 38  1  0  0  0  0
 19 39  1  0  0  0  0
 20 21  1  0  0  0  0
 20 40  1  0  0  0  0
 20 41  1  0  0  0  0
M  END
> <PUBCHEM_COMPOUND_CID>
864329

> <PUBCHEM_CONFORMER_RMSD>
0.8

> <PUBCHEM_CONFORMER_DIVERSEORDER>
1
89
65
54
125
28
97
101
122
20
40
62
3
116
68
35
83
113
46
79
39
53
76
114
60
41
84
49
120
33
17
123
57
81
5
64
13
23
87
70
99
94
48
80
115
69
2
118
44
47
15
75
59
7
107
103
78
43
91
4
66
105
117
100
110
108
21
104
9
67
96
36
111
90
16
29
27
25
88
124
63
121
55
8
86
50
34
82
77
92
52
109
10
95
98
106
19
119
58
112
12
24
61
45
30
56
73
6
71
18
72
38
26
14
74
22
32
102
85
37
93
31
42
11
51

> <PUBCHEM_MMFF94_PARTIAL_CHARGES>
22
1 -0.46
12 -0.14
13 -0.15
14 -0.15
15 -0.15
16 -0.15
17 0.12
18 0.57
19 0.29
2 -0.57
20 0.29
21 0.66
3 -0.65
33 0.15
34 0.15
35 0.15
36 0.15
37 0.37
4 -0.57
42 0.5
5 -0.55
6 0.14

> <PUBCHEM_EFFECTIVE_ROTOR_COUNT>
8.2

> <PUBCHEM_PHARMACOPHORE_FEATURES>
7
1 2 acceptor
1 3 acceptor
1 4 acceptor
1 5 donor
3 3 4 21 anion
6 12 13 14 15 16 17 rings
6 6 7 8 9 10 11 rings

> <PUBCHEM_HEAVY_ATOM_COUNT>
21

> <PUBCHEM_ATOM_DEF_STEREO_COUNT>
0

> <PUBCHEM_ATOM_UDEF_STEREO_COUNT>
0

> <PUBCHEM_BOND_DEF_STEREO_COUNT>
0

> <PUBCHEM_BOND_UDEF_STEREO_COUNT>
0

> <PUBCHEM_ISOTOPIC_ATOM_COUNT>
0

> <PUBCHEM_COMPONENT_COUNT>
1

> <PUBCHEM_CACTVS_TAUTO_COUNT>
2

> <PUBCHEM_CONFORMER_ID>
000D304900000001

> <PUBCHEM_MMFF94_ENERGY>
44.258

> <PUBCHEM_FEATURE_SELFOVERLAP>
35.579

> <PUBCHEM_SHAPE_FINGERPRINT>
10 15 16443067214450002612
106641 1 18186526514414558161
10670039 82 15338846330399741235
11315181 36 18410011040611296551
11719270 70 13406793311882799976
12236239 1 17989203733492648102
12596602 18 18338518539166923003
12643181 29 13110957631045057716
12838862 33 16878213234836006011
13073987 5 16950838090241018043
13533116 47 17968373426013214378
13540713 4 14116361027544093654
13668630 136 10737282438030798992
13685833 64 8502657004771972794
13914758 101 7997697514306803942
14251752 14 16200432447019297458
14251757 52 17846494838242906976
14251764 18 18334012804534747348
14251764 46 17385724703244758847
14849402 71 18335707199335746148
14933364 13 18060139829754137192
15048467 5 18341894078001916312
15183329 4 13758076281640337614
15188451 53 12612750212259305628
15690457 1 12540700344350949161
15706992 2 18130804343124461761
15849732 13 17418375809180966260
17834072 8 13830128390825660894
18335252 98 18060143154317859063
19377110 9 17603581898422676888
20281389 69 18409445869621959984
20735858 18 16732702748891908722
21150785 3 17060620005458198108
21307412 95 12175624031567462812
2215653 11 12463568487376738124
22224240 67 17675924309264886778
23576562 1 16127788869467266417
28498 318 9439411224074218762
29717793 49 10952045672086543218
4073 2 18408609170869242330
4325135 7 18335419084164769111
444769 64 11239997876022940365
5104073 3 16734097925820622976
559249 180 7853570210697840137
5758199 1 18260831501197449258
59682541 35 17458350766132180569
59682541 52 17203343187246260028
59755656 520 18273207616870087934
9689198 14 17989490731908155556

> <PUBCHEM_SHAPE_MULTIPOLES>
413.43
21.7
1.41
1.21
23.06
0.25
-0.23
9.33
2.68
0.28
0.37
-0.17
0.02
-0.54

> <PUBCHEM_SHAPE_SELFOVERLAP>
836.53

> <PUBCHEM_SHAPE_VOLUME>
240.9

> <PUBCHEM_COORDINATE_TYPE>
2
5
10

$$$$
