16189172
  -OEChem-01171809423D

 71 75  0     0  0  0  0  0  0999 V2000
    3.0558    4.6687   -0.9007 S   0  0  0  0  0  0  0  0  0  0  0  0
    4.2311   -0.0256    0.1259 N   0  0  0  0  0  0  0  0  0  0  0  0
   -5.3619   -0.8549   -0.0090 N   0  0  0  0  0  0  0  0  0  0  0  0
    2.5234    2.1561   -0.3302 N   0  0  0  0  0  0  0  0  0  0  0  0
   -7.8891   -2.1303    0.3735 N   0  0  0  0  0  0  0  0  0  0  0  0
    0.8746    3.7266    0.3058 N   0  0  0  0  0  0  0  0  0  0  0  0
   -3.8304    0.8002    0.8033 N   0  0  0  0  0  0  0  0  0  0  0  0
    4.5750    0.9483   -0.9240 C   0  0  0  0  0  0  0  0  0  0  0  0
    3.4154    0.4875    1.2362 C   0  0  0  0  0  0  0  0  0  0  0  0
    3.3158    1.6425   -1.4368 C   0  0  0  0  0  0  0  0  0  0  0  0
    2.1707    1.1920    0.6998 C   0  0  0  0  0  0  0  0  0  0  0  0
   -5.8481   -1.1333    1.3483 C   0  0  0  0  0  0  0  0  0  0  0  0
   -6.3938   -0.7661   -1.0467 C   0  0  0  0  0  0  0  0  0  0  0  0
   -6.8032   -2.3290    1.3415 C   0  0  0  0  0  0  0  0  0  0  0  0
   -7.3325   -1.9731   -0.9757 C   0  0  0  0  0  0  0  0  0  0  0  0
    5.1251   -1.0779    0.3530 C   0  0  0  0  0  0  0  0  0  0  0  0
   -4.1755   -0.1255   -0.1457 C   0  0  0  0  0  0  0  0  0  0  0  0
    2.0902    3.4394   -0.2915 C   0  0  0  0  0  0  0  0  0  0  0  0
    5.0286   -2.3146   -0.3314 C   0  0  0  0  0  0  0  0  0  0  0  0
   -8.8249   -3.2533    0.4149 C   0  0  0  0  0  0  0  0  0  0  0  0
   -3.3684   -0.3659   -1.2597 C   0  0  0  0  0  0  0  0  0  0  0  0
   -1.8262    1.3040   -0.4363 C   0  0  0  0  0  0  0  0  0  0  0  0
    6.1763   -0.9412    1.2913 C   0  0  0  0  0  0  0  0  0  0  0  0
   -2.1908    0.3542   -1.4002 C   0  0  0  0  0  0  0  0  0  0  0  0
   -2.6872    1.4977    0.6642 C   0  0  0  0  0  0  0  0  0  0  0  0
    5.9298   -3.3518   -0.0908 C   0  0  0  0  0  0  0  0  0  0  0  0
   -0.3029    2.9877    0.4216 C   0  0  0  0  0  0  0  0  0  0  0  0
   -0.6408    2.0500   -0.5499 C   0  0  0  0  0  0  0  0  0  0  0  0
    3.9302   -2.4982   -1.3312 C   0  0  0  0  0  0  0  0  0  0  0  0
    7.0776   -1.9783    1.5318 C   0  0  0  0  0  0  0  0  0  0  0  0
   -2.3246    2.4418    1.6211 C   0  0  0  0  0  0  0  0  0  0  0  0
    6.9542   -3.1836    0.8408 C   0  0  0  0  0  0  0  0  0  0  0  0
   -1.1461    3.1835    1.5084 C   0  0  0  0  0  0  0  0  0  0  0  0
   -1.3472    0.0747   -2.6044 C   0  0  0  0  0  0  0  0  0  0  0  0
    5.8201   -4.6522   -0.8172 C   0  0  0  0  0  0  0  0  0  0  0  0
    5.0728    0.4526   -1.7663 H   0  0  0  0  0  0  0  0  0  0  0  0
    5.2740    1.6871   -0.5128 H   0  0  0  0  0  0  0  0  0  0  0  0
    4.0141    1.1894    1.8300 H   0  0  0  0  0  0  0  0  0  0  0  0
    3.1046   -0.3308    1.8970 H   0  0  0  0  0  0  0  0  0  0  0  0
    2.6814    0.9053   -1.9470 H   0  0  0  0  0  0  0  0  0  0  0  0
    3.5697    2.3892   -2.1925 H   0  0  0  0  0  0  0  0  0  0  0  0
    1.6632    1.6627    1.5461 H   0  0  0  0  0  0  0  0  0  0  0  0
    1.4999    0.4509    0.2504 H   0  0  0  0  0  0  0  0  0  0  0  0
   -6.3554   -0.2452    1.7467 H   0  0  0  0  0  0  0  0  0  0  0  0
   -5.0101   -1.3670    2.0168 H   0  0  0  0  0  0  0  0  0  0  0  0
   -6.9622    0.1630   -0.9105 H   0  0  0  0  0  0  0  0  0  0  0  0
   -5.9560   -0.7313   -2.0507 H   0  0  0  0  0  0  0  0  0  0  0  0
   -6.2425   -3.2454    1.1123 H   0  0  0  0  0  0  0  0  0  0  0  0
   -7.2163   -2.4433    2.3511 H   0  0  0  0  0  0  0  0  0  0  0  0
   -6.7893   -2.8783   -1.2794 H   0  0  0  0  0  0  0  0  0  0  0  0
   -8.1421   -1.8201   -1.6996 H   0  0  0  0  0  0  0  0  0  0  0  0
   -8.3443   -4.2046    0.1591 H   0  0  0  0  0  0  0  0  0  0  0  0
   -9.6545   -3.0879   -0.2816 H   0  0  0  0  0  0  0  0  0  0  0  0
   -9.2676   -3.3479    1.4127 H   0  0  0  0  0  0  0  0  0  0  0  0
   -3.6509   -1.1143   -1.9950 H   0  0  0  0  0  0  0  0  0  0  0  0
    6.2955   -0.0084    1.8391 H   0  0  0  0  0  0  0  0  0  0  0  0
    0.8253    4.6522    0.7266 H   0  0  0  0  0  0  0  0  0  0  0  0
    0.0101    1.9205   -1.4106 H   0  0  0  0  0  0  0  0  0  0  0  0
    4.3171   -2.3469   -2.3442 H   0  0  0  0  0  0  0  0  0  0  0  0
    3.0956   -1.8065   -1.1795 H   0  0  0  0  0  0  0  0  0  0  0  0
    3.4886   -3.4978   -1.2640 H   0  0  0  0  0  0  0  0  0  0  0  0
    7.8758   -1.8471    2.2564 H   0  0  0  0  0  0  0  0  0  0  0  0
   -2.9681    2.6135    2.4820 H   0  0  0  0  0  0  0  0  0  0  0  0
    7.6643   -3.9817    1.0411 H   0  0  0  0  0  0  0  0  0  0  0  0
   -0.9005    3.9096    2.2793 H   0  0  0  0  0  0  0  0  0  0  0  0
   -1.7832   -0.7048   -3.2393 H   0  0  0  0  0  0  0  0  0  0  0  0
   -1.2496    0.9732   -3.2229 H   0  0  0  0  0  0  0  0  0  0  0  0
   -0.3537   -0.2763   -2.3058 H   0  0  0  0  0  0  0  0  0  0  0  0
    6.6910   -5.2914   -0.6329 H   0  0  0  0  0  0  0  0  0  0  0  0
    4.9341   -5.2030   -0.4857 H   0  0  0  0  0  0  0  0  0  0  0  0
    5.7703   -4.4943   -1.8996 H   0  0  0  0  0  0  0  0  0  0  0  0
  1 18  2  0  0  0  0
  2  8  1  0  0  0  0
  2  9  1  0  0  0  0
  2 16  1  0  0  0  0
  3 12  1  0  0  0  0
  3 13  1  0  0  0  0
  3 17  1  0  0  0  0
  4 10  1  0  0  0  0
  4 11  1  0  0  0  0
  4 18  1  0  0  0  0
  5 14  1  0  0  0  0
  5 15  1  0  0  0  0
  5 20  1  0  0  0  0
  6 18  1  0  0  0  0
  6 27  1  0  0  0  0
  6 57  1  0  0  0  0
  7 17  2  0  0  0  0
  7 25  1  0  0  0  0
  8 10  1  0  0  0  0
  8 36  1  0  0  0  0
  8 37  1  0  0  0  0
  9 11  1  0  0  0  0
  9 38  1  0  0  0  0
  9 39  1  0  0  0  0
 10 40  1  0  0  0  0
 10 41  1  0  0  0  0
 11 42  1  0  0  0  0
 11 43  1  0  0  0  0
 12 14  1  0  0  0  0
 12 44  1  0  0  0  0
 12 45  1  0  0  0  0
 13 15  1  0  0  0  0
 13 46  1  0  0  0  0
 13 47  1  0  0  0  0
 14 48  1  0  0  0  0
 14 49  1  0  0  0  0
 15 50  1  0  0  0  0
 15 51  1  0  0  0  0
 16 19  1  0  0  0  0
 16 23  2  0  0  0  0
 17 21  1  0  0  0  0
 19 26  2  0  0  0  0
 19 29  1  0  0  0  0
 20 52  1  0  0  0  0
 20 53  1  0  0  0  0
 20 54  1  0  0  0  0
 21 24  2  0  0  0  0
 21 55  1  0  0  0  0
 22 24  1  0  0  0  0
 22 25  2  0  0  0  0
 22 28  1  0  0  0  0
 23 30  1  0  0  0  0
 23 56  1  0  0  0  0
 24 34  1  0  0  0  0
 25 31  1  0  0  0  0
 26 32  1  0  0  0  0
 26 35  1  0  0  0  0
 27 28  2  0  0  0  0
 27 33  1  0  0  0  0
 28 58  1  0  0  0  0
 29 59  1  0  0  0  0
 29 60  1  0  0  0  0
 29 61  1  0  0  0  0
 30 32  2  0  0  0  0
 30 62  1  0  0  0  0
 31 33  2  0  0  0  0
 31 63  1  0  0  0  0
 32 64  1  0  0  0  0
 33 65  1  0  0  0  0
 34 66  1  0  0  0  0
 34 67  1  0  0  0  0
 34 68  1  0  0  0  0
 35 69  1  0  0  0  0
 35 70  1  0  0  0  0
 35 71  1  0  0  0  0
M  END
> <PUBCHEM_COMPOUND_CID>
16189172

> <PUBCHEM_CONFORMER_RMSD>
1

> <PUBCHEM_CONFORMER_DIVERSEORDER>
1
50
82
64
55
98
3
65
102
13
96
80
38
51
27
33
104
7
24
43
52
28
73
94
37
35
42
25
14
93
95
45
47
86
44
46
34
18
57
66
29
79
22
49
56
41
32
78
62
84
103
40
105
83
12
6
63
97
21
30
89
67
60
70
72
69
5
68
106
15
59
4
26
10
90
48
36
76
74
77
2
53
31
23
8
11
54
87
39
9
85
61
88
100
20
17
58
81
107
71
16
101
75
92
19
91
99

> <PUBCHEM_MMFF94_PARTIAL_CHARGES>
42
1 -0.38
10 0.3
11 0.3
12 0.37
13 0.37
14 0.27
15 0.27
16 0.1
17 0.41
18 0.5
19 -0.14
2 -0.84
20 0.27
21 -0.15
23 -0.15
24 -0.14
25 0.31
26 -0.14
27 0.12
28 -0.15
29 0.14
3 -0.84
30 -0.15
31 -0.15
32 -0.15
33 -0.15
34 0.14
35 0.14
4 -0.66
5 -0.81
55 0.15
56 0.15
57 0.37
58 0.15
6 -0.55
62 0.15
63 0.15
64 0.15
65 0.15
7 -0.62
8 0.37
9 0.37

> <PUBCHEM_EFFECTIVE_ROTOR_COUNT>
7.4

> <PUBCHEM_PHARMACOPHORE_FEATURES>
10
1 1 acceptor
1 2 cation
1 5 cation
1 6 donor
3 3 7 17 cation
6 16 19 23 26 30 32 rings
6 2 4 8 9 10 11 rings
6 22 25 27 28 31 33 rings
6 3 5 12 13 14 15 rings
6 7 17 21 22 24 25 rings

> <PUBCHEM_HEAVY_ATOM_COUNT>
35

> <PUBCHEM_ATOM_DEF_STEREO_COUNT>
0

> <PUBCHEM_ATOM_UDEF_STEREO_COUNT>
0

> <PUBCHEM_BOND_DEF_STEREO_COUNT>
0

> <PUBCHEM_BOND_UDEF_STEREO_COUNT>
0

> <PUBCHEM_ISOTOPIC_ATOM_COUNT>
0

> <PUBCHEM_COMPONENT_COUNT>
1

> <PUBCHEM_CACTVS_TAUTO_COUNT>
2

> <PUBCHEM_CONFORMER_ID>
00F706F400000001

> <PUBCHEM_MMFF94_ENERGY>
151.9658

> <PUBCHEM_FEATURE_SELFOVERLAP>
50.779

> <PUBCHEM_SHAPE_FINGERPRINT>
10258705 36 17898862503122750011
10305334 12 18125168126139688625
10319688 140 18337392768004246756
10556698 54 14345790565461272670
10622 236 18412265004055108904
11399510 152 17631718380045870400
11409948 35 18337953502640682219
11578821 258 9294474697758397427
117089 54 18339651031596188350
11828532 37 18041005093368856779
12061779 8 12893920722928549578
12166972 35 17967255278136679724
12342043 65 18114453535350608925
12422481 6 17416976031914971324
12559416 138 18267007372476253566
12655387 17 18267884795882174421
13165053 103 18059282155746592927
13533116 47 18267304407992246649
13782708 43 18113333137639412503
13947930 73 18187367665873761738
14344974 204 18122903124003879802
14359421 15 17603857871805609395
15131766 46 9439402398396389083
15347591 1 18409166632466499293
15510800 12 18334570243892446186
16628084 112 18411420644335047829
16728300 4 18272652333917930397
16994733 274 10952048949167760695
17492 89 18411703158093080808
19301679 30 18271811189641354565
19303781 99 18337656568905613534
19304671 126 11458424605481744562
19319366 153 17981891049160950812
19438510 23 11167934762556157812
19841028 212 18407758144489317955
20587220 46 18130797814563278806
20691028 202 9871451133065699618
20771845 140 16773248391718720047
208703 8 18409442553685622594
21033648 29 13398637190378278765
21814621 53 18041548235655366957
23569914 2 13036953734033440915
23569943 247 18409167732357585219
2838139 119 10303548156267862889
3383291 50 18408881836910415707
3472631 163 10809343338644990345
3862424 121 16371877177968011859
3886686 26 17409666358633864031
406291 66 18409727339903303130
4435113 14 17751933664142191755
4461854 278 17918273169345040966
45270241 37 17972604561484539005
474113 269 18272081704869153351
4756326 101 13624679228314655182
50742298 180 18410569566227411090
513202 73 18408324385321604581
54039377 194 18409730643365818606
56633871 153 18273206504394124999
5718773 13 18408601448459222803
57676310 184 17265835927302424774
58260988 647 18260550065318530249
6058803 2 18196118614753756024
70251023 43 18408041835891433104
7970288 3 18410009906017568842
9555976 147 17560254526819577745
9849439 229 9799685991772130916
9962374 69 18339069514261392991

> <PUBCHEM_SHAPE_MULTIPOLES>
694.25
22.58
5.86
1.68
22.64
1.06
0.27
-35.22
-4.43
-6.51
0.04
0.26
0.04
-0.62

> <PUBCHEM_SHAPE_SELFOVERLAP>
1482.721

> <PUBCHEM_SHAPE_VOLUME>
388.6

> <PUBCHEM_COORDINATE_TYPE>
2
5
10

$$$$
