1518979
  -OEChem-01171809243D

 52 54  0     0  0  0  0  0  0999 V2000
   -3.4609    4.1008   -2.4459 Cl  0  0  0  0  0  0  0  0  0  0  0  0
   -2.9236   -0.4656    0.1942 S   0  0  0  0  0  0  0  0  0  0  0  0
   -4.6908    4.8356    0.1489 F   0  0  0  0  0  0  0  0  0  0  0  0
    5.5906    2.0149    0.1185 O   0  0  0  0  0  0  0  0  0  0  0  0
    7.3361   -0.1432    0.2668 O   0  0  0  0  0  0  0  0  0  0  0  0
    0.0047   -3.7333    0.5068 O   0  0  0  0  0  0  0  0  0  0  0  0
   -4.4770   -3.7865   -0.8031 O   0  0  0  0  0  0  0  0  0  0  0  0
   -5.5101   -2.0159    0.2724 O   0  0  0  0  0  0  0  0  0  0  0  0
   -0.3844   -1.4222    0.5384 N   0  0  0  0  0  0  0  0  0  0  0  0
   -0.7969    0.9325    0.5646 N   0  0  0  0  0  0  0  0  0  0  0  0
    1.8198   -1.0128   -0.5446 C   0  0  0  0  0  0  0  0  0  0  0  0
    1.0423   -1.1668    0.7602 C   0  0  0  0  0  0  0  0  0  0  0  0
    3.2942   -0.7767   -0.3269 C   0  0  0  0  0  0  0  0  0  0  0  0
    3.7640    0.5216   -0.2041 C   0  0  0  0  0  0  0  0  0  0  0  0
   -1.2137   -0.2878    0.4572 C   0  0  0  0  0  0  0  0  0  0  0  0
    4.1529   -1.8624   -0.2547 C   0  0  0  0  0  0  0  0  0  0  0  0
   -0.7645   -2.7727    0.4315 C   0  0  0  0  0  0  0  0  0  0  0  0
    5.1271    0.7398   -0.0038 C   0  0  0  0  0  0  0  0  0  0  0  0
    5.5160   -1.6443   -0.0544 C   0  0  0  0  0  0  0  0  0  0  0  0
    6.0030   -0.3432    0.0711 C   0  0  0  0  0  0  0  0  0  0  0  0
   -2.1982   -3.0731    0.2099 C   0  0  0  0  0  0  0  0  0  0  0  0
   -3.1499   -2.1492    0.1022 C   0  0  0  0  0  0  0  0  0  0  0  0
   -1.7854    1.9231    0.4545 C   0  0  0  0  0  0  0  0  0  0  0  0
   -4.5219   -2.6167   -0.1173 C   0  0  0  0  0  0  0  0  0  0  0  0
   -2.0954    2.4568   -0.7936 C   0  0  0  0  0  0  0  0  0  0  0  0
   -2.4503    2.3668    1.5945 C   0  0  0  0  0  0  0  0  0  0  0  0
    4.6298    3.0651    0.0302 C   0  0  0  0  0  0  0  0  0  0  0  0
    8.1468    0.0075   -0.8970 C   0  0  0  0  0  0  0  0  0  0  0  0
   -3.0774    3.4414   -0.9025 C   0  0  0  0  0  0  0  0  0  0  0  0
   -3.4323    3.3514    1.4857 C   0  0  0  0  0  0  0  0  0  0  0  0
   -3.7458    3.8885    0.2372 C   0  0  0  0  0  0  0  0  0  0  0  0
   -5.7491   -4.3732   -1.0970 C   0  0  0  0  0  0  0  0  0  0  0  0
    1.4008   -0.1898   -1.1386 H   0  0  0  0  0  0  0  0  0  0  0  0
    1.6844   -1.9062   -1.1688 H   0  0  0  0  0  0  0  0  0  0  0  0
    1.1659   -0.2698    1.3793 H   0  0  0  0  0  0  0  0  0  0  0  0
    1.4655   -1.9930    1.3456 H   0  0  0  0  0  0  0  0  0  0  0  0
    3.0336    1.3206   -0.2681 H   0  0  0  0  0  0  0  0  0  0  0  0
    3.7824   -2.8792   -0.3490 H   0  0  0  0  0  0  0  0  0  0  0  0
    6.1925   -2.4927    0.0042 H   0  0  0  0  0  0  0  0  0  0  0  0
   -2.4106   -4.1385    0.1671 H   0  0  0  0  0  0  0  0  0  0  0  0
   -1.5681    2.1082   -1.6791 H   0  0  0  0  0  0  0  0  0  0  0  0
   -2.2102    1.9578    2.5725 H   0  0  0  0  0  0  0  0  0  0  0  0
    5.1726    4.0088    0.1477 H   0  0  0  0  0  0  0  0  0  0  0  0
    4.1527    3.0942   -0.9554 H   0  0  0  0  0  0  0  0  0  0  0  0
    3.9005    3.0149    0.8459 H   0  0  0  0  0  0  0  0  0  0  0  0
    7.8237    0.8742   -1.4822 H   0  0  0  0  0  0  0  0  0  0  0  0
    8.1069   -0.8974   -1.5116 H   0  0  0  0  0  0  0  0  0  0  0  0
    9.1799    0.1674   -0.5765 H   0  0  0  0  0  0  0  0  0  0  0  0
   -3.9520    3.7006    2.3730 H   0  0  0  0  0  0  0  0  0  0  0  0
   -6.2811   -4.6076   -0.1700 H   0  0  0  0  0  0  0  0  0  0  0  0
   -6.3414   -3.6989   -1.7228 H   0  0  0  0  0  0  0  0  0  0  0  0
   -5.5762   -5.3019   -1.6471 H   0  0  0  0  0  0  0  0  0  0  0  0
  1 29  1  0  0  0  0
  2 15  1  0  0  0  0
  2 22  1  0  0  0  0
  3 31  1  0  0  0  0
  4 18  1  0  0  0  0
  4 27  1  0  0  0  0
  5 20  1  0  0  0  0
  5 28  1  0  0  0  0
  6 17  2  0  0  0  0
  7 24  1  0  0  0  0
  7 32  1  0  0  0  0
  8 24  2  0  0  0  0
  9 12  1  0  0  0  0
  9 15  1  0  0  0  0
  9 17  1  0  0  0  0
 10 15  2  0  0  0  0
 10 23  1  0  0  0  0
 11 12  1  0  0  0  0
 11 13  1  0  0  0  0
 11 33  1  0  0  0  0
 11 34  1  0  0  0  0
 12 35  1  0  0  0  0
 12 36  1  0  0  0  0
 13 14  2  0  0  0  0
 13 16  1  0  0  0  0
 14 18  1  0  0  0  0
 14 37  1  0  0  0  0
 16 19  2  0  0  0  0
 16 38  1  0  0  0  0
 17 21  1  0  0  0  0
 18 20  2  0  0  0  0
 19 20  1  0  0  0  0
 19 39  1  0  0  0  0
 21 22  2  0  0  0  0
 21 40  1  0  0  0  0
 22 24  1  0  0  0  0
 23 25  2  0  0  0  0
 23 26  1  0  0  0  0
 25 29  1  0  0  0  0
 25 41  1  0  0  0  0
 26 30  2  0  0  0  0
 26 42  1  0  0  0  0
 27 43  1  0  0  0  0
 27 44  1  0  0  0  0
 27 45  1  0  0  0  0
 28 46  1  0  0  0  0
 28 47  1  0  0  0  0
 28 48  1  0  0  0  0
 29 31  2  0  0  0  0
 30 31  1  0  0  0  0
 30 49  1  0  0  0  0
 32 50  1  0  0  0  0
 32 51  1  0  0  0  0
 32 52  1  0  0  0  0
M  END
> <PUBCHEM_COMPOUND_CID>
1518979

> <PUBCHEM_CONFORMER_RMSD>
1

> <PUBCHEM_CONFORMER_DIVERSEORDER>
1
58
36
47
24
48
19
9
25
41
42
27
56
18
7
23
8
16
44
10
57
28
3
54
11
49
31
29
17
60
5
59
14
34
51
46
6
20
45
26
40
21
55
13
38
43
12
35
22
50
2
30
4
52
53
37
33
15
32
39

> <PUBCHEM_MMFF94_PARTIAL_CHARGES>
39
1 -0.18
10 -0.63
11 0.14
12 0.3
13 -0.14
14 -0.15
15 0.65
16 -0.15
17 0.62
18 0.08
19 -0.15
2 -0.24
20 0.08
21 -0.14
22 0.12
23 0.18
24 0.71
25 -0.15
26 -0.15
27 0.28
28 0.28
29 0.18
3 -0.19
30 -0.15
31 0.19
32 0.28
37 0.15
38 0.15
39 0.15
4 -0.36
40 0.15
41 0.15
42 0.15
49 0.15
5 -0.36
6 -0.57
7 -0.43
8 -0.57
9 -0.42

> <PUBCHEM_EFFECTIVE_ROTOR_COUNT>
8

> <PUBCHEM_PHARMACOPHORE_FEATURES>
7
1 4 acceptor
1 5 acceptor
1 6 acceptor
1 8 acceptor
6 13 14 16 18 19 20 rings
6 2 9 15 17 21 22 rings
6 23 25 26 29 30 31 rings

> <PUBCHEM_HEAVY_ATOM_COUNT>
32

> <PUBCHEM_ATOM_DEF_STEREO_COUNT>
0

> <PUBCHEM_ATOM_UDEF_STEREO_COUNT>
0

> <PUBCHEM_BOND_DEF_STEREO_COUNT>
0

> <PUBCHEM_BOND_UDEF_STEREO_COUNT>
0

> <PUBCHEM_ISOTOPIC_ATOM_COUNT>
0

> <PUBCHEM_COMPONENT_COUNT>
1

> <PUBCHEM_CACTVS_TAUTO_COUNT>
1

> <PUBCHEM_CONFORMER_ID>
00172D8300000001

> <PUBCHEM_MMFF94_ENERGY>
120.6507

> <PUBCHEM_FEATURE_SELFOVERLAP>
35.528

> <PUBCHEM_SHAPE_FINGERPRINT>
10050765 1 18339925896955853518
10411042 1 18196371649004937315
11101153 10 18265338485507228596
11297750 10 18128808819165638113
12107183 9 17974846178104435994
12107698 1 18410574033171908686
12440605 4 18264492789124833851
12677640 9 18413111658316594697
12788726 201 18336537309034087147
13540713 5 18115857508662768498
13911987 19 18049433748050144933
140371 6 18117287071346456262
14068700 675 18264488553911721063
14347332 77 18411978100524377866
14790565 3 18051697634027888665
15198563 99 18408879668441431093
15276724 80 18413110563136058327
15979999 66 18051681437927807487
16087824 20 18411982435332964843
19319366 153 16909485299350147481
19427546 20 18411138013400152591
21033648 144 18266737979004435820
21049683 271 17983015853797404411
21236236 1 18411984641427078466
23559900 14 18195245744734159690
23929065 36 18341596140463117922
249057 25 17967819379753168678
255183 313 18269014015787850129
27425 322 17911237218276385309
283562 15 18408882949654669387
4046055 25 18266175226535023159
5969126 39 18343014540802422519
6677587 24 16090043498573747821
6698420 124 17770795515021611241

> <PUBCHEM_SHAPE_MULTIPOLES>
617.68
16.63
6.68
1.19
30.63
2.17
-0.34
-0.76
-3.19
-14.96
-1.38
-1.44
1.13
-0.51

> <PUBCHEM_SHAPE_SELFOVERLAP>
1303.864

> <PUBCHEM_SHAPE_VOLUME>
352.4

> <PUBCHEM_COORDINATE_TYPE>
2
5
10

$$$$
