6875503
  -OEChem-01171810023D

 41 43  0     0  0  0  0  0  0999 V2000
    6.2940   -1.7887   -0.2681 O   0  0  0  0  0  0  0  0  0  0  0  0
   -2.2205   -1.6962    0.8624 O   0  0  0  0  0  0  0  0  0  0  0  0
   -8.1906   -0.0846   -0.3534 O   0  5  0  0  0  0  0  0  0  0  0  0
   -7.0366   -1.9492   -0.2498 O   0  0  0  0  0  0  0  0  0  0  0  0
    0.0881   -0.4402    0.1033 N   0  0  0  0  0  0  0  0  0  0  0  0
   -1.1248    0.1540    0.0045 N   0  0  0  0  0  0  0  0  0  0  0  0
   -7.1024   -0.6964   -0.2275 N   0  3  0  0  0  0  0  0  0  0  0  0
    3.5516    0.6842   -0.1724 C   0  0  0  0  0  0  0  0  0  0  0  0
    4.8641    0.1550   -0.1567 C   0  0  0  0  0  0  0  0  0  0  0  0
    2.4605   -0.1893   -0.3090 C   0  0  0  0  0  0  0  0  0  0  0  0
    5.0468   -1.2322   -0.2782 C   0  0  0  0  0  0  0  0  0  0  0  0
    3.3691    2.0714   -0.0510 C   0  0  0  0  0  0  0  0  0  0  0  0
    5.9553    1.0285   -0.0201 C   0  0  0  0  0  0  0  0  0  0  0  0
    2.6605   -1.5648   -0.4285 C   0  0  0  0  0  0  0  0  0  0  0  0
    3.9511   -2.0853   -0.4131 C   0  0  0  0  0  0  0  0  0  0  0  0
    4.4647    2.9245    0.0841 C   0  0  0  0  0  0  0  0  0  0  0  0
    5.7553    2.4040    0.0994 C   0  0  0  0  0  0  0  0  0  0  0  0
    1.0785    0.2815   -0.3322 C   0  0  0  0  0  0  0  0  0  0  0  0
   -3.5419    0.1465    0.2570 C   0  0  0  0  0  0  0  0  0  0  0  0
   -4.6863   -0.6049    0.0889 C   0  0  0  0  0  0  0  0  0  0  0  0
   -5.9081    0.0523   -0.0549 C   0  0  0  0  0  0  0  0  0  0  0  0
   -2.2404   -0.5536    0.4114 C   0  0  0  0  0  0  0  0  0  0  0  0
   -3.5638    1.5253    0.2878 C   0  0  0  0  0  0  0  0  0  0  0  0
    6.8194   -2.1703    0.9999 C   0  0  0  0  0  0  0  0  0  0  0  0
   -5.9579    1.4461   -0.0275 C   0  0  0  0  0  0  0  0  0  0  0  0
   -4.7857    2.1825    0.1439 C   0  0  0  0  0  0  0  0  0  0  0  0
    2.3874    2.5345   -0.0401 H   0  0  0  0  0  0  0  0  0  0  0  0
    1.8276   -2.2540   -0.5434 H   0  0  0  0  0  0  0  0  0  0  0  0
    6.9781    0.6589   -0.0098 H   0  0  0  0  0  0  0  0  0  0  0  0
    4.0979   -3.1579   -0.5094 H   0  0  0  0  0  0  0  0  0  0  0  0
    4.3103    3.9953    0.1806 H   0  0  0  0  0  0  0  0  0  0  0  0
    6.6077    3.0690    0.2039 H   0  0  0  0  0  0  0  0  0  0  0  0
    0.8881    1.2899   -0.7381 H   0  0  0  0  0  0  0  0  0  0  0  0
   -4.6266   -1.6896    0.0645 H   0  0  0  0  0  0  0  0  0  0  0  0
   -2.6801    2.1328    0.4519 H   0  0  0  0  0  0  0  0  0  0  0  0
   -1.1592    1.0751   -0.4190 H   0  0  0  0  0  0  0  0  0  0  0  0
   -6.8917    1.9921   -0.1344 H   0  0  0  0  0  0  0  0  0  0  0  0
   -4.8255    3.2675    0.1731 H   0  0  0  0  0  0  0  0  0  0  0  0
    7.8439   -2.5233    0.8538 H   0  0  0  0  0  0  0  0  0  0  0  0
    6.2272   -2.9860    1.4266 H   0  0  0  0  0  0  0  0  0  0  0  0
    6.8383   -1.3222    1.6915 H   0  0  0  0  0  0  0  0  0  0  0  0
  1 11  1  0  0  0  0
  1 24  1  0  0  0  0
  2 22  2  0  0  0  0
  3  7  1  0  0  0  0
  4  7  2  0  0  0  0
  5  6  1  0  0  0  0
  5 18  2  0  0  0  0
  6 22  1  0  0  0  0
  6 36  1  0  0  0  0
  7 21  1  0  0  0  0
  8  9  1  0  0  0  0
  8 10  1  0  0  0  0
  8 12  2  0  0  0  0
  9 11  1  0  0  0  0
  9 13  2  0  0  0  0
 10 14  2  0  0  0  0
 10 18  1  0  0  0  0
 11 15  2  0  0  0  0
 12 16  1  0  0  0  0
 12 27  1  0  0  0  0
 13 17  1  0  0  0  0
 13 29  1  0  0  0  0
 14 15  1  0  0  0  0
 14 28  1  0  0  0  0
 15 30  1  0  0  0  0
 16 17  2  0  0  0  0
 16 31  1  0  0  0  0
 17 32  1  0  0  0  0
 18 33  1  0  0  0  0
 19 20  2  0  0  0  0
 19 22  1  0  0  0  0
 19 23  1  0  0  0  0
 20 21  1  0  0  0  0
 20 34  1  0  0  0  0
 21 25  2  0  0  0  0
 23 26  2  0  0  0  0
 23 35  1  0  0  0  0
 24 39  1  0  0  0  0
 24 40  1  0  0  0  0
 24 41  1  0  0  0  0
 25 26  1  0  0  0  0
 25 37  1  0  0  0  0
 26 38  1  0  0  0  0
M  CHG  2   3  -1   7   1
M  END
> <PUBCHEM_COMPOUND_CID>
6875503

> <PUBCHEM_CONFORMER_RMSD>
0.8

> <PUBCHEM_CONFORMER_DIVERSEORDER>
1
21
17
20
7
18
16
2
3
10
22
8
6
12
4
9
13
14
19
15
5
11

> <PUBCHEM_MMFF94_PARTIAL_CHARGES>
36
1 -0.36
10 0.09
11 0.08
12 -0.15
13 -0.15
14 -0.15
15 -0.15
16 -0.15
17 -0.15
18 0.3
19 0.09
2 -0.57
20 -0.15
21 0.13
22 0.54
23 -0.15
24 0.28
25 -0.15
26 -0.15
27 0.15
28 0.15
29 0.15
3 -0.52
30 0.15
31 0.15
32 0.15
33 0.06
34 0.15
35 0.15
36 0.37
37 0.15
38 0.15
4 -0.52
5 -0.51
6 -0.37
7 0.91

> <PUBCHEM_EFFECTIVE_ROTOR_COUNT>
6

> <PUBCHEM_PHARMACOPHORE_FEATURES>
10
1 1 acceptor
1 2 acceptor
1 3 acceptor
1 3 anion
1 4 acceptor
1 5 acceptor
1 6 donor
6 19 20 21 23 25 26 rings
6 8 9 10 11 14 15 rings
6 8 9 12 13 16 17 rings

> <PUBCHEM_HEAVY_ATOM_COUNT>
26

> <PUBCHEM_ATOM_DEF_STEREO_COUNT>
0

> <PUBCHEM_ATOM_UDEF_STEREO_COUNT>
0

> <PUBCHEM_BOND_DEF_STEREO_COUNT>
1

> <PUBCHEM_BOND_UDEF_STEREO_COUNT>
0

> <PUBCHEM_ISOTOPIC_ATOM_COUNT>
0

> <PUBCHEM_COMPONENT_COUNT>
1

> <PUBCHEM_CACTVS_TAUTO_COUNT>
2

> <PUBCHEM_CONFORMER_ID>
0068E96F00000001

> <PUBCHEM_MMFF94_ENERGY>
97.0994

> <PUBCHEM_FEATURE_SELFOVERLAP>
50.861

> <PUBCHEM_SHAPE_FINGERPRINT>
10411042 1 18195529183107114326
10595046 47 18342740710999029425
10835480 77 18337110167302629233
11089746 13 18334579005709768650
11186622 174 18335136496897036604
11524674 6 15697998561941202447
11719270 70 18060417997833455358
12107183 9 17693384338748717840
12166972 35 18409171017142519437
12236239 1 18343866606405065997
12616971 3 17846208964839948612
13167372 99 18343024346012377072
13533116 47 18342176665480638720
14251732 16 18412263960804843173
14251764 18 18410577270801432590
14461889 52 18337389464778374634
14933364 13 18411984663371536589
15183329 4 18411141307397521272
15419008 145 18263070034358700584
15475509 35 16878489152562542290
1577012 14 18201729435400481873
17844677 252 18340495486421805549
18335252 98 18339646754441283651
19427546 62 18337955714020974734
20157964 124 18413673521768695286
20281389 69 18333732407763853917
21315763 129 18411137991751541700
21315763 28 18411418392975768323
21315764 268 18335416872151597420
21344244 78 18059283285291570520
21859007 373 17604697868497345005
22149856 69 16702038456468317043
23559900 14 18339356491761006049
23569943 247 17532927195359967298
3004659 81 18335702719894995584
335352 9 18411425008327944766
3411729 13 18336264648384970888
34797466 226 17703518765055468532
4073 2 18041565861789458826
4098825 35 18413108342885873457
4325135 7 18272370901864791541
439807 62 18272652346745180137
5104073 3 18335711541330463280
99344 41 18341048515401667327

> <PUBCHEM_SHAPE_MULTIPOLES>
496.65
22.84
2.69
0.71
24.09
0.83
-0.06
-2.41
0.13
-3.73
-0.17
-0.29
-0.14
-0.32

> <PUBCHEM_SHAPE_SELFOVERLAP>
1088.77

> <PUBCHEM_SHAPE_VOLUME>
268.9

> <PUBCHEM_COORDINATE_TYPE>
2
5
10

$$$$
