6214318
  -OEChem-01171809393D

 38 39  0     0  0  0  0  0  0999 V2000
   -4.9641    0.1115   -0.3925 O   0  0  0  0  0  0  0  0  0  0  0  0
   -2.9558   -1.6776   -1.0882 O   0  0  0  0  0  0  0  0  0  0  0  0
    3.0747    2.5985   -0.0556 O   0  0  0  0  0  0  0  0  0  0  0  0
    7.0772   -2.2922    0.3287 O   0  0  0  0  0  0  0  0  0  0  0  0
   -7.5579   -1.6792    0.8723 N   0  0  0  0  0  0  0  0  0  0  0  0
   -1.0019    1.2761   -0.2422 C   0  0  0  0  0  0  0  0  0  0  0  0
   -2.6473   -0.4107   -0.6938 C   0  0  0  0  0  0  0  0  0  0  0  0
   -1.3112   -0.0137   -0.6421 C   0  0  0  0  0  0  0  0  0  0  0  0
   -3.6557    0.4876   -0.3451 C   0  0  0  0  0  0  0  0  0  0  0  0
   -1.9919    2.1799    0.1074 C   0  0  0  0  0  0  0  0  0  0  0  0
   -3.3280    1.7828    0.0556 C   0  0  0  0  0  0  0  0  0  0  0  0
    0.4097    1.6952   -0.1866 C   0  0  0  0  0  0  0  0  0  0  0  0
    3.9523    0.4252    0.0464 C   0  0  0  0  0  0  0  0  0  0  0  0
    1.4509    0.8523   -0.1215 C   0  0  0  0  0  0  0  0  0  0  0  0
    2.8575    1.3773   -0.0531 C   0  0  0  0  0  0  0  0  0  0  0  0
    3.8286   -0.8418   -0.5236 C   0  0  0  0  0  0  0  0  0  0  0  0
    5.1264    0.7790    0.7111 C   0  0  0  0  0  0  0  0  0  0  0  0
    4.8787   -1.7549   -0.4289 C   0  0  0  0  0  0  0  0  0  0  0  0
    6.1767   -0.1341    0.8059 C   0  0  0  0  0  0  0  0  0  0  0  0
    6.0527   -1.4011    0.2359 C   0  0  0  0  0  0  0  0  0  0  0  0
   -5.7007    0.1727    0.8274 C   0  0  0  0  0  0  0  0  0  0  0  0
   -3.0346   -2.6726   -0.0694 C   0  0  0  0  0  0  0  0  0  0  0  0
   -6.7362   -0.8603    0.8519 C   0  0  0  0  0  0  0  0  0  0  0  0
   -0.5566   -0.7336   -0.9446 H   0  0  0  0  0  0  0  0  0  0  0  0
   -1.7525    3.1924    0.4213 H   0  0  0  0  0  0  0  0  0  0  0  0
   -4.1032    2.4959    0.3226 H   0  0  0  0  0  0  0  0  0  0  0  0
    0.5762    2.7696   -0.2095 H   0  0  0  0  0  0  0  0  0  0  0  0
    1.3093   -0.2176   -0.0421 H   0  0  0  0  0  0  0  0  0  0  0  0
    2.9482   -1.1464   -1.0816 H   0  0  0  0  0  0  0  0  0  0  0  0
    5.2405    1.7599    1.1654 H   0  0  0  0  0  0  0  0  0  0  0  0
    4.7733   -2.7361   -0.8840 H   0  0  0  0  0  0  0  0  0  0  0  0
    7.0884    0.1468    1.3259 H   0  0  0  0  0  0  0  0  0  0  0  0
   -6.1621    1.1632    0.9058 H   0  0  0  0  0  0  0  0  0  0  0  0
   -5.0370    0.0347    1.6906 H   0  0  0  0  0  0  0  0  0  0  0  0
   -3.7921   -2.4080    0.6746 H   0  0  0  0  0  0  0  0  0  0  0  0
   -2.0615   -2.8001    0.4153 H   0  0  0  0  0  0  0  0  0  0  0  0
   -3.3193   -3.6192   -0.5366 H   0  0  0  0  0  0  0  0  0  0  0  0
    6.8199   -3.1160   -0.1198 H   0  0  0  0  0  0  0  0  0  0  0  0
  1  9  1  0  0  0  0
  1 21  1  0  0  0  0
  2  7  1  0  0  0  0
  2 22  1  0  0  0  0
  3 15  2  0  0  0  0
  4 20  1  0  0  0  0
  4 38  1  0  0  0  0
  5 23  3  0  0  0  0
  6  8  2  0  0  0  0
  6 10  1  0  0  0  0
  6 12  1  0  0  0  0
  7  8  1  0  0  0  0
  7  9  2  0  0  0  0
  8 24  1  0  0  0  0
  9 11  1  0  0  0  0
 10 11  2  0  0  0  0
 10 25  1  0  0  0  0
 11 26  1  0  0  0  0
 12 14  2  0  0  0  0
 12 27  1  0  0  0  0
 13 15  1  0  0  0  0
 13 16  2  0  0  0  0
 13 17  1  0  0  0  0
 14 15  1  0  0  0  0
 14 28  1  0  0  0  0
 16 18  1  0  0  0  0
 16 29  1  0  0  0  0
 17 19  2  0  0  0  0
 17 30  1  0  0  0  0
 18 20  2  0  0  0  0
 18 31  1  0  0  0  0
 19 20  1  0  0  0  0
 19 32  1  0  0  0  0
 21 23  1  0  0  0  0
 21 33  1  0  0  0  0
 21 34  1  0  0  0  0
 22 35  1  0  0  0  0
 22 36  1  0  0  0  0
 22 37  1  0  0  0  0
M  END
> <PUBCHEM_COMPOUND_CID>
6214318

> <PUBCHEM_CONFORMER_RMSD>
0.8

> <PUBCHEM_CONFORMER_DIVERSEORDER>
1
89
85
14
69
87
70
20
4
43
27
24
62
88
38
95
58
9
30
75
78
25
35
33
94
48
77
66
2
79
61
50
49
86
8
26
76
13
98
42
28
84
34
67
40
29
72
5
16
71
97
15
31
55
12
7
64
21
23
80
3
22
18
81
74
46
37
82
41
93
45
57
53
10
52
100
83
56
36
73
59
54
99
6
17
32
60
19
51
90
47
92
11
39
68
63
96
44
91
65

> <PUBCHEM_MMFF94_PARTIAL_CHARGES>
33
1 -0.36
10 -0.15
11 -0.15
12 -0.18
13 0.09
14 -0.14
15 0.47
16 -0.15
17 -0.15
18 -0.15
19 -0.15
2 -0.36
20 0.08
21 0.48
22 0.28
23 0.36
24 0.15
25 0.15
26 0.15
27 0.15
28 0.15
29 0.15
3 -0.57
30 0.15
31 0.15
32 0.15
38 0.45
4 -0.53
5 -0.56
6 0.03
7 0.08
8 -0.15
9 0.08

> <PUBCHEM_EFFECTIVE_ROTOR_COUNT>
6

> <PUBCHEM_PHARMACOPHORE_FEATURES>
7
1 1 acceptor
1 2 acceptor
1 3 acceptor
1 4 donor
1 5 acceptor
6 13 16 17 18 19 20 rings
6 6 7 8 9 10 11 rings

> <PUBCHEM_HEAVY_ATOM_COUNT>
23

> <PUBCHEM_ATOM_DEF_STEREO_COUNT>
0

> <PUBCHEM_ATOM_UDEF_STEREO_COUNT>
0

> <PUBCHEM_BOND_DEF_STEREO_COUNT>
1

> <PUBCHEM_BOND_UDEF_STEREO_COUNT>
0

> <PUBCHEM_ISOTOPIC_ATOM_COUNT>
0

> <PUBCHEM_COMPONENT_COUNT>
1

> <PUBCHEM_CACTVS_TAUTO_COUNT>
4

> <PUBCHEM_CONFORMER_ID>
005ED2AE00000001

> <PUBCHEM_MMFF94_ENERGY>
84.2847

> <PUBCHEM_FEATURE_SELFOVERLAP>
35.527

> <PUBCHEM_SHAPE_FINGERPRINT>
11405975 8 18201155554533479568
12760667 363 18413666920525274285
13533116 47 18410576231551781000
13551218 46 18342460335560301063
13668630 136 17821728321109195906
13685833 64 18408324380192791200
13862211 1 18341612659756508037
14251764 18 17988643025512122853
14341114 176 18342175562033006060
14420673 8 18410294679133712223
14528608 73 7997963579399694632
14866123 147 18340205314928176487
16994733 274 13110701423746499643
17492 89 18265893738583693982
17857418 61 18342170068632613172
1813 80 17676490519251798268
1979834 28 17417817219072719790
21150785 3 16153715323431725236
21267235 1 18410296895652990812
21304303 64 11023836063751736491
21365058 113 16877950468489067405
21424621 283 12679198093893780303
21792934 111 18272083895149993545
23522609 53 18121252902351553765
23559900 14 18341036514920521296
3004659 81 18260266318478147436
3383291 50 18408322203082982627
351380 3 18187080625056336736
4073 2 18334574694343176106
4214541 1 18341889646002381396
465052 167 18411984650555057404
5104073 3 18059293291663263785
559249 180 18337668598945199845
56633871 153 18341050804671639511
59682541 52 12035719882963220176
9709674 26 18336263556766614120
999808 66 18041289807029671451

> <PUBCHEM_SHAPE_MULTIPOLES>
444.87
19.12
2.57
0.87
0.09
0.39
0.04
11.75
5.97
-0.28
-0.03
0.4
0.15
0.42

> <PUBCHEM_SHAPE_SELFOVERLAP>
946.91

> <PUBCHEM_SHAPE_VOLUME>
245.8

> <PUBCHEM_COORDINATE_TYPE>
2
5
10

$$$$
