2144809
  -OEChem-01171809463D

 59 63  0     0  0  0  0  0  0999 V2000
   -2.3668    1.0460   -1.2318 S   0  0  0  0  0  0  0  0  0  0  0  0
    0.3402   -4.3207   -0.0318 O   0  0  0  0  0  0  0  0  0  0  0  0
   -1.9818   -4.6605   -0.0106 O   0  0  0  0  0  0  0  0  0  0  0  0
   -2.5591   -0.3932   -1.1079 O   0  0  0  0  0  0  0  0  0  0  0  0
   -2.6977    1.7143   -2.4828 O   0  0  0  0  0  0  0  0  0  0  0  0
    4.7437   -0.6202    0.8203 O   0  0  0  0  0  0  0  0  0  0  0  0
    5.4595    2.0458    0.5006 O   0  0  0  0  0  0  0  0  0  0  0  0
   -0.1978   -0.8829   -0.3416 N   0  0  0  0  0  0  0  0  0  0  0  0
    1.0134    3.1306   -0.7908 N   0  0  0  0  0  0  0  0  0  0  0  0
   -0.9417   -3.6727   -0.0930 C   0  0  0  0  0  0  0  0  0  0  0  0
   -1.0826   -2.9163   -1.4146 C   0  0  0  0  0  0  0  0  0  0  0  0
   -1.0708   -2.6972    1.0772 C   0  0  0  0  0  0  0  0  0  0  0  0
   -0.0923   -1.7572   -1.5186 C   0  0  0  0  0  0  0  0  0  0  0  0
   -0.0854   -1.5332    0.9691 C   0  0  0  0  0  0  0  0  0  0  0  0
    0.2165    0.4468   -0.4872 C   0  0  0  0  0  0  0  0  0  0  0  0
    0.0547   -5.7074   -0.2062 C   0  0  0  0  0  0  0  0  0  0  0  0
   -1.3159   -5.8558    0.3935 C   0  0  0  0  0  0  0  0  0  0  0  0
   -0.6982    1.4311   -0.8945 C   0  0  0  0  0  0  0  0  0  0  0  0
    1.5536    0.8488   -0.2343 C   0  0  0  0  0  0  0  0  0  0  0  0
    1.9086    2.2040   -0.3991 C   0  0  0  0  0  0  0  0  0  0  0  0
   -0.2572    2.7320   -1.0283 C   0  0  0  0  0  0  0  0  0  0  0  0
    2.5139   -0.0918    0.1756 C   0  0  0  0  0  0  0  0  0  0  0  0
    3.2270    2.5711   -0.1440 C   0  0  0  0  0  0  0  0  0  0  0  0
   -3.3764    1.7542    0.0419 C   0  0  0  0  0  0  0  0  0  0  0  0
    3.8253    0.3031    0.4237 C   0  0  0  0  0  0  0  0  0  0  0  0
    4.1819    1.6364    0.2635 C   0  0  0  0  0  0  0  0  0  0  0  0
   -3.8617    3.0372   -0.1230 C   0  0  0  0  0  0  0  0  0  0  0  0
   -3.6534    1.0076    1.1709 C   0  0  0  0  0  0  0  0  0  0  0  0
   -4.6547    3.5952    0.8797 C   0  0  0  0  0  0  0  0  0  0  0  0
   -4.4465    1.5655    2.1736 C   0  0  0  0  0  0  0  0  0  0  0  0
   -4.9471    2.8593    2.0280 C   0  0  0  0  0  0  0  0  0  0  0  0
    4.8841   -0.8349    2.2236 C   0  0  0  0  0  0  0  0  0  0  0  0
    6.3648    2.0150   -0.6009 C   0  0  0  0  0  0  0  0  0  0  0  0
   -2.1196   -2.5993   -1.5499 H   0  0  0  0  0  0  0  0  0  0  0  0
   -0.8876   -3.6040   -2.2482 H   0  0  0  0  0  0  0  0  0  0  0  0
   -0.9034   -3.2212    2.0264 H   0  0  0  0  0  0  0  0  0  0  0  0
   -2.0977   -2.3118    1.1189 H   0  0  0  0  0  0  0  0  0  0  0  0
    0.9315   -2.1422   -1.6007 H   0  0  0  0  0  0  0  0  0  0  0  0
   -0.2969   -1.2018   -2.4424 H   0  0  0  0  0  0  0  0  0  0  0  0
   -0.3105   -0.8151    1.7676 H   0  0  0  0  0  0  0  0  0  0  0  0
    0.9049   -1.9434    1.1692 H   0  0  0  0  0  0  0  0  0  0  0  0
    0.8123   -6.3236    0.2837 H   0  0  0  0  0  0  0  0  0  0  0  0
    0.0510   -5.9225   -1.2803 H   0  0  0  0  0  0  0  0  0  0  0  0
   -1.8529   -6.7381    0.0370 H   0  0  0  0  0  0  0  0  0  0  0  0
   -1.2780   -5.8716    1.4881 H   0  0  0  0  0  0  0  0  0  0  0  0
   -0.9211    3.5322   -1.3399 H   0  0  0  0  0  0  0  0  0  0  0  0
    2.3312   -1.1554    0.2149 H   0  0  0  0  0  0  0  0  0  0  0  0
    3.5243    3.6120   -0.2636 H   0  0  0  0  0  0  0  0  0  0  0  0
   -3.6404    3.6272   -1.0067 H   0  0  0  0  0  0  0  0  0  0  0  0
   -3.2655    0.0035    1.3085 H   0  0  0  0  0  0  0  0  0  0  0  0
   -5.0433    4.6031    0.7672 H   0  0  0  0  0  0  0  0  0  0  0  0
   -4.6721    0.9937    3.0690 H   0  0  0  0  0  0  0  0  0  0  0  0
   -5.5638    3.2940    2.8092 H   0  0  0  0  0  0  0  0  0  0  0  0
    3.9444   -1.1994    2.6510 H   0  0  0  0  0  0  0  0  0  0  0  0
    5.1929    0.0875    2.7256 H   0  0  0  0  0  0  0  0  0  0  0  0
    5.6565   -1.5931    2.3786 H   0  0  0  0  0  0  0  0  0  0  0  0
    6.0204    2.6801   -1.3990 H   0  0  0  0  0  0  0  0  0  0  0  0
    6.4733    0.9948   -0.9822 H   0  0  0  0  0  0  0  0  0  0  0  0
    7.3408    2.3634   -0.2520 H   0  0  0  0  0  0  0  0  0  0  0  0
  1  4  2  0  0  0  0
  1  5  2  0  0  0  0
  1 18  1  0  0  0  0
  1 24  1  0  0  0  0
  2 10  1  0  0  0  0
  2 16  1  0  0  0  0
  3 10  1  0  0  0  0
  3 17  1  0  0  0  0
  6 25  1  0  0  0  0
  6 32  1  0  0  0  0
  7 26  1  0  0  0  0
  7 33  1  0  0  0  0
  8 13  1  0  0  0  0
  8 14  1  0  0  0  0
  8 15  1  0  0  0  0
  9 20  1  0  0  0  0
  9 21  2  0  0  0  0
 10 11  1  0  0  0  0
 10 12  1  0  0  0  0
 11 13  1  0  0  0  0
 11 34  1  0  0  0  0
 11 35  1  0  0  0  0
 12 14  1  0  0  0  0
 12 36  1  0  0  0  0
 12 37  1  0  0  0  0
 13 38  1  0  0  0  0
 13 39  1  0  0  0  0
 14 40  1  0  0  0  0
 14 41  1  0  0  0  0
 15 18  2  0  0  0  0
 15 19  1  0  0  0  0
 16 17  1  0  0  0  0
 16 42  1  0  0  0  0
 16 43  1  0  0  0  0
 17 44  1  0  0  0  0
 17 45  1  0  0  0  0
 18 21  1  0  0  0  0
 19 20  1  0  0  0  0
 19 22  2  0  0  0  0
 20 23  2  0  0  0  0
 21 46  1  0  0  0  0
 22 25  1  0  0  0  0
 22 47  1  0  0  0  0
 23 26  1  0  0  0  0
 23 48  1  0  0  0  0
 24 27  2  0  0  0  0
 24 28  1  0  0  0  0
 25 26  2  0  0  0  0
 27 29  1  0  0  0  0
 27 49  1  0  0  0  0
 28 30  2  0  0  0  0
 28 50  1  0  0  0  0
 29 31  2  0  0  0  0
 29 51  1  0  0  0  0
 30 31  1  0  0  0  0
 30 52  1  0  0  0  0
 31 53  1  0  0  0  0
 32 54  1  0  0  0  0
 32 55  1  0  0  0  0
 32 56  1  0  0  0  0
 33 57  1  0  0  0  0
 33 58  1  0  0  0  0
 33 59  1  0  0  0  0
M  END
> <PUBCHEM_COMPOUND_CID>
2144809

> <PUBCHEM_CONFORMER_RMSD>
1

> <PUBCHEM_CONFORMER_DIVERSEORDER>
1
3
2
4

> <PUBCHEM_MMFF94_PARTIAL_CHARGES>
38
1 1.32
10 0.56
13 0.37
14 0.37
15 0.1
16 0.28
17 0.28
18 -0.01
2 -0.56
20 0.31
21 0.16
22 -0.15
23 -0.15
24 -0.01
25 0.08
26 0.08
27 -0.15
28 -0.15
29 -0.15
3 -0.56
30 -0.15
31 -0.15
32 0.28
33 0.28
4 -0.65
46 0.15
47 0.15
48 0.15
49 0.15
5 -0.65
50 0.15
51 0.15
52 0.15
53 0.15
6 -0.36
7 -0.36
8 -0.84
9 -0.62

> <PUBCHEM_EFFECTIVE_ROTOR_COUNT>
6.8

> <PUBCHEM_PHARMACOPHORE_FEATURES>
13
1 2 acceptor
1 3 acceptor
1 4 acceptor
1 5 acceptor
1 6 acceptor
1 7 acceptor
1 8 cation
1 9 acceptor
5 2 3 10 16 17 rings
6 19 20 22 23 25 26 rings
6 24 27 28 29 30 31 rings
6 8 10 11 12 13 14 rings
6 9 15 18 19 20 21 rings

> <PUBCHEM_HEAVY_ATOM_COUNT>
33

> <PUBCHEM_ATOM_DEF_STEREO_COUNT>
0

> <PUBCHEM_ATOM_UDEF_STEREO_COUNT>
0

> <PUBCHEM_BOND_DEF_STEREO_COUNT>
0

> <PUBCHEM_BOND_UDEF_STEREO_COUNT>
0

> <PUBCHEM_ISOTOPIC_ATOM_COUNT>
0

> <PUBCHEM_COMPONENT_COUNT>
1

> <PUBCHEM_CACTVS_TAUTO_COUNT>
1

> <PUBCHEM_CONFORMER_ID>
0020BA2900000001

> <PUBCHEM_MMFF94_ENERGY>
131.6979

> <PUBCHEM_FEATURE_SELFOVERLAP>
66.083

> <PUBCHEM_SHAPE_FINGERPRINT>
10074138 170 18268972336786782768
10764073 3 17461158755657439737
11115154 58 17546720917103230703
11331351 85 17622460749480194615
11552529 35 18122343746649936568
1200032 147 16054936191025240937
12422481 6 18120364355158164392
12788726 201 18126550443783733711
13140716 1 18339362937989601783
133893 2 17838029539254031237
13692114 37 18337688472682083891
13782708 43 11963653527562072024
14363568 33 17834685889749525247
14444916 359 18266469707168623398
14705955 166 17484480711595621378
14790565 3 18410294666718653204
14856354 85 16733281143732706720
14866123 147 18338233881414100402
15420108 30 18409733941441519499
15927050 60 18412832365235582966
15950262 2 15910184480074288874
15968369 26 17611741207156967324
17980427 26 18126004862957197493
1813 80 11819292030751393097
19319366 153 18129100026918283217
20028762 73 18341891896760371695
20505436 4 17846218792348120621
20739085 24 18190758439722664884
21033648 29 18343862216833368296
21120745 212 17689733264492096901
22223350 30 18193584231597345582
23559900 14 17175486875130426805
4058900 60 18126866918507026848
4403749 210 18336267928880759313
4616759 239 18057022818113056664
463206 1 16963503717571165706
508180 173 17545572992931155367
5171179 24 17400642619724427137
563151 74 18054799377947223633
59755656 520 18341900688273648172
6679774 75 18042979674866691738
79837 15 18341054111559210371

> <PUBCHEM_SHAPE_MULTIPOLES>
637.8
9.9
7.41
1.69
6.71
15.02
-0.25
-13.76
-5.25
-2.8
0.1
-1.16
-0.47
-1.57

> <PUBCHEM_SHAPE_SELFOVERLAP>
1387.467

> <PUBCHEM_SHAPE_VOLUME>
350.2

> <PUBCHEM_COORDINATE_TYPE>
2
5
10

$$$$
