2302047
  -OEChem-01171809193D

 37 39  0     0  0  0  0  0  0999 V2000
   -6.8964    1.7045   -0.3134 Cl  0  0  0  0  0  0  0  0  0  0  0  0
   -0.4797   -0.3452    0.1924 S   0  0  0  0  0  0  0  0  0  0  0  0
   -0.5263    0.3851    1.4461 O   0  0  0  0  0  0  0  0  0  0  0  0
   -0.3670    0.3412   -1.0813 O   0  0  0  0  0  0  0  0  0  0  0  0
    2.9278    0.3062   -1.9841 O   0  0  0  0  0  0  0  0  0  0  0  0
    2.2159   -0.9926    0.4002 N   0  0  0  0  0  0  0  0  0  0  0  0
    0.8703   -2.6922    0.3411 N   0  0  0  0  0  0  0  0  0  0  0  0
    3.0070   -2.0715    0.4807 N   0  0  0  0  0  0  0  0  0  0  0  0
    2.1785   -3.1081    0.4445 N   0  0  0  0  0  0  0  0  0  0  0  0
   -1.8275   -1.4805    0.1204 C   0  0  0  0  0  0  0  0  0  0  0  0
    0.9570   -1.4100    0.3192 C   0  0  0  0  0  0  0  0  0  0  0  0
   -3.0878   -0.6903    0.0124 C   0  0  0  0  0  0  0  0  0  0  0  0
    2.7338    0.2954    0.4103 C   0  0  0  0  0  0  0  0  0  0  0  0
   -3.5906   -0.3471   -1.2426 C   0  0  0  0  0  0  0  0  0  0  0  0
   -3.7630   -0.2933    1.1666 C   0  0  0  0  0  0  0  0  0  0  0  0
    3.0823    0.9286   -0.7805 C   0  0  0  0  0  0  0  0  0  0  0  0
    2.9007    0.9504    1.6285 C   0  0  0  0  0  0  0  0  0  0  0  0
   -4.7686    0.3932   -1.3433 C   0  0  0  0  0  0  0  0  0  0  0  0
   -4.9409    0.4468    1.0659 C   0  0  0  0  0  0  0  0  0  0  0  0
    3.6004    2.2234   -0.7531 C   0  0  0  0  0  0  0  0  0  0  0  0
    3.4188    2.2451    1.6558 C   0  0  0  0  0  0  0  0  0  0  0  0
   -5.4438    0.7901   -0.1890 C   0  0  0  0  0  0  0  0  0  0  0  0
    3.7687    2.8817    0.4651 C   0  0  0  0  0  0  0  0  0  0  0  0
    4.0305   -0.4609   -2.4617 C   0  0  0  0  0  0  0  0  0  0  0  0
   -1.6928   -2.1338   -0.7475 H   0  0  0  0  0  0  0  0  0  0  0  0
   -1.8201   -2.0958    1.0256 H   0  0  0  0  0  0  0  0  0  0  0  0
   -3.0743   -0.6501   -2.1498 H   0  0  0  0  0  0  0  0  0  0  0  0
   -3.3819   -0.5540    2.1504 H   0  0  0  0  0  0  0  0  0  0  0  0
    2.6319    0.4673    2.5648 H   0  0  0  0  0  0  0  0  0  0  0  0
   -5.1485    0.6538   -2.3278 H   0  0  0  0  0  0  0  0  0  0  0  0
   -5.4562    0.7495    1.9739 H   0  0  0  0  0  0  0  0  0  0  0  0
    3.8744    2.7261   -1.6767 H   0  0  0  0  0  0  0  0  0  0  0  0
    3.5495    2.7578    2.6043 H   0  0  0  0  0  0  0  0  0  0  0  0
    4.1718    3.8899    0.4864 H   0  0  0  0  0  0  0  0  0  0  0  0
    4.4429   -1.1105   -1.6844 H   0  0  0  0  0  0  0  0  0  0  0  0
    4.8122    0.2083   -2.8346 H   0  0  0  0  0  0  0  0  0  0  0  0
    3.6810   -1.0842   -3.2893 H   0  0  0  0  0  0  0  0  0  0  0  0
  1 22  1  0  0  0  0
  2  3  2  0  0  0  0
  2  4  2  0  0  0  0
  2 10  1  0  0  0  0
  2 11  1  0  0  0  0
  5 16  1  0  0  0  0
  5 24  1  0  0  0  0
  6  8  1  0  0  0  0
  6 11  1  0  0  0  0
  6 13  1  0  0  0  0
  7  9  1  0  0  0  0
  7 11  2  0  0  0  0
  8  9  2  0  0  0  0
 10 12  1  0  0  0  0
 10 25  1  0  0  0  0
 10 26  1  0  0  0  0
 12 14  2  0  0  0  0
 12 15  1  0  0  0  0
 13 16  1  0  0  0  0
 13 17  2  0  0  0  0
 14 18  1  0  0  0  0
 14 27  1  0  0  0  0
 15 19  2  0  0  0  0
 15 28  1  0  0  0  0
 16 20  2  0  0  0  0
 17 21  1  0  0  0  0
 17 29  1  0  0  0  0
 18 22  2  0  0  0  0
 18 30  1  0  0  0  0
 19 22  1  0  0  0  0
 19 31  1  0  0  0  0
 20 23  1  0  0  0  0
 20 32  1  0  0  0  0
 21 23  2  0  0  0  0
 21 33  1  0  0  0  0
 23 34  1  0  0  0  0
 24 35  1  0  0  0  0
 24 36  1  0  0  0  0
 24 37  1  0  0  0  0
M  END
> <PUBCHEM_COMPOUND_CID>
2302047

> <PUBCHEM_CONFORMER_RMSD>
0.8

> <PUBCHEM_CONFORMER_DIVERSEORDER>
1
7
11
17
35
25
22
37
18
8
26
9
19
30
21
38
4
40
13
20
14
16
28
29
34
15
36
41
33
10
2
27
32
3
39
12
6
24
31
23
5

> <PUBCHEM_MMFF94_PARTIAL_CHARGES>
31
1 -0.18
10 0.25
11 0.12
12 -0.14
13 -0.02
14 -0.15
15 -0.15
16 0.08
17 -0.15
18 -0.15
19 -0.15
2 1.26
20 -0.15
21 -0.15
22 0.18
23 -0.15
24 0.28
27 0.15
28 0.15
29 0.15
3 -0.65
30 0.15
31 0.15
32 0.15
33 0.15
34 0.15
4 -0.65
5 -0.36
6 0.59
7 -0.34
8 -0.42

> <PUBCHEM_EFFECTIVE_ROTOR_COUNT>
5

> <PUBCHEM_PHARMACOPHORE_FEATURES>
7
1 3 acceptor
1 4 acceptor
1 5 acceptor
3 6 7 11 cation
5 6 7 8 9 11 rings
6 12 14 15 18 19 22 rings
6 13 16 17 20 21 23 rings

> <PUBCHEM_HEAVY_ATOM_COUNT>
24

> <PUBCHEM_ATOM_DEF_STEREO_COUNT>
0

> <PUBCHEM_ATOM_UDEF_STEREO_COUNT>
0

> <PUBCHEM_BOND_DEF_STEREO_COUNT>
0

> <PUBCHEM_BOND_UDEF_STEREO_COUNT>
0

> <PUBCHEM_ISOTOPIC_ATOM_COUNT>
0

> <PUBCHEM_COMPONENT_COUNT>
1

> <PUBCHEM_CACTVS_TAUTO_COUNT>
1

> <PUBCHEM_CONFORMER_ID>
0023205F00000001

> <PUBCHEM_MMFF94_ENERGY>
81.3571

> <PUBCHEM_FEATURE_SELFOVERLAP>
35.539

> <PUBCHEM_SHAPE_FINGERPRINT>
10498660 4 18341617078428880441
10928967 22 12751242540651980053
11089746 13 18272930505663934789
11405975 8 18040429963109203835
11595378 159 14634865332219969271
11796584 16 12895078414129996605
12363563 72 10087377637148143538
12422481 6 17604406575272783284
12633257 1 14852155321290137008
12788726 201 17417818305625885201
12892183 10 12468627369966490974
13533116 47 18335984147896104083
13878862 14 18191284023871489837
13955234 65 18335417924508158523
13965767 371 17823962615105973340
14528608 73 18272366490890991949
14848178 96 18340485663836887689
15210252 30 18261680367019127652
15239154 128 18410011048615850625
1601671 61 17822017535633045444
18186145 218 18340775926195106550
18222031 100 8790893990398428777
19377110 9 12685109098163305631
19752476 56 18059858393638062160
19784866 34 18340481278706563121
20567600 9 18339371785443324957
21120745 212 17402620641296147226
22122407 14 18269565936360558225
22393880 68 18342741853207389255
23559900 14 17676768665075024707
3380486 145 11027476713706504954
34797466 226 17917996122489219285
350125 39 18335136462869497152
376196 1 17628623456619562768
44062 13 10303276624188162027
44317340 157 18131637803013233287
474 4 18410289259037563025
495365 180 18410849971271000410
5104073 3 18186799180392551547
5219985 9 18123183503626604546
59682541 52 16558750075546145381
6034566 193 17899987319626376373
633830 44 18202008749971049909
7808743 9 17901109942932075508
960060 61 15339124558576600909

> <PUBCHEM_SHAPE_MULTIPOLES>
462.1
12.67
2.66
1.7
18.92
0.4
-0.62
-7.75
-2.24
-3.33
0.68
-1.37
-0.23
0.66

> <PUBCHEM_SHAPE_SELFOVERLAP>
977.952

> <PUBCHEM_SHAPE_VOLUME>
260.8

> <PUBCHEM_COORDINATE_TYPE>
2
5
10

$$$$
