5015783
  -OEChem-01171809353D

 52 54  0     1  0  0  0  0  0999 V2000
   -5.3017    1.4785   -2.2878 Cl  0  0  0  0  0  0  0  0  0  0  0  0
   -1.8104   -2.6567    0.9181 S   0  0  0  0  0  0  0  0  0  0  0  0
    0.3100    3.8854   -0.0386 F   0  0  0  0  0  0  0  0  0  0  0  0
    0.4669    2.5684   -1.7547 F   0  0  0  0  0  0  0  0  0  0  0  0
   -1.4395    2.7971   -0.7340 F   0  0  0  0  0  0  0  0  0  0  0  0
    5.7662    2.6408    1.1924 F   0  0  0  0  0  0  0  0  0  0  0  0
   -2.0249   -2.4049    2.3316 O   0  0  0  0  0  0  0  0  0  0  0  0
   -2.1165   -3.9682    0.3764 O   0  0  0  0  0  0  0  0  0  0  0  0
    2.5108   -3.3476    0.1815 O   0  0  0  0  0  0  0  0  0  0  0  0
   -4.4165    2.5085    0.9938 O   0  5  0  0  0  0  0  0  0  0  0  0
   -6.1478    1.1676    1.1472 O   0  0  0  0  0  0  0  0  0  0  0  0
   -0.1860   -2.1915    0.5027 N   0  0  1  0  0  0  0  0  0  0  0  0
    2.4497   -1.9193   -1.6506 N   0  0  0  0  0  0  0  0  0  0  0  0
   -4.9833    1.4165    0.7568 N   0  3  0  0  0  0  0  0  0  0  0  0
    0.3793   -2.7116   -0.7511 C   0  0  0  0  0  0  0  0  0  0  0  0
    0.1854   -0.8329    0.8762 C   0  0  0  0  0  0  0  0  0  0  0  0
   -2.7989   -1.4850    0.0282 C   0  0  0  0  0  0  0  0  0  0  0  0
   -0.1239    0.2324    0.0307 C   0  0  0  0  0  0  0  0  0  0  0  0
    1.8840   -2.7152   -0.6645 C   0  0  0  0  0  0  0  0  0  0  0  0
    0.8507   -0.5981    2.0795 C   0  0  0  0  0  0  0  0  0  0  0  0
    0.2323    1.5327    0.3884 C   0  0  0  0  0  0  0  0  0  0  0  0
   -3.5030   -0.4985    0.7186 C   0  0  0  0  0  0  0  0  0  0  0  0
   -2.8721   -1.5495   -1.3633 C   0  0  0  0  0  0  0  0  0  0  0  0
    3.8755   -1.7369   -1.8012 C   0  0  0  0  0  0  0  0  0  0  0  0
    1.2069    0.7023    2.4371 C   0  0  0  0  0  0  0  0  0  0  0  0
    0.8977    1.7677    1.5917 C   0  0  0  0  0  0  0  0  0  0  0  0
   -4.2800    0.4237    0.0176 C   0  0  0  0  0  0  0  0  0  0  0  0
   -3.6491   -0.6274   -2.0643 C   0  0  0  0  0  0  0  0  0  0  0  0
    4.3799   -0.5694   -1.0032 C   0  0  0  0  0  0  0  0  0  0  0  0
   -4.3531    0.3593   -1.3738 C   0  0  0  0  0  0  0  0  0  0  0  0
   -0.0980    2.6719   -0.5154 C   0  0  0  0  0  0  0  0  0  0  0  0
    4.4210    0.7018   -1.5761 C   0  0  0  0  0  0  0  0  0  0  0  0
    4.8071   -0.7560    0.3115 C   0  0  0  0  0  0  0  0  0  0  0  0
    4.8892    1.7862   -0.8345 C   0  0  0  0  0  0  0  0  0  0  0  0
    5.2755    0.3284    1.0532 C   0  0  0  0  0  0  0  0  0  0  0  0
    5.3165    1.5995    0.4802 C   0  0  0  0  0  0  0  0  0  0  0  0
    0.0841   -3.7556   -0.9019 H   0  0  0  0  0  0  0  0  0  0  0  0
    0.0211   -2.1430   -1.6135 H   0  0  0  0  0  0  0  0  0  0  0  0
   -0.6121    0.0685   -0.9247 H   0  0  0  0  0  0  0  0  0  0  0  0
    1.0973   -1.4222    2.7437 H   0  0  0  0  0  0  0  0  0  0  0  0
   -3.4511   -0.4355    1.8027 H   0  0  0  0  0  0  0  0  0  0  0  0
   -2.3414   -2.3179   -1.9173 H   0  0  0  0  0  0  0  0  0  0  0  0
    1.8488   -1.4120   -2.2933 H   0  0  0  0  0  0  0  0  0  0  0  0
    4.3936   -2.6557   -1.5019 H   0  0  0  0  0  0  0  0  0  0  0  0
    4.0782   -1.5903   -2.8682 H   0  0  0  0  0  0  0  0  0  0  0  0
    1.7265    0.8847    3.3732 H   0  0  0  0  0  0  0  0  0  0  0  0
    1.1845    2.7730    1.8870 H   0  0  0  0  0  0  0  0  0  0  0  0
   -3.6970   -0.6932   -3.1483 H   0  0  0  0  0  0  0  0  0  0  0  0
    4.0882    0.8605   -2.5984 H   0  0  0  0  0  0  0  0  0  0  0  0
    4.7825   -1.7405    0.7703 H   0  0  0  0  0  0  0  0  0  0  0  0
    4.9200    2.7762   -1.2796 H   0  0  0  0  0  0  0  0  0  0  0  0
    5.6078    0.1837    2.0769 H   0  0  0  0  0  0  0  0  0  0  0  0
  1 30  1  0  0  0  0
  2  7  2  0  0  0  0
  2  8  2  0  0  0  0
  2 12  1  0  0  0  0
  2 17  1  0  0  0  0
  3 31  1  0  0  0  0
  4 31  1  0  0  0  0
  5 31  1  0  0  0  0
  6 36  1  0  0  0  0
  9 19  2  0  0  0  0
 10 14  1  0  0  0  0
 11 14  2  0  0  0  0
 12 15  1  0  0  0  0
 12 16  1  0  0  0  0
 13 19  1  0  0  0  0
 13 24  1  0  0  0  0
 13 43  1  0  0  0  0
 14 27  1  0  0  0  0
 15 19  1  0  0  0  0
 15 37  1  0  0  0  0
 15 38  1  0  0  0  0
 16 18  1  0  0  0  0
 16 20  2  0  0  0  0
 17 22  2  0  0  0  0
 17 23  1  0  0  0  0
 18 21  2  0  0  0  0
 18 39  1  0  0  0  0
 20 25  1  0  0  0  0
 20 40  1  0  0  0  0
 21 26  1  0  0  0  0
 21 31  1  0  0  0  0
 22 27  1  0  0  0  0
 22 41  1  0  0  0  0
 23 28  2  0  0  0  0
 23 42  1  0  0  0  0
 24 29  1  0  0  0  0
 24 44  1  0  0  0  0
 24 45  1  0  0  0  0
 25 26  2  0  0  0  0
 25 46  1  0  0  0  0
 26 47  1  0  0  0  0
 27 30  2  0  0  0  0
 28 30  1  0  0  0  0
 28 48  1  0  0  0  0
 29 32  2  0  0  0  0
 29 33  1  0  0  0  0
 32 34  1  0  0  0  0
 32 49  1  0  0  0  0
 33 35  2  0  0  0  0
 33 50  1  0  0  0  0
 34 36  2  0  0  0  0
 34 51  1  0  0  0  0
 35 36  1  0  0  0  0
 35 52  1  0  0  0  0
M  CHG  2  10  -1  14   1
M  END
> <PUBCHEM_COMPOUND_CID>
5015783

> <PUBCHEM_CONFORMER_RMSD>
1.4

> <PUBCHEM_CONFORMER_DIVERSEORDER>
2
149
186
13
188
30
168
126
55
132
57
103
94
83
197
134
200
112
131
89
111
28
117
150
169
32
136
17
107
158
37
6
137
174
122
156
123
75
147
73
139
127
115
87
176
84
90
205
7
81
120
42
182
181
72
177
21
24
25
135
130
58
164
128
125
175
208
178
105
185
172
162
85
184
154
69
161
124
121
92
191
5
146
194
63
35
196
108
163
99
189
82
100
43
141
167
165
195
20
3
67
101
109
153
192
166
79
36
11
33
179
52
70
95
23
170
86
143
68
199
106
203
78
118
50
44
39
65
140
190
40
46
129
93
145
71
31
144
54
209
14
110
187
27
91
151
97
207
133
10
152
41
148
56
51
8
206
66
160
114
18
142
80
9
201
15
204
104
60
1
49
202
34
183
76
113
116
159
64
47
22
198
4
180
171
45
16
61
119
26
96
38
74
77
102
155
19
157
62
193
173
29
12
138
88
98
48
59
53

> <PUBCHEM_MMFF94_PARTIAL_CHARGES>
48
1 -0.18
10 -0.52
11 -0.52
12 -0.69
13 -0.73
14 0.91
15 0.42
16 0.2
17 -0.01
18 -0.15
19 0.57
2 1.45
20 -0.15
21 -0.14
22 -0.15
23 -0.15
24 0.44
25 -0.15
26 -0.15
27 0.13
28 -0.15
29 -0.14
3 -0.34
30 0.18
31 1.16
32 -0.15
33 -0.15
34 -0.15
35 -0.15
36 0.19
39 0.15
4 -0.34
40 0.15
41 0.15
42 0.15
43 0.37
46 0.15
47 0.15
48 0.15
49 0.15
5 -0.34
50 0.15
51 0.15
52 0.15
6 -0.19
7 -0.65
8 -0.65
9 -0.57

> <PUBCHEM_EFFECTIVE_ROTOR_COUNT>
10

> <PUBCHEM_PHARMACOPHORE_FEATURES>
10
1 10 acceptor
1 10 anion
1 11 acceptor
1 13 donor
1 7 acceptor
1 8 acceptor
1 9 acceptor
6 16 18 20 21 25 26 rings
6 17 22 23 27 28 30 rings
6 29 32 33 34 35 36 rings

> <PUBCHEM_HEAVY_ATOM_COUNT>
36

> <PUBCHEM_ATOM_DEF_STEREO_COUNT>
0

> <PUBCHEM_ATOM_UDEF_STEREO_COUNT>
0

> <PUBCHEM_BOND_DEF_STEREO_COUNT>
0

> <PUBCHEM_BOND_UDEF_STEREO_COUNT>
0

> <PUBCHEM_ISOTOPIC_ATOM_COUNT>
0

> <PUBCHEM_COMPONENT_COUNT>
1

> <PUBCHEM_CACTVS_TAUTO_COUNT>
2

> <PUBCHEM_CONFORMER_ID>
004C88E700000002

> <PUBCHEM_MMFF94_ENERGY>
84.4413

> <PUBCHEM_FEATURE_SELFOVERLAP>
50.849

> <PUBCHEM_SHAPE_FINGERPRINT>
10675989 125 18119518839285155391
11112241 14 17416960810930663096
12422481 6 17458056041450263926
12788726 201 18266178323079524156
144659 39 17675917694593270386
14790565 3 18124885560093903321
15484559 13 16176776123219270549
20715895 44 18334286548897269310
460360 51 18042974370275579984

> <PUBCHEM_SHAPE_MULTIPOLES>
673.2
12.06
4.13
2.13
1.74
0.55
-0.03
-5.93
2.25
0.03
-0.02
-0.56
-0.04
1.23

> <PUBCHEM_SHAPE_SELFOVERLAP>
1426.981

> <PUBCHEM_SHAPE_VOLUME>
381.6

> <PUBCHEM_COORDINATE_TYPE>
2
5
10

$$$$
