5919280
  -OEChem-01171809563D

 45 46  0     0  0  0  0  0  0999 V2000
    6.4177    0.2724   -0.0567 O   0  0  0  0  0  0  0  0  0  0  0  0
    5.2191    2.1756    0.3866 O   0  0  0  0  0  0  0  0  0  0  0  0
   -4.2184    1.4329   -0.5047 O   0  0  0  0  0  0  0  0  0  0  0  0
   -9.1287    1.2570   -0.3122 O   0  0  0  0  0  0  0  0  0  0  0  0
   -8.6469   -0.8615    0.3834 O   0  0  0  0  0  0  0  0  0  0  0  0
    1.9688   -0.5312   -0.0173 N   0  0  0  0  0  0  0  0  0  0  0  0
    2.6771   -1.6506   -0.2783 N   0  0  0  0  0  0  0  0  0  0  0  0
   -3.5914   -0.7185    0.1971 N   0  0  0  0  0  0  0  0  0  0  0  0
    2.7616    0.5718    0.1712 C   0  0  0  0  0  0  0  0  0  0  0  0
    4.0583    0.1432    0.0245 C   0  0  0  0  0  0  0  0  0  0  0  0
    3.9454   -1.2325   -0.2512 C   0  0  0  0  0  0  0  0  0  0  0  0
    0.5881   -0.5779    0.0363 C   0  0  0  0  0  0  0  0  0  0  0  0
    2.2124    1.9107    0.4694 C   0  0  0  0  0  0  0  0  0  0  0  0
   -0.0554   -1.7464    0.4439 C   0  0  0  0  0  0  0  0  0  0  0  0
   -0.1616    0.5437   -0.3180 C   0  0  0  0  0  0  0  0  0  0  0  0
    5.0318   -2.1972   -0.4977 C   0  0  0  0  0  0  0  0  0  0  0  0
    5.2325    0.9561    0.1371 C   0  0  0  0  0  0  0  0  0  0  0  0
   -2.1767   -0.6709    0.1423 C   0  0  0  0  0  0  0  0  0  0  0  0
   -1.4485   -1.7933    0.4973 C   0  0  0  0  0  0  0  0  0  0  0  0
   -1.5548    0.4969   -0.2646 C   0  0  0  0  0  0  0  0  0  0  0  0
    7.6318    1.0256    0.0416 C   0  0  0  0  0  0  0  0  0  0  0  0
    8.8062    0.1017   -0.2008 C   0  0  0  0  0  0  0  0  0  0  0  0
   -4.4813    0.3000   -0.1186 C   0  0  0  0  0  0  0  0  0  0  0  0
   -5.8945   -0.1473    0.0696 C   0  0  0  0  0  0  0  0  0  0  0  0
   -6.9010    0.6978   -0.1852 C   0  0  0  0  0  0  0  0  0  0  0  0
   -8.2919    0.2418    0.0050 C   0  0  0  0  0  0  0  0  0  0  0  0
    2.9436    2.5063    1.0266 H   0  0  0  0  0  0  0  0  0  0  0  0
    2.0038    2.4756   -0.4440 H   0  0  0  0  0  0  0  0  0  0  0  0
    1.3469    1.8943    1.1376 H   0  0  0  0  0  0  0  0  0  0  0  0
    0.5002   -2.6340    0.7367 H   0  0  0  0  0  0  0  0  0  0  0  0
    0.2554    1.4359   -0.7650 H   0  0  0  0  0  0  0  0  0  0  0  0
    4.6416   -3.2037   -0.6854 H   0  0  0  0  0  0  0  0  0  0  0  0
    5.6194   -1.9075   -1.3749 H   0  0  0  0  0  0  0  0  0  0  0  0
    5.6989   -2.2633    0.3677 H   0  0  0  0  0  0  0  0  0  0  0  0
   -1.9400   -2.7073    0.8184 H   0  0  0  0  0  0  0  0  0  0  0  0
   -2.0647    1.3941   -0.5828 H   0  0  0  0  0  0  0  0  0  0  0  0
   -3.9741   -1.6100    0.5054 H   0  0  0  0  0  0  0  0  0  0  0  0
    7.7058    1.4662    1.0418 H   0  0  0  0  0  0  0  0  0  0  0  0
    7.6257    1.8235   -0.7088 H   0  0  0  0  0  0  0  0  0  0  0  0
    8.7341   -0.3614   -1.1904 H   0  0  0  0  0  0  0  0  0  0  0  0
    8.8127   -0.7129    0.5311 H   0  0  0  0  0  0  0  0  0  0  0  0
    9.7525    0.6455   -0.1330 H   0  0  0  0  0  0  0  0  0  0  0  0
   -6.0736   -1.1608    0.4131 H   0  0  0  0  0  0  0  0  0  0  0  0
   -6.7382    1.7133   -0.5290 H   0  0  0  0  0  0  0  0  0  0  0  0
  -10.0704    1.0049   -0.2025 H   0  0  0  0  0  0  0  0  0  0  0  0
  1 17  1  0  0  0  0
  1 21  1  0  0  0  0
  2 17  2  0  0  0  0
  3 23  2  0  0  0  0
  4 26  1  0  0  0  0
  4 45  1  0  0  0  0
  5 26  2  0  0  0  0
  6  7  1  0  0  0  0
  6  9  1  0  0  0  0
  6 12  1  0  0  0  0
  7 11  2  0  0  0  0
  8 18  1  0  0  0  0
  8 23  1  0  0  0  0
  8 37  1  0  0  0  0
  9 10  2  0  0  0  0
  9 13  1  0  0  0  0
 10 11  1  0  0  0  0
 10 17  1  0  0  0  0
 11 16  1  0  0  0  0
 12 14  2  0  0  0  0
 12 15  1  0  0  0  0
 13 27  1  0  0  0  0
 13 28  1  0  0  0  0
 13 29  1  0  0  0  0
 14 19  1  0  0  0  0
 14 30  1  0  0  0  0
 15 20  2  0  0  0  0
 15 31  1  0  0  0  0
 16 32  1  0  0  0  0
 16 33  1  0  0  0  0
 16 34  1  0  0  0  0
 18 19  2  0  0  0  0
 18 20  1  0  0  0  0
 19 35  1  0  0  0  0
 20 36  1  0  0  0  0
 21 22  1  0  0  0  0
 21 38  1  0  0  0  0
 21 39  1  0  0  0  0
 22 40  1  0  0  0  0
 22 41  1  0  0  0  0
 22 42  1  0  0  0  0
 23 24  1  0  0  0  0
 24 25  2  0  0  0  0
 24 43  1  0  0  0  0
 25 26  1  0  0  0  0
 25 44  1  0  0  0  0
M  END
> <PUBCHEM_COMPOUND_CID>
5919280

> <PUBCHEM_CONFORMER_RMSD>
0.8

> <PUBCHEM_CONFORMER_DIVERSEORDER>
1
19
10
22
4
25
8
18
21
20
2
13
23
17
6
9
15
12
7
16
24
5
3
14
11

> <PUBCHEM_MMFF94_PARTIAL_CHARGES>
33
1 -0.43
10 -0.09
11 0.11
12 -0.02
13 0.18
14 -0.15
15 -0.15
16 0.18
17 0.81
18 0.12
19 -0.15
2 -0.57
20 -0.15
21 0.28
23 0.62
24 -0.14
25 -0.14
26 0.71
3 -0.57
30 0.15
31 0.15
35 0.15
36 0.15
37 0.37
4 -0.65
43 0.15
44 0.15
45 0.5
5 -0.57
6 0.59
7 -0.71
8 -0.55
9 -0.33

> <PUBCHEM_EFFECTIVE_ROTOR_COUNT>
8

> <PUBCHEM_PHARMACOPHORE_FEATURES>
9
1 2 acceptor
1 3 acceptor
1 4 acceptor
1 5 acceptor
1 7 acceptor
1 8 donor
3 4 5 26 anion
5 6 7 9 10 11 rings
6 12 14 15 18 19 20 rings

> <PUBCHEM_HEAVY_ATOM_COUNT>
26

> <PUBCHEM_ATOM_DEF_STEREO_COUNT>
0

> <PUBCHEM_ATOM_UDEF_STEREO_COUNT>
0

> <PUBCHEM_BOND_DEF_STEREO_COUNT>
1

> <PUBCHEM_BOND_UDEF_STEREO_COUNT>
0

> <PUBCHEM_ISOTOPIC_ATOM_COUNT>
0

> <PUBCHEM_COMPONENT_COUNT>
1

> <PUBCHEM_CACTVS_TAUTO_COUNT>
2

> <PUBCHEM_CONFORMER_ID>
005A523000000001

> <PUBCHEM_MMFF94_ENERGY>
71.803

> <PUBCHEM_FEATURE_SELFOVERLAP>
45.729

> <PUBCHEM_SHAPE_FINGERPRINT>
10 15 17967249806422171441
10299344 5 17704069599813223159
10411042 1 17980764836502191070
106641 1 16877664582548923785
11408170 108 16414929539886479054
11638347 137 16588019091950826568
12236239 1 18060419093482060427
12838862 33 18338218432200341936
13533116 47 17917991637831653730
14123256 10 18060701692986056041
14170010 4 18410856568251141524
14251764 18 18409726266350778779
14251764 46 17676206874846545283
14933364 13 18411136923064047869
15183329 4 18273497861995254835
15510794 2 18187651306046369355
15840311 113 17603872243462013404
15849732 13 18333170570597073599
16120349 18 18410009966268553764
18335252 98 18411422834684401355
18608769 82 18335420205531002339
20157964 124 18343022176969314510
21150785 3 15841554080558664096
21792934 111 18340476786408207112
221357 26 18342737386668183017
22224240 67 17749106704019808851
232437 2 18409449189072542962
23559900 14 18342171210819503448
249057 3 16773792628066868413
335352 9 18411421735219915188
33684 2 18410855460133443048
34797466 226 17775290460453176349
3545911 37 18410292528019312892
4073 2 18187930645975941043
4325135 7 18272088300936651797
4340502 62 16008746901089306147
5758199 1 18334577928527552275
59682541 35 18113621218217919241
67123 10 18412544328154823047
8209 1 18410856563934769869

> <PUBCHEM_SHAPE_MULTIPOLES>
490.78
26.01
1.84
0.67
26.8
0.26
0.01
-7.23
-1.26
-1.72
0.08
-0.02
0.02
1

> <PUBCHEM_SHAPE_SELFOVERLAP>
1041.295

> <PUBCHEM_SHAPE_VOLUME>
275.1

> <PUBCHEM_COORDINATE_TYPE>
2
5
10

$$$$
