2538553
  -OEChem-01171810083D

 52 56  0     0  0  0  0  0  0999 V2000
   -1.7201   -0.2058   -2.2839 S   0  0  0  0  0  0  0  0  0  0  0  0
   -1.7701   -3.0445    2.2582 S   0  0  0  0  0  0  0  0  0  0  0  0
    4.4960    2.2747   -0.1121 O   0  0  0  0  0  0  0  0  0  0  0  0
    0.9894   -0.2544   -1.9830 O   0  0  0  0  0  0  0  0  0  0  0  0
    3.6980    0.1040   -0.3219 N   0  0  0  0  0  0  0  0  0  0  0  0
    1.4517    1.9340   -1.9374 N   0  0  0  0  0  0  0  0  0  0  0  0
    0.0853    1.7891   -2.0894 N   0  0  0  0  0  0  0  0  0  0  0  0
   -1.0156   -2.7725   -2.0607 N   0  0  0  0  0  0  0  0  0  0  0  0
   -1.0077   -4.1305   -0.0522 N   0  0  0  0  0  0  0  0  0  0  0  0
    2.3229   -1.2253    1.2614 C   0  0  0  0  0  0  0  0  0  0  0  0
    2.7191   -0.7013    2.6403 C   0  0  0  0  0  0  0  0  0  0  0  0
    3.4740   -1.2200    0.2611 C   0  0  0  0  0  0  0  0  0  0  0  0
    3.2216    0.7403    2.6493 C   0  0  0  0  0  0  0  0  0  0  0  0
    4.5096    0.9407    1.8579 C   0  0  0  0  0  0  0  0  0  0  0  0
    4.2403    1.1748    0.3843 C   0  0  0  0  0  0  0  0  0  0  0  0
    3.3273    0.2690   -1.7213 C   0  0  0  0  0  0  0  0  0  0  0  0
    1.9049    0.7268   -1.8833 C   0  0  0  0  0  0  0  0  0  0  0  0
   -2.1606   -0.8534    0.9767 C   0  0  0  0  0  0  0  0  0  0  0  0
   -1.6989   -1.7926    0.0016 C   0  0  0  0  0  0  0  0  0  0  0  0
   -0.1390    0.4961   -2.1112 C   0  0  0  0  0  0  0  0  0  0  0  0
   -2.5307    0.5298    0.8081 C   0  0  0  0  0  0  0  0  0  0  0  0
   -1.4574   -1.7190   -1.3613 C   0  0  0  0  0  0  0  0  0  0  0  0
   -1.4514   -3.0288    0.5841 C   0  0  0  0  0  0  0  0  0  0  0  0
   -2.2444   -1.4011    2.2384 C   0  0  0  0  0  0  0  0  0  0  0  0
   -1.5682    1.5255    0.9470 C   0  0  0  0  0  0  0  0  0  0  0  0
   -3.8488    0.8608    0.5064 C   0  0  0  0  0  0  0  0  0  0  0  0
   -3.2460    3.2003    0.4803 C   0  0  0  0  0  0  0  0  0  0  0  0
   -1.9266    2.8635    0.7829 C   0  0  0  0  0  0  0  0  0  0  0  0
   -4.2072    2.1988    0.3422 C   0  0  0  0  0  0  0  0  0  0  0  0
   -0.8186   -3.9098   -1.3654 C   0  0  0  0  0  0  0  0  0  0  0  0
   -3.6286    4.6308    0.3030 C   0  0  0  0  0  0  0  0  0  0  0  0
    1.9769   -2.2587    1.3865 H   0  0  0  0  0  0  0  0  0  0  0  0
    1.4719   -0.6515    0.8768 H   0  0  0  0  0  0  0  0  0  0  0  0
    3.4845   -1.3571    3.0737 H   0  0  0  0  0  0  0  0  0  0  0  0
    1.8451   -0.7698    3.2998 H   0  0  0  0  0  0  0  0  0  0  0  0
    4.4028   -1.5620    0.7305 H   0  0  0  0  0  0  0  0  0  0  0  0
    3.2492   -1.9299   -0.5430 H   0  0  0  0  0  0  0  0  0  0  0  0
    3.4105    1.0204    3.6929 H   0  0  0  0  0  0  0  0  0  0  0  0
    2.4339    1.4082    2.2794 H   0  0  0  0  0  0  0  0  0  0  0  0
    5.2149    0.1145    1.9915 H   0  0  0  0  0  0  0  0  0  0  0  0
    5.0134    1.8399    2.2352 H   0  0  0  0  0  0  0  0  0  0  0  0
    3.5050   -0.6626   -2.2696 H   0  0  0  0  0  0  0  0  0  0  0  0
    3.9778    1.0263   -2.1748 H   0  0  0  0  0  0  0  0  0  0  0  0
   -2.5597   -0.9254    3.1577 H   0  0  0  0  0  0  0  0  0  0  0  0
   -0.5354    1.2797    1.1827 H   0  0  0  0  0  0  0  0  0  0  0  0
   -4.6094    0.0919    0.3946 H   0  0  0  0  0  0  0  0  0  0  0  0
   -1.1685    3.6344    0.8935 H   0  0  0  0  0  0  0  0  0  0  0  0
   -5.2386    2.4484    0.1078 H   0  0  0  0  0  0  0  0  0  0  0  0
   -3.9308    5.0605    1.2631 H   0  0  0  0  0  0  0  0  0  0  0  0
   -2.7934    5.2161   -0.0966 H   0  0  0  0  0  0  0  0  0  0  0  0
   -4.4586    4.7334   -0.4043 H   0  0  0  0  0  0  0  0  0  0  0  0
   -0.4603   -4.7568   -1.9399 H   0  0  0  0  0  0  0  0  0  0  0  0
  1 20  1  0  0  0  0
  1 22  1  0  0  0  0
  2 23  1  0  0  0  0
  2 24  1  0  0  0  0
  3 15  2  0  0  0  0
  4 17  1  0  0  0  0
  4 20  1  0  0  0  0
  5 12  1  0  0  0  0
  5 15  1  0  0  0  0
  5 16  1  0  0  0  0
  6  7  1  0  0  0  0
  6 17  2  0  0  0  0
  7 20  2  0  0  0  0
  8 22  2  0  0  0  0
  8 30  1  0  0  0  0
  9 23  1  0  0  0  0
  9 30  2  0  0  0  0
 10 11  1  0  0  0  0
 10 12  1  0  0  0  0
 10 32  1  0  0  0  0
 10 33  1  0  0  0  0
 11 13  1  0  0  0  0
 11 34  1  0  0  0  0
 11 35  1  0  0  0  0
 12 36  1  0  0  0  0
 12 37  1  0  0  0  0
 13 14  1  0  0  0  0
 13 38  1  0  0  0  0
 13 39  1  0  0  0  0
 14 15  1  0  0  0  0
 14 40  1  0  0  0  0
 14 41  1  0  0  0  0
 16 17  1  0  0  0  0
 16 42  1  0  0  0  0
 16 43  1  0  0  0  0
 18 19  1  0  0  0  0
 18 21  1  0  0  0  0
 18 24  2  0  0  0  0
 19 22  1  0  0  0  0
 19 23  2  0  0  0  0
 21 25  2  0  0  0  0
 21 26  1  0  0  0  0
 24 44  1  0  0  0  0
 25 28  1  0  0  0  0
 25 45  1  0  0  0  0
 26 29  2  0  0  0  0
 26 46  1  0  0  0  0
 27 28  2  0  0  0  0
 27 29  1  0  0  0  0
 27 31  1  0  0  0  0
 28 47  1  0  0  0  0
 29 48  1  0  0  0  0
 30 52  1  0  0  0  0
 31 49  1  0  0  0  0
 31 50  1  0  0  0  0
 31 51  1  0  0  0  0
M  END
> <PUBCHEM_COMPOUND_CID>
2538553

> <PUBCHEM_CONFORMER_RMSD>
1

> <PUBCHEM_CONFORMER_DIVERSEORDER>
2
16
64
132
108
175
49
145
134
135
42
46
143
189
3
83
128
168
164
91
89
4
190
178
23
22
169
139
115
24
7
87
130
80
184
137
185
52
160
101
90
161
194
163
181
180
39
182
77
152
60
162
85
56
15
116
13
8
68
12
21
107
110
76
186
14
105
123
59
73
17
187
102
159
11
71
120
30
57
44
133
74
33
125
67
35
6
10
31
18
165
88
84
147
174
156
193
1
151
72
19
170
124
54
95
81
25
66
69
48
146
141
176
173
34
97
94
140
149
177
144
136
58
32
47
38
92
131
75
26
9
179
166
5
20
28
27
192
195
65
109
96
114
138
50
121
122
157
154
40
111
70
113
142
62
118
106
51
29
112
37
119
155
98
167
148
61
171
153
188
158
117
191
104
79
43
53
86
183
36
150
45
93
172
63
82
99
129
55
78
41
127
126
103
100

> <PUBCHEM_MMFF94_PARTIAL_CHARGES>
33
1 -0.16
12 0.3
14 0.06
15 0.57
16 0.48
17 0.3
18 -0.05
2 -0.08
20 0.53
21 0.05
22 0.41
23 0.3
24 -0.11
25 -0.15
26 -0.15
27 -0.14
28 -0.15
29 -0.15
3 -0.57
30 0.47
31 0.14
4 -0.28
44 0.15
45 0.15
46 0.15
47 0.15
48 0.15
5 -0.66
52 0.15
6 -0.34
7 -0.34
8 -0.62
9 -0.57

> <PUBCHEM_EFFECTIVE_ROTOR_COUNT>
6.2

> <PUBCHEM_PHARMACOPHORE_FEATURES>
8
1 3 acceptor
1 8 acceptor
3 8 9 30 cation
5 2 18 19 23 24 rings
5 4 6 7 17 20 rings
6 21 25 26 27 28 29 rings
6 8 9 19 22 23 30 rings
7 5 10 11 12 13 14 15 rings

> <PUBCHEM_HEAVY_ATOM_COUNT>
31

> <PUBCHEM_ATOM_DEF_STEREO_COUNT>
0

> <PUBCHEM_ATOM_UDEF_STEREO_COUNT>
0

> <PUBCHEM_BOND_DEF_STEREO_COUNT>
0

> <PUBCHEM_BOND_UDEF_STEREO_COUNT>
0

> <PUBCHEM_ISOTOPIC_ATOM_COUNT>
0

> <PUBCHEM_COMPONENT_COUNT>
1

> <PUBCHEM_CACTVS_TAUTO_COUNT>
1

> <PUBCHEM_CONFORMER_ID>
0026BC3900000002

> <PUBCHEM_MMFF94_ENERGY>
61.3192

> <PUBCHEM_FEATURE_SELFOVERLAP>
40.679

> <PUBCHEM_SHAPE_FINGERPRINT>
10764073 3 14781778644513508621
11370993 70 18268720419537651732
11552529 35 18193545882435284694
11582403 64 17845088463844121141
11725454 13 17774445975557000061
12156800 1 13318610249835537858
12422481 6 16373828579089908933
12539773 59 18042391577388557107
12788726 201 18267851947359812547
13583140 156 17489308646290102390
14251764 3 17703231706905920977
14468879 13 17059472136925641984
17974551 9 18339085874166408810
19315092 285 16666278171729552538
20511986 3 17749390416242490228
21033648 29 18202006486597852736
21860390 5 17190936056602505075
23559900 14 17908717132781681917
238 59 14692565520602130512
3298306 158 17984411941554759945
3493558 16 17193186769800047043
35225 105 18343579625048153960
469060 322 16195610160728925458
5283178 26 17757540868527141938
9981440 41 18340499859083245211

> <PUBCHEM_SHAPE_MULTIPOLES>
609.02
7.71
4.9
2.88
5.77
1.29
0.21
-7.08
-3.37
-5.3
-0.22
1.36
0.72
-0.42

> <PUBCHEM_SHAPE_SELFOVERLAP>
1309.762

> <PUBCHEM_SHAPE_VOLUME>
339

> <PUBCHEM_COORDINATE_TYPE>
2
5
10

$$$$
