976709
  -OEChem-01171809183D

 34 36  0     0  0  0  0  0  0999 V2000
    6.2564   -1.1890   -0.1791 S   0  0  0  0  0  0  0  0  0  0  0  0
   -6.3886    0.1809    0.0451 O   0  0  0  0  0  0  0  0  0  0  0  0
    2.6829    1.7524    0.3022 O   0  0  0  0  0  0  0  0  0  0  0  0
   -3.5924   -0.0679   -0.0856 N   0  0  0  0  0  0  0  0  0  0  0  0
    1.9838   -0.4635   -0.0571 N   0  0  0  0  0  0  0  0  0  0  0  0
    4.5797   -1.1273   -0.1695 N   0  0  0  0  0  0  0  0  0  0  0  0
    6.6190    0.4257    0.0979 N   0  0  0  0  0  0  0  0  0  0  0  0
   -4.4196   -1.1935    0.3659 C   0  0  0  0  0  0  0  0  0  0  0  0
   -4.2891    0.8905   -0.9493 C   0  0  0  0  0  0  0  0  0  0  0  0
   -5.7094   -0.6613    0.9780 C   0  0  0  0  0  0  0  0  0  0  0  0
   -5.5923    1.3200   -0.2828 C   0  0  0  0  0  0  0  0  0  0  0  0
   -2.2185   -0.1654   -0.0795 C   0  0  0  0  0  0  0  0  0  0  0  0
   -1.5785   -1.4069   -0.2642 C   0  0  0  0  0  0  0  0  0  0  0  0
   -1.4115    0.9737    0.1127 C   0  0  0  0  0  0  0  0  0  0  0  0
    0.5922   -0.3647   -0.0647 C   0  0  0  0  0  0  0  0  0  0  0  0
   -0.1871   -1.5057   -0.2567 C   0  0  0  0  0  0  0  0  0  0  0  0
   -0.0201    0.8750    0.1200 C   0  0  0  0  0  0  0  0  0  0  0  0
    2.9206    0.5633    0.1196 C   0  0  0  0  0  0  0  0  0  0  0  0
    4.3454    0.1452    0.0484 C   0  0  0  0  0  0  0  0  0  0  0  0
    5.4272    1.0184    0.1988 C   0  0  0  0  0  0  0  0  0  0  0  0
   -3.9070   -1.7949    1.1261 H   0  0  0  0  0  0  0  0  0  0  0  0
   -4.6476   -1.8372   -0.4924 H   0  0  0  0  0  0  0  0  0  0  0  0
   -4.5027    0.4019   -1.9079 H   0  0  0  0  0  0  0  0  0  0  0  0
   -3.6865    1.7806   -1.1589 H   0  0  0  0  0  0  0  0  0  0  0  0
   -6.3765   -1.4923    1.2282 H   0  0  0  0  0  0  0  0  0  0  0  0
   -5.5149   -0.0998    1.8999 H   0  0  0  0  0  0  0  0  0  0  0  0
   -5.4021    1.9037    0.6261 H   0  0  0  0  0  0  0  0  0  0  0  0
   -6.1716    1.9487   -0.9663 H   0  0  0  0  0  0  0  0  0  0  0  0
   -2.1526   -2.3148   -0.4334 H   0  0  0  0  0  0  0  0  0  0  0  0
   -1.8652    1.9491    0.2746 H   0  0  0  0  0  0  0  0  0  0  0  0
    0.2770   -2.4774   -0.4054 H   0  0  0  0  0  0  0  0  0  0  0  0
    0.5126    1.8019    0.2784 H   0  0  0  0  0  0  0  0  0  0  0  0
    2.3545   -1.4004   -0.2021 H   0  0  0  0  0  0  0  0  0  0  0  0
    5.4098    2.0838    0.3815 H   0  0  0  0  0  0  0  0  0  0  0  0
  1  6  1  0  0  0  0
  1  7  1  0  0  0  0
  2 10  1  0  0  0  0
  2 11  1  0  0  0  0
  3 18  2  0  0  0  0
  4  8  1  0  0  0  0
  4  9  1  0  0  0  0
  4 12  1  0  0  0  0
  5 15  1  0  0  0  0
  5 18  1  0  0  0  0
  5 33  1  0  0  0  0
  6 19  2  0  0  0  0
  7 20  2  0  0  0  0
  8 10  1  0  0  0  0
  8 21  1  0  0  0  0
  8 22  1  0  0  0  0
  9 11  1  0  0  0  0
  9 23  1  0  0  0  0
  9 24  1  0  0  0  0
 10 25  1  0  0  0  0
 10 26  1  0  0  0  0
 11 27  1  0  0  0  0
 11 28  1  0  0  0  0
 12 13  2  0  0  0  0
 12 14  1  0  0  0  0
 13 16  1  0  0  0  0
 13 29  1  0  0  0  0
 14 17  2  0  0  0  0
 14 30  1  0  0  0  0
 15 16  2  0  0  0  0
 15 17  1  0  0  0  0
 16 31  1  0  0  0  0
 17 32  1  0  0  0  0
 18 19  1  0  0  0  0
 19 20  1  0  0  0  0
 20 34  1  0  0  0  0
M  END
> <PUBCHEM_COMPOUND_CID>
976709

> <PUBCHEM_CONFORMER_RMSD>
0.8

> <PUBCHEM_CONFORMER_DIVERSEORDER>
1
5
2
3
4

> <PUBCHEM_MMFF94_PARTIAL_CHARGES>
26
1 0.44
10 0.28
11 0.28
12 0.1
13 -0.15
14 -0.15
15 0.12
16 -0.15
17 -0.15
18 0.72
19 0.2
2 -0.56
20 0.14
29 0.15
3 -0.57
30 0.15
31 0.15
32 0.15
33 0.37
34 0.15
4 -0.84
5 -0.55
6 -0.51
7 -0.51
8 0.37
9 0.37

> <PUBCHEM_EFFECTIVE_ROTOR_COUNT>
5.2

> <PUBCHEM_PHARMACOPHORE_FEATURES>
9
1 2 acceptor
1 3 acceptor
1 4 cation
1 5 donor
1 6 acceptor
1 7 acceptor
5 1 6 7 19 20 rings
6 12 13 14 15 16 17 rings
6 2 4 8 9 10 11 rings

> <PUBCHEM_HEAVY_ATOM_COUNT>
20

> <PUBCHEM_ATOM_DEF_STEREO_COUNT>
0

> <PUBCHEM_ATOM_UDEF_STEREO_COUNT>
0

> <PUBCHEM_BOND_DEF_STEREO_COUNT>
0

> <PUBCHEM_BOND_UDEF_STEREO_COUNT>
0

> <PUBCHEM_ISOTOPIC_ATOM_COUNT>
0

> <PUBCHEM_COMPONENT_COUNT>
1

> <PUBCHEM_CACTVS_TAUTO_COUNT>
2

> <PUBCHEM_CONFORMER_ID>
000EE74500000001

> <PUBCHEM_MMFF94_ENERGY>
61.2073

> <PUBCHEM_FEATURE_SELFOVERLAP>
45.685

> <PUBCHEM_SHAPE_FINGERPRINT>
10 15 18335132142544211792
11089746 13 16487254378661310011
12091667 2 18411135849100684311
12166972 35 18335143119536705669
12236239 1 17967250901622968452
12403259 415 18410281523659563989
12916748 109 18410295800689459912
13167372 99 18060425676897188648
13533116 47 15554174666868510494
13862211 1 18343017809161504911
1420 363 18334580143786444186
14251752 14 18408882910677592944
14251764 18 18273214230924044191
14251764 46 17022621979072114643
14341114 176 18410296917169953760
14933364 13 18334296469886756708
15183329 4 18272934899541994706
15196674 1 18339922722346494804
17834076 25 16153708717170721608
17844677 252 18187090563173290573
19141452 34 18272367615866715518
19489759 90 17385443220094851497
200 152 17632574946252545376
20281389 69 18408602560813801104
21033648 29 18337374007354976361
21236236 1 18130228151470634953
21267235 1 18340775862651584598
21279426 13 18267022752093588278
220451 1 17203609298207165102
23035841 295 17894911823580708075
23402539 116 18060413633940376037
23536379 177 18113899351314259080
23559900 14 18201711903528277600
29717793 49 17489592247375754276
300161 21 18059849597945790910
3004659 81 18335139774716491766
3014965 18 18339358561713865318
328311 84 18409454669651487114
335352 9 18413107277132324636
350125 39 18412263934808803168
3545911 37 18411982468632510454
4073 2 17968100884547217858
42788 4 18410292510180021740
4340502 62 17095242505968394106
4463277 17 18410012139236850432
5104073 3 18200026390620278162
542803 24 16225766315645970238
59755656 215 18410014291142482294
59755656 520 17894345596926559715
9996256 80 18340485659869123711

> <PUBCHEM_SHAPE_MULTIPOLES>
383.78
17.28
1.51
0.73
5.87
0.05
0
-0.49
-0.81
0.08
0.03
-0.49
0.01
0.83

> <PUBCHEM_SHAPE_SELFOVERLAP>
808.991

> <PUBCHEM_SHAPE_VOLUME>
216.6

> <PUBCHEM_COORDINATE_TYPE>
2
5
10

$$$$
