4035194
  -OEChem-01171809513D

 46 47  0     0  0  0  0  0  0999 V2000
   -7.1622    0.4237    1.0112 O   0  0  0  0  0  0  0  0  0  0  0  0
    2.0559    0.3297   -0.8630 O   0  0  0  0  0  0  0  0  0  0  0  0
   -0.1865    1.7204   -0.7014 O   0  0  0  0  0  0  0  0  0  0  0  0
    2.9933    2.4199   -0.3458 O   0  5  0  0  0  0  0  0  0  0  0  0
    4.9490    2.6795    0.6171 O   0  0  0  0  0  0  0  0  0  0  0  0
   -3.8695   -0.3101   -0.5099 N   0  0  0  0  0  0  0  0  0  0  0  0
    5.3363    0.0163    0.7302 N   0  0  0  0  0  0  0  0  0  0  0  0
    4.0412    1.9582    0.1528 N   0  3  0  0  0  0  0  0  0  0  0  0
   -2.8481    0.6021   -0.5624 C   0  0  0  0  0  0  0  0  0  0  0  0
   -3.3538   -1.5795   -0.5435 C   0  0  0  0  0  0  0  0  0  0  0  0
   -1.6957   -0.1109   -0.6279 C   0  0  0  0  0  0  0  0  0  0  0  0
   -5.2779    0.0163   -0.4318 C   0  0  0  0  0  0  0  0  0  0  0  0
   -1.9823   -1.4758   -0.6175 C   0  0  0  0  0  0  0  0  0  0  0  0
   -3.0997    2.0595   -0.5428 C   0  0  0  0  0  0  0  0  0  0  0  0
   -5.7687    0.1418    1.0042 C   0  0  0  0  0  0  0  0  0  0  0  0
   -4.2112   -2.7819   -0.5020 C   0  0  0  0  0  0  0  0  0  0  0  0
   -0.3585    0.4996   -0.6981 C   0  0  0  0  0  0  0  0  0  0  0  0
    0.8482   -0.4256   -0.7671 C   0  0  0  0  0  0  0  0  0  0  0  0
    3.1773   -0.2241   -0.3310 C   0  0  0  0  0  0  0  0  0  0  0  0
   -7.6643    0.5379    2.3356 C   0  0  0  0  0  0  0  0  0  0  0  0
    4.2093    0.5366    0.1945 C   0  0  0  0  0  0  0  0  0  0  0  0
    3.3105   -1.6080   -0.3052 C   0  0  0  0  0  0  0  0  0  0  0  0
    5.4302   -1.3324    0.7379 C   0  0  0  0  0  0  0  0  0  0  0  0
    4.4554   -2.1807    0.2378 C   0  0  0  0  0  0  0  0  0  0  0  0
    6.6720   -1.9124    1.3281 C   0  0  0  0  0  0  0  0  0  0  0  0
   -5.4721    0.9320   -1.0008 H   0  0  0  0  0  0  0  0  0  0  0  0
   -5.8481   -0.7571   -0.9591 H   0  0  0  0  0  0  0  0  0  0  0  0
   -1.2950   -2.3098   -0.6582 H   0  0  0  0  0  0  0  0  0  0  0  0
   -4.0663    2.3332   -0.1132 H   0  0  0  0  0  0  0  0  0  0  0  0
   -2.3546    2.5802    0.0667 H   0  0  0  0  0  0  0  0  0  0  0  0
   -3.0539    2.4647   -1.5588 H   0  0  0  0  0  0  0  0  0  0  0  0
   -5.5848   -0.7899    1.5521 H   0  0  0  0  0  0  0  0  0  0  0  0
   -5.2320    0.9466    1.5205 H   0  0  0  0  0  0  0  0  0  0  0  0
   -4.8353   -2.8493   -1.3988 H   0  0  0  0  0  0  0  0  0  0  0  0
   -4.8589   -2.7825    0.3797 H   0  0  0  0  0  0  0  0  0  0  0  0
   -3.6018   -3.6912   -0.4585 H   0  0  0  0  0  0  0  0  0  0  0  0
    0.8255   -1.0275    0.1503 H   0  0  0  0  0  0  0  0  0  0  0  0
    0.7563   -1.0572   -1.6573 H   0  0  0  0  0  0  0  0  0  0  0  0
   -7.1683    1.3573    2.8649 H   0  0  0  0  0  0  0  0  0  0  0  0
   -8.7343    0.7558    2.2804 H   0  0  0  0  0  0  0  0  0  0  0  0
   -7.5273   -0.4011    2.8806 H   0  0  0  0  0  0  0  0  0  0  0  0
    2.5625   -2.2756   -0.7220 H   0  0  0  0  0  0  0  0  0  0  0  0
    4.5740   -3.2588    0.2581 H   0  0  0  0  0  0  0  0  0  0  0  0
    7.2080   -2.5053    0.5802 H   0  0  0  0  0  0  0  0  0  0  0  0
    6.4253   -2.5514    2.1819 H   0  0  0  0  0  0  0  0  0  0  0  0
    7.3457   -1.1242    1.6800 H   0  0  0  0  0  0  0  0  0  0  0  0
  1 15  1  0  0  0  0
  1 20  1  0  0  0  0
  2 18  1  0  0  0  0
  2 19  1  0  0  0  0
  3 17  2  0  0  0  0
  4  8  1  0  0  0  0
  5  8  2  0  0  0  0
  6  9  1  0  0  0  0
  6 10  1  0  0  0  0
  6 12  1  0  0  0  0
  7 21  1  0  0  0  0
  7 23  2  0  0  0  0
  8 21  1  0  0  0  0
  9 11  2  0  0  0  0
  9 14  1  0  0  0  0
 10 13  2  0  0  0  0
 10 16  1  0  0  0  0
 11 13  1  0  0  0  0
 11 17  1  0  0  0  0
 12 15  1  0  0  0  0
 12 26  1  0  0  0  0
 12 27  1  0  0  0  0
 13 28  1  0  0  0  0
 14 29  1  0  0  0  0
 14 30  1  0  0  0  0
 14 31  1  0  0  0  0
 15 32  1  0  0  0  0
 15 33  1  0  0  0  0
 16 34  1  0  0  0  0
 16 35  1  0  0  0  0
 16 36  1  0  0  0  0
 17 18  1  0  0  0  0
 18 37  1  0  0  0  0
 18 38  1  0  0  0  0
 19 21  2  0  0  0  0
 19 22  1  0  0  0  0
 20 39  1  0  0  0  0
 20 40  1  0  0  0  0
 20 41  1  0  0  0  0
 22 24  2  0  0  0  0
 22 42  1  0  0  0  0
 23 24  1  0  0  0  0
 23 25  1  0  0  0  0
 24 43  1  0  0  0  0
 25 44  1  0  0  0  0
 25 45  1  0  0  0  0
 25 46  1  0  0  0  0
M  CHG  2   4  -1   8   1
M  END
> <PUBCHEM_COMPOUND_CID>
4035194

> <PUBCHEM_CONFORMER_RMSD>
1

> <PUBCHEM_CONFORMER_DIVERSEORDER>
1
571
486
287
246
221
115
588
231
720
44
251
294
7
435
395
198
296
444
136
416
758
699
796
3
562
265
95
25
407
631
189
318
488
594
2
48
384
688
13
22
299
619
778
452
628
757
69
222
725
676
39
65
164
480
279
330
147
219
713
520
125
117
387
17
33
28
557
668
641
179
59
383
399
495
656
209
63
753
258
336
381
175
591
14
18
598
149
440
319
208
797
46
496
70
9
193
205
181
6
543
406
255
268
573
352
400
278
229
622
637
703
161
511
58
43
16
340
55
41
604
176
124
547
74
364
317
5
75
432
338
356
789
90
242
60
26
173
101
30
76
357
379
109
311
29
361
347
232
24
467
544
799
263
712
748
99
766
79
267
182
331
274
104
54
83
19
433
163
315
40
180
382
458
256
132
505
89
38
297
304
561
572
312
152
23
283
686
52
316
45
178
106
20
184
113
597
476
717
421
105

> <PUBCHEM_MMFF94_PARTIAL_CHARGES>
28
1 -0.56
10 -0.33
11 -0.09
12 0.26
13 -0.15
14 0.18
15 0.28
16 0.18
17 0.6
18 0.34
19 0.08
2 -0.36
20 0.28
21 0.44
22 -0.15
23 0.17
24 -0.15
25 0.14
28 0.15
3 -0.57
4 -0.52
42 0.15
43 0.15
5 -0.52
6 0.05
7 -0.62
8 0.91
9 -0.33

> <PUBCHEM_EFFECTIVE_ROTOR_COUNT>
8

> <PUBCHEM_PHARMACOPHORE_FEATURES>
10
1 1 acceptor
1 2 acceptor
1 3 acceptor
1 4 acceptor
1 4 anion
1 5 acceptor
1 6 cation
1 7 acceptor
5 6 9 10 11 13 rings
6 7 19 21 22 23 24 rings

> <PUBCHEM_HEAVY_ATOM_COUNT>
25

> <PUBCHEM_ATOM_DEF_STEREO_COUNT>
0

> <PUBCHEM_ATOM_UDEF_STEREO_COUNT>
0

> <PUBCHEM_BOND_DEF_STEREO_COUNT>
0

> <PUBCHEM_BOND_UDEF_STEREO_COUNT>
0

> <PUBCHEM_ISOTOPIC_ATOM_COUNT>
0

> <PUBCHEM_COMPONENT_COUNT>
1

> <PUBCHEM_CACTVS_TAUTO_COUNT>
2

> <PUBCHEM_CONFORMER_ID>
003D927A00000001

> <PUBCHEM_MMFF94_ENERGY>
64.7237

> <PUBCHEM_FEATURE_SELFOVERLAP>
50.887

> <PUBCHEM_SHAPE_FINGERPRINT>
10 15 18410300224690527713
11405975 8 18412259536672095046
12107183 9 18051689937024104968
12596602 18 18412550937861760851
12616971 3 18201993343949733398
13167823 11 18409720781783368278
13533116 47 18334296452870469834
13540713 5 18194973070329665439
13668630 136 15213022626358996554
13685833 64 17385727975872824802
13782708 43 15575003926914033529
14251764 18 18202283628606091655
14341114 176 18410291406674367036
14347424 109 18413108355211560728
14849402 71 18337665434720484248
15196674 1 18337666516065403078
15238133 3 17060620001405908776
15348495 7 18334299807461422507
15475509 35 17168409477806668274
17844677 252 18409728439488394020
1813 80 17022618680447847252
21033648 29 16056882424636030357
21065198 48 18342172327516418102
21065198 57 18410284779671483964
21150785 3 12685101379648528650
21267235 1 18336265635926703678
21403212 168 18340207389612917771
21424621 283 15553904183082290739
21637258 2 15357982326255665217
21792934 111 18335417933889357405
21859007 373 17897152534427587557
220451 1 18335987548787548918
22122407 14 16200152127373394915
23081809 10 17988920115374599919
23559900 14 18336253635218282092
312425 54 18410009974420677731
3663271 9 18342459296141441659
3680242 22 18411706503935693561
4073 2 18042123318453308658
4214541 1 18337664235448065084
5104073 3 18340769350969623707
9709674 26 18188206615047060454

> <PUBCHEM_SHAPE_MULTIPOLES>
470.2
18.78
2.56
1.24
8.4
0.25
-0.65
-2.28
-11.72
-2.25
0.13
1.7
-0.01
-1.35

> <PUBCHEM_SHAPE_SELFOVERLAP>
989.889

> <PUBCHEM_SHAPE_VOLUME>
266.7

> <PUBCHEM_COORDINATE_TYPE>
2
5
10

$$$$
