16008920
  -OEChem-01171809483D

 38 41  0     0  0  0  0  0  0999 V2000
   -2.6502   -1.0852    2.5194 Cl  0  0  0  0  0  0  0  0  0  0  0  0
    4.3559   -2.2953    0.0293 O   0  0  0  0  0  0  0  0  0  0  0  0
   -3.9699    0.8575   -0.1592 O   0  0  0  0  0  0  0  0  0  0  0  0
   -1.7912    1.3894   -0.0981 N   0  0  0  0  0  0  0  0  0  0  0  0
    0.2127   -0.0010   -0.0625 N   0  0  0  0  0  0  0  0  0  0  0  0
   -2.1011    2.7090   -0.1106 N   0  0  0  0  0  0  0  0  0  0  0  0
   -0.7363    4.6744   -0.0638 N   0  0  0  0  0  0  0  0  0  0  0  0
    0.1614    2.4340   -0.0486 C   0  0  0  0  0  0  0  0  0  0  0  0
   -0.4258    1.1821   -0.0714 C   0  0  0  0  0  0  0  0  0  0  0  0
    2.2700    1.2920   -0.0018 C   0  0  0  0  0  0  0  0  0  0  0  0
    1.5519    0.0730   -0.0283 C   0  0  0  0  0  0  0  0  0  0  0  0
    1.5570    2.5005   -0.0124 C   0  0  0  0  0  0  0  0  0  0  0  0
   -0.9200    3.3281   -0.0734 C   0  0  0  0  0  0  0  0  0  0  0  0
    3.6742    1.2873    0.0344 C   0  0  0  0  0  0  0  0  0  0  0  0
    2.2830   -1.1101   -0.0176 C   0  0  0  0  0  0  0  0  0  0  0  0
   -2.8175    0.4357   -0.1591 C   0  0  0  0  0  0  0  0  0  0  0  0
    3.6798   -1.1141    0.0185 C   0  0  0  0  0  0  0  0  0  0  0  0
    4.3768    0.0863    0.0446 C   0  0  0  0  0  0  0  0  0  0  0  0
   -2.6106   -1.0276   -0.2080 C   0  0  0  0  0  0  0  0  0  0  0  0
   -2.5230   -1.7960    0.9506 C   0  0  0  0  0  0  0  0  0  0  0  0
   -2.5033   -1.6302   -1.4597 C   0  0  0  0  0  0  0  0  0  0  0  0
   -2.3273   -3.1739    0.8573 C   0  0  0  0  0  0  0  0  0  0  0  0
   -2.3076   -3.0081   -1.5528 C   0  0  0  0  0  0  0  0  0  0  0  0
   -2.2195   -3.7801   -0.3945 C   0  0  0  0  0  0  0  0  0  0  0  0
    5.7805   -2.2276    0.0679 C   0  0  0  0  0  0  0  0  0  0  0  0
    2.0689    3.4584    0.0063 H   0  0  0  0  0  0  0  0  0  0  0  0
    4.2302    2.2224    0.0549 H   0  0  0  0  0  0  0  0  0  0  0  0
    1.7571   -2.0642   -0.0371 H   0  0  0  0  0  0  0  0  0  0  0  0
    5.4581    0.1610    0.0732 H   0  0  0  0  0  0  0  0  0  0  0  0
    0.1814    5.1083   -0.0363 H   0  0  0  0  0  0  0  0  0  0  0  0
   -1.5186    5.3212   -0.0832 H   0  0  0  0  0  0  0  0  0  0  0  0
   -2.5695   -1.0391   -2.3694 H   0  0  0  0  0  0  0  0  0  0  0  0
   -2.2559   -3.7898    1.7503 H   0  0  0  0  0  0  0  0  0  0  0  0
   -2.2231   -3.4799   -2.5275 H   0  0  0  0  0  0  0  0  0  0  0  0
   -2.0666   -4.8529   -0.4673 H   0  0  0  0  0  0  0  0  0  0  0  0
    6.1848   -1.7446   -0.8282 H   0  0  0  0  0  0  0  0  0  0  0  0
    6.1531   -3.2571    0.0717 H   0  0  0  0  0  0  0  0  0  0  0  0
    6.1361   -1.7555    0.9900 H   0  0  0  0  0  0  0  0  0  0  0  0
  1 20  1  0  0  0  0
  2 17  1  0  0  0  0
  2 25  1  0  0  0  0
  3 16  2  0  0  0  0
  4  6  1  0  0  0  0
  4  9  1  0  0  0  0
  4 16  1  0  0  0  0
  5  9  1  0  0  0  0
  5 11  2  0  0  0  0
  6 13  2  0  0  0  0
  7 13  1  0  0  0  0
  7 30  1  0  0  0  0
  7 31  1  0  0  0  0
  8  9  2  0  0  0  0
  8 12  1  0  0  0  0
  8 13  1  0  0  0  0
 10 11  1  0  0  0  0
 10 12  2  0  0  0  0
 10 14  1  0  0  0  0
 11 15  1  0  0  0  0
 12 26  1  0  0  0  0
 14 18  2  0  0  0  0
 14 27  1  0  0  0  0
 15 17  2  0  0  0  0
 15 28  1  0  0  0  0
 16 19  1  0  0  0  0
 17 18  1  0  0  0  0
 18 29  1  0  0  0  0
 19 20  1  0  0  0  0
 19 21  2  0  0  0  0
 20 22  2  0  0  0  0
 21 23  1  0  0  0  0
 21 32  1  0  0  0  0
 22 24  1  0  0  0  0
 22 33  1  0  0  0  0
 23 24  2  0  0  0  0
 23 34  1  0  0  0  0
 24 35  1  0  0  0  0
 25 36  1  0  0  0  0
 25 37  1  0  0  0  0
 25 38  1  0  0  0  0
M  END
> <PUBCHEM_COMPOUND_CID>
16008920

> <PUBCHEM_CONFORMER_RMSD>
0.6

> <PUBCHEM_CONFORMER_DIVERSEORDER>
1
10
27
28
20
8
12
13
22
2
18
24
19
14
23
21
9
6
26
25
5
15
16
7
17
11
4
3

> <PUBCHEM_MMFF94_PARTIAL_CHARGES>
33
1 -0.18
11 0.31
12 -0.15
13 0.37
14 -0.15
15 -0.15
16 0.49
17 0.08
18 -0.15
19 0.09
2 -0.36
20 0.18
21 -0.15
22 -0.15
23 -0.15
24 -0.15
25 0.28
26 0.15
27 0.15
28 0.15
29 0.15
3 -0.57
30 0.4
31 0.4
32 0.15
33 0.15
34 0.15
35 0.15
4 0.56
5 -0.57
6 -0.71
7 -0.88
9 0.11

> <PUBCHEM_EFFECTIVE_ROTOR_COUNT>
3

> <PUBCHEM_PHARMACOPHORE_FEATURES>
9
1 2 acceptor
1 3 acceptor
1 5 acceptor
1 7 donor
3 6 7 13 cation
5 4 6 8 9 13 rings
6 10 11 14 15 17 18 rings
6 19 20 21 22 23 24 rings
6 5 8 9 10 11 12 rings

> <PUBCHEM_HEAVY_ATOM_COUNT>
25

> <PUBCHEM_ATOM_DEF_STEREO_COUNT>
0

> <PUBCHEM_ATOM_UDEF_STEREO_COUNT>
0

> <PUBCHEM_BOND_DEF_STEREO_COUNT>
0

> <PUBCHEM_BOND_UDEF_STEREO_COUNT>
0

> <PUBCHEM_ISOTOPIC_ATOM_COUNT>
0

> <PUBCHEM_COMPONENT_COUNT>
1

> <PUBCHEM_CACTVS_TAUTO_COUNT>
2

> <PUBCHEM_CONFORMER_ID>
00F446D800000001

> <PUBCHEM_MMFF94_ENERGY>
78.3483

> <PUBCHEM_FEATURE_SELFOVERLAP>
45.813

> <PUBCHEM_SHAPE_FINGERPRINT>
10616163 171 18412546548030637470
107951 10 17532376349098489179
11552529 35 17773882080426242090
11578080 2 17344054441424587289
12107183 9 18196671781477831603
12553582 1 18266185126255135918
12788726 201 18265041432119230418
13004483 165 18411974771761030771
13140716 1 18411704304606047778
138480 1 15889402245107865957
13911987 19 16172842775770257829
14081887 123 18268973384906547944
14251757 5 18267322940754783598
14659021 117 18337935836669755522
14790565 3 18267308621302890641
14844126 61 18265325123774125018
14863182 85 16676693940121351911
15042514 8 18410295783208845401
15927050 60 17260465873588063229
19591789 44 17906733605082935148
19930381 70 17400638719598716843
20775438 99 17334443623229167287
221490 88 18336831991546246730
23559900 14 18410567384557240416
23728640 28 18339921507198174531
3178227 256 18409457982120883345
3380486 145 18337680818369743905
3383291 50 18338230467052607715
5309563 4 17761497293115244199
5364581 5 18198599160988859752
6138700 20 18338794499569298463
70251023 43 17977937218443073967
7097593 13 18053680340980744841
9709674 26 18410290307373631720

> <PUBCHEM_SHAPE_MULTIPOLES>
484.7
8.17
5.03
1.17
9.38
2.37
0.48
-7.32
0.36
-1.33
-0.54
-1.53
-0.81
-0.18

> <PUBCHEM_SHAPE_SELFOVERLAP>
1083.3

> <PUBCHEM_SHAPE_VOLUME>
259.7

> <PUBCHEM_COORDINATE_TYPE>
2
5
10

$$$$
