1757603
  -OEChem-01171809593D

 55 58  0     0  0  0  0  0  0999 V2000
    5.1344   -0.6603   -0.8554 O   0  0  0  0  0  0  0  0  0  0  0  0
    0.7472   -2.5903   -0.3394 O   0  0  0  0  0  0  0  0  0  0  0  0
   -1.3267   -3.4822   -0.1074 O   0  0  0  0  0  0  0  0  0  0  0  0
   -5.2922   -1.1685    1.4469 O   0  0  0  0  0  0  0  0  0  0  0  0
   -6.9331    3.5039   -0.0149 O   0  0  0  0  0  0  0  0  0  0  0  0
   -6.8330    2.4050   -1.9994 O   0  0  0  0  0  0  0  0  0  0  0  0
   -5.6065   -0.2163   -0.6474 N   0  0  0  0  0  0  0  0  0  0  0  0
    4.6750    1.3012    0.1701 C   0  0  0  0  0  0  0  0  0  0  0  0
    4.9680    2.6688    0.6740 C   0  0  0  0  0  0  0  0  0  0  0  0
    5.6242    0.5428   -0.4771 C   0  0  0  0  0  0  0  0  0  0  0  0
    6.4918    2.9129    0.7433 C   0  0  0  0  0  0  0  0  0  0  0  0
    7.0356    0.8920   -0.7427 C   0  0  0  0  0  0  0  0  0  0  0  0
    7.2299    2.4051   -0.5145 C   0  0  0  0  0  0  0  0  0  0  0  0
    3.4964    0.5125    0.1915 C   0  0  0  0  0  0  0  0  0  0  0  0
    3.8302   -0.6792   -0.4487 C   0  0  0  0  0  0  0  0  0  0  0  0
    2.9396   -1.7289   -0.6383 C   0  0  0  0  0  0  0  0  0  0  0  0
    2.1814    0.6707    0.6779 C   0  0  0  0  0  0  0  0  0  0  0  0
    1.2376   -0.3653    0.5189 C   0  0  0  0  0  0  0  0  0  0  0  0
    1.6462   -1.5262   -0.1372 C   0  0  0  0  0  0  0  0  0  0  0  0
   -0.1579   -0.2727    1.0033 C   0  0  0  0  0  0  0  0  0  0  0  0
   -1.0147   -1.2894    0.7687 C   0  0  0  0  0  0  0  0  0  0  0  0
    3.3254   -2.9938   -1.3262 C   0  0  0  0  0  0  0  0  0  0  0  0
   -2.4735   -1.2925    1.1494 C   0  0  0  0  0  0  0  0  0  0  0  0
   -0.5703   -2.5341    0.0797 C   0  0  0  0  0  0  0  0  0  0  0  0
   -0.5367    0.9762    1.7616 C   0  0  0  0  0  0  0  0  0  0  0  0
   -3.3612   -0.7306    0.0486 C   0  0  0  0  0  0  0  0  0  0  0  0
   -4.8439   -0.7380    0.3878 C   0  0  0  0  0  0  0  0  0  0  0  0
   -7.0466   -0.1232   -0.5847 C   0  0  0  0  0  0  0  0  0  0  0  0
   -7.5092    1.2010    0.0090 C   0  0  0  0  0  0  0  0  0  0  0  0
   -7.0577    2.3995   -0.7972 C   0  0  0  0  0  0  0  0  0  0  0  0
    4.5146    3.4009   -0.0050 H   0  0  0  0  0  0  0  0  0  0  0  0
    4.5263    2.8195    1.6651 H   0  0  0  0  0  0  0  0  0  0  0  0
    6.9017    2.4000    1.6232 H   0  0  0  0  0  0  0  0  0  0  0  0
    6.6821    3.9834    0.8800 H   0  0  0  0  0  0  0  0  0  0  0  0
    7.3229    0.6266   -1.7652 H   0  0  0  0  0  0  0  0  0  0  0  0
    7.6799    0.3316   -0.0557 H   0  0  0  0  0  0  0  0  0  0  0  0
    6.8536    2.9547   -1.3872 H   0  0  0  0  0  0  0  0  0  0  0  0
    8.3001    2.6273   -0.4355 H   0  0  0  0  0  0  0  0  0  0  0  0
    1.9278    1.6018    1.1756 H   0  0  0  0  0  0  0  0  0  0  0  0
    3.1995   -3.8474   -0.6521 H   0  0  0  0  0  0  0  0  0  0  0  0
    4.3709   -2.9806   -1.6504 H   0  0  0  0  0  0  0  0  0  0  0  0
    2.7057   -3.1475   -2.2158 H   0  0  0  0  0  0  0  0  0  0  0  0
   -2.8003   -2.3100    1.4018 H   0  0  0  0  0  0  0  0  0  0  0  0
   -2.6410   -0.7432    2.0824 H   0  0  0  0  0  0  0  0  0  0  0  0
   -1.5835    1.0108    2.0689 H   0  0  0  0  0  0  0  0  0  0  0  0
    0.0641    1.0694    2.6731 H   0  0  0  0  0  0  0  0  0  0  0  0
   -0.3798    1.8650    1.1400 H   0  0  0  0  0  0  0  0  0  0  0  0
   -3.0754    0.3060   -0.1709 H   0  0  0  0  0  0  0  0  0  0  0  0
   -3.2288   -1.3098   -0.8742 H   0  0  0  0  0  0  0  0  0  0  0  0
   -5.1437    0.1210   -1.4866 H   0  0  0  0  0  0  0  0  0  0  0  0
   -7.4349   -0.9539    0.0142 H   0  0  0  0  0  0  0  0  0  0  0  0
   -7.4192   -0.2397   -1.6081 H   0  0  0  0  0  0  0  0  0  0  0  0
   -7.1102    1.2980    1.0258 H   0  0  0  0  0  0  0  0  0  0  0  0
   -8.6025    1.2276    0.0642 H   0  0  0  0  0  0  0  0  0  0  0  0
   -6.6436    4.2862   -0.5310 H   0  0  0  0  0  0  0  0  0  0  0  0
  1 10  1  0  0  0  0
  1 15  1  0  0  0  0
  2 19  1  0  0  0  0
  2 24  1  0  0  0  0
  3 24  2  0  0  0  0
  4 27  2  0  0  0  0
  5 30  1  0  0  0  0
  5 55  1  0  0  0  0
  6 30  2  0  0  0  0
  7 27  1  0  0  0  0
  7 28  1  0  0  0  0
  7 50  1  0  0  0  0
  8  9  1  0  0  0  0
  8 10  2  0  0  0  0
  8 14  1  0  0  0  0
  9 11  1  0  0  0  0
  9 31  1  0  0  0  0
  9 32  1  0  0  0  0
 10 12  1  0  0  0  0
 11 13  1  0  0  0  0
 11 33  1  0  0  0  0
 11 34  1  0  0  0  0
 12 13  1  0  0  0  0
 12 35  1  0  0  0  0
 12 36  1  0  0  0  0
 13 37  1  0  0  0  0
 13 38  1  0  0  0  0
 14 15  2  0  0  0  0
 14 17  1  0  0  0  0
 15 16  1  0  0  0  0
 16 19  2  0  0  0  0
 16 22  1  0  0  0  0
 17 18  2  0  0  0  0
 17 39  1  0  0  0  0
 18 19  1  0  0  0  0
 18 20  1  0  0  0  0
 20 21  2  0  0  0  0
 20 25  1  0  0  0  0
 21 23  1  0  0  0  0
 21 24  1  0  0  0  0
 22 40  1  0  0  0  0
 22 41  1  0  0  0  0
 22 42  1  0  0  0  0
 23 26  1  0  0  0  0
 23 43  1  0  0  0  0
 23 44  1  0  0  0  0
 25 45  1  0  0  0  0
 25 46  1  0  0  0  0
 25 47  1  0  0  0  0
 26 27  1  0  0  0  0
 26 48  1  0  0  0  0
 26 49  1  0  0  0  0
 28 29  1  0  0  0  0
 28 51  1  0  0  0  0
 28 52  1  0  0  0  0
 29 30  1  0  0  0  0
 29 53  1  0  0  0  0
 29 54  1  0  0  0  0
M  END
> <PUBCHEM_COMPOUND_CID>
1757603

> <PUBCHEM_CONFORMER_RMSD>
1

> <PUBCHEM_CONFORMER_DIVERSEORDER>
1
38
51
26
37
13
44
22
30
43
10
48
9
46
21
17
41
14
47
15
42
20
31
27
8
19
33
18
24
25
23
6
36
2
11
40
45
16
34
29
3
49
50
35
32
7
5
4
12
39
28

> <PUBCHEM_MMFF94_PARTIAL_CHARGES>
30
1 -0.28
10 -0.04
12 0.18
15 0.14
16 -0.14
17 -0.15
18 0.03
19 0.08
2 -0.23
20 -0.17
21 -0.12
22 0.14
23 0.14
24 0.71
25 0.14
26 0.06
27 0.57
28 0.3
29 0.06
3 -0.57
30 0.66
39 0.15
4 -0.57
5 -0.65
50 0.37
55 0.5
6 -0.57
7 -0.73
8 -0.18
9 0.18

> <PUBCHEM_EFFECTIVE_ROTOR_COUNT>
7.8

> <PUBCHEM_PHARMACOPHORE_FEATURES>
11
1 1 acceptor
1 3 acceptor
1 4 acceptor
1 5 acceptor
1 6 acceptor
1 7 donor
3 5 6 30 anion
5 1 8 10 14 15 rings
6 14 15 16 17 18 19 rings
6 2 18 19 20 21 24 rings
6 8 9 10 11 12 13 rings

> <PUBCHEM_HEAVY_ATOM_COUNT>
30

> <PUBCHEM_ATOM_DEF_STEREO_COUNT>
0

> <PUBCHEM_ATOM_UDEF_STEREO_COUNT>
0

> <PUBCHEM_BOND_DEF_STEREO_COUNT>
0

> <PUBCHEM_BOND_UDEF_STEREO_COUNT>
0

> <PUBCHEM_ISOTOPIC_ATOM_COUNT>
0

> <PUBCHEM_COMPONENT_COUNT>
1

> <PUBCHEM_CACTVS_TAUTO_COUNT>
2

> <PUBCHEM_CONFORMER_ID>
001AD1A300000001

> <PUBCHEM_MMFF94_ENERGY>
58.051

> <PUBCHEM_FEATURE_SELFOVERLAP>
56.103

> <PUBCHEM_SHAPE_FINGERPRINT>
10675989 125 18265614286304659731
10835480 77 18411138039254436977
11135609 187 18343301482944998683
11297010 23 18131638885514064214
11409948 41 16845026602718895182
12013929 29 17983299219114522545
12838862 33 18060132181345960712
13690498 29 17774147050978024919
14117953 113 18339648940553497828
14556957 393 16916800590754244385
14931854 50 17989215841021351312
15082195 135 18059292054681164024
15183329 4 17561082476328670123
15276724 80 18271249305462880057
16994733 274 18113335302113512913
18608769 82 18196657504927541435
20715895 44 18410575115149953632
21033648 29 18040440996748382811
21133410 127 17190083351145518392
21298829 104 18408888438490881413
21424621 283 17967532359462014937
21814621 53 17749399134936158259
23559900 14 17844813783843146592
23576562 1 18196085775759520453
335352 9 18130239242104243748
3633792 109 18272658917844468354
4073 2 18260833709233158923
437795 83 18272374157482241673
465052 167 8214144066357688714
50677037 204 18264211318828438605
5718773 13 9871742499626366741
5937810 71 18201444649711082273
6376802 90 18334584572341689419
8863177 126 9871744698269638669

> <PUBCHEM_SHAPE_MULTIPOLES>
577.19
22.25
3.67
1.22
22.74
0.38
-0.01
22.89
6.89
0.32
0.71
0.82
0.2
2.92

> <PUBCHEM_SHAPE_SELFOVERLAP>
1249.602

> <PUBCHEM_SHAPE_VOLUME>
316.9

> <PUBCHEM_COORDINATE_TYPE>
2
5
10

$$$$
