1916008
  -OEChem-01171809453D

 34 34  0     0  0  0  0  0  0999 V2000
   -4.1969    0.3058   -0.4435 O   0  0  0  0  0  0  0  0  0  0  0  0
   -1.5398    1.6893    0.8898 O   0  0  0  0  0  0  0  0  0  0  0  0
   -3.9128   -1.9006    0.1807 O   0  0  0  0  0  0  0  0  0  0  0  0
   -1.1978    1.3768   -1.3676 O   0  0  0  0  0  0  0  0  0  0  0  0
    4.7502   -0.8476   -0.8862 N   0  0  0  0  0  0  0  0  0  0  0  0
    0.3265   -1.1152    0.4789 C   0  0  0  0  0  0  0  0  0  0  0  0
    1.0832   -0.3779   -0.3587 C   0  0  0  0  0  0  0  0  0  0  0  0
    2.5343   -0.1520   -0.2770 C   0  0  0  0  0  0  0  0  0  0  0  0
   -1.1125   -1.3124    0.3597 C   0  0  0  0  0  0  0  0  0  0  0  0
    0.9379   -1.8012    1.6706 C   0  0  0  0  0  0  0  0  0  0  0  0
   -2.0439   -0.4036    0.0135 C   0  0  0  0  0  0  0  0  0  0  0  0
    3.0352    0.9114    0.4472 C   0  0  0  0  0  0  0  0  0  0  0  0
    3.4072   -0.9982   -0.9210 C   0  0  0  0  0  0  0  0  0  0  0  0
    4.4117    1.0993    0.5065 C   0  0  0  0  0  0  0  0  0  0  0  0
   -3.4794   -0.7836   -0.0579 C   0  0  0  0  0  0  0  0  0  0  0  0
   -1.5512    0.9752   -0.2685 C   0  0  0  0  0  0  0  0  0  0  0  0
    5.2188    0.1999   -0.1715 C   0  0  0  0  0  0  0  0  0  0  0  0
   -5.6066    0.0992   -0.5775 C   0  0  0  0  0  0  0  0  0  0  0  0
   -1.0642    3.0352    0.7825 C   0  0  0  0  0  0  0  0  0  0  0  0
    0.6662    0.0404   -1.2673 H   0  0  0  0  0  0  0  0  0  0  0  0
   -1.4344   -2.3257    0.5974 H   0  0  0  0  0  0  0  0  0  0  0  0
    0.4462   -1.4688    2.5923 H   0  0  0  0  0  0  0  0  0  0  0  0
    2.0074   -1.6135    1.7980 H   0  0  0  0  0  0  0  0  0  0  0  0
    0.8115   -2.8869    1.5896 H   0  0  0  0  0  0  0  0  0  0  0  0
    2.3778    1.6012    0.9692 H   0  0  0  0  0  0  0  0  0  0  0  0
    3.0623   -1.8477   -1.5023 H   0  0  0  0  0  0  0  0  0  0  0  0
    4.8393    1.9236    1.0657 H   0  0  0  0  0  0  0  0  0  0  0  0
    6.2988    0.3025   -0.1566 H   0  0  0  0  0  0  0  0  0  0  0  0
   -6.0604    1.0437   -0.8892 H   0  0  0  0  0  0  0  0  0  0  0  0
   -6.0386   -0.1983    0.3827 H   0  0  0  0  0  0  0  0  0  0  0  0
   -5.8074   -0.6565   -1.3428 H   0  0  0  0  0  0  0  0  0  0  0  0
   -1.7084    3.6113    0.1116 H   0  0  0  0  0  0  0  0  0  0  0  0
   -0.0291    3.0441    0.4276 H   0  0  0  0  0  0  0  0  0  0  0  0
   -1.0979    3.4879    1.7770 H   0  0  0  0  0  0  0  0  0  0  0  0
  1 15  1  0  0  0  0
  1 18  1  0  0  0  0
  2 16  1  0  0  0  0
  2 19  1  0  0  0  0
  3 15  2  0  0  0  0
  4 16  2  0  0  0  0
  5 13  1  0  0  0  0
  5 17  2  0  0  0  0
  6  7  2  0  0  0  0
  6  9  1  0  0  0  0
  6 10  1  0  0  0  0
  7  8  1  0  0  0  0
  7 20  1  0  0  0  0
  8 12  1  0  0  0  0
  8 13  2  0  0  0  0
  9 11  2  0  0  0  0
  9 21  1  0  0  0  0
 10 22  1  0  0  0  0
 10 23  1  0  0  0  0
 10 24  1  0  0  0  0
 11 15  1  0  0  0  0
 11 16  1  0  0  0  0
 12 14  2  0  0  0  0
 12 25  1  0  0  0  0
 13 26  1  0  0  0  0
 14 17  1  0  0  0  0
 14 27  1  0  0  0  0
 17 28  1  0  0  0  0
 18 29  1  0  0  0  0
 18 30  1  0  0  0  0
 18 31  1  0  0  0  0
 19 32  1  0  0  0  0
 19 33  1  0  0  0  0
 19 34  1  0  0  0  0
M  END
> <PUBCHEM_COMPOUND_CID>
1916008

> <PUBCHEM_CONFORMER_RMSD>
0.8

> <PUBCHEM_CONFORMER_DIVERSEORDER>
3
10
17
24
14
21
15
20
1
12
18
13
8
23
22
19
6
16
11
2
4
9
5
7

> <PUBCHEM_MMFF94_PARTIAL_CHARGES>
25
1 -0.43
10 0.14
11 0.03
12 -0.15
13 0.16
14 -0.15
15 0.71
16 0.71
17 0.16
18 0.28
19 0.28
2 -0.43
20 0.15
21 0.15
25 0.15
26 0.15
27 0.15
28 0.15
3 -0.57
4 -0.57
5 -0.62
6 -0.14
7 -0.18
8 0.03
9 -0.15

> <PUBCHEM_EFFECTIVE_ROTOR_COUNT>
6

> <PUBCHEM_PHARMACOPHORE_FEATURES>
6
1 10 hydrophobe
1 11 anion
1 3 acceptor
1 4 acceptor
1 5 acceptor
6 5 8 12 13 14 17 rings

> <PUBCHEM_HEAVY_ATOM_COUNT>
19

> <PUBCHEM_ATOM_DEF_STEREO_COUNT>
0

> <PUBCHEM_ATOM_UDEF_STEREO_COUNT>
0

> <PUBCHEM_BOND_DEF_STEREO_COUNT>
1

> <PUBCHEM_BOND_UDEF_STEREO_COUNT>
0

> <PUBCHEM_ISOTOPIC_ATOM_COUNT>
0

> <PUBCHEM_COMPONENT_COUNT>
1

> <PUBCHEM_CACTVS_TAUTO_COUNT>
1

> <PUBCHEM_CONFORMER_ID>
001D3C6800000003

> <PUBCHEM_MMFF94_ENERGY>
63.1676

> <PUBCHEM_FEATURE_SELFOVERLAP>
30.446

> <PUBCHEM_SHAPE_FINGERPRINT>
10498660 4 18335978662600836156
11132069 177 18334859441341303839
12236239 1 16226045617886317158
12403814 3 17203608177125794093
12592029 89 15936403429685644754
12788726 201 18199742541038472377
12969540 114 18268972281252888319
13533116 47 17821999866464884338
13551218 46 10447665564541656556
14787075 74 18191865845193505141
15048467 5 16988571203714275611
192875 21 17458068174653825292
200 152 17632858620305252631
20344682 1 17561366188239654111
20510252 161 18411700976180655160
20645477 70 17917439683944050630
221357 26 18130791136031285348
22182937 141 17843413890281653920
23352939 185 17632298994656766009
23402539 116 18411975896953045030
23557571 272 18343306937595818476
23559900 14 18410576214920044270
23622692 88 10519978275246527875
2871803 45 18410290294188068984
34934 24 18335693941124520487
351380 180 18411417332646185074
4028521 119 18408884022952699428
465052 167 12319447862030645149
5104073 3 18130227052269704722
5281201 14 17846227614110031068
59755656 215 18409169870644584654
69090 78 18343582971192142166
8272917 22 14418122994598401834

> <PUBCHEM_SHAPE_MULTIPOLES>
362.55
10.34
2.12
1.07
0.39
1.19
0.13
-0.5
-2.43
-0.87
0.73
0.26
-0.1
0.38

> <PUBCHEM_SHAPE_SELFOVERLAP>
749.229

> <PUBCHEM_SHAPE_VOLUME>
207.4

> <PUBCHEM_COORDINATE_TYPE>
2
5
10

$$$$
