9566902
  -OEChem-01171810053D

 41 42  0     0  0  0  0  0  0999 V2000
    0.6844   -0.0008    0.0023 O   0  0  0  0  0  0  0  0  0  0  0  0
    0.2438   -2.2527   -0.2480 O   0  0  0  0  0  0  0  0  0  0  0  0
    2.0232   -0.4154   -0.0408 N   0  0  0  0  0  0  0  0  0  0  0  0
    5.0561    1.4104    0.1666 N   0  0  0  0  0  0  0  0  0  0  0  0
    2.4154    1.9197    0.2192 N   0  0  0  0  0  0  0  0  0  0  0  0
   -5.6585    0.4894    0.0418 C   0  0  0  0  0  0  0  0  0  0  0  0
   -4.1803    0.0681   -0.0013 C   0  0  0  0  0  0  0  0  0  0  0  0
   -6.1610    0.4728    1.5016 C   0  0  0  0  0  0  0  0  0  0  0  0
   -6.5037   -0.4934   -0.7974 C   0  0  0  0  0  0  0  0  0  0  0  0
   -5.9210    1.9071   -0.5150 C   0  0  0  0  0  0  0  0  0  0  0  0
   -3.8436   -1.1760    0.4703 C   0  0  0  0  0  0  0  0  0  0  0  0
   -3.2647    0.9549   -0.5103 C   0  0  0  0  0  0  0  0  0  0  0  0
   -2.5028   -1.5586    0.4307 C   0  0  0  0  0  0  0  0  0  0  0  0
   -1.9239    0.5721   -0.5500 C   0  0  0  0  0  0  0  0  0  0  0  0
   -1.5431   -0.6846   -0.0795 C   0  0  0  0  0  0  0  0  0  0  0  0
   -0.1451   -1.0833   -0.1207 C   0  0  0  0  0  0  0  0  0  0  0  0
    2.8218    0.6098    0.0758 C   0  0  0  0  0  0  0  0  0  0  0  0
    4.2923    0.3251    0.0446 C   0  0  0  0  0  0  0  0  0  0  0  0
    4.7039   -0.9664   -0.1013 C   0  0  0  0  0  0  0  0  0  0  0  0
    6.0785   -1.1748   -0.1249 C   0  0  0  0  0  0  0  0  0  0  0  0
    6.9425   -0.0921   -0.0029 C   0  0  0  0  0  0  0  0  0  0  0  0
    6.3860    1.1689    0.1392 C   0  0  0  0  0  0  0  0  0  0  0  0
   -7.2020    0.8114    1.5643 H   0  0  0  0  0  0  0  0  0  0  0  0
   -6.1258   -0.5285    1.9447 H   0  0  0  0  0  0  0  0  0  0  0  0
   -5.5575    1.1344    2.1344 H   0  0  0  0  0  0  0  0  0  0  0  0
   -6.4756   -1.5139   -0.4001 H   0  0  0  0  0  0  0  0  0  0  0  0
   -7.5569   -0.1895   -0.8181 H   0  0  0  0  0  0  0  0  0  0  0  0
   -6.1487   -0.5336   -1.8340 H   0  0  0  0  0  0  0  0  0  0  0  0
   -6.9885    2.1547   -0.4597 H   0  0  0  0  0  0  0  0  0  0  0  0
   -5.3919    2.6777    0.0580 H   0  0  0  0  0  0  0  0  0  0  0  0
   -5.6349    1.9934   -1.5699 H   0  0  0  0  0  0  0  0  0  0  0  0
   -4.5723   -1.8717    0.8718 H   0  0  0  0  0  0  0  0  0  0  0  0
   -3.5046    1.9395   -0.8907 H   0  0  0  0  0  0  0  0  0  0  0  0
   -2.2225   -2.5402    0.8040 H   0  0  0  0  0  0  0  0  0  0  0  0
   -1.1997    1.2690   -0.9642 H   0  0  0  0  0  0  0  0  0  0  0  0
    4.0383   -1.8154   -0.1970 H   0  0  0  0  0  0  0  0  0  0  0  0
    6.4762   -2.1789   -0.2382 H   0  0  0  0  0  0  0  0  0  0  0  0
    8.0174   -0.2309   -0.0187 H   0  0  0  0  0  0  0  0  0  0  0  0
    7.0167    2.0464    0.2379 H   0  0  0  0  0  0  0  0  0  0  0  0
    1.4302    2.1598    0.2427 H   0  0  0  0  0  0  0  0  0  0  0  0
    3.0808    2.6810    0.3039 H   0  0  0  0  0  0  0  0  0  0  0  0
  1  3  1  0  0  0  0
  1 16  1  0  0  0  0
  2 16  2  0  0  0  0
  3 17  2  0  0  0  0
  4 18  1  0  0  0  0
  4 22  2  0  0  0  0
  5 17  1  0  0  0  0
  5 40  1  0  0  0  0
  5 41  1  0  0  0  0
  6  7  1  0  0  0  0
  6  8  1  0  0  0  0
  6  9  1  0  0  0  0
  6 10  1  0  0  0  0
  7 11  2  0  0  0  0
  7 12  1  0  0  0  0
  8 23  1  0  0  0  0
  8 24  1  0  0  0  0
  8 25  1  0  0  0  0
  9 26  1  0  0  0  0
  9 27  1  0  0  0  0
  9 28  1  0  0  0  0
 10 29  1  0  0  0  0
 10 30  1  0  0  0  0
 10 31  1  0  0  0  0
 11 13  1  0  0  0  0
 11 32  1  0  0  0  0
 12 14  2  0  0  0  0
 12 33  1  0  0  0  0
 13 15  2  0  0  0  0
 13 34  1  0  0  0  0
 14 15  1  0  0  0  0
 14 35  1  0  0  0  0
 15 16  1  0  0  0  0
 17 18  1  0  0  0  0
 18 19  2  0  0  0  0
 19 20  1  0  0  0  0
 19 36  1  0  0  0  0
 20 21  2  0  0  0  0
 20 37  1  0  0  0  0
 21 22  1  0  0  0  0
 21 38  1  0  0  0  0
 22 39  1  0  0  0  0
M  END
> <PUBCHEM_COMPOUND_CID>
9566902

> <PUBCHEM_CONFORMER_RMSD>
0.8

> <PUBCHEM_CONFORMER_DIVERSEORDER>
1
23
26
50
25
54
30
20
22
56
43
10
37
51
14
11
59
12
7
9
45
38
4
16
41
19
6
40
3
44
39
33
28
24
2
47
18
52
5
27
53
42
13
15
55
36
8
57
31
35
21
48
17
34
58
32
29
49
46

> <PUBCHEM_MMFF94_PARTIAL_CHARGES>
29
1 -0.09
11 -0.15
12 -0.15
13 -0.15
14 -0.15
15 0.09
16 0.63
17 0.41
18 0.4
19 -0.15
2 -0.57
20 -0.15
21 -0.15
22 0.16
3 -0.51
32 0.15
33 0.15
34 0.15
35 0.15
36 0.15
37 0.15
38 0.15
39 0.15
4 -0.62
40 0.4
41 0.4
5 -0.85
6 0.14
7 -0.14

> <PUBCHEM_EFFECTIVE_ROTOR_COUNT>
5

> <PUBCHEM_PHARMACOPHORE_FEATURES>
7
1 2 acceptor
1 4 acceptor
1 5 donor
3 3 5 17 cation
4 6 8 9 10 hydrophobe
6 4 18 19 20 21 22 rings
6 7 11 12 13 14 15 rings

> <PUBCHEM_HEAVY_ATOM_COUNT>
22

> <PUBCHEM_ATOM_DEF_STEREO_COUNT>
0

> <PUBCHEM_ATOM_UDEF_STEREO_COUNT>
0

> <PUBCHEM_BOND_DEF_STEREO_COUNT>
1

> <PUBCHEM_BOND_UDEF_STEREO_COUNT>
0

> <PUBCHEM_ISOTOPIC_ATOM_COUNT>
0

> <PUBCHEM_COMPONENT_COUNT>
1

> <PUBCHEM_CACTVS_TAUTO_COUNT>
2

> <PUBCHEM_CONFORMER_ID>
0091FAB600000001

> <PUBCHEM_MMFF94_ENERGY>
75.423

> <PUBCHEM_FEATURE_SELFOVERLAP>
35.521

> <PUBCHEM_SHAPE_FINGERPRINT>
10 15 17894914052974871512
10835480 77 18270114746991503328
11089746 13 17917990594264974481
11315181 36 18060138761014123369
12091667 2 18334295362486573941
12166972 35 18342738541587527241
12516196 113 17847058891771002944
12596602 18 14779273033259494805
12616971 3 15502380070754384254
13167372 99 18201443540817787184
13402501 40 18410009927223438484
13533116 47 17561084658040733270
14251764 18 18408321090696098886
14251764 46 15936411148021398051
14341114 176 18333735714746091116
14933364 13 18335422370057317388
15183329 4 18412826867697834896
15537594 2 13117997829234735144
15927050 60 18333730229994876842
20281389 69 18408322189728036113
21033648 29 18270108132635898464
21236236 1 18272654493780799009
21279426 13 18194119621071877132
22224240 67 18187365437344267595
23035841 295 12901546849209353976
23198884 109 16774080670127533505
23402539 116 18131064961006350526
23536379 177 18410292506270209002
23559900 14 18338510940831894297
23622692 88 16443066110063457775
2838139 119 18342172272040682109
29717793 49 17346887737050128012
3004659 81 18335139783327453944
3014965 18 18337106766200434942
328311 84 18334583421142189066
335352 9 18410292527375767588
3545911 37 18335138687198352278
4073 2 17967819405296625930
4325135 7 18272928337354388183
4340502 62 16587742023721623810
5104073 3 18336823212511905130
5385378 56 18340212877479049842
59682541 35 18260840315235037273
59755656 215 18335422327039417142
59755656 520 18334007311583344943
9996256 80 18413386557797725079

> <PUBCHEM_SHAPE_MULTIPOLES>
426.07
20.11
1.72
0.8
9.53
0.01
-0.13
-4.33
-0.7
-0.02
0.04
-1.06
-0.04
0.46

> <PUBCHEM_SHAPE_SELFOVERLAP>
907.603

> <PUBCHEM_SHAPE_VOLUME>
236.3

> <PUBCHEM_COORDINATE_TYPE>
2
5
10

$$$$
