776240
  -OEChem-01171809323D

 37 38  0     0  0  0  0  0  0999 V2000
    7.1166   -1.3075   -0.4363 O   0  0  0  0  0  0  0  0  0  0  0  0
    6.9727    0.7363    0.5669 O   0  0  0  0  0  0  0  0  0  0  0  0
   -2.0736   -1.0763    0.2601 N   0  0  0  0  0  0  0  0  0  0  0  0
   -5.7168   -0.4294   -0.4515 C   0  0  0  0  0  0  0  0  0  0  0  0
   -4.2462   -0.2247   -0.3723 C   0  0  0  0  0  0  0  0  0  0  0  0
   -6.4459    0.0662    0.8073 C   0  0  0  0  0  0  0  0  0  0  0  0
   -1.5433    0.0794   -0.1951 C   0  0  0  0  0  0  0  0  0  0  0  0
   -3.6604    0.9506   -0.8297 C   0  0  0  0  0  0  0  0  0  0  0  0
   -0.1052    0.1785   -0.0711 C   0  0  0  0  0  0  0  0  0  0  0  0
   -2.2822    1.1135   -0.7429 C   0  0  0  0  0  0  0  0  0  0  0  0
   -3.4163   -1.1987    0.1592 C   0  0  0  0  0  0  0  0  0  0  0  0
   -7.9521   -0.1139    0.7045 C   0  0  0  0  0  0  0  0  0  0  0  0
    0.4951    1.4245    0.1081 C   0  0  0  0  0  0  0  0  0  0  0  0
    0.6808   -0.9724   -0.1307 C   0  0  0  0  0  0  0  0  0  0  0  0
    2.6677    0.3693    0.1682 C   0  0  0  0  0  0  0  0  0  0  0  0
    1.8816    1.5200    0.2277 C   0  0  0  0  0  0  0  0  0  0  0  0
    2.0673   -0.8770   -0.0110 C   0  0  0  0  0  0  0  0  0  0  0  0
    4.1133    0.4687    0.2938 C   0  0  0  0  0  0  0  0  0  0  0  0
    4.9992   -0.4665   -0.1154 C   0  0  0  0  0  0  0  0  0  0  0  0
    6.4479   -0.2407    0.0602 C   0  0  0  0  0  0  0  0  0  0  0  0
   -6.1135    0.0866   -1.3356 H   0  0  0  0  0  0  0  0  0  0  0  0
   -5.9350   -1.4936   -0.6097 H   0  0  0  0  0  0  0  0  0  0  0  0
   -6.0788   -0.4745    1.6882 H   0  0  0  0  0  0  0  0  0  0  0  0
   -6.2246    1.1277    0.9737 H   0  0  0  0  0  0  0  0  0  0  0  0
   -4.2671    1.7435   -1.2588 H   0  0  0  0  0  0  0  0  0  0  0  0
   -1.8415    2.0264   -1.1281 H   0  0  0  0  0  0  0  0  0  0  0  0
   -3.8138   -2.1368    0.5342 H   0  0  0  0  0  0  0  0  0  0  0  0
   -8.3564    0.4474   -0.1439 H   0  0  0  0  0  0  0  0  0  0  0  0
   -8.2118   -1.1691    0.5739 H   0  0  0  0  0  0  0  0  0  0  0  0
   -8.4406    0.2468    1.6151 H   0  0  0  0  0  0  0  0  0  0  0  0
   -0.0799    2.3432    0.1871 H   0  0  0  0  0  0  0  0  0  0  0  0
    0.2452   -1.9579   -0.2767 H   0  0  0  0  0  0  0  0  0  0  0  0
    2.3317    2.4994    0.3717 H   0  0  0  0  0  0  0  0  0  0  0  0
    2.6372   -1.8009   -0.0459 H   0  0  0  0  0  0  0  0  0  0  0  0
    4.4807    1.3869    0.7474 H   0  0  0  0  0  0  0  0  0  0  0  0
    4.7004   -1.3904   -0.5974 H   0  0  0  0  0  0  0  0  0  0  0  0
    8.0881   -1.2079   -0.3434 H   0  0  0  0  0  0  0  0  0  0  0  0
  1 20  1  0  0  0  0
  1 37  1  0  0  0  0
  2 20  2  0  0  0  0
  3  7  2  0  0  0  0
  3 11  1  0  0  0  0
  4  5  1  0  0  0  0
  4  6  1  0  0  0  0
  4 21  1  0  0  0  0
  4 22  1  0  0  0  0
  5  8  1  0  0  0  0
  5 11  2  0  0  0  0
  6 12  1  0  0  0  0
  6 23  1  0  0  0  0
  6 24  1  0  0  0  0
  7  9  1  0  0  0  0
  7 10  1  0  0  0  0
  8 10  2  0  0  0  0
  8 25  1  0  0  0  0
  9 13  2  0  0  0  0
  9 14  1  0  0  0  0
 10 26  1  0  0  0  0
 11 27  1  0  0  0  0
 12 28  1  0  0  0  0
 12 29  1  0  0  0  0
 12 30  1  0  0  0  0
 13 16  1  0  0  0  0
 13 31  1  0  0  0  0
 14 17  2  0  0  0  0
 14 32  1  0  0  0  0
 15 16  2  0  0  0  0
 15 17  1  0  0  0  0
 15 18  1  0  0  0  0
 16 33  1  0  0  0  0
 17 34  1  0  0  0  0
 18 19  2  0  0  0  0
 18 35  1  0  0  0  0
 19 20  1  0  0  0  0
 19 36  1  0  0  0  0
M  END
> <PUBCHEM_COMPOUND_CID>
776240

> <PUBCHEM_CONFORMER_RMSD>
0.8

> <PUBCHEM_CONFORMER_DIVERSEORDER>
2
7
4
1
6
5
3

> <PUBCHEM_MMFF94_PARTIAL_CHARGES>
27
1 -0.65
10 -0.15
11 0.16
13 -0.15
14 -0.15
15 0.03
16 -0.15
17 -0.15
18 -0.18
19 -0.14
2 -0.57
20 0.71
25 0.15
26 0.15
27 0.15
3 -0.62
31 0.15
32 0.15
33 0.15
34 0.15
35 0.15
36 0.15
37 0.5
4 0.14
5 -0.14
7 0.31
8 -0.15

> <PUBCHEM_EFFECTIVE_ROTOR_COUNT>
5

> <PUBCHEM_PHARMACOPHORE_FEATURES>
7
1 1 acceptor
1 12 hydrophobe
1 2 acceptor
1 3 acceptor
3 1 2 20 anion
6 3 5 7 8 10 11 rings
6 9 13 14 15 16 17 rings

> <PUBCHEM_HEAVY_ATOM_COUNT>
20

> <PUBCHEM_ATOM_DEF_STEREO_COUNT>
0

> <PUBCHEM_ATOM_UDEF_STEREO_COUNT>
0

> <PUBCHEM_BOND_DEF_STEREO_COUNT>
1

> <PUBCHEM_BOND_UDEF_STEREO_COUNT>
0

> <PUBCHEM_ISOTOPIC_ATOM_COUNT>
0

> <PUBCHEM_COMPONENT_COUNT>
1

> <PUBCHEM_CACTVS_TAUTO_COUNT>
1

> <PUBCHEM_CONFORMER_ID>
000BD83000000002

> <PUBCHEM_MMFF94_ENERGY>
53.9131

> <PUBCHEM_FEATURE_SELFOVERLAP>
35.576

> <PUBCHEM_SHAPE_FINGERPRINT>
11315181 36 18202565103187124561
11524674 6 17418374718454777463
12091667 2 18187361035313661727
12236239 1 16845288367209689021
12403259 415 18337095830717931173
12516196 113 18202560683792611320
13073987 5 18188768336328248081
13288520 33 18407758140658346709
13533116 47 14261078636570143830
13685833 64 18410012134999814488
13862211 1 18413383229498711942
14123256 10 17676205771251018298
1420 363 18187365432437097486
14251764 18 18343866623511244569
14251764 46 17240483615383418603
14350574 20 18260265252456021357
14617045 38 18186520994838790091
14729087 3 13183026198845596459
14849402 71 17988077927954650968
15716309 27 18060136539867210894
17834076 25 15863787296673076730
200 152 17917706902884659353
21095086 128 14562527379791137640
21150785 3 13839986620612167427
21267235 1 18333454244254180413
21304253 13 18343022199183168625
21521721 280 18131347553444704480
21792961 116 18261947440774341708
22224240 67 17988639713892221935
2297311 6 18186520986079901013
23035841 295 18409446981617582466
23402539 116 12607396698274922677
23521765 1 18341894095134319115
23559900 14 18337665437902050112
246663 6 17967256399265575035
3004659 81 18186801366894569998
335352 9 18410855490620305127
34797466 226 18187653509675276612
3545911 37 18334855013203712791
4463277 17 18412543210967609760
5104073 3 18262790749408778441
59755656 215 18334294241099852174
59755656 520 16343695539458959109
8209 1 18410573989451719207

> <PUBCHEM_SHAPE_MULTIPOLES>
394.87
19.41
1.28
0.78
2.44
0.13
-0.01
-3.2
2.86
0.44
-0.05
-0.56
0.06
0.61

> <PUBCHEM_SHAPE_SELFOVERLAP>
838.782

> <PUBCHEM_SHAPE_VOLUME>
219.8

> <PUBCHEM_COORDINATE_TYPE>
2
5
10

$$$$
