2814914
  -OEChem-01171809553D

 32 34  0     0  0  0  0  0  0999 V2000
    1.4447   -1.2822   -0.4596 S   0  0  0  0  0  0  0  0  0  0  0  0
   -6.7157   -0.6770    0.0074 F   0  0  0  0  0  0  0  0  0  0  0  0
    1.5062   -1.9315   -1.7510 O   0  0  0  0  0  0  0  0  0  0  0  0
    0.8415   -1.8852    0.7089 O   0  0  0  0  0  0  0  0  0  0  0  0
    1.7732    2.5485   -0.4364 O   0  0  0  0  0  0  0  0  0  0  0  0
   -0.8583    1.1597    1.3046 O   0  0  0  0  0  0  0  0  0  0  0  0
    0.9093    0.3448   -0.6353 N   0  0  0  0  0  0  0  0  0  0  0  0
    3.0500   -0.7542   -0.0359 C   0  0  0  0  0  0  0  0  0  0  0  0
    3.1613    0.6360   -0.0307 C   0  0  0  0  0  0  0  0  0  0  0  0
    1.9118    1.3402   -0.3805 C   0  0  0  0  0  0  0  0  0  0  0  0
   -0.4856    0.6137   -1.0120 C   0  0  0  0  0  0  0  0  0  0  0  0
    4.1065   -1.5889    0.2644 C   0  0  0  0  0  0  0  0  0  0  0  0
    4.3663    1.2399    0.2837 C   0  0  0  0  0  0  0  0  0  0  0  0
   -1.3186    0.7329    0.2480 C   0  0  0  0  0  0  0  0  0  0  0  0
    5.3243   -0.9861    0.5822 C   0  0  0  0  0  0  0  0  0  0  0  0
    5.4535    0.4152    0.5919 C   0  0  0  0  0  0  0  0  0  0  0  0
   -2.7579    0.3579    0.1841 C   0  0  0  0  0  0  0  0  0  0  0  0
   -3.4338    0.5230   -1.0052 C   0  0  0  0  0  0  0  0  0  0  0  0
   -3.3636   -0.1426    1.3162 C   0  0  0  0  0  0  0  0  0  0  0  0
   -4.7821    0.1703   -1.0656 C   0  0  0  0  0  0  0  0  0  0  0  0
   -4.7118   -0.4954    1.2558 C   0  0  0  0  0  0  0  0  0  0  0  0
   -5.4211   -0.3389    0.0650 C   0  0  0  0  0  0  0  0  0  0  0  0
   -0.5494    1.5466   -1.5804 H   0  0  0  0  0  0  0  0  0  0  0  0
   -0.8468   -0.2034   -1.6442 H   0  0  0  0  0  0  0  0  0  0  0  0
    4.0049   -2.6679    0.2564 H   0  0  0  0  0  0  0  0  0  0  0  0
    4.4773    2.3187    0.2943 H   0  0  0  0  0  0  0  0  0  0  0  0
    6.1845   -1.6042    0.8255 H   0  0  0  0  0  0  0  0  0  0  0  0
    6.4124    0.8615    0.8427 H   0  0  0  0  0  0  0  0  0  0  0  0
   -2.9648    0.9323   -1.8941 H   0  0  0  0  0  0  0  0  0  0  0  0
   -2.8220   -0.2749    2.2479 H   0  0  0  0  0  0  0  0  0  0  0  0
   -5.3358    0.2954   -1.9914 H   0  0  0  0  0  0  0  0  0  0  0  0
   -5.2094   -0.8931    2.1354 H   0  0  0  0  0  0  0  0  0  0  0  0
  1  3  2  0  0  0  0
  1  4  2  0  0  0  0
  1  7  1  0  0  0  0
  1  8  1  0  0  0  0
  2 22  1  0  0  0  0
  5 10  2  0  0  0  0
  6 14  2  0  0  0  0
  7 10  1  0  0  0  0
  7 11  1  0  0  0  0
  8  9  1  0  0  0  0
  8 12  2  0  0  0  0
  9 10  1  0  0  0  0
  9 13  2  0  0  0  0
 11 14  1  0  0  0  0
 11 23  1  0  0  0  0
 11 24  1  0  0  0  0
 12 15  1  0  0  0  0
 12 25  1  0  0  0  0
 13 16  1  0  0  0  0
 13 26  1  0  0  0  0
 14 17  1  0  0  0  0
 15 16  2  0  0  0  0
 15 27  1  0  0  0  0
 16 28  1  0  0  0  0
 17 18  2  0  0  0  0
 17 19  1  0  0  0  0
 18 20  1  0  0  0  0
 18 29  1  0  0  0  0
 19 21  2  0  0  0  0
 19 30  1  0  0  0  0
 20 22  2  0  0  0  0
 20 31  1  0  0  0  0
 21 22  1  0  0  0  0
 21 32  1  0  0  0  0
M  END
> <PUBCHEM_COMPOUND_CID>
2814914

> <PUBCHEM_CONFORMER_RMSD>
0.6

> <PUBCHEM_CONFORMER_DIVERSEORDER>
1
28
51
47
49
62
58
33
44
59
35
50
45
24
46
56
37
29
25
39
20
61
12
42
36
41
31
5
11
55
43
48
2
60
19
21
4
57
34
23
9
32
13
7
52
54
38
30
14
27
18
26
53
40
16
3
6
17
10
8
22
15

> <PUBCHEM_MMFF94_PARTIAL_CHARGES>
30
1 1.45
10 0.72
11 0.42
12 -0.15
13 -0.15
14 0.42
15 -0.15
16 -0.15
17 0.09
18 -0.15
19 -0.15
2 -0.19
20 -0.15
21 -0.15
22 0.19
25 0.15
26 0.15
27 0.15
28 0.15
29 0.15
3 -0.65
30 0.15
31 0.15
32 0.15
4 -0.65
5 -0.57
6 -0.57
7 -0.73
8 -0.01
9 0.09

> <PUBCHEM_EFFECTIVE_ROTOR_COUNT>
3.2

> <PUBCHEM_PHARMACOPHORE_FEATURES>
7
1 3 acceptor
1 4 acceptor
1 5 acceptor
1 6 acceptor
5 1 7 8 9 10 rings
6 17 18 19 20 21 22 rings
6 8 9 12 13 15 16 rings

> <PUBCHEM_HEAVY_ATOM_COUNT>
22

> <PUBCHEM_ATOM_DEF_STEREO_COUNT>
0

> <PUBCHEM_ATOM_UDEF_STEREO_COUNT>
0

> <PUBCHEM_BOND_DEF_STEREO_COUNT>
0

> <PUBCHEM_BOND_UDEF_STEREO_COUNT>
0

> <PUBCHEM_ISOTOPIC_ATOM_COUNT>
0

> <PUBCHEM_COMPONENT_COUNT>
1

> <PUBCHEM_CACTVS_TAUTO_COUNT>
2

> <PUBCHEM_CONFORMER_ID>
002AF3C200000001

> <PUBCHEM_MMFF94_ENERGY>
50.152

> <PUBCHEM_FEATURE_SELFOVERLAP>
35.606

> <PUBCHEM_SHAPE_FINGERPRINT>
10 15 18113890616306094128
10090160 65 18273213088457631135
11045977 3 18113902684298733666
11595378 159 16128380320284879171
11796584 16 16443067205184848504
12011746 2 18186525389022564386
12236239 1 17847059986649916605
12596602 18 17489869340779090811
12616971 3 18060415850449735277
13402501 40 17967250897159384619
13533116 47 18272369750713348858
14251751 18 17603877744776945155
14341114 176 18410015437555338986
14341114 328 17275105037239182977
14386348 63 17821729429400636135
14787075 74 17917989490484714450
14848160 23 17967812743100502075
14863182 85 17703800201846693014
15183329 4 12901545723827819019
15788980 27 17822012021148108003
17349148 13 18342744009048479841
18222031 100 18409454652908948414
19377110 9 17561094605026482299
19489759 90 16732699437588011995
200 152 18413385423931549017
20028762 73 18343862221123183766
20645477 70 18408041801288068823
21033648 29 18188190066237629101
21033650 10 15576407809245474166
21267235 1 18411702046360715238
21623969 137 18341900705580000819
21682296 61 18267306422363745342
22224240 67 18272645779671404674
23402539 116 15213014938573148095
23557571 272 16950277382672034397
23559900 14 17095808818881201357
26918003 58 18408044017918494001
29717793 49 13190334648034397050
3411729 13 15286498711431164292
351380 180 18113899372799606115
42630746 31 18202285797111006150
465052 167 18334014991073995118
5104073 3 18338793399514605568
5283173 99 17823125740586254709
542803 24 16056880238655789273
58260988 393 16343427219687787226
59755656 215 16732695043968538875
6442390 28 13830128399352727845
9999458 23 17312821619573163516

> <PUBCHEM_SHAPE_MULTIPOLES>
420.87
13.37
1.71
1.18
8.9
0.08
0.07
-2.28
-2.19
-1.83
0.17
0.73
-0.17
0.39

> <PUBCHEM_SHAPE_SELFOVERLAP>
912.158

> <PUBCHEM_SHAPE_VOLUME>
232.1

> <PUBCHEM_COORDINATE_TYPE>
2
5
10

$$$$
