2998271
  -OEChem-01171810133D

 70 72  0     1  0  0  0  0  0999 V2000
   -4.0954    1.7014   -0.7060 O   0  0  0  0  0  0  0  0  0  0  0  0
    6.8482    3.5385   -0.8169 O   0  0  0  0  0  0  0  0  0  0  0  0
    1.8315   -0.3828    0.1930 N   0  0  0  0  0  0  0  0  0  0  0  0
    4.3639    1.0119    0.1950 N   0  0  0  0  0  0  0  0  0  0  0  0
    0.8753   -4.3597   -0.7054 N   0  0  0  0  0  0  0  0  0  0  0  0
    0.6480   -0.9346    0.8495 C   0  0  1  0  0  0  0  0  0  0  0  0
    3.0531   -1.0217    0.6974 C   0  0  0  0  0  0  0  0  0  0  0  0
    1.9002    1.0718    0.3787 C   0  0  0  0  0  0  0  0  0  0  0  0
   -0.6309   -0.2249    0.4304 C   0  0  0  0  0  0  0  0  0  0  0  0
    4.2946   -0.4428    0.0101 C   0  0  0  0  0  0  0  0  0  0  0  0
    3.1418    1.6515   -0.3075 C   0  0  0  0  0  0  0  0  0  0  0  0
   -3.2641    1.9418    2.0024 C   0  0  0  0  0  0  0  0  0  0  0  0
   -2.6873    0.2167   -2.6795 C   0  0  0  0  0  0  0  0  0  0  0  0
   -2.5020    1.1537    0.9881 C   0  0  0  0  0  0  0  0  0  0  0  0
   -2.2245    0.3238   -1.2639 C   0  0  0  0  0  0  0  0  0  0  0  0
   -1.0529   -0.3281   -0.8794 C   0  0  0  0  0  0  0  0  0  0  0  0
   -1.3302    0.5020    1.3725 C   0  0  0  0  0  0  0  0  0  0  0  0
   -2.9493    1.0646   -0.3302 C   0  0  0  0  0  0  0  0  0  0  0  0
    0.5406   -2.4428    0.6797 C   0  0  0  0  0  0  0  0  0  0  0  0
    5.5467    1.5630   -0.4634 C   0  0  0  0  0  0  0  0  0  0  0  0
   -3.4363    3.4619    1.6776 C   0  0  0  0  0  0  0  0  0  0  0  0
   -4.7108    1.3864    2.1770 C   0  0  0  0  0  0  0  0  0  0  0  0
   -2.5671    1.8896    3.3964 C   0  0  0  0  0  0  0  0  0  0  0  0
   -1.7145   -0.6607   -3.5258 C   0  0  0  0  0  0  0  0  0  0  0  0
   -2.7656    1.6201   -3.3552 C   0  0  0  0  0  0  0  0  0  0  0  0
   -4.1021   -0.4207   -2.8752 C   0  0  0  0  0  0  0  0  0  0  0  0
    5.6789    3.0495   -0.1731 C   0  0  0  0  0  0  0  0  0  0  0  0
    0.0372   -3.2103    1.7009 C   0  0  0  0  0  0  0  0  0  0  0  0
    0.9448   -3.0269   -0.4898 C   0  0  0  0  0  0  0  0  0  0  0  0
   -0.0501   -4.5858    1.5166 C   0  0  0  0  0  0  0  0  0  0  0  0
    0.3783   -5.1064    0.3061 C   0  0  0  0  0  0  0  0  0  0  0  0
    0.7811   -0.7663    1.9302 H   0  0  0  0  0  0  0  0  0  0  0  0
    3.1450   -0.8773    1.7834 H   0  0  0  0  0  0  0  0  0  0  0  0
    3.0846   -2.1004    0.5219 H   0  0  0  0  0  0  0  0  0  0  0  0
    1.0421    1.5814   -0.0728 H   0  0  0  0  0  0  0  0  0  0  0  0
    1.9157    1.3332    1.4460 H   0  0  0  0  0  0  0  0  0  0  0  0
    4.2810   -0.7030   -1.0571 H   0  0  0  0  0  0  0  0  0  0  0  0
    5.1826   -0.9133    0.4500 H   0  0  0  0  0  0  0  0  0  0  0  0
    3.0535    1.5350   -1.3962 H   0  0  0  0  0  0  0  0  0  0  0  0
    3.1249    2.7222   -0.0844 H   0  0  0  0  0  0  0  0  0  0  0  0
   -0.4425   -0.8967   -1.5652 H   0  0  0  0  0  0  0  0  0  0  0  0
   -0.9276    0.5322    2.3765 H   0  0  0  0  0  0  0  0  0  0  0  0
    6.4518    1.0605   -0.0977 H   0  0  0  0  0  0  0  0  0  0  0  0
    5.5257    1.3948   -1.5487 H   0  0  0  0  0  0  0  0  0  0  0  0
   -3.9428    3.9894    2.4944 H   0  0  0  0  0  0  0  0  0  0  0  0
   -2.4577    3.9330    1.5283 H   0  0  0  0  0  0  0  0  0  0  0  0
   -4.0220    3.6355    0.7703 H   0  0  0  0  0  0  0  0  0  0  0  0
   -4.6979    0.2991    2.3177 H   0  0  0  0  0  0  0  0  0  0  0  0
   -5.1902    1.8242    3.0611 H   0  0  0  0  0  0  0  0  0  0  0  0
   -5.3688    1.6092    1.3336 H   0  0  0  0  0  0  0  0  0  0  0  0
   -3.1435    2.4642    4.1333 H   0  0  0  0  0  0  0  0  0  0  0  0
   -2.5098    0.8690    3.7937 H   0  0  0  0  0  0  0  0  0  0  0  0
   -1.5664    2.3379    3.3785 H   0  0  0  0  0  0  0  0  0  0  0  0
   -1.6638   -1.6943   -3.1627 H   0  0  0  0  0  0  0  0  0  0  0  0
   -0.7054   -0.2337   -3.5744 H   0  0  0  0  0  0  0  0  0  0  0  0
   -2.0604   -0.7204   -4.5661 H   0  0  0  0  0  0  0  0  0  0  0  0
   -3.5537    2.2576   -2.9458 H   0  0  0  0  0  0  0  0  0  0  0  0
   -2.9660    1.5248   -4.4293 H   0  0  0  0  0  0  0  0  0  0  0  0
   -1.8152    2.1561   -3.2456 H   0  0  0  0  0  0  0  0  0  0  0  0
   -4.9123    0.2154   -2.5109 H   0  0  0  0  0  0  0  0  0  0  0  0
   -4.1670   -1.3786   -2.3463 H   0  0  0  0  0  0  0  0  0  0  0  0
   -4.3089   -0.6088   -3.9355 H   0  0  0  0  0  0  0  0  0  0  0  0
    5.7699    3.2375    0.9019 H   0  0  0  0  0  0  0  0  0  0  0  0
    4.8518    3.6405   -0.5719 H   0  0  0  0  0  0  0  0  0  0  0  0
   -0.2924   -2.7716    2.6375 H   0  0  0  0  0  0  0  0  0  0  0  0
    1.3394   -2.4699   -1.3324 H   0  0  0  0  0  0  0  0  0  0  0  0
   -4.8098    1.0453   -0.6310 H   0  0  0  0  0  0  0  0  0  0  0  0
   -0.4417   -5.2298    2.2957 H   0  0  0  0  0  0  0  0  0  0  0  0
    0.3309   -6.1729    0.1124 H   0  0  0  0  0  0  0  0  0  0  0  0
    6.9193    4.4843   -0.6021 H   0  0  0  0  0  0  0  0  0  0  0  0
  1 18  1  0  0  0  0
  1 67  1  0  0  0  0
  2 27  1  0  0  0  0
  2 70  1  0  0  0  0
  3  6  1  0  0  0  0
  3  7  1  0  0  0  0
  3  8  1  0  0  0  0
  4 10  1  0  0  0  0
  4 11  1  0  0  0  0
  4 20  1  0  0  0  0
  5 29  1  0  0  0  0
  5 31  2  0  0  0  0
  6  9  1  0  0  0  0
  6 19  1  0  0  0  0
  6 32  1  0  0  0  0
  7 10  1  0  0  0  0
  7 33  1  0  0  0  0
  7 34  1  0  0  0  0
  8 11  1  0  0  0  0
  8 35  1  0  0  0  0
  8 36  1  0  0  0  0
  9 16  2  0  0  0  0
  9 17  1  0  0  0  0
 10 37  1  0  0  0  0
 10 38  1  0  0  0  0
 11 39  1  0  0  0  0
 11 40  1  0  0  0  0
 12 14  1  0  0  0  0
 12 21  1  0  0  0  0
 12 22  1  0  0  0  0
 12 23  1  0  0  0  0
 13 15  1  0  0  0  0
 13 24  1  0  0  0  0
 13 25  1  0  0  0  0
 13 26  1  0  0  0  0
 14 17  2  0  0  0  0
 14 18  1  0  0  0  0
 15 16  1  0  0  0  0
 15 18  2  0  0  0  0
 16 41  1  0  0  0  0
 17 42  1  0  0  0  0
 19 28  1  0  0  0  0
 19 29  2  0  0  0  0
 20 27  1  0  0  0  0
 20 43  1  0  0  0  0
 20 44  1  0  0  0  0
 21 45  1  0  0  0  0
 21 46  1  0  0  0  0
 21 47  1  0  0  0  0
 22 48  1  0  0  0  0
 22 49  1  0  0  0  0
 22 50  1  0  0  0  0
 23 51  1  0  0  0  0
 23 52  1  0  0  0  0
 23 53  1  0  0  0  0
 24 54  1  0  0  0  0
 24 55  1  0  0  0  0
 24 56  1  0  0  0  0
 25 57  1  0  0  0  0
 25 58  1  0  0  0  0
 25 59  1  0  0  0  0
 26 60  1  0  0  0  0
 26 61  1  0  0  0  0
 26 62  1  0  0  0  0
 27 63  1  0  0  0  0
 27 64  1  0  0  0  0
 28 30  2  0  0  0  0
 28 65  1  0  0  0  0
 29 66  1  0  0  0  0
 30 31  1  0  0  0  0
 30 68  1  0  0  0  0
 31 69  1  0  0  0  0
M  END
> <PUBCHEM_COMPOUND_CID>
2998271

> <PUBCHEM_CONFORMER_RMSD>
1

> <PUBCHEM_CONFORMER_DIVERSEORDER>
2
53
63
22
59
50
75
45
67
72
70
71
43
73
36
38
66
12
35
47
68
34
62
15
52
19
46
74
27
56
49
57
33
64
28
69
32
44
7
54
61
16
30
55
1
51
58
18
23
48
31
13
37
60
21
42
65
25
26
20
39
41
29
17
40
3
24
11
9
14
5
8
10
4
6

> <PUBCHEM_MMFF94_PARTIAL_CHARGES>
33
1 -0.53
10 0.27
11 0.27
12 0.14
13 0.14
14 -0.14
15 -0.14
16 -0.15
17 -0.15
18 0.08
19 -0.14
2 -0.68
20 0.27
27 0.28
28 -0.15
29 0.16
3 -0.81
30 -0.15
31 0.16
4 -0.81
41 0.15
42 0.15
5 -0.62
6 0.56
65 0.15
66 0.15
67 0.45
68 0.15
69 0.15
7 0.27
70 0.4
8 0.27
9 -0.14

> <PUBCHEM_EFFECTIVE_ROTOR_COUNT>
8.2

> <PUBCHEM_PHARMACOPHORE_FEATURES>
11
1 1 donor
1 2 acceptor
1 2 donor
1 3 cation
1 4 cation
1 5 acceptor
4 12 21 22 23 hydrophobe
4 13 24 25 26 hydrophobe
6 3 4 7 8 10 11 rings
6 5 19 28 29 30 31 rings
6 9 14 15 16 17 18 rings

> <PUBCHEM_HEAVY_ATOM_COUNT>
31

> <PUBCHEM_ATOM_DEF_STEREO_COUNT>
0

> <PUBCHEM_ATOM_UDEF_STEREO_COUNT>
1

> <PUBCHEM_BOND_DEF_STEREO_COUNT>
0

> <PUBCHEM_BOND_UDEF_STEREO_COUNT>
0

> <PUBCHEM_ISOTOPIC_ATOM_COUNT>
0

> <PUBCHEM_COMPONENT_COUNT>
1

> <PUBCHEM_CACTVS_TAUTO_COUNT>
2

> <PUBCHEM_CONFORMER_ID>
002DBFFF00000002

> <PUBCHEM_MMFF94_ENERGY>
120.6976

> <PUBCHEM_FEATURE_SELFOVERLAP>
55.822

> <PUBCHEM_SHAPE_FINGERPRINT>
10319926 262 15213290899350258688
10369192 42 17897755118138294622
11421498 54 18059277834619654543
11445158 3 17896621646020155077
11578080 2 16883028893289999815
12156800 1 17760695637859609071
12160290 23 18047736380963382210
12549972 3 16519906369371037097
12553582 1 17258210766507479483
12788726 201 18125994108270066546
13009979 54 17341219616711813183
133893 2 18049422765296074963
13583140 156 17977395932404400881
13911987 19 18261100907068463316
14022347 108 16627671948225582559
15324884 4 17241329066832119534
15448158 71 18056765321369306800
15513586 35 16667140189447446988
15842332 3 17771606980863147919
16752209 62 16557031500084772325
17980427 26 18268159651559602590
1813 80 17119163231660663787
19319366 153 18200603488158834841
20505436 4 17845384271216518361
21033648 144 18113897161081463132
21033648 29 17095518479260829332
21033650 10 17489596688314156696
21120745 212 17253745039963982660
21756936 100 18271818968397145400
22907989 373 17981045533492832406
238 59 17898545623574576311
244849 19 17389667376275592085
266924 78 18192987119811194111
27425 322 18201170870365849181
283562 15 18338801242373158491
376196 1 16664259172117539396
4258327 124 17460877547517659332
4409770 3 18122060077072025250
469060 322 16878787269324577995
474 4 18340489946056152642
513202 73 9654484542317160696
5252454 2 18114753736943788156
59755656 520 18339091470634999736
633830 44 18270970037908792846
6523845 18 18115046116615571590
6677587 24 16380224562355148606
6691757 9 18340189883209987202
7288768 16 18339655519825651272
7399639 24 17894635816529777771
9981440 41 17532066372112653892

> <PUBCHEM_SHAPE_MULTIPOLES>
611.28
9.97
5.45
3.18
13.51
7.03
1.86
-14.6
1.51
4.51
-2.15
-5.99
-0.96
-2.81

> <PUBCHEM_SHAPE_SELFOVERLAP>
1287.581

> <PUBCHEM_SHAPE_VOLUME>
346.8

> <PUBCHEM_COORDINATE_TYPE>
2
5
10

$$$$
