9583713
  -OEChem-01171809553D

 35 37  0     0  0  0  0  0  0999 V2000
    6.2192    1.8897    0.4988 F   0  0  0  0  0  0  0  0  0  0  0  0
    6.9413   -0.1495    0.6539 F   0  0  0  0  0  0  0  0  0  0  0  0
    6.5643    0.7214   -1.3025 F   0  0  0  0  0  0  0  0  0  0  0  0
   -1.5498   -0.9631    0.0692 O   0  0  0  0  0  0  0  0  0  0  0  0
   -6.0364    0.1204   -0.0171 N   0  0  0  0  0  0  0  0  0  0  0  0
   -6.0062   -1.2212    0.0879 N   0  0  0  0  0  0  0  0  0  0  0  0
   -4.5177    2.0003   -0.1632 N   0  0  0  0  0  0  0  0  0  0  0  0
   -2.1867    1.2833   -0.1061 N   0  0  0  0  0  0  0  0  0  0  0  0
   -0.2829   -0.3627    0.0230 N   0  0  0  0  0  0  0  0  0  0  0  0
    0.4486   -2.6229    0.2002 N   0  0  0  0  0  0  0  0  0  0  0  0
   -3.8939   -0.3514    0.0206 C   0  0  0  0  0  0  0  0  0  0  0  0
   -4.7995    0.6918   -0.0612 C   0  0  0  0  0  0  0  0  0  0  0  0
   -2.5433   -0.0197   -0.0047 C   0  0  0  0  0  0  0  0  0  0  0  0
   -4.6987   -1.5024    0.1101 C   0  0  0  0  0  0  0  0  0  0  0  0
    2.0704   -0.7665    0.0602 C   0  0  0  0  0  0  0  0  0  0  0  0
    4.6598    0.1455   -0.0006 C   0  0  0  0  0  0  0  0  0  0  0  0
   -7.3081    0.8020   -0.0704 C   0  0  0  0  0  0  0  0  0  0  0  0
    2.3367    0.4796    0.5727 C   0  0  0  0  0  0  0  0  0  0  0  0
    3.0368   -1.5784   -0.4813 C   0  0  0  0  0  0  0  0  0  0  0  0
    3.6519    0.9429    0.5417 C   0  0  0  0  0  0  0  0  0  0  0  0
    4.3522   -1.1152   -0.5123 C   0  0  0  0  0  0  0  0  0  0  0  0
    0.6578   -1.2643    0.0936 C   0  0  0  0  0  0  0  0  0  0  0  0
    6.0661    0.6415   -0.0344 C   0  0  0  0  0  0  0  0  0  0  0  0
   -3.1819    2.1992   -0.1781 C   0  0  0  0  0  0  0  0  0  0  0  0
   -4.3913   -2.5355    0.1909 H   0  0  0  0  0  0  0  0  0  0  0  0
   -7.8566    0.4355   -0.9419 H   0  0  0  0  0  0  0  0  0  0  0  0
   -7.8553    0.5779    0.8487 H   0  0  0  0  0  0  0  0  0  0  0  0
   -7.1529    1.8797   -0.1563 H   0  0  0  0  0  0  0  0  0  0  0  0
    1.5690    1.1113    1.0084 H   0  0  0  0  0  0  0  0  0  0  0  0
    2.8217   -2.5535   -0.9055 H   0  0  0  0  0  0  0  0  0  0  0  0
    3.8724    1.9267    0.9469 H   0  0  0  0  0  0  0  0  0  0  0  0
    5.1301   -1.7415   -0.9414 H   0  0  0  0  0  0  0  0  0  0  0  0
   -2.8614    3.2325   -0.2585 H   0  0  0  0  0  0  0  0  0  0  0  0
   -0.4947   -2.9962    0.2216 H   0  0  0  0  0  0  0  0  0  0  0  0
    1.2019   -3.2905    0.3225 H   0  0  0  0  0  0  0  0  0  0  0  0
  1 23  1  0  0  0  0
  2 23  1  0  0  0  0
  3 23  1  0  0  0  0
  4  9  1  0  0  0  0
  4 13  1  0  0  0  0
  5  6  1  0  0  0  0
  5 12  1  0  0  0  0
  5 17  1  0  0  0  0
  6 14  2  0  0  0  0
  7 12  1  0  0  0  0
  7 24  2  0  0  0  0
  8 13  2  0  0  0  0
  8 24  1  0  0  0  0
  9 22  2  0  0  0  0
 10 22  1  0  0  0  0
 10 34  1  0  0  0  0
 10 35  1  0  0  0  0
 11 12  2  0  0  0  0
 11 13  1  0  0  0  0
 11 14  1  0  0  0  0
 14 25  1  0  0  0  0
 15 18  2  0  0  0  0
 15 19  1  0  0  0  0
 15 22  1  0  0  0  0
 16 20  2  0  0  0  0
 16 21  1  0  0  0  0
 16 23  1  0  0  0  0
 17 26  1  0  0  0  0
 17 27  1  0  0  0  0
 17 28  1  0  0  0  0
 18 20  1  0  0  0  0
 18 29  1  0  0  0  0
 19 21  2  0  0  0  0
 19 30  1  0  0  0  0
 20 31  1  0  0  0  0
 21 32  1  0  0  0  0
 24 33  1  0  0  0  0
M  END
> <PUBCHEM_COMPOUND_CID>
9583713

> <PUBCHEM_CONFORMER_RMSD>
0.8

> <PUBCHEM_CONFORMER_DIVERSEORDER>
1
16
8
18
15
4
12
17
5
3
14
10
13
11
7
9
2
6

> <PUBCHEM_MMFF94_PARTIAL_CHARGES>
31
1 -0.34
10 -0.85
12 0.11
13 0.39
14 0.14
15 0.09
16 -0.14
17 0.26
18 -0.15
19 -0.15
2 -0.34
20 -0.15
21 -0.15
22 0.41
23 1.16
24 0.47
25 0.15
29 0.15
3 -0.34
30 0.15
31 0.15
32 0.15
33 0.15
34 0.4
35 0.4
4 -0.02
5 0.31
6 -0.71
7 -0.57
8 -0.62
9 -0.51

> <PUBCHEM_EFFECTIVE_ROTOR_COUNT>
4

> <PUBCHEM_PHARMACOPHORE_FEATURES>
7
1 10 donor
1 6 acceptor
3 7 8 24 cation
3 9 10 22 cation
5 5 6 11 12 14 rings
6 15 16 18 19 20 21 rings
6 7 8 11 12 13 24 rings

> <PUBCHEM_HEAVY_ATOM_COUNT>
24

> <PUBCHEM_ATOM_DEF_STEREO_COUNT>
0

> <PUBCHEM_ATOM_UDEF_STEREO_COUNT>
0

> <PUBCHEM_BOND_DEF_STEREO_COUNT>
1

> <PUBCHEM_BOND_UDEF_STEREO_COUNT>
0

> <PUBCHEM_ISOTOPIC_ATOM_COUNT>
0

> <PUBCHEM_COMPONENT_COUNT>
1

> <PUBCHEM_CACTVS_TAUTO_COUNT>
2

> <PUBCHEM_CONFORMER_ID>
00923C6100000001

> <PUBCHEM_MMFF94_ENERGY>
55.0326

> <PUBCHEM_FEATURE_SELFOVERLAP>
35.635

> <PUBCHEM_SHAPE_FINGERPRINT>
10 15 18186523219525912552
10411042 1 17836368147595645638
10591671 39 18334866042679683718
10595046 47 18410291381047098427
10968037 39 18410291411723435463
11315181 36 17458067092822927267
11719270 70 18201715116559953822
12107183 9 17543062382043941531
12166972 35 18335986441082242080
12236239 1 17603584140680441882
12403259 415 18131060554486189904
12596602 18 16732988664780518088
12730499 353 18202005434710419790
12916748 109 18410576176038530702
13402501 40 18411980273603892776
13533116 47 13182752411992136892
13668630 136 16200435783739479524
13785724 45 17760641470180952138
14123256 10 18411135840542326717
14341114 176 18411142402951759151
14933364 13 18341897385116217101
15183329 4 17203618073104821318
15196674 1 18338797818866725112
15348495 7 11530779131592564340
15537594 2 13398633826938734452
15961568 22 18333734602249725092
17844677 252 18270126707773243669
18335252 98 18411704296792073347
18608769 82 18341330097504608243
19489759 90 17749107790472201419
19611394 137 17896616161488752379
20281389 69 18333728022892284640
21033648 29 18271234019478543144
21267235 1 18338518647200741171
21315764 268 18260541230518450844
221357 26 17989487403060789536
22224240 67 17967249810596183227
23559900 14 18410567418985602609
2916195 48 18411416228723513056
300161 21 17821725005990821507
34797466 226 17917717880852645476
350125 39 18410855481708883101
3545911 37 18343582949326480170
4073 2 18186527617488664499
4325135 7 18411418414745887269
4340502 62 16588022407739815466
5104073 3 18189621549020210523
54446538 1 18333731334080084788
5486654 2 18411138048092551107
59682541 35 18261118508677333697
59755656 215 18343304760311273334
59755656 520 17894906360462163010
67856867 119 18114750450893082077
9996256 80 18413105065330032134

> <PUBCHEM_SHAPE_MULTIPOLES>
436.33
19.46
1.98
0.71
2.17
0.05
0.05
-5.58
0.73
-0.56
0.01
0.61
-0.04
0.51

> <PUBCHEM_SHAPE_SELFOVERLAP>
959.207

> <PUBCHEM_SHAPE_VOLUME>
236.9

> <PUBCHEM_COORDINATE_TYPE>
2
5
10

$$$$
