2571709
  -OEChem-01171809253D

 30 32  0     0  0  0  0  0  0999 V2000
    3.7004    0.4168   -3.1440 Br  0  0  0  0  0  0  0  0  0  0  0  0
    1.2915   -0.6965    1.3728 O   0  0  0  0  0  0  0  0  0  0  0  0
   -3.5259    2.9695   -0.1472 O   0  5  0  0  0  0  0  0  0  0  0  0
   -4.3974    1.0475   -0.7519 O   0  0  0  0  0  0  0  0  0  0  0  0
   -3.4576    1.7259   -0.2779 N   0  3  0  0  0  0  0  0  0  0  0  0
   -3.0114   -2.5016   -0.6320 N   0  0  0  0  0  0  0  0  0  0  0  0
   -0.9171   -0.9478    0.4293 C   0  0  0  0  0  0  0  0  0  0  0  0
   -2.1165   -0.3342    0.0129 C   0  0  0  0  0  0  0  0  0  0  0  0
    0.1121   -0.1497    0.9548 C   0  0  0  0  0  0  0  0  0  0  0  0
   -2.2657    1.0580    0.1277 C   0  0  0  0  0  0  0  0  0  0  0  0
   -0.0470    1.2328    1.0647 C   0  0  0  0  0  0  0  0  0  0  0  0
   -1.2333    1.8353    0.6520 C   0  0  0  0  0  0  0  0  0  0  0  0
   -0.7880   -2.3361    0.3061 C   0  0  0  0  0  0  0  0  0  0  0  0
   -3.1167   -1.1596   -0.5046 C   0  0  0  0  0  0  0  0  0  0  0  0
    2.4498   -0.2725    0.7479 C   0  0  0  0  0  0  0  0  0  0  0  0
   -1.8496   -3.0544   -0.2229 C   0  0  0  0  0  0  0  0  0  0  0  0
    2.4743   -0.1665   -0.6319 C   0  0  0  0  0  0  0  0  0  0  0  0
    3.5580    0.0351    1.5181 C   0  0  0  0  0  0  0  0  0  0  0  0
    3.6434    0.2607   -1.2613 C   0  0  0  0  0  0  0  0  0  0  0  0
    4.7271    0.4622    0.8886 C   0  0  0  0  0  0  0  0  0  0  0  0
    4.7698    0.5750   -0.5011 C   0  0  0  0  0  0  0  0  0  0  0  0
    0.7405    1.8552    1.4822 H   0  0  0  0  0  0  0  0  0  0  0  0
   -1.3109    2.9142    0.7599 H   0  0  0  0  0  0  0  0  0  0  0  0
    0.1121   -2.8611    0.6103 H   0  0  0  0  0  0  0  0  0  0  0  0
   -4.0907   -0.8942   -0.8731 H   0  0  0  0  0  0  0  0  0  0  0  0
   -1.7875   -4.1320   -0.3345 H   0  0  0  0  0  0  0  0  0  0  0  0
    1.6083   -0.4270   -1.2342 H   0  0  0  0  0  0  0  0  0  0  0  0
    3.5263   -0.0519    2.5999 H   0  0  0  0  0  0  0  0  0  0  0  0
    5.6040    0.7071    1.4807 H   0  0  0  0  0  0  0  0  0  0  0  0
    5.6885    0.9097   -0.9757 H   0  0  0  0  0  0  0  0  0  0  0  0
  1 19  1  0  0  0  0
  2  9  1  0  0  0  0
  2 15  1  0  0  0  0
  3  5  1  0  0  0  0
  4  5  2  0  0  0  0
  5 10  1  0  0  0  0
  6 14  2  0  0  0  0
  6 16  1  0  0  0  0
  7  8  1  0  0  0  0
  7  9  2  0  0  0  0
  7 13  1  0  0  0  0
  8 10  2  0  0  0  0
  8 14  1  0  0  0  0
  9 11  1  0  0  0  0
 10 12  1  0  0  0  0
 11 12  2  0  0  0  0
 11 22  1  0  0  0  0
 12 23  1  0  0  0  0
 13 16  2  0  0  0  0
 13 24  1  0  0  0  0
 14 25  1  0  0  0  0
 15 17  2  0  0  0  0
 15 18  1  0  0  0  0
 16 26  1  0  0  0  0
 17 19  1  0  0  0  0
 17 27  1  0  0  0  0
 18 20  2  0  0  0  0
 18 28  1  0  0  0  0
 19 21  2  0  0  0  0
 20 21  1  0  0  0  0
 20 29  1  0  0  0  0
 21 30  1  0  0  0  0
M  CHG  2   3  -1   5   1
M  END
> <PUBCHEM_COMPOUND_CID>
2571709

> <PUBCHEM_CONFORMER_RMSD>
0.6

> <PUBCHEM_CONFORMER_DIVERSEORDER>
1
13
12
9
15
16
10
8
5
11
3
2
7
6
14
4

> <PUBCHEM_MMFF94_PARTIAL_CHARGES>
28
1 -0.11
10 0.13
11 -0.15
12 -0.15
13 -0.15
14 0.16
15 0.08
16 0.16
17 -0.15
18 -0.15
19 0.11
2 -0.17
20 -0.15
21 -0.15
22 0.15
23 0.15
24 0.15
25 0.15
26 0.15
27 0.15
28 0.15
29 0.15
3 -0.52
30 0.15
4 -0.52
5 0.91
6 -0.62
9 0.08

> <PUBCHEM_EFFECTIVE_ROTOR_COUNT>
3

> <PUBCHEM_PHARMACOPHORE_FEATURES>
9
1 1 hydrophobe
1 2 acceptor
1 3 acceptor
1 3 anion
1 4 acceptor
1 6 acceptor
6 15 17 18 19 20 21 rings
6 6 7 8 13 14 16 rings
6 7 8 9 10 11 12 rings

> <PUBCHEM_HEAVY_ATOM_COUNT>
21

> <PUBCHEM_ATOM_DEF_STEREO_COUNT>
0

> <PUBCHEM_ATOM_UDEF_STEREO_COUNT>
0

> <PUBCHEM_BOND_DEF_STEREO_COUNT>
0

> <PUBCHEM_BOND_UDEF_STEREO_COUNT>
0

> <PUBCHEM_ISOTOPIC_ATOM_COUNT>
0

> <PUBCHEM_COMPONENT_COUNT>
1

> <PUBCHEM_CACTVS_TAUTO_COUNT>
1

> <PUBCHEM_CONFORMER_ID>
00273DBD00000001

> <PUBCHEM_MMFF94_ENERGY>
87.6365

> <PUBCHEM_FEATURE_SELFOVERLAP>
45.781

> <PUBCHEM_SHAPE_FINGERPRINT>
10498660 4 18341896290237355208
10764073 3 15187477617055955539
11640471 11 17822301175526253068
12173636 292 18338508634735104173
12236239 1 17894342285416467034
12403814 3 17458618987261756853
12714826 92 18340780350159316243
12788726 201 17824841163050567227
14386348 63 17489313031050895526
14790565 3 18198627627479164201
15163728 17 17974867072524387829
15342168 16 16443644457521763916
15375358 24 17917704712873318760
15475509 35 12821568421388489021
16752209 62 18338226154525341987
17357779 13 17844512508634970119
17980427 23 17968086582474764412
1813 80 17982463894665949251
19433438 15 17894633660477411140
19868273 293 18410011022376522642
20645476 183 18333449820316552787
20645477 70 16343705409304334860
20693207 138 17488486181374677262
20871999 31 18342453772533676943
21033650 10 18336848436870567020
21475661 188 15141512542077960621
21864079 5 17677915559303963852
22122407 14 16298388998821892285
22620623 9 18130507526128846159
23227448 37 18338794619306584876
23402539 116 18340194259370113408
23526113 38 17131828738144475994
23557571 272 18130227155021819648
23559900 14 18202563952478786986
238 59 16702021925006715910
2748010 2 17908399696571160067
2838139 119 16226867971032127333
312425 83 18120127007223800404
33382 64 14907600351431760389
3472631 163 18408041818821963756
394222 165 17827912928413868569
474 4 17022625273517863048
4921388 177 18201453479387570310
57724786 102 15430330148144654516
7615 1 17749387122212778030
77492 1 17822283600530783450
9709674 26 17917994979637560668

> <PUBCHEM_SHAPE_MULTIPOLES>
410.54
8.91
2.52
1.78
5.21
0.5
1.29
-2.32
2.87
-4.42
0.17
2.93
-0.18
-0.27

> <PUBCHEM_SHAPE_SELFOVERLAP>
899.94

> <PUBCHEM_SHAPE_VOLUME>
228.2

> <PUBCHEM_COORDINATE_TYPE>
2
5
10

$$$$
