4263090
  -OEChem-01171809483D

 44 47  0     0  0  0  0  0  0999 V2000
   -3.6696    0.0457   -0.0210 N   0  0  0  0  0  0  0  0  0  0  0  0
   -6.4984    0.3620    0.2185 N   0  0  0  0  0  0  0  0  0  0  0  0
    2.6514    0.6492   -0.0404 N   0  0  0  0  0  0  0  0  0  0  0  0
   -4.2670    1.3829   -0.0863 C   0  0  0  0  0  0  0  0  0  0  0  0
   -4.4684   -0.9740    0.6703 C   0  0  0  0  0  0  0  0  0  0  0  0
   -5.7110    1.3024   -0.5882 C   0  0  0  0  0  0  0  0  0  0  0  0
   -5.9052   -0.9788    0.1431 C   0  0  0  0  0  0  0  0  0  0  0  0
   -2.2771   -0.0927   -0.0126 C   0  0  0  0  0  0  0  0  0  0  0  0
   -7.8880    0.3344   -0.2364 C   0  0  0  0  0  0  0  0  0  0  0  0
   -1.6577   -1.2334   -0.5614 C   0  0  0  0  0  0  0  0  0  0  0  0
   -1.4519    0.9039    0.5459 C   0  0  0  0  0  0  0  0  0  0  0  0
    0.5271   -0.3724    0.0060 C   0  0  0  0  0  0  0  0  0  0  0  0
   -0.2697   -1.3719   -0.5522 C   0  0  0  0  0  0  0  0  0  0  0  0
   -0.0640    0.7656    0.5550 C   0  0  0  0  0  0  0  0  0  0  0  0
    1.9669   -0.5149    0.0140 C   0  0  0  0  0  0  0  0  0  0  0  0
    2.5546   -1.7605    0.0732 C   0  0  0  0  0  0  0  0  0  0  0  0
    3.9968    0.5945   -0.0367 C   0  0  0  0  0  0  0  0  0  0  0  0
    4.6918   -0.6316    0.0217 C   0  0  0  0  0  0  0  0  0  0  0  0
    3.9409   -1.8136    0.0769 C   0  0  0  0  0  0  0  0  0  0  0  0
    4.7432    1.7684   -0.0914 C   0  0  0  0  0  0  0  0  0  0  0  0
    6.0969   -0.6515    0.0235 C   0  0  0  0  0  0  0  0  0  0  0  0
    6.1402    1.7489   -0.0895 C   0  0  0  0  0  0  0  0  0  0  0  0
    6.8182    0.5376   -0.0320 C   0  0  0  0  0  0  0  0  0  0  0  0
   -3.7033    2.0260   -0.7736 H   0  0  0  0  0  0  0  0  0  0  0  0
   -4.2474    1.8489    0.9073 H   0  0  0  0  0  0  0  0  0  0  0  0
   -4.4620   -0.7671    1.7484 H   0  0  0  0  0  0  0  0  0  0  0  0
   -4.0510   -1.9780    0.5316 H   0  0  0  0  0  0  0  0  0  0  0  0
   -6.1502    2.3058   -0.5307 H   0  0  0  0  0  0  0  0  0  0  0  0
   -5.7156    1.0041   -1.6454 H   0  0  0  0  0  0  0  0  0  0  0  0
   -5.9156   -1.3504   -0.8905 H   0  0  0  0  0  0  0  0  0  0  0  0
   -6.4898   -1.6819    0.7487 H   0  0  0  0  0  0  0  0  0  0  0  0
   -7.9778    0.0077   -1.2788 H   0  0  0  0  0  0  0  0  0  0  0  0
   -8.3416    1.3277   -0.1461 H   0  0  0  0  0  0  0  0  0  0  0  0
   -8.4835   -0.3401    0.3888 H   0  0  0  0  0  0  0  0  0  0  0  0
   -2.2582   -2.0169   -1.0187 H   0  0  0  0  0  0  0  0  0  0  0  0
   -1.8775    1.7971    0.9965 H   0  0  0  0  0  0  0  0  0  0  0  0
    0.1492   -2.2602   -1.0171 H   0  0  0  0  0  0  0  0  0  0  0  0
    0.5272    1.5565    1.0103 H   0  0  0  0  0  0  0  0  0  0  0  0
    1.9964   -2.6873    0.1424 H   0  0  0  0  0  0  0  0  0  0  0  0
    4.4334   -2.7820    0.1287 H   0  0  0  0  0  0  0  0  0  0  0  0
    4.2357    2.7303   -0.1370 H   0  0  0  0  0  0  0  0  0  0  0  0
    6.6375   -1.5944    0.0683 H   0  0  0  0  0  0  0  0  0  0  0  0
    6.6949    2.6816   -0.1331 H   0  0  0  0  0  0  0  0  0  0  0  0
    7.9037    0.5183   -0.0304 H   0  0  0  0  0  0  0  0  0  0  0  0
  1  4  1  0  0  0  0
  1  5  1  0  0  0  0
  1  8  1  0  0  0  0
  2  6  1  0  0  0  0
  2  7  1  0  0  0  0
  2  9  1  0  0  0  0
  3 15  2  0  0  0  0
  3 17  1  0  0  0  0
  4  6  1  0  0  0  0
  4 24  1  0  0  0  0
  4 25  1  0  0  0  0
  5  7  1  0  0  0  0
  5 26  1  0  0  0  0
  5 27  1  0  0  0  0
  6 28  1  0  0  0  0
  6 29  1  0  0  0  0
  7 30  1  0  0  0  0
  7 31  1  0  0  0  0
  8 10  2  0  0  0  0
  8 11  1  0  0  0  0
  9 32  1  0  0  0  0
  9 33  1  0  0  0  0
  9 34  1  0  0  0  0
 10 13  1  0  0  0  0
 10 35  1  0  0  0  0
 11 14  2  0  0  0  0
 11 36  1  0  0  0  0
 12 13  2  0  0  0  0
 12 14  1  0  0  0  0
 12 15  1  0  0  0  0
 13 37  1  0  0  0  0
 14 38  1  0  0  0  0
 15 16  1  0  0  0  0
 16 19  2  0  0  0  0
 16 39  1  0  0  0  0
 17 18  1  0  0  0  0
 17 20  2  0  0  0  0
 18 19  1  0  0  0  0
 18 21  2  0  0  0  0
 19 40  1  0  0  0  0
 20 22  1  0  0  0  0
 20 41  1  0  0  0  0
 21 23  1  0  0  0  0
 21 42  1  0  0  0  0
 22 23  2  0  0  0  0
 22 43  1  0  0  0  0
 23 44  1  0  0  0  0
M  END
> <PUBCHEM_COMPOUND_CID>
4263090

> <PUBCHEM_CONFORMER_RMSD>
0.6

> <PUBCHEM_CONFORMER_DIVERSEORDER>
3
14
6
5
16
13
17
9
15
18
7
12
4
8
10
11
1
2

> <PUBCHEM_MMFF94_PARTIAL_CHARGES>
31
1 -0.84
10 -0.15
11 -0.15
13 -0.15
14 -0.15
15 0.31
16 -0.15
17 0.31
19 -0.15
2 -0.81
20 -0.15
21 -0.15
22 -0.15
23 -0.15
3 -0.62
35 0.15
36 0.15
37 0.15
38 0.15
39 0.15
4 0.37
40 0.15
41 0.15
42 0.15
43 0.15
44 0.15
5 0.37
6 0.27
7 0.27
8 0.1
9 0.27

> <PUBCHEM_EFFECTIVE_ROTOR_COUNT>
3.2

> <PUBCHEM_PHARMACOPHORE_FEATURES>
7
1 1 cation
1 2 cation
1 3 acceptor
6 1 2 4 5 6 7 rings
6 17 18 20 21 22 23 rings
6 3 15 16 17 18 19 rings
6 8 10 11 12 13 14 rings

> <PUBCHEM_HEAVY_ATOM_COUNT>
23

> <PUBCHEM_ATOM_DEF_STEREO_COUNT>
0

> <PUBCHEM_ATOM_UDEF_STEREO_COUNT>
0

> <PUBCHEM_BOND_DEF_STEREO_COUNT>
0

> <PUBCHEM_BOND_UDEF_STEREO_COUNT>
0

> <PUBCHEM_ISOTOPIC_ATOM_COUNT>
0

> <PUBCHEM_COMPONENT_COUNT>
1

> <PUBCHEM_CACTVS_TAUTO_COUNT>
1

> <PUBCHEM_CONFORMER_ID>
00410CB200000003

> <PUBCHEM_MMFF94_ENERGY>
82.5701

> <PUBCHEM_FEATURE_SELFOVERLAP>
35.557

> <PUBCHEM_SHAPE_FINGERPRINT>
10 15 18113900485016833224
10299344 5 18059856169235080903
10411042 1 17977665309039344802
10595046 47 18411698764514928307
10835480 77 18335415717443360389
11315181 36 18343867719656235737
11578080 2 13697025984829804652
11719270 70 18341890767163094378
12107183 9 17617941331207925491
12236239 1 18411981364699392758
125118 31 18040436572758131637
12516196 113 17917989477631675393
12788726 201 17418099775732355600
12838862 33 18270945922000144536
13167372 99 18411419467002617480
13533116 47 17489307434893404630
13785724 45 17691686684786836594
13899415 154 17275105045797515208
14123256 10 17989205945100222617
14251732 16 18335702771234233819
14251764 18 18273215301125015011
14251764 46 18410855464454810120
14461889 52 18187928425509393930
14933364 13 18408324384530008445
15048467 5 18410011048104121781
15183329 4 18413389817561877833
15419008 145 18115856426974334416
15849732 13 18408041823111110869
16120349 18 18409444817418464477
17844677 252 18336553732925411093
18335252 98 18409453609269292883
19427546 62 18334579096642930282
19489759 90 17458346334321763441
20157964 124 18410576167443353886
20281389 69 18260264139991004349
21150785 3 17846494851138215125
21236236 1 18271805787237790783
21267235 1 18341901762458265414
21315763 28 18409446964284544034
21344244 78 18195226851447163026
21792934 111 18271231743087970888
220451 1 16774075159679484759
22224240 67 16008748026275584033
23035841 295 9367347033441271245
23081809 10 16988566753996476251
23536379 177 18261110755522892121
23559900 14 18340200894741599945
23569914 2 17467297479511341973
23569943 247 14044646352078811524
255183 451 17843131299325784958
29717793 49 17703794695978083484
3004659 81 18409167688995740274
335352 9 18411705370997783486
34797466 226 17989212542449590428
350125 39 18413670209953771488
3545911 37 18411138043670665006
397830 11 16806466870891737673
4073 2 17967820486911063770
4325135 7 18413107268584600861
4340502 62 17530683208228741370
4463277 17 18412263939055700027
474 4 18188213199775003752
5104073 3 18260834748039640883
59755656 215 18410860932739631406
59755656 520 17894625980781182115
67123 10 18410573995075937031

> <PUBCHEM_SHAPE_MULTIPOLES>
458.39
20.07
1.74
0.7
12.14
0.01
0
-5.11
-0.65
-1.29
-0.07
0.24
0.01
0.16

> <PUBCHEM_SHAPE_SELFOVERLAP>
1006.663

> <PUBCHEM_SHAPE_VOLUME>
243.7

> <PUBCHEM_COORDINATE_TYPE>
2
5
10

$$$$
