2769258
  -OEChem-01171809473D

 25 26  0     0  0  0  0  0  0999 V2000
    4.0099   -2.0853   -0.1776 Cl  0  0  0  0  0  0  0  0  0  0  0  0
    5.1766    0.9395    0.3090 Cl  0  0  0  0  0  0  0  0  0  0  0  0
   -4.8562    0.2352   -0.0679 O   0  0  0  0  0  0  0  0  0  0  0  0
    1.1374   -2.0098   -0.4503 O   0  0  0  0  0  0  0  0  0  0  0  0
    0.7375    0.2593   -0.0197 N   0  0  0  0  0  0  0  0  0  0  0  0
    1.2702    1.5123    0.1534 N   0  0  0  0  0  0  0  0  0  0  0  0
   -0.7056    0.2529   -0.0327 C   0  0  0  0  0  0  0  0  0  0  0  0
   -1.4019   -0.8751    0.4013 C   0  0  0  0  0  0  0  0  0  0  0  0
   -1.4041    1.3748   -0.4791 C   0  0  0  0  0  0  0  0  0  0  0  0
   -3.4952    0.2406   -0.0574 C   0  0  0  0  0  0  0  0  0  0  0  0
   -2.7967   -0.8813    0.3889 C   0  0  0  0  0  0  0  0  0  0  0  0
   -2.7989    1.3686   -0.4913 C   0  0  0  0  0  0  0  0  0  0  0  0
    1.5419   -0.8776   -0.1855 C   0  0  0  0  0  0  0  0  0  0  0  0
    3.0179   -0.6752   -0.0515 C   0  0  0  0  0  0  0  0  0  0  0  0
    3.5207    0.5411    0.1460 C   0  0  0  0  0  0  0  0  0  0  0  0
    2.5510    1.6301    0.2239 C   0  0  0  0  0  0  0  0  0  0  0  0
   -5.5045   -0.9503    0.3907 C   0  0  0  0  0  0  0  0  0  0  0  0
   -0.8948   -1.7519    0.7913 H   0  0  0  0  0  0  0  0  0  0  0  0
   -0.8929    2.2640   -0.8379 H   0  0  0  0  0  0  0  0  0  0  0  0
   -3.2746   -1.7866    0.7474 H   0  0  0  0  0  0  0  0  0  0  0  0
   -3.3379    2.2442   -0.8429 H   0  0  0  0  0  0  0  0  0  0  0  0
    2.9677    2.6416    0.3612 H   0  0  0  0  0  0  0  0  0  0  0  0
   -5.2880   -1.1444    1.4466 H   0  0  0  0  0  0  0  0  0  0  0  0
   -5.2693   -1.8098   -0.2463 H   0  0  0  0  0  0  0  0  0  0  0  0
   -6.5832   -0.7798    0.3119 H   0  0  0  0  0  0  0  0  0  0  0  0
  1 14  1  0  0  0  0
  2 15  1  0  0  0  0
  3 10  1  0  0  0  0
  3 17  1  0  0  0  0
  4 13  2  0  0  0  0
  5  6  1  0  0  0  0
  5  7  1  0  0  0  0
  5 13  1  0  0  0  0
  6 16  2  0  0  0  0
  7  8  2  0  0  0  0
  7  9  1  0  0  0  0
  8 11  1  0  0  0  0
  8 18  1  0  0  0  0
  9 12  2  0  0  0  0
  9 19  1  0  0  0  0
 10 11  2  0  0  0  0
 10 12  1  0  0  0  0
 11 20  1  0  0  0  0
 12 21  1  0  0  0  0
 13 14  1  0  0  0  0
 14 15  2  0  0  0  0
 15 16  1  0  0  0  0
 16 22  1  0  0  0  0
 17 23  1  0  0  0  0
 17 24  1  0  0  0  0
 17 25  1  0  0  0  0
M  END
> <PUBCHEM_COMPOUND_CID>
2769258

> <PUBCHEM_CONFORMER_RMSD>
0.6

> <PUBCHEM_CONFORMER_DIVERSEORDER>
1
2
3

> <PUBCHEM_MMFF94_PARTIAL_CHARGES>
22
1 -0.14
10 0.08
11 -0.15
12 -0.15
13 0.62
14 0.15
15 0.15
16 0.38
17 0.28
18 0.15
19 0.15
2 -0.14
20 0.15
21 0.15
22 0.06
3 -0.36
4 -0.57
5 -0.11
6 -0.51
7 0.12
8 -0.15
9 -0.15

> <PUBCHEM_EFFECTIVE_ROTOR_COUNT>
2

> <PUBCHEM_PHARMACOPHORE_FEATURES>
5
1 3 acceptor
1 4 acceptor
1 6 acceptor
6 5 6 13 14 15 16 rings
6 7 8 9 10 11 12 rings

> <PUBCHEM_HEAVY_ATOM_COUNT>
17

> <PUBCHEM_ATOM_DEF_STEREO_COUNT>
0

> <PUBCHEM_ATOM_UDEF_STEREO_COUNT>
0

> <PUBCHEM_BOND_DEF_STEREO_COUNT>
0

> <PUBCHEM_BOND_UDEF_STEREO_COUNT>
0

> <PUBCHEM_ISOTOPIC_ATOM_COUNT>
0

> <PUBCHEM_COMPONENT_COUNT>
1

> <PUBCHEM_CACTVS_TAUTO_COUNT>
1

> <PUBCHEM_CONFORMER_ID>
002A416A00000001

> <PUBCHEM_MMFF94_ENERGY>
64.7984

> <PUBCHEM_FEATURE_SELFOVERLAP>
25.373

> <PUBCHEM_SHAPE_FINGERPRINT>
10608611 8 18336823108873838412
11471102 20 18413106152088237036
12032990 46 18409168770652376021
12236239 1 16988847189226935425
12403259 226 18335414608814251252
12507560 40 18410290281144937732
13380535 76 18408885156803206883
15196674 1 18410292471525316069
15219456 202 18409727335465293652
15375358 24 18334295374659481859
15536298 74 18341612590462141486
18186145 218 18041558027267794692
18522853 276 18413107259979153752
19141452 34 18340491157828065671
200 152 18059852866152100625
20279233 1 18333456455782438899
20510252 161 18411135788876625601
20645477 70 18342459197362637398
21267235 1 18410301302004534854
221490 88 18409174315756173306
22854114 59 18342457053772737569
23402539 116 18114172073421933599
23402655 69 18343013359696829149
23557571 272 17603578621389361541
23559900 14 18335699412606666586
2871803 45 18187642488267156347
33824 294 18410573981336934626
351380 180 18335136501086359515
3545911 37 18411138056560900096
4214541 1 18410010992665393573
42630746 31 18343865528711198622
5104073 3 18339360760261978161
542803 24 16415482661825565321
69090 78 18411696608494404927
7364860 26 18342175553363722734
77779 3 18410575063478561677
8809292 202 18260554406770999322
9709674 26 18335706061058103651

> <PUBCHEM_SHAPE_MULTIPOLES>
331.89
10.46
1.9
0.68
4.04
0.35
0
1.04
0.97
-1.35
-0.14
0.04
0
0.77

> <PUBCHEM_SHAPE_SELFOVERLAP>
692.052

> <PUBCHEM_SHAPE_VOLUME>
189.8

> <PUBCHEM_COORDINATE_TYPE>
2
5
10

$$$$
