7191270
  -OEChem-01171809423D

 44 45  0     0  0  0  0  0  0999 V2000
   -2.4794   -0.0953   -0.6386 S   0  0  0  0  0  0  0  0  0  0  0  0
    0.4746   -0.9059   -0.5643 S   0  0  0  0  0  0  0  0  0  0  0  0
   -6.2135   -1.2478    0.3484 O   0  0  0  0  0  0  0  0  0  0  0  0
    3.9397    2.0625    0.3686 O   0  0  0  0  0  0  0  0  0  0  0  0
   -5.2476    1.6079   -1.5772 O   0  0  0  0  0  0  0  0  0  0  0  0
   -8.4259   -0.7045    0.6710 O   0  0  0  0  0  0  0  0  0  0  0  0
   -5.3373    1.1746    0.7045 N   0  0  0  0  0  0  0  0  0  0  0  0
    2.9080    0.0100   -0.1609 N   0  0  0  0  0  0  0  0  0  0  0  0
    1.0341    1.5273    0.0114 N   0  0  0  0  0  0  0  0  0  0  0  0
   -0.3433    1.4807   -0.1153 N   0  0  0  0  0  0  0  0  0  0  0  0
    5.3285    0.2170    0.1174 C   0  0  0  0  0  0  0  0  0  0  0  0
    7.8406   -0.9962    0.1244 C   0  0  0  0  0  0  0  0  0  0  0  0
    5.5525   -0.9275   -0.6478 C   0  0  0  0  0  0  0  0  0  0  0  0
    6.3607    0.7549    0.8862 C   0  0  0  0  0  0  0  0  0  0  0  0
    6.8084   -1.5341   -0.6444 C   0  0  0  0  0  0  0  0  0  0  0  0
    7.6168    0.1484    0.8898 C   0  0  0  0  0  0  0  0  0  0  0  0
    3.9897    0.8642    0.1137 C   0  0  0  0  0  0  0  0  0  0  0  0
   -6.7709    1.0274    0.8145 C   0  0  0  0  0  0  0  0  0  0  0  0
    9.1831   -1.6450    0.1295 C   0  0  0  0  0  0  0  0  0  0  0  0
   -3.1928    1.5406   -0.3439 C   0  0  0  0  0  0  0  0  0  0  0  0
   -4.6938    1.4541   -0.4899 C   0  0  0  0  0  0  0  0  0  0  0  0
    1.5837    0.3501   -0.1975 C   0  0  0  0  0  0  0  0  0  0  0  0
   -7.2412   -0.3930    0.6064 C   0  0  0  0  0  0  0  0  0  0  0  0
   -0.7648    0.2704   -0.4138 C   0  0  0  0  0  0  0  0  0  0  0  0
   -6.5800   -2.6159    0.1402 C   0  0  0  0  0  0  0  0  0  0  0  0
   -5.3299   -3.4251   -0.1322 C   0  0  0  0  0  0  0  0  0  0  0  0
    4.7901   -1.3601   -1.2884 H   0  0  0  0  0  0  0  0  0  0  0  0
    6.2061    1.6424    1.4941 H   0  0  0  0  0  0  0  0  0  0  0  0
    6.9728   -2.4221   -1.2492 H   0  0  0  0  0  0  0  0  0  0  0  0
    8.4121    0.5749    1.4953 H   0  0  0  0  0  0  0  0  0  0  0  0
   -7.2555    1.6658    0.0697 H   0  0  0  0  0  0  0  0  0  0  0  0
   -7.0515    1.3430    1.8232 H   0  0  0  0  0  0  0  0  0  0  0  0
    9.2361   -2.3925    0.9272 H   0  0  0  0  0  0  0  0  0  0  0  0
    9.3879   -2.1376   -0.8272 H   0  0  0  0  0  0  0  0  0  0  0  0
    9.9778   -0.9075    0.2861 H   0  0  0  0  0  0  0  0  0  0  0  0
   -2.8170    2.2620   -1.0770 H   0  0  0  0  0  0  0  0  0  0  0  0
   -2.9313    1.8995    0.6571 H   0  0  0  0  0  0  0  0  0  0  0  0
   -4.7848    1.0328    1.5450 H   0  0  0  0  0  0  0  0  0  0  0  0
    3.0770   -0.9786   -0.3177 H   0  0  0  0  0  0  0  0  0  0  0  0
   -7.2599   -2.6854   -0.7161 H   0  0  0  0  0  0  0  0  0  0  0  0
   -7.0814   -2.9996    1.0357 H   0  0  0  0  0  0  0  0  0  0  0  0
   -4.8095   -3.0437   -1.0169 H   0  0  0  0  0  0  0  0  0  0  0  0
   -4.6298   -3.3469    0.7062 H   0  0  0  0  0  0  0  0  0  0  0  0
   -5.5732   -4.4791   -0.2927 H   0  0  0  0  0  0  0  0  0  0  0  0
  1 20  1  0  0  0  0
  1 24  1  0  0  0  0
  2 22  1  0  0  0  0
  2 24  1  0  0  0  0
  3 23  1  0  0  0  0
  3 25  1  0  0  0  0
  4 17  2  0  0  0  0
  5 21  2  0  0  0  0
  6 23  2  0  0  0  0
  7 18  1  0  0  0  0
  7 21  1  0  0  0  0
  7 38  1  0  0  0  0
  8 17  1  0  0  0  0
  8 22  1  0  0  0  0
  8 39  1  0  0  0  0
  9 10  1  0  0  0  0
  9 22  2  0  0  0  0
 10 24  2  0  0  0  0
 11 13  2  0  0  0  0
 11 14  1  0  0  0  0
 11 17  1  0  0  0  0
 12 15  2  0  0  0  0
 12 16  1  0  0  0  0
 12 19  1  0  0  0  0
 13 15  1  0  0  0  0
 13 27  1  0  0  0  0
 14 16  2  0  0  0  0
 14 28  1  0  0  0  0
 15 29  1  0  0  0  0
 16 30  1  0  0  0  0
 18 23  1  0  0  0  0
 18 31  1  0  0  0  0
 18 32  1  0  0  0  0
 19 33  1  0  0  0  0
 19 34  1  0  0  0  0
 19 35  1  0  0  0  0
 20 21  1  0  0  0  0
 20 36  1  0  0  0  0
 20 37  1  0  0  0  0
 25 26  1  0  0  0  0
 25 40  1  0  0  0  0
 25 41  1  0  0  0  0
 26 42  1  0  0  0  0
 26 43  1  0  0  0  0
 26 44  1  0  0  0  0
M  END
> <PUBCHEM_COMPOUND_CID>
7191270

> <PUBCHEM_CONFORMER_RMSD>
1

> <PUBCHEM_CONFORMER_DIVERSEORDER>
1
96
70
89
44
95
78
29
82
88
122
84
36
86
48
40
131
144
19
52
39
24
129
137
83
148
2
118
87
141
114
106
30
135
101
120
153
125
136
13
10
67
138
23
22
119
57
68
9
41
61
145
134
14
128
80
65
49
43
3
79
121
5
12
27
99
100
111
127
93
62
130
133
108
51
47
158
53
21
97
38
42
60
117
11
81
69
156
35
91
54
147
26
104
152
33
56
154
63
143
16
59
110
151
34
116
126
8
102
71
20
155
31
105
160
55
6
45
15
142
149
7
90
64
18
98
94
50
150
159
123
46
139
113
92
85
140
4
74
115
28
58
32
25
109
146
73
37
75
72
77
66
112
157
124
103
76
107
17
132

> <PUBCHEM_MMFF94_PARTIAL_CHARGES>
31
1 -0.29
10 -0.34
11 0.09
12 -0.14
13 -0.15
14 -0.15
15 -0.15
16 -0.15
17 0.54
18 0.36
19 0.14
2 -0.08
20 0.29
21 0.57
22 0.44
23 0.66
24 0.43
25 0.28
27 0.15
28 0.15
29 0.15
3 -0.43
30 0.15
38 0.37
39 0.37
4 -0.57
5 -0.57
6 -0.57
7 -0.73
8 -0.49
9 -0.34

> <PUBCHEM_EFFECTIVE_ROTOR_COUNT>
11

> <PUBCHEM_PHARMACOPHORE_FEATURES>
8
1 10 acceptor
1 4 acceptor
1 5 acceptor
1 6 acceptor
1 7 donor
1 8 donor
5 2 9 10 22 24 rings
6 11 12 13 14 15 16 rings

> <PUBCHEM_HEAVY_ATOM_COUNT>
26

> <PUBCHEM_ATOM_DEF_STEREO_COUNT>
0

> <PUBCHEM_ATOM_UDEF_STEREO_COUNT>
0

> <PUBCHEM_BOND_DEF_STEREO_COUNT>
0

> <PUBCHEM_BOND_UDEF_STEREO_COUNT>
0

> <PUBCHEM_ISOTOPIC_ATOM_COUNT>
0

> <PUBCHEM_COMPONENT_COUNT>
1

> <PUBCHEM_CACTVS_TAUTO_COUNT>
6

> <PUBCHEM_CONFORMER_ID>
006DBAE600000001

> <PUBCHEM_MMFF94_ENERGY>
44.3546

> <PUBCHEM_FEATURE_SELFOVERLAP>
40.598

> <PUBCHEM_SHAPE_FINGERPRINT>
10 15 17561084721863446693
100830 39 18411699868427323657
10299344 5 18186804681797127566
11315181 36 11530483320806329693
11456790 92 17131547259537664130
12498461 61 18333725798437329746
13885169 127 18411138021958412875
13974486 27 17550677612754438463
14251764 18 18060136548536526580
14251764 46 18060699468768035557
14344974 204 18198062676139749583
14428016 248 13470398999014531170
15183329 4 18130776829315744732
15352257 5 18408324375771652099
15461852 350 15864069862993454607
15716309 27 18334015016954607717
1754911 235 11746940880383887274
18608769 82 18410854360621828258
19841028 212 18265614278775522050
21095086 128 17095525067903834330
21150785 3 13045942412829355347
21267235 1 18410857638368047700
21315759 40 18040439867245590268
21424621 283 11455900160779826461
21781051 124 18270976708330939102
232437 2 18334296441024875946
23576562 1 7852986331358034963
246663 6 17967818236379439360
3178227 256 17775286071254977816
328311 84 18411700963627984572
4325135 7 11819000673476608744
4516262 110 11239461263594675467
5758199 1 12175625070511263085
59521270 166 18040711426129193669
5969126 39 16009022883177151511
6441014 3 17614569568056763427
68570916 9 18339363092418968693
9953998 17 18341898485624786233
999808 66 18413106173826947895

> <PUBCHEM_SHAPE_MULTIPOLES>
499.37
30.1
2.43
0.91
9.37
1.63
0.07
12.82
-6.47
-3.81
0.08
-0.37
-0.14
1.22

> <PUBCHEM_SHAPE_SELFOVERLAP>
1007.363

> <PUBCHEM_SHAPE_VOLUME>
292.2

> <PUBCHEM_COORDINATE_TYPE>
2
5
10

$$$$
