2195947
  -OEChem-01171809313D

 36 38  0     0  0  0  0  0  0999 V2000
   -0.9936   -0.0470    0.7150 S   0  0  0  0  0  0  0  0  0  0  0  0
   -0.1596    0.1037   -0.6957 O   0  0  0  0  0  0  0  0  0  0  0  0
   -0.7818   -1.3954    1.2073 O   0  0  0  0  0  0  0  0  0  0  0  0
   -0.7214    1.1128    1.5419 O   0  0  0  0  0  0  0  0  0  0  0  0
    1.6710    2.3115   -0.2462 O   0  0  0  0  0  0  0  0  0  0  0  0
    1.5051   -2.2706   -0.8334 O   0  0  0  0  0  0  0  0  0  0  0  0
    1.2069    0.0309   -0.5139 N   0  0  0  0  0  0  0  0  0  0  0  0
   -2.6952    0.0729    0.2597 C   0  0  0  0  0  0  0  0  0  0  0  0
    3.3157    0.5995   -0.0618 C   0  0  0  0  0  0  0  0  0  0  0  0
    3.2658   -0.7816   -0.2388 C   0  0  0  0  0  0  0  0  0  0  0  0
   -3.2278    1.2787   -0.1713 C   0  0  0  0  0  0  0  0  0  0  0  0
    1.9661    1.1329   -0.2723 C   0  0  0  0  0  0  0  0  0  0  0  0
    1.8836   -1.1474   -0.5645 C   0  0  0  0  0  0  0  0  0  0  0  0
   -3.4801   -1.0678    0.3447 C   0  0  0  0  0  0  0  0  0  0  0  0
   -4.8277   -1.0008   -0.0095 C   0  0  0  0  0  0  0  0  0  0  0  0
   -4.5754    1.3460   -0.5255 C   0  0  0  0  0  0  0  0  0  0  0  0
   -5.3752    0.2061   -0.4445 C   0  0  0  0  0  0  0  0  0  0  0  0
    4.4901    1.2537    0.2454 C   0  0  0  0  0  0  0  0  0  0  0  0
    4.3878   -1.5738   -0.1170 C   0  0  0  0  0  0  0  0  0  0  0  0
   -2.3987    2.5175   -0.2699 C   0  0  0  0  0  0  0  0  0  0  0  0
   -5.6832   -2.2198    0.0762 C   0  0  0  0  0  0  0  0  0  0  0  0
    5.6391    0.4682    0.3768 C   0  0  0  0  0  0  0  0  0  0  0  0
    5.5885   -0.9304    0.1975 C   0  0  0  0  0  0  0  0  0  0  0  0
   -3.0730   -2.0183    0.6761 H   0  0  0  0  0  0  0  0  0  0  0  0
   -5.0187    2.2783   -0.8651 H   0  0  0  0  0  0  0  0  0  0  0  0
   -6.4232    0.2713   -0.7249 H   0  0  0  0  0  0  0  0  0  0  0  0
    4.5306    2.3280    0.3806 H   0  0  0  0  0  0  0  0  0  0  0  0
    4.3507   -2.6476   -0.2572 H   0  0  0  0  0  0  0  0  0  0  0  0
   -2.2155    2.9441    0.7207 H   0  0  0  0  0  0  0  0  0  0  0  0
   -1.4538    2.3430   -0.7911 H   0  0  0  0  0  0  0  0  0  0  0  0
   -2.9173    3.2883   -0.8530 H   0  0  0  0  0  0  0  0  0  0  0  0
   -5.4030   -2.8351    0.9380 H   0  0  0  0  0  0  0  0  0  0  0  0
   -6.7396   -1.9580    0.1996 H   0  0  0  0  0  0  0  0  0  0  0  0
   -5.5770   -2.8178   -0.8344 H   0  0  0  0  0  0  0  0  0  0  0  0
    6.5879    0.9401    0.6192 H   0  0  0  0  0  0  0  0  0  0  0  0
    6.4991   -1.5143    0.3047 H   0  0  0  0  0  0  0  0  0  0  0  0
  1  2  1  0  0  0  0
  1  3  2  0  0  0  0
  1  4  2  0  0  0  0
  1  8  1  0  0  0  0
  2  7  1  0  0  0  0
  5 12  2  0  0  0  0
  6 13  2  0  0  0  0
  7 12  1  0  0  0  0
  7 13  1  0  0  0  0
  8 11  2  0  0  0  0
  8 14  1  0  0  0  0
  9 10  1  0  0  0  0
  9 12  1  0  0  0  0
  9 18  2  0  0  0  0
 10 13  1  0  0  0  0
 10 19  2  0  0  0  0
 11 16  1  0  0  0  0
 11 20  1  0  0  0  0
 14 15  2  0  0  0  0
 14 24  1  0  0  0  0
 15 17  1  0  0  0  0
 15 21  1  0  0  0  0
 16 17  2  0  0  0  0
 16 25  1  0  0  0  0
 17 26  1  0  0  0  0
 18 22  1  0  0  0  0
 18 27  1  0  0  0  0
 19 23  1  0  0  0  0
 19 28  1  0  0  0  0
 20 29  1  0  0  0  0
 20 30  1  0  0  0  0
 20 31  1  0  0  0  0
 21 32  1  0  0  0  0
 21 33  1  0  0  0  0
 21 34  1  0  0  0  0
 22 23  2  0  0  0  0
 22 35  1  0  0  0  0
 23 36  1  0  0  0  0
M  END
> <PUBCHEM_COMPOUND_CID>
2195947

> <PUBCHEM_CONFORMER_RMSD>
0.6

> <PUBCHEM_CONFORMER_DIVERSEORDER>
1
5
2
6
4
7
3

> <PUBCHEM_MMFF94_PARTIAL_CHARGES>
30
1 1.49
10 0.09
11 -0.14
12 0.54
13 0.54
14 -0.15
15 -0.14
16 -0.15
17 -0.15
18 -0.15
19 -0.15
2 -0.22
20 0.14
21 0.14
22 -0.15
23 -0.15
24 0.15
25 0.15
26 0.15
27 0.15
28 0.15
3 -0.65
35 0.15
36 0.15
4 -0.65
5 -0.57
6 -0.57
7 -0.08
8 -0.01
9 0.09

> <PUBCHEM_EFFECTIVE_ROTOR_COUNT>
3.2

> <PUBCHEM_PHARMACOPHORE_FEATURES>
7
1 3 acceptor
1 4 acceptor
1 5 acceptor
1 6 acceptor
5 7 9 10 12 13 rings
6 8 11 14 15 16 17 rings
6 9 10 18 19 22 23 rings

> <PUBCHEM_HEAVY_ATOM_COUNT>
23

> <PUBCHEM_ATOM_DEF_STEREO_COUNT>
0

> <PUBCHEM_ATOM_UDEF_STEREO_COUNT>
0

> <PUBCHEM_BOND_DEF_STEREO_COUNT>
0

> <PUBCHEM_BOND_UDEF_STEREO_COUNT>
0

> <PUBCHEM_ISOTOPIC_ATOM_COUNT>
0

> <PUBCHEM_COMPONENT_COUNT>
1

> <PUBCHEM_CACTVS_TAUTO_COUNT>
1

> <PUBCHEM_CONFORMER_ID>
002181EB00000001

> <PUBCHEM_MMFF94_ENERGY>
59.0493

> <PUBCHEM_FEATURE_SELFOVERLAP>
35.635

> <PUBCHEM_SHAPE_FINGERPRINT>
10 15 18341600565302942584
10595046 47 18407760343507044940
10835480 77 18340760486131205341
11089746 13 14056999459637556550
11370993 70 18410011026851240607
12011746 2 18411707578188804806
12107183 9 17615119984576767536
12166972 35 18411985784279185040
12236239 1 17489585649751982588
12403259 226 18410007745380350733
12403260 363 18334859428340597732
12616971 3 15339113559107132584
128620 24 17704075083674005205
13167823 11 18410008827653749287
13402501 40 18408884035927460429
13533116 47 18336825304309067226
14251764 18 18040711485831220578
14341114 176 18410296912537357004
15183329 4 18113613460937094955
15196674 1 18410012126172658988
15788980 27 18186805776850192875
15961568 22 17968100867183206988
17349148 13 18409733945641527832
17492 89 18341897325071909175
18681886 176 18342172298026367530
19433438 38 18410855451870621069
19489759 90 18113054926389369377
200 152 18059855052000362425
20645477 70 18342178822045176134
21033648 29 17631995469423394192
21267235 1 18341621408135651278
21315763 129 18408882919510438964
21709351 56 18335414681955042925
22393880 68 18261672550119905575
23402539 116 18260824908501608709
23557571 272 18409168818408738657
23559900 14 18410004460062496921
26918003 58 18342738503074511979
3004659 81 18113337497205180648
3286 77 18334858341756050781
351380 180 18335138704383515685
3545911 37 18410012105093480949
4073 2 18186526517939775546
4214541 1 18409167684431955485
439807 62 18199180879934312863
474229 33 18272651259580448886
5104073 3 18342458105955219352
5283173 99 18336261237115600257
542803 24 17203612575050836305
59755656 215 18260263010825886791
59755656 520 16153710916979851009
67856867 119 18335422429833938709
7495541 125 17774999132721092945
9709674 26 18409176510547836479

> <PUBCHEM_SHAPE_MULTIPOLES>
442.85
13.57
2.24
0.87
0.1
0.18
-0.15
-3.04
0.25
1.06
0.18
0.11
-0.03
0.6

> <PUBCHEM_SHAPE_SELFOVERLAP>
964.412

> <PUBCHEM_SHAPE_VOLUME>
243.9

> <PUBCHEM_COORDINATE_TYPE>
2
5
10

$$$$
