674819
  -OEChem-01171810013D

 35 37  0     0  0  0  0  0  0999 V2000
    6.2525    2.1635   -0.1533 O   0  5  0  0  0  0  0  0  0  0  0  0
    6.2679   -0.0119   -0.4970 O   0  0  0  0  0  0  0  0  0  0  0  0
   -1.7021   -1.3792    0.5074 N   0  0  0  0  0  0  0  0  0  0  0  0
    5.6967    1.0577   -0.2355 N   0  3  0  0  0  0  0  0  0  0  0  0
   -0.4008   -0.9298    0.4920 C   0  0  0  0  0  0  0  0  0  0  0  0
    0.3120   -1.7652   -0.3708 C   0  0  0  0  0  0  0  0  0  0  0  0
   -2.7836   -0.7979    1.2735 C   0  0  0  0  0  0  0  0  0  0  0  0
   -1.8360   -2.4666   -0.3133 C   0  0  0  0  0  0  0  0  0  0  0  0
   -0.6063   -2.7300   -0.8715 C   0  0  0  0  0  0  0  0  0  0  0  0
    0.1935    0.1413    1.1687 C   0  0  0  0  0  0  0  0  0  0  0  0
   -3.4988    0.2702    0.4909 C   0  0  0  0  0  0  0  0  0  0  0  0
    1.6856   -1.5215   -0.5695 C   0  0  0  0  0  0  0  0  0  0  0  0
    2.2936   -0.4538    0.1009 C   0  0  0  0  0  0  0  0  0  0  0  0
    1.5571    0.3635    0.9560 C   0  0  0  0  0  0  0  0  0  0  0  0
   -4.5823   -0.0750   -0.3054 C   0  0  0  0  0  0  0  0  0  0  0  0
   -3.0654    1.5864    0.5754 C   0  0  0  0  0  0  0  0  0  0  0  0
    3.7118   -0.1962   -0.1005 C   0  0  0  0  0  0  0  0  0  0  0  0
   -5.2452    0.9149   -1.0309 C   0  0  0  0  0  0  0  0  0  0  0  0
   -3.7283    2.5762   -0.1502 C   0  0  0  0  0  0  0  0  0  0  0  0
   -4.8182    2.2405   -0.9532 C   0  0  0  0  0  0  0  0  0  0  0  0
    4.2963    1.0129   -0.0136 C   0  0  0  0  0  0  0  0  0  0  0  0
   -2.3844   -0.4059    2.2158 H   0  0  0  0  0  0  0  0  0  0  0  0
   -3.4735   -1.6045    1.5519 H   0  0  0  0  0  0  0  0  0  0  0  0
   -2.7881   -2.9653   -0.4354 H   0  0  0  0  0  0  0  0  0  0  0  0
   -0.3918   -3.5312   -1.5654 H   0  0  0  0  0  0  0  0  0  0  0  0
   -0.3583    0.7713    1.8559 H   0  0  0  0  0  0  0  0  0  0  0  0
    2.2547   -2.1613   -1.2394 H   0  0  0  0  0  0  0  0  0  0  0  0
    2.0205    1.1850    1.4981 H   0  0  0  0  0  0  0  0  0  0  0  0
   -4.9240   -1.1039   -0.3734 H   0  0  0  0  0  0  0  0  0  0  0  0
   -2.2320    1.8717    1.2076 H   0  0  0  0  0  0  0  0  0  0  0  0
    4.2726   -1.0953   -0.3485 H   0  0  0  0  0  0  0  0  0  0  0  0
   -6.0940    0.6536   -1.6561 H   0  0  0  0  0  0  0  0  0  0  0  0
   -3.3986    3.6091   -0.0867 H   0  0  0  0  0  0  0  0  0  0  0  0
   -5.3350    3.0115   -1.5173 H   0  0  0  0  0  0  0  0  0  0  0  0
    3.8496    1.9711    0.2058 H   0  0  0  0  0  0  0  0  0  0  0  0
  1  4  1  0  0  0  0
  2  4  2  0  0  0  0
  3  5  1  0  0  0  0
  3  7  1  0  0  0  0
  3  8  1  0  0  0  0
  4 21  1  0  0  0  0
  5  6  2  0  0  0  0
  5 10  1  0  0  0  0
  6  9  1  0  0  0  0
  6 12  1  0  0  0  0
  7 11  1  0  0  0  0
  7 22  1  0  0  0  0
  7 23  1  0  0  0  0
  8  9  2  0  0  0  0
  8 24  1  0  0  0  0
  9 25  1  0  0  0  0
 10 14  2  0  0  0  0
 10 26  1  0  0  0  0
 11 15  2  0  0  0  0
 11 16  1  0  0  0  0
 12 13  2  0  0  0  0
 12 27  1  0  0  0  0
 13 14  1  0  0  0  0
 13 17  1  0  0  0  0
 14 28  1  0  0  0  0
 15 18  1  0  0  0  0
 15 29  1  0  0  0  0
 16 19  2  0  0  0  0
 16 30  1  0  0  0  0
 17 21  2  0  0  0  0
 17 31  1  0  0  0  0
 18 20  2  0  0  0  0
 18 32  1  0  0  0  0
 19 20  1  0  0  0  0
 19 33  1  0  0  0  0
 20 34  1  0  0  0  0
 21 35  1  0  0  0  0
M  CHG  2   1  -1   4   1
M  END
> <PUBCHEM_COMPOUND_CID>
674819

> <PUBCHEM_CONFORMER_RMSD>
0.6

> <PUBCHEM_CONFORMER_DIVERSEORDER>
4
14
3
16
21
9
22
17
20
8
5
15
19
7
18
10
11
23
6
13
1
2
12

> <PUBCHEM_MMFF94_PARTIAL_CHARGES>
32
1 -0.52
10 -0.15
11 -0.14
12 -0.15
13 0.03
14 -0.15
15 -0.15
16 -0.15
17 -0.18
18 -0.15
19 -0.15
2 -0.52
20 -0.15
21 0.05
24 0.15
25 0.15
26 0.15
27 0.15
28 0.15
29 0.15
3 0.05
30 0.15
31 0.15
32 0.15
33 0.15
34 0.15
35 0.15
4 0.84
5 -0.15
7 0.4
8 -0.3
9 -0.15

> <PUBCHEM_EFFECTIVE_ROTOR_COUNT>
4

> <PUBCHEM_PHARMACOPHORE_FEATURES>
7
1 1 acceptor
1 1 anion
1 2 acceptor
1 3 cation
5 3 5 6 8 9 rings
6 11 15 16 18 19 20 rings
6 5 6 10 12 13 14 rings

> <PUBCHEM_HEAVY_ATOM_COUNT>
21

> <PUBCHEM_ATOM_DEF_STEREO_COUNT>
0

> <PUBCHEM_ATOM_UDEF_STEREO_COUNT>
0

> <PUBCHEM_BOND_DEF_STEREO_COUNT>
1

> <PUBCHEM_BOND_UDEF_STEREO_COUNT>
0

> <PUBCHEM_ISOTOPIC_ATOM_COUNT>
0

> <PUBCHEM_COMPONENT_COUNT>
1

> <PUBCHEM_CACTVS_TAUTO_COUNT>
2

> <PUBCHEM_CONFORMER_ID>
000A4C0300000004

> <PUBCHEM_MMFF94_ENERGY>
54.0296

> <PUBCHEM_FEATURE_SELFOVERLAP>
35.691

> <PUBCHEM_SHAPE_FINGERPRINT>
10014705 185 18340490062210212354
10411042 1 17690280834400414919
10498660 4 18263078808871176605
105312 117 18412266137852330095
10591671 39 18335144219570014375
11796584 16 11671787035457895677
11961588 58 18409720772813222715
12403259 415 18337967675183160079
12507557 5 17458632228725123117
12596602 18 17095520703600130449
12633257 1 14851897957895666829
12969540 114 17203323429647546326
13103583 49 11170202999610754325
13257819 101 18261665995915065671
13583140 156 17968104139377703659
13740256 8 9583511023303364854
14123255 352 18407760322063960964
14251751 18 10879990267991390720
14251764 30 12894770606888474109
14251764 75 17837777725501990281
14508225 48 17697024109285567935
14739800 52 18113885066464568920
15183329 4 18341334410142071854
15209294 21 16732983128298485714
15527383 91 12107796194036015855
167882 2 18269558226045234014
17780758 139 11097854082098676655
19784866 240 11959734892786876618
200 152 14764354833866359986
20058555 10 18192152809920226908
20281389 69 18333450963094442592
20645477 56 18271531991008042362
21150785 3 13542464306924479336
21859007 373 18340195312086123968
22950370 63 9439108884230831915
23227448 37 18340487884208158284
23402655 69 18059851706584725265
23559900 14 17704080633810923426
26918003 58 9007062352985687731
270888 7 18188767220286286301
2838139 119 18335979796493165076
316301 35 10014706507238314757
3759504 43 18334295400361344130
4015057 19 16343703283353714930
4371632 12 13826439714235665298
5486654 36 10015574048109071767
5718773 13 9366759885906738185
6327066 14 18335697217936810333
633830 44 17487357957653338555
7808743 9 18408881849815448033
7970288 3 9583221843303888853
9981440 41 18186807954842075067

> <PUBCHEM_SHAPE_MULTIPOLES>
410.47
12.82
2.73
1.03
13.82
0.29
-0.12
-11.06
3.43
-1.24
0.69
-0.65
0.04
0.56

> <PUBCHEM_SHAPE_SELFOVERLAP>
901.556

> <PUBCHEM_SHAPE_VOLUME>
223.1

> <PUBCHEM_COORDINATE_TYPE>
2
5
10

$$$$
