42628219
  -OEChem-01171810103D

 55 59  0     0  0  0  0  0  0999 V2000
    4.7845    5.0163   -0.6821 Cl  0  0  0  0  0  0  0  0  0  0  0  0
    3.8864    0.1573    1.4439 S   0  0  0  0  0  0  0  0  0  0  0  0
    0.6279   -3.1775   -2.1309 O   0  0  0  0  0  0  0  0  0  0  0  0
    5.2560   -0.2548    1.2075 O   0  0  0  0  0  0  0  0  0  0  0  0
    3.4571    0.7291    2.7051 O   0  0  0  0  0  0  0  0  0  0  0  0
    0.9656   -0.2956   -1.7421 O   0  0  0  0  0  0  0  0  0  0  0  0
   -1.1024   -2.3005   -0.8256 N   0  0  0  0  0  0  0  0  0  0  0  0
   -3.4135   -0.5550   -0.8485 C   0  0  0  0  0  0  0  0  0  0  0  0
   -2.8469   -1.1697   -2.1385 C   0  0  0  0  0  0  0  0  0  0  0  0
   -2.3077   -0.4217    0.2110 C   0  0  0  0  0  0  0  0  0  0  0  0
   -2.1235   -2.4850   -1.8563 C   0  0  0  0  0  0  0  0  0  0  0  0
   -1.6043   -1.7569    0.4426 C   0  0  0  0  0  0  0  0  0  0  0  0
   -4.0613    0.7983   -1.1303 C   0  0  0  0  0  0  0  0  0  0  0  0
    0.2164   -2.6815   -1.0830 C   0  0  0  0  0  0  0  0  0  0  0  0
   -5.0473    1.1752   -0.0589 C   0  0  0  0  0  0  0  0  0  0  0  0
    1.2169   -2.4698   -0.0294 C   0  0  0  0  0  0  0  0  0  0  0  0
    1.9845   -1.3054    0.1272 C   0  0  0  0  0  0  0  0  0  0  0  0
    2.8931   -1.2542    1.1780 C   0  0  0  0  0  0  0  0  0  0  0  0
   -6.3853    0.7996   -0.1793 C   0  0  0  0  0  0  0  0  0  0  0  0
   -4.6241    1.9000    1.0550 C   0  0  0  0  0  0  0  0  0  0  0  0
    1.3658   -3.5464    0.8494 C   0  0  0  0  0  0  0  0  0  0  0  0
    1.7862   -0.1953   -0.8339 C   0  0  0  0  0  0  0  0  0  0  0  0
    3.5057    1.3353    0.2124 C   0  0  0  0  0  0  0  0  0  0  0  0
    2.5472    1.0739   -0.7599 C   0  0  0  0  0  0  0  0  0  0  0  0
    3.0500   -2.3254    2.0625 C   0  0  0  0  0  0  0  0  0  0  0  0
    2.2821   -3.4740    1.8949 C   0  0  0  0  0  0  0  0  0  0  0  0
   -7.3000    1.1489    0.8142 C   0  0  0  0  0  0  0  0  0  0  0  0
   -5.5386    2.2493    2.0485 C   0  0  0  0  0  0  0  0  0  0  0  0
    4.2022    2.5470    0.2458 C   0  0  0  0  0  0  0  0  0  0  0  0
    2.2889    2.0645   -1.7198 C   0  0  0  0  0  0  0  0  0  0  0  0
   -6.8766    1.8738    1.9281 C   0  0  0  0  0  0  0  0  0  0  0  0
    3.9357    3.5205   -0.7125 C   0  0  0  0  0  0  0  0  0  0  0  0
    2.9793    3.2796   -1.6950 C   0  0  0  0  0  0  0  0  0  0  0  0
   -4.1726   -1.2514   -0.4643 H   0  0  0  0  0  0  0  0  0  0  0  0
   -3.6530   -1.3457   -2.8603 H   0  0  0  0  0  0  0  0  0  0  0  0
   -2.1448   -0.4644   -2.6022 H   0  0  0  0  0  0  0  0  0  0  0  0
   -1.5696    0.3239   -0.1115 H   0  0  0  0  0  0  0  0  0  0  0  0
   -2.7175   -0.0845    1.1677 H   0  0  0  0  0  0  0  0  0  0  0  0
   -2.8276   -3.2421   -1.4917 H   0  0  0  0  0  0  0  0  0  0  0  0
   -1.6785   -2.8677   -2.7803 H   0  0  0  0  0  0  0  0  0  0  0  0
   -0.8035   -1.6218    1.1725 H   0  0  0  0  0  0  0  0  0  0  0  0
   -2.3026   -2.4926    0.8592 H   0  0  0  0  0  0  0  0  0  0  0  0
   -4.5940    0.7700   -2.0905 H   0  0  0  0  0  0  0  0  0  0  0  0
   -3.3049    1.5859   -1.2434 H   0  0  0  0  0  0  0  0  0  0  0  0
   -6.7273    0.2326   -1.0411 H   0  0  0  0  0  0  0  0  0  0  0  0
   -3.5872    2.2085    1.1581 H   0  0  0  0  0  0  0  0  0  0  0  0
    0.7724   -4.4502    0.7311 H   0  0  0  0  0  0  0  0  0  0  0  0
    3.7627   -2.2766    2.8811 H   0  0  0  0  0  0  0  0  0  0  0  0
    2.3971   -4.3106    2.5775 H   0  0  0  0  0  0  0  0  0  0  0  0
   -8.3417    0.8561    0.7207 H   0  0  0  0  0  0  0  0  0  0  0  0
   -5.2095    2.8157    2.9148 H   0  0  0  0  0  0  0  0  0  0  0  0
    4.9478    2.7295    1.0161 H   0  0  0  0  0  0  0  0  0  0  0  0
    1.5501    1.9168   -2.5038 H   0  0  0  0  0  0  0  0  0  0  0  0
   -7.5888    2.1462    2.7015 H   0  0  0  0  0  0  0  0  0  0  0  0
    2.7579    4.0286   -2.4513 H   0  0  0  0  0  0  0  0  0  0  0  0
  1 32  1  0  0  0  0
  2  4  2  0  0  0  0
  2  5  2  0  0  0  0
  2 18  1  0  0  0  0
  2 23  1  0  0  0  0
  3 14  2  0  0  0  0
  6 22  2  0  0  0  0
  7 11  1  0  0  0  0
  7 12  1  0  0  0  0
  7 14  1  0  0  0  0
  8  9  1  0  0  0  0
  8 10  1  0  0  0  0
  8 13  1  0  0  0  0
  8 34  1  0  0  0  0
  9 11  1  0  0  0  0
  9 35  1  0  0  0  0
  9 36  1  0  0  0  0
 10 12  1  0  0  0  0
 10 37  1  0  0  0  0
 10 38  1  0  0  0  0
 11 39  1  0  0  0  0
 11 40  1  0  0  0  0
 12 41  1  0  0  0  0
 12 42  1  0  0  0  0
 13 15  1  0  0  0  0
 13 43  1  0  0  0  0
 13 44  1  0  0  0  0
 14 16  1  0  0  0  0
 15 19  2  0  0  0  0
 15 20  1  0  0  0  0
 16 17  2  0  0  0  0
 16 21  1  0  0  0  0
 17 18  1  0  0  0  0
 17 22  1  0  0  0  0
 18 25  2  0  0  0  0
 19 27  1  0  0  0  0
 19 45  1  0  0  0  0
 20 28  2  0  0  0  0
 20 46  1  0  0  0  0
 21 26  2  0  0  0  0
 21 47  1  0  0  0  0
 22 24  1  0  0  0  0
 23 24  2  0  0  0  0
 23 29  1  0  0  0  0
 24 30  1  0  0  0  0
 25 26  1  0  0  0  0
 25 48  1  0  0  0  0
 26 49  1  0  0  0  0
 27 31  2  0  0  0  0
 27 50  1  0  0  0  0
 28 31  1  0  0  0  0
 28 51  1  0  0  0  0
 29 32  2  0  0  0  0
 29 52  1  0  0  0  0
 30 33  2  0  0  0  0
 30 53  1  0  0  0  0
 31 54  1  0  0  0  0
 32 33  1  0  0  0  0
 33 55  1  0  0  0  0
M  END
> <PUBCHEM_COMPOUND_CID>
42628219

> <PUBCHEM_CONFORMER_RMSD>
0.8

> <PUBCHEM_CONFORMER_DIVERSEORDER>
1
16
27
39
41
12
14
38
30
33
21
35
46
10
34
31
15
28
9
4
47
36
32
13
2
24
6
22
23
7
8
44
3
18
40
20
43
42
45
37
26
19
25
17
29
5
11

> <PUBCHEM_MMFF94_PARTIAL_CHARGES>
41
1 -0.18
11 0.3
12 0.3
13 0.14
14 0.54
15 -0.14
16 0.09
17 0.09
18 -0.01
19 -0.15
2 1.32
20 -0.15
21 -0.15
22 0.4
23 -0.01
24 0.09
25 -0.15
26 -0.15
27 -0.15
28 -0.15
29 -0.15
3 -0.57
30 -0.15
31 -0.15
32 0.18
33 -0.15
4 -0.65
45 0.15
46 0.15
47 0.15
48 0.15
49 0.15
5 -0.65
50 0.15
51 0.15
52 0.15
53 0.15
54 0.15
55 0.15
6 -0.57
7 -0.66

> <PUBCHEM_EFFECTIVE_ROTOR_COUNT>
5.2

> <PUBCHEM_PHARMACOPHORE_FEATURES>
9
1 3 acceptor
1 4 acceptor
1 5 acceptor
1 6 acceptor
6 15 19 20 27 28 31 rings
6 16 17 18 21 25 26 rings
6 2 17 18 22 23 24 rings
6 23 24 29 30 32 33 rings
6 7 8 9 10 11 12 rings

> <PUBCHEM_HEAVY_ATOM_COUNT>
33

> <PUBCHEM_ATOM_DEF_STEREO_COUNT>
0

> <PUBCHEM_ATOM_UDEF_STEREO_COUNT>
0

> <PUBCHEM_BOND_DEF_STEREO_COUNT>
0

> <PUBCHEM_BOND_UDEF_STEREO_COUNT>
0

> <PUBCHEM_ISOTOPIC_ATOM_COUNT>
0

> <PUBCHEM_COMPONENT_COUNT>
1

> <PUBCHEM_CACTVS_TAUTO_COUNT>
1

> <PUBCHEM_CONFORMER_ID>
028A747B00000001

> <PUBCHEM_MMFF94_ENERGY>
81.7447

> <PUBCHEM_FEATURE_SELFOVERLAP>
45.719

> <PUBCHEM_SHAPE_FINGERPRINT>
100830 2 18343027696498610497
10483366 6 18055379988784729614
10674148 151 18412266152055835492
10721379 63 12823014158408135639
11049842 53 17560800974981614359
11135609 201 18122915484190991225
11640471 11 18270668865848657110
11720765 8 16126984988690019462
1200032 147 18339098058740597024
12128747 34 16589972829766665301
12422481 6 18119240671897642173
12633257 1 17603864507455714323
12788726 201 17762330718639230806
13383661 66 13588115560836442920
13398642 44 18411703188426487489
13965767 371 18270668779954261190
14251764 75 18338805627360583417
14294032 229 17844254140999368247
14400156 188 17825396172100601939
14790565 3 17969485187035086564
14849402 71 18337116652766659978
15001296 14 18410860979378071109
15081414 286 18263354790278786430
15163728 17 18131074865401661703
15219462 58 15649265942111070309
15297060 5 17775280565054501530
15448158 71 18412820266365444589
15475509 8 18411703158936775182
15950262 2 16556186156031600936
15968369 26 10518830329251833021
16112460 7 18336823216643900108
16708801 149 18128263294633333441
19319366 153 18410013256081575337
19377110 9 18341890793354546967
20764821 26 18199730596381254137
21716022 299 15408666315259668926
21796203 349 17750773520903579792
21987483 16 18041289842244472227
22149856 69 17560529392406232115
23559900 14 16915948353462840295
245318 6 18342462530341576929
3178227 256 18113335293945272600
38570 142 18336845168105277188
4112364 45 18334857246713690817
4408954 64 16816304944544495931
484985 159 9838531192225800476
513532 50 17417535713551144486
5223283 242 13614253542588926371
57307002 182 18334290960087099313
57724786 102 18410008849244364172
5951187 136 16917342645316957689
6034566 193 18270690886699442801
6058803 2 18196349597799074598
6609424 69 17976823082214019477
6700243 42 16198168715818302007
86090 222 16299242185622075131
960060 61 9727050059387629531
9849439 229 18271527601878565249

> <PUBCHEM_SHAPE_MULTIPOLES>
656.39
14.4
5.31
2.3
25.78
1.71
-0.28
15.77
-6.91
-7.31
0.54
0.2
-0.58
-4.7

> <PUBCHEM_SHAPE_SELFOVERLAP>
1431.47

> <PUBCHEM_SHAPE_VOLUME>
355.7

> <PUBCHEM_COORDINATE_TYPE>
2
5
10

$$$$
