2894554
  -OEChem-01171810013D

 49 52  0     1  0  0  0  0  0999 V2000
    1.0968   -0.4973    2.1101 O   0  0  0  0  0  0  0  0  0  0  0  0
    1.1007   -0.9466   -2.5013 O   0  0  0  0  0  0  0  0  0  0  0  0
   -1.0198    1.1018   -2.2535 O   0  0  0  0  0  0  0  0  0  0  0  0
   -4.6276    0.4767    2.9639 O   0  0  0  0  0  0  0  0  0  0  0  0
   -2.5766   -0.3154    2.3875 O   0  0  0  0  0  0  0  0  0  0  0  0
    0.9537   -0.3193   -0.2341 N   0  0  0  0  0  0  0  0  0  0  0  0
   -1.8938    0.6911   -0.1148 N   0  0  0  0  0  0  0  0  0  0  0  0
    0.4809    1.0443   -0.3660 C   0  0  1  0  0  0  0  0  0  0  0  0
    1.4696    1.8779   -1.1899 C   0  0  0  0  0  0  0  0  0  0  0  0
    1.2029   -0.9295    0.9773 C   0  0  0  0  0  0  0  0  0  0  0  0
    1.2041   -1.1499   -1.3060 C   0  0  0  0  0  0  0  0  0  0  0  0
    1.6467   -2.2847    0.6532 C   0  0  0  0  0  0  0  0  0  0  0  0
    1.6474   -2.4180   -0.7276 C   0  0  0  0  0  0  0  0  0  0  0  0
   -0.8915    0.9712   -1.0390 C   0  0  0  0  0  0  0  0  0  0  0  0
    2.6876    2.3083   -0.4101 C   0  0  0  0  0  0  0  0  0  0  0  0
    2.0212   -3.3183    1.4867 C   0  0  0  0  0  0  0  0  0  0  0  0
    2.0228   -3.5921   -1.3475 C   0  0  0  0  0  0  0  0  0  0  0  0
    2.6645    3.5118    0.2775 C   0  0  0  0  0  0  0  0  0  0  0  0
    3.8083    1.4925   -0.3942 C   0  0  0  0  0  0  0  0  0  0  0  0
    2.4049   -4.5181    0.8808 C   0  0  0  0  0  0  0  0  0  0  0  0
    2.4059   -4.6536   -0.5226 C   0  0  0  0  0  0  0  0  0  0  0  0
   -3.2796    0.5477   -0.3595 C   0  0  0  0  0  0  0  0  0  0  0  0
    3.7902    3.9097    0.9986 C   0  0  0  0  0  0  0  0  0  0  0  0
    4.9340    1.8904    0.3270 C   0  0  0  0  0  0  0  0  0  0  0  0
   -4.1505    0.2644    0.6815 C   0  0  0  0  0  0  0  0  0  0  0  0
    4.9249    3.0990    1.0234 C   0  0  0  0  0  0  0  0  0  0  0  0
   -3.7386    0.6955   -1.6598 C   0  0  0  0  0  0  0  0  0  0  0  0
   -5.5129    0.1260    0.4162 C   0  0  0  0  0  0  0  0  0  0  0  0
   -5.1010    0.5572   -1.9250 C   0  0  0  0  0  0  0  0  0  0  0  0
   -5.9880    0.2724   -0.8871 C   0  0  0  0  0  0  0  0  0  0  0  0
   -3.6874    0.1047    2.0544 C   0  0  0  0  0  0  0  0  0  0  0  0
    0.3612    1.4883    0.6305 H   0  0  0  0  0  0  0  0  0  0  0  0
    0.9617    2.7872   -1.5427 H   0  0  0  0  0  0  0  0  0  0  0  0
    1.7893    1.3782   -2.1115 H   0  0  0  0  0  0  0  0  0  0  0  0
    2.0211   -3.2143    2.5654 H   0  0  0  0  0  0  0  0  0  0  0  0
    2.0240   -3.6965   -2.4261 H   0  0  0  0  0  0  0  0  0  0  0  0
   -1.6034    0.5783    0.8528 H   0  0  0  0  0  0  0  0  0  0  0  0
    1.7849    4.1491    0.2670 H   0  0  0  0  0  0  0  0  0  0  0  0
    3.8282    0.5510   -0.9351 H   0  0  0  0  0  0  0  0  0  0  0  0
    2.7077   -5.3598    1.4982 H   0  0  0  0  0  0  0  0  0  0  0  0
    2.7095   -5.5979   -0.9671 H   0  0  0  0  0  0  0  0  0  0  0  0
    3.7830    4.8503    1.5416 H   0  0  0  0  0  0  0  0  0  0  0  0
    5.8178    1.2594    0.3460 H   0  0  0  0  0  0  0  0  0  0  0  0
    5.8014    3.4086    1.5851 H   0  0  0  0  0  0  0  0  0  0  0  0
   -3.1258    0.9195   -2.5194 H   0  0  0  0  0  0  0  0  0  0  0  0
   -6.2288   -0.1092    1.1995 H   0  0  0  0  0  0  0  0  0  0  0  0
   -5.4727    0.6711   -2.9394 H   0  0  0  0  0  0  0  0  0  0  0  0
   -7.0484    0.1617   -1.0946 H   0  0  0  0  0  0  0  0  0  0  0  0
   -4.3084    0.3667    3.8850 H   0  0  0  0  0  0  0  0  0  0  0  0
  1 10  2  0  0  0  0
  2 11  2  0  0  0  0
  3 14  2  0  0  0  0
  4 31  1  0  0  0  0
  4 49  1  0  0  0  0
  5 31  2  0  0  0  0
  6  8  1  0  0  0  0
  6 10  1  0  0  0  0
  6 11  1  0  0  0  0
  7 14  1  0  0  0  0
  7 22  1  0  0  0  0
  7 37  1  0  0  0  0
  8  9  1  0  0  0  0
  8 14  1  0  0  0  0
  8 32  1  0  0  0  0
  9 15  1  0  0  0  0
  9 33  1  0  0  0  0
  9 34  1  0  0  0  0
 10 12  1  0  0  0  0
 11 13  1  0  0  0  0
 12 13  1  0  0  0  0
 12 16  2  0  0  0  0
 13 17  2  0  0  0  0
 15 18  2  0  0  0  0
 15 19  1  0  0  0  0
 16 20  1  0  0  0  0
 16 35  1  0  0  0  0
 17 21  1  0  0  0  0
 17 36  1  0  0  0  0
 18 23  1  0  0  0  0
 18 38  1  0  0  0  0
 19 24  2  0  0  0  0
 19 39  1  0  0  0  0
 20 21  2  0  0  0  0
 20 40  1  0  0  0  0
 21 41  1  0  0  0  0
 22 25  1  0  0  0  0
 22 27  2  0  0  0  0
 23 26  2  0  0  0  0
 23 42  1  0  0  0  0
 24 26  1  0  0  0  0
 24 43  1  0  0  0  0
 25 28  2  0  0  0  0
 25 31  1  0  0  0  0
 26 44  1  0  0  0  0
 27 29  1  0  0  0  0
 27 45  1  0  0  0  0
 28 30  1  0  0  0  0
 28 46  1  0  0  0  0
 29 30  2  0  0  0  0
 29 47  1  0  0  0  0
 30 48  1  0  0  0  0
M  END
> <PUBCHEM_COMPOUND_CID>
2894554

> <PUBCHEM_CONFORMER_RMSD>
1

> <PUBCHEM_CONFORMER_DIVERSEORDER>
1
2
25
18
11
32
33
27
22
12
19
13
26
10
23
16
8
6
15
35
5
20
31
28
29
4
34
14
21
24
9
3
30
17
7

> <PUBCHEM_MMFF94_PARTIAL_CHARGES>
46
1 -0.57
10 0.54
11 0.54
12 0.09
13 0.09
14 0.57
15 -0.14
16 -0.15
17 -0.15
18 -0.15
19 -0.15
2 -0.57
20 -0.15
21 -0.15
22 0.12
23 -0.15
24 -0.15
25 0.09
26 -0.15
27 -0.15
28 -0.15
29 -0.15
3 -0.57
30 -0.15
31 0.63
35 0.15
36 0.15
37 0.37
38 0.15
39 0.15
4 -0.65
40 0.15
41 0.15
42 0.15
43 0.15
44 0.15
45 0.15
46 0.15
47 0.15
48 0.15
49 0.5
5 -0.57
6 -0.42
7 -0.55
8 0.36
9 0.14

> <PUBCHEM_EFFECTIVE_ROTOR_COUNT>
7.2

> <PUBCHEM_PHARMACOPHORE_FEATURES>
11
1 1 acceptor
1 2 acceptor
1 3 acceptor
1 4 acceptor
1 5 acceptor
1 7 donor
3 4 5 31 anion
5 6 10 11 12 13 rings
6 12 13 16 17 20 21 rings
6 15 18 19 23 24 26 rings
6 22 25 27 28 29 30 rings

> <PUBCHEM_HEAVY_ATOM_COUNT>
31

> <PUBCHEM_ATOM_DEF_STEREO_COUNT>
0

> <PUBCHEM_ATOM_UDEF_STEREO_COUNT>
1

> <PUBCHEM_BOND_DEF_STEREO_COUNT>
0

> <PUBCHEM_BOND_UDEF_STEREO_COUNT>
0

> <PUBCHEM_ISOTOPIC_ATOM_COUNT>
0

> <PUBCHEM_COMPONENT_COUNT>
1

> <PUBCHEM_CACTVS_TAUTO_COUNT>
3

> <PUBCHEM_CONFORMER_ID>
002C2ADA00000001

> <PUBCHEM_MMFF94_ENERGY>
99.0457

> <PUBCHEM_FEATURE_SELFOVERLAP>
55.975

> <PUBCHEM_SHAPE_FINGERPRINT>
10074138 170 17690541405875927672
10764073 3 17024001840664189128
11007060 377 17907288107242627236
11421498 54 17704079494647993513
11488393 25 18335138636080952538
11578080 2 16735779040776999660
11763715 3 17619933664254494382
11991303 11 17974298917407798268
12160290 23 17547592816537228574
12363563 72 18047472214863110255
12422481 6 17822844394479155072
12549972 3 17896609384241757865
12788726 201 16894551663480150138
13692114 37 18119527888903047995
13726171 33 15984284988043482017
13955234 65 18411697660381499851
14955137 171 18266161865429770234
15219462 58 18263946379216718061
15775530 1 17754999927078081668
17809404 112 17894916230923905609
17913733 40 18409727408516907929
1813 80 17769945584064926142
20101258 96 17693658113424351942
20197701 30 18268142248510329136
20600515 1 16743917544394606728
21049683 118 17769624797473822240
21120745 212 17547865053630258950
21796203 349 17979663167650800211
22182313 1 17603878784359100809
22440779 20 16688544991431095478
22956985 138 17896027759712479066
23559900 14 18120920725580286645
244849 19 18041569044613347777
255183 313 17972855215712441028
3383291 50 18411133624962032250
38695281 34 18338786931441121468
4093350 32 18336255774665928717
563151 74 18410862066642828033
6376802 137 17538278432874948674
6669772 16 18411981395349661934
79837 15 18050572038673275402

> <PUBCHEM_SHAPE_MULTIPOLES>
598.66
10.8
5.3
2.23
14.17
5.1
0.62
-7.48
1.68
-11.46
0.56
2.21
0.26
1.05

> <PUBCHEM_SHAPE_SELFOVERLAP>
1330.099

> <PUBCHEM_SHAPE_VOLUME>
316.9

> <PUBCHEM_COORDINATE_TYPE>
2
5
10

$$$$
