2815177
  -OEChem-01171809543D

 36 38  0     0  0  0  0  0  0999 V2000
    1.7424   -1.2355   -0.5709 S   0  0  0  0  0  0  0  0  0  0  0  0
    1.8204   -1.7759   -1.9107 O   0  0  0  0  0  0  0  0  0  0  0  0
    1.0918   -1.9159    0.5275 O   0  0  0  0  0  0  0  0  0  0  0  0
    2.1766    2.5683   -0.2162 O   0  0  0  0  0  0  0  0  0  0  0  0
   -0.5381    1.1180    1.3369 O   0  0  0  0  0  0  0  0  0  0  0  0
   -6.4290   -0.4301   -0.2541 O   0  0  0  0  0  0  0  0  0  0  0  0
    1.2574    0.4159   -0.6214 N   0  0  0  0  0  0  0  0  0  0  0  0
    3.3499   -0.7931   -0.0653 C   0  0  0  0  0  0  0  0  0  0  0  0
    3.4996    0.5878    0.0601 C   0  0  0  0  0  0  0  0  0  0  0  0
    2.2800    1.3559   -0.2592 C   0  0  0  0  0  0  0  0  0  0  0  0
   -0.1189    0.7570   -1.0078 C   0  0  0  0  0  0  0  0  0  0  0  0
    4.3744   -1.6813    0.1889 C   0  0  0  0  0  0  0  0  0  0  0  0
    4.7122    1.1268    0.4535 C   0  0  0  0  0  0  0  0  0  0  0  0
   -0.9817    0.7952    0.2372 C   0  0  0  0  0  0  0  0  0  0  0  0
    5.5996   -1.1440    0.5860 C   0  0  0  0  0  0  0  0  0  0  0  0
    5.7674    0.2471    0.7172 C   0  0  0  0  0  0  0  0  0  0  0  0
   -2.4286    0.4702    0.1069 C   0  0  0  0  0  0  0  0  0  0  0  0
   -3.0677    0.7545   -1.0803 C   0  0  0  0  0  0  0  0  0  0  0  0
   -3.0783   -0.1044    1.1778 C   0  0  0  0  0  0  0  0  0  0  0  0
   -4.4233    0.4493   -1.2027 C   0  0  0  0  0  0  0  0  0  0  0  0
   -4.4338   -0.4096    1.0554 C   0  0  0  0  0  0  0  0  0  0  0  0
   -5.1064   -0.1327   -0.1348 C   0  0  0  0  0  0  0  0  0  0  0  0
   -7.0658   -1.0238    0.8763 C   0  0  0  0  0  0  0  0  0  0  0  0
   -0.1417    1.7358   -1.4967 H   0  0  0  0  0  0  0  0  0  0  0  0
   -0.4858    0.0070   -1.7154 H   0  0  0  0  0  0  0  0  0  0  0  0
    4.2431   -2.7523    0.0873 H   0  0  0  0  0  0  0  0  0  0  0  0
    4.8527    2.1972    0.5579 H   0  0  0  0  0  0  0  0  0  0  0  0
    6.4355   -1.8057    0.7970 H   0  0  0  0  0  0  0  0  0  0  0  0
    6.7313    0.6419    1.0280 H   0  0  0  0  0  0  0  0  0  0  0  0
   -2.5637    1.2222   -1.9199 H   0  0  0  0  0  0  0  0  0  0  0  0
   -2.5645   -0.3299    2.1075 H   0  0  0  0  0  0  0  0  0  0  0  0
   -4.9430    0.6706   -2.1310 H   0  0  0  0  0  0  0  0  0  0  0  0
   -4.9025   -0.8617    1.9228 H   0  0  0  0  0  0  0  0  0  0  0  0
   -7.0632   -0.3498    1.7396 H   0  0  0  0  0  0  0  0  0  0  0  0
   -8.1134   -1.1922    0.6056 H   0  0  0  0  0  0  0  0  0  0  0  0
   -6.6354   -2.0028    1.1125 H   0  0  0  0  0  0  0  0  0  0  0  0
  1  2  2  0  0  0  0
  1  3  2  0  0  0  0
  1  7  1  0  0  0  0
  1  8  1  0  0  0  0
  4 10  2  0  0  0  0
  5 14  2  0  0  0  0
  6 22  1  0  0  0  0
  6 23  1  0  0  0  0
  7 10  1  0  0  0  0
  7 11  1  0  0  0  0
  8  9  1  0  0  0  0
  8 12  2  0  0  0  0
  9 10  1  0  0  0  0
  9 13  2  0  0  0  0
 11 14  1  0  0  0  0
 11 24  1  0  0  0  0
 11 25  1  0  0  0  0
 12 15  1  0  0  0  0
 12 26  1  0  0  0  0
 13 16  1  0  0  0  0
 13 27  1  0  0  0  0
 14 17  1  0  0  0  0
 15 16  2  0  0  0  0
 15 28  1  0  0  0  0
 16 29  1  0  0  0  0
 17 18  2  0  0  0  0
 17 19  1  0  0  0  0
 18 20  1  0  0  0  0
 18 30  1  0  0  0  0
 19 21  2  0  0  0  0
 19 31  1  0  0  0  0
 20 22  2  0  0  0  0
 20 32  1  0  0  0  0
 21 22  1  0  0  0  0
 21 33  1  0  0  0  0
 23 34  1  0  0  0  0
 23 35  1  0  0  0  0
 23 36  1  0  0  0  0
M  END
> <PUBCHEM_COMPOUND_CID>
2815177

> <PUBCHEM_CONFORMER_RMSD>
0.8

> <PUBCHEM_CONFORMER_DIVERSEORDER>
1
20
34
2
42
35
14
43
21
17
18
5
31
25
16
9
29
41
19
10
39
30
32
38
28
24
40
27
11
3
12
15
4
36
37
7
23
33
26
22
13
8
6

> <PUBCHEM_MMFF94_PARTIAL_CHARGES>
31
1 1.45
10 0.72
11 0.42
12 -0.15
13 -0.15
14 0.42
15 -0.15
16 -0.15
17 0.09
18 -0.15
19 -0.15
2 -0.65
20 -0.15
21 -0.15
22 0.08
23 0.28
26 0.15
27 0.15
28 0.15
29 0.15
3 -0.65
30 0.15
31 0.15
32 0.15
33 0.15
4 -0.57
5 -0.57
6 -0.36
7 -0.73
8 -0.01
9 0.09

> <PUBCHEM_EFFECTIVE_ROTOR_COUNT>
4.2

> <PUBCHEM_PHARMACOPHORE_FEATURES>
8
1 2 acceptor
1 3 acceptor
1 4 acceptor
1 5 acceptor
1 6 acceptor
5 1 7 8 9 10 rings
6 17 18 19 20 21 22 rings
6 8 9 12 13 15 16 rings

> <PUBCHEM_HEAVY_ATOM_COUNT>
23

> <PUBCHEM_ATOM_DEF_STEREO_COUNT>
0

> <PUBCHEM_ATOM_UDEF_STEREO_COUNT>
0

> <PUBCHEM_BOND_DEF_STEREO_COUNT>
0

> <PUBCHEM_BOND_UDEF_STEREO_COUNT>
0

> <PUBCHEM_ISOTOPIC_ATOM_COUNT>
0

> <PUBCHEM_COMPONENT_COUNT>
1

> <PUBCHEM_CACTVS_TAUTO_COUNT>
2

> <PUBCHEM_CONFORMER_ID>
002AF4C900000001

> <PUBCHEM_MMFF94_ENERGY>
64.4795

> <PUBCHEM_FEATURE_SELFOVERLAP>
40.682

> <PUBCHEM_SHAPE_FINGERPRINT>
10 15 18187354477157590096
106641 1 16415194616134558011
11421498 54 17203332156768411058
11595378 159 15913051963059016323
11796584 16 16587746442905082040
12011746 2 18259989254258763306
12166972 35 18186804677360112484
12236239 1 17704352173425984965
12516196 113 18409728465089451049
12616971 3 17917706933408685101
12916748 109 13686301274954648498
13402501 40 18040715866017620827
13533116 47 18202001006551483090
13685833 64 18259987080683343971
14251751 18 18041286564509074555
14341114 176 18413108355406472926
14341114 328 17132114649526887004
14386348 63 17967251987959647997
14787075 74 17774997994860773058
14848160 23 18113897147848440539
14849402 71 17489015093770865744
14863182 85 17489314070648921964
15048467 5 12391512001028967888
15183329 4 13117999980955217250
15475509 35 17168685472389434504
15788980 27 18040154019870657999
17349148 13 18272091586755275864
17492 89 17914903032349348334
19377110 9 17489878128640783651
19489759 90 16877941616471298167
200 152 18342734096527964389
20028762 73 18272367568548943382
20645477 70 18410294704966377989
21033650 10 15865765176404965878
21150785 3 15213024859947543150
21267235 1 18341897355869169158
21315763 129 18260265248630747469
21623969 137 18342744022382164255
22224240 67 18130782387061590634
23402539 116 15574710274887523519
23557571 272 17095517371095736261
23559900 14 17240486956731208373
26918003 58 18409730664302318473
29717793 49 13551186667646900738
3004659 81 15864074277555261470
3411729 13 15575573508302553652
4340502 62 18341612641669569639
439807 62 18197211658977812191
465052 167 18407759227390599966
5104073 3 18269269076008938544
5283173 99 17968649398619951461
58260988 393 16343427215529963506
59682541 35 18340761633271738562
59755656 215 16805598166616658451

> <PUBCHEM_SHAPE_MULTIPOLES>
442.85
15.32
1.73
1.2
12.87
0.05
0.2
-4.21
-3.28
-1.73
0.11
0.55
-0.14
0.84

> <PUBCHEM_SHAPE_SELFOVERLAP>
953.682

> <PUBCHEM_SHAPE_VOLUME>
245.1

> <PUBCHEM_COORDINATE_TYPE>
2
5
10

$$$$
