51361446
  -OEChem-01171810203D

 66 69  0     1  0  0  0  0  0999 V2000
   -1.5699   -1.7634   -1.3926 O   0  0  0  0  0  0  0  0  0  0  0  0
    1.6920    2.8045   -0.3536 O   0  0  0  0  0  0  0  0  0  0  0  0
   -3.6814    0.0091   -1.2079 O   0  0  0  0  0  0  0  0  0  0  0  0
    2.2652   -2.4234    1.8287 O   0  0  0  0  0  0  0  0  0  0  0  0
    4.0480   -0.9982    1.4722 O   0  0  0  0  0  0  0  0  0  0  0  0
   -2.0537   -3.9968   -1.0547 O   0  0  0  0  0  0  0  0  0  0  0  0
    2.0247    3.4542   -2.5454 O   0  0  0  0  0  0  0  0  0  0  0  0
    0.7632    0.5582    0.1738 C   0  0  1  0  0  0  0  0  0  0  0  0
   -0.7795    0.9433   -0.0570 C   0  0  1  0  0  0  0  0  0  0  0  0
   -1.8221   -0.1348    0.4127 C   0  0  1  0  0  0  0  0  0  0  0  0
    0.9775   -0.9415   -0.2852 C   0  0  2  0  0  0  0  0  0  0  0  0
   -1.4558   -1.5686    0.0202 C   0  0  2  0  0  0  0  0  0  0  0  0
   -0.0151   -1.9058    0.4016 C   0  0  0  0  0  0  0  0  0  0  0  0
   -2.1317   -0.0273    1.9240 C   0  0  0  0  0  0  0  0  0  0  0  0
    2.4589   -1.4399   -0.2927 C   0  0  2  0  0  0  0  0  0  0  0  0
    1.6898    1.4361   -0.7497 C   0  0  2  0  0  0  0  0  0  0  0  0
   -1.2118    2.3664    0.4257 C   0  0  0  0  0  0  0  0  0  0  0  0
   -2.9040    1.2851    2.0339 C   0  0  1  0  0  0  0  0  0  0  0  0
   -1.9347    2.4431    1.7830 C   0  0  0  0  0  0  0  0  0  0  0  0
   -3.2075    0.2755   -0.1157 C   0  0  0  0  0  0  0  0  0  0  0  0
    1.1744    0.7927    1.6465 C   0  0  0  0  0  0  0  0  0  0  0  0
    3.3223   -0.4819   -1.1373 C   0  0  0  0  0  0  0  0  0  0  0  0
    3.1540    0.9826   -0.7696 C   0  0  0  0  0  0  0  0  0  0  0  0
   -3.8853    1.1255    0.9095 C   0  0  0  0  0  0  0  0  0  0  0  0
    2.5914   -2.8455   -0.9181 C   0  0  0  0  0  0  0  0  0  0  0  0
    3.0376   -1.5746    1.0926 C   0  0  0  0  0  0  0  0  0  0  0  0
   -5.1359    1.5748    0.8071 C   0  0  0  0  0  0  0  0  0  0  0  0
   -1.8741   -3.0329   -1.7866 C   0  0  0  0  0  0  0  0  0  0  0  0
    1.8702    3.7119   -1.3593 C   0  0  0  0  0  0  0  0  0  0  0  0
   -1.9603   -3.0868   -3.2818 C   0  0  0  0  0  0  0  0  0  0  0  0
    1.8507    5.1014   -0.7980 C   0  0  0  0  0  0  0  0  0  0  0  0
    2.7029   -2.6431    3.1735 C   0  0  0  0  0  0  0  0  0  0  0  0
   -0.8806    0.9838   -1.1538 H   0  0  0  0  0  0  0  0  0  0  0  0
    0.7025   -0.9502   -1.3523 H   0  0  0  0  0  0  0  0  0  0  0  0
   -2.1404   -2.2537    0.5377 H   0  0  0  0  0  0  0  0  0  0  0  0
    0.0599   -1.8654    1.4906 H   0  0  0  0  0  0  0  0  0  0  0  0
    0.1820   -2.9383    0.1021 H   0  0  0  0  0  0  0  0  0  0  0  0
   -2.7677   -0.8604    2.2574 H   0  0  0  0  0  0  0  0  0  0  0  0
   -1.2512   -0.0358    2.5651 H   0  0  0  0  0  0  0  0  0  0  0  0
    1.2933    1.3441   -1.7709 H   0  0  0  0  0  0  0  0  0  0  0  0
   -0.3902    3.0795    0.4441 H   0  0  0  0  0  0  0  0  0  0  0  0
   -1.9002    2.7680   -0.3319 H   0  0  0  0  0  0  0  0  0  0  0  0
   -3.3924    1.3807    3.0087 H   0  0  0  0  0  0  0  0  0  0  0  0
   -2.4721    3.3980    1.8418 H   0  0  0  0  0  0  0  0  0  0  0  0
   -1.1931    2.4629    2.5899 H   0  0  0  0  0  0  0  0  0  0  0  0
    0.8552    1.7737    2.0061 H   0  0  0  0  0  0  0  0  0  0  0  0
    0.7711    0.0412    2.3246 H   0  0  0  0  0  0  0  0  0  0  0  0
    2.2552    0.7843    1.7916 H   0  0  0  0  0  0  0  0  0  0  0  0
    4.3859   -0.7455   -1.0689 H   0  0  0  0  0  0  0  0  0  0  0  0
    3.0531   -0.5955   -2.1967 H   0  0  0  0  0  0  0  0  0  0  0  0
    3.7136    1.5867   -1.4957 H   0  0  0  0  0  0  0  0  0  0  0  0
    3.6387    1.2039    0.1875 H   0  0  0  0  0  0  0  0  0  0  0  0
    2.1313   -2.8760   -1.9125 H   0  0  0  0  0  0  0  0  0  0  0  0
    2.1374   -3.6409   -0.3192 H   0  0  0  0  0  0  0  0  0  0  0  0
    3.6471   -3.1209   -1.0366 H   0  0  0  0  0  0  0  0  0  0  0  0
   -5.5759    2.1697    1.6003 H   0  0  0  0  0  0  0  0  0  0  0  0
   -5.7476    1.3638   -0.0632 H   0  0  0  0  0  0  0  0  0  0  0  0
   -2.7475   -2.4145   -3.6319 H   0  0  0  0  0  0  0  0  0  0  0  0
   -2.2070   -4.1054   -3.5945 H   0  0  0  0  0  0  0  0  0  0  0  0
   -0.9964   -2.8121   -3.7178 H   0  0  0  0  0  0  0  0  0  0  0  0
    0.8751    5.3067   -0.3506 H   0  0  0  0  0  0  0  0  0  0  0  0
    2.0243    5.8205   -1.6036 H   0  0  0  0  0  0  0  0  0  0  0  0
    2.6458    5.2126   -0.0564 H   0  0  0  0  0  0  0  0  0  0  0  0
    3.6990   -3.0957    3.1781 H   0  0  0  0  0  0  0  0  0  0  0  0
    2.7027   -1.7009    3.7298 H   0  0  0  0  0  0  0  0  0  0  0  0
    2.0011   -3.3323    3.6504 H   0  0  0  0  0  0  0  0  0  0  0  0
  1 12  1  0  0  0  0
  1 28  1  0  0  0  0
  2 16  1  0  0  0  0
  2 29  1  0  0  0  0
  3 20  2  0  0  0  0
  4 26  1  0  0  0  0
  4 32  1  0  0  0  0
  5 26  2  0  0  0  0
  6 28  2  0  0  0  0
  7 29  2  0  0  0  0
  8  9  1  0  0  0  0
  8 11  1  0  0  0  0
  8 16  1  0  0  0  0
  8 21  1  0  0  0  0
  9 10  1  0  0  0  0
  9 17  1  0  0  0  0
  9 33  1  0  0  0  0
 10 12  1  0  0  0  0
 10 14  1  0  0  0  0
 10 20  1  0  0  0  0
 11 13  1  0  0  0  0
 11 15  1  0  0  0  0
 11 34  1  0  0  0  0
 12 13  1  0  0  0  0
 12 35  1  0  0  0  0
 13 36  1  0  0  0  0
 13 37  1  0  0  0  0
 14 18  1  0  0  0  0
 14 38  1  0  0  0  0
 14 39  1  0  0  0  0
 15 22  1  0  0  0  0
 15 25  1  0  0  0  0
 15 26  1  0  0  0  0
 16 23  1  0  0  0  0
 16 40  1  0  0  0  0
 17 19  1  0  0  0  0
 17 41  1  0  0  0  0
 17 42  1  0  0  0  0
 18 19  1  0  0  0  0
 18 24  1  0  0  0  0
 18 43  1  0  0  0  0
 19 44  1  0  0  0  0
 19 45  1  0  0  0  0
 20 24  1  0  0  0  0
 21 46  1  0  0  0  0
 21 47  1  0  0  0  0
 21 48  1  0  0  0  0
 22 23  1  0  0  0  0
 22 49  1  0  0  0  0
 22 50  1  0  0  0  0
 23 51  1  0  0  0  0
 23 52  1  0  0  0  0
 24 27  2  0  0  0  0
 25 53  1  0  0  0  0
 25 54  1  0  0  0  0
 25 55  1  0  0  0  0
 27 56  1  0  0  0  0
 27 57  1  0  0  0  0
 28 30  1  0  0  0  0
 29 31  1  0  0  0  0
 30 58  1  0  0  0  0
 30 59  1  0  0  0  0
 30 60  1  0  0  0  0
 31 61  1  0  0  0  0
 31 62  1  0  0  0  0
 31 63  1  0  0  0  0
 32 64  1  0  0  0  0
 32 65  1  0  0  0  0
 32 66  1  0  0  0  0
M  END
> <PUBCHEM_COMPOUND_CID>
51361446

> <PUBCHEM_CONFORMER_RMSD>
1

> <PUBCHEM_CONFORMER_DIVERSEORDER>
1
2

> <PUBCHEM_MMFF94_PARTIAL_CHARGES>
23
1 -0.43
10 0.06
12 0.28
15 0.06
16 0.28
18 0.14
2 -0.43
20 0.49
24 -0.12
26 0.66
27 -0.3
28 0.66
29 0.66
3 -0.57
30 0.06
31 0.06
32 0.28
4 -0.43
5 -0.57
56 0.15
57 0.15
6 -0.57
7 -0.57

> <PUBCHEM_EFFECTIVE_ROTOR_COUNT>
7.8

> <PUBCHEM_PHARMACOPHORE_FEATURES>
7
1 3 acceptor
1 5 acceptor
1 6 acceptor
1 7 acceptor
6 8 11 15 16 22 23 rings
6 8 9 10 11 12 13 rings
8 9 10 14 17 18 19 20 24 rings

> <PUBCHEM_HEAVY_ATOM_COUNT>
32

> <PUBCHEM_ATOM_DEF_STEREO_COUNT>
8

> <PUBCHEM_ATOM_UDEF_STEREO_COUNT>
0

> <PUBCHEM_BOND_DEF_STEREO_COUNT>
0

> <PUBCHEM_BOND_UDEF_STEREO_COUNT>
0

> <PUBCHEM_ISOTOPIC_ATOM_COUNT>
0

> <PUBCHEM_COMPONENT_COUNT>
1

> <PUBCHEM_CACTVS_TAUTO_COUNT>
1

> <PUBCHEM_CONFORMER_ID>
030FB6A600000001

> <PUBCHEM_MMFF94_ENERGY>
116.155

> <PUBCHEM_FEATURE_SELFOVERLAP>
35.552

> <PUBCHEM_SHAPE_FINGERPRINT>
10032420 55 17408242924773496461
10940486 97 18273220802783423854
11578080 2 18050247489348682336
12293681 160 17259336103651312557
12403259 327 17605579668491174027
12422481 6 17474665049361568177
12553582 1 17971771968687341688
12741549 16 16298392305751069948
12788726 201 17985544687908737935
13134695 92 18041001674426610760
13140716 1 18340487884292424498
133893 2 17897427613854530388
13583140 156 17895202112241851307
13965767 371 17405714679357506680
14022347 108 18046646520126963858
14856354 85 17752223712116296154
15420108 30 18342449374925418472
16945 1 18118136778912575083
17980427 23 18267005328070670436
1813 80 18191595142190068808
18681886 176 18271819977202607384
19319366 153 18120940774356002235
20600515 1 17765383843422759535
20739085 24 17909016230024811449
21033648 29 17629468709961028658
21285901 2 17112134041150205085
2132832 1 18124851676843736374
22149856 69 17558851511908013785
22182313 1 16032405839929246408
22907989 373 17700430344900081589
23419403 2 16471131200033477979
23557571 272 17274525633303578079
23558518 356 18048319135010439818
23559900 14 18270977759816931289
283562 15 17474117973475526673
3380486 145 17972564794112715164
3380486 77 18048283727247908431
34934 24 18337119998951969270
352729 6 18130242479771203723
70251023 43 17698168691867670398
9981440 41 17548990300649870656

> <PUBCHEM_SHAPE_MULTIPOLES>
617.46
6.65
5.25
2.55
3.26
3.02
-0.14
0.02
-1.96
-1.98
3.7
-0.57
-1.5
-3.84

> <PUBCHEM_SHAPE_SELFOVERLAP>
1321.976

> <PUBCHEM_SHAPE_VOLUME>
337.2

> <PUBCHEM_COORDINATE_TYPE>
2
5
10

$$$$
