1764318
  -OEChem-01171809403D

 48 49  0     0  0  0  0  0  0999 V2000
   -4.8885    2.6811    1.1111 Br  0  0  0  0  0  0  0  0  0  0  0  0
   -0.9006    1.8549   -1.9130 S   0  0  0  0  0  0  0  0  0  0  0  0
    5.6112   -0.0802    0.1163 O   0  0  0  0  0  0  0  0  0  0  0  0
   -3.0670   -1.2318    0.7977 O   0  0  0  0  0  0  0  0  0  0  0  0
    5.3921   -2.3632    0.3148 O   0  0  0  0  0  0  0  0  0  0  0  0
   -5.9002   -1.0437   -0.2649 N   0  0  0  0  0  0  0  0  0  0  0  0
   -7.0899   -0.4356   -0.1200 N   0  0  0  0  0  0  0  0  0  0  0  0
   -2.8236    0.5599   -0.6621 N   0  0  0  0  0  0  0  0  0  0  0  0
   -0.6634   -0.2804   -0.1546 N   0  0  0  0  0  0  0  0  0  0  0  0
    7.6363    1.1973    0.0910 C   0  0  0  0  0  0  0  0  0  0  0  0
    9.1605    1.1491    0.1480 C   0  0  0  0  0  0  0  0  0  0  0  0
    7.0257   -0.1934    0.1904 C   0  0  0  0  0  0  0  0  0  0  0  0
   -5.0310   -0.1043    0.1174 C   0  0  0  0  0  0  0  0  0  0  0  0
    9.7675    2.5356    0.0050 C   0  0  0  0  0  0  0  0  0  0  0  0
   -5.6608    1.0940    0.5034 C   0  0  0  0  0  0  0  0  0  0  0  0
   -7.0016    0.8464    0.3372 C   0  0  0  0  0  0  0  0  0  0  0  0
    3.4524   -0.9934    0.1008 C   0  0  0  0  0  0  0  0  0  0  0  0
   -3.5804   -0.3406    0.1209 C   0  0  0  0  0  0  0  0  0  0  0  0
    0.7087   -0.5181   -0.0703 C   0  0  0  0  0  0  0  0  0  0  0  0
    4.9125   -1.2469    0.1912 C   0  0  0  0  0  0  0  0  0  0  0  0
   -5.7557   -2.3944   -0.7255 C   0  0  0  0  0  0  0  0  0  0  0  0
    2.5549   -2.0599    0.1563 C   0  0  0  0  0  0  0  0  0  0  0  0
    2.9779    0.3107   -0.0401 C   0  0  0  0  0  0  0  0  0  0  0  0
    1.1832   -1.8223    0.0706 C   0  0  0  0  0  0  0  0  0  0  0  0
    1.6061    0.5483   -0.1256 C   0  0  0  0  0  0  0  0  0  0  0  0
   -8.1960    1.6665    0.5589 C   0  0  0  0  0  0  0  0  0  0  0  0
   -1.4302    0.6646   -0.8548 C   0  0  0  0  0  0  0  0  0  0  0  0
    7.2449    1.8262    0.9004 H   0  0  0  0  0  0  0  0  0  0  0  0
    7.3060    1.6710   -0.8421 H   0  0  0  0  0  0  0  0  0  0  0  0
    9.4838    0.7095    1.0987 H   0  0  0  0  0  0  0  0  0  0  0  0
    9.5435    0.5066   -0.6535 H   0  0  0  0  0  0  0  0  0  0  0  0
    7.3844   -0.8206   -0.6343 H   0  0  0  0  0  0  0  0  0  0  0  0
    7.3057   -0.6586    1.1429 H   0  0  0  0  0  0  0  0  0  0  0  0
    9.4286    3.1968    0.8090 H   0  0  0  0  0  0  0  0  0  0  0  0
   10.8595    2.4778    0.0502 H   0  0  0  0  0  0  0  0  0  0  0  0
    9.4906    2.9885   -0.9523 H   0  0  0  0  0  0  0  0  0  0  0  0
   -4.7895   -2.5078   -1.2220 H   0  0  0  0  0  0  0  0  0  0  0  0
   -6.5576   -2.6158   -1.4344 H   0  0  0  0  0  0  0  0  0  0  0  0
   -5.8200   -3.0596    0.1386 H   0  0  0  0  0  0  0  0  0  0  0  0
    2.9043   -3.0831    0.2655 H   0  0  0  0  0  0  0  0  0  0  0  0
    3.6404    1.1710   -0.0730 H   0  0  0  0  0  0  0  0  0  0  0  0
    0.4950   -2.6627    0.1143 H   0  0  0  0  0  0  0  0  0  0  0  0
    1.2817    1.5817   -0.1686 H   0  0  0  0  0  0  0  0  0  0  0  0
   -8.1653    2.5690   -0.0599 H   0  0  0  0  0  0  0  0  0  0  0  0
   -9.1128    1.1223    0.3092 H   0  0  0  0  0  0  0  0  0  0  0  0
   -8.2653    1.9725    1.6077 H   0  0  0  0  0  0  0  0  0  0  0  0
   -3.3608    1.2524   -1.1795 H   0  0  0  0  0  0  0  0  0  0  0  0
   -1.2159   -1.0606    0.1925 H   0  0  0  0  0  0  0  0  0  0  0  0
  1 15  1  0  0  0  0
  2 27  2  0  0  0  0
  3 12  1  0  0  0  0
  3 20  1  0  0  0  0
  4 18  2  0  0  0  0
  5 20  2  0  0  0  0
  6  7  1  0  0  0  0
  6 13  1  0  0  0  0
  6 21  1  0  0  0  0
  7 16  2  0  0  0  0
  8 18  1  0  0  0  0
  8 27  1  0  0  0  0
  8 47  1  0  0  0  0
  9 19  1  0  0  0  0
  9 27  1  0  0  0  0
  9 48  1  0  0  0  0
 10 11  1  0  0  0  0
 10 12  1  0  0  0  0
 10 28  1  0  0  0  0
 10 29  1  0  0  0  0
 11 14  1  0  0  0  0
 11 30  1  0  0  0  0
 11 31  1  0  0  0  0
 12 32  1  0  0  0  0
 12 33  1  0  0  0  0
 13 15  2  0  0  0  0
 13 18  1  0  0  0  0
 14 34  1  0  0  0  0
 14 35  1  0  0  0  0
 14 36  1  0  0  0  0
 15 16  1  0  0  0  0
 16 26  1  0  0  0  0
 17 20  1  0  0  0  0
 17 22  2  0  0  0  0
 17 23  1  0  0  0  0
 19 24  2  0  0  0  0
 19 25  1  0  0  0  0
 21 37  1  0  0  0  0
 21 38  1  0  0  0  0
 21 39  1  0  0  0  0
 22 24  1  0  0  0  0
 22 40  1  0  0  0  0
 23 25  2  0  0  0  0
 23 41  1  0  0  0  0
 24 42  1  0  0  0  0
 25 43  1  0  0  0  0
 26 44  1  0  0  0  0
 26 45  1  0  0  0  0
 26 46  1  0  0  0  0
M  END
> <PUBCHEM_COMPOUND_CID>
1764318

> <PUBCHEM_CONFORMER_RMSD>
1

> <PUBCHEM_CONFORMER_DIVERSEORDER>
1
72
22
44
58
82
7
89
3
16
51
26
90
79
81
19
50
34
56
78
27
71
60
63
40
53
54
61
43
39
29
48
46
35
75
84
23
28
69
59
88
68
87
36
76
77
70
17
57
45
25
38
55
85
20
15
86
65
80
2
52
83
21
11
42
4
18
41
66
73
8
47
64
31
30
24
6
67
62
32
49
5
12
33
13
10
37
74
9
14

> <PUBCHEM_MMFF94_PARTIAL_CHARGES>
30
1 -0.06
12 0.28
13 -0.24
15 0.06
16 0.11
17 0.09
18 0.71
19 0.12
2 -0.38
20 0.63
21 0.26
22 -0.15
23 -0.15
24 -0.15
25 -0.15
26 0.18
27 0.5
3 -0.43
4 -0.57
40 0.15
41 0.15
42 0.15
43 0.15
47 0.37
48 0.37
5 -0.57
6 0.31
7 -0.71
8 -0.49
9 -0.55

> <PUBCHEM_EFFECTIVE_ROTOR_COUNT>
10

> <PUBCHEM_PHARMACOPHORE_FEATURES>
10
1 1 hydrophobe
1 14 hydrophobe
1 2 acceptor
1 4 acceptor
1 5 acceptor
1 7 acceptor
1 8 donor
1 9 donor
5 6 7 13 15 16 rings
6 17 19 22 23 24 25 rings

> <PUBCHEM_HEAVY_ATOM_COUNT>
27

> <PUBCHEM_ATOM_DEF_STEREO_COUNT>
0

> <PUBCHEM_ATOM_UDEF_STEREO_COUNT>
0

> <PUBCHEM_BOND_DEF_STEREO_COUNT>
0

> <PUBCHEM_BOND_UDEF_STEREO_COUNT>
0

> <PUBCHEM_ISOTOPIC_ATOM_COUNT>
0

> <PUBCHEM_COMPONENT_COUNT>
1

> <PUBCHEM_CACTVS_TAUTO_COUNT>
8

> <PUBCHEM_CONFORMER_ID>
001AEBDE00000001

> <PUBCHEM_MMFF94_ENERGY>
81.8108

> <PUBCHEM_FEATURE_SELFOVERLAP>
50.783

> <PUBCHEM_SHAPE_FINGERPRINT>
10 15 17967530182298652456
10299344 5 18410013208462323459
10369192 42 17989485225765442076
106641 1 18260551138400853929
11315181 36 18413671306103679857
11638347 137 16298097671906959872
12107183 9 17476363804007364179
12236239 1 18273214166520848051
12592606 108 9223234048973931364
12838862 33 17312813884242312683
14251764 18 18408041805583029450
14617042 71 18410578431519658836
14849402 71 18412263965111211144
15198563 99 14548749365340050154
15461852 350 16702012094211943957
15728490 51 18411979208399307998
15849732 13 16487253279102468876
16989713 51 17059199510194037399
17093844 174 17458626692981575373
1754911 235 18201720674241743196
17686467 74 18335699502901336745
19315958 150 18271250400958771071
21130935 74 18336828589394988042
21521721 280 18409166606743440970
21792961 116 13901918799891905486
22224240 67 18186518813390867026
23522609 53 18044966517720242020
23559900 14 18271517668183517553
23576562 1 15553579925308740257
24771293 8 18335139808580611844
249057 3 14764341661665704936
4073 2 18408327678897265971
4325135 7 18409166623764801214
5104073 3 17897436204264025832
5758199 1 18408041810389907770
59682541 35 17967535700994290640
59755656 520 12751227091807694093
9663363 56 16877659068254092669
9689198 14 17775568646038845452

> <PUBCHEM_SHAPE_MULTIPOLES>
527.91
28.56
2.57
0.95
33.66
0.18
-0.3
14.47
4.44
0.37
0.14
-0.8
0.44
-1.45

> <PUBCHEM_SHAPE_SELFOVERLAP>
1071.979

> <PUBCHEM_SHAPE_VOLUME>
313.9

> <PUBCHEM_COORDINATE_TYPE>
2
5
10

$$$$
