900971
  -OEChem-01171809203D

 26 27  0     0  0  0  0  0  0999 V2000
    3.9637    2.5523   -0.1699 Cl  0  0  0  0  0  0  0  0  0  0  0  0
    5.8106   -0.1216   -0.6493 Cl  0  0  0  0  0  0  0  0  0  0  0  0
   -6.4127    0.8888    0.0893 Cl  0  0  0  0  0  0  0  0  0  0  0  0
   -0.2935   -1.3009   -1.3207 O   0  0  0  0  0  0  0  0  0  0  0  0
    1.2661    1.7557    0.6156 O   0  0  0  0  0  0  0  0  0  0  0  0
    1.5251   -0.5448    0.5845 N   0  0  0  0  0  0  0  0  0  0  0  0
    2.3081   -1.6456    0.3806 N   0  0  0  0  0  0  0  0  0  0  0  0
    0.1428   -0.7528    0.9842 C   0  0  0  0  0  0  0  0  0  0  0  0
   -0.7171   -0.8482   -0.2596 C   0  0  0  0  0  0  0  0  0  0  0  0
   -2.1391   -0.4157   -0.1731 C   0  0  0  0  0  0  0  0  0  0  0  0
    1.9732    0.7640    0.4321 C   0  0  0  0  0  0  0  0  0  0  0  0
   -2.7989   -0.5448    1.0296 C   0  0  0  0  0  0  0  0  0  0  0  0
   -2.7449    0.1004   -1.2981 C   0  0  0  0  0  0  0  0  0  0  0  0
    3.3968    0.9340    0.0221 C   0  0  0  0  0  0  0  0  0  0  0  0
   -4.1306   -0.1382    1.1114 C   0  0  0  0  0  0  0  0  0  0  0  0
   -4.0767    0.5072   -1.2162 C   0  0  0  0  0  0  0  0  0  0  0  0
    4.1649   -0.1361   -0.1781 C   0  0  0  0  0  0  0  0  0  0  0  0
    3.5315   -1.4415    0.0271 C   0  0  0  0  0  0  0  0  0  0  0  0
   -4.7696    0.3880   -0.0114 C   0  0  0  0  0  0  0  0  0  0  0  0
    0.0684   -1.6871    1.5504 H   0  0  0  0  0  0  0  0  0  0  0  0
   -0.1798    0.0809    1.6153 H   0  0  0  0  0  0  0  0  0  0  0  0
   -2.3299   -0.9663    1.9129 H   0  0  0  0  0  0  0  0  0  0  0  0
   -2.2155    0.2039   -2.2404 H   0  0  0  0  0  0  0  0  0  0  0  0
    4.1731   -2.3225   -0.1405 H   0  0  0  0  0  0  0  0  0  0  0  0
   -4.6595   -0.2404    2.0557 H   0  0  0  0  0  0  0  0  0  0  0  0
   -4.5614    0.9164   -2.0990 H   0  0  0  0  0  0  0  0  0  0  0  0
  1 14  1  0  0  0  0
  2 17  1  0  0  0  0
  3 19  1  0  0  0  0
  4  9  2  0  0  0  0
  5 11  2  0  0  0  0
  6  7  1  0  0  0  0
  6  8  1  0  0  0  0
  6 11  1  0  0  0  0
  7 18  2  0  0  0  0
  8  9  1  0  0  0  0
  8 20  1  0  0  0  0
  8 21  1  0  0  0  0
  9 10  1  0  0  0  0
 10 12  2  0  0  0  0
 10 13  1  0  0  0  0
 11 14  1  0  0  0  0
 12 15  1  0  0  0  0
 12 22  1  0  0  0  0
 13 16  2  0  0  0  0
 13 23  1  0  0  0  0
 14 17  2  0  0  0  0
 15 19  2  0  0  0  0
 15 25  1  0  0  0  0
 16 19  1  0  0  0  0
 16 26  1  0  0  0  0
 17 18  1  0  0  0  0
 18 24  1  0  0  0  0
M  END
> <PUBCHEM_COMPOUND_CID>
900971

> <PUBCHEM_CONFORMER_RMSD>
0.6

> <PUBCHEM_CONFORMER_DIVERSEORDER>
1
43
56
15
48
55
53
44
38
36
8
10
34
33
4
32
7
29
9
28
31
52
21
23
47
24
11
54
35
49
45
25
51
46
30
27
16
37
50
22
26
3
2
17
18
40
12
41
20
19
42
13
5
39
6
14

> <PUBCHEM_MMFF94_PARTIAL_CHARGES>
24
1 -0.14
10 0.09
11 0.62
12 -0.15
13 -0.15
14 0.15
15 -0.15
16 -0.15
17 0.15
18 0.38
19 0.18
2 -0.14
22 0.15
23 0.15
24 0.06
25 0.15
26 0.15
3 -0.18
4 -0.57
5 -0.57
6 -0.3
7 -0.51
8 0.36
9 0.42

> <PUBCHEM_EFFECTIVE_ROTOR_COUNT>
3

> <PUBCHEM_PHARMACOPHORE_FEATURES>
5
1 4 acceptor
1 5 acceptor
1 7 acceptor
6 10 12 13 15 16 19 rings
6 6 7 11 14 17 18 rings

> <PUBCHEM_HEAVY_ATOM_COUNT>
19

> <PUBCHEM_ATOM_DEF_STEREO_COUNT>
0

> <PUBCHEM_ATOM_UDEF_STEREO_COUNT>
0

> <PUBCHEM_BOND_DEF_STEREO_COUNT>
0

> <PUBCHEM_BOND_UDEF_STEREO_COUNT>
0

> <PUBCHEM_ISOTOPIC_ATOM_COUNT>
0

> <PUBCHEM_COMPONENT_COUNT>
1

> <PUBCHEM_CACTVS_TAUTO_COUNT>
2

> <PUBCHEM_CONFORMER_ID>
000DBF6B00000001

> <PUBCHEM_MMFF94_ENERGY>
49.3777

> <PUBCHEM_FEATURE_SELFOVERLAP>
25.373

> <PUBCHEM_SHAPE_FINGERPRINT>
10354089 29 18412263926234101787
10366900 7 17676480670891196907
106641 1 14996295729529966965
11471102 20 18410573985731784426
11796584 16 14620796007126814020
12236239 1 17561082501164972539
12730499 353 18113904853109687578
12788726 201 17346334694716594240
13533116 47 17168414961905015571
14341114 176 17313106319574441261
14341114 328 13840263688915788309
15048467 5 17676212372684337190
17834072 33 18412542141431173263
17834072 8 18343025488805480428
18186145 218 18409727396053778218
20612939 158 18341336664794446736
20645477 56 17821727234841367331
20645477 70 18338797810520117690
21033648 29 17894897526178268997
21033650 10 15553352296051643698
221357 26 18410853235398938853
23402539 116 16128658526559466336
23402655 69 18413669132153915166
23557571 272 16660642925412435719
23559900 14 16950559913746930515
25 1 18335417985048890562
29717793 49 17275110518018567868
347723 3 17988925557034996538
3545911 37 18040999535717156395
4072396 5 18336253588691066914
474 4 18131635565061335823
5104073 3 18261105330915978906
542803 24 18413106139583123803
54446538 1 18413389821846457777
602551 16 16153997948926863456
633830 44 18335132128735883590
6442390 28 17385726932285683674
8272917 22 18342176609604489519
9971528 1 17703785925597050608
9981440 41 16694389385453209000

> <PUBCHEM_SHAPE_MULTIPOLES>
374.92
13.12
1.67
1.1
5.19
0.71
0.15
3.8
1.09
-2.08
-0.08
0.79
-0.09
0.33

> <PUBCHEM_SHAPE_SELFOVERLAP>
775.833

> <PUBCHEM_SHAPE_VOLUME>
216.1

> <PUBCHEM_COORDINATE_TYPE>
2
5
10

$$$$
