46948520
  -OEChem-01171810183D

 45 48  0     1  0  0  0  0  0999 V2000
    0.3439    3.1330   -0.8967 S   0  0  0  0  0  0  0  0  0  0  0  0
    2.8750    0.7484    2.4654 N   0  0  0  0  0  0  0  0  0  0  0  0
    0.8049    0.8743    0.2730 N   0  0  0  0  0  0  0  0  0  0  0  0
   -1.3709    1.1187   -0.6194 N   0  0  0  0  0  0  0  0  0  0  0  0
   -1.3444   -1.2360   -0.2566 N   0  0  0  0  0  0  0  0  0  0  0  0
   -1.9633   -2.4155    0.0137 N   0  0  0  0  0  0  0  0  0  0  0  0
    3.6521   -0.2400    0.3671 C   0  0  0  0  0  0  0  0  0  0  0  0
    4.8439   -0.8419    1.1235 C   0  0  0  0  0  0  0  0  0  0  0  0
    4.0196    0.0425   -1.0958 C   0  0  0  0  0  0  0  0  0  0  0  0
    5.3851   -2.0867    0.4241 C   0  0  0  0  0  0  0  0  0  0  0  0
    4.5620   -1.2040   -1.7916 C   0  0  0  0  0  0  0  0  0  0  0  0
    5.7411   -1.8042   -1.0322 C   0  0  0  0  0  0  0  0  0  0  0  0
    3.1630    1.0327    1.0559 C   0  0  1  0  0  0  0  0  0  0  0  0
    1.9585    1.6297    0.3533 C   0  0  0  0  0  0  0  0  0  0  0  0
    1.9009    2.8810   -0.2236 C   0  0  0  0  0  0  0  0  0  0  0  0
   -0.1125    1.5664   -0.3652 C   0  0  0  0  0  0  0  0  0  0  0  0
   -2.0792   -0.1052   -0.3305 C   0  0  0  0  0  0  0  0  0  0  0  0
   -3.4568   -0.0765   -0.1433 C   0  0  0  0  0  0  0  0  0  0  0  0
   -4.0956   -1.2939    0.1357 C   0  0  0  0  0  0  0  0  0  0  0  0
   -4.2147    1.1038   -0.2219 C   0  0  0  0  0  0  0  0  0  0  0  0
   -5.4863   -1.3198    0.3332 C   0  0  0  0  0  0  0  0  0  0  0  0
   -3.3005   -2.4328    0.2027 C   0  0  0  0  0  0  0  0  0  0  0  0
   -5.5955    1.0677   -0.0239 C   0  0  0  0  0  0  0  0  0  0  0  0
   -6.2302   -0.1418    0.2530 C   0  0  0  0  0  0  0  0  0  0  0  0
    2.8441   -0.9871    0.3686 H   0  0  0  0  0  0  0  0  0  0  0  0
    4.7735    0.8387   -1.1463 H   0  0  0  0  0  0  0  0  0  0  0  0
    3.1488    0.3905   -1.6624 H   0  0  0  0  0  0  0  0  0  0  0  0
    4.5653   -1.1442    2.1386 H   0  0  0  0  0  0  0  0  0  0  0  0
    5.6477   -0.1000    1.2140 H   0  0  0  0  0  0  0  0  0  0  0  0
    4.8719   -0.9511   -2.8118 H   0  0  0  0  0  0  0  0  0  0  0  0
    3.7634   -1.9513   -1.8762 H   0  0  0  0  0  0  0  0  0  0  0  0
    4.6347   -2.8857    0.4678 H   0  0  0  0  0  0  0  0  0  0  0  0
    6.2715   -2.4520    0.9551 H   0  0  0  0  0  0  0  0  0  0  0  0
    6.5911   -1.1120   -1.0722 H   0  0  0  0  0  0  0  0  0  0  0  0
    6.0609   -2.7316   -1.5204 H   0  0  0  0  0  0  0  0  0  0  0  0
    3.9664    1.7820    1.0369 H   0  0  0  0  0  0  0  0  0  0  0  0
    3.7418    0.5705    2.9706 H   0  0  0  0  0  0  0  0  0  0  0  0
    2.4812    1.5811    2.9042 H   0  0  0  0  0  0  0  0  0  0  0  0
    2.6712    3.6369   -0.2820 H   0  0  0  0  0  0  0  0  0  0  0  0
   -1.9337    1.7360   -1.1998 H   0  0  0  0  0  0  0  0  0  0  0  0
   -3.7675    2.0732   -0.4217 H   0  0  0  0  0  0  0  0  0  0  0  0
   -5.9975   -2.2548    0.5504 H   0  0  0  0  0  0  0  0  0  0  0  0
   -3.7177   -3.4121    0.4136 H   0  0  0  0  0  0  0  0  0  0  0  0
   -6.1764    1.9836   -0.0827 H   0  0  0  0  0  0  0  0  0  0  0  0
   -7.3050   -0.1678    0.4074 H   0  0  0  0  0  0  0  0  0  0  0  0
  1 15  1  0  0  0  0
  1 16  1  0  0  0  0
  2 13  1  0  0  0  0
  2 37  1  0  0  0  0
  2 38  1  0  0  0  0
  3 14  1  0  0  0  0
  3 16  2  0  0  0  0
  4 16  1  0  0  0  0
  4 17  1  0  0  0  0
  4 40  1  0  0  0  0
  5  6  1  0  0  0  0
  5 17  2  0  0  0  0
  6 22  2  0  0  0  0
  7  8  1  0  0  0  0
  7  9  1  0  0  0  0
  7 13  1  0  0  0  0
  7 25  1  0  0  0  0
  8 10  1  0  0  0  0
  8 28  1  0  0  0  0
  8 29  1  0  0  0  0
  9 11  1  0  0  0  0
  9 26  1  0  0  0  0
  9 27  1  0  0  0  0
 10 12  1  0  0  0  0
 10 32  1  0  0  0  0
 10 33  1  0  0  0  0
 11 12  1  0  0  0  0
 11 30  1  0  0  0  0
 11 31  1  0  0  0  0
 12 34  1  0  0  0  0
 12 35  1  0  0  0  0
 13 14  1  0  0  0  0
 13 36  1  0  0  0  0
 14 15  2  0  0  0  0
 15 39  1  0  0  0  0
 17 18  1  0  0  0  0
 18 19  1  0  0  0  0
 18 20  2  0  0  0  0
 19 21  2  0  0  0  0
 19 22  1  0  0  0  0
 20 23  1  0  0  0  0
 20 41  1  0  0  0  0
 21 24  1  0  0  0  0
 21 42  1  0  0  0  0
 22 43  1  0  0  0  0
 23 24  2  0  0  0  0
 23 44  1  0  0  0  0
 24 45  1  0  0  0  0
M  END
> <PUBCHEM_COMPOUND_CID>
46948520

> <PUBCHEM_CONFORMER_RMSD>
0.8

> <PUBCHEM_CONFORMER_DIVERSEORDER>
1
206
115
117
179
105
26
148
199
95
135
86
56
159
91
30
94
195
98
16
183
44
58
201
89
170
186
90
36
8
18
12
64
24
150
42
157
110
34
61
84
197
55
165
39
204
29
20
127
10
45
141
25
68
149
169
54
9
21
40
50
136
181
51
69
193
140
138
92
43
164
120
167
49
163
46
156
126
152
38
107
57
173
112
48
203
142
168
137
70
37
123
6
146
74
7
161
81
158
14
79
147
144
52
128
166
4
194
172
76
99
125
83
35
182
171
202
205
100
162
62
192
27
180
85
151
3
198
143
11
122
53
189
191
96
72
15
108
155
196
31
22
131
160
59
66
102
80
175
78
134
82
71
139
17
153
154
33
118
67
114
174
63
187
73
145
177
65
113
103
93
190
2
176
87
124
111
133
119
41
13
130
32
75
121
185
116
101
104
47
106
5
23
188
60
129
200
19
132
178
109
97
77
88
184
28

> <PUBCHEM_MMFF94_PARTIAL_CHARGES>
25
1 -0.08
13 0.45
14 0.05
15 -0.11
16 0.46
17 0.41
2 -0.99
20 -0.15
21 -0.15
22 0.16
23 -0.15
24 -0.15
3 -0.57
37 0.36
38 0.36
39 0.15
4 -0.58
40 0.4
41 0.15
42 0.15
43 0.15
44 0.15
45 0.15
5 -0.31
6 -0.31

> <PUBCHEM_EFFECTIVE_ROTOR_COUNT>
5.2

> <PUBCHEM_PHARMACOPHORE_FEATURES>
10
1 2 cation
1 2 donor
1 4 donor
1 6 acceptor
3 3 4 16 cation
3 4 5 17 cation
5 1 3 14 15 16 rings
6 18 19 20 21 23 24 rings
6 5 6 17 18 19 22 rings
6 7 8 9 10 11 12 rings

> <PUBCHEM_HEAVY_ATOM_COUNT>
24

> <PUBCHEM_ATOM_DEF_STEREO_COUNT>
0

> <PUBCHEM_ATOM_UDEF_STEREO_COUNT>
1

> <PUBCHEM_BOND_DEF_STEREO_COUNT>
0

> <PUBCHEM_BOND_UDEF_STEREO_COUNT>
0

> <PUBCHEM_ISOTOPIC_ATOM_COUNT>
0

> <PUBCHEM_COMPONENT_COUNT>
1

> <PUBCHEM_CACTVS_TAUTO_COUNT>
3

> <PUBCHEM_CONFORMER_ID>
02CC60A800000001

> <PUBCHEM_MMFF94_ENERGY>
57.3128

> <PUBCHEM_FEATURE_SELFOVERLAP>
51.081

> <PUBCHEM_SHAPE_FINGERPRINT>
10692045 39 17917440804592676859
10928967 22 17749095721203176315
11128504 68 16008752407200267366
12107183 9 18410295770778150809
12128747 34 17345752980335633336
12166972 35 18272654580107081673
12553582 1 18115289133832439432
12596602 18 14045444653603200630
12788726 201 17896034334985584408
13402501 40 18342460305348304790
13533116 47 17704072914599521849
13583140 156 16414341467577059297
13914758 101 16702024124404725369
14211702 104 18196087974915417487
14251758 9 18413108351428023145
14341114 176 18410858797787541729
14420673 8 18408606929106959451
14528608 73 8574715706347207713
14617045 38 18334860480676378026
14866123 147 17839190614378850136
15183329 4 18409733932746160739
15510800 12 17772193008209309622
15537594 2 17676201351576710003
15664445 248 18189343549152752708
17349148 13 18059581321229689597
17492 89 18120094141886695603
17818456 19 18343308089153787217
1813 80 17240757419348442941
19141452 34 18273207625301357287
1979834 28 17561370560754128366
20403669 9 18341614789617558438
21279426 13 18410853227204344477
21682296 61 18341900675652392943
2215653 11 18343018887282497703
22950370 63 18260832591934525940
23016692 55 18260832574859937444
23559900 14 18341050817293206285
23569917 315 18412267273001179911
3004659 81 18187089438587873142
314173 41 18408887356306309036
335352 9 18409166593831977109
3421961 26 18411979200231372760
404807 14 16480814333063384287
437815 12 18059861627822009510
44062 13 18410577327095586447
465052 167 18413112757858714958
5104073 3 18340492291577885945
5207 123 18342181054932025004
5312625 73 11386369248699309967
563151 74 16772367695452072376
59755656 215 18338231545278744429
6138700 20 18337393734071071655
6823239 73 18410572907599937400
86090 222 17131291064406480214
960060 61 17385445431707700780
9709674 26 18119531187485014355

> <PUBCHEM_SHAPE_MULTIPOLES>
472.85
14.87
3.01
1.25
4.29
0.97
-0.28
-8.53
0.04
-0.83
0.44
-2.14
0.03
0.95

> <PUBCHEM_SHAPE_SELFOVERLAP>
1009.355

> <PUBCHEM_SHAPE_VOLUME>
263.8

> <PUBCHEM_COORDINATE_TYPE>
2
5
10

$$$$
