5516000
  -OEChem-01171809343D

 52 55  0     0  0  0  0  0  0999 V2000
    4.4910    0.6076    2.6736 Cl  0  0  0  0  0  0  0  0  0  0  0  0
    7.0756   -0.0260    0.8321 Cl  0  0  0  0  0  0  0  0  0  0  0  0
   -3.7166   -0.9370    1.5334 S   0  0  0  0  0  0  0  0  0  0  0  0
    0.6289   -1.5261    0.0147 O   0  0  0  0  0  0  0  0  0  0  0  0
   -3.7626   -0.1318    2.7375 O   0  0  0  0  0  0  0  0  0  0  0  0
   -4.1571   -2.3174    1.5598 O   0  0  0  0  0  0  0  0  0  0  0  0
   -0.4919    0.2590    2.1907 O   0  0  0  0  0  0  0  0  0  0  0  0
   -1.3180    1.3451    0.3145 N   0  0  0  0  0  0  0  0  0  0  0  0
    3.1583    2.8193   -0.2362 N   0  0  0  0  0  0  0  0  0  0  0  0
   -2.1222   -0.8505    0.8608 C   0  0  0  0  0  0  0  0  0  0  0  0
   -4.6736   -0.1122    0.2960 C   0  0  0  0  0  0  0  0  0  0  0  0
   -1.7712   -1.8797    0.0711 C   0  0  0  0  0  0  0  0  0  0  0  0
   -0.4931   -2.0265   -0.5483 C   0  0  0  0  0  0  0  0  0  0  0  0
   -1.2249    0.2918    1.2062 C   0  0  0  0  0  0  0  0  0  0  0  0
    1.6471   -1.8416   -0.8281 C   0  0  0  0  0  0  0  0  0  0  0  0
   -0.5357    2.5511    0.4587 C   0  0  0  0  0  0  0  0  0  0  0  0
   -0.2228   -2.6558   -1.7316 C   0  0  0  0  0  0  0  0  0  0  0  0
   -5.2191   -0.8510   -0.7392 C   0  0  0  0  0  0  0  0  0  0  0  0
   -4.8589    1.2562    0.3866 C   0  0  0  0  0  0  0  0  0  0  0  0
    2.9484   -1.3976   -0.4151 C   0  0  0  0  0  0  0  0  0  0  0  0
    1.1752   -2.5365   -1.9172 C   0  0  0  0  0  0  0  0  0  0  0  0
    0.7804    2.4559   -0.2576 C   0  0  0  0  0  0  0  0  0  0  0  0
   -5.9742   -0.2003   -1.7150 C   0  0  0  0  0  0  0  0  0  0  0  0
   -5.6142    1.9067   -0.5891 C   0  0  0  0  0  0  0  0  0  0  0  0
   -6.1720    1.1784   -1.6399 C   0  0  0  0  0  0  0  0  0  0  0  0
    3.1051   -0.6921    0.7820 C   0  0  0  0  0  0  0  0  0  0  0  0
    4.0687   -1.6676   -1.2071 C   0  0  0  0  0  0  0  0  0  0  0  0
    0.8462    1.9455   -1.5415 C   0  0  0  0  0  0  0  0  0  0  0  0
    1.9427    2.8765    0.3526 C   0  0  0  0  0  0  0  0  0  0  0  0
    4.3695   -0.2610    1.1833 C   0  0  0  0  0  0  0  0  0  0  0  0
    5.3331   -1.2362   -0.8060 C   0  0  0  0  0  0  0  0  0  0  0  0
    5.4836   -0.5330    0.3892 C   0  0  0  0  0  0  0  0  0  0  0  0
    2.0790    1.8705   -2.1803 C   0  0  0  0  0  0  0  0  0  0  0  0
    3.1949    2.3165   -1.4906 C   0  0  0  0  0  0  0  0  0  0  0  0
   -2.4875   -2.6596   -0.1740 H   0  0  0  0  0  0  0  0  0  0  0  0
   -0.3885    2.7481    1.5267 H   0  0  0  0  0  0  0  0  0  0  0  0
   -1.1198    3.3776    0.0396 H   0  0  0  0  0  0  0  0  0  0  0  0
   -1.9474    1.2758   -0.4803 H   0  0  0  0  0  0  0  0  0  0  0  0
   -0.9298   -3.1423   -2.3891 H   0  0  0  0  0  0  0  0  0  0  0  0
   -5.0727   -1.9236   -0.8196 H   0  0  0  0  0  0  0  0  0  0  0  0
   -4.4279    1.8414    1.1930 H   0  0  0  0  0  0  0  0  0  0  0  0
    1.7519   -2.9158   -2.7489 H   0  0  0  0  0  0  0  0  0  0  0  0
   -6.4071   -0.7669   -2.5343 H   0  0  0  0  0  0  0  0  0  0  0  0
   -5.7665    2.9805   -0.5318 H   0  0  0  0  0  0  0  0  0  0  0  0
   -6.7593    1.6849   -2.4001 H   0  0  0  0  0  0  0  0  0  0  0  0
    2.2504   -0.4686    1.4169 H   0  0  0  0  0  0  0  0  0  0  0  0
    3.9847   -2.2125   -2.1440 H   0  0  0  0  0  0  0  0  0  0  0  0
   -0.0425    1.6084   -2.0669 H   0  0  0  0  0  0  0  0  0  0  0  0
    1.9460    3.2837    1.3584 H   0  0  0  0  0  0  0  0  0  0  0  0
    6.1906   -1.4563   -1.4372 H   0  0  0  0  0  0  0  0  0  0  0  0
    2.1639    1.4747   -3.1858 H   0  0  0  0  0  0  0  0  0  0  0  0
    4.1801    2.2773   -1.9435 H   0  0  0  0  0  0  0  0  0  0  0  0
  1 30  1  0  0  0  0
  2 32  1  0  0  0  0
  3  5  2  0  0  0  0
  3  6  2  0  0  0  0
  3 10  1  0  0  0  0
  3 11  1  0  0  0  0
  4 13  1  0  0  0  0
  4 15  1  0  0  0  0
  7 14  2  0  0  0  0
  8 14  1  0  0  0  0
  8 16  1  0  0  0  0
  8 38  1  0  0  0  0
  9 29  1  0  0  0  0
  9 34  2  0  0  0  0
 10 12  2  0  0  0  0
 10 14  1  0  0  0  0
 11 18  2  0  0  0  0
 11 19  1  0  0  0  0
 12 13  1  0  0  0  0
 12 35  1  0  0  0  0
 13 17  2  0  0  0  0
 15 20  1  0  0  0  0
 15 21  2  0  0  0  0
 16 22  1  0  0  0  0
 16 36  1  0  0  0  0
 16 37  1  0  0  0  0
 17 21  1  0  0  0  0
 17 39  1  0  0  0  0
 18 23  1  0  0  0  0
 18 40  1  0  0  0  0
 19 24  2  0  0  0  0
 19 41  1  0  0  0  0
 20 26  2  0  0  0  0
 20 27  1  0  0  0  0
 21 42  1  0  0  0  0
 22 28  1  0  0  0  0
 22 29  2  0  0  0  0
 23 25  2  0  0  0  0
 23 43  1  0  0  0  0
 24 25  1  0  0  0  0
 24 44  1  0  0  0  0
 25 45  1  0  0  0  0
 26 30  1  0  0  0  0
 26 46  1  0  0  0  0
 27 31  2  0  0  0  0
 27 47  1  0  0  0  0
 28 33  2  0  0  0  0
 28 48  1  0  0  0  0
 29 49  1  0  0  0  0
 30 32  2  0  0  0  0
 31 32  1  0  0  0  0
 31 50  1  0  0  0  0
 33 34  1  0  0  0  0
 33 51  1  0  0  0  0
 34 52  1  0  0  0  0
M  END
> <PUBCHEM_COMPOUND_CID>
5516000

> <PUBCHEM_CONFORMER_RMSD>
1.4

> <PUBCHEM_CONFORMER_DIVERSEORDER>
1
118
81
114
106
90
63
40
125
54
107
119
139
138
67
38
55
78
129
7
32
141
64
75
88
11
92
145
76
74
130
46
91
104
9
2
77
8
12
89
52
28
102
135
44
82
123
140
137
58
61
128
60
94
134
120
103
96
136
56
121
14
111
45
117
73
98
109
101
131
37
59
143
13
100
142
71
84
127
108
144
50
23
21
113
69
86
4
124
25
35
62
72
36
66
133
95
57
43
33
47
105
26
87
99
132
30
16
116
3
122
18
20
27
83
126
39
22
70
80
48
34
115
53
93
19
31
85
29
5
112
17
24
65
15
42
6
41
68
97
51
49
79
10
110

> <PUBCHEM_MMFF94_PARTIAL_CHARGES>
49
1 -0.18
11 -0.01
12 -0.11
13 0.09
14 0.62
15 0.09
16 0.44
17 -0.15
18 -0.15
19 -0.15
2 -0.18
20 0.05
21 -0.15
22 -0.14
23 -0.15
24 -0.15
25 -0.15
26 -0.15
27 -0.15
28 -0.15
29 0.16
3 1.33
30 0.18
31 -0.15
32 0.18
33 -0.15
34 0.16
35 0.15
38 0.37
39 0.15
4 -0.28
40 0.15
41 0.15
42 0.15
43 0.15
44 0.15
45 0.15
46 0.15
47 0.15
48 0.15
49 0.15
5 -0.65
50 0.15
51 0.15
52 0.15
6 -0.65
7 -0.57
8 -0.73
9 -0.62

> <PUBCHEM_EFFECTIVE_ROTOR_COUNT>
8

> <PUBCHEM_PHARMACOPHORE_FEATURES>
10
1 4 acceptor
1 5 acceptor
1 6 acceptor
1 7 acceptor
1 8 donor
1 9 acceptor
5 4 13 15 17 21 rings
6 11 18 19 23 24 25 rings
6 20 26 27 30 31 32 rings
6 9 22 28 29 33 34 rings

> <PUBCHEM_HEAVY_ATOM_COUNT>
34

> <PUBCHEM_ATOM_DEF_STEREO_COUNT>
0

> <PUBCHEM_ATOM_UDEF_STEREO_COUNT>
0

> <PUBCHEM_BOND_DEF_STEREO_COUNT>
1

> <PUBCHEM_BOND_UDEF_STEREO_COUNT>
0

> <PUBCHEM_ISOTOPIC_ATOM_COUNT>
0

> <PUBCHEM_COMPONENT_COUNT>
1

> <PUBCHEM_CACTVS_TAUTO_COUNT>
2

> <PUBCHEM_CONFORMER_ID>
00542AE000000001

> <PUBCHEM_MMFF94_ENERGY>
70.6916

> <PUBCHEM_FEATURE_SELFOVERLAP>
50.768

> <PUBCHEM_SHAPE_FINGERPRINT>
10006869 2 18194389010158894134
10674148 151 13045942361975842590
10763959 59 18409733937141420110
11093857 51 18128841736401767046
11112662 9 16056872538000889724
11513181 2 16700348407874198247
12422481 6 18335975458813488368
13583140 156 18040158426782047339
14117953 113 18342458106250663748
14840074 17 18273213092878926222
15183329 4 17748820804873589061
15238133 3 17822016410910886566
15463212 79 17038401340883668373
17349148 13 18201447977803437601
20715895 44 18263081033553290709
21033648 29 18130495371450455226
23559900 14 18265064552034510919
4144715 1 18187659045102962330
460360 51 18187937222013521473
508706 21 18187085006107933029
6086070 43 17385993023074518431

> <PUBCHEM_SHAPE_MULTIPOLES>
673.85
14.31
3.28
2.21
4.6
0.89
-0.56
0.53
-0.54
-0.94
1.37
0.13
-0.02
0.96

> <PUBCHEM_SHAPE_SELFOVERLAP>
1447.527

> <PUBCHEM_SHAPE_VOLUME>
374.1

> <PUBCHEM_COORDINATE_TYPE>
2
5
10

$$$$
