5161265
  -OEChem-01171810103D

 49 51  0     1  0  0  0  0  0999 V2000
    4.9054    1.3758    0.6155 O   0  0  0  0  0  0  0  0  0  0  0  0
   -0.3221    1.1137   -0.8469 O   0  0  0  0  0  0  0  0  0  0  0  0
   -2.5133   -0.0993    0.0009 O   0  0  0  0  0  0  0  0  0  0  0  0
   -3.7061   -1.8518    0.8984 O   0  0  0  0  0  0  0  0  0  0  0  0
   -6.2450   -1.7715   -0.0664 O   0  0  0  0  0  0  0  0  0  0  0  0
    3.4094   -0.8196   -0.5471 N   0  0  0  0  0  0  0  0  0  0  0  0
    5.5346    0.1251    0.2894 C   0  0  2  0  0  0  0  0  0  0  0  0
    6.9863    0.4492   -0.0182 C   0  0  0  0  0  0  0  0  0  0  0  0
    4.8040   -0.5332   -0.8648 C   0  0  0  0  0  0  0  0  0  0  0  0
    7.2452    1.5947    0.9278 C   0  0  0  0  0  0  0  0  0  0  0  0
    5.9312    2.3450    0.8777 C   0  0  0  0  0  0  0  0  0  0  0  0
    2.3686    0.0351   -0.7644 C   0  0  0  0  0  0  0  0  0  0  0  0
    2.9603   -1.9808    0.0107 C   0  0  0  0  0  0  0  0  0  0  0  0
    1.2206   -0.5939   -0.3357 C   0  0  0  0  0  0  0  0  0  0  0  0
    1.5950   -1.8695    0.1545 C   0  0  0  0  0  0  0  0  0  0  0  0
    2.5582    1.3750   -1.3615 C   0  0  0  0  0  0  0  0  0  0  0  0
    3.8608   -3.0987    0.3606 C   0  0  0  0  0  0  0  0  0  0  0  0
   -0.0978   -0.0303   -0.3909 C   0  0  0  0  0  0  0  0  0  0  0  0
   -1.3091   -0.8319    0.1198 C   0  0  0  0  0  0  0  0  0  0  0  0
   -3.6478   -0.7261    0.4284 C   0  0  0  0  0  0  0  0  0  0  0  0
   -4.8372    0.1443    0.2492 C   0  0  0  0  0  0  0  0  0  0  0  0
   -6.0738   -0.4216    0.0115 C   0  0  0  0  0  0  0  0  0  0  0  0
   -4.6600    1.5119    0.3271 C   0  0  0  0  0  0  0  0  0  0  0  0
   -7.1785    0.4136   -0.1552 C   0  0  0  0  0  0  0  0  0  0  0  0
   -5.7648    2.3470    0.1605 C   0  0  0  0  0  0  0  0  0  0  0  0
   -7.0240    1.7979   -0.0808 C   0  0  0  0  0  0  0  0  0  0  0  0
    5.4766   -0.4976    1.1906 H   0  0  0  0  0  0  0  0  0  0  0  0
    7.6541   -0.4026    0.1371 H   0  0  0  0  0  0  0  0  0  0  0  0
    7.1025    0.7936   -1.0530 H   0  0  0  0  0  0  0  0  0  0  0  0
    5.2894   -1.4786   -1.1316 H   0  0  0  0  0  0  0  0  0  0  0  0
    4.8323    0.0725   -1.7751 H   0  0  0  0  0  0  0  0  0  0  0  0
    8.1012    2.2137    0.6466 H   0  0  0  0  0  0  0  0  0  0  0  0
    7.4179    1.2094    1.9397 H   0  0  0  0  0  0  0  0  0  0  0  0
    5.9199    3.0701    0.0570 H   0  0  0  0  0  0  0  0  0  0  0  0
    5.7117    2.8707    1.8111 H   0  0  0  0  0  0  0  0  0  0  0  0
    0.9470   -2.6300    0.5690 H   0  0  0  0  0  0  0  0  0  0  0  0
    2.1775    2.1438   -0.6796 H   0  0  0  0  0  0  0  0  0  0  0  0
    3.5851    1.6532   -1.5969 H   0  0  0  0  0  0  0  0  0  0  0  0
    1.9924    1.4480   -2.2971 H   0  0  0  0  0  0  0  0  0  0  0  0
    4.6620   -2.7742    1.0312 H   0  0  0  0  0  0  0  0  0  0  0  0
    3.3096   -3.8941    0.8738 H   0  0  0  0  0  0  0  0  0  0  0  0
    4.3076   -3.5377   -0.5372 H   0  0  0  0  0  0  0  0  0  0  0  0
   -1.3806   -1.7500   -0.4746 H   0  0  0  0  0  0  0  0  0  0  0  0
   -1.1339   -1.0737    1.1742 H   0  0  0  0  0  0  0  0  0  0  0  0
   -3.6945    1.9665    0.5280 H   0  0  0  0  0  0  0  0  0  0  0  0
   -8.1656   -0.0002   -0.3437 H   0  0  0  0  0  0  0  0  0  0  0  0
   -5.6454    3.4248    0.2217 H   0  0  0  0  0  0  0  0  0  0  0  0
   -7.8842    2.4482   -0.2098 H   0  0  0  0  0  0  0  0  0  0  0  0
   -7.1828   -1.9634   -0.2387 H   0  0  0  0  0  0  0  0  0  0  0  0
  1  7  1  0  0  0  0
  1 11  1  0  0  0  0
  2 18  2  0  0  0  0
  3 19  1  0  0  0  0
  3 20  1  0  0  0  0
  4 20  2  0  0  0  0
  5 22  1  0  0  0  0
  5 49  1  0  0  0  0
  6  9  1  0  0  0  0
  6 12  1  0  0  0  0
  6 13  1  0  0  0  0
  7  8  1  0  0  0  0
  7  9  1  0  0  0  0
  7 27  1  0  0  0  0
  8 10  1  0  0  0  0
  8 28  1  0  0  0  0
  8 29  1  0  0  0  0
  9 30  1  0  0  0  0
  9 31  1  0  0  0  0
 10 11  1  0  0  0  0
 10 32  1  0  0  0  0
 10 33  1  0  0  0  0
 11 34  1  0  0  0  0
 11 35  1  0  0  0  0
 12 14  2  0  0  0  0
 12 16  1  0  0  0  0
 13 15  2  0  0  0  0
 13 17  1  0  0  0  0
 14 15  1  0  0  0  0
 14 18  1  0  0  0  0
 15 36  1  0  0  0  0
 16 37  1  0  0  0  0
 16 38  1  0  0  0  0
 16 39  1  0  0  0  0
 17 40  1  0  0  0  0
 17 41  1  0  0  0  0
 17 42  1  0  0  0  0
 18 19  1  0  0  0  0
 19 43  1  0  0  0  0
 19 44  1  0  0  0  0
 20 21  1  0  0  0  0
 21 22  1  0  0  0  0
 21 23  2  0  0  0  0
 22 24  2  0  0  0  0
 23 25  1  0  0  0  0
 23 45  1  0  0  0  0
 24 26  1  0  0  0  0
 24 46  1  0  0  0  0
 25 26  2  0  0  0  0
 25 47  1  0  0  0  0
 26 48  1  0  0  0  0
M  END
> <PUBCHEM_COMPOUND_CID>
5161265

> <PUBCHEM_CONFORMER_RMSD>
1.2

> <PUBCHEM_CONFORMER_DIVERSEORDER>
2
92
95
68
115
42
206
165
139
84
180
60
147
110
190
146
160
32
4
213
167
36
183
8
125
222
108
172
70
200
103
218
130
78
153
140
192
142
15
65
186
12
175
90
211
154
118
181
1
76
86
215
52
41
114
220
77
47
101
120
17
46
58
48
119
159
107
197
173
134
34
81
212
62
155
53
214
71
100
99
82
196
44
33
79
30
207
54
198
67
137
55
87
57
121
157
133
205
138
185
22
194
164
63
45
174
209
74
29
219
145
59
3
73
40
50
7
208
102
193
75
182
83
166
96
43
122
27
179
89
128
111
202
217
210
31
191
148
195
204
93
80
106
158
25
156
149
199
123
144
38
104
14
126
64
129
94
131
35
18
178
13
177
19
221
143
171
56
163
141
6
162
85
105
189
151
168
61
117
170
24
112
49
28
135
72
188
39
203
88
9
113
97
91
5
216
16
51
132
176
201
37
66
169
21
161
10
11
152
116
127
187
184
69
109
136
20
124
98
26
150
23

> <PUBCHEM_MMFF94_PARTIAL_CHARGES>
30
1 -0.56
11 0.28
12 -0.33
13 -0.33
14 -0.09
15 -0.15
16 0.18
17 0.18
18 0.6
19 0.34
2 -0.57
20 0.63
21 0.09
22 0.08
23 -0.15
24 -0.15
25 -0.15
26 -0.15
3 -0.43
36 0.15
4 -0.57
45 0.15
46 0.15
47 0.15
48 0.15
49 0.45
5 -0.53
6 0.05
7 0.28
9 0.26

> <PUBCHEM_EFFECTIVE_ROTOR_COUNT>
8

> <PUBCHEM_PHARMACOPHORE_FEATURES>
8
1 1 acceptor
1 2 acceptor
1 4 acceptor
1 5 donor
1 6 cation
5 1 7 8 10 11 rings
5 6 12 13 14 15 rings
6 21 22 23 24 25 26 rings

> <PUBCHEM_HEAVY_ATOM_COUNT>
26

> <PUBCHEM_ATOM_DEF_STEREO_COUNT>
0

> <PUBCHEM_ATOM_UDEF_STEREO_COUNT>
1

> <PUBCHEM_BOND_DEF_STEREO_COUNT>
0

> <PUBCHEM_BOND_UDEF_STEREO_COUNT>
0

> <PUBCHEM_ISOTOPIC_ATOM_COUNT>
0

> <PUBCHEM_COMPONENT_COUNT>
1

> <PUBCHEM_CACTVS_TAUTO_COUNT>
8

> <PUBCHEM_CONFORMER_ID>
004EC13100000002

> <PUBCHEM_MMFF94_ENERGY>
55.8789

> <PUBCHEM_FEATURE_SELFOVERLAP>
40.597

> <PUBCHEM_SHAPE_FINGERPRINT>
10 15 18259704510110508992
10165383 225 18408323316328071348
10299344 5 10159699101287099037
10411042 1 17836367052526600190
10595046 47 18341892966296723363
10670039 82 14979966856285879890
10835480 77 18411979135727469209
10906281 52 17676785244318219326
11315181 36 17775286054945598809
11719270 70 18333733537630448598
11991303 11 16128365008674151045
12236239 1 18342176635801340287
125118 31 18409451388381128932
12516196 113 18341896285952904853
12596602 18 18272934903615623971
12616971 3 16081095899941939983
13073987 5 18336268964320597291
13533116 47 18187927210418887570
13540713 4 17679285387852317710
13782708 43 10087635992421472749
13911987 19 16988842770507317653
14028597 1 16515676711095279824
14251764 18 18113338626206703125
14394314 77 18341337674381657673
14461889 52 18334297608042937554
14556957 393 16056611966604103465
14565420 104 18409440424035854898
14933364 13 18343584040274689985
15183329 4 18041005020754410141
15289351 153 18060136510752162040
15419008 145 18264195934386940616
15461852 350 17988924517673861053
15475509 35 16661475205256951106
18335252 114 16845575327682965856
18927931 339 11887952156135850973
20281389 69 18334859364533182253
20465049 17 10087641503155099388
20511986 3 18335976494011350399
21130935 74 18334295336074101923
21150785 3 16343701041069640285
21315759 40 13045951205139087337
21403212 168 18343297081753442146
21859007 373 17314778612784465237
22224240 67 18334852857810618834
23035841 295 9295287240443423797
23559900 14 18412821405011358281
24771293 8 18334294309893052484
300161 21 18409167693027242663
3004659 81 18188778227638593211
3383291 50 17677061243444308867
34797466 226 17704079481688932967
4073 2 18187090580379637723
4093350 32 17917714570023989830
4340502 62 18333448746970620878
444735 82 18338518642357784356
5104073 3 18261680281314136155
5758199 1 18335421283578278050

> <PUBCHEM_SHAPE_MULTIPOLES>
500.74
22.36
2.56
0.9
11.35
0.44
-0.09
-10.32
3.42
-1.37
0.52
-0.78
-0.19
0.94

> <PUBCHEM_SHAPE_SELFOVERLAP>
1072.745

> <PUBCHEM_SHAPE_VOLUME>
279.1

> <PUBCHEM_COORDINATE_TYPE>
2
5
10

$$$$
