2460169
  -OEChem-01171810023D

 50 52  0     0  0  0  0  0  0999 V2000
   -5.2506    0.3611    0.7994 O   0  0  0  0  0  0  0  0  0  0  0  0
   -4.9688   -0.9618   -1.0734 O   0  0  0  0  0  0  0  0  0  0  0  0
    3.1057    2.0017    0.0258 O   0  0  0  0  0  0  0  0  0  0  0  0
    1.7645    3.7895   -0.4562 O   0  0  0  0  0  0  0  0  0  0  0  0
   -0.9507   -0.9756   -0.4621 N   0  0  0  0  0  0  0  0  0  0  0  0
   -3.5590   -1.2563    0.8588 C   0  0  0  0  0  0  0  0  0  0  0  0
   -2.5345   -0.2008    1.2732 C   0  0  0  0  0  0  0  0  0  0  0  0
   -2.9035   -2.3990    0.0843 C   0  0  0  0  0  0  0  0  0  0  0  0
   -1.6037    0.2008    0.1259 C   0  0  0  0  0  0  0  0  0  0  0  0
   -1.9445   -1.9101   -1.0053 C   0  0  0  0  0  0  0  0  0  0  0  0
   -0.0083   -0.5691   -1.5047 C   0  0  0  0  0  0  0  0  0  0  0  0
   -4.6635   -0.6245    0.0624 C   0  0  0  0  0  0  0  0  0  0  0  0
    1.0616    0.3233   -0.9784 C   0  0  0  0  0  0  0  0  0  0  0  0
    2.3099   -0.2554   -0.4635 C   0  0  0  0  0  0  0  0  0  0  0  0
    0.9093    1.6549   -0.9641 C   0  0  0  0  0  0  0  0  0  0  0  0
    3.2948    0.6052    0.0238 C   0  0  0  0  0  0  0  0  0  0  0  0
    2.5752   -1.6311   -0.4313 C   0  0  0  0  0  0  0  0  0  0  0  0
    4.5089    0.1384    0.5305 C   0  0  0  0  0  0  0  0  0  0  0  0
    1.9389    2.5760   -0.4539 C   0  0  0  0  0  0  0  0  0  0  0  0
    4.7530   -1.2308    0.5537 C   0  0  0  0  0  0  0  0  0  0  0  0
    3.7877   -2.1142    0.0736 C   0  0  0  0  0  0  0  0  0  0  0  0
   -6.3265    1.0517    0.1562 C   0  0  0  0  0  0  0  0  0  0  0  0
    5.5354    1.0971    1.0417 C   0  0  0  0  0  0  0  0  0  0  0  0
    6.0363   -1.7778    1.0863 C   0  0  0  0  0  0  0  0  0  0  0  0
   -6.8677    2.1068    1.0974 C   0  0  0  0  0  0  0  0  0  0  0  0
   -4.0330   -1.6810    1.7536 H   0  0  0  0  0  0  0  0  0  0  0  0
   -1.9233   -0.6172    2.0859 H   0  0  0  0  0  0  0  0  0  0  0  0
   -3.0095    0.6973    1.6843 H   0  0  0  0  0  0  0  0  0  0  0  0
   -3.6572   -3.0597   -0.3608 H   0  0  0  0  0  0  0  0  0  0  0  0
   -2.3349   -3.0159    0.7934 H   0  0  0  0  0  0  0  0  0  0  0  0
   -0.8838    0.8776    0.5931 H   0  0  0  0  0  0  0  0  0  0  0  0
   -2.1639    0.7685   -0.6284 H   0  0  0  0  0  0  0  0  0  0  0  0
   -2.5067   -1.4489   -1.8268 H   0  0  0  0  0  0  0  0  0  0  0  0
   -1.4357   -2.7885   -1.4214 H   0  0  0  0  0  0  0  0  0  0  0  0
    0.4189   -1.4411   -2.0129 H   0  0  0  0  0  0  0  0  0  0  0  0
   -0.5521   -0.0435   -2.3049 H   0  0  0  0  0  0  0  0  0  0  0  0
    0.0080    2.1224   -1.3499 H   0  0  0  0  0  0  0  0  0  0  0  0
    1.8555   -2.3660   -0.7790 H   0  0  0  0  0  0  0  0  0  0  0  0
    3.9601   -3.1876    0.0857 H   0  0  0  0  0  0  0  0  0  0  0  0
   -5.9589    1.5266   -0.7603 H   0  0  0  0  0  0  0  0  0  0  0  0
   -7.1191    0.3386   -0.0961 H   0  0  0  0  0  0  0  0  0  0  0  0
    5.3432    2.1328    0.7459 H   0  0  0  0  0  0  0  0  0  0  0  0
    5.5672    1.0645    2.1357 H   0  0  0  0  0  0  0  0  0  0  0  0
    6.5284    0.8565    0.6474 H   0  0  0  0  0  0  0  0  0  0  0  0
    6.0116   -2.8711    1.1555 H   0  0  0  0  0  0  0  0  0  0  0  0
    6.8694   -1.5105    0.4283 H   0  0  0  0  0  0  0  0  0  0  0  0
    6.2328   -1.4017    2.0957 H   0  0  0  0  0  0  0  0  0  0  0  0
   -7.6932    2.6560    0.6362 H   0  0  0  0  0  0  0  0  0  0  0  0
   -7.2227    1.6487    2.0264 H   0  0  0  0  0  0  0  0  0  0  0  0
   -6.0810    2.8167    1.3735 H   0  0  0  0  0  0  0  0  0  0  0  0
  1 12  1  0  0  0  0
  1 22  1  0  0  0  0
  2 12  2  0  0  0  0
  3 16  1  0  0  0  0
  3 19  1  0  0  0  0
  4 19  2  0  0  0  0
  5  9  1  0  0  0  0
  5 10  1  0  0  0  0
  5 11  1  0  0  0  0
  6  7  1  0  0  0  0
  6  8  1  0  0  0  0
  6 12  1  0  0  0  0
  6 26  1  0  0  0  0
  7  9  1  0  0  0  0
  7 27  1  0  0  0  0
  7 28  1  0  0  0  0
  8 10  1  0  0  0  0
  8 29  1  0  0  0  0
  8 30  1  0  0  0  0
  9 31  1  0  0  0  0
  9 32  1  0  0  0  0
 10 33  1  0  0  0  0
 10 34  1  0  0  0  0
 11 13  1  0  0  0  0
 11 35  1  0  0  0  0
 11 36  1  0  0  0  0
 13 14  1  0  0  0  0
 13 15  2  0  0  0  0
 14 16  2  0  0  0  0
 14 17  1  0  0  0  0
 15 19  1  0  0  0  0
 15 37  1  0  0  0  0
 16 18  1  0  0  0  0
 17 21  2  0  0  0  0
 17 38  1  0  0  0  0
 18 20  2  0  0  0  0
 18 23  1  0  0  0  0
 20 21  1  0  0  0  0
 20 24  1  0  0  0  0
 21 39  1  0  0  0  0
 22 25  1  0  0  0  0
 22 40  1  0  0  0  0
 22 41  1  0  0  0  0
 23 42  1  0  0  0  0
 23 43  1  0  0  0  0
 23 44  1  0  0  0  0
 24 45  1  0  0  0  0
 24 46  1  0  0  0  0
 24 47  1  0  0  0  0
 25 48  1  0  0  0  0
 25 49  1  0  0  0  0
 25 50  1  0  0  0  0
M  END
> <PUBCHEM_COMPOUND_CID>
2460169

> <PUBCHEM_CONFORMER_RMSD>
0.8

> <PUBCHEM_CONFORMER_DIVERSEORDER>
1
86
134
25
62
78
110
136
111
105
23
65
128
49
109
100
42
41
89
112
71
88
17
114
127
22
124
35
118
81
44
48
117
30
34
130
58
63
53
119
125
8
57
51
102
12
20
47
60
77
138
5
94
50
32
38
28
29
55
132
101
36
67
76
84
121
108
70
133
135
92
104
96
40
74
3
61
11
19
85
7
79
99
39
97
14
126
131
73
123
106
137
15
93
129
120
95
9
107
87
72
16
33
56
69
43
13
122
2
4
37
24
21
6
115
54
52
27
64
45
10
59
98
18
139
91
75
90
140
31
68
46
113
103
26
116
66
82
83
80

> <PUBCHEM_MMFF94_PARTIAL_CHARGES>
25
1 -0.43
10 0.27
11 0.41
12 0.66
13 -0.17
14 0.03
15 -0.14
16 0.08
17 -0.15
18 -0.14
19 0.71
2 -0.57
20 -0.14
21 -0.15
22 0.28
23 0.14
24 0.14
3 -0.23
37 0.15
38 0.15
39 0.15
4 -0.57
5 -0.81
6 0.06
9 0.27

> <PUBCHEM_EFFECTIVE_ROTOR_COUNT>
6.2

> <PUBCHEM_PHARMACOPHORE_FEATURES>
6
1 2 acceptor
1 4 acceptor
1 5 cation
6 14 16 17 18 20 21 rings
6 3 13 14 15 16 19 rings
6 5 6 7 8 9 10 rings

> <PUBCHEM_HEAVY_ATOM_COUNT>
25

> <PUBCHEM_ATOM_DEF_STEREO_COUNT>
0

> <PUBCHEM_ATOM_UDEF_STEREO_COUNT>
0

> <PUBCHEM_BOND_DEF_STEREO_COUNT>
0

> <PUBCHEM_BOND_UDEF_STEREO_COUNT>
0

> <PUBCHEM_ISOTOPIC_ATOM_COUNT>
0

> <PUBCHEM_COMPONENT_COUNT>
1

> <PUBCHEM_CACTVS_TAUTO_COUNT>
1

> <PUBCHEM_CONFORMER_ID>
00258A0900000001

> <PUBCHEM_MMFF94_ENERGY>
64.0823

> <PUBCHEM_FEATURE_SELFOVERLAP>
30.474

> <PUBCHEM_SHAPE_FINGERPRINT>
10906281 52 18114752654479933500
11405975 8 18261397805720697755
12107183 9 18410012104982678843
12236239 1 18131064956822594486
12403260 363 18341891944157550967
12596602 18 17989202689837090762
12633257 1 18408606976119140351
13073987 5 18337114587567470051
13533116 47 18044659934681197179
13583140 156 18191880135008725923
14223995 32 17901382291309517469
14251764 18 18334579053550579247
14251764 30 13118292477392782097
14341114 176 18412548729963655554
14347424 109 18340762664005912522
14466204 15 18264489494873594185
14528608 73 10303813180976679419
14790565 3 17541951227013943004
15142383 8 17240758450319604053
15183329 4 18335138683436096165
15238133 3 18335431165839103716
15301273 46 18131634448860364742
15475509 84 18202281356305220352
15527383 91 18334294271248577630
17349148 13 17917996100602952215
17492 89 18118688952856886859
17868525 174 18410853286896556296
17980427 23 18060416928459997037
1813 80 17167860868326924846
19141452 34 18334856134306682887
19784866 140 12035443943566168727
20511986 3 18059842974658048459
20715895 44 18271814458929274369
20739085 24 18116429448388668588
20832881 197 18113337492319545474
21033648 29 17774424028131679898
21298829 104 18342740706519699441
21403212 168 18188206495352251339
21421861 104 18041268890575876042
21859007 373 17969494914888430189
23559900 14 18409728503706954290
23622692 88 18272090478727716062
2838139 119 18409445853085935653
3117164 225 18409169939157722243
345986 75 17969487218037419480
3680242 22 18340499876390052929
4325135 7 10447921768114920011
5028188 123 17987799744034971332
5104073 3 18335427910802565171
57724786 102 17895204354215124421
6371009 1 18271530789319799401
6443956 14 18334014999589966436
67856867 119 18198621219054791097
8509985 295 18342461438955705681

> <PUBCHEM_SHAPE_MULTIPOLES>
486.03
15.11
2.92
1.18
12.77
1.74
0.03
1.17
-6.56
-1
0.23
0.2
-0.05
-1.3

> <PUBCHEM_SHAPE_SELFOVERLAP>
1031.469

> <PUBCHEM_SHAPE_VOLUME>
270.6

> <PUBCHEM_COORDINATE_TYPE>
2
5
10

$$$$
