4279449
  -OEChem-01171809333D

 46 48  0     0  0  0  0  0  0999 V2000
    0.3582    0.9096   -1.7441 S   0  0  0  0  0  0  0  0  0  0  0  0
   -5.5163    0.3627    0.0854 S   0  0  0  0  0  0  0  0  0  0  0  0
   -2.4032   -1.9521    0.1854 O   0  0  0  0  0  0  0  0  0  0  0  0
   -3.3641    2.5329    0.5286 O   0  0  0  0  0  0  0  0  0  0  0  0
   -0.6417   -3.9326   -0.5358 O   0  0  0  0  0  0  0  0  0  0  0  0
   -3.1344   -0.4725    1.7932 O   0  0  0  0  0  0  0  0  0  0  0  0
   -0.4218    2.3419    0.2541 N   0  0  0  0  0  0  0  0  0  0  0  0
   -2.1413    1.3581   -1.1127 N   0  0  0  0  0  0  0  0  0  0  0  0
    1.5769    1.6220   -0.7540 C   0  0  0  0  0  0  0  0  0  0  0  0
    0.9653    2.3544    0.2680 C   0  0  0  0  0  0  0  0  0  0  0  0
    3.7595    2.2134    0.0644 C   0  0  0  0  0  0  0  0  0  0  0  0
    2.9735    1.5388   -0.8734 C   0  0  0  0  0  0  0  0  0  0  0  0
    1.7830    3.0264    1.2024 C   0  0  0  0  0  0  0  0  0  0  0  0
    3.1741    2.9482    1.0896 C   0  0  0  0  0  0  0  0  0  0  0  0
   -0.8448    1.6171   -0.7551 C   0  0  0  0  0  0  0  0  0  0  0  0
    5.2470    2.1428   -0.0379 C   0  0  0  0  0  0  0  0  0  0  0  0
   -3.3031    1.8180   -0.4683 C   0  0  0  0  0  0  0  0  0  0  0  0
   -4.5712    1.3170   -1.1263 C   0  0  0  0  0  0  0  0  0  0  0  0
    1.2567   -2.6716    0.0562 C   0  0  0  0  0  0  0  0  0  0  0  0
   -1.1251   -2.0153    0.8267 C   0  0  0  0  0  0  0  0  0  0  0  0
   -0.2079   -2.9530    0.0662 C   0  0  0  0  0  0  0  0  0  0  0  0
   -4.5986   -1.1919   -0.0214 C   0  0  0  0  0  0  0  0  0  0  0  0
    1.8511   -2.0305    1.1432 C   0  0  0  0  0  0  0  0  0  0  0  0
    2.0323   -3.0501   -1.0397 C   0  0  0  0  0  0  0  0  0  0  0  0
   -3.3235   -1.1333    0.7815 C   0  0  0  0  0  0  0  0  0  0  0  0
    3.2210   -1.7675    1.1341 C   0  0  0  0  0  0  0  0  0  0  0  0
    3.4022   -2.7871   -1.0487 C   0  0  0  0  0  0  0  0  0  0  0  0
    3.9964   -2.1459    0.0384 C   0  0  0  0  0  0  0  0  0  0  0  0
    3.4271    0.9618   -1.6741 H   0  0  0  0  0  0  0  0  0  0  0  0
    1.3360    3.6025    2.0076 H   0  0  0  0  0  0  0  0  0  0  0  0
    3.7905    3.4693    1.8180 H   0  0  0  0  0  0  0  0  0  0  0  0
    5.6212    1.2844    0.5290 H   0  0  0  0  0  0  0  0  0  0  0  0
    5.5669    2.0411   -1.0805 H   0  0  0  0  0  0  0  0  0  0  0  0
    5.7149    3.0528    0.3528 H   0  0  0  0  0  0  0  0  0  0  0  0
   -2.2457    0.7653   -1.9319 H   0  0  0  0  0  0  0  0  0  0  0  0
   -4.3792    0.7280   -2.0272 H   0  0  0  0  0  0  0  0  0  0  0  0
   -5.1575    2.1920   -1.4251 H   0  0  0  0  0  0  0  0  0  0  0  0
   -0.6988   -1.0082    0.8480 H   0  0  0  0  0  0  0  0  0  0  0  0
   -1.2421   -2.4028    1.8446 H   0  0  0  0  0  0  0  0  0  0  0  0
   -4.3906   -1.4246   -1.0701 H   0  0  0  0  0  0  0  0  0  0  0  0
   -5.2147   -1.9963    0.3918 H   0  0  0  0  0  0  0  0  0  0  0  0
    1.2740   -1.7367    2.0154 H   0  0  0  0  0  0  0  0  0  0  0  0
    1.5853   -3.5461   -1.8973 H   0  0  0  0  0  0  0  0  0  0  0  0
    3.6842   -1.2688    1.9805 H   0  0  0  0  0  0  0  0  0  0  0  0
    4.0060   -3.0797   -1.9026 H   0  0  0  0  0  0  0  0  0  0  0  0
    5.0626   -1.9393    0.0307 H   0  0  0  0  0  0  0  0  0  0  0  0
  1  9  1  0  0  0  0
  1 15  1  0  0  0  0
  2 18  1  0  0  0  0
  2 22  1  0  0  0  0
  3 20  1  0  0  0  0
  3 25  1  0  0  0  0
  4 17  2  0  0  0  0
  5 21  2  0  0  0  0
  6 25  2  0  0  0  0
  7 10  1  0  0  0  0
  7 15  2  0  0  0  0
  8 15  1  0  0  0  0
  8 17  1  0  0  0  0
  8 35  1  0  0  0  0
  9 10  2  0  0  0  0
  9 12  1  0  0  0  0
 10 13  1  0  0  0  0
 11 12  2  0  0  0  0
 11 14  1  0  0  0  0
 11 16  1  0  0  0  0
 12 29  1  0  0  0  0
 13 14  2  0  0  0  0
 13 30  1  0  0  0  0
 14 31  1  0  0  0  0
 16 32  1  0  0  0  0
 16 33  1  0  0  0  0
 16 34  1  0  0  0  0
 17 18  1  0  0  0  0
 18 36  1  0  0  0  0
 18 37  1  0  0  0  0
 19 21  1  0  0  0  0
 19 23  2  0  0  0  0
 19 24  1  0  0  0  0
 20 21  1  0  0  0  0
 20 38  1  0  0  0  0
 20 39  1  0  0  0  0
 22 25  1  0  0  0  0
 22 40  1  0  0  0  0
 22 41  1  0  0  0  0
 23 26  1  0  0  0  0
 23 42  1  0  0  0  0
 24 27  2  0  0  0  0
 24 43  1  0  0  0  0
 26 28  2  0  0  0  0
 26 44  1  0  0  0  0
 27 28  1  0  0  0  0
 27 45  1  0  0  0  0
 28 46  1  0  0  0  0
M  END
> <PUBCHEM_COMPOUND_CID>
4279449

> <PUBCHEM_CONFORMER_RMSD>
1.2

> <PUBCHEM_CONFORMER_DIVERSEORDER>
1
71
56
64
62
101
91
67
88
99
17
19
39
122
86
80
63
77
32
79
21
16
42
112
10
121
40
25
94
102
9
115
36
110
53
81
20
98
45
58
43
75
84
87
22
26
5
38
6
109
66
11
95
89
90
72
111
73
28
55
46
41
47
60
51
68
119
35
61
8
57
69
114
116
54
3
92
27
100
49
7
108
4
85
50
93
59
30
18
33
82
44
14
118
76
105
15
65
70
107
2
120
13
97
52
78
23
106
113
74
83
29
12
31
96
104
37
34
117
24
103
48

> <PUBCHEM_MMFF94_PARTIAL_CHARGES>
37
1 -0.08
10 0.23
11 -0.14
12 -0.15
13 -0.15
14 -0.15
15 0.44
16 0.14
17 0.57
18 0.29
19 0.09
2 -0.46
20 0.34
21 0.42
22 0.29
23 -0.15
24 -0.15
25 0.66
26 -0.15
27 -0.15
28 -0.15
29 0.15
3 -0.43
30 0.15
31 0.15
35 0.37
4 -0.57
42 0.15
43 0.15
44 0.15
45 0.15
46 0.15
5 -0.57
6 -0.57
7 -0.57
8 -0.49
9 0.04

> <PUBCHEM_EFFECTIVE_ROTOR_COUNT>
10

> <PUBCHEM_PHARMACOPHORE_FEATURES>
7
1 4 acceptor
1 5 acceptor
1 6 acceptor
1 8 donor
5 1 7 9 10 15 rings
6 19 23 24 26 27 28 rings
6 9 10 11 12 13 14 rings

> <PUBCHEM_HEAVY_ATOM_COUNT>
28

> <PUBCHEM_ATOM_DEF_STEREO_COUNT>
0

> <PUBCHEM_ATOM_UDEF_STEREO_COUNT>
0

> <PUBCHEM_BOND_DEF_STEREO_COUNT>
0

> <PUBCHEM_BOND_UDEF_STEREO_COUNT>
0

> <PUBCHEM_ISOTOPIC_ATOM_COUNT>
0

> <PUBCHEM_COMPONENT_COUNT>
1

> <PUBCHEM_CACTVS_TAUTO_COUNT>
6

> <PUBCHEM_CONFORMER_ID>
00414C9900000001

> <PUBCHEM_MMFF94_ENERGY>
56.2098

> <PUBCHEM_FEATURE_SELFOVERLAP>
35.593

> <PUBCHEM_SHAPE_FINGERPRINT>
1100329 8 17836371445328162409
11370993 70 18268428125638646921
11513181 2 18272653467099077430
12156800 1 16910552203411845275
12422481 6 18263060250390889520
12553582 1 17833547894929836532
13122387 1 17976819783425589730
13140716 1 18263084335992543265
13402501 40 18334574616258538158
13533116 47 18341608192780075565
13642711 20 16843584218686629714
14725015 67 18043520625891257083
15927050 60 18341326799196416086
17093844 170 18263365948624751516
20691752 17 16877662335827334417
20764821 26 18410004412453593362
20905425 154 18265063590035352166
23559900 14 18334572413093816197
238918 7 18266463302770926866
3027735 51 18052242179856412895
3298306 158 18339078297490378372
338550 245 18187648063308819236
35225 105 17482243308443402160
392239 28 18122906426337039882
5265222 85 17902243531110167572
59755656 215 18335421317431653269
6433294 58 18410855451770498212

> <PUBCHEM_SHAPE_MULTIPOLES>
550.49
9.56
5.18
1.33
6.53
2.03
-0.03
-2.75
0.34
-4.07
0.19
-0.1
-0.09
1.2

> <PUBCHEM_SHAPE_SELFOVERLAP>
1148.961

> <PUBCHEM_SHAPE_VOLUME>
313.1

> <PUBCHEM_COORDINATE_TYPE>
2
5
10

$$$$
