347193
  -OEChem-01171810203D

 25 26  0     0  0  0  0  0  0999 V2000
   -2.3011    1.9249    0.0004 O   0  0  0  0  0  0  0  0  0  0  0  0
   -2.7180   -2.0857   -0.0020 O   0  5  0  0  0  0  0  0  0  0  0  0
   -3.6040   -0.0771   -0.0006 O   0  0  0  0  0  0  0  0  0  0  0  0
    2.5084    2.8201   -0.0033 O   0  5  0  0  0  0  0  0  0  0  0  0
    3.5120    0.8678   -0.0005 O   0  0  0  0  0  0  0  0  0  0  0  0
    2.2534   -1.2128    0.0011 N   0  0  0  0  0  0  0  0  0  0  0  0
   -2.6123   -0.8394   -0.0010 N   0  3  0  0  0  0  0  0  0  0  0  0
    2.4743    1.5685   -0.0011 N   0  3  0  0  0  0  0  0  0  0  0  0
   -0.1521   -1.0656    0.0004 C   0  0  0  0  0  0  0  0  0  0  0  0
    1.1281   -0.4732    0.0011 C   0  0  0  0  0  0  0  0  0  0  0  0
   -1.3055   -0.2630    0.0002 C   0  0  0  0  0  0  0  0  0  0  0  0
    1.2065    0.9168    0.0016 C   0  0  0  0  0  0  0  0  0  0  0  0
   -1.1977    1.1247    0.0009 C   0  0  0  0  0  0  0  0  0  0  0  0
    0.0599    1.7150    0.0015 C   0  0  0  0  0  0  0  0  0  0  0  0
   -0.2315   -2.4648   -0.0002 C   0  0  0  0  0  0  0  0  0  0  0  0
    0.9261   -3.2296   -0.0001 C   0  0  0  0  0  0  0  0  0  0  0  0
    2.1330   -2.5602    0.0006 C   0  0  0  0  0  0  0  0  0  0  0  0
   -2.0794    3.3335    0.0010 C   0  0  0  0  0  0  0  0  0  0  0  0
    0.1859    2.7911    0.0015 H   0  0  0  0  0  0  0  0  0  0  0  0
   -1.0862   -3.1164   -0.0004 H   0  0  0  0  0  0  0  0  0  0  0  0
    0.8879   -4.3130   -0.0004 H   0  0  0  0  0  0  0  0  0  0  0  0
    3.0713   -3.1052    0.0008 H   0  0  0  0  0  0  0  0  0  0  0  0
   -3.0648    3.8115    0.0009 H   0  0  0  0  0  0  0  0  0  0  0  0
   -1.5707    3.6652   -0.9107 H   0  0  0  0  0  0  0  0  0  0  0  0
   -1.5714    3.6646    0.9134 H   0  0  0  0  0  0  0  0  0  0  0  0
  1 13  1  0  0  0  0
  1 18  1  0  0  0  0
  2  7  1  0  0  0  0
  3  7  2  0  0  0  0
  4  8  1  0  0  0  0
  5  8  2  0  0  0  0
  6 10  1  0  0  0  0
  6 17  2  0  0  0  0
  7 11  1  0  0  0  0
  8 12  1  0  0  0  0
  9 10  2  0  0  0  0
  9 11  1  0  0  0  0
  9 15  1  0  0  0  0
 10 12  1  0  0  0  0
 11 13  2  0  0  0  0
 12 14  2  0  0  0  0
 13 14  1  0  0  0  0
 14 19  1  0  0  0  0
 15 16  2  0  0  0  0
 15 20  1  0  0  0  0
 16 17  1  0  0  0  0
 16 21  1  0  0  0  0
 17 22  1  0  0  0  0
 18 23  1  0  0  0  0
 18 24  1  0  0  0  0
 18 25  1  0  0  0  0
M  CHG  4   2  -1   4  -1   7   1   8   1
M  END
> <PUBCHEM_COMPOUND_CID>
347193

> <PUBCHEM_CONFORMER_RMSD>
0.6

> <PUBCHEM_CONFORMER_DIVERSEORDER>
1

> <PUBCHEM_MMFF94_PARTIAL_CHARGES>
21
1 -0.36
10 0.31
11 0.13
12 0.13
13 0.08
14 -0.15
15 -0.15
16 -0.15
17 0.16
18 0.28
19 0.15
2 -0.52
20 0.15
21 0.15
22 0.15
3 -0.52
4 -0.52
5 -0.52
6 -0.62
7 0.91
8 0.91

> <PUBCHEM_EFFECTIVE_ROTOR_COUNT>
3

> <PUBCHEM_PHARMACOPHORE_FEATURES>
10
1 1 acceptor
1 2 acceptor
1 2 anion
1 3 acceptor
1 4 acceptor
1 4 anion
1 5 acceptor
1 6 acceptor
6 6 9 10 15 16 17 rings
6 9 10 11 12 13 14 rings

> <PUBCHEM_HEAVY_ATOM_COUNT>
18

> <PUBCHEM_ATOM_DEF_STEREO_COUNT>
0

> <PUBCHEM_ATOM_UDEF_STEREO_COUNT>
0

> <PUBCHEM_BOND_DEF_STEREO_COUNT>
0

> <PUBCHEM_BOND_UDEF_STEREO_COUNT>
0

> <PUBCHEM_ISOTOPIC_ATOM_COUNT>
0

> <PUBCHEM_COMPONENT_COUNT>
1

> <PUBCHEM_CACTVS_TAUTO_COUNT>
1

> <PUBCHEM_CONFORMER_ID>
00054C3900000001

> <PUBCHEM_MMFF94_ENERGY>
94.0474

> <PUBCHEM_FEATURE_SELFOVERLAP>
51.005

> <PUBCHEM_SHAPE_FINGERPRINT>
10411042 1 17834395614717965863
10967382 1 18338516447164479815
11680986 33 18124307216650333504
12553582 1 17618221702510162510
13140716 1 18049439541659366322
14178342 30 18267007367726449440
14648413 74 18193277394790493073
14790565 3 17977123558384990113
15042514 8 17904479954734541898
15442244 35 18051129190214741913
16945 1 18266459797871683431
193761 8 18338797788844139045
19591789 44 18050290559048149930
20510252 161 18199188562786565560
20511035 2 17913750757000309310
20905425 154 18342181059137471062
21501502 16 18338798888466660053
2334 1 18410855425942561696
23366157 5 18041566824015048438
23402539 116 18055627579988734390
23419403 2 16319410544141546435
23557571 272 17188994834839195780
23558518 356 18188496761599483305
2748010 2 18338234864734374644
350125 39 18338241470257218120
352729 6 18193839468913444642
43471831 8 18336542810913157346
58051976 378 18412539925001052516
589210 1 18338233748069329309
7364860 26 18340206276235141222
7832392 63 17907575826752866459
81228 2 17332512983383585058

> <PUBCHEM_SHAPE_MULTIPOLES>
326.14
4.57
3.97
0.57
1.55
1.13
0
-0.11
0
-0.65
0
-0.01
-0.01
0

> <PUBCHEM_SHAPE_SELFOVERLAP>
721.286

> <PUBCHEM_SHAPE_VOLUME>
174.2

> <PUBCHEM_COORDINATE_TYPE>
2
5
10

$$$$
