3143422
  -OEChem-01171809473D

 39 41  0     0  0  0  0  0  0999 V2000
   -4.6180   -0.1980   -0.0067 O   0  0  0  0  0  0  0  0  0  0  0  0
    6.1386   -1.0899   -0.0227 O   0  0  0  0  0  0  0  0  0  0  0  0
   -2.2780    2.4202   -0.0262 O   0  0  0  0  0  0  0  0  0  0  0  0
    4.2517    1.8697    0.0560 O   0  0  0  0  0  0  0  0  0  0  0  0
   -7.9074   -1.3769    0.0479 O   0  5  0  0  0  0  0  0  0  0  0  0
   -5.9754   -2.4282    0.0289 O   0  0  0  0  0  0  0  0  0  0  0  0
    3.5845   -0.3624    0.0261 N   0  0  0  0  0  0  0  0  0  0  0  0
   -1.9768    0.1096   -0.0444 N   0  0  0  0  0  0  0  0  0  0  0  0
   -6.6419   -1.3520    0.0300 N   0  3  0  0  0  0  0  0  0  0  0  0
    1.3903   -1.4019   -0.0132 C   0  0  0  0  0  0  0  0  0  0  0  0
    2.1914   -0.2603    0.0085 C   0  0  0  0  0  0  0  0  0  0  0  0
   -0.5872   -0.0140   -0.0270 C   0  0  0  0  0  0  0  0  0  0  0  0
    0.0010   -1.2788   -0.0309 C   0  0  0  0  0  0  0  0  0  0  0  0
    1.6032    1.0045    0.0124 C   0  0  0  0  0  0  0  0  0  0  0  0
    0.2138    1.1276   -0.0052 C   0  0  0  0  0  0  0  0  0  0  0  0
    1.9929   -2.7690   -0.0177 C   0  0  0  0  0  0  0  0  0  0  0  0
   -2.7526    1.2865   -0.0434 C   0  0  0  0  0  0  0  0  0  0  0  0
   -4.2101    1.0744   -0.0224 C   0  0  0  0  0  0  0  0  0  0  0  0
    4.5377    0.6743    0.0486 C   0  0  0  0  0  0  0  0  0  0  0  0
    5.9421    0.2310    0.0206 C   0  0  0  0  0  0  0  0  0  0  0  0
   -5.2107    1.9700   -0.0162 C   0  0  0  0  0  0  0  0  0  0  0  0
   -5.9748   -0.1258    0.0107 C   0  0  0  0  0  0  0  0  0  0  0  0
   -6.3887    1.1859    0.0055 C   0  0  0  0  0  0  0  0  0  0  0  0
    7.0747    0.9527    0.0314 C   0  0  0  0  0  0  0  0  0  0  0  0
    8.1104   -0.0110   -0.0092 C   0  0  0  0  0  0  0  0  0  0  0  0
    7.4894   -1.2378   -0.0413 C   0  0  0  0  0  0  0  0  0  0  0  0
   -0.6268   -2.1671   -0.0478 H   0  0  0  0  0  0  0  0  0  0  0  0
    2.1413    1.9402    0.0285 H   0  0  0  0  0  0  0  0  0  0  0  0
   -0.1598    2.1412   -0.0007 H   0  0  0  0  0  0  0  0  0  0  0  0
    1.2260   -3.5514   -0.0334 H   0  0  0  0  0  0  0  0  0  0  0  0
    2.5955   -2.9276    0.8828 H   0  0  0  0  0  0  0  0  0  0  0  0
    2.6168   -2.9122   -0.9063 H   0  0  0  0  0  0  0  0  0  0  0  0
    3.9629   -1.3059    0.0163 H   0  0  0  0  0  0  0  0  0  0  0  0
   -2.4900   -0.7697   -0.0538 H   0  0  0  0  0  0  0  0  0  0  0  0
   -5.1400    3.0480   -0.0258 H   0  0  0  0  0  0  0  0  0  0  0  0
   -7.4101    1.5399    0.0163 H   0  0  0  0  0  0  0  0  0  0  0  0
    7.1792    2.0276    0.0639 H   0  0  0  0  0  0  0  0  0  0  0  0
    9.1762    0.1664   -0.0146 H   0  0  0  0  0  0  0  0  0  0  0  0
    7.8475   -2.2564   -0.0767 H   0  0  0  0  0  0  0  0  0  0  0  0
  1 18  1  0  0  0  0
  1 22  1  0  0  0  0
  2 20  1  0  0  0  0
  2 26  1  0  0  0  0
  3 17  2  0  0  0  0
  4 19  2  0  0  0  0
  5  9  1  0  0  0  0
  6  9  2  0  0  0  0
  7 11  1  0  0  0  0
  7 19  1  0  0  0  0
  7 33  1  0  0  0  0
  8 12  1  0  0  0  0
  8 17  1  0  0  0  0
  8 34  1  0  0  0  0
  9 22  1  0  0  0  0
 10 11  2  0  0  0  0
 10 13  1  0  0  0  0
 10 16  1  0  0  0  0
 11 14  1  0  0  0  0
 12 13  2  0  0  0  0
 12 15  1  0  0  0  0
 13 27  1  0  0  0  0
 14 15  2  0  0  0  0
 14 28  1  0  0  0  0
 15 29  1  0  0  0  0
 16 30  1  0  0  0  0
 16 31  1  0  0  0  0
 16 32  1  0  0  0  0
 17 18  1  0  0  0  0
 18 21  2  0  0  0  0
 19 20  1  0  0  0  0
 20 24  2  0  0  0  0
 21 23  1  0  0  0  0
 21 35  1  0  0  0  0
 22 23  2  0  0  0  0
 23 36  1  0  0  0  0
 24 25  1  0  0  0  0
 24 37  1  0  0  0  0
 25 26  2  0  0  0  0
 25 38  1  0  0  0  0
 26 39  1  0  0  0  0
M  CHG  2   5  -1   9   1
M  END
> <PUBCHEM_COMPOUND_CID>
3143422

> <PUBCHEM_CONFORMER_RMSD>
0.8

> <PUBCHEM_CONFORMER_DIVERSEORDER>
1
13
9
19
7
17
24
6
10
5
4
18
25
12
20
22
15
11
2
8
23
16
3
21
14

> <PUBCHEM_MMFF94_PARTIAL_CHARGES>
36
1 -0.28
10 -0.14
11 0.12
12 0.12
13 -0.15
14 -0.15
15 -0.15
16 0.14
17 0.71
18 0.05
19 0.71
2 -0.28
20 0.05
21 -0.15
22 0.22
23 -0.15
24 -0.15
25 -0.15
26 -0.01
27 0.15
28 0.15
29 0.15
3 -0.57
33 0.37
34 0.37
35 0.15
36 0.15
37 0.15
38 0.15
39 0.15
4 -0.57
5 -0.52
6 -0.52
7 -0.55
8 -0.55
9 0.96

> <PUBCHEM_EFFECTIVE_ROTOR_COUNT>
7

> <PUBCHEM_PHARMACOPHORE_FEATURES>
12
1 1 acceptor
1 2 acceptor
1 3 acceptor
1 4 acceptor
1 5 acceptor
1 5 anion
1 6 acceptor
1 7 donor
1 8 donor
5 1 18 21 22 23 rings
5 2 20 24 25 26 rings
6 10 11 12 13 14 15 rings

> <PUBCHEM_HEAVY_ATOM_COUNT>
26

> <PUBCHEM_ATOM_DEF_STEREO_COUNT>
0

> <PUBCHEM_ATOM_UDEF_STEREO_COUNT>
0

> <PUBCHEM_BOND_DEF_STEREO_COUNT>
0

> <PUBCHEM_BOND_UDEF_STEREO_COUNT>
0

> <PUBCHEM_ISOTOPIC_ATOM_COUNT>
0

> <PUBCHEM_COMPONENT_COUNT>
1

> <PUBCHEM_CACTVS_TAUTO_COUNT>
4

> <PUBCHEM_CONFORMER_ID>
002FF6FE00000001

> <PUBCHEM_MMFF94_ENERGY>
62.4254

> <PUBCHEM_FEATURE_SELFOVERLAP>
60.99

> <PUBCHEM_SHAPE_FINGERPRINT>
10050765 1 18050286968708431692
10299344 5 18409168809307075152
10835480 77 18264202522771703461
11135926 11 18408599237284548335
11315181 36 18413390926291285001
11524674 6 16558747936124554567
11646440 116 17418373601857771096
11719270 70 18341609287833290094
11963148 33 18408595963739539354
12091667 2 17167582670579487701
12166972 35 18261112989112484932
13533116 47 17023174973771477096
13631057 29 18342173389227784891
14251764 18 18259704502163821108
14849402 71 18270402810132048160
14933364 13 18413107251795277448
15849732 13 18335139795790571092
18335252 98 18272655644626032991
18608769 82 18341611533715693771
18681886 176 18410006667232530193
19611394 137 18042980946213057867
21130935 74 18342458085066334570
21267235 1 18412547617166270500
21315759 40 18186523185619977996
21315763 28 18410292518838833428
21521721 280 17489304226615579610
22224240 67 18186518809058749074
232437 2 18411419536581865647
23559900 14 18410006663264857345
23569917 315 18412271606069293542
23569943 247 17837503947322828210
3009799 131 8646767803027262004
335352 9 18410015434484179502
4073 2 18186809075322214851
4325135 7 18408322194539701855
5047190 19 16878803732594055683
5104073 3 18270398279330765571
5758199 1 18412266112319786032
5969126 39 16732976514534257781
59755656 215 18336549331032273686
59755656 520 17967810561347234802
67123 10 18409730677804541596
9996256 80 18410855451823161318

> <PUBCHEM_SHAPE_MULTIPOLES>
484.91
23.71
2.25
0.58
3.6
0.69
0
2.81
-0.18
-1.87
0
0.06
-0.01
0.12

> <PUBCHEM_SHAPE_SELFOVERLAP>
1064.246

> <PUBCHEM_SHAPE_VOLUME>
261.3

> <PUBCHEM_COORDINATE_TYPE>
2
5
10

$$$$
