1422298
  -OEChem-01171809303D

 32 34  0     0  0  0  0  0  0999 V2000
    0.4691   -0.7558    0.7775 O   0  0  0  0  0  0  0  0  0  0  0  0
   -2.8512   -3.0965    0.4167 O   0  5  0  0  0  0  0  0  0  0  0  0
   -0.6935   -2.9335    0.7864 O   0  0  0  0  0  0  0  0  0  0  0  0
   -4.5372    2.8096   -0.4775 O   0  5  0  0  0  0  0  0  0  0  0  0
   -5.4844    0.8294   -0.4512 O   0  0  0  0  0  0  0  0  0  0  0  0
    2.7898    0.5354    1.5036 N   0  0  0  0  0  0  0  0  0  0  0  0
   -1.8064   -2.4137    0.5351 N   0  3  0  0  0  0  0  0  0  0  0  0
   -4.4729    1.5638   -0.3422 N   0  3  0  0  0  0  0  0  0  0  0  0
    2.6393    0.0917    0.2412 C   0  0  0  0  0  0  0  0  0  0  0  0
    1.4689   -0.5622   -0.1340 C   0  0  0  0  0  0  0  0  0  0  0  0
    3.6428    0.2681   -0.7343 C   0  0  0  0  0  0  0  0  0  0  0  0
   -0.7647   -0.1984    0.4993 C   0  0  0  0  0  0  0  0  0  0  0  0
   -1.8862   -1.0025    0.3783 C   0  0  0  0  0  0  0  0  0  0  0  0
    1.2792   -1.0356   -1.4346 C   0  0  0  0  0  0  0  0  0  0  0  0
    3.4522   -0.2081   -2.0426 C   0  0  0  0  0  0  0  0  0  0  0  0
   -0.8439    1.1769    0.3480 C   0  0  0  0  0  0  0  0  0  0  0  0
   -3.1204   -0.4163    0.0980 C   0  0  0  0  0  0  0  0  0  0  0  0
    2.2718   -0.8587   -2.3903 C   0  0  0  0  0  0  0  0  0  0  0  0
   -3.2164    0.9666   -0.0573 C   0  0  0  0  0  0  0  0  0  0  0  0
    4.8211    0.9262   -0.3573 C   0  0  0  0  0  0  0  0  0  0  0  0
   -2.0782    1.7632    0.0679 C   0  0  0  0  0  0  0  0  0  0  0  0
    4.9791    1.3846    0.9426 C   0  0  0  0  0  0  0  0  0  0  0  0
    3.9423    1.1657    1.8268 C   0  0  0  0  0  0  0  0  0  0  0  0
    0.3675   -1.5547   -1.7173 H   0  0  0  0  0  0  0  0  0  0  0  0
    4.2232   -0.0751   -2.7983 H   0  0  0  0  0  0  0  0  0  0  0  0
    0.0302    1.8126    0.4541 H   0  0  0  0  0  0  0  0  0  0  0  0
   -4.0095   -1.0349    0.0001 H   0  0  0  0  0  0  0  0  0  0  0  0
    2.1293   -1.2273   -3.4016 H   0  0  0  0  0  0  0  0  0  0  0  0
    5.6226    1.0853   -1.0750 H   0  0  0  0  0  0  0  0  0  0  0  0
   -2.1158    2.8438   -0.0439 H   0  0  0  0  0  0  0  0  0  0  0  0
    5.8835    1.8955    1.2512 H   0  0  0  0  0  0  0  0  0  0  0  0
    4.0091    1.5018    2.8563 H   0  0  0  0  0  0  0  0  0  0  0  0
  1 10  1  0  0  0  0
  1 12  1  0  0  0  0
  2  7  1  0  0  0  0
  3  7  2  0  0  0  0
  4  8  1  0  0  0  0
  5  8  2  0  0  0  0
  6  9  1  0  0  0  0
  6 23  2  0  0  0  0
  7 13  1  0  0  0  0
  8 19  1  0  0  0  0
  9 10  1  0  0  0  0
  9 11  2  0  0  0  0
 10 14  2  0  0  0  0
 11 15  1  0  0  0  0
 11 20  1  0  0  0  0
 12 13  2  0  0  0  0
 12 16  1  0  0  0  0
 13 17  1  0  0  0  0
 14 18  1  0  0  0  0
 14 24  1  0  0  0  0
 15 18  2  0  0  0  0
 15 25  1  0  0  0  0
 16 21  2  0  0  0  0
 16 26  1  0  0  0  0
 17 19  2  0  0  0  0
 17 27  1  0  0  0  0
 18 28  1  0  0  0  0
 19 21  1  0  0  0  0
 20 22  2  0  0  0  0
 20 29  1  0  0  0  0
 21 30  1  0  0  0  0
 22 23  1  0  0  0  0
 22 31  1  0  0  0  0
 23 32  1  0  0  0  0
M  CHG  4   2  -1   4  -1   7   1   8   1
M  END
> <PUBCHEM_COMPOUND_CID>
1422298

> <PUBCHEM_CONFORMER_RMSD>
0.6

> <PUBCHEM_CONFORMER_DIVERSEORDER>
1
10
7
4
8
6
9
3
2
5

> <PUBCHEM_MMFF94_PARTIAL_CHARGES>
31
1 -0.17
10 0.08
12 0.08
13 0.13
14 -0.15
15 -0.15
16 -0.15
17 -0.15
18 -0.15
19 0.13
2 -0.52
20 -0.15
21 -0.15
22 -0.15
23 0.16
24 0.15
25 0.15
26 0.15
27 0.15
28 0.15
29 0.15
3 -0.52
30 0.15
31 0.15
32 0.15
4 -0.52
5 -0.52
6 -0.62
7 0.91
8 0.91
9 0.31

> <PUBCHEM_EFFECTIVE_ROTOR_COUNT>
4

> <PUBCHEM_PHARMACOPHORE_FEATURES>
11
1 1 acceptor
1 2 acceptor
1 2 anion
1 3 acceptor
1 4 acceptor
1 4 anion
1 5 acceptor
1 6 acceptor
6 12 13 16 17 19 21 rings
6 6 9 11 20 22 23 rings
6 9 10 11 14 15 18 rings

> <PUBCHEM_HEAVY_ATOM_COUNT>
23

> <PUBCHEM_ATOM_DEF_STEREO_COUNT>
0

> <PUBCHEM_ATOM_UDEF_STEREO_COUNT>
0

> <PUBCHEM_BOND_DEF_STEREO_COUNT>
0

> <PUBCHEM_BOND_UDEF_STEREO_COUNT>
0

> <PUBCHEM_ISOTOPIC_ATOM_COUNT>
0

> <PUBCHEM_COMPONENT_COUNT>
1

> <PUBCHEM_CACTVS_TAUTO_COUNT>
1

> <PUBCHEM_CONFORMER_ID>
0015B3DA00000001

> <PUBCHEM_MMFF94_ENERGY>
88.1012

> <PUBCHEM_FEATURE_SELFOVERLAP>
56.047

> <PUBCHEM_SHAPE_FINGERPRINT>
10319926 262 18339626937477589208
10366900 7 17775571927019534120
10498660 4 18338238146358998757
10646746 165 18411140255726476508
11640471 11 17313396646615912134
11725454 13 18130488795797261674
12173636 292 18263079933972993965
12236239 1 17240482541641510314
12403259 118 18196358441911696848
12633257 1 18113608011051409852
12730499 353 17775851215588514966
12788726 201 17098644536547045131
13583140 156 18201434818366930162
13911987 19 16916507098764864112
13965767 371 17604703361728594652
14468879 13 18131631196662611111
15099037 37 18268992170782432722
15375358 24 18272369771628924956
16752209 62 18188497989749562131
173720 79 17749104491937460963
17980427 23 17677611028995276588
18186145 218 18199479787486191729
18219364 16 17203050815341484826
18915476 22 17346610676725142206
200 152 15769779026485812408
20511986 3 17240755237541973156
20645477 56 18410016541615245729
20645477 70 16988851549061749028
21065201 7 18336837476035322050
212916 134 18333446530149888967
22182313 1 18130521819458318775
23227448 37 18337110176077401221
23402539 116 18410285943185621398
23557571 272 18341059621654091402
23559900 14 18340778061426953182
238 59 17060339596023715398
341906 21 18334296491609617044
3472631 163 18261111902343035500
350125 39 17973160621570944624
4028521 119 18343585114169624685
469060 322 18043553774712696323
495365 180 17846771876286441102
5283173 99 18342736317147284853
633830 44 17914896431622820125
7615 1 17096089228663655614
77492 1 17167863123042609146
7808743 9 18333456460420784836
9709674 26 18202004347444961813

> <PUBCHEM_SHAPE_MULTIPOLES>
429.04
10.13
2.46
1.57
1.81
0.97
-0.5
-6.1
-0.82
2.84
0.44
-1.89
0.33
2.34

> <PUBCHEM_SHAPE_SELFOVERLAP>
957.448

> <PUBCHEM_SHAPE_VOLUME>
227.3

> <PUBCHEM_COORDINATE_TYPE>
2
5
10

$$$$
