9657585
  -OEChem-01171809393D

 40 42  0     0  0  0  0  0  0999 V2000
   -3.2240   -2.4201    0.0882 Cl  0  0  0  0  0  0  0  0  0  0  0  0
    7.1881    1.8734   -0.0879 Cl  0  0  0  0  0  0  0  0  0  0  0  0
    6.7908   -1.9345    1.1538 O   0  0  0  0  0  0  0  0  0  0  0  0
    7.6097   -1.2124   -0.8398 O   0  0  0  0  0  0  0  0  0  0  0  0
   -3.7839    0.2041   -0.0121 N   0  0  0  0  0  0  0  0  0  0  0  0
   -3.2867    1.4519   -0.0599 N   0  0  0  0  0  0  0  0  0  0  0  0
    1.8799   -0.7607    0.0200 N   0  0  0  0  0  0  0  0  0  0  0  0
    0.7602   -0.0181   -0.0071 N   0  0  0  0  0  0  0  0  0  0  0  0
   -1.6591   -0.0946   -0.0022 C   0  0  0  0  0  0  0  0  0  0  0  0
   -1.9660    1.2525   -0.0532 C   0  0  0  0  0  0  0  0  0  0  0  0
   -2.8285   -0.7687    0.0245 C   0  0  0  0  0  0  0  0  0  0  0  0
   -5.1692    0.0264   -0.0064 C   0  0  0  0  0  0  0  0  0  0  0  0
   -1.0575    2.4118   -0.0991 C   0  0  0  0  0  0  0  0  0  0  0  0
   -0.3254   -0.7205    0.0206 C   0  0  0  0  0  0  0  0  0  0  0  0
   -5.7137   -1.1198   -0.5685 C   0  0  0  0  0  0  0  0  0  0  0  0
   -5.9803    0.9984    0.5624 C   0  0  0  0  0  0  0  0  0  0  0  0
    3.1477   -0.1436   -0.0048 C   0  0  0  0  0  0  0  0  0  0  0  0
   -7.0973   -1.2978   -0.5613 C   0  0  0  0  0  0  0  0  0  0  0  0
   -7.3638    0.8205    0.5694 C   0  0  0  0  0  0  0  0  0  0  0  0
    4.3042   -0.9231    0.0256 C   0  0  0  0  0  0  0  0  0  0  0  0
   -7.9225   -0.3278    0.0078 C   0  0  0  0  0  0  0  0  0  0  0  0
    5.5581   -0.3125   -0.0001 C   0  0  0  0  0  0  0  0  0  0  0  0
    3.2455    1.2469   -0.0603 C   0  0  0  0  0  0  0  0  0  0  0  0
    5.6556    1.0778   -0.0560 C   0  0  0  0  0  0  0  0  0  0  0  0
    4.4993    1.8576   -0.0859 C   0  0  0  0  0  0  0  0  0  0  0  0
    6.7389   -1.1672    0.0322 C   0  0  0  0  0  0  0  0  0  0  0  0
   -0.4175    2.4391    0.7888 H   0  0  0  0  0  0  0  0  0  0  0  0
   -0.4199    2.3708   -0.9882 H   0  0  0  0  0  0  0  0  0  0  0  0
   -1.6096    3.3574   -0.1346 H   0  0  0  0  0  0  0  0  0  0  0  0
   -0.3035   -1.8253    0.0625 H   0  0  0  0  0  0  0  0  0  0  0  0
   -5.1687   -1.8294   -1.1771 H   0  0  0  0  0  0  0  0  0  0  0  0
   -5.5753    1.8979    1.0186 H   0  0  0  0  0  0  0  0  0  0  0  0
   -7.5362   -2.1727   -1.0326 H   0  0  0  0  0  0  0  0  0  0  0  0
   -8.0065    1.5754    1.0130 H   0  0  0  0  0  0  0  0  0  0  0  0
    4.2239   -2.0076    0.0648 H   0  0  0  0  0  0  0  0  0  0  0  0
   -9.0003   -0.4623    0.0059 H   0  0  0  0  0  0  0  0  0  0  0  0
    1.8418   -1.7732    0.0600 H   0  0  0  0  0  0  0  0  0  0  0  0
    2.3665    1.8853   -0.0851 H   0  0  0  0  0  0  0  0  0  0  0  0
    4.5584    2.9423   -0.1291 H   0  0  0  0  0  0  0  0  0  0  0  0
    7.5877   -2.5065    1.1685 H   0  0  0  0  0  0  0  0  0  0  0  0
  1 11  1  0  0  0  0
  2 24  1  0  0  0  0
  3 26  1  0  0  0  0
  3 40  1  0  0  0  0
  4 26  2  0  0  0  0
  5  6  1  0  0  0  0
  5 11  1  0  0  0  0
  5 12  1  0  0  0  0
  6 10  2  0  0  0  0
  7  8  1  0  0  0  0
  7 17  1  0  0  0  0
  7 37  1  0  0  0  0
  8 14  2  0  0  0  0
  9 10  1  0  0  0  0
  9 11  2  0  0  0  0
  9 14  1  0  0  0  0
 10 13  1  0  0  0  0
 12 15  2  0  0  0  0
 12 16  1  0  0  0  0
 13 27  1  0  0  0  0
 13 28  1  0  0  0  0
 13 29  1  0  0  0  0
 14 30  1  0  0  0  0
 15 18  1  0  0  0  0
 15 31  1  0  0  0  0
 16 19  2  0  0  0  0
 16 32  1  0  0  0  0
 17 20  2  0  0  0  0
 17 23  1  0  0  0  0
 18 21  2  0  0  0  0
 18 33  1  0  0  0  0
 19 21  1  0  0  0  0
 19 34  1  0  0  0  0
 20 22  1  0  0  0  0
 20 35  1  0  0  0  0
 21 36  1  0  0  0  0
 22 24  2  0  0  0  0
 22 26  1  0  0  0  0
 23 25  2  0  0  0  0
 23 38  1  0  0  0  0
 24 25  1  0  0  0  0
 25 39  1  0  0  0  0
M  END
> <PUBCHEM_COMPOUND_CID>
9657585

> <PUBCHEM_CONFORMER_RMSD>
0.8

> <PUBCHEM_CONFORMER_DIVERSEORDER>
3
39
47
28
21
48
38
11
33
4
40
16
32
31
8
22
50
45
36
26
9
23
35
37
10
5
51
2
49
15
43
7
12
34
42
20
14
30
44
41
1
25
17
46
52
6
19
18
13
27
29
24

> <PUBCHEM_MMFF94_PARTIAL_CHARGES>
37
1 -0.12
10 0.11
11 -0.03
12 -0.02
13 0.18
14 0.48
15 -0.15
16 -0.15
17 0.1
18 -0.15
19 -0.15
2 -0.18
20 -0.15
21 -0.15
22 0.09
23 -0.15
24 0.18
25 -0.15
26 0.63
3 -0.65
30 0.06
31 0.15
32 0.15
33 0.15
34 0.15
35 0.15
36 0.15
37 0.4
38 0.15
39 0.15
4 -0.57
40 0.5
5 0.59
6 -0.71
7 -0.46
8 -0.49
9 -0.09

> <PUBCHEM_EFFECTIVE_ROTOR_COUNT>
5

> <PUBCHEM_PHARMACOPHORE_FEATURES>
9
1 3 acceptor
1 4 acceptor
1 6 acceptor
1 7 donor
1 8 acceptor
3 3 4 26 anion
5 5 6 9 10 11 rings
6 12 15 16 18 19 21 rings
6 17 20 22 23 24 25 rings

> <PUBCHEM_HEAVY_ATOM_COUNT>
26

> <PUBCHEM_ATOM_DEF_STEREO_COUNT>
0

> <PUBCHEM_ATOM_UDEF_STEREO_COUNT>
0

> <PUBCHEM_BOND_DEF_STEREO_COUNT>
1

> <PUBCHEM_BOND_UDEF_STEREO_COUNT>
0

> <PUBCHEM_ISOTOPIC_ATOM_COUNT>
0

> <PUBCHEM_COMPONENT_COUNT>
1

> <PUBCHEM_CACTVS_TAUTO_COUNT>
1

> <PUBCHEM_CONFORMER_ID>
00935CF100000003

> <PUBCHEM_MMFF94_ENERGY>
90.3401

> <PUBCHEM_FEATURE_SELFOVERLAP>
45.73

> <PUBCHEM_SHAPE_FINGERPRINT>
10050765 1 18123471566559894215
10299344 5 18343303669315395617
11135926 11 18410848842512682127
11315181 36 18273497888904515329
11524674 6 16559030510834575503
11578080 2 13397259399835823481
11719270 70 17775287149471708990
12089408 11 18202002136417700757
12166972 35 18113338613438476316
12236239 1 18411136943700094813
12516196 113 18202282519739982633
13533116 47 17458898245945731114
14251764 18 18342458157479164261
14341114 176 18335141994914143924
14856354 85 16487255504734233765
14933364 13 18411420622042689452
15131766 46 15838991239604398112
15183329 4 18413673504251378754
15419008 47 15123788457503644683
15716309 27 18343300370996861671
1577012 14 18271523186746799462
20281389 69 18335137592008344900
21267235 1 18409733949683326396
21315763 28 18412544319116495469
21792934 111 18271515438626401785
221357 26 18410292506634549984
23035841 295 18411418410545904267
23522609 53 18196964177659966481
23559900 14 18338230599964114953
3004659 81 18334011696696961704
335352 9 18410294722119919015
34797466 226 17917719015462879604
3545911 37 18335138682956119558
397830 11 16009892695490774801
4073 2 18114185297690087562
4325135 7 18342176678523906733
4339292 15 15841256156980752575
59755656 215 18334579014637878350
59755656 520 17385722513012574171
6138700 20 18409730656197634915

> <PUBCHEM_SHAPE_MULTIPOLES>
507.14
25.35
2.12
0.71
4.19
0.15
0.03
-3.01
0.1
1.3
0.06
0.08
-0.1
-0.92

> <PUBCHEM_SHAPE_SELFOVERLAP>
1089.522

> <PUBCHEM_SHAPE_VOLUME>
280.1

> <PUBCHEM_COORDINATE_TYPE>
2
5
10

$$$$
