5739396
  -OEChem-01171810023D

 34 36  0     0  0  0  0  0  0999 V2000
    1.8413   -1.6223    0.1224 O   0  0  0  0  0  0  0  0  0  0  0  0
   -6.6662   -0.1547   -0.1657 O   0  0  0  0  0  0  0  0  0  0  0  0
    3.8036   -2.6690    0.5482 O   0  0  0  0  0  0  0  0  0  0  0  0
    1.7443    0.7035   -0.3313 N   0  0  0  0  0  0  0  0  0  0  0  0
    3.8849   -0.3535    0.1173 C   0  0  0  0  0  0  0  0  0  0  0  0
    3.1306    0.7772   -0.1851 C   0  0  0  0  0  0  0  0  0  0  0  0
   -2.5489    0.1528   -0.0144 C   0  0  0  0  0  0  0  0  0  0  0  0
    1.2061   -0.4578   -0.1728 C   0  0  0  0  0  0  0  0  0  0  0  0
    5.2734   -0.2710    0.2617 C   0  0  0  0  0  0  0  0  0  0  0  0
    3.7797    2.0058   -0.3442 C   0  0  0  0  0  0  0  0  0  0  0  0
    3.1923   -1.6423    0.2826 C   0  0  0  0  0  0  0  0  0  0  0  0
   -1.0803    0.2627    0.0398 C   0  0  0  0  0  0  0  0  0  0  0  0
   -0.2317   -0.7172   -0.2898 C   0  0  0  0  0  0  0  0  0  0  0  0
   -3.1272   -0.8320   -0.7985 C   0  0  0  0  0  0  0  0  0  0  0  0
   -3.3223    1.0371    0.7198 C   0  0  0  0  0  0  0  0  0  0  0  0
    5.9111    0.9585    0.1011 C   0  0  0  0  0  0  0  0  0  0  0  0
    5.1653    2.0963   -0.2017 C   0  0  0  0  0  0  0  0  0  0  0  0
   -5.3099   -0.0526   -0.1164 C   0  0  0  0  0  0  0  0  0  0  0  0
   -4.5172   -0.9354   -0.8498 C   0  0  0  0  0  0  0  0  0  0  0  0
   -4.7125    0.9336    0.6684 C   0  0  0  0  0  0  0  0  0  0  0  0
   -7.4162    0.7801    0.6087 C   0  0  0  0  0  0  0  0  0  0  0  0
    5.8701   -1.1477    0.4974 H   0  0  0  0  0  0  0  0  0  0  0  0
    3.2093    2.9007   -0.5805 H   0  0  0  0  0  0  0  0  0  0  0  0
   -0.7048    1.2218    0.3906 H   0  0  0  0  0  0  0  0  0  0  0  0
   -0.5362   -1.7067   -0.6075 H   0  0  0  0  0  0  0  0  0  0  0  0
   -2.5502   -1.5263   -1.4010 H   0  0  0  0  0  0  0  0  0  0  0  0
   -2.8708    1.8095    1.3368 H   0  0  0  0  0  0  0  0  0  0  0  0
    6.9892    1.0297    0.2118 H   0  0  0  0  0  0  0  0  0  0  0  0
    5.6621    3.0540   -0.3268 H   0  0  0  0  0  0  0  0  0  0  0  0
   -4.9776   -1.7029   -1.4661 H   0  0  0  0  0  0  0  0  0  0  0  0
   -5.2678    1.6508    1.2631 H   0  0  0  0  0  0  0  0  0  0  0  0
   -7.2207    0.6637    1.6801 H   0  0  0  0  0  0  0  0  0  0  0  0
   -8.4759    0.5540    0.4508 H   0  0  0  0  0  0  0  0  0  0  0  0
   -7.2543    1.8079    0.2664 H   0  0  0  0  0  0  0  0  0  0  0  0
  1  8  1  0  0  0  0
  1 11  1  0  0  0  0
  2 18  1  0  0  0  0
  2 21  1  0  0  0  0
  3 11  2  0  0  0  0
  4  6  1  0  0  0  0
  4  8  2  0  0  0  0
  5  6  1  0  0  0  0
  5  9  2  0  0  0  0
  5 11  1  0  0  0  0
  6 10  2  0  0  0  0
  7 12  1  0  0  0  0
  7 14  2  0  0  0  0
  7 15  1  0  0  0  0
  8 13  1  0  0  0  0
  9 16  1  0  0  0  0
  9 22  1  0  0  0  0
 10 17  1  0  0  0  0
 10 23  1  0  0  0  0
 12 13  2  0  0  0  0
 12 24  1  0  0  0  0
 13 25  1  0  0  0  0
 14 19  1  0  0  0  0
 14 26  1  0  0  0  0
 15 20  2  0  0  0  0
 15 27  1  0  0  0  0
 16 17  2  0  0  0  0
 16 28  1  0  0  0  0
 17 29  1  0  0  0  0
 18 19  2  0  0  0  0
 18 20  1  0  0  0  0
 19 30  1  0  0  0  0
 20 31  1  0  0  0  0
 21 32  1  0  0  0  0
 21 33  1  0  0  0  0
 21 34  1  0  0  0  0
M  END
> <PUBCHEM_COMPOUND_CID>
5739396

> <PUBCHEM_CONFORMER_RMSD>
0.6

> <PUBCHEM_CONFORMER_DIVERSEORDER>
1
5
2
4
3
8
7
6

> <PUBCHEM_MMFF94_PARTIAL_CHARGES>
31
1 -0.3
10 -0.15
11 0.63
12 -0.18
13 -0.14
14 -0.15
15 -0.15
16 -0.15
17 -0.15
18 0.08
19 -0.15
2 -0.36
20 -0.15
21 0.28
22 0.15
23 0.15
24 0.15
25 0.15
26 0.15
27 0.15
28 0.15
29 0.15
3 -0.57
30 0.15
31 0.15
4 -0.63
5 0.09
6 0.18
7 0.03
8 0.59
9 -0.15

> <PUBCHEM_EFFECTIVE_ROTOR_COUNT>
3

> <PUBCHEM_PHARMACOPHORE_FEATURES>
5
1 2 acceptor
1 3 acceptor
6 1 4 5 6 8 11 rings
6 5 6 9 10 16 17 rings
6 7 14 15 18 19 20 rings

> <PUBCHEM_HEAVY_ATOM_COUNT>
21

> <PUBCHEM_ATOM_DEF_STEREO_COUNT>
0

> <PUBCHEM_ATOM_UDEF_STEREO_COUNT>
0

> <PUBCHEM_BOND_DEF_STEREO_COUNT>
1

> <PUBCHEM_BOND_UDEF_STEREO_COUNT>
0

> <PUBCHEM_ISOTOPIC_ATOM_COUNT>
0

> <PUBCHEM_COMPONENT_COUNT>
1

> <PUBCHEM_CACTVS_TAUTO_COUNT>
1

> <PUBCHEM_CONFORMER_ID>
0057938400000001

> <PUBCHEM_MMFF94_ENERGY>
74.6195

> <PUBCHEM_FEATURE_SELFOVERLAP>
25.404

> <PUBCHEM_SHAPE_FINGERPRINT>
10 15 17458624566667204992
10354089 29 18410293610176998164
10411042 1 18048313341970807546
10554248 39 17916016859793855109
10595046 47 18413669127943311407
10670039 82 16414931767903633000
10688039 33 17458339724151532428
10912923 1 18201719535658652227
11524674 6 15864075386527314737
12107183 9 17764874589060575153
12236239 1 18273494584940592975
12596602 18 18407761435162273483
12730499 353 18186241732081343218
12788726 201 17489596623657162153
13073987 5 18336266752291055633
13167372 99 18341051813815335449
13167823 11 18342173354034901983
13533116 47 18260547775383802858
13631057 29 18196367250673589743
13785724 45 17693661411738358374
13955234 65 18334287648720542882
14251732 16 18336829788164980299
14251764 18 18059858377254472435
14341114 176 18409452466317050351
14461889 52 18187929546448359467
14528608 73 18342738554703868428
14933364 13 18408605859876036205
15250474 111 18200295702308291255
15475509 35 16154256223234124450
17834072 33 18413386548790818591
17844677 252 18337676295674105413
18335252 98 18335145341026263027
19427546 62 18261395611071680106
20157964 124 18408324380097748242
20511986 3 18270666636907881677
20645477 70 18336826394967002910
21033648 29 17241309365579821197
21065198 48 18342460296599646745
21267235 1 18337673010820864798
21344244 78 18197762342213654890
220451 1 18201718462080416959
22224240 67 18113896109157328088
23081809 10 18060413604529751967
23559900 14 18129934689440148017
29717793 49 17846503621187107702
300161 21 18343297072282578287
3004659 81 18130509639221152574
335352 9 18409171018128385230
34797466 226 16200156538057023608
3545911 37 18334576858157451327
397830 11 16951425388960587945
4073 2 18113906008371591723
42630746 31 18409730656166135886
4325135 7 18343302565445698469
4340502 62 17603302661229695682
474 4 18261675986483976484
5104073 3 18261961739216407673
542803 24 18131632291947758797
5758199 1 18411136983199131184
67856867 119 18269834371209883005
8272917 22 18411702067603670630

> <PUBCHEM_SHAPE_MULTIPOLES>
409.58
17.76
1.86
0.78
16.37
0.32
-0.01
-4.78
1.42
-2.83
0.12
0.41
0.02
-1.39

> <PUBCHEM_SHAPE_SELFOVERLAP>
900.423

> <PUBCHEM_SHAPE_VOLUME>
219.2

> <PUBCHEM_COORDINATE_TYPE>
2
5
10

$$$$
