2894929
  -OEChem-01171809303D

 51 52  0     1  0  0  0  0  0999 V2000
    0.3130   -4.1105   -1.1848 Cl  0  0  0  0  0  0  0  0  0  0  0  0
    1.9799   -2.1759   -2.5891 Cl  0  0  0  0  0  0  0  0  0  0  0  0
    3.1068   -3.8372   -0.4800 Cl  0  0  0  0  0  0  0  0  0  0  0  0
    2.8488   -1.4266    2.8776 S   0  0  0  0  0  0  0  0  0  0  0  0
   -2.8791    0.6629    0.8719 O   0  0  0  0  0  0  0  0  0  0  0  0
   -0.7177   -0.6228    1.8304 O   0  0  0  0  0  0  0  0  0  0  0  0
    0.0437   -1.1360   -0.3073 N   0  0  0  0  0  0  0  0  0  0  0  0
    2.3516   -0.8796    0.2591 N   0  0  0  0  0  0  0  0  0  0  0  0
    4.0386    0.3530    1.3588 N   0  0  0  0  0  0  0  0  0  0  0  0
    1.2638   -1.8535    0.0642 C   0  0  2  0  0  0  0  0  0  0  0  0
    1.6477   -2.9206   -0.9906 C   0  0  0  0  0  0  0  0  0  0  0  0
    4.4993    1.1654    0.2939 C   0  0  0  0  0  0  0  0  0  0  0  0
   -6.8956    0.9692   -0.1855 C   0  0  0  0  0  0  0  0  0  0  0  0
   -0.8382   -0.5847    0.6091 C   0  0  0  0  0  0  0  0  0  0  0  0
    3.0517   -0.6123    1.4162 C   0  0  0  0  0  0  0  0  0  0  0  0
   -2.0043    0.0922   -0.0778 C   0  0  0  0  0  0  0  0  0  0  0  0
   -8.3335    1.0786   -0.5648 C   0  0  0  0  0  0  0  0  0  0  0  0
    5.8167    1.6224    0.2609 C   0  0  0  0  0  0  0  0  0  0  0  0
   -4.2051    0.7643    0.5227 C   0  0  0  0  0  0  0  0  0  0  0  0
   -6.5370    0.8066    1.1527 C   0  0  0  0  0  0  0  0  0  0  0  0
   -5.9089    1.0292   -1.1696 C   0  0  0  0  0  0  0  0  0  0  0  0
   -5.1919    0.7042    1.5068 C   0  0  0  0  0  0  0  0  0  0  0  0
   -4.5636    0.9269   -0.8155 C   0  0  0  0  0  0  0  0  0  0  0  0
    3.6169    1.5065   -0.7311 C   0  0  0  0  0  0  0  0  0  0  0  0
    6.2517    2.4205   -0.7971 C   0  0  0  0  0  0  0  0  0  0  0  0
   -8.9602   -0.2808   -0.8647 C   0  0  0  0  0  0  0  0  0  0  0  0
    6.7836    1.2730    1.3453 C   0  0  0  0  0  0  0  0  0  0  0  0
    4.0520    2.3044   -1.7893 C   0  0  0  0  0  0  0  0  0  0  0  0
    5.3694    2.7615   -1.8223 C   0  0  0  0  0  0  0  0  0  0  0  0
    1.0504   -2.3574    1.0115 H   0  0  0  0  0  0  0  0  0  0  0  0
   -0.1209   -0.9822   -1.2980 H   0  0  0  0  0  0  0  0  0  0  0  0
    2.7313   -0.5585   -0.6179 H   0  0  0  0  0  0  0  0  0  0  0  0
   -1.6122    0.8789   -0.7326 H   0  0  0  0  0  0  0  0  0  0  0  0
   -2.4996   -0.6832   -0.6776 H   0  0  0  0  0  0  0  0  0  0  0  0
   -8.8965    1.5692    0.2391 H   0  0  0  0  0  0  0  0  0  0  0  0
   -8.4413    1.7301   -1.4410 H   0  0  0  0  0  0  0  0  0  0  0  0
    4.6191    0.3812    2.1932 H   0  0  0  0  0  0  0  0  0  0  0  0
   -7.2964    0.7564    1.9286 H   0  0  0  0  0  0  0  0  0  0  0  0
   -6.1755    1.1592   -2.2152 H   0  0  0  0  0  0  0  0  0  0  0  0
   -4.9181    0.5770    2.5505 H   0  0  0  0  0  0  0  0  0  0  0  0
   -3.8249    1.0033   -1.6078 H   0  0  0  0  0  0  0  0  0  0  0  0
    2.5522    1.3027   -0.6995 H   0  0  0  0  0  0  0  0  0  0  0  0
    7.2739    2.7873   -0.8376 H   0  0  0  0  0  0  0  0  0  0  0  0
   -8.9091   -0.9415    0.0073 H   0  0  0  0  0  0  0  0  0  0  0  0
  -10.0130   -0.1592   -1.1384 H   0  0  0  0  0  0  0  0  0  0  0  0
   -8.4479   -0.7785   -1.6950 H   0  0  0  0  0  0  0  0  0  0  0  0
    7.7923    1.6384    1.1228 H   0  0  0  0  0  0  0  0  0  0  0  0
    6.8565    0.1867    1.4639 H   0  0  0  0  0  0  0  0  0  0  0  0
    6.4747    1.7244    2.2939 H   0  0  0  0  0  0  0  0  0  0  0  0
    3.3576    2.5961   -2.5720 H   0  0  0  0  0  0  0  0  0  0  0  0
    5.7059    3.3890   -2.6423 H   0  0  0  0  0  0  0  0  0  0  0  0
  1 11  1  0  0  0  0
  2 11  1  0  0  0  0
  3 11  1  0  0  0  0
  4 15  2  0  0  0  0
  5 16  1  0  0  0  0
  5 19  1  0  0  0  0
  6 14  2  0  0  0  0
  7 10  1  0  0  0  0
  7 14  1  0  0  0  0
  7 31  1  0  0  0  0
  8 10  1  0  0  0  0
  8 15  1  0  0  0  0
  8 32  1  0  0  0  0
  9 12  1  0  0  0  0
  9 15  1  0  0  0  0
  9 37  1  0  0  0  0
 10 11  1  0  0  0  0
 10 30  1  0  0  0  0
 12 18  1  0  0  0  0
 12 24  2  0  0  0  0
 13 17  1  0  0  0  0
 13 20  2  0  0  0  0
 13 21  1  0  0  0  0
 14 16  1  0  0  0  0
 16 33  1  0  0  0  0
 16 34  1  0  0  0  0
 17 26  1  0  0  0  0
 17 35  1  0  0  0  0
 17 36  1  0  0  0  0
 18 25  2  0  0  0  0
 18 27  1  0  0  0  0
 19 22  2  0  0  0  0
 19 23  1  0  0  0  0
 20 22  1  0  0  0  0
 20 38  1  0  0  0  0
 21 23  2  0  0  0  0
 21 39  1  0  0  0  0
 22 40  1  0  0  0  0
 23 41  1  0  0  0  0
 24 28  1  0  0  0  0
 24 42  1  0  0  0  0
 25 29  1  0  0  0  0
 25 43  1  0  0  0  0
 26 44  1  0  0  0  0
 26 45  1  0  0  0  0
 26 46  1  0  0  0  0
 27 47  1  0  0  0  0
 27 48  1  0  0  0  0
 27 49  1  0  0  0  0
 28 29  2  0  0  0  0
 28 50  1  0  0  0  0
 29 51  1  0  0  0  0
M  END
> <PUBCHEM_COMPOUND_CID>
2894929

> <PUBCHEM_CONFORMER_RMSD>
1.2

> <PUBCHEM_CONFORMER_DIVERSEORDER>
1
101
192
88
217
246
103
100
240
44
156
211
142
137
126
66
250
37
77
198
173
6
98
111
223
104
39
55
125
5
69
233
203
61
29
195
188
54
182
47
165
258
169
23
132
32
58
157
67
2
146
141
206
129
149
3
245
193
74
234
33
50
16
241
220
158
114
154
229
94
92
91
247
210
28
110
232
172
25
119
82
18
105
255
183
51
236
24
96
128
235
222
184
135
257
123
194
4
78
164
87
166
97
36
181
221
145
227
48
214
205
138
116
59
99
163
252
144
179
95
63
90
83
34
199
76
239
186
70
86
243
162
117
237
209
27
73
62
121
113
225
219
26
180
178
102
12
160
8
107
136
19
118
13
127
38
159
251
53
131
35
120
22
143
226
20
57
155
68
85
176
108
30
60
124
134
208
75
167
10
174
81
216
52
7
93
187
14
84
185
244
152
191
153
207
31
64
45
21
259
238
139
177
171
256
260
189
115
249
200
212
42
213
190
248
231
147
253
150
79
204
175
17
202
112
197
46
261
151
49
228
11
65
80
106
170
109
71
89
201
218
122
140
72
161
41
56
15
40
148
133
254
168
215
130
43
230
9
224
242
196

> <PUBCHEM_MMFF94_PARTIAL_CHARGES>
39
1 -0.29
10 0.6
11 0.87
12 0.12
13 -0.14
14 0.57
15 0.5
16 0.34
17 0.14
18 -0.14
19 0.08
2 -0.29
20 -0.15
21 -0.15
22 -0.15
23 -0.15
24 -0.15
25 -0.15
27 0.14
28 -0.15
29 -0.15
3 -0.29
31 0.37
32 0.37
37 0.37
38 0.15
39 0.15
4 -0.38
40 0.15
41 0.15
42 0.15
43 0.15
5 -0.36
50 0.15
51 0.15
6 -0.57
7 -0.73
8 -0.73
9 -0.55

> <PUBCHEM_EFFECTIVE_ROTOR_COUNT>
11

> <PUBCHEM_PHARMACOPHORE_FEATURES>
9
1 26 hydrophobe
1 4 acceptor
1 5 acceptor
1 6 acceptor
1 7 donor
1 8 donor
1 9 donor
6 12 18 24 25 28 29 rings
6 13 19 20 21 22 23 rings

> <PUBCHEM_HEAVY_ATOM_COUNT>
29

> <PUBCHEM_ATOM_DEF_STEREO_COUNT>
0

> <PUBCHEM_ATOM_UDEF_STEREO_COUNT>
1

> <PUBCHEM_BOND_DEF_STEREO_COUNT>
0

> <PUBCHEM_BOND_UDEF_STEREO_COUNT>
0

> <PUBCHEM_ISOTOPIC_ATOM_COUNT>
0

> <PUBCHEM_COMPONENT_COUNT>
1

> <PUBCHEM_CACTVS_TAUTO_COUNT>
6

> <PUBCHEM_CONFORMER_ID>
002C2C5100000001

> <PUBCHEM_MMFF94_ENERGY>
86.3645

> <PUBCHEM_FEATURE_SELFOVERLAP>
45.749

> <PUBCHEM_SHAPE_FINGERPRINT>
11505856 67 17031653586942640350
11823591 26 18342736351754748240
13150687 139 17918004879938144478
13540713 5 17344081670889457563
14118638 360 17703790281052701745
14294032 229 18197224860826071318
14705955 166 15358242823795139996
15183329 4 13758081792009694289
15352257 5 12823291317343900149
15475509 35 10159699066827355068
15799311 1 16630526211787101943
17844677 252 18126007066639332009
17980427 23 17749955590788147351
20157964 124 17967248685108900041
20554085 129 17703779337201686330
21304303 94 14908183049412537876
21716022 299 16270261241041772886
22149856 69 18130510731018162875
23081809 10 17846218796742567673
23522609 53 17488485000591240465
23559900 14 18189351073260065611
27425 322 18113621230992441018
3411729 13 18113903762472499256
34797466 226 18261956254891069849
397830 11 17749683964709178955
439807 62 12751246908354261269
44880568 143 18189608338629664589

> <PUBCHEM_SHAPE_MULTIPOLES>
579.58
22.04
3.79
2.15
42.85
4.06
0.42
-18.61
-2.09
-7.03
-2.39
-2.18
0.48
-1.25

> <PUBCHEM_SHAPE_SELFOVERLAP>
1159.673

> <PUBCHEM_SHAPE_VOLUME>
343

> <PUBCHEM_COORDINATE_TYPE>
2
5
10

$$$$
