4331266
  -OEChem-01171810143D

 37 39  0     0  0  0  0  0  0999 V2000
   -0.6304    0.7014    1.6083 S   0  0  0  0  0  0  0  0  0  0  0  0
   -0.3763   -2.4448   -0.0750 O   0  0  0  0  0  0  0  0  0  0  0  0
    0.4655   -2.7054    2.0515 O   0  0  0  0  0  0  0  0  0  0  0  0
    2.3524    3.6021    0.3865 O   0  5  0  0  0  0  0  0  0  0  0  0
    0.4182    3.0197    1.2462 O   0  0  0  0  0  0  0  0  0  0  0  0
    4.9809   -1.7724   -1.1065 O   0  5  0  0  0  0  0  0  0  0  0  0
    5.4503    0.3696   -1.2105 O   0  0  0  0  0  0  0  0  0  0  0  0
   -3.8673    0.0929    1.2024 N   0  0  0  0  0  0  0  0  0  0  0  0
    1.5194    2.7300    0.7244 N   0  3  0  0  0  0  0  0  0  0  0  0
    4.6791   -0.5715   -0.9040 N   0  3  0  0  0  0  0  0  0  0  0  0
   -1.1594    1.2950   -0.9765 N   0  0  0  0  0  0  0  0  0  0  0  0
   -5.1088    0.3222   -0.6346 N   0  0  0  0  0  0  0  0  0  0  0  0
   -3.3261    1.1174   -2.0837 N   0  0  0  0  0  0  0  0  0  0  0  0
    0.9535    0.3303    0.8595 C   0  0  0  0  0  0  0  0  0  0  0  0
    1.3196   -0.9994    0.6214 C   0  0  0  0  0  0  0  0  0  0  0  0
    1.8359    1.3580    0.5069 C   0  0  0  0  0  0  0  0  0  0  0  0
    2.5514   -1.2976    0.0388 C   0  0  0  0  0  0  0  0  0  0  0  0
    3.4254   -0.2680   -0.3099 C   0  0  0  0  0  0  0  0  0  0  0  0
    3.0677    1.0598   -0.0759 C   0  0  0  0  0  0  0  0  0  0  0  0
   -3.0173    0.5482    0.2351 C   0  0  0  0  0  0  0  0  0  0  0  0
   -1.6722    0.8583    0.1958 C   0  0  0  0  0  0  0  0  0  0  0  0
    0.4520   -2.1225    0.9627 C   0  0  0  0  0  0  0  0  0  0  0  0
   -3.8115    0.6828   -0.8958 C   0  0  0  0  0  0  0  0  0  0  0  0
   -5.1080   -0.0269    0.6341 C   0  0  0  0  0  0  0  0  0  0  0  0
   -1.2798   -3.5346    0.1389 C   0  0  0  0  0  0  0  0  0  0  0  0
   -2.0058    1.3961   -2.0290 C   0  0  0  0  0  0  0  0  0  0  0  0
   -2.1084   -3.7407   -1.1111 C   0  0  0  0  0  0  0  0  0  0  0  0
    2.8097   -2.3403   -0.1347 H   0  0  0  0  0  0  0  0  0  0  0  0
    3.7553    1.8560   -0.3512 H   0  0  0  0  0  0  0  0  0  0  0  0
   -3.6275   -0.1187    2.1620 H   0  0  0  0  0  0  0  0  0  0  0  0
   -5.9626   -0.3729    1.1980 H   0  0  0  0  0  0  0  0  0  0  0  0
   -0.7087   -4.4428    0.3606 H   0  0  0  0  0  0  0  0  0  0  0  0
   -1.9360   -3.3011    0.9846 H   0  0  0  0  0  0  0  0  0  0  0  0
   -1.5614    1.7489   -2.9534 H   0  0  0  0  0  0  0  0  0  0  0  0
   -2.8123   -4.5676   -0.9822 H   0  0  0  0  0  0  0  0  0  0  0  0
   -2.6702   -2.8325   -1.3541 H   0  0  0  0  0  0  0  0  0  0  0  0
   -1.4638   -3.9548   -1.9699 H   0  0  0  0  0  0  0  0  0  0  0  0
  1 14  1  0  0  0  0
  1 21  1  0  0  0  0
  2 22  1  0  0  0  0
  2 25  1  0  0  0  0
  3 22  2  0  0  0  0
  4  9  1  0  0  0  0
  5  9  2  0  0  0  0
  6 10  1  0  0  0  0
  7 10  2  0  0  0  0
  8 20  1  0  0  0  0
  8 24  1  0  0  0  0
  8 30  1  0  0  0  0
  9 16  1  0  0  0  0
 10 18  1  0  0  0  0
 11 21  2  0  0  0  0
 11 26  1  0  0  0  0
 12 23  1  0  0  0  0
 12 24  2  0  0  0  0
 13 23  1  0  0  0  0
 13 26  2  0  0  0  0
 14 15  2  0  0  0  0
 14 16  1  0  0  0  0
 15 17  1  0  0  0  0
 15 22  1  0  0  0  0
 16 19  2  0  0  0  0
 17 18  2  0  0  0  0
 17 28  1  0  0  0  0
 18 19  1  0  0  0  0
 19 29  1  0  0  0  0
 20 21  1  0  0  0  0
 20 23  2  0  0  0  0
 24 31  1  0  0  0  0
 25 27  1  0  0  0  0
 25 32  1  0  0  0  0
 25 33  1  0  0  0  0
 26 34  1  0  0  0  0
 27 35  1  0  0  0  0
 27 36  1  0  0  0  0
 27 37  1  0  0  0  0
M  CHG  4   4  -1   6  -1   9   1  10   1
M  END
> <PUBCHEM_COMPOUND_CID>
4331266

> <PUBCHEM_CONFORMER_RMSD>
0.8

> <PUBCHEM_CONFORMER_DIVERSEORDER>
1
18
31
27
24
43
12
37
33
39
36
7
42
8
19
28
38
26
13
17
25
23
44
16
30
2
9
41
34
11
35
3
29
6
14
45
40
5
10
20
4
21
22
32
15

> <PUBCHEM_MMFF94_PARTIAL_CHARGES>
31
1 -0.2
10 0.91
11 -0.62
12 -0.57
13 -0.57
14 0.1
15 0.09
16 0.13
17 -0.15
18 0.13
19 -0.15
2 -0.43
20 -0.15
21 0.41
22 0.63
23 0.48
24 0.04
25 0.28
26 0.47
28 0.15
29 0.15
3 -0.57
30 0.27
31 0.15
34 0.15
4 -0.52
5 -0.52
6 -0.52
7 -0.52
8 0.03
9 0.91

> <PUBCHEM_EFFECTIVE_ROTOR_COUNT>
7

> <PUBCHEM_PHARMACOPHORE_FEATURES>
14
1 11 acceptor
1 3 acceptor
1 4 acceptor
1 4 anion
1 5 acceptor
1 6 acceptor
1 6 anion
1 7 acceptor
1 8 donor
3 11 13 26 cation
3 8 12 24 cation
5 8 12 20 23 24 rings
6 11 13 20 21 23 26 rings
6 14 15 16 17 18 19 rings

> <PUBCHEM_HEAVY_ATOM_COUNT>
27

> <PUBCHEM_ATOM_DEF_STEREO_COUNT>
0

> <PUBCHEM_ATOM_UDEF_STEREO_COUNT>
0

> <PUBCHEM_BOND_DEF_STEREO_COUNT>
0

> <PUBCHEM_BOND_UDEF_STEREO_COUNT>
0

> <PUBCHEM_ISOTOPIC_ATOM_COUNT>
0

> <PUBCHEM_COMPONENT_COUNT>
1

> <PUBCHEM_CACTVS_TAUTO_COUNT>
4

> <PUBCHEM_CONFORMER_ID>
0042170200000001

> <PUBCHEM_MMFF94_ENERGY>
84.8586

> <PUBCHEM_FEATURE_SELFOVERLAP>
71.344

> <PUBCHEM_SHAPE_FINGERPRINT>
10165383 225 18259709982041113013
10366900 7 18113333086073502505
11578080 2 16915371332875083274
12236239 1 17418376887370744977
12422481 6 17976567180032024675
12553582 1 18200865180368382349
13149001 5 18341054111632978968
13911987 19 18263382351304977452
14790565 3 18269287767606779880
17492 54 18408325458129466066
1813 80 17632022957478241612
20465049 17 18411418406282949231
20775438 99 17482793000112960071
22393880 68 18336815451521695023
23402539 116 18129386995226275528
23558518 356 17829883587767739610
23559900 14 18200315541484300600
23566358 2 18126283288359278312
238 59 17975376236833742295
3060560 45 18335129886784002153
3323516 105 18408037407774187617
3524813 1 18259984868443006893
3729539 64 18264497200166470070
469060 322 17024292223477645767
59554788 170 18408042931144705093
6287921 2 17902232552646010693
6669772 16 18336817693705678832
81228 2 17612020882278760155

> <PUBCHEM_SHAPE_MULTIPOLES>
494.39
8.86
3.77
1.61
0.96
2.06
0.22
-0.58
3.55
0.37
-0.31
-0.61
-0.1
0.7

> <PUBCHEM_SHAPE_SELFOVERLAP>
1069.472

> <PUBCHEM_SHAPE_VOLUME>
273.2

> <PUBCHEM_COORDINATE_TYPE>
2
5
10

$$$$
