3432739
  -OEChem-01171809483D

 49 50  0     1  0  0  0  0  0999 V2000
   -5.0654   -0.0232    2.0889 O   0  0  0  0  0  0  0  0  0  0  0  0
    2.0955    0.2897   -0.9151 O   0  0  0  0  0  0  0  0  0  0  0  0
   -0.1709    1.6400   -0.7369 O   0  0  0  0  0  0  0  0  0  0  0  0
    2.9990    2.4038   -0.4351 O   0  5  0  0  0  0  0  0  0  0  0  0
    4.9655    2.7126    0.4903 O   0  0  0  0  0  0  0  0  0  0  0  0
   -3.8205   -0.4216   -0.4251 N   0  0  0  0  0  0  0  0  0  0  0  0
    5.4091    0.0592    0.6223 N   0  0  0  0  0  0  0  0  0  0  0  0
    4.0647    1.9685    0.0494 N   0  3  0  0  0  0  0  0  0  0  0  0
   -5.2515   -0.0925   -0.3188 C   0  0  1  0  0  0  0  0  0  0  0  0
   -2.8271    0.4979   -0.5156 C   0  0  0  0  0  0  0  0  0  0  0  0
   -3.3250   -1.6844   -0.4456 C   0  0  0  0  0  0  0  0  0  0  0  0
   -1.6410   -0.1974   -0.5974 C   0  0  0  0  0  0  0  0  0  0  0  0
   -5.5643    0.6897    0.9630 C   0  0  0  0  0  0  0  0  0  0  0  0
   -1.9560   -1.5781   -0.5529 C   0  0  0  0  0  0  0  0  0  0  0  0
   -5.7546    0.6439   -1.5625 C   0  0  0  0  0  0  0  0  0  0  0  0
   -3.0831    1.9547   -0.5166 C   0  0  0  0  0  0  0  0  0  0  0  0
   -4.1773   -2.8884   -0.3628 C   0  0  0  0  0  0  0  0  0  0  0  0
   -0.3410    0.4003   -0.7065 C   0  0  0  0  0  0  0  0  0  0  0  0
    0.9173   -0.4830   -0.7907 C   0  0  0  0  0  0  0  0  0  0  0  0
   -5.2743    0.6976    3.2950 C   0  0  0  0  0  0  0  0  0  0  0  0
    3.2493   -0.2413   -0.3920 C   0  0  0  0  0  0  0  0  0  0  0  0
    4.2624    0.5510    0.1021 C   0  0  0  0  0  0  0  0  0  0  0  0
    3.3990   -1.6161   -0.3606 C   0  0  0  0  0  0  0  0  0  0  0  0
    4.5649   -2.1599    0.1672 C   0  0  0  0  0  0  0  0  0  0  0  0
    5.5309   -1.2871    0.6413 C   0  0  0  0  0  0  0  0  0  0  0  0
    6.7946   -1.8358    1.2147 C   0  0  0  0  0  0  0  0  0  0  0  0
   -5.7915   -1.0422   -0.2572 H   0  0  0  0  0  0  0  0  0  0  0  0
   -6.6532    0.7854    1.0625 H   0  0  0  0  0  0  0  0  0  0  0  0
   -5.1532    1.7020    0.9605 H   0  0  0  0  0  0  0  0  0  0  0  0
   -1.2668   -2.4108   -0.5943 H   0  0  0  0  0  0  0  0  0  0  0  0
   -5.8672    1.7222   -1.4224 H   0  0  0  0  0  0  0  0  0  0  0  0
   -6.7636    0.2848   -1.8012 H   0  0  0  0  0  0  0  0  0  0  0  0
   -5.1349    0.4561   -2.4456 H   0  0  0  0  0  0  0  0  0  0  0  0
   -2.3940    2.4606   -1.2013 H   0  0  0  0  0  0  0  0  0  0  0  0
   -2.9046    2.3637    0.4839 H   0  0  0  0  0  0  0  0  0  0  0  0
   -4.0614    2.2829   -0.8431 H   0  0  0  0  0  0  0  0  0  0  0  0
   -3.5667   -3.7972   -0.4005 H   0  0  0  0  0  0  0  0  0  0  0  0
   -4.8798   -2.9352   -1.2012 H   0  0  0  0  0  0  0  0  0  0  0  0
   -4.7377   -2.9134    0.5774 H   0  0  0  0  0  0  0  0  0  0  0  0
    0.8186   -1.1299   -1.6696 H   0  0  0  0  0  0  0  0  0  0  0  0
    0.9193   -1.0785    0.1317 H   0  0  0  0  0  0  0  0  0  0  0  0
   -4.8919    0.0973    4.1249 H   0  0  0  0  0  0  0  0  0  0  0  0
   -4.7310    1.6473    3.2734 H   0  0  0  0  0  0  0  0  0  0  0  0
   -6.3417    0.8767    3.4563 H   0  0  0  0  0  0  0  0  0  0  0  0
    2.6571   -2.3012   -0.7583 H   0  0  0  0  0  0  0  0  0  0  0  0
    4.7059   -3.2351    0.1958 H   0  0  0  0  0  0  0  0  0  0  0  0
    6.5763   -2.4708    2.0792 H   0  0  0  0  0  0  0  0  0  0  0  0
    7.4583   -1.0305    1.5464 H   0  0  0  0  0  0  0  0  0  0  0  0
    7.3292   -2.4255    0.4632 H   0  0  0  0  0  0  0  0  0  0  0  0
  1 13  1  0  0  0  0
  1 20  1  0  0  0  0
  2 19  1  0  0  0  0
  2 21  1  0  0  0  0
  3 18  2  0  0  0  0
  4  8  1  0  0  0  0
  5  8  2  0  0  0  0
  6  9  1  0  0  0  0
  6 10  1  0  0  0  0
  6 11  1  0  0  0  0
  7 22  1  0  0  0  0
  7 25  2  0  0  0  0
  8 22  1  0  0  0  0
  9 13  1  0  0  0  0
  9 15  1  0  0  0  0
  9 27  1  0  0  0  0
 10 12  2  0  0  0  0
 10 16  1  0  0  0  0
 11 14  2  0  0  0  0
 11 17  1  0  0  0  0
 12 14  1  0  0  0  0
 12 18  1  0  0  0  0
 13 28  1  0  0  0  0
 13 29  1  0  0  0  0
 14 30  1  0  0  0  0
 15 31  1  0  0  0  0
 15 32  1  0  0  0  0
 15 33  1  0  0  0  0
 16 34  1  0  0  0  0
 16 35  1  0  0  0  0
 16 36  1  0  0  0  0
 17 37  1  0  0  0  0
 17 38  1  0  0  0  0
 17 39  1  0  0  0  0
 18 19  1  0  0  0  0
 19 40  1  0  0  0  0
 19 41  1  0  0  0  0
 20 42  1  0  0  0  0
 20 43  1  0  0  0  0
 20 44  1  0  0  0  0
 21 22  2  0  0  0  0
 21 23  1  0  0  0  0
 23 24  2  0  0  0  0
 23 45  1  0  0  0  0
 24 25  1  0  0  0  0
 24 46  1  0  0  0  0
 25 26  1  0  0  0  0
 26 47  1  0  0  0  0
 26 48  1  0  0  0  0
 26 49  1  0  0  0  0
M  CHG  2   4  -1   8   1
M  END
> <PUBCHEM_COMPOUND_CID>
3432739

> <PUBCHEM_CONFORMER_RMSD>
1

> <PUBCHEM_CONFORMER_DIVERSEORDER>
1
723
772
121
257
70
69
55
13
614
765
95
108
358
54
56
4
208
499
385
86
399
365
305
23
747
812
26
72
366
506
383
74
186
272
129
155
434
30
112
692
400
20
3
439
269
493
97
406
7
759
172
27
791
130
268
2
395
640
16
729
171
728
829
150
397
317
603
256
259
475
415
143
279
31
113
582
136
125
49
308
261
111
605
101
116
45
118
91
191
371
253
823
282
35
212
41
314
247
276
323
270
505
194
318
408
5
313
348
501
820
209
123
78
381
498
105
509
262
157
243
360
540
98
373
797
299
530
460
321
544
468
87
151
502
177
763
6
494
560
349
651
32
22
719
463
289
275
168
570
146
85
182
102
303
135
9
689
140
196
485
59
258
649
222
513
329
290
166
106
697
44
757
164
93
617
28
824
76
19
14
21
503
114
234
771
51
215
36
82
12
598
250
206
61
260
142
39
394
442
158
788
307
200
666
24
319
90
160

> <PUBCHEM_MMFF94_PARTIAL_CHARGES>
28
1 -0.56
10 -0.33
11 -0.33
12 -0.09
13 0.28
14 -0.15
16 0.18
17 0.18
18 0.6
19 0.34
2 -0.36
20 0.28
21 0.08
22 0.44
23 -0.15
24 -0.15
25 0.17
26 0.14
3 -0.57
30 0.15
4 -0.52
45 0.15
46 0.15
5 -0.52
6 0.05
7 -0.62
8 0.91
9 0.26

> <PUBCHEM_EFFECTIVE_ROTOR_COUNT>
8

> <PUBCHEM_PHARMACOPHORE_FEATURES>
10
1 1 acceptor
1 2 acceptor
1 3 acceptor
1 4 acceptor
1 4 anion
1 5 acceptor
1 6 cation
1 7 acceptor
5 6 10 11 12 14 rings
6 7 21 22 23 24 25 rings

> <PUBCHEM_HEAVY_ATOM_COUNT>
26

> <PUBCHEM_ATOM_DEF_STEREO_COUNT>
0

> <PUBCHEM_ATOM_UDEF_STEREO_COUNT>
1

> <PUBCHEM_BOND_DEF_STEREO_COUNT>
0

> <PUBCHEM_BOND_UDEF_STEREO_COUNT>
0

> <PUBCHEM_ISOTOPIC_ATOM_COUNT>
0

> <PUBCHEM_COMPONENT_COUNT>
1

> <PUBCHEM_CACTVS_TAUTO_COUNT>
2

> <PUBCHEM_CONFORMER_ID>
0034612300000001

> <PUBCHEM_MMFF94_ENERGY>
75.4197

> <PUBCHEM_FEATURE_SELFOVERLAP>
50.887

> <PUBCHEM_SHAPE_FINGERPRINT>
11315181 36 17846771923578502287
11405975 8 18412262848007581670
11524674 6 16877947140211211683
12107183 9 17979634541977777568
12596602 18 18412270558070016707
12616971 3 18272082808016235406
12633257 1 18343305855285093775
13668630 136 14923950015995277970
13675066 3 17894352185447842813
14341114 176 18410292502128287444
14849402 71 18337668728955118936
15183329 4 18272371974962842140
15196674 1 18337386140521218446
15238133 3 17132119026620788512
15348495 7 18187369860812150179
15352257 5 15936414407427024338
15788980 27 17967531281071906055
17844677 252 18408886209102024996
17857418 61 18408315579894667646
1813 80 16950561094957642916
19489759 90 16558747902171023031
21065198 48 18341611576697009110
21267235 1 18337952282679812822
21792934 111 18336260164001530365
21859007 373 17751343007243604237
22122407 14 16558747944461352946
2303208 19 17458070356354565691
23522609 53 18192179111814293900
23559900 14 18337380625872731628
3633792 109 18338502064115441815
3680242 22 18413112749242471400
4015057 19 18340188791803373621
4073 2 18040715922195178130
4214541 1 18409442557785274740
5104073 3 18341053016015652043
5924683 9 18271238430574005991
8863177 126 17531541956774422970
999808 66 17604159124858212922

> <PUBCHEM_SHAPE_MULTIPOLES>
490.78
17.45
2.53
1.6
8.09
0.04
1.69
-1.98
6.87
1.83
-0.14
-3.29
0.32
-1.19

> <PUBCHEM_SHAPE_SELFOVERLAP>
1031.836

> <PUBCHEM_SHAPE_VOLUME>
277.9

> <PUBCHEM_COORDINATE_TYPE>
2
5
10

$$$$
