162076
  -OEChem-01171809303D

 45 48  0     0  0  0  0  0  0999 V2000
    0.0276    0.3574   -2.9112 O   0  0  0  0  0  0  0  0  0  0  0  0
    5.1736   -0.7460    0.8544 O   0  0  0  0  0  0  0  0  0  0  0  0
   -3.5809   -3.9382    0.2744 O   0  0  0  0  0  0  0  0  0  0  0  0
   -0.7363    2.3267   -1.8983 N   0  0  0  0  0  0  0  0  0  0  0  0
   -0.1769    0.5075   -0.4291 C   0  0  0  0  0  0  0  0  0  0  0  0
   -0.6765    1.7506    0.3081 C   0  0  0  0  0  0  0  0  0  0  0  0
    1.2380    0.1726   -0.0944 C   0  0  0  0  0  0  0  0  0  0  0  0
   -1.0739   -0.6695   -0.2384 C   0  0  0  0  0  0  0  0  0  0  0  0
   -0.2669    1.0114   -1.9205 C   0  0  0  0  0  0  0  0  0  0  0  0
   -0.9797    2.7603   -0.6038 C   0  0  0  0  0  0  0  0  0  0  0  0
   -0.8642    1.9688    1.6657 C   0  0  0  0  0  0  0  0  0  0  0  0
    1.9002   -0.8363   -0.7933 C   0  0  0  0  0  0  0  0  0  0  0  0
   -0.7704   -1.6287    0.7272 C   0  0  0  0  0  0  0  0  0  0  0  0
    1.8968    0.8691    0.9180 C   0  0  0  0  0  0  0  0  0  0  0  0
   -2.2154   -0.8090   -1.0269 C   0  0  0  0  0  0  0  0  0  0  0  0
   -1.4593    3.9978   -0.2201 C   0  0  0  0  0  0  0  0  0  0  0  0
    3.2229   -1.1489   -0.4792 C   0  0  0  0  0  0  0  0  0  0  0  0
   -1.6094   -2.7289    0.9045 C   0  0  0  0  0  0  0  0  0  0  0  0
   -1.3489    3.2135    2.0804 C   0  0  0  0  0  0  0  0  0  0  0  0
   -1.6433    4.2199    1.1448 C   0  0  0  0  0  0  0  0  0  0  0  0
    3.2195    0.5568    1.2320 C   0  0  0  0  0  0  0  0  0  0  0  0
   -3.0545   -1.9091   -0.8496 C   0  0  0  0  0  0  0  0  0  0  0  0
    3.8826   -0.4523    0.5335 C   0  0  0  0  0  0  0  0  0  0  0  0
   -2.7516   -2.8692    0.1160 C   0  0  0  0  0  0  0  0  0  0  0  0
    3.9180   -2.2304   -1.2382 C   0  0  0  0  0  0  0  0  0  0  0  0
   -1.2711   -3.7459    1.9439 C   0  0  0  0  0  0  0  0  0  0  0  0
   -0.8908    2.8996   -2.7196 H   0  0  0  0  0  0  0  0  0  0  0  0
   -0.6638    1.1947    2.3994 H   0  0  0  0  0  0  0  0  0  0  0  0
    1.3946   -1.3915   -1.5794 H   0  0  0  0  0  0  0  0  0  0  0  0
    0.0904   -1.5297    1.3826 H   0  0  0  0  0  0  0  0  0  0  0  0
    1.4895    1.6928    1.4840 H   0  0  0  0  0  0  0  0  0  0  0  0
   -2.5043   -0.0750   -1.7728 H   0  0  0  0  0  0  0  0  0  0  0  0
   -1.6894    4.7707   -0.9446 H   0  0  0  0  0  0  0  0  0  0  0  0
   -1.5059    3.4040    3.1389 H   0  0  0  0  0  0  0  0  0  0  0  0
   -2.0207    5.1787    1.4898 H   0  0  0  0  0  0  0  0  0  0  0  0
    3.7256    1.1128    2.0168 H   0  0  0  0  0  0  0  0  0  0  0  0
   -3.9439   -2.0032   -1.4671 H   0  0  0  0  0  0  0  0  0  0  0  0
    4.7962   -1.8285   -1.7541 H   0  0  0  0  0  0  0  0  0  0  0  0
    4.2346   -3.0285   -0.5586 H   0  0  0  0  0  0  0  0  0  0  0  0
    3.2690   -2.6821   -1.9962 H   0  0  0  0  0  0  0  0  0  0  0  0
   -2.0589   -3.7887    2.7031 H   0  0  0  0  0  0  0  0  0  0  0  0
   -1.1589   -4.7347    1.4866 H   0  0  0  0  0  0  0  0  0  0  0  0
   -0.3311   -3.5138    2.4558 H   0  0  0  0  0  0  0  0  0  0  0  0
    5.4615   -0.1631    1.5777 H   0  0  0  0  0  0  0  0  0  0  0  0
   -4.3166   -3.8658   -0.3576 H   0  0  0  0  0  0  0  0  0  0  0  0
  1  9  2  0  0  0  0
  2 23  1  0  0  0  0
  2 44  1  0  0  0  0
  3 24  1  0  0  0  0
  3 45  1  0  0  0  0
  4  9  1  0  0  0  0
  4 10  1  0  0  0  0
  4 27  1  0  0  0  0
  5  6  1  0  0  0  0
  5  7  1  0  0  0  0
  5  8  1  0  0  0  0
  5  9  1  0  0  0  0
  6 10  1  0  0  0  0
  6 11  2  0  0  0  0
  7 12  2  0  0  0  0
  7 14  1  0  0  0  0
  8 13  2  0  0  0  0
  8 15  1  0  0  0  0
 10 16  2  0  0  0  0
 11 19  1  0  0  0  0
 11 28  1  0  0  0  0
 12 17  1  0  0  0  0
 12 29  1  0  0  0  0
 13 18  1  0  0  0  0
 13 30  1  0  0  0  0
 14 21  2  0  0  0  0
 14 31  1  0  0  0  0
 15 22  2  0  0  0  0
 15 32  1  0  0  0  0
 16 20  1  0  0  0  0
 16 33  1  0  0  0  0
 17 23  2  0  0  0  0
 17 25  1  0  0  0  0
 18 24  2  0  0  0  0
 18 26  1  0  0  0  0
 19 20  2  0  0  0  0
 19 34  1  0  0  0  0
 20 35  1  0  0  0  0
 21 23  1  0  0  0  0
 21 36  1  0  0  0  0
 22 24  1  0  0  0  0
 22 37  1  0  0  0  0
 25 38  1  0  0  0  0
 25 39  1  0  0  0  0
 25 40  1  0  0  0  0
 26 41  1  0  0  0  0
 26 42  1  0  0  0  0
 26 43  1  0  0  0  0
M  END
> <PUBCHEM_COMPOUND_CID>
162076

> <PUBCHEM_CONFORMER_RMSD>
0.6

> <PUBCHEM_CONFORMER_DIVERSEORDER>
1
7
12
6
2
15
5
3
9
13
4
8
10
16
11
18
14
21
23
17
22
19
20

> <PUBCHEM_MMFF94_PARTIAL_CHARGES>
39
1 -0.57
10 0.12
11 -0.15
12 -0.15
13 -0.15
14 -0.15
15 -0.15
16 -0.15
17 -0.14
18 -0.14
19 -0.15
2 -0.53
20 -0.15
21 -0.15
22 -0.15
23 0.08
24 0.08
25 0.14
26 0.14
27 0.37
28 0.15
29 0.15
3 -0.53
30 0.15
31 0.15
32 0.15
33 0.15
34 0.15
35 0.15
36 0.15
37 0.15
4 -0.55
44 0.45
45 0.45
5 0.49
6 -0.14
7 -0.14
8 -0.14
9 0.57

> <PUBCHEM_EFFECTIVE_ROTOR_COUNT>
2.4

> <PUBCHEM_PHARMACOPHORE_FEATURES>
8
1 1 acceptor
1 2 donor
1 3 donor
1 4 donor
5 4 5 6 9 10 rings
6 6 10 11 16 19 20 rings
6 7 12 14 17 21 23 rings
6 8 13 15 18 22 24 rings

> <PUBCHEM_HEAVY_ATOM_COUNT>
26

> <PUBCHEM_ATOM_DEF_STEREO_COUNT>
0

> <PUBCHEM_ATOM_UDEF_STEREO_COUNT>
0

> <PUBCHEM_BOND_DEF_STEREO_COUNT>
0

> <PUBCHEM_BOND_UDEF_STEREO_COUNT>
0

> <PUBCHEM_ISOTOPIC_ATOM_COUNT>
0

> <PUBCHEM_COMPONENT_COUNT>
1

> <PUBCHEM_CACTVS_TAUTO_COUNT>
10

> <PUBCHEM_CONFORMER_ID>
0002791C00000001

> <PUBCHEM_MMFF94_ENERGY>
93.8694

> <PUBCHEM_FEATURE_SELFOVERLAP>
40.684

> <PUBCHEM_SHAPE_FINGERPRINT>
10165383 225 17543653940975104644
107951 10 17839746967578892612
11578080 2 15262057602415708129
11582403 64 15383219544879952741
12160290 23 18188215290569710082
12549972 3 17701807801200096322
12788726 201 18339347596192561610
13004483 165 18340483464755642242
13134695 92 17982441895927218911
13140716 1 18339642342581196107
13681431 1 17977676625053316522
14787075 74 18057300843819687989
14863182 85 15807217775343106603
14955137 171 17548150273507020088
15131766 46 15695437906396476866
15230672 131 16389859969692998484
16945 1 18115009866548040223
17980427 23 17345201201987267843
19591789 44 17833837066677995075
20600515 1 18115022042880843334
21033648 29 17835518220595746384
21120745 212 18122374455909059972
22956985 138 16962374510481041730
23419403 2 17470405949179376389
23558518 356 18198338464198815012
23559900 14 17104798615092222847
283562 15 18409439280920913346
3380486 145 17840839065998156990
35225 105 18053415139192039864
3729539 64 16609728669753384582
38695281 34 9411674948305624665
404807 78 18040707028109485037
495365 180 17259905646812556531
497634 4 18261107470695902204
58260988 521 17181981702456686258
5845 1 14663597353401925229
59755656 520 17980195292971383076
6442390 28 17979083686589282849
6443956 14 18194966472548300347
7364860 26 17543352008763019367
81228 2 18409172090735857882
84936 31 17405416093204473873
9981440 41 17126151977238518184

> <PUBCHEM_SHAPE_MULTIPOLES>
512.48
5.68
5.42
1.97
7.79
7.13
0.47
-4.72
-0.56
-5.26
-2.29
-0.45
-0.35
-0.26

> <PUBCHEM_SHAPE_SELFOVERLAP>
1155.509

> <PUBCHEM_SHAPE_VOLUME>
271.2

> <PUBCHEM_COORDINATE_TYPE>
2
5
10

$$$$
