661082
  -OEChem-01171809163D

 47 50  0     0  0  0  0  0  0999 V2000
   -8.5845    0.3176   -0.2913 Cl  0  0  0  0  0  0  0  0  0  0  0  0
    6.4403    0.0678    0.1709 O   0  0  0  0  0  0  0  0  0  0  0  0
    5.2414   -0.8013   -1.6022 O   0  0  0  0  0  0  0  0  0  0  0  0
    1.8454   -0.0070    0.2648 N   0  0  0  0  0  0  0  0  0  0  0  0
    0.4461    1.8924   -0.2032 N   0  0  0  0  0  0  0  0  0  0  0  0
   -2.7657   -0.5030    0.1531 N   0  0  0  0  0  0  0  0  0  0  0  0
   -1.9875    1.7472   -0.2869 N   0  0  0  0  0  0  0  0  0  0  0  0
   -2.2759   -1.7245    0.4351 N   0  0  0  0  0  0  0  0  0  0  0  0
    4.4920   -1.1324    0.6638 C   0  0  0  0  0  0  0  0  0  0  0  0
    3.9647    0.0187    1.5181 C   0  0  0  0  0  0  0  0  0  0  0  0
    3.3481   -1.9512    0.0693 C   0  0  0  0  0  0  0  0  0  0  0  0
    2.9066    0.8552    0.7993 C   0  0  0  0  0  0  0  0  0  0  0  0
    2.2781   -1.0972   -0.6140 C   0  0  0  0  0  0  0  0  0  0  0  0
    0.5800    0.5637    0.0843 C   0  0  0  0  0  0  0  0  0  0  0  0
    5.4120   -0.6181   -0.4045 C   0  0  0  0  0  0  0  0  0  0  0  0
   -0.5931   -0.1975    0.1903 C   0  0  0  0  0  0  0  0  0  0  0  0
   -1.8017    0.4482   -0.0031 C   0  0  0  0  0  0  0  0  0  0  0  0
   -0.9523   -1.5320    0.4561 C   0  0  0  0  0  0  0  0  0  0  0  0
   -0.8027    2.3904   -0.3673 C   0  0  0  0  0  0  0  0  0  0  0  0
    7.3993    0.6159   -0.7390 C   0  0  0  0  0  0  0  0  0  0  0  0
   -4.1423   -0.3084    0.0472 C   0  0  0  0  0  0  0  0  0  0  0  0
    8.4688    1.3412    0.0494 C   0  0  0  0  0  0  0  0  0  0  0  0
   -4.6880    0.9253    0.3780 C   0  0  0  0  0  0  0  0  0  0  0  0
   -4.9507   -1.3514   -0.3869 C   0  0  0  0  0  0  0  0  0  0  0  0
   -6.0654    1.1193    0.2730 C   0  0  0  0  0  0  0  0  0  0  0  0
   -6.3280   -1.1572   -0.4920 C   0  0  0  0  0  0  0  0  0  0  0  0
   -6.8853    0.0781   -0.1621 C   0  0  0  0  0  0  0  0  0  0  0  0
    5.0953   -1.8037    1.2891 H   0  0  0  0  0  0  0  0  0  0  0  0
    3.5085   -0.4097    2.4209 H   0  0  0  0  0  0  0  0  0  0  0  0
    4.7698    0.6755    1.8664 H   0  0  0  0  0  0  0  0  0  0  0  0
    3.7253   -2.6987   -0.6390 H   0  0  0  0  0  0  0  0  0  0  0  0
    2.8692   -2.5107    0.8841 H   0  0  0  0  0  0  0  0  0  0  0  0
    2.4964    1.5723    1.5219 H   0  0  0  0  0  0  0  0  0  0  0  0
    3.3608    1.4323   -0.0155 H   0  0  0  0  0  0  0  0  0  0  0  0
    2.6612   -0.6706   -1.5484 H   0  0  0  0  0  0  0  0  0  0  0  0
    1.4478   -1.7528   -0.8953 H   0  0  0  0  0  0  0  0  0  0  0  0
   -0.3136   -2.3767    0.6715 H   0  0  0  0  0  0  0  0  0  0  0  0
   -0.8576    3.4498   -0.5939 H   0  0  0  0  0  0  0  0  0  0  0  0
    6.8996    1.3169   -1.4169 H   0  0  0  0  0  0  0  0  0  0  0  0
    7.8533   -0.1930   -1.3221 H   0  0  0  0  0  0  0  0  0  0  0  0
    8.9655    0.6569    0.7451 H   0  0  0  0  0  0  0  0  0  0  0  0
    8.0269    2.1415    0.6521 H   0  0  0  0  0  0  0  0  0  0  0  0
    9.2200    1.7743   -0.6169 H   0  0  0  0  0  0  0  0  0  0  0  0
   -4.1059    1.7494    0.7757 H   0  0  0  0  0  0  0  0  0  0  0  0
   -4.5447   -2.3214   -0.6615 H   0  0  0  0  0  0  0  0  0  0  0  0
   -6.4881    2.0831    0.5452 H   0  0  0  0  0  0  0  0  0  0  0  0
   -6.9547   -1.9766   -0.8346 H   0  0  0  0  0  0  0  0  0  0  0  0
  1 27  1  0  0  0  0
  2 15  1  0  0  0  0
  2 20  1  0  0  0  0
  3 15  2  0  0  0  0
  4 12  1  0  0  0  0
  4 13  1  0  0  0  0
  4 14  1  0  0  0  0
  5 14  2  0  0  0  0
  5 19  1  0  0  0  0
  6  8  1  0  0  0  0
  6 17  1  0  0  0  0
  6 21  1  0  0  0  0
  7 17  1  0  0  0  0
  7 19  2  0  0  0  0
  8 18  2  0  0  0  0
  9 10  1  0  0  0  0
  9 11  1  0  0  0  0
  9 15  1  0  0  0  0
  9 28  1  0  0  0  0
 10 12  1  0  0  0  0
 10 29  1  0  0  0  0
 10 30  1  0  0  0  0
 11 13  1  0  0  0  0
 11 31  1  0  0  0  0
 11 32  1  0  0  0  0
 12 33  1  0  0  0  0
 12 34  1  0  0  0  0
 13 35  1  0  0  0  0
 13 36  1  0  0  0  0
 14 16  1  0  0  0  0
 16 17  2  0  0  0  0
 16 18  1  0  0  0  0
 18 37  1  0  0  0  0
 19 38  1  0  0  0  0
 20 22  1  0  0  0  0
 20 39  1  0  0  0  0
 20 40  1  0  0  0  0
 21 23  2  0  0  0  0
 21 24  1  0  0  0  0
 22 41  1  0  0  0  0
 22 42  1  0  0  0  0
 22 43  1  0  0  0  0
 23 25  1  0  0  0  0
 23 44  1  0  0  0  0
 24 26  2  0  0  0  0
 24 45  1  0  0  0  0
 25 27  2  0  0  0  0
 25 46  1  0  0  0  0
 26 27  1  0  0  0  0
 26 47  1  0  0  0  0
M  END
> <PUBCHEM_COMPOUND_CID>
661082

> <PUBCHEM_CONFORMER_RMSD>
0.8

> <PUBCHEM_CONFORMER_DIVERSEORDER>
1
58
33
12
41
62
53
14
49
9
76
69
63
22
24
72
19
68
78
61
71
60
51
40
11
57
21
10
46
15
34
32
31
7
55
66
47
18
27
75
45
25
26
54
52
48
35
44
73
42
59
37
50
64
28
20
74
29
5
13
67
65
70
43
77
2
39
8
38
30
4
56
16
3
17
6
23
36

> <PUBCHEM_MMFF94_PARTIAL_CHARGES>
29
1 -0.18
12 0.37
13 0.37
14 0.41
15 0.66
17 0.11
18 0.14
19 0.47
2 -0.43
20 0.28
21 -0.02
23 -0.15
24 -0.15
25 -0.15
26 -0.15
27 0.18
3 -0.57
37 0.15
38 0.15
4 -0.84
44 0.15
45 0.15
46 0.15
47 0.15
5 -0.62
6 0.59
7 -0.57
8 -0.71
9 0.06

> <PUBCHEM_EFFECTIVE_ROTOR_COUNT>
6.2

> <PUBCHEM_PHARMACOPHORE_FEATURES>
8
1 3 acceptor
1 8 acceptor
3 4 5 14 cation
3 5 7 19 cation
5 6 8 16 17 18 rings
6 21 23 24 25 26 27 rings
6 4 9 10 11 12 13 rings
6 5 7 14 16 17 19 rings

> <PUBCHEM_HEAVY_ATOM_COUNT>
27

> <PUBCHEM_ATOM_DEF_STEREO_COUNT>
0

> <PUBCHEM_ATOM_UDEF_STEREO_COUNT>
0

> <PUBCHEM_BOND_DEF_STEREO_COUNT>
0

> <PUBCHEM_BOND_UDEF_STEREO_COUNT>
0

> <PUBCHEM_ISOTOPIC_ATOM_COUNT>
0

> <PUBCHEM_COMPONENT_COUNT>
1

> <PUBCHEM_CACTVS_TAUTO_COUNT>
1

> <PUBCHEM_CONFORMER_ID>
000A165A00000001

> <PUBCHEM_MMFF94_ENERGY>
74.281

> <PUBCHEM_FEATURE_SELFOVERLAP>
40.818

> <PUBCHEM_SHAPE_FINGERPRINT>
10050765 1 18049722923559481406
10299344 5 18411138030326814194
10883706 142 13045941304944213693
10906281 52 18263944201124642315
10968037 39 18334858328812918319
11315181 36 18202285806244038809
11456790 92 10809341118146756110
11524674 6 16343698842257499207
12166972 35 18273494598495856569
12236239 1 17313101926139454202
12516196 113 18272369776171864232
12788726 201 18114740438928552848
12838862 33 18335687360870340294
13383665 225 18267324066020806652
13533116 47 13901915466633365550
13862211 1 18334851698016578643
14123256 10 18334294275648922980
14251764 18 18413388726856105001
14251764 46 18410855468718096387
1454969 45 18411420631170519180
14617045 38 18411700976402376506
15183329 4 18410291398400800659
15461852 350 16988836190944819021
15849732 13 18202844366313674399
16087824 20 18336544916360249261
18681886 176 18271516581604218803
19141452 34 18201431506804707343
19319366 153 17313095337665586458
21150785 3 17967814959414208125
21267235 1 18410014360705535899
23522609 53 18194147173182514496
23559900 14 18341608260808287272
23569943 247 18052260596814231195
3004659 81 18187082866554745348
3009799 131 17894910720222408269
335352 9 18409162226235144423
350125 39 18410855443128153960
4017518 198 17346604088277433870
4073 2 18261956357216599963
4325135 7 18259987081195196284
4340502 62 15267341821228997093
437815 12 17989490731512699064
5283156 175 17822006494073733618
59755656 215 18272371940693229511
7237137 82 17822569404882345933

> <PUBCHEM_SHAPE_MULTIPOLES>
520.87
22.51
1.84
0.9
2.4
0.25
0.01
2.4
-3.08
0.08
-0.09
0.95
-0.07
-0.09

> <PUBCHEM_SHAPE_SELFOVERLAP>
1123.391

> <PUBCHEM_SHAPE_VOLUME>
287.2

> <PUBCHEM_COORDINATE_TYPE>
2
5
10

$$$$
