2765870
  -OEChem-01171809283D

 48 47  0     1  0  0  0  0  0999 V2000
    1.1952    0.7952   -0.0467 S   0  0  0  0  0  0  0  0  0  0  0  0
   -3.1991   -1.5112   -0.6568 O   0  0  0  0  0  0  0  0  0  0  0  0
   -1.9968    2.7213   -0.3692 O   0  0  0  0  0  0  0  0  0  0  0  0
   -2.8069   -1.4544    1.6055 O   0  0  0  0  0  0  0  0  0  0  0  0
   -0.9972    3.3646    1.5995 O   0  0  0  0  0  0  0  0  0  0  0  0
    4.9465   -0.4187    0.2323 O   0  0  0  0  0  0  0  0  0  0  0  0
    3.7871    0.5849   -1.4875 O   0  0  0  0  0  0  0  0  0  0  0  0
   -1.9976    0.1909    0.1837 N   0  0  0  0  0  0  0  0  0  0  0  0
   -3.9372   -2.7273   -0.4924 C   0  0  0  0  0  0  0  0  0  0  0  0
   -1.3295    1.0078    1.1672 C   0  0  1  0  0  0  0  0  0  0  0  0
   -3.0055   -3.7860    0.0960 C   0  0  0  0  0  0  0  0  0  0  0  0
   -4.4326   -3.1550   -1.8722 C   0  0  0  0  0  0  0  0  0  0  0  0
   -5.1154   -2.4584    0.4425 C   0  0  0  0  0  0  0  0  0  0  0  0
    0.1141    0.5541    1.4015 C   0  0  0  0  0  0  0  0  0  0  0  0
   -2.6794   -0.9705    0.4855 C   0  0  0  0  0  0  0  0  0  0  0  0
   -1.4117    2.4945    0.8403 C   0  0  0  0  0  0  0  0  0  0  0  0
    2.7054    0.0818    0.6412 C   0  0  0  0  0  0  0  0  0  0  0  0
   -2.1215    4.0949   -0.7519 C   0  0  0  0  0  0  0  0  0  0  0  0
    3.8384    0.1316   -0.3527 C   0  0  0  0  0  0  0  0  0  0  0  0
   -2.7868    4.1701   -2.1096 C   0  0  0  0  0  0  0  0  0  0  0  0
    6.1239   -0.4493   -0.5812 C   0  0  0  0  0  0  0  0  0  0  0  0
    7.2309   -1.0753    0.2003 C   0  0  0  0  0  0  0  0  0  0  0  0
    7.8758   -2.1854   -0.1752 C   0  0  0  0  0  0  0  0  0  0  0  0
   -1.8844    0.8832    2.1063 H   0  0  0  0  0  0  0  0  0  0  0  0
   -2.0381   -3.7863   -0.4197 H   0  0  0  0  0  0  0  0  0  0  0  0
   -2.8004   -3.6696    1.1630 H   0  0  0  0  0  0  0  0  0  0  0  0
   -3.4444   -4.7850   -0.0135 H   0  0  0  0  0  0  0  0  0  0  0  0
   -3.5909   -3.3010   -2.5589 H   0  0  0  0  0  0  0  0  0  0  0  0
   -5.0631   -2.3763   -2.3167 H   0  0  0  0  0  0  0  0  0  0  0  0
   -5.0094   -4.0846   -1.8288 H   0  0  0  0  0  0  0  0  0  0  0  0
   -4.8520   -2.3985    1.5014 H   0  0  0  0  0  0  0  0  0  0  0  0
   -5.6187   -1.5205    0.1805 H   0  0  0  0  0  0  0  0  0  0  0  0
   -5.8534   -3.2664    0.3690 H   0  0  0  0  0  0  0  0  0  0  0  0
    0.1291   -0.5082    1.6696 H   0  0  0  0  0  0  0  0  0  0  0  0
    0.5447    1.1198    2.2350 H   0  0  0  0  0  0  0  0  0  0  0  0
   -1.9554    0.4764   -0.7901 H   0  0  0  0  0  0  0  0  0  0  0  0
    2.5199   -0.9642    0.9031 H   0  0  0  0  0  0  0  0  0  0  0  0
    2.9969    0.6506    1.5291 H   0  0  0  0  0  0  0  0  0  0  0  0
   -1.1267    4.5515   -0.8014 H   0  0  0  0  0  0  0  0  0  0  0  0
   -2.7298    4.6264   -0.0117 H   0  0  0  0  0  0  0  0  0  0  0  0
   -2.1990    3.6269   -2.8570 H   0  0  0  0  0  0  0  0  0  0  0  0
   -3.7755    3.7004   -2.0806 H   0  0  0  0  0  0  0  0  0  0  0  0
   -2.8981    5.2085   -2.4339 H   0  0  0  0  0  0  0  0  0  0  0  0
    6.4082    0.5755   -0.8460 H   0  0  0  0  0  0  0  0  0  0  0  0
    5.9161   -1.0111   -1.4996 H   0  0  0  0  0  0  0  0  0  0  0  0
    7.5255   -0.5895    1.1267 H   0  0  0  0  0  0  0  0  0  0  0  0
    8.6745   -2.5901    0.4369 H   0  0  0  0  0  0  0  0  0  0  0  0
    7.6220   -2.7072   -1.0912 H   0  0  0  0  0  0  0  0  0  0  0  0
  1 14  1  0  0  0  0
  1 17  1  0  0  0  0
  2  9  1  0  0  0  0
  2 15  1  0  0  0  0
  3 16  1  0  0  0  0
  3 18  1  0  0  0  0
  4 15  2  0  0  0  0
  5 16  2  0  0  0  0
  6 19  1  0  0  0  0
  6 21  1  0  0  0  0
  7 19  2  0  0  0  0
  8 10  1  0  0  0  0
  8 15  1  0  0  0  0
  8 36  1  0  0  0  0
  9 11  1  0  0  0  0
  9 12  1  0  0  0  0
  9 13  1  0  0  0  0
 10 14  1  0  0  0  0
 10 16  1  0  0  0  0
 10 24  1  0  0  0  0
 11 25  1  0  0  0  0
 11 26  1  0  0  0  0
 11 27  1  0  0  0  0
 12 28  1  0  0  0  0
 12 29  1  0  0  0  0
 12 30  1  0  0  0  0
 13 31  1  0  0  0  0
 13 32  1  0  0  0  0
 13 33  1  0  0  0  0
 14 34  1  0  0  0  0
 14 35  1  0  0  0  0
 17 19  1  0  0  0  0
 17 37  1  0  0  0  0
 17 38  1  0  0  0  0
 18 20  1  0  0  0  0
 18 39  1  0  0  0  0
 18 40  1  0  0  0  0
 20 41  1  0  0  0  0
 20 42  1  0  0  0  0
 20 43  1  0  0  0  0
 21 22  1  0  0  0  0
 21 44  1  0  0  0  0
 21 45  1  0  0  0  0
 22 23  2  0  0  0  0
 22 46  1  0  0  0  0
 23 47  1  0  0  0  0
 23 48  1  0  0  0  0
M  END
> <PUBCHEM_COMPOUND_CID>
2765870

> <PUBCHEM_CONFORMER_RMSD>
1

> <PUBCHEM_CONFORMER_DIVERSEORDER>
1
60
30
98
57
3
92
55
35
106
15
48
78
62
90
76
59
37
21
18
29
50
25
80
53
27
97
12
28
31
73
7
23
10
49
26
58
88
94
102
61
66
68
100
83
101
89
6
5
95
93
9
69
75
20
105
85
40
16
22
67
47
70
19
24
14
82
34
87
45
104
91
51
56
36
4
46
39
43
72
81
52
96
99
33
11
42
54
41
63
84
65
17
71
2
74
8
86
64
13
44
77
38
32
79
103

> <PUBCHEM_MMFF94_PARTIAL_CHARGES>
23
1 -0.46
10 0.36
14 0.23
15 0.78
16 0.66
17 0.29
18 0.28
19 0.66
2 -0.43
21 0.42
22 -0.29
23 -0.3
3 -0.43
36 0.37
4 -0.57
46 0.15
47 0.15
48 0.15
5 -0.57
6 -0.43
7 -0.57
8 -0.73
9 0.28

> <PUBCHEM_EFFECTIVE_ROTOR_COUNT>
14

> <PUBCHEM_PHARMACOPHORE_FEATURES>
6
1 23 hydrophobe
1 4 acceptor
1 5 acceptor
1 7 acceptor
1 8 donor
4 9 11 12 13 hydrophobe

> <PUBCHEM_HEAVY_ATOM_COUNT>
23

> <PUBCHEM_ATOM_DEF_STEREO_COUNT>
0

> <PUBCHEM_ATOM_UDEF_STEREO_COUNT>
1

> <PUBCHEM_BOND_DEF_STEREO_COUNT>
0

> <PUBCHEM_BOND_UDEF_STEREO_COUNT>
0

> <PUBCHEM_ISOTOPIC_ATOM_COUNT>
0

> <PUBCHEM_COMPONENT_COUNT>
1

> <PUBCHEM_CACTVS_TAUTO_COUNT>
2

> <PUBCHEM_CONFORMER_ID>
002A342E00000001

> <PUBCHEM_MMFF94_ENERGY>
40.3684

> <PUBCHEM_FEATURE_SELFOVERLAP>
30.447

> <PUBCHEM_SHAPE_FINGERPRINT>
11045515 52 18263081175086894181
11101153 10 18189346826281241244
11273773 118 11242259494511431582
11545043 162 18201717311487812640
11796584 16 18197499511985718658
11809386 21 18336262358539765458
12760667 363 18342175600250271051
12788726 201 18260539009708629139
13690498 29 18410011035630605114
14211702 104 18201729410469720998
14251757 5 18334564738488022021
14347332 77 18410578388094439674
14508225 48 18335698407558328981
14556957 393 17968110753880859236
15803439 3 17830429718993591285
17539 30 18409441484381586821
1813 80 18126020479489719351
23081809 10 17676498203696889086
255183 313 18198082304266269465
3057174 1 17615673052211822077
3388396 114 17679327396648593252
394222 165 7995766738256652189
397830 11 18060126653891797634
4409770 3 18338513041735748005
5080951 261 18059281085345031142
531348 171 18116715115179087138
57262259 84 18409725188504287885
59755656 520 18055355738666678729
7970288 3 18199466743550175550

> <PUBCHEM_SHAPE_MULTIPOLES>
436.98
15.49
5.5
1.53
39.88
3.55
-0.3
-16.73
-3.71
-10.63
-2.14
-1.48
0.77
0.23

> <PUBCHEM_SHAPE_SELFOVERLAP>
833.03

> <PUBCHEM_SHAPE_VOLUME>
269.9

> <PUBCHEM_COORDINATE_TYPE>
2
5
10

$$$$
