2941406
  -OEChem-01171809313D

 38 41  0     1  0  0  0  0  0999 V2000
   -3.8024    4.1979   -1.5605 Cl  0  0  0  0  0  0  0  0  0  0  0  0
    0.9672   -2.4654   -1.2254 S   0  0  0  0  0  0  0  0  0  0  0  0
   -3.6673   -3.4367    0.1070 O   0  0  0  0  0  0  0  0  0  0  0  0
   -1.5063   -2.9691   -0.4986 N   0  0  0  0  0  0  0  0  0  0  0  0
    1.3712    0.6383    1.0999 N   0  0  0  0  0  0  0  0  0  0  0  0
    3.0898    2.1663    1.5967 N   0  0  0  0  0  0  0  0  0  0  0  0
    5.9399    1.3117   -0.3016 N   0  0  0  0  0  0  0  0  0  0  0  0
   -1.5417   -0.6187    1.2707 C   0  0  2  0  0  0  0  0  0  0  0  0
   -0.3519   -1.0422    0.4680 C   0  0  0  0  0  0  0  0  0  0  0  0
   -2.5303   -1.7892    1.4428 C   0  0  0  0  0  0  0  0  0  0  0  0
   -0.4229   -2.1462   -0.3391 C   0  0  0  0  0  0  0  0  0  0  0  0
    0.9532   -0.4535    0.4007 C   0  0  0  0  0  0  0  0  0  0  0  0
   -2.1105    0.5954    0.5561 C   0  0  0  0  0  0  0  0  0  0  0  0
    1.7851   -1.1324   -0.4984 C   0  0  0  0  0  0  0  0  0  0  0  0
   -2.6369   -2.7814    0.2763 C   0  0  0  0  0  0  0  0  0  0  0  0
    3.1001   -0.6942   -0.7065 C   0  0  0  0  0  0  0  0  0  0  0  0
   -1.6301    1.8678    0.8588 C   0  0  0  0  0  0  0  0  0  0  0  0
   -3.1120    0.4329   -0.3991 C   0  0  0  0  0  0  0  0  0  0  0  0
    3.5275    0.4182    0.0063 C   0  0  0  0  0  0  0  0  0  0  0  0
    2.6410    1.0281    0.8736 C   0  0  0  0  0  0  0  0  0  0  0  0
    4.0189   -1.3929   -1.6597 C   0  0  0  0  0  0  0  0  0  0  0  0
   -2.1535    2.9826    0.2035 C   0  0  0  0  0  0  0  0  0  0  0  0
   -3.6352    1.5476   -1.0544 C   0  0  0  0  0  0  0  0  0  0  0  0
   -3.1560    2.8224   -0.7531 C   0  0  0  0  0  0  0  0  0  0  0  0
    4.8632    0.9129   -0.1641 C   0  0  0  0  0  0  0  0  0  0  0  0
   -1.2242   -0.3098    2.2758 H   0  0  0  0  0  0  0  0  0  0  0  0
   -3.5336   -1.4273    1.6972 H   0  0  0  0  0  0  0  0  0  0  0  0
   -2.1919   -2.3977    2.2938 H   0  0  0  0  0  0  0  0  0  0  0  0
   -1.4737   -3.6904   -1.2113 H   0  0  0  0  0  0  0  0  0  0  0  0
   -0.8657    2.0147    1.6159 H   0  0  0  0  0  0  0  0  0  0  0  0
   -3.5086   -0.5377   -0.6722 H   0  0  0  0  0  0  0  0  0  0  0  0
    4.3407   -0.7052   -2.4497 H   0  0  0  0  0  0  0  0  0  0  0  0
    4.9026   -1.7660   -1.1305 H   0  0  0  0  0  0  0  0  0  0  0  0
    3.5626   -2.2525   -2.1566 H   0  0  0  0  0  0  0  0  0  0  0  0
   -1.7738    3.9703    0.4519 H   0  0  0  0  0  0  0  0  0  0  0  0
   -4.4148    1.4080   -1.7990 H   0  0  0  0  0  0  0  0  0  0  0  0
    2.4187    2.5836    2.2308 H   0  0  0  0  0  0  0  0  0  0  0  0
    3.7611    2.7853    1.1594 H   0  0  0  0  0  0  0  0  0  0  0  0
  1 24  1  0  0  0  0
  2 11  1  0  0  0  0
  2 14  1  0  0  0  0
  3 15  2  0  0  0  0
  4 11  1  0  0  0  0
  4 15  1  0  0  0  0
  4 29  1  0  0  0  0
  5 12  1  0  0  0  0
  5 20  2  0  0  0  0
  6 20  1  0  0  0  0
  6 37  1  0  0  0  0
  6 38  1  0  0  0  0
  7 25  3  0  0  0  0
  8  9  1  0  0  0  0
  8 10  1  0  0  0  0
  8 13  1  0  0  0  0
  8 26  1  0  0  0  0
  9 11  2  0  0  0  0
  9 12  1  0  0  0  0
 10 15  1  0  0  0  0
 10 27  1  0  0  0  0
 10 28  1  0  0  0  0
 12 14  2  0  0  0  0
 13 17  2  0  0  0  0
 13 18  1  0  0  0  0
 14 16  1  0  0  0  0
 16 19  2  0  0  0  0
 16 21  1  0  0  0  0
 17 22  1  0  0  0  0
 17 30  1  0  0  0  0
 18 23  2  0  0  0  0
 18 31  1  0  0  0  0
 19 20  1  0  0  0  0
 19 25  1  0  0  0  0
 21 32  1  0  0  0  0
 21 33  1  0  0  0  0
 21 34  1  0  0  0  0
 22 24  2  0  0  0  0
 22 35  1  0  0  0  0
 23 24  1  0  0  0  0
 23 36  1  0  0  0  0
M  END
> <PUBCHEM_COMPOUND_CID>
2941406

> <PUBCHEM_CONFORMER_RMSD>
0.6

> <PUBCHEM_CONFORMER_DIVERSEORDER>
1
2
4
3

> <PUBCHEM_MMFF94_PARTIAL_CHARGES>
32
1 -0.18
10 0.06
11 0.1
12 0.26
13 -0.14
14 0.04
15 0.57
16 -0.14
17 -0.15
18 -0.15
19 0.07
2 -0.08
20 0.41
21 0.14
22 -0.15
23 -0.15
24 0.18
25 0.48
29 0.37
3 -0.57
30 0.15
31 0.15
35 0.15
36 0.15
37 0.4
38 0.4
4 -0.49
5 -0.57
6 -0.9
7 -0.56
8 0.32
9 -0.18

> <PUBCHEM_EFFECTIVE_ROTOR_COUNT>
1.6

> <PUBCHEM_PHARMACOPHORE_FEATURES>
9
1 3 acceptor
1 4 donor
1 6 donor
1 7 acceptor
3 5 6 20 cation
5 2 9 11 12 14 rings
6 13 17 18 22 23 24 rings
6 4 8 9 10 11 15 rings
6 5 12 14 16 19 20 rings

> <PUBCHEM_HEAVY_ATOM_COUNT>
25

> <PUBCHEM_ATOM_DEF_STEREO_COUNT>
0

> <PUBCHEM_ATOM_UDEF_STEREO_COUNT>
1

> <PUBCHEM_BOND_DEF_STEREO_COUNT>
0

> <PUBCHEM_BOND_UDEF_STEREO_COUNT>
0

> <PUBCHEM_ISOTOPIC_ATOM_COUNT>
0

> <PUBCHEM_COMPONENT_COUNT>
1

> <PUBCHEM_CACTVS_TAUTO_COUNT>
12

> <PUBCHEM_CONFORMER_ID>
002CE1DE00000001

> <PUBCHEM_MMFF94_ENERGY>
72.9803

> <PUBCHEM_FEATURE_SELFOVERLAP>
45.816

> <PUBCHEM_SHAPE_FINGERPRINT>
10165383 225 17977133191684742661
105312 117 18334575690121902844
10670039 82 18120958328367519676
10688039 33 18192434292963891963
11045515 52 18122340456984880863
11370993 70 18265330603741015717
11578080 2 18335148553429185470
11640471 11 17240763930650446241
12077114 3 18410572894620141746
12107183 9 17898836964876909610
12403259 226 18200882884540432034
12403259 415 18264500489594389029
12730499 353 17903926557015642809
12769317 202 17687736143549445213
12788726 201 18115296903803253459
13103583 49 7997112651783757685
13944108 23 17037251797250848876
14142880 1 17967811639615563277
14840074 17 16896500586379856873
15219462 58 17750228265798459328
15961568 22 17759237784204547372
17357779 13 18127115601729945447
17492 54 18190999323547977877
1813 80 17976552920402893691
21033650 10 18043839596348965990
21304303 282 17828723401685618567
21524375 3 17972035834451093475
22182313 1 18201725084872468958
22393880 68 18198899210670483468
22907989 373 18338528520370446301
22956985 138 16240419829227335154
23557571 272 18336830908528880850
23559900 14 18057332691534833846
238 59 17987504914791718277
2748010 2 18200875187652933186
3380486 145 18268730448972188171
350125 39 18129392668630251418
4371632 12 13969989749414150512
508706 21 18411418418835041948
7399639 24 17912918671906851536
7808743 9 18260829284978935468
81228 2 18264500653256756019
84936 182 17761768473381867857
9709674 26 18343863307754242060
9981440 41 18336259050860929907

> <PUBCHEM_SHAPE_MULTIPOLES>
494.41
8.85
4.43
1.4
7.66
0.23
0.04
-6.72
2.56
-5.49
0.89
-0.02
-0.26
2.64

> <PUBCHEM_SHAPE_SELFOVERLAP>
1084.644

> <PUBCHEM_SHAPE_VOLUME>
270.8

> <PUBCHEM_COORDINATE_TYPE>
2
5
10

$$$$
