1090694
  -OEChem-01171809193D

 45 47  0     0  0  0  0  0  0999 V2000
   -5.6425   -0.4435   -1.1067 O   0  0  0  0  0  0  0  0  0  0  0  0
   -2.3463   -3.0763    0.9739 O   0  0  0  0  0  0  0  0  0  0  0  0
    0.2816    1.7148   -1.2093 O   0  0  0  0  0  0  0  0  0  0  0  0
    5.7347   -2.3204    0.0122 O   0  0  0  0  0  0  0  0  0  0  0  0
   -1.9639    1.6438    0.4061 N   0  0  0  0  0  0  0  0  0  0  0  0
   -1.9659   -0.7857    0.7960 N   0  0  0  0  0  0  0  0  0  0  0  0
   -4.0007   -1.7864   -0.0667 N   0  0  0  0  0  0  0  0  0  0  0  0
   -3.9354    1.8580   -0.6193 N   0  0  0  0  0  0  0  0  0  0  0  0
    1.6209    2.4575    0.5372 N   0  0  0  0  0  0  0  0  0  0  0  0
   -2.5042    0.3940    0.3357 C   0  0  0  0  0  0  0  0  0  0  0  0
   -3.7054    0.5499   -0.2932 C   0  0  0  0  0  0  0  0  0  0  0  0
   -0.7061    2.0750    0.9686 C   0  0  0  0  0  0  0  0  0  0  0  0
   -4.5609   -0.5713   -0.5435 C   0  0  0  0  0  0  0  0  0  0  0  0
   -2.7311   -1.9620    0.6005 C   0  0  0  0  0  0  0  0  0  0  0  0
   -2.8656    2.4936   -0.1838 C   0  0  0  0  0  0  0  0  0  0  0  0
   -0.6667   -0.8237    1.4553 C   0  0  0  0  0  0  0  0  0  0  0  0
    0.4250    2.0515   -0.0370 C   0  0  0  0  0  0  0  0  0  0  0  0
   -4.7817   -3.0029   -0.2637 C   0  0  0  0  0  0  0  0  0  0  0  0
    2.8603    2.5303   -0.2014 C   0  0  0  0  0  0  0  0  0  0  0  0
    3.6248    1.2395   -0.1445 C   0  0  0  0  0  0  0  0  0  0  0  0
    3.4049    0.2668   -1.1127 C   0  0  0  0  0  0  0  0  0  0  0  0
    4.5454    1.0300    0.8757 C   0  0  0  0  0  0  0  0  0  0  0  0
    4.1152   -0.9327   -1.0597 C   0  0  0  0  0  0  0  0  0  0  0  0
    5.2556   -0.1696    0.9289 C   0  0  0  0  0  0  0  0  0  0  0  0
    5.0404   -1.1509   -0.0387 C   0  0  0  0  0  0  0  0  0  0  0  0
    5.4672   -3.2793   -1.0099 C   0  0  0  0  0  0  0  0  0  0  0  0
   -0.8433    3.1251    1.2635 H   0  0  0  0  0  0  0  0  0  0  0  0
   -0.4716    1.5568    1.8935 H   0  0  0  0  0  0  0  0  0  0  0  0
   -2.6916    3.5578   -0.2700 H   0  0  0  0  0  0  0  0  0  0  0  0
    0.1087   -0.4024    0.8155 H   0  0  0  0  0  0  0  0  0  0  0  0
   -0.3773   -1.8637    1.6401 H   0  0  0  0  0  0  0  0  0  0  0  0
   -0.7367   -0.3487    2.4363 H   0  0  0  0  0  0  0  0  0  0  0  0
   -4.9820   -3.4543    0.7132 H   0  0  0  0  0  0  0  0  0  0  0  0
   -4.1898   -3.7093   -0.8546 H   0  0  0  0  0  0  0  0  0  0  0  0
   -5.7288   -2.8118   -0.7735 H   0  0  0  0  0  0  0  0  0  0  0  0
    3.4513    3.3475    0.2276 H   0  0  0  0  0  0  0  0  0  0  0  0
    2.6497    2.8044   -1.2421 H   0  0  0  0  0  0  0  0  0  0  0  0
    1.6416    2.7007    1.5235 H   0  0  0  0  0  0  0  0  0  0  0  0
    2.6893    0.4261   -1.9143 H   0  0  0  0  0  0  0  0  0  0  0  0
    4.7196    1.7866    1.6357 H   0  0  0  0  0  0  0  0  0  0  0  0
    3.8998   -1.6511   -1.8433 H   0  0  0  0  0  0  0  0  0  0  0  0
    5.9750   -0.3338    1.7266 H   0  0  0  0  0  0  0  0  0  0  0  0
    5.7392   -2.8985   -2.0003 H   0  0  0  0  0  0  0  0  0  0  0  0
    4.4306   -3.6307   -0.9706 H   0  0  0  0  0  0  0  0  0  0  0  0
    6.1062   -4.1467   -0.8146 H   0  0  0  0  0  0  0  0  0  0  0  0
  1 13  2  0  0  0  0
  2 14  2  0  0  0  0
  3 17  2  0  0  0  0
  4 25  1  0  0  0  0
  4 26  1  0  0  0  0
  5 10  1  0  0  0  0
  5 12  1  0  0  0  0
  5 15  1  0  0  0  0
  6 10  1  0  0  0  0
  6 14  1  0  0  0  0
  6 16  1  0  0  0  0
  7 13  1  0  0  0  0
  7 14  1  0  0  0  0
  7 18  1  0  0  0  0
  8 11  1  0  0  0  0
  8 15  2  0  0  0  0
  9 17  1  0  0  0  0
  9 19  1  0  0  0  0
  9 38  1  0  0  0  0
 10 11  2  0  0  0  0
 11 13  1  0  0  0  0
 12 17  1  0  0  0  0
 12 27  1  0  0  0  0
 12 28  1  0  0  0  0
 15 29  1  0  0  0  0
 16 30  1  0  0  0  0
 16 31  1  0  0  0  0
 16 32  1  0  0  0  0
 18 33  1  0  0  0  0
 18 34  1  0  0  0  0
 18 35  1  0  0  0  0
 19 20  1  0  0  0  0
 19 36  1  0  0  0  0
 19 37  1  0  0  0  0
 20 21  2  0  0  0  0
 20 22  1  0  0  0  0
 21 23  1  0  0  0  0
 21 39  1  0  0  0  0
 22 24  2  0  0  0  0
 22 40  1  0  0  0  0
 23 25  2  0  0  0  0
 23 41  1  0  0  0  0
 24 25  1  0  0  0  0
 24 42  1  0  0  0  0
 26 43  1  0  0  0  0
 26 44  1  0  0  0  0
 26 45  1  0  0  0  0
M  END
> <PUBCHEM_COMPOUND_CID>
1090694

> <PUBCHEM_CONFORMER_RMSD>
0.8

> <PUBCHEM_CONFORMER_DIVERSEORDER>
1
37
29
58
38
56
69
70
72
27
43
28
4
73
15
74
39
62
63
32
24
16
54
52
35
45
46
55
53
26
40
11
23
19
22
57
71
25
12
49
7
41
14
61
10
20
75
13
9
36
3
48
59
44
6
47
67
66
33
31
30
60
42
17
68
51
8
2
50
64
5
65
18
21
34

> <PUBCHEM_MMFF94_PARTIAL_CHARGES>
32
1 -0.57
10 -0.09
11 0.14
12 0.32
13 0.72
14 0.69
15 0.04
16 0.3
17 0.57
18 0.3
19 0.44
2 -0.57
20 -0.14
21 -0.15
22 -0.15
23 -0.15
24 -0.15
25 0.08
26 0.28
29 0.15
3 -0.57
38 0.37
39 0.15
4 -0.36
40 0.15
41 0.15
42 0.15
5 0.05
6 -0.42
7 -0.42
8 -0.57
9 -0.73

> <PUBCHEM_EFFECTIVE_ROTOR_COUNT>
6

> <PUBCHEM_PHARMACOPHORE_FEATURES>
9
1 1 acceptor
1 2 acceptor
1 3 acceptor
1 4 acceptor
1 9 donor
3 5 8 15 cation
5 5 8 10 11 15 rings
6 20 21 22 23 24 25 rings
6 6 7 10 11 13 14 rings

> <PUBCHEM_HEAVY_ATOM_COUNT>
26

> <PUBCHEM_ATOM_DEF_STEREO_COUNT>
0

> <PUBCHEM_ATOM_UDEF_STEREO_COUNT>
0

> <PUBCHEM_BOND_DEF_STEREO_COUNT>
0

> <PUBCHEM_BOND_UDEF_STEREO_COUNT>
0

> <PUBCHEM_ISOTOPIC_ATOM_COUNT>
0

> <PUBCHEM_COMPONENT_COUNT>
1

> <PUBCHEM_CACTVS_TAUTO_COUNT>
2

> <PUBCHEM_CONFORMER_ID>
0010A48600000001

> <PUBCHEM_MMFF94_ENERGY>
64.9107

> <PUBCHEM_FEATURE_SELFOVERLAP>
45.792

> <PUBCHEM_SHAPE_FINGERPRINT>
10693767 8 17911502505764262175
11796584 16 18263634096397265512
12422481 6 18196399029204561619
12555020 224 18335415730011653629
13533116 47 18340767134413207148
14341114 328 13183018536244216300
14347332 77 18338231669716744611
14790565 3 17835804093455561449
14848178 5 18412541016081001052
14849402 71 11815897847932793988
14866123 147 18198349459690152641
14910302 57 18260257551616836596
15352361 1 18411983546732605256
17492 89 18339364162097712798
17627616 140 17825665547742592906
17857418 61 18411416249723907581
19958102 18 18187634795954303999
20403669 9 18341335564791890332
21279426 13 18335130999697405669
21315763 87 17560790061527327170
21781051 124 17531540883897593339
22393880 68 18114450198013222205
23559900 14 18193832867291203064
23569914 152 18055602116109377879
23572383 38 18342452626067715222
25122255 55 18342462512924155846
3004659 81 18186800301336920836
312425 83 17458630050823556332
316301 35 18339640015695559962
44062 13 18408606928874422109
463206 1 18188494562739660978
508706 21 18187930538527645542
5104073 3 18060423508028440104
7970288 3 18123189001215976118
9709674 26 18337112374958160256

> <PUBCHEM_SHAPE_MULTIPOLES>
486.69
13.92
3.8
1.12
7.23
1.49
-0.04
9.54
2.44
0.14
0.13
0.29
0.15
1.17

> <PUBCHEM_SHAPE_SELFOVERLAP>
1047.052

> <PUBCHEM_SHAPE_VOLUME>
267.7

> <PUBCHEM_COORDINATE_TYPE>
2
5
10

$$$$
