893661
  -OEChem-01171809223D

 38 40  0     0  0  0  0  0  0999 V2000
    0.3250   -3.3944    0.0531 S   0  0  0  0  0  0  0  0  0  0  0  0
    0.4980   -3.8144    1.4375 O   0  0  0  0  0  0  0  0  0  0  0  0
   -0.7346   -3.9887   -0.7525 O   0  0  0  0  0  0  0  0  0  0  0  0
    1.3536   -1.0438    0.0265 N   0  0  0  0  0  0  0  0  0  0  0  0
   -3.2958   -2.3130    0.0346 N   0  0  0  0  0  0  0  0  0  0  0  0
   -1.0456    0.3990    0.0056 C   0  0  0  0  0  0  0  0  0  0  0  0
    0.1508   -1.6609    0.0318 C   0  0  0  0  0  0  0  0  0  0  0  0
   -1.0635   -0.9936    0.0220 C   0  0  0  0  0  0  0  0  0  0  0  0
    1.3349    0.3079    0.0106 C   0  0  0  0  0  0  0  0  0  0  0  0
    0.1761    1.0674   -0.0003 C   0  0  0  0  0  0  0  0  0  0  0  0
   -2.2633    1.1803   -0.0053 C   0  0  0  0  0  0  0  0  0  0  0  0
    2.6353    0.9347    0.0053 C   0  0  0  0  0  0  0  0  0  0  0  0
    1.8553   -3.6986   -0.8028 C   0  0  0  0  0  0  0  0  0  0  0  0
   -2.8479    1.5425   -1.2188 C   0  0  0  0  0  0  0  0  0  0  0  0
   -2.8523    1.5717    1.1969 C   0  0  0  0  0  0  0  0  0  0  0  0
    3.2640    1.2531    1.2109 C   0  0  0  0  0  0  0  0  0  0  0  0
    3.2687    1.2253   -1.2049 C   0  0  0  0  0  0  0  0  0  0  0  0
   -4.0217    2.2962   -1.2300 C   0  0  0  0  0  0  0  0  0  0  0  0
   -4.0260    2.3254    1.1858 C   0  0  0  0  0  0  0  0  0  0  0  0
   -2.2968   -1.7225    0.0288 C   0  0  0  0  0  0  0  0  0  0  0  0
    4.5203    1.8592    1.2064 C   0  0  0  0  0  0  0  0  0  0  0  0
    4.5250    1.8314   -1.2095 C   0  0  0  0  0  0  0  0  0  0  0  0
   -4.6107    2.6875   -0.0277 C   0  0  0  0  0  0  0  0  0  0  0  0
    5.1509    2.1483   -0.0038 C   0  0  0  0  0  0  0  0  0  0  0  0
    0.2212    2.1534   -0.0130 H   0  0  0  0  0  0  0  0  0  0  0  0
    1.9798   -4.7808   -0.8874 H   0  0  0  0  0  0  0  0  0  0  0  0
    1.8014   -3.2574   -1.8001 H   0  0  0  0  0  0  0  0  0  0  0  0
    2.6864   -3.2831   -0.2303 H   0  0  0  0  0  0  0  0  0  0  0  0
   -2.4019    1.2457   -2.1652 H   0  0  0  0  0  0  0  0  0  0  0  0
   -2.4096    1.2979    2.1518 H   0  0  0  0  0  0  0  0  0  0  0  0
    2.7867    1.0341    2.1633 H   0  0  0  0  0  0  0  0  0  0  0  0
    2.7950    0.9842   -2.1538 H   0  0  0  0  0  0  0  0  0  0  0  0
   -4.4771    2.5783   -2.1747 H   0  0  0  0  0  0  0  0  0  0  0  0
   -4.4847    2.6301    2.1218 H   0  0  0  0  0  0  0  0  0  0  0  0
    5.0078    2.1059    2.1450 H   0  0  0  0  0  0  0  0  0  0  0  0
    5.0162    2.0565   -2.1516 H   0  0  0  0  0  0  0  0  0  0  0  0
   -5.5246    3.2741   -0.0364 H   0  0  0  0  0  0  0  0  0  0  0  0
    6.1291    2.6201   -0.0074 H   0  0  0  0  0  0  0  0  0  0  0  0
  1  2  2  0  0  0  0
  1  3  2  0  0  0  0
  1  7  1  0  0  0  0
  1 13  1  0  0  0  0
  4  7  1  0  0  0  0
  4  9  2  0  0  0  0
  5 20  3  0  0  0  0
  6  8  1  0  0  0  0
  6 10  2  0  0  0  0
  6 11  1  0  0  0  0
  7  8  2  0  0  0  0
  8 20  1  0  0  0  0
  9 10  1  0  0  0  0
  9 12  1  0  0  0  0
 10 25  1  0  0  0  0
 11 14  2  0  0  0  0
 11 15  1  0  0  0  0
 12 16  2  0  0  0  0
 12 17  1  0  0  0  0
 13 26  1  0  0  0  0
 13 27  1  0  0  0  0
 13 28  1  0  0  0  0
 14 18  1  0  0  0  0
 14 29  1  0  0  0  0
 15 19  2  0  0  0  0
 15 30  1  0  0  0  0
 16 21  1  0  0  0  0
 16 31  1  0  0  0  0
 17 22  2  0  0  0  0
 17 32  1  0  0  0  0
 18 23  2  0  0  0  0
 18 33  1  0  0  0  0
 19 23  1  0  0  0  0
 19 34  1  0  0  0  0
 21 24  2  0  0  0  0
 21 35  1  0  0  0  0
 22 24  1  0  0  0  0
 22 36  1  0  0  0  0
 23 37  1  0  0  0  0
 24 38  1  0  0  0  0
M  END
> <PUBCHEM_COMPOUND_CID>
893661

> <PUBCHEM_CONFORMER_RMSD>
0.6

> <PUBCHEM_CONFORMER_DIVERSEORDER>
3
7
4
11
1
8
10
13
12
2
9
6
5

> <PUBCHEM_MMFF94_PARTIAL_CHARGES>
32
1 1.2
10 -0.15
13 0.11
14 -0.15
15 -0.15
16 -0.15
17 -0.15
18 -0.15
19 -0.15
2 -0.65
20 0.48
21 -0.15
22 -0.15
23 -0.15
24 -0.15
25 0.15
29 0.15
3 -0.65
30 0.15
31 0.15
32 0.15
33 0.15
34 0.15
35 0.15
36 0.15
37 0.15
38 0.15
4 -0.62
5 -0.56
7 0.3
8 0.07
9 0.31

> <PUBCHEM_EFFECTIVE_ROTOR_COUNT>
3

> <PUBCHEM_PHARMACOPHORE_FEATURES>
7
1 2 acceptor
1 3 acceptor
1 4 acceptor
1 5 acceptor
6 11 14 15 18 19 23 rings
6 12 16 17 21 22 24 rings
6 4 6 7 8 9 10 rings

> <PUBCHEM_HEAVY_ATOM_COUNT>
24

> <PUBCHEM_ATOM_DEF_STEREO_COUNT>
0

> <PUBCHEM_ATOM_UDEF_STEREO_COUNT>
0

> <PUBCHEM_BOND_DEF_STEREO_COUNT>
0

> <PUBCHEM_BOND_UDEF_STEREO_COUNT>
0

> <PUBCHEM_ISOTOPIC_ATOM_COUNT>
0

> <PUBCHEM_COMPONENT_COUNT>
1

> <PUBCHEM_CACTVS_TAUTO_COUNT>
1

> <PUBCHEM_CONFORMER_ID>
000DA2DD00000003

> <PUBCHEM_MMFF94_ENERGY>
69.5026

> <PUBCHEM_FEATURE_SELFOVERLAP>
35.541

> <PUBCHEM_SHAPE_FINGERPRINT>
10411042 1 17330273282556686486
1100329 8 18267306417878802650
11582403 64 16842436221473839264
12107183 9 18335405839414160472
12160290 23 18193563495589568530
12173636 292 18411698824238626596
12390115 104 18341344369449045024
12707595 3 10303801086301794772
12730499 353 18338807702182942537
12788726 201 18048302638062681314
12930653 34 18410578400789554463
13134695 92 17470162557841294071
13140716 1 18337390439793998762
13878862 14 17760078524364365605
13955234 65 18121505648417466057
13965767 371 18114734928744299076
14955137 171 17047138631718824227
15042514 8 17904486551319622418
15230672 131 18335991905235087422
15324884 4 17461735991500593925
15842332 3 17605828351846422032
16752209 62 18265603467350183906
18785283 64 18191028897859561658
19784866 34 18341892957074169465
204376 136 18408885118322912281
20510252 161 18199470037541229929
20554085 129 17915151620993446224
21120745 212 17469906826719305076
21756936 100 17488762098484839689
21796203 349 17403208922570763043
22149856 69 18191329117329606401
22182313 1 18339378416909617079
2255824 54 18053380998666094415
23366157 5 18116430328239525539
23557571 272 18056774336900981116
23558518 356 18334575771605325562
23559900 14 18127121970586287402
23569917 315 18411129230061131486
266924 87 18339918307679803783
2748010 2 18337684043658191247
283562 15 18266737064250267339
3027735 51 18341610481728554095
3091708 16 9265027576197431978
350125 39 18410865338627321835
458136 41 18338807688807430129
469060 322 18191320458126222769
474 4 18268422447713129881
5080951 261 17201625882663540654
5104073 3 18334566984824691408
59755656 520 18272101490791955568
633830 44 18059298664646810428
7364860 26 18124593076820496618
7808743 9 18264212594354318548
81228 2 17977949308321818570
84936 182 18057036917583288441
9841814 1 17684649831320810227
9862522 239 18040985250419105828
9981440 41 18409721868256685115

> <PUBCHEM_SHAPE_MULTIPOLES>
476.06
8.99
4.99
1.22
2.6
6.56
-0.04
-11.52
0.19
-0.26
0.06
0.17
-0.43
0.16

> <PUBCHEM_SHAPE_SELFOVERLAP>
1035.499

> <PUBCHEM_SHAPE_VOLUME>
260.1

> <PUBCHEM_COORDINATE_TYPE>
2
5
10

$$$$
