1225752
  -OEChem-01171810063D

 46 48  0     0  0  0  0  0  0999 V2000
   -3.6704   -1.2279   -1.1342 S   0  0  0  0  0  0  0  0  0  0  0  0
   -4.1240   -0.9113   -2.4717 O   0  0  0  0  0  0  0  0  0  0  0  0
   -3.7672   -2.5752   -0.6140 O   0  0  0  0  0  0  0  0  0  0  0  0
    2.7923   -0.8578    1.0296 O   0  0  0  0  0  0  0  0  0  0  0  0
    7.0614   -1.4051    0.9041 O   0  5  0  0  0  0  0  0  0  0  0  0
    4.9326   -1.9520    0.9235 O   0  0  0  0  0  0  0  0  0  0  0  0
   -4.4029   -0.1483   -0.0240 N   0  0  0  0  0  0  0  0  0  0  0  0
    1.9853    0.4987   -0.6847 N   0  0  0  0  0  0  0  0  0  0  0  0
    4.4088    1.9745   -0.2966 N   0  0  0  0  0  0  0  0  0  0  0  0
    5.6913    2.3748   -0.3295 N   0  0  0  0  0  0  0  0  0  0  0  0
    5.8485   -1.1073    0.7314 N   0  3  0  0  0  0  0  0  0  0  0  0
   -4.2475    1.3031   -0.3313 C   0  0  0  0  0  0  0  0  0  0  0  0
   -4.1822   -0.4476    1.4186 C   0  0  0  0  0  0  0  0  0  0  0  0
   -5.5008    2.0821    0.0516 C   0  0  0  0  0  0  0  0  0  0  0  0
   -5.5092   -0.5074    2.1617 C   0  0  0  0  0  0  0  0  0  0  0  0
   -5.9090    1.9737    1.5235 C   0  0  0  0  0  0  0  0  0  0  0  0
   -6.5105    0.6138    1.8761 C   0  0  0  0  0  0  0  0  0  0  0  0
   -1.9867   -0.7137   -0.9998 C   0  0  0  0  0  0  0  0  0  0  0  0
   -1.1676   -1.3142   -0.0582 C   0  0  0  0  0  0  0  0  0  0  0  0
   -1.5135    0.2816   -1.8388 C   0  0  0  0  0  0  0  0  0  0  0  0
    0.1626   -0.9079    0.0476 C   0  0  0  0  0  0  0  0  0  0  0  0
   -0.1833    0.6878   -1.7332 C   0  0  0  0  0  0  0  0  0  0  0  0
    0.6547    0.0930   -0.7899 C   0  0  0  0  0  0  0  0  0  0  0  0
    2.9799    0.0245    0.1947 C   0  0  0  0  0  0  0  0  0  0  0  0
    4.2863    0.6952    0.0809 C   0  0  0  0  0  0  0  0  0  0  0  0
    5.5112    0.1914    0.3167 C   0  0  0  0  0  0  0  0  0  0  0  0
    6.3600    1.2813    0.0459 C   0  0  0  0  0  0  0  0  0  0  0  0
   -4.1038    1.4537   -1.4059 H   0  0  0  0  0  0  0  0  0  0  0  0
   -3.3695    1.7168    0.1774 H   0  0  0  0  0  0  0  0  0  0  0  0
   -3.5260    0.3044    1.8721 H   0  0  0  0  0  0  0  0  0  0  0  0
   -3.6754   -1.4060    1.5646 H   0  0  0  0  0  0  0  0  0  0  0  0
   -6.3378    1.7636   -0.5826 H   0  0  0  0  0  0  0  0  0  0  0  0
   -5.3247    3.1401   -0.1795 H   0  0  0  0  0  0  0  0  0  0  0  0
   -5.2912   -0.5207    3.2373 H   0  0  0  0  0  0  0  0  0  0  0  0
   -6.0021   -1.4642    1.9462 H   0  0  0  0  0  0  0  0  0  0  0  0
   -6.6795    2.7342    1.7043 H   0  0  0  0  0  0  0  0  0  0  0  0
   -5.0701    2.2190    2.1844 H   0  0  0  0  0  0  0  0  0  0  0  0
   -7.1454    0.7278    2.7641 H   0  0  0  0  0  0  0  0  0  0  0  0
   -7.1856    0.2953    1.0714 H   0  0  0  0  0  0  0  0  0  0  0  0
   -1.5301   -2.0955    0.6024 H   0  0  0  0  0  0  0  0  0  0  0  0
   -2.1446    0.7549   -2.5841 H   0  0  0  0  0  0  0  0  0  0  0  0
    0.7413   -1.4195    0.8026 H   0  0  0  0  0  0  0  0  0  0  0  0
    0.1871    1.4682   -2.3932 H   0  0  0  0  0  0  0  0  0  0  0  0
    2.2569    1.2263   -1.3419 H   0  0  0  0  0  0  0  0  0  0  0  0
    3.6909    2.6460   -0.5411 H   0  0  0  0  0  0  0  0  0  0  0  0
    7.4384    1.3314    0.1045 H   0  0  0  0  0  0  0  0  0  0  0  0
  1  2  2  0  0  0  0
  1  3  2  0  0  0  0
  1  7  1  0  0  0  0
  1 18  1  0  0  0  0
  4 24  2  0  0  0  0
  5 11  1  0  0  0  0
  6 11  2  0  0  0  0
  7 12  1  0  0  0  0
  7 13  1  0  0  0  0
  8 23  1  0  0  0  0
  8 24  1  0  0  0  0
  8 44  1  0  0  0  0
  9 10  1  0  0  0  0
  9 25  1  0  0  0  0
  9 45  1  0  0  0  0
 10 27  2  0  0  0  0
 11 26  1  0  0  0  0
 12 14  1  0  0  0  0
 12 28  1  0  0  0  0
 12 29  1  0  0  0  0
 13 15  1  0  0  0  0
 13 30  1  0  0  0  0
 13 31  1  0  0  0  0
 14 16  1  0  0  0  0
 14 32  1  0  0  0  0
 14 33  1  0  0  0  0
 15 17  1  0  0  0  0
 15 34  1  0  0  0  0
 15 35  1  0  0  0  0
 16 17  1  0  0  0  0
 16 36  1  0  0  0  0
 16 37  1  0  0  0  0
 17 38  1  0  0  0  0
 17 39  1  0  0  0  0
 18 19  2  0  0  0  0
 18 20  1  0  0  0  0
 19 21  1  0  0  0  0
 19 40  1  0  0  0  0
 20 22  2  0  0  0  0
 20 41  1  0  0  0  0
 21 23  2  0  0  0  0
 21 42  1  0  0  0  0
 22 23  1  0  0  0  0
 22 43  1  0  0  0  0
 24 25  1  0  0  0  0
 25 26  2  0  0  0  0
 26 27  1  0  0  0  0
 27 46  1  0  0  0  0
M  CHG  2   5  -1  11   1
M  END
> <PUBCHEM_COMPOUND_CID>
1225752

> <PUBCHEM_CONFORMER_RMSD>
0.8

> <PUBCHEM_CONFORMER_DIVERSEORDER>
2
32
36
40
29
63
65
17
25
50
38
55
14
64
45
54
28
49
12
42
34
69
67
18
33
59
23
68
5
74
31
60
24
37
39
70
8
22
71
62
35
57
44
10
15
41
61
51
47
30
73
72
16
53
9
58
48
19
7
46
56
11
52
26
13
3
66
1
21
6
20
27
43
4

> <PUBCHEM_MMFF94_PARTIAL_CHARGES>
30
1 1.45
10 -0.71
11 0.96
12 0.36
13 0.36
18 -0.01
19 -0.15
2 -0.65
20 -0.15
21 -0.15
22 -0.15
23 0.12
24 0.71
25 -0.24
26 0.08
27 0.14
3 -0.65
4 -0.57
40 0.15
41 0.15
42 0.15
43 0.15
44 0.37
45 0.27
46 0.15
5 -0.52
6 -0.52
7 -0.85
8 -0.55
9 0.3

> <PUBCHEM_EFFECTIVE_ROTOR_COUNT>
7.4

> <PUBCHEM_PHARMACOPHORE_FEATURES>
12
1 10 acceptor
1 2 acceptor
1 3 acceptor
1 4 acceptor
1 5 acceptor
1 5 anion
1 6 acceptor
1 8 donor
1 9 donor
5 9 10 25 26 27 rings
6 18 19 20 21 22 23 rings
7 7 12 13 14 15 16 17 rings

> <PUBCHEM_HEAVY_ATOM_COUNT>
27

> <PUBCHEM_ATOM_DEF_STEREO_COUNT>
0

> <PUBCHEM_ATOM_UDEF_STEREO_COUNT>
0

> <PUBCHEM_BOND_DEF_STEREO_COUNT>
0

> <PUBCHEM_BOND_UDEF_STEREO_COUNT>
0

> <PUBCHEM_ISOTOPIC_ATOM_COUNT>
0

> <PUBCHEM_COMPONENT_COUNT>
1

> <PUBCHEM_CACTVS_TAUTO_COUNT>
7

> <PUBCHEM_CONFORMER_ID>
0012B41800000002

> <PUBCHEM_MMFF94_ENERGY>
58.5739

> <PUBCHEM_FEATURE_SELFOVERLAP>
61.03

> <PUBCHEM_SHAPE_FINGERPRINT>
10 15 18411709794159892513
10291535 26 15698004029276430851
105312 117 15985104111395197093
10533779 1 16915104998191218585
10554248 39 17203328871350486332
10763959 59 15410898478909682992
12236239 1 18201433701595863726
12596602 18 18260272953585610817
12616971 3 18411698794458438548
12730499 353 17749105604872015554
13167372 99 18342457032767600952
13673619 4 14418142833347715109
13782708 43 13695869259140746629
14251764 18 18342738542014086791
15183329 4 18131631192715926796
15238133 3 17561080315654301674
15348495 7 18113905991191456128
15352257 5 16081088143520810146
1577012 14 18272369802374126092
17780758 139 17458068170970852161
17844677 252 18333444340217903868
17980427 23 18343304812062125013
18608769 82 16950005833660338778
18927931 339 14634868656957185379
20281389 69 18131350825598185561
21033648 29 15554449617082691286
21150785 3 7997679901099330626
21623969 137 17167580505525262370
21637258 2 12901549082951089289
220451 1 18335140921114213462
22393880 68 12463282567188218277
2303208 19 16660359260435056770
23081809 10 18201150044570090638
23522609 53 18265351632344398604
23559900 14 17968362555534760220
23569914 152 12171453385904429745
2838139 119 17132110208947857089
312425 54 17603874386012163153
3663271 9 18339361967327142314
397830 11 16588310548046872284
484985 159 13840265927722339089
4938544 92 16443340919994873557
5104073 3 18261945345389399266
5283173 99 12751238090638404394
7226269 152 17846782888577320417

> <PUBCHEM_SHAPE_MULTIPOLES>
505.25
19.24
2.08
1.79
15.04
0.28
-0.09
6.01
8.84
-0.63
-0.04
-2.55
-0.27
-2.48

> <PUBCHEM_SHAPE_SELFOVERLAP>
1064.224

> <PUBCHEM_SHAPE_VOLUME>
282.8

> <PUBCHEM_COORDINATE_TYPE>
2
5
10

$$$$
