3093457
  -OEChem-01171809273D

 38 39  0     1  0  0  0  0  0999 V2000
    0.6668    1.6470    2.5506 Cl  0  0  0  0  0  0  0  0  0  0  0  0
   -1.0417    3.6833    1.3625 Cl  0  0  0  0  0  0  0  0  0  0  0  0
    1.7787    3.6184    0.7142 Cl  0  0  0  0  0  0  0  0  0  0  0  0
   -3.5702   -3.6317    1.5570 Cl  0  0  0  0  0  0  0  0  0  0  0  0
    0.7754    0.5314   -3.1217 S   0  0  0  0  0  0  0  0  0  0  0  0
   -2.4222    1.5539   -1.6686 O   0  0  0  0  0  0  0  0  0  0  0  0
   -1.1069    0.8045    0.0916 N   0  0  0  0  0  0  0  0  0  0  0  0
    1.2235    0.7996   -0.4515 N   0  0  0  0  0  0  0  0  0  0  0  0
    2.7510   -0.4787   -1.7192 N   0  0  0  0  0  0  0  0  0  0  0  0
    0.0616    1.6526   -0.1491 C   0  0  2  0  0  0  0  0  0  0  0  0
    0.3472    2.5846    1.0543 C   0  0  0  0  0  0  0  0  0  0  0  0
   -2.2489    0.8303   -0.6919 C   0  0  0  0  0  0  0  0  0  0  0  0
   -3.3174   -0.1209   -0.2976 C   0  0  0  0  0  0  0  0  0  0  0  0
    1.6163    0.3086   -1.6783 C   0  0  0  0  0  0  0  0  0  0  0  0
    3.6378   -0.9045   -0.7000 C   0  0  0  0  0  0  0  0  0  0  0  0
   -2.9685   -1.2820    0.3621 C   0  0  0  0  0  0  0  0  0  0  0  0
   -4.6285    0.1851   -0.6016 C   0  0  0  0  0  0  0  0  0  0  0  0
   -3.9735   -2.1751    0.7336 C   0  0  0  0  0  0  0  0  0  0  0  0
   -5.6334   -0.7080   -0.2303 C   0  0  0  0  0  0  0  0  0  0  0  0
    4.3155   -2.1023   -0.8506 C   0  0  0  0  0  0  0  0  0  0  0  0
    3.8061   -0.1141    0.4238 C   0  0  0  0  0  0  0  0  0  0  0  0
   -5.3059   -1.8882    0.4374 C   0  0  0  0  0  0  0  0  0  0  0  0
    5.1883   -2.5220    0.1532 C   0  0  0  0  0  0  0  0  0  0  0  0
    4.6788   -0.5339    1.4277 C   0  0  0  0  0  0  0  0  0  0  0  0
    5.3700   -1.7379    1.2923 C   0  0  0  0  0  0  0  0  0  0  0  0
   -0.1393    2.2754   -1.0279 H   0  0  0  0  0  0  0  0  0  0  0  0
   -1.0491    0.2054    0.9071 H   0  0  0  0  0  0  0  0  0  0  0  0
    1.5565    0.3090    0.3664 H   0  0  0  0  0  0  0  0  0  0  0  0
    2.8873   -0.9539   -2.6092 H   0  0  0  0  0  0  0  0  0  0  0  0
   -1.9373   -1.5496    0.5714 H   0  0  0  0  0  0  0  0  0  0  0  0
   -4.9005    1.1022   -1.1158 H   0  0  0  0  0  0  0  0  0  0  0  0
    4.1803   -2.7205   -1.7337 H   0  0  0  0  0  0  0  0  0  0  0  0
    3.3938    0.8812    0.5324 H   0  0  0  0  0  0  0  0  0  0  0  0
   -6.6711   -0.4840   -0.4596 H   0  0  0  0  0  0  0  0  0  0  0  0
   -6.0996   -2.5746    0.7209 H   0  0  0  0  0  0  0  0  0  0  0  0
    5.7275   -3.4589    0.0473 H   0  0  0  0  0  0  0  0  0  0  0  0
    4.8414    0.0891    2.3025 H   0  0  0  0  0  0  0  0  0  0  0  0
    6.0544   -2.0616    2.0710 H   0  0  0  0  0  0  0  0  0  0  0  0
  1 11  1  0  0  0  0
  2 11  1  0  0  0  0
  3 11  1  0  0  0  0
  4 18  1  0  0  0  0
  5 14  2  0  0  0  0
  6 12  2  0  0  0  0
  7 10  1  0  0  0  0
  7 12  1  0  0  0  0
  7 27  1  0  0  0  0
  8 10  1  0  0  0  0
  8 14  1  0  0  0  0
  8 28  1  0  0  0  0
  9 14  1  0  0  0  0
  9 15  1  0  0  0  0
  9 29  1  0  0  0  0
 10 11  1  0  0  0  0
 10 26  1  0  0  0  0
 12 13  1  0  0  0  0
 13 16  2  0  0  0  0
 13 17  1  0  0  0  0
 15 20  2  0  0  0  0
 15 21  1  0  0  0  0
 16 18  1  0  0  0  0
 16 30  1  0  0  0  0
 17 19  2  0  0  0  0
 17 31  1  0  0  0  0
 18 22  2  0  0  0  0
 19 22  1  0  0  0  0
 19 34  1  0  0  0  0
 20 23  1  0  0  0  0
 20 32  1  0  0  0  0
 21 24  2  0  0  0  0
 21 33  1  0  0  0  0
 22 35  1  0  0  0  0
 23 25  2  0  0  0  0
 23 36  1  0  0  0  0
 24 25  1  0  0  0  0
 24 37  1  0  0  0  0
 25 38  1  0  0  0  0
M  END
> <PUBCHEM_COMPOUND_CID>
3093457

> <PUBCHEM_CONFORMER_RMSD>
0.8

> <PUBCHEM_CONFORMER_DIVERSEORDER>
2
54
66
155
114
109
32
121
138
30
151
96
126
128
139
45
15
156
94
130
35
142
116
145
21
110
106
127
84
115
27
120
40
108
33
76
72
97
67
11
123
68
53
77
118
141
104
124
132
39
149
59
83
17
129
140
20
134
51
64
55
131
50
24
73
147
47
137
42
133
86
43
143
70
8
52
14
93
34
148
88
44
90
153
16
49
157
103
61
89
81
101
31
46
146
71
150
29
9
6
74
18
105
38
7
13
57
12
136
22
25
23
117
100
102
80
69
135
78
58
113
10
119
28
152
37
92
48
41
154
26
95
75
62
85
3
125
19
82
87
5
36
144
1
111
65
122
107
4
98
56
91
63
60
79
112
99

> <PUBCHEM_MMFF94_PARTIAL_CHARGES>
37
1 -0.29
10 0.6
11 0.87
12 0.54
13 0.09
14 0.5
15 0.12
16 -0.15
17 -0.15
18 0.18
19 -0.15
2 -0.29
20 -0.15
21 -0.15
22 -0.15
23 -0.15
24 -0.15
25 -0.15
27 0.37
28 0.37
29 0.37
3 -0.29
30 0.15
31 0.15
32 0.15
33 0.15
34 0.15
35 0.15
36 0.15
37 0.15
38 0.15
4 -0.18
5 -0.38
6 -0.57
7 -0.73
8 -0.73
9 -0.55

> <PUBCHEM_EFFECTIVE_ROTOR_COUNT>
8

> <PUBCHEM_PHARMACOPHORE_FEATURES>
7
1 5 acceptor
1 6 acceptor
1 7 donor
1 8 donor
1 9 donor
6 13 16 17 18 19 22 rings
6 15 20 21 23 24 25 rings

> <PUBCHEM_HEAVY_ATOM_COUNT>
25

> <PUBCHEM_ATOM_DEF_STEREO_COUNT>
0

> <PUBCHEM_ATOM_UDEF_STEREO_COUNT>
1

> <PUBCHEM_BOND_DEF_STEREO_COUNT>
0

> <PUBCHEM_BOND_UDEF_STEREO_COUNT>
0

> <PUBCHEM_ISOTOPIC_ATOM_COUNT>
0

> <PUBCHEM_COMPONENT_COUNT>
1

> <PUBCHEM_CACTVS_TAUTO_COUNT>
6

> <PUBCHEM_CONFORMER_ID>
002F33D100000002

> <PUBCHEM_MMFF94_ENERGY>
73.5779

> <PUBCHEM_FEATURE_SELFOVERLAP>
35.592

> <PUBCHEM_SHAPE_FINGERPRINT>
11796584 16 18186513289524769507
12363563 72 18272101499576666221
12422481 6 17060063596793080153
12633257 1 17774447208297159623
12895836 83 8502073168060587150
14251751 18 18186799201229142251
14341114 328 14045733829282225230
14840074 17 17203602735682084008
14848178 5 18260828198077772942
14866123 147 18197222438912584993
15575132 122 10231753366936772419
15961568 22 11312062054114195627
1813 80 17846505828420885489
19611394 137 18412816998548921434
1979834 28 16917359129321960951
20567600 70 18336262427195672242
20600515 1 18128828447103370264
20626108 58 17821727264779570574
21049683 118 16693013411060018264
21344244 78 16845304886181443779
23559900 14 18187360000042128613
25222932 49 17982458396965100414
2838139 119 9871746871449406434
3004659 81 18041003933859061710
3380486 145 16773221886769089373
3421961 26 18270398411668116968
44062 13 17894633669125965523
463206 1 18335703879278579699
5104073 3 18199482128855330803
633830 44 14562816598789113911
6371380 46 18336541630609625025
81228 2 17413621379094948669
960060 61 15936419922687524718
9841814 1 18058184966641426180
9981440 41 15836748991681471996

> <PUBCHEM_SHAPE_MULTIPOLES>
505
12.04
4.09
2.21
1.23
1.6
0.89
-13.06
-2.17
0.13
-2.61
-1.07
0.55
1.37

> <PUBCHEM_SHAPE_SELFOVERLAP>
1011.815

> <PUBCHEM_SHAPE_VOLUME>
299.3

> <PUBCHEM_COORDINATE_TYPE>
2
5
10

$$$$
