896591
  -OEChem-01171809313D

 35 37  0     0  0  0  0  0  0999 V2000
    5.6256    2.1645    1.7398 Cl  0  0  0  0  0  0  0  0  0  0  0  0
   -4.7488    3.3747    0.4887 O   0  5  0  0  0  0  0  0  0  0  0  0
   -5.5354    1.3194    0.4004 O   0  0  0  0  0  0  0  0  0  0  0  0
    0.1973   -0.4891   -1.0772 N   0  0  0  0  0  0  0  0  0  0  0  0
   -4.6347    2.1606    0.2642 N   0  3  0  0  0  0  0  0  0  0  0  0
   -0.1095   -1.6612   -0.4236 C   0  0  0  0  0  0  0  0  0  0  0  0
   -1.3747   -1.4960    0.1443 C   0  0  0  0  0  0  0  0  0  0  0  0
    1.4180   -0.2288   -1.8091 C   0  0  0  0  0  0  0  0  0  0  0  0
   -1.8152   -0.1853   -0.1914 C   0  0  0  0  0  0  0  0  0  0  0  0
   -0.8275    0.4090   -0.9425 C   0  0  0  0  0  0  0  0  0  0  0  0
    2.4740    0.3711   -0.9204 C   0  0  0  0  0  0  0  0  0  0  0  0
    0.6285   -2.8429   -0.2930 C   0  0  0  0  0  0  0  0  0  0  0  0
   -1.9324   -2.5611    0.8791 C   0  0  0  0  0  0  0  0  0  0  0  0
    0.0550   -3.8856    0.4403 C   0  0  0  0  0  0  0  0  0  0  0  0
   -3.0335    0.4368    0.1596 C   0  0  0  0  0  0  0  0  0  0  0  0
   -1.2056   -3.7490    1.0182 C   0  0  0  0  0  0  0  0  0  0  0  0
    3.3534   -0.4629   -0.2437 C   0  0  0  0  0  0  0  0  0  0  0  0
    2.5535    1.7508   -0.7882 C   0  0  0  0  0  0  0  0  0  0  0  0
    4.3312    0.0934    0.5810 C   0  0  0  0  0  0  0  0  0  0  0  0
    3.5313    2.3070    0.0365 C   0  0  0  0  0  0  0  0  0  0  0  0
    4.4201    1.4784    0.7212 C   0  0  0  0  0  0  0  0  0  0  0  0
   -3.3704    1.6959   -0.1841 C   0  0  0  0  0  0  0  0  0  0  0  0
    1.1782    0.4472   -2.6397 H   0  0  0  0  0  0  0  0  0  0  0  0
    1.7642   -1.1604   -2.2710 H   0  0  0  0  0  0  0  0  0  0  0  0
   -0.7571    1.3890   -1.3969 H   0  0  0  0  0  0  0  0  0  0  0  0
    1.6005   -2.9742   -0.7531 H   0  0  0  0  0  0  0  0  0  0  0  0
   -2.9137   -2.4745    1.3369 H   0  0  0  0  0  0  0  0  0  0  0  0
    0.5998   -4.8190    0.5567 H   0  0  0  0  0  0  0  0  0  0  0  0
   -3.7180   -0.1722    0.7462 H   0  0  0  0  0  0  0  0  0  0  0  0
   -1.6312   -4.5743    1.5829 H   0  0  0  0  0  0  0  0  0  0  0  0
    3.3128   -1.5410   -0.3525 H   0  0  0  0  0  0  0  0  0  0  0  0
    1.8666    2.4059   -1.3165 H   0  0  0  0  0  0  0  0  0  0  0  0
    5.0194   -0.5643    1.1057 H   0  0  0  0  0  0  0  0  0  0  0  0
    3.5885    3.3879    0.1363 H   0  0  0  0  0  0  0  0  0  0  0  0
   -2.7957    2.4389   -0.7161 H   0  0  0  0  0  0  0  0  0  0  0  0
  1 21  1  0  0  0  0
  2  5  1  0  0  0  0
  3  5  2  0  0  0  0
  4  6  1  0  0  0  0
  4  8  1  0  0  0  0
  4 10  1  0  0  0  0
  5 22  1  0  0  0  0
  6  7  1  0  0  0  0
  6 12  2  0  0  0  0
  7  9  1  0  0  0  0
  7 13  2  0  0  0  0
  8 11  1  0  0  0  0
  8 23  1  0  0  0  0
  8 24  1  0  0  0  0
  9 10  2  0  0  0  0
  9 15  1  0  0  0  0
 10 25  1  0  0  0  0
 11 17  2  0  0  0  0
 11 18  1  0  0  0  0
 12 14  1  0  0  0  0
 12 26  1  0  0  0  0
 13 16  1  0  0  0  0
 13 27  1  0  0  0  0
 14 16  2  0  0  0  0
 14 28  1  0  0  0  0
 15 22  2  0  0  0  0
 15 29  1  0  0  0  0
 16 30  1  0  0  0  0
 17 19  1  0  0  0  0
 17 31  1  0  0  0  0
 18 20  2  0  0  0  0
 18 32  1  0  0  0  0
 19 21  2  0  0  0  0
 19 33  1  0  0  0  0
 20 21  1  0  0  0  0
 20 34  1  0  0  0  0
 22 35  1  0  0  0  0
M  CHG  2   2  -1   5   1
M  END
> <PUBCHEM_COMPOUND_CID>
896591

> <PUBCHEM_CONFORMER_RMSD>
0.6

> <PUBCHEM_CONFORMER_DIVERSEORDER>
1
24
9
23
20
21
18
16
13
7
17
5
19
4
10
3
22
6
25
8
11
12
15
2
14

> <PUBCHEM_MMFF94_PARTIAL_CHARGES>
32
1 -0.18
10 -0.3
11 -0.14
12 -0.15
13 -0.15
14 -0.15
15 -0.1
16 -0.15
17 -0.15
18 -0.15
19 -0.15
2 -0.52
20 -0.15
21 0.18
22 0.05
25 0.15
26 0.15
27 0.15
28 0.15
29 0.15
3 -0.52
30 0.15
31 0.15
32 0.15
33 0.15
34 0.15
35 0.15
4 0.05
5 0.84
6 -0.15
8 0.4
9 -0.05

> <PUBCHEM_EFFECTIVE_ROTOR_COUNT>
4

> <PUBCHEM_PHARMACOPHORE_FEATURES>
7
1 2 acceptor
1 2 anion
1 3 acceptor
1 4 cation
5 4 6 7 9 10 rings
6 11 17 18 19 20 21 rings
6 6 7 12 13 14 16 rings

> <PUBCHEM_HEAVY_ATOM_COUNT>
22

> <PUBCHEM_ATOM_DEF_STEREO_COUNT>
0

> <PUBCHEM_ATOM_UDEF_STEREO_COUNT>
0

> <PUBCHEM_BOND_DEF_STEREO_COUNT>
1

> <PUBCHEM_BOND_UDEF_STEREO_COUNT>
0

> <PUBCHEM_ISOTOPIC_ATOM_COUNT>
0

> <PUBCHEM_COMPONENT_COUNT>
1

> <PUBCHEM_CACTVS_TAUTO_COUNT>
2

> <PUBCHEM_CONFORMER_ID>
000DAE4F00000001

> <PUBCHEM_MMFF94_ENERGY>
52.3874

> <PUBCHEM_FEATURE_SELFOVERLAP>
35.691

> <PUBCHEM_SHAPE_FINGERPRINT>
10074138 170 18116993493268334171
10319926 262 18338516452113575082
10692045 39 18268984302861393274
11370993 144 18339632435067388762
11370993 70 18409729555926351899
11582403 64 18060127717888418783
11725454 13 17989200447468029519
12107183 9 18335126580524296120
12173636 292 18338234989193766687
12553582 1 17398127417935035870
12623949 98 12540991650576554296
12633257 1 18041547148754333652
12769317 202 18196926682837642977
12788726 201 17682978938687317794
13004483 165 17687744256420991643
13103583 49 17969762233900612648
13140716 1 18334857173583331914
13878862 14 17538842478530541261
13955234 65 17975986362929722851
13965767 371 18113893810769699356
14178000 29 8862644807875941873
14178342 30 18116991285871252054
14461889 52 17969522441856017825
14787075 74 18273215326905576081
14955137 171 17760089518968635035
15238133 3 18410576210820964036
15842332 3 17315082301236792764
16110190 28 18115570597027198178
16994733 274 16702027461504488329
17780758 139 18045758330144529568
17980427 26 18268699511605486471
20567600 254 18410005512334765861
21033648 29 18410583885236276024
212916 134 18410569587152666312
21304303 282 18268408279032992711
21401589 2 18202005464363500961
21403212 168 18189601770526746938
21452121 103 18119249463537240077
21650355 55 17688591988671146258
21731228 192 18334012787228414118
2260408 40 7996816865944245117
22950370 63 9223228568184263621
23522609 53 17677339445983266220
23558518 356 18261677098622530526
23559900 14 18200600176950494062
255183 451 9078526232721048569
2838139 119 17774994666019135820
4340502 62 18337118878318900347
46194498 28 10878550951916183185
474 4 18339924805716921693
58807428 26 18187081724156852123
633830 44 18272083855650665197
6371380 46 18338800005854625790
7097593 13 18114732850438466066
7364860 26 17975421209283785343
79837 15 18333739035125180443
84936 182 18196097633974398097
90316 7 17689732173538852219
9981440 41 18059848523887709122

> <PUBCHEM_SHAPE_MULTIPOLES>
432.92
9.99
4.41
1.24
3.55
2.37
0.08
-12.21
-4.62
-4.81
-1.53
1.06
-0.04
0.77

> <PUBCHEM_SHAPE_SELFOVERLAP>
941.584

> <PUBCHEM_SHAPE_VOLUME>
239.6

> <PUBCHEM_COORDINATE_TYPE>
2
5
10

$$$$
