6618799
  -OEChem-01171810133D

 65 69  0     1  0  0  0  0  0999 V2000
    3.8788    1.8433    3.1446 Br  0  0  0  0  0  0  0  0  0  0  0  0
   -2.1630   -2.0852    0.6338 O   0  0  0  0  0  0  0  0  0  0  0  0
   -2.0040   -1.2775   -1.9897 O   0  0  0  0  0  0  0  0  0  0  0  0
    0.6767   -2.3823   -0.1051 O   0  0  0  0  0  0  0  0  0  0  0  0
   -0.0452   -2.9422   -2.2269 O   0  0  0  0  0  0  0  0  0  0  0  0
    5.1523    0.1917    0.8314 O   0  0  0  0  0  0  0  0  0  0  0  0
   -0.6124   -2.6748    2.2414 O   0  0  0  0  0  0  0  0  0  0  0  0
   -2.0663    2.8454    0.0037 N   0  0  1  0  0  0  0  0  0  0  0  0
    1.1863    0.0946   -1.9735 N   0  0  3  0  0  0  0  0  0  0  0  0
   -0.1441    1.4872   -0.5567 C   0  0  1  0  0  0  0  0  0  0  0  0
   -1.3399    1.6195    0.4134 C   0  0  2  0  0  0  0  0  0  0  0  0
   -2.2444    0.3712    0.6476 C   0  0  1  0  0  0  0  0  0  0  0  0
   -0.2224    0.3382   -1.6268 C   0  0  2  0  0  0  0  0  0  0  0  0
   -0.9082   -0.9739   -1.1171 C   0  0  1  0  0  0  0  0  0  0  0  0
   -0.0356    2.8911   -1.2155 C   0  0  0  0  0  0  0  0  0  0  0  0
   -1.4133   -0.8998    0.3414 C   0  0  2  0  0  0  0  0  0  0  0  0
    1.2142    1.1745    0.0548 C   0  0  0  0  0  0  0  0  0  0  0  0
   -1.0030    3.7642   -0.4258 C   0  0  0  0  0  0  0  0  0  0  0  0
   -2.7087    0.3709    2.1258 C   0  0  0  0  0  0  0  0  0  0  0  0
    1.9542    0.4218   -0.8725 C   0  0  0  0  0  0  0  0  0  0  0  0
   -3.5245    0.3967   -0.1657 C   0  0  0  0  0  0  0  0  0  0  0  0
   -3.0368    2.6436   -1.0824 C   0  0  0  0  0  0  0  0  0  0  0  0
   -3.8779    1.4210   -0.9463 C   0  0  0  0  0  0  0  0  0  0  0  0
   -0.0560   -2.2154   -1.2427 C   0  0  0  0  0  0  0  0  0  0  0  0
    1.7791    1.6058    1.2459 C   0  0  0  0  0  0  0  0  0  0  0  0
    1.6545   -0.4834   -3.2042 C   0  0  0  0  0  0  0  0  0  0  0  0
   -3.5226    1.6059    2.4322 C   0  0  0  0  0  0  0  0  0  0  0  0
    3.2787    0.1039   -0.6180 C   0  0  0  0  0  0  0  0  0  0  0  0
    3.1056    1.2646    1.5121 C   0  0  0  0  0  0  0  0  0  0  0  0
    3.8513    0.5229    0.5852 C   0  0  0  0  0  0  0  0  0  0  0  0
   -1.6397   -2.8787    1.6089 C   0  0  0  0  0  0  0  0  0  0  0  0
   -2.5238   -4.0726    1.8061 C   0  0  0  0  0  0  0  0  0  0  0  0
    1.5337   -3.5283   -0.0884 C   0  0  0  0  0  0  0  0  0  0  0  0
    5.8268   -0.5641   -0.1709 C   0  0  0  0  0  0  0  0  0  0  0  0
   -0.9123    1.8714    1.3928 H   0  0  0  0  0  0  0  0  0  0  0  0
   -0.7587    0.7016   -2.5127 H   0  0  0  0  0  0  0  0  0  0  0  0
   -0.3421    2.8599   -2.2676 H   0  0  0  0  0  0  0  0  0  0  0  0
    0.9714    3.3240   -1.1915 H   0  0  0  0  0  0  0  0  0  0  0  0
   -0.5472   -0.8187    1.0106 H   0  0  0  0  0  0  0  0  0  0  0  0
   -0.5028    4.1744    0.4603 H   0  0  0  0  0  0  0  0  0  0  0  0
   -1.3735    4.6150   -1.0082 H   0  0  0  0  0  0  0  0  0  0  0  0
   -3.3232   -0.5122    2.3433 H   0  0  0  0  0  0  0  0  0  0  0  0
   -1.8466    0.3200    2.8027 H   0  0  0  0  0  0  0  0  0  0  0  0
   -4.1871   -0.4641   -0.1109 H   0  0  0  0  0  0  0  0  0  0  0  0
   -2.5654    2.5997   -2.0713 H   0  0  0  0  0  0  0  0  0  0  0  0
   -3.7038    3.5143   -1.0936 H   0  0  0  0  0  0  0  0  0  0  0  0
   -4.7967    1.3635   -1.5218 H   0  0  0  0  0  0  0  0  0  0  0  0
    1.2108    2.2144    1.9413 H   0  0  0  0  0  0  0  0  0  0  0  0
   -1.6710   -1.2889   -2.9036 H   0  0  0  0  0  0  0  0  0  0  0  0
    0.8263   -0.6485   -3.9011 H   0  0  0  0  0  0  0  0  0  0  0  0
    2.1489   -1.4445   -3.0305 H   0  0  0  0  0  0  0  0  0  0  0  0
    2.3691    0.1871   -3.6928 H   0  0  0  0  0  0  0  0  0  0  0  0
   -2.9368    2.5275    2.4014 H   0  0  0  0  0  0  0  0  0  0  0  0
   -3.8853    1.5302    3.4651 H   0  0  0  0  0  0  0  0  0  0  0  0
   -4.4175    1.7225    1.8162 H   0  0  0  0  0  0  0  0  0  0  0  0
    3.7993   -0.4731   -1.3723 H   0  0  0  0  0  0  0  0  0  0  0  0
   -3.5207   -3.7483    2.1151 H   0  0  0  0  0  0  0  0  0  0  0  0
   -2.1049   -4.7080    2.5915 H   0  0  0  0  0  0  0  0  0  0  0  0
   -2.5757   -4.6515    0.8805 H   0  0  0  0  0  0  0  0  0  0  0  0
    2.0733   -3.5346    0.8623 H   0  0  0  0  0  0  0  0  0  0  0  0
    2.2609   -3.4694   -0.9038 H   0  0  0  0  0  0  0  0  0  0  0  0
    0.9404   -4.4445   -0.1630 H   0  0  0  0  0  0  0  0  0  0  0  0
    6.8462   -0.7367    0.1904 H   0  0  0  0  0  0  0  0  0  0  0  0
    5.9173   -0.0057   -1.1091 H   0  0  0  0  0  0  0  0  0  0  0  0
    5.3724   -1.5512   -0.3099 H   0  0  0  0  0  0  0  0  0  0  0  0
  1 29  1  0  0  0  0
  2 16  1  0  0  0  0
  2 31  1  0  0  0  0
  3 14  1  0  0  0  0
  3 49  1  0  0  0  0
  4 24  1  0  0  0  0
  4 33  1  0  0  0  0
  5 24  2  0  0  0  0
  6 30  1  0  0  0  0
  6 34  1  0  0  0  0
  7 31  2  0  0  0  0
  8 11  1  0  0  0  0
  8 18  1  0  0  0  0
  8 22  1  0  0  0  0
  9 13  1  0  0  0  0
  9 20  1  0  0  0  0
  9 26  1  0  0  0  0
 10 11  1  0  0  0  0
 10 13  1  0  0  0  0
 10 15  1  0  0  0  0
 10 17  1  0  0  0  0
 11 12  1  0  0  0  0
 11 35  1  0  0  0  0
 12 16  1  0  0  0  0
 12 19  1  0  0  0  0
 12 21  1  0  0  0  0
 13 14  1  0  0  0  0
 13 36  1  0  0  0  0
 14 16  1  0  0  0  0
 14 24  1  0  0  0  0
 15 18  1  0  0  0  0
 15 37  1  0  0  0  0
 15 38  1  0  0  0  0
 16 39  1  0  0  0  0
 17 20  1  0  0  0  0
 17 25  2  0  0  0  0
 18 40  1  0  0  0  0
 18 41  1  0  0  0  0
 19 27  1  0  0  0  0
 19 42  1  0  0  0  0
 19 43  1  0  0  0  0
 20 28  2  0  0  0  0
 21 23  2  0  0  0  0
 21 44  1  0  0  0  0
 22 23  1  0  0  0  0
 22 45  1  0  0  0  0
 22 46  1  0  0  0  0
 23 47  1  0  0  0  0
 25 29  1  0  0  0  0
 25 48  1  0  0  0  0
 26 50  1  0  0  0  0
 26 51  1  0  0  0  0
 26 52  1  0  0  0  0
 27 53  1  0  0  0  0
 27 54  1  0  0  0  0
 27 55  1  0  0  0  0
 28 30  1  0  0  0  0
 28 56  1  0  0  0  0
 29 30  2  0  0  0  0
 31 32  1  0  0  0  0
 32 57  1  0  0  0  0
 32 58  1  0  0  0  0
 32 59  1  0  0  0  0
 33 60  1  0  0  0  0
 33 61  1  0  0  0  0
 33 62  1  0  0  0  0
 34 63  1  0  0  0  0
 34 64  1  0  0  0  0
 34 65  1  0  0  0  0
M  END
> <PUBCHEM_COMPOUND_CID>
6618799

> <PUBCHEM_CONFORMER_RMSD>
1

> <PUBCHEM_CONFORMER_DIVERSEORDER>
1
2
12
5
9
3
4
13
6
10
7
8
14
11

> <PUBCHEM_MMFF94_PARTIAL_CHARGES>
36
1 -0.11
10 0.14
11 0.27
12 0.14
13 0.37
14 0.34
16 0.28
17 -0.14
18 0.27
2 -0.43
20 0.1
21 -0.29
22 0.41
23 -0.29
24 0.66
25 -0.15
26 0.37
28 -0.15
29 0.11
3 -0.68
30 0.08
31 0.66
32 0.06
33 0.28
34 0.28
4 -0.43
44 0.15
47 0.15
48 0.15
49 0.4
5 -0.57
56 0.15
6 -0.36
7 -0.57
8 -0.81
9 -0.84

> <PUBCHEM_EFFECTIVE_ROTOR_COUNT>
7.2

> <PUBCHEM_PHARMACOPHORE_FEATURES>
14
1 1 hydrophobe
1 27 hydrophobe
1 3 acceptor
1 3 donor
1 5 acceptor
1 6 acceptor
1 7 acceptor
1 8 cation
1 9 cation
5 8 10 11 15 18 rings
5 9 10 13 17 20 rings
6 10 11 12 13 14 16 rings
6 17 20 25 28 29 30 rings
6 8 11 12 21 22 23 rings

> <PUBCHEM_HEAVY_ATOM_COUNT>
34

> <PUBCHEM_ATOM_DEF_STEREO_COUNT>
3

> <PUBCHEM_ATOM_UDEF_STEREO_COUNT>
3

> <PUBCHEM_BOND_DEF_STEREO_COUNT>
0

> <PUBCHEM_BOND_UDEF_STEREO_COUNT>
0

> <PUBCHEM_ISOTOPIC_ATOM_COUNT>
0

> <PUBCHEM_COMPONENT_COUNT>
1

> <PUBCHEM_CACTVS_TAUTO_COUNT>
1

> <PUBCHEM_CONFORMER_ID>
0064FEAF00000001

> <PUBCHEM_MMFF94_ENERGY>
141.6411

> <PUBCHEM_FEATURE_SELFOVERLAP>
71.747

> <PUBCHEM_SHAPE_FINGERPRINT>
10863032 1 18124306117212864173
11578080 2 17836660625212756701
11640471 11 13685757003776918250
12633257 1 18044962253233883299
131258 38 16520774278881937442
13140716 1 18194986229487324889
14178342 30 18268454436898368275
14787075 74 17617662055455242014
14856354 85 18188784937205256166
16728300 4 17023734616378495625
16945 1 18191616114652577333
20600515 1 18338254720274044004
20691752 17 18192732067557612877
20905425 154 18123189004935501917
21033648 29 18057299757288135224
23419403 2 17692554220360066021
23559900 14 18192987132780732412
23598288 3 17604161396869622737
2748010 2 18127714783705274493
3298306 158 18124299520491049072
3380486 77 17619896692621953359
35225 105 18056168419519139920
392239 28 17041472818374040242
484985 159 17751051744068048130
5265222 85 18410863162260051462
56638632 33 15948229471605876514

> <PUBCHEM_SHAPE_MULTIPOLES>
660.47
7.09
4.34
2.73
7.92
2.47
-0.48
-1.98
-3.11
-2.8
-0.85
0.44
0.35
2.1

> <PUBCHEM_SHAPE_SELFOVERLAP>
1435.609

> <PUBCHEM_SHAPE_VOLUME>
370.5

> <PUBCHEM_COORDINATE_TYPE>
2
5
10

$$$$
