2689734
  -OEChem-01171810093D

 50 53  0     0  0  0  0  0  0999 V2000
    4.0302   -0.8892    1.6456 S   0  0  0  0  0  0  0  0  0  0  0  0
    2.5994    3.9469   -1.3705 F   0  0  0  0  0  0  0  0  0  0  0  0
    3.5429   -3.3403   -2.0962 O   0  0  0  0  0  0  0  0  0  0  0  0
    5.4197   -0.7702    2.0329 O   0  0  0  0  0  0  0  0  0  0  0  0
    2.9984   -1.1230    2.6334 O   0  0  0  0  0  0  0  0  0  0  0  0
   -0.3169    1.4554   -0.0353 O   0  0  0  0  0  0  0  0  0  0  0  0
    0.1657    3.6988   -0.2168 O   0  0  0  0  0  0  0  0  0  0  0  0
   -1.9563   -0.6259    0.0767 O   0  0  0  0  0  0  0  0  0  0  0  0
    3.8929   -2.0649    0.4086 N   0  0  0  0  0  0  0  0  0  0  0  0
   -6.0069    1.4064   -0.0984 N   0  0  0  0  0  0  0  0  0  0  0  0
    4.9617   -2.0307   -0.6322 C   0  0  0  0  0  0  0  0  0  0  0  0
    2.5426   -2.1872   -0.2147 C   0  0  0  0  0  0  0  0  0  0  0  0
    4.8399   -3.2760   -1.4993 C   0  0  0  0  0  0  0  0  0  0  0  0
    2.5227   -3.4262   -1.0989 C   0  0  0  0  0  0  0  0  0  0  0  0
    3.5964    0.5631    0.7404 C   0  0  0  0  0  0  0  0  0  0  0  0
    2.2688    0.9541    0.6804 C   0  0  0  0  0  0  0  0  0  0  0  0
    4.5913    1.2879    0.1050 C   0  0  0  0  0  0  0  0  0  0  0  0
    1.9266    2.1016   -0.0349 C   0  0  0  0  0  0  0  0  0  0  0  0
    4.2492    2.4356   -0.6103 C   0  0  0  0  0  0  0  0  0  0  0  0
    2.9168    2.8424   -0.6802 C   0  0  0  0  0  0  0  0  0  0  0  0
   -4.9041   -0.5273    0.0509 C   0  0  0  0  0  0  0  0  0  0  0  0
   -4.0022    0.5414   -0.0208 C   0  0  0  0  0  0  0  0  0  0  0  0
   -6.1776    0.0438    0.0001 C   0  0  0  0  0  0  0  0  0  0  0  0
    0.5362    2.5227   -0.1057 C   0  0  0  0  0  0  0  0  0  0  0  0
   -4.6732    1.7154   -0.1116 C   0  0  0  0  0  0  0  0  0  0  0  0
   -2.5318    0.4603   -0.0061 C   0  0  0  0  0  0  0  0  0  0  0  0
   -1.7182    1.7422   -0.0961 C   0  0  0  0  0  0  0  0  0  0  0  0
   -4.7928   -1.9280    0.1541 C   0  0  0  0  0  0  0  0  0  0  0  0
   -7.3498   -0.7190    0.0476 C   0  0  0  0  0  0  0  0  0  0  0  0
   -5.9568   -2.7038    0.2024 C   0  0  0  0  0  0  0  0  0  0  0  0
   -7.2146   -2.1064    0.1499 C   0  0  0  0  0  0  0  0  0  0  0  0
    4.8385   -1.1439   -1.2615 H   0  0  0  0  0  0  0  0  0  0  0  0
    5.9518   -2.0138   -0.1677 H   0  0  0  0  0  0  0  0  0  0  0  0
    1.7701   -2.2785    0.5545 H   0  0  0  0  0  0  0  0  0  0  0  0
    2.3384   -1.3142   -0.8420 H   0  0  0  0  0  0  0  0  0  0  0  0
    5.0179   -4.1894   -0.9192 H   0  0  0  0  0  0  0  0  0  0  0  0
    5.5781   -3.2441   -2.3067 H   0  0  0  0  0  0  0  0  0  0  0  0
    2.6649   -4.3417   -0.5123 H   0  0  0  0  0  0  0  0  0  0  0  0
    1.5593   -3.5047   -1.6124 H   0  0  0  0  0  0  0  0  0  0  0  0
    1.5052    0.3779    1.1949 H   0  0  0  0  0  0  0  0  0  0  0  0
    5.6337    0.9873    0.1443 H   0  0  0  0  0  0  0  0  0  0  0  0
    5.0197    3.0120   -1.1137 H   0  0  0  0  0  0  0  0  0  0  0  0
   -4.3573    2.7467   -0.1856 H   0  0  0  0  0  0  0  0  0  0  0  0
   -6.7581    2.0803   -0.1532 H   0  0  0  0  0  0  0  0  0  0  0  0
   -1.9400    2.2333   -1.0497 H   0  0  0  0  0  0  0  0  0  0  0  0
   -1.9832    2.3881    0.7479 H   0  0  0  0  0  0  0  0  0  0  0  0
   -3.8248   -2.4181    0.1967 H   0  0  0  0  0  0  0  0  0  0  0  0
   -8.3295   -0.2548    0.0068 H   0  0  0  0  0  0  0  0  0  0  0  0
   -5.8772   -3.7848    0.2819 H   0  0  0  0  0  0  0  0  0  0  0  0
   -8.1055   -2.7280    0.1890 H   0  0  0  0  0  0  0  0  0  0  0  0
  1  4  2  0  0  0  0
  1  5  2  0  0  0  0
  1  9  1  0  0  0  0
  1 15  1  0  0  0  0
  2 20  1  0  0  0  0
  3 13  1  0  0  0  0
  3 14  1  0  0  0  0
  6 24  1  0  0  0  0
  6 27  1  0  0  0  0
  7 24  2  0  0  0  0
  8 26  2  0  0  0  0
  9 11  1  0  0  0  0
  9 12  1  0  0  0  0
 10 23  1  0  0  0  0
 10 25  1  0  0  0  0
 10 44  1  0  0  0  0
 11 13  1  0  0  0  0
 11 32  1  0  0  0  0
 11 33  1  0  0  0  0
 12 14  1  0  0  0  0
 12 34  1  0  0  0  0
 12 35  1  0  0  0  0
 13 36  1  0  0  0  0
 13 37  1  0  0  0  0
 14 38  1  0  0  0  0
 14 39  1  0  0  0  0
 15 16  2  0  0  0  0
 15 17  1  0  0  0  0
 16 18  1  0  0  0  0
 16 40  1  0  0  0  0
 17 19  2  0  0  0  0
 17 41  1  0  0  0  0
 18 20  2  0  0  0  0
 18 24  1  0  0  0  0
 19 20  1  0  0  0  0
 19 42  1  0  0  0  0
 21 22  1  0  0  0  0
 21 23  1  0  0  0  0
 21 28  2  0  0  0  0
 22 25  2  0  0  0  0
 22 26  1  0  0  0  0
 23 29  2  0  0  0  0
 25 43  1  0  0  0  0
 26 27  1  0  0  0  0
 27 45  1  0  0  0  0
 27 46  1  0  0  0  0
 28 30  1  0  0  0  0
 28 47  1  0  0  0  0
 29 31  1  0  0  0  0
 29 48  1  0  0  0  0
 30 31  2  0  0  0  0
 30 49  1  0  0  0  0
 31 50  1  0  0  0  0
M  END
> <PUBCHEM_COMPOUND_CID>
2689734

> <PUBCHEM_CONFORMER_RMSD>
1

> <PUBCHEM_CONFORMER_DIVERSEORDER>
1
283
202
252
291
66
319
395
131
107
75
178
331
38
132
375
250
355
275
45
226
135
84
211
322
311
270
185
142
158
159
168
290
220
404
303
335
136
260
382
354
53
339
156
402
373
332
234
392
61
104
71
147
344
360
401
389
19
281
358
190
91
184
164
248
317
294
187
387
313
111
199
306
57
194
170
169
348
336
238
262
121
274
276
47
224
100
90
236
55
20
307
383
285
310
229
326
400
58
264
140
299
346
16
364
29
328
63
314
301
83
261
255
280
215
342
65
2
323
253
225
232
366
213
393
385
96
70
365
320
176
327
116
308
182
403
312
263
333
243
99
304
56
374
22
324
144
315
321
134
8
265
295
239
167
286
371
219
125
242
85
50
97
247
340
33
273
118
282
67
214
62
149
309
300
367
206
60
293
288
181
7
72
15
162
205
17
277
163
86
10
298
120
376
297
246
353
192
216
30
221
39
154
54
43
3
329
305
377
267
87
24
259
204
189
212
148
237
334
292
6
123
133
143
155
256
351
191
186
160
380
174
388
352
119
209
34
379
102
44
268
228
195
171
69
381
18
386
95
114
356
347
197
203
122
345
207
112
11
337
223
338
296
222
397
177
64
51
369
230
180
93
49
398
396
269
139
130
27
316
126
271
105
384
287
200
272
227
78
137
106
153
257
115
31
103
249
302
82
59
152
151
399
48
74
5
370
79
12
368
372
254
173
141
150
258
235
278
68
357
145
41
157
81
14
343
193
218
76
117
89
161
363
231
198
32
108
350
362
284
179
40
73
37
77
127
341
23
183
124
279
128
138
349
175
88
210
129
266
9
390
394
35
318
188
361
217
21
378
52
46
26
289
4
208
94
251
241
166
172
196
359
92
109
110
165
113
233
80
330
244
245
325
146
42
36
25
98
13
201
391
101
240
28

> <PUBCHEM_MMFF94_PARTIAL_CHARGES>
39
1 1.45
10 0.03
11 0.36
12 0.36
13 0.28
14 0.28
15 -0.01
16 -0.15
17 -0.15
18 0.09
19 -0.15
2 -0.19
20 0.19
22 -0.09
23 -0.15
24 0.63
25 -0.3
26 0.6
27 0.34
28 -0.15
29 -0.15
3 -0.56
30 -0.15
31 -0.15
4 -0.65
40 0.15
41 0.15
42 0.15
43 0.15
44 0.27
47 0.15
48 0.15
49 0.15
5 -0.65
50 0.15
6 -0.43
7 -0.57
8 -0.57
9 -0.85

> <PUBCHEM_EFFECTIVE_ROTOR_COUNT>
8.2

> <PUBCHEM_PHARMACOPHORE_FEATURES>
11
1 10 cation
1 10 donor
1 3 acceptor
1 4 acceptor
1 5 acceptor
1 7 acceptor
1 8 acceptor
5 10 21 22 23 25 rings
6 15 16 17 18 19 20 rings
6 21 23 28 29 30 31 rings
6 3 9 11 12 13 14 rings

> <PUBCHEM_HEAVY_ATOM_COUNT>
31

> <PUBCHEM_ATOM_DEF_STEREO_COUNT>
0

> <PUBCHEM_ATOM_UDEF_STEREO_COUNT>
0

> <PUBCHEM_BOND_DEF_STEREO_COUNT>
0

> <PUBCHEM_BOND_UDEF_STEREO_COUNT>
0

> <PUBCHEM_ISOTOPIC_ATOM_COUNT>
0

> <PUBCHEM_COMPONENT_COUNT>
1

> <PUBCHEM_CACTVS_TAUTO_COUNT>
5

> <PUBCHEM_CONFORMER_ID>
00290AC600000001

> <PUBCHEM_MMFF94_ENERGY>
58.7988

> <PUBCHEM_FEATURE_SELFOVERLAP>
55.934

> <PUBCHEM_SHAPE_FINGERPRINT>
10483366 6 18339380629956848846
10595046 47 18189334735784726709
10864689 126 18121500146744415807
11204353 107 17618227642529255745
11315621 136 18410017628231292222
11443803 9 18263365958106586852
11621639 148 18412537727249122856
117089 54 18127703625507775598
11756154 67 18197506129713034574
11963148 33 18267300018383098895
12107183 9 18196663891480405897
12422481 6 17775278327428891869
13150687 139 18117578421313604068
13383661 66 17128761002557739030
13533116 47 18272371992485823825
1361 2 18410575119039135442
1361 4 18263364870931124691
13782708 43 17748823021419209163
13785724 45 18270129997913579485
13989917 61 18340773731794684599
14211702 104 18261115222948685467
14251740 57 18342740693444730870
14347332 77 18334570274885722733
14556957 393 14634864220198044959
15001296 14 18115302410167578523
15003188 105 17968088690976633626
15183329 4 18336547209545256873
15250474 111 18125712633551409831
15361156 5 18114760247623741573
15419008 42 18121200005849763229
15484559 13 17678186108169236516
15799311 1 18337969986091492467
17492 89 18339924814096022140
17909252 39 18129388107718036514
19301679 30 18342184349926496873
1979834 28 18201431485129248402
20645477 70 18334011709408095488
21197605 99 18265895937549154714
23522609 53 18119557503394143973
23559900 14 18341329998973204019
239999 70 18334011692533655530
3004659 81 18260267434431256968
338550 245 18341609356040908407
4073 2 17677896927730669553
4144715 1 18408611362135246505
4394409 98 15591870009549891006
4435113 14 18189627192934817579
46194498 28 18408040693703542780
513532 50 18409165498673585794
53794403 172 18262807379226677598
613672 6 18195224664274918309
6823239 73 18341051796698659138
7970288 3 18120370952412943290
9831232 110 18408885110191809951

> <PUBCHEM_SHAPE_MULTIPOLES>
589.36
18.26
4.72
1.34
29.93
0.16
0.46
10.35
1.01
-5.31
-2.34
-2.8
0.85
0.88

> <PUBCHEM_SHAPE_SELFOVERLAP>
1274.574

> <PUBCHEM_SHAPE_VOLUME>
326.1

> <PUBCHEM_COORDINATE_TYPE>
2
5
10

$$$$
