1472218
  -OEChem-01171809223D

 39 40  0     0  0  0  0  0  0999 V2000
    3.2341   -3.4356    0.6422 Cl  0  0  0  0  0  0  0  0  0  0  0  0
    0.1912   -4.5338    0.6751 Cl  0  0  0  0  0  0  0  0  0  0  0  0
    2.3740   -0.9713   -0.5704 S   0  0  0  0  0  0  0  0  0  0  0  0
    1.4062   -0.4583   -1.5229 O   0  0  0  0  0  0  0  0  0  0  0  0
    3.7770   -1.0057   -0.9473 O   0  0  0  0  0  0  0  0  0  0  0  0
   -0.9150   -2.3110   -1.5663 O   0  0  0  0  0  0  0  0  0  0  0  0
   -5.4631    1.8738    0.1385 O   0  0  0  0  0  0  0  0  0  0  0  0
   -1.0979   -1.4240    0.6105 N   0  0  0  0  0  0  0  0  0  0  0  0
   -3.9689    0.3789   -0.8190 N   0  0  0  0  0  0  0  0  0  0  0  0
    2.2665    0.0568    0.8740 C   0  0  0  0  0  0  0  0  0  0  0  0
    2.6609    1.4455    0.4755 C   0  0  0  0  0  0  0  0  0  0  0  0
    1.8928   -2.5227    0.0513 C   0  0  0  0  0  0  0  0  0  0  0  0
    1.6914    2.3379    0.0271 C   0  0  0  0  0  0  0  0  0  0  0  0
    3.9946    1.8353    0.5556 C   0  0  0  0  0  0  0  0  0  0  0  0
    2.0588    3.6312   -0.3444 C   0  0  0  0  0  0  0  0  0  0  0  0
    4.3621    3.1286    0.1843 C   0  0  0  0  0  0  0  0  0  0  0  0
    0.6272   -2.9650    0.0782 C   0  0  0  0  0  0  0  0  0  0  0  0
    3.3941    4.0266   -0.2658 C   0  0  0  0  0  0  0  0  0  0  0  0
   -0.5473   -2.1912   -0.4036 C   0  0  0  0  0  0  0  0  0  0  0  0
   -2.2183   -0.5647    0.5223 C   0  0  0  0  0  0  0  0  0  0  0  0
   -2.6447    0.1368    1.6306 C   0  0  0  0  0  0  0  0  0  0  0  0
   -2.8917   -0.4235   -0.6676 C   0  0  0  0  0  0  0  0  0  0  0  0
   -3.7498    0.9727    1.5141 C   0  0  0  0  0  0  0  0  0  0  0  0
   -4.3711    1.0580    0.2786 C   0  0  0  0  0  0  0  0  0  0  0  0
   -6.0630    1.9247   -1.1505 C   0  0  0  0  0  0  0  0  0  0  0  0
    1.2437    0.0332    1.2588 H   0  0  0  0  0  0  0  0  0  0  0  0
    2.9356   -0.3420    1.6429 H   0  0  0  0  0  0  0  0  0  0  0  0
    0.6476    2.0420   -0.0372 H   0  0  0  0  0  0  0  0  0  0  0  0
    4.7578    1.1456    0.9058 H   0  0  0  0  0  0  0  0  0  0  0  0
    1.3052    4.3304   -0.6946 H   0  0  0  0  0  0  0  0  0  0  0  0
    5.4017    3.4367    0.2457 H   0  0  0  0  0  0  0  0  0  0  0  0
    3.6802    5.0336   -0.5549 H   0  0  0  0  0  0  0  0  0  0  0  0
   -0.6611   -1.4685    1.5292 H   0  0  0  0  0  0  0  0  0  0  0  0
   -2.1360    0.0492    2.5862 H   0  0  0  0  0  0  0  0  0  0  0  0
   -2.6360   -0.9264   -1.5882 H   0  0  0  0  0  0  0  0  0  0  0  0
   -4.1085    1.5369    2.3680 H   0  0  0  0  0  0  0  0  0  0  0  0
   -6.4430    0.9410   -1.4461 H   0  0  0  0  0  0  0  0  0  0  0  0
   -5.3602    2.3118   -1.8959 H   0  0  0  0  0  0  0  0  0  0  0  0
   -6.9124    2.6124   -1.0994 H   0  0  0  0  0  0  0  0  0  0  0  0
  1 12  1  0  0  0  0
  2 17  1  0  0  0  0
  3  4  2  0  0  0  0
  3  5  2  0  0  0  0
  3 10  1  0  0  0  0
  3 12  1  0  0  0  0
  6 19  2  0  0  0  0
  7 24  1  0  0  0  0
  7 25  1  0  0  0  0
  8 19  1  0  0  0  0
  8 20  1  0  0  0  0
  8 33  1  0  0  0  0
  9 22  1  0  0  0  0
  9 24  2  0  0  0  0
 10 11  1  0  0  0  0
 10 26  1  0  0  0  0
 10 27  1  0  0  0  0
 11 13  2  0  0  0  0
 11 14  1  0  0  0  0
 12 17  2  0  0  0  0
 13 15  1  0  0  0  0
 13 28  1  0  0  0  0
 14 16  2  0  0  0  0
 14 29  1  0  0  0  0
 15 18  2  0  0  0  0
 15 30  1  0  0  0  0
 16 18  1  0  0  0  0
 16 31  1  0  0  0  0
 17 19  1  0  0  0  0
 18 32  1  0  0  0  0
 20 21  1  0  0  0  0
 20 22  2  0  0  0  0
 21 23  2  0  0  0  0
 21 34  1  0  0  0  0
 22 35  1  0  0  0  0
 23 24  1  0  0  0  0
 23 36  1  0  0  0  0
 25 37  1  0  0  0  0
 25 38  1  0  0  0  0
 25 39  1  0  0  0  0
M  END
> <PUBCHEM_COMPOUND_CID>
1472218

> <PUBCHEM_CONFORMER_RMSD>
0.8

> <PUBCHEM_CONFORMER_DIVERSEORDER>
1
52
21
30
14
69
45
22
46
49
61
35
68
16
47
20
27
50
64
19
59
31
51
44
62
42
65
38
43
48
70
32
56
58
54
28
26
40
41
60
23
63
9
15
3
13
10
36
55
66
67
4
53
11
2
29
57
33
12
17
24
34
7
5
18
37
25
39
6
8

> <PUBCHEM_MMFF94_PARTIAL_CHARGES>
34
1 -0.14
10 0.25
11 -0.14
12 0.12
13 -0.15
14 -0.15
15 -0.15
16 -0.15
17 0.15
18 -0.15
19 0.62
2 -0.14
20 0.12
21 -0.15
22 0.16
23 -0.15
24 0.39
25 0.28
28 0.15
29 0.15
3 1.21
30 0.15
31 0.15
32 0.15
33 0.37
34 0.15
35 0.15
36 0.15
4 -0.65
5 -0.65
6 -0.57
7 -0.36
8 -0.55
9 -0.62

> <PUBCHEM_EFFECTIVE_ROTOR_COUNT>
7

> <PUBCHEM_PHARMACOPHORE_FEATURES>
6
1 4 acceptor
1 5 acceptor
1 6 acceptor
1 8 donor
6 11 13 14 15 16 18 rings
6 9 20 21 22 23 24 rings

> <PUBCHEM_HEAVY_ATOM_COUNT>
25

> <PUBCHEM_ATOM_DEF_STEREO_COUNT>
0

> <PUBCHEM_ATOM_UDEF_STEREO_COUNT>
0

> <PUBCHEM_BOND_DEF_STEREO_COUNT>
1

> <PUBCHEM_BOND_UDEF_STEREO_COUNT>
0

> <PUBCHEM_ISOTOPIC_ATOM_COUNT>
0

> <PUBCHEM_COMPONENT_COUNT>
1

> <PUBCHEM_CACTVS_TAUTO_COUNT>
2

> <PUBCHEM_CONFORMER_ID>
001676DA00000001

> <PUBCHEM_MMFF94_ENERGY>
72.9831

> <PUBCHEM_FEATURE_SELFOVERLAP>
30.467

> <PUBCHEM_SHAPE_FINGERPRINT>
10937287 8 18266739267177944224
1100329 8 18411421726656503626
11370993 70 18268147737199244584
12107183 9 18191287455856223664
12156800 1 10540193208861480856
12633257 1 18262503897243840912
13134695 92 18120092779907315478
13583140 156 18262529087527939787
13590594 115 17979074886343653282
1361 2 18337100263878334013
138480 1 18194120703255916378
13878862 14 18044073697509530037
13965767 371 17968647315655160588
14251751 93 17836934764896346736
14251764 75 18342187691068642817
14848178 96 18341614840672012080
15003188 8 18339348756008304992
15439362 3 18411984680673056480
15848702 68 18410575046345989942
20157964 124 18410569570811859501
20621476 13 18410012113293226753
21388113 180 18334287652826073661
21475661 188 18333731312488989361
21860390 5 18200599068516252334
22122407 14 18052836758387287441
23558518 356 18196089061025029326
23559900 14 18264205812531867059
23845131 108 18333448772640535923
345986 75 17029643245627182138
469060 322 17256828100269665210
474 4 18413105048445165971
5048184 11 18268996564407564384
57124632 79 18410570695264836905
9981440 41 18265891556471139963

> <PUBCHEM_SHAPE_MULTIPOLES>
488.64
10.06
5.72
1.23
12.5
1.68
0.01
-10.7
-0.54
-6.17
0.13
0.8
0.13
0.19

> <PUBCHEM_SHAPE_SELFOVERLAP>
1005.319

> <PUBCHEM_SHAPE_VOLUME>
282.4

> <PUBCHEM_COORDINATE_TYPE>
2
5
10

$$$$
