2998738
  -OEChem-01171809173D

 30 32  0     1  0  0  0  0  0999 V2000
   -4.4082    1.0290   -0.4248 S   0  0  0  0  0  0  0  0  0  0  0  0
    1.4952    0.5011    1.5687 O   0  0  0  0  0  0  0  0  0  0  0  0
    1.2940    1.2394   -1.2128 O   0  0  0  0  0  0  0  0  0  0  0  0
   -0.5353   -1.0331    0.9129 O   0  0  0  0  0  0  0  0  0  0  0  0
   -1.9083    0.7755    0.3735 N   0  0  0  0  0  0  0  0  0  0  0  0
   -3.1577   -1.1995    0.1437 N   0  0  0  0  0  0  0  0  0  0  0  0
    0.3600    1.1798    1.0445 C   0  0  1  0  0  0  0  0  0  0  0  0
    0.6999    2.0213   -0.1743 C   0  0  0  0  0  0  0  0  0  0  0  0
   -0.7195    0.1730    0.7716 C   0  0  0  0  0  0  0  0  0  0  0  0
    2.3674    0.0564    0.6127 C   0  0  0  0  0  0  0  0  0  0  0  0
    2.2657    0.4036   -0.7342 C   0  0  0  0  0  0  0  0  0  0  0  0
   -3.0447    0.0844    0.0836 C   0  0  0  0  0  0  0  0  0  0  0  0
   -5.1924   -0.4751   -1.0361 C   0  0  0  0  0  0  0  0  0  0  0  0
   -4.5553   -1.5615   -0.1805 C   0  0  0  0  0  0  0  0  0  0  0  0
    3.3927   -0.7893    1.0388 C   0  0  0  0  0  0  0  0  0  0  0  0
    3.1637   -0.1241   -1.6630 C   0  0  0  0  0  0  0  0  0  0  0  0
    4.3000   -1.3047    0.1129 C   0  0  0  0  0  0  0  0  0  0  0  0
    4.1826   -0.9762   -1.2374 C   0  0  0  0  0  0  0  0  0  0  0  0
   -0.0062    1.8406    1.8399 H   0  0  0  0  0  0  0  0  0  0  0  0
   -0.1752    2.5208   -0.6003 H   0  0  0  0  0  0  0  0  0  0  0  0
    1.4143    2.8097    0.0978 H   0  0  0  0  0  0  0  0  0  0  0  0
   -1.9562    1.7880    0.3079 H   0  0  0  0  0  0  0  0  0  0  0  0
   -4.9318   -0.6078   -2.0908 H   0  0  0  0  0  0  0  0  0  0  0  0
   -6.2802   -0.4484   -0.9339 H   0  0  0  0  0  0  0  0  0  0  0  0
   -5.1109   -1.7023    0.7552 H   0  0  0  0  0  0  0  0  0  0  0  0
   -4.5721   -2.5177   -0.7145 H   0  0  0  0  0  0  0  0  0  0  0  0
    3.4850   -1.0595    2.0874 H   0  0  0  0  0  0  0  0  0  0  0  0
    3.0820    0.1309   -2.7162 H   0  0  0  0  0  0  0  0  0  0  0  0
    5.0951   -1.9669    0.4432 H   0  0  0  0  0  0  0  0  0  0  0  0
    4.8865   -1.3825   -1.9579 H   0  0  0  0  0  0  0  0  0  0  0  0
  1 12  1  0  0  0  0
  1 13  1  0  0  0  0
  2  7  1  0  0  0  0
  2 10  1  0  0  0  0
  3  8  1  0  0  0  0
  3 11  1  0  0  0  0
  4  9  2  0  0  0  0
  5  9  1  0  0  0  0
  5 12  1  0  0  0  0
  5 22  1  0  0  0  0
  6 12  2  0  0  0  0
  6 14  1  0  0  0  0
  7  8  1  0  0  0  0
  7  9  1  0  0  0  0
  7 19  1  0  0  0  0
  8 20  1  0  0  0  0
  8 21  1  0  0  0  0
 10 11  1  0  0  0  0
 10 15  2  0  0  0  0
 11 16  2  0  0  0  0
 13 14  1  0  0  0  0
 13 23  1  0  0  0  0
 13 24  1  0  0  0  0
 14 25  1  0  0  0  0
 14 26  1  0  0  0  0
 15 17  1  0  0  0  0
 15 27  1  0  0  0  0
 16 18  1  0  0  0  0
 16 28  1  0  0  0  0
 17 18  2  0  0  0  0
 17 29  1  0  0  0  0
 18 30  1  0  0  0  0
M  END
> <PUBCHEM_COMPOUND_CID>
2998738

> <PUBCHEM_CONFORMER_RMSD>
0.6

> <PUBCHEM_CONFORMER_DIVERSEORDER>
1
47
42
28
41
37
5
32
35
15
38
44
13
48
23
52
12
18
14
51
3
54
2
29
46
53
20
16
36
27
31
39
6
30
7
33
50
4
40
49
22
26
10
24
11
34
43
21
55
9
19
45
8
17
56
25

> <PUBCHEM_MMFF94_PARTIAL_CHARGES>
23
1 -0.37
10 0.08
11 0.08
12 0.65
13 0.23
14 0.25
15 -0.15
16 -0.15
17 -0.15
18 -0.15
2 -0.36
22 0.37
27 0.15
28 0.15
29 0.15
3 -0.36
30 0.15
4 -0.57
5 -0.49
6 -0.7
7 0.34
8 0.28
9 0.57

> <PUBCHEM_EFFECTIVE_ROTOR_COUNT>
4.4

> <PUBCHEM_PHARMACOPHORE_FEATURES>
7
1 2 acceptor
1 3 acceptor
1 4 acceptor
1 5 donor
5 1 6 12 13 14 rings
6 10 11 15 16 17 18 rings
6 2 3 7 8 10 11 rings

> <PUBCHEM_HEAVY_ATOM_COUNT>
18

> <PUBCHEM_ATOM_DEF_STEREO_COUNT>
0

> <PUBCHEM_ATOM_UDEF_STEREO_COUNT>
1

> <PUBCHEM_BOND_DEF_STEREO_COUNT>
0

> <PUBCHEM_BOND_UDEF_STEREO_COUNT>
0

> <PUBCHEM_ISOTOPIC_ATOM_COUNT>
0

> <PUBCHEM_COMPONENT_COUNT>
1

> <PUBCHEM_CACTVS_TAUTO_COUNT>
3

> <PUBCHEM_CONFORMER_ID>
002DC1D200000001

> <PUBCHEM_MMFF94_ENERGY>
46.2591

> <PUBCHEM_FEATURE_SELFOVERLAP>
35.573

> <PUBCHEM_SHAPE_FINGERPRINT>
10465860 71 18335427862951288808
10498660 4 13406791155635143583
11543360 7 16588310522429841283
11796584 16 18201438047617899495
12251169 10 14333403437355387996
12363563 72 17703517652874924105
12596602 18 12823286910121677671
12644460 14 15984816090856386464
12892183 10 14476964441495680338
13544653 18 16630528410034494337
13549 16 17676492726358143788
13675066 3 14189588429118229395
14252887 29 16200154274835644126
15210252 30 14345793846626174798
15342816 4 18412266104030628958
15788980 27 17489867137919537221
15848700 24 18341892974438070236
16752209 62 18114176376594393113
17834072 14 17346598551821195841
1798214 20 18408041797167428102
18186145 218 15140967252929735344
19050596 39 12463571785753372303
193927 3 17846227656337186231
19784866 170 9727640513815514843
19862831 5 17603868901117288457
20374829 77 18342173332449009835
20432913 95 16200432472667983423
20645477 70 17846493759657423967
20871999 31 18261117352439775284
21250096 35 18201436952253344387
21501925 9 16487255464992688512
221357 26 16732977614050984605
231179 274 12901546853504230348
23402539 116 18335981974057128972
23402655 69 16588029004445292366
23557571 272 17917143879959512193
23559900 14 18342738529266594976
25 1 15068629279374493352
251288 83 15123792881419795468
26918003 58 16056879109221815283
276578 36 9799692576215289660
2838139 119 12974753497998642222
2916195 48 12324539669960820014
29717793 49 18272078427650727381
3009799 131 15791731876658909394
3060560 45 16660359281825685970
31174 14 16128368247553783810
32948 21 18114175311832647109
347723 3 17022621940575846480
4047638 21 13118003292754596072
427121 178 9583520931898678372
465052 167 16271929311723222340
633830 44 15502372314269683625
6442390 28 11242262843615868528
7164475 11 17315064472938472292
76465 3 17916869011053679766
7808743 9 7997384119523545782
960060 61 17967816037409080870
9882013 296 11095883765767285583

> <PUBCHEM_SHAPE_MULTIPOLES>
346.71
10.26
1.58
1.36
7.84
0.17
0.16
-4.84
2.82
0.35
0.05
-1.07
0.03
0.11

> <PUBCHEM_SHAPE_SELFOVERLAP>
739.067

> <PUBCHEM_SHAPE_VOLUME>
194.4

> <PUBCHEM_COORDINATE_TYPE>
2
5
10

$$$$
