3350604
  -OEChem-01171809483D

 52 53  0     1  0  0  0  0  0999 V2000
    7.1164   -0.2755   -0.7244 S   0  0  0  0  0  0  0  0  0  0  0  0
    0.6309   -0.4067    0.7527 O   0  0  0  0  0  0  0  0  0  0  0  0
   -0.9833    1.7288    0.4688 O   0  0  0  0  0  0  0  0  0  0  0  0
    7.7253   -1.5423   -1.0968 O   0  0  0  0  0  0  0  0  0  0  0  0
    7.1320    0.8412   -1.6562 O   0  0  0  0  0  0  0  0  0  0  0  0
    1.0919   -2.5952    1.2980 O   0  0  0  0  0  0  0  0  0  0  0  0
    5.1313    2.5651    0.0453 O   0  5  0  0  0  0  0  0  0  0  0  0
    4.6779    1.9570   -2.0147 O   0  0  0  0  0  0  0  0  0  0  0  0
   -2.8342    0.5572    1.2517 N   0  0  0  0  0  0  0  0  0  0  0  0
    4.7756    1.7021   -0.7914 N   0  3  0  0  0  0  0  0  0  0  0  0
   -3.7970    1.6286    1.1526 C   0  0  1  0  0  0  0  0  0  0  0  0
   -5.2102    1.0873    0.8795 C   0  0  0  0  0  0  0  0  0  0  0  0
   -5.3474    0.2983   -0.4313 C   0  0  0  0  0  0  0  0  0  0  0  0
   -3.7769    2.4591    2.4326 C   0  0  0  0  0  0  0  0  0  0  0  0
   -6.7526   -0.1659   -0.7212 C   0  0  0  0  0  0  0  0  0  0  0  0
   -1.5010    0.7015    0.8986 C   0  0  0  0  0  0  0  0  0  0  0  0
   -7.1856   -1.4089   -0.2594 C   0  0  0  0  0  0  0  0  0  0  0  0
   -7.6192    0.6474   -1.4511 C   0  0  0  0  0  0  0  0  0  0  0  0
   -0.7248   -0.5816    1.1058 C   0  0  0  0  0  0  0  0  0  0  0  0
    5.4570   -0.5973   -0.2623 C   0  0  0  0  0  0  0  0  0  0  0  0
    4.4729    0.3884   -0.3369 C   0  0  0  0  0  0  0  0  0  0  0  0
    2.8363   -1.1828    0.4938 C   0  0  0  0  0  0  0  0  0  0  0  0
   -8.4853   -1.8385   -0.5278 C   0  0  0  0  0  0  0  0  0  0  0  0
   -8.9189    0.2179   -1.7194 C   0  0  0  0  0  0  0  0  0  0  0  0
    5.1308   -1.8758    0.1903 C   0  0  0  0  0  0  0  0  0  0  0  0
    3.1625    0.0956    0.0410 C   0  0  0  0  0  0  0  0  0  0  0  0
    3.8205   -2.1685    0.5683 C   0  0  0  0  0  0  0  0  0  0  0  0
   -9.3519   -1.0251   -1.2578 C   0  0  0  0  0  0  0  0  0  0  0  0
    1.4418   -1.4967    0.8951 C   0  0  0  0  0  0  0  0  0  0  0  0
    7.8851    0.2853    0.7764 C   0  0  0  0  0  0  0  0  0  0  0  0
   -3.5009    2.2778    0.3193 H   0  0  0  0  0  0  0  0  0  0  0  0
   -5.5239    0.4446    1.7135 H   0  0  0  0  0  0  0  0  0  0  0  0
   -5.9144    1.9296    0.8609 H   0  0  0  0  0  0  0  0  0  0  0  0
   -4.6827   -0.5748   -0.4155 H   0  0  0  0  0  0  0  0  0  0  0  0
   -4.9956    0.9167   -1.2676 H   0  0  0  0  0  0  0  0  0  0  0  0
   -4.4828    3.2937    2.3690 H   0  0  0  0  0  0  0  0  0  0  0  0
   -2.7801    2.8754    2.6150 H   0  0  0  0  0  0  0  0  0  0  0  0
   -4.0437    1.8512    3.3044 H   0  0  0  0  0  0  0  0  0  0  0  0
   -3.1419   -0.3237    1.6544 H   0  0  0  0  0  0  0  0  0  0  0  0
   -6.5201   -2.0506    0.3121 H   0  0  0  0  0  0  0  0  0  0  0  0
   -7.2941    1.6187   -1.8144 H   0  0  0  0  0  0  0  0  0  0  0  0
   -1.1747   -1.3618    0.4806 H   0  0  0  0  0  0  0  0  0  0  0  0
   -0.7998   -0.8646    2.1624 H   0  0  0  0  0  0  0  0  0  0  0  0
   -8.8227   -2.8061   -0.1679 H   0  0  0  0  0  0  0  0  0  0  0  0
   -9.5939    0.8515   -2.2872 H   0  0  0  0  0  0  0  0  0  0  0  0
    5.8794   -2.6593    0.2670 H   0  0  0  0  0  0  0  0  0  0  0  0
    2.4152    0.8827   -0.0268 H   0  0  0  0  0  0  0  0  0  0  0  0
    3.5871   -3.1699    0.9199 H   0  0  0  0  0  0  0  0  0  0  0  0
  -10.3639   -1.3594   -1.4665 H   0  0  0  0  0  0  0  0  0  0  0  0
    8.9341    0.4987    0.5593 H   0  0  0  0  0  0  0  0  0  0  0  0
    7.3866    1.1922    1.1214 H   0  0  0  0  0  0  0  0  0  0  0  0
    7.8157   -0.5042    1.5271 H   0  0  0  0  0  0  0  0  0  0  0  0
  1  4  2  0  0  0  0
  1  5  2  0  0  0  0
  1 20  1  0  0  0  0
  1 30  1  0  0  0  0
  2 19  1  0  0  0  0
  2 29  1  0  0  0  0
  3 16  2  0  0  0  0
  6 29  2  0  0  0  0
  7 10  1  0  0  0  0
  8 10  2  0  0  0  0
  9 11  1  0  0  0  0
  9 16  1  0  0  0  0
  9 39  1  0  0  0  0
 10 21  1  0  0  0  0
 11 12  1  0  0  0  0
 11 14  1  0  0  0  0
 11 31  1  0  0  0  0
 12 13  1  0  0  0  0
 12 32  1  0  0  0  0
 12 33  1  0  0  0  0
 13 15  1  0  0  0  0
 13 34  1  0  0  0  0
 13 35  1  0  0  0  0
 14 36  1  0  0  0  0
 14 37  1  0  0  0  0
 14 38  1  0  0  0  0
 15 17  2  0  0  0  0
 15 18  1  0  0  0  0
 16 19  1  0  0  0  0
 17 23  1  0  0  0  0
 17 40  1  0  0  0  0
 18 24  2  0  0  0  0
 18 41  1  0  0  0  0
 19 42  1  0  0  0  0
 19 43  1  0  0  0  0
 20 21  2  0  0  0  0
 20 25  1  0  0  0  0
 21 26  1  0  0  0  0
 22 26  2  0  0  0  0
 22 27  1  0  0  0  0
 22 29  1  0  0  0  0
 23 28  2  0  0  0  0
 23 44  1  0  0  0  0
 24 28  1  0  0  0  0
 24 45  1  0  0  0  0
 25 27  2  0  0  0  0
 25 46  1  0  0  0  0
 26 47  1  0  0  0  0
 27 48  1  0  0  0  0
 28 49  1  0  0  0  0
 30 50  1  0  0  0  0
 30 51  1  0  0  0  0
 30 52  1  0  0  0  0
M  CHG  2   7  -1  10   1
M  END
> <PUBCHEM_COMPOUND_CID>
3350604

> <PUBCHEM_CONFORMER_RMSD>
1.4

> <PUBCHEM_CONFORMER_DIVERSEORDER>
1
32
92
42
99
10
54
76
12
26
39
30
61
17
87
33
81
23
51
95
91
52
34
46
24
16
35
85
90
75
19
74
66
96
97
40
6
8
67
89
7
11
58
5
27
62
43
31
9
93
38
98
21
37
77
18
29
25
20
88
68
60
41
15
4
80
47
53
63
94
82
28
22
86
49
78
55
14
79
36
3
59
50
56
65
73
100
2
64
69
13
71
84
72
45
57
44
70
48
83

> <PUBCHEM_MMFF94_PARTIAL_CHARGES>
37
1 1.2
10 0.91
11 0.3
13 0.14
15 -0.14
16 0.57
17 -0.15
18 -0.15
19 0.34
2 -0.43
20 -0.01
21 0.13
22 0.09
23 -0.15
24 -0.15
25 -0.15
26 -0.15
27 -0.15
28 -0.15
29 0.63
3 -0.57
30 0.11
39 0.37
4 -0.65
40 0.15
41 0.15
44 0.15
45 0.15
46 0.15
47 0.15
48 0.15
49 0.15
5 -0.65
6 -0.57
7 -0.52
8 -0.52
9 -0.73

> <PUBCHEM_EFFECTIVE_ROTOR_COUNT>
11

> <PUBCHEM_PHARMACOPHORE_FEATURES>
10
1 3 acceptor
1 4 acceptor
1 5 acceptor
1 6 acceptor
1 7 acceptor
1 7 anion
1 8 acceptor
1 9 donor
6 15 17 18 23 24 28 rings
6 20 21 22 25 26 27 rings

> <PUBCHEM_HEAVY_ATOM_COUNT>
30

> <PUBCHEM_ATOM_DEF_STEREO_COUNT>
0

> <PUBCHEM_ATOM_UDEF_STEREO_COUNT>
1

> <PUBCHEM_BOND_DEF_STEREO_COUNT>
0

> <PUBCHEM_BOND_UDEF_STEREO_COUNT>
0

> <PUBCHEM_ISOTOPIC_ATOM_COUNT>
0

> <PUBCHEM_COMPONENT_COUNT>
1

> <PUBCHEM_CACTVS_TAUTO_COUNT>
2

> <PUBCHEM_CONFORMER_ID>
0033204C00000001

> <PUBCHEM_MMFF94_ENERGY>
71.5363

> <PUBCHEM_FEATURE_SELFOVERLAP>
50.855

> <PUBCHEM_SHAPE_FINGERPRINT>
10 15 8646773309597334945
10076449 9 16343983619905791195
10162869 55 18335416881263095470
10299344 5 18201719544802429131
10595046 47 18270964540166083523
11408170 132 18338223883416453365
11409948 35 14201662111038138624
11443803 9 18336255804578226650
11475781 23 14490477443912351403
11476731 38 18410014343341050547
12144603 126 18341336596744909465
12373685 5 16081079386003489531
12838862 33 18186802513651487764
13673619 4 16415473857801836259
13692114 37 18341608257289156586
14117953 113 17748831813106390756
14347424 109 9007061261858259614
14429380 56 18040436607407500428
14444916 359 14333408947962258909
14767858 380 18412544310537045739
150020 25 18260265270284645967
15183329 4 18408042896610256859
15328829 1 18342734126587240519
15352257 5 14620792700144518237
15510794 2 14836403606368431577
1577012 14 18269840830724080529
15979999 66 18334851728155995509
16992752 21 18060701681029692785
1754911 235 18260545619995613455
18335252 114 18113340812809430004
18335252 98 16200152088786824990
20105231 36 13614524056424274556
20554085 129 14707203319172186225
21150785 3 18408039611429877643
21362857 166 17917717855410364222
2303208 19 15051731959083068937
23389318 12 18413388743751260827
23522609 53 17986980508461076137
246663 6 16200431373393745455
25269216 80 15123522414808463240
335352 9 18261683606542021246
4093350 32 8502378836319434316
4325135 7 18409446981781021983
504579 68 18411140233903785919
5470011 282 18334008377309935551
5937810 71 17531800244373001693
6058803 2 17836649622033254099
636775 8 18202565103683471087
6475588 51 16879055349385444925
9980921 7 17749680709145184372
999808 66 14189575226473280913

> <PUBCHEM_SHAPE_MULTIPOLES>
570.19
31.34
2.38
1.65
30.78
0.41
0.14
-7.05
16.69
-0.27
-0.74
0.68
0.63
-2.87

> <PUBCHEM_SHAPE_SELFOVERLAP>
1181.013

> <PUBCHEM_SHAPE_VOLUME>
325.8

> <PUBCHEM_COORDINATE_TYPE>
2
5
10

$$$$
