684128
  -OEChem-01171809453D

 32 33  0     0  0  0  0  0  0999 V2000
   -0.4624    2.6774   -0.0878 O   0  0  0  0  0  0  0  0  0  0  0  0
   -2.7467   -2.8812    0.1819 N   0  0  0  0  0  0  0  0  0  0  0  0
    2.8033   -0.2293   -0.8470 C   0  0  0  0  0  0  0  0  0  0  0  0
    0.8515    0.7939    0.1434 C   0  0  0  0  0  0  0  0  0  0  0  0
    3.3370   -0.4412    0.4243 C   0  0  0  0  0  0  0  0  0  0  0  0
    1.5604    0.3884   -0.9875 C   0  0  0  0  0  0  0  0  0  0  0  0
    1.3853    0.5818    1.4145 C   0  0  0  0  0  0  0  0  0  0  0  0
   -0.4442    1.4379   -0.0025 C   0  0  0  0  0  0  0  0  0  0  0  0
    2.6280   -0.0357    1.5550 C   0  0  0  0  0  0  0  0  0  0  0  0
   -1.6926    0.6460   -0.0294 C   0  0  0  0  0  0  0  0  0  0  0  0
    3.5443   -0.6548   -2.0720 C   0  0  0  0  0  0  0  0  0  0  0  0
    4.6659   -1.0999    0.5997 C   0  0  0  0  0  0  0  0  0  0  0  0
   -1.6203   -0.7301    0.0873 C   0  0  0  0  0  0  0  0  0  0  0  0
   -2.9023    1.3016   -0.1699 C   0  0  0  0  0  0  0  0  0  0  0  0
   -2.7985   -1.4765    0.0627 C   0  0  0  0  0  0  0  0  0  0  0  0
   -4.0803    0.5553   -0.1945 C   0  0  0  0  0  0  0  0  0  0  0  0
   -4.0284   -0.8337   -0.0781 C   0  0  0  0  0  0  0  0  0  0  0  0
    1.1393    0.5566   -1.9762 H   0  0  0  0  0  0  0  0  0  0  0  0
    0.8418    0.8940    2.3027 H   0  0  0  0  0  0  0  0  0  0  0  0
    3.0291   -0.1932    2.5527 H   0  0  0  0  0  0  0  0  0  0  0  0
    2.9887   -0.4167   -2.9858 H   0  0  0  0  0  0  0  0  0  0  0  0
    4.5085   -0.1405   -2.1375 H   0  0  0  0  0  0  0  0  0  0  0  0
    3.7080   -1.7373   -2.0670 H   0  0  0  0  0  0  0  0  0  0  0  0
    4.6528   -2.1121    0.1826 H   0  0  0  0  0  0  0  0  0  0  0  0
    5.4534   -0.5153    0.1130 H   0  0  0  0  0  0  0  0  0  0  0  0
    4.9376   -1.1900    1.6573 H   0  0  0  0  0  0  0  0  0  0  0  0
   -0.6791   -1.2596    0.1984 H   0  0  0  0  0  0  0  0  0  0  0  0
   -2.9644    2.3819   -0.2620 H   0  0  0  0  0  0  0  0  0  0  0  0
   -5.0381    1.0555   -0.3042 H   0  0  0  0  0  0  0  0  0  0  0  0
   -4.9536   -1.4041   -0.0984 H   0  0  0  0  0  0  0  0  0  0  0  0
   -3.6007   -3.4225    0.1614 H   0  0  0  0  0  0  0  0  0  0  0  0
   -1.8554   -3.3486    0.2813 H   0  0  0  0  0  0  0  0  0  0  0  0
  1  8  2  0  0  0  0
  2 15  1  0  0  0  0
  2 31  1  0  0  0  0
  2 32  1  0  0  0  0
  3  5  2  0  0  0  0
  3  6  1  0  0  0  0
  3 11  1  0  0  0  0
  4  6  2  0  0  0  0
  4  7  1  0  0  0  0
  4  8  1  0  0  0  0
  5  9  1  0  0  0  0
  5 12  1  0  0  0  0
  6 18  1  0  0  0  0
  7  9  2  0  0  0  0
  7 19  1  0  0  0  0
  8 10  1  0  0  0  0
  9 20  1  0  0  0  0
 10 13  2  0  0  0  0
 10 14  1  0  0  0  0
 11 21  1  0  0  0  0
 11 22  1  0  0  0  0
 11 23  1  0  0  0  0
 12 24  1  0  0  0  0
 12 25  1  0  0  0  0
 12 26  1  0  0  0  0
 13 15  1  0  0  0  0
 13 27  1  0  0  0  0
 14 16  2  0  0  0  0
 14 28  1  0  0  0  0
 15 17  2  0  0  0  0
 16 17  1  0  0  0  0
 16 29  1  0  0  0  0
 17 30  1  0  0  0  0
M  END
> <PUBCHEM_COMPOUND_CID>
684128

> <PUBCHEM_CONFORMER_RMSD>
0.6

> <PUBCHEM_CONFORMER_DIVERSEORDER>
2
16
17
15
18
10
12
20
14
11
19
13
9
3
8
7
4
6
5
1

> <PUBCHEM_MMFF94_PARTIAL_CHARGES>
26
1 -0.57
10 0.09
11 0.14
12 0.14
13 -0.15
14 -0.15
15 0.1
16 -0.15
17 -0.15
18 0.15
19 0.15
2 -0.9
20 0.15
27 0.15
28 0.15
29 0.15
3 -0.14
30 0.15
31 0.4
32 0.4
4 0.09
5 -0.14
6 -0.15
7 -0.15
8 0.4
9 -0.15

> <PUBCHEM_EFFECTIVE_ROTOR_COUNT>
2

> <PUBCHEM_PHARMACOPHORE_FEATURES>
5
1 1 acceptor
1 2 cation
1 2 donor
6 10 13 14 15 16 17 rings
6 3 4 5 6 7 9 rings

> <PUBCHEM_HEAVY_ATOM_COUNT>
17

> <PUBCHEM_ATOM_DEF_STEREO_COUNT>
0

> <PUBCHEM_ATOM_UDEF_STEREO_COUNT>
0

> <PUBCHEM_BOND_DEF_STEREO_COUNT>
0

> <PUBCHEM_BOND_UDEF_STEREO_COUNT>
0

> <PUBCHEM_ISOTOPIC_ATOM_COUNT>
0

> <PUBCHEM_COMPONENT_COUNT>
1

> <PUBCHEM_CACTVS_TAUTO_COUNT>
1

> <PUBCHEM_CONFORMER_ID>
000A706000000002

> <PUBCHEM_MMFF94_ENERGY>
66.6943

> <PUBCHEM_FEATURE_SELFOVERLAP>
25.371

> <PUBCHEM_SHAPE_FINGERPRINT>
10366900 7 17561078107524166176
10465860 71 18335150803253784285
10751810 167 18040439897320657375
11471102 22 16630522921388147328
11543360 7 15430320273671981259
11578080 2 17387663155198801500
11715629 250 11458419163367296225
12236239 1 17531247223191288936
12251169 10 15841545284439365564
12346177 29 18342726451871202295
12553582 1 18408047325006316987
13296908 3 18411977005070184641
14115302 16 18186802465309075316
14252887 29 16917066629813092774
14386348 63 18060701675911656006
15375358 24 18060412499894864812
16752209 62 18188195504145981293
16945 1 18338803299245332588
17804303 29 18412825802656838561
18186145 218 12901545732438787724
18915474 69 18040155140867853658
19049666 15 17559116462805651056
19107657 162 18131072657587907151
19422 9 17675928698452236235
19862831 5 17312824870351690632
200 152 16877943798267452100
20279233 1 17918272043297794998
20600515 1 18413105039555284928
20645476 183 17385450933708604051
20645477 70 16558466375195756516
21634736 98 18114752649562604052
21639500 275 15502668125921185644
23184049 29 18193835079604645691
232386 152 18334287703863630867
23402539 116 18270668789013687741
23557571 272 18200592493612697392
23559900 14 18412822465662441248
23598291 2 17386010520248958748
25 1 13190334639191430056
3082319 5 17168146749386238245
465052 167 18042139798722956003
474 4 16879365617189657604
5385378 56 17979643338946902385
568465 68 17489869358043310122
5902787 121 18337386140405069712
602551 16 18412259502565596978
67856867 119 18114183090430273172
7364860 26 18053664956155442881
74978 22 18263078963310378129
77492 1 17530966847684105488
81228 2 18058460798137027409
9709674 26 18202845461050403575

> <PUBCHEM_SHAPE_MULTIPOLES>
339
8.25
1.96
1.28
0.66
0.3
0.22
3.38
0.43
-1.84
-0.06
1.79
0.1
0.33

> <PUBCHEM_SHAPE_SELFOVERLAP>
733.838

> <PUBCHEM_SHAPE_VOLUME>
186.8

> <PUBCHEM_COORDINATE_TYPE>
2
5
10

$$$$
