2423353
  -OEChem-01171809253D

 46 47  0     0  0  0  0  0  0999 V2000
   -0.9233   -3.8528    0.3432 S   0  0  0  0  0  0  0  0  0  0  0  0
   -2.9306   -2.0120   -1.3387 O   0  0  0  0  0  0  0  0  0  0  0  0
    3.8874    0.9409    1.6522 O   0  0  0  0  0  0  0  0  0  0  0  0
   -2.0545    1.8798   -0.0461 N   0  0  0  0  0  0  0  0  0  0  0  0
    3.6068   -0.0548   -0.4664 N   0  0  0  0  0  0  0  0  0  0  0  0
   -2.0901    0.7016   -0.7451 C   0  0  0  0  0  0  0  0  0  0  0  0
   -2.3645    1.6437    1.2679 C   0  0  0  0  0  0  0  0  0  0  0  0
   -2.4231   -0.2618    0.1460 C   0  0  0  0  0  0  0  0  0  0  0  0
   -2.6006    0.2942    1.4097 C   0  0  0  0  0  0  0  0  0  0  0  0
   -1.7386    3.1760   -0.6087 C   0  0  0  0  0  0  0  0  0  0  0  0
   -1.7974    0.6431   -2.1938 C   0  0  0  0  0  0  0  0  0  0  0  0
   -2.5679   -1.6879   -0.2077 C   0  0  0  0  0  0  0  0  0  0  0  0
   -2.4090    2.7234    2.2754 C   0  0  0  0  0  0  0  0  0  0  0  0
   -2.2573   -2.7333    0.8550 C   0  0  0  0  0  0  0  0  0  0  0  0
   -0.2707    3.4623   -0.5418 C   0  0  0  0  0  0  0  0  0  0  0  0
    0.4294   -2.7185    0.1014 C   0  0  0  0  0  0  0  0  0  0  0  0
    0.4892    3.7102   -1.6145 C   0  0  0  0  0  0  0  0  0  0  0  0
    0.8823   -1.9361    1.1638 C   0  0  0  0  0  0  0  0  0  0  0  0
    1.0360   -2.6131   -1.1504 C   0  0  0  0  0  0  0  0  0  0  0  0
    2.5477   -0.9430   -0.2772 C   0  0  0  0  0  0  0  0  0  0  0  0
    1.9414   -1.0483    0.9745 C   0  0  0  0  0  0  0  0  0  0  0  0
    2.0950   -1.7254   -1.3395 C   0  0  0  0  0  0  0  0  0  0  0  0
    4.1933    0.8049    0.4720 C   0  0  0  0  0  0  0  0  0  0  0  0
    5.3190    1.6070   -0.1312 C   0  0  0  0  0  0  0  0  0  0  0  0
   -2.8762   -0.1971    2.3325 H   0  0  0  0  0  0  0  0  0  0  0  0
   -2.1236    3.2121   -1.6340 H   0  0  0  0  0  0  0  0  0  0  0  0
   -2.2900    3.9431   -0.0555 H   0  0  0  0  0  0  0  0  0  0  0  0
   -0.9539    1.2806   -2.4705 H   0  0  0  0  0  0  0  0  0  0  0  0
   -1.5222   -0.3657   -2.5148 H   0  0  0  0  0  0  0  0  0  0  0  0
   -2.6724    0.9543   -2.7733 H   0  0  0  0  0  0  0  0  0  0  0  0
   -2.6041    2.3144    3.2728 H   0  0  0  0  0  0  0  0  0  0  0  0
   -3.2099    3.4356    2.0526 H   0  0  0  0  0  0  0  0  0  0  0  0
   -1.4590    3.2637    2.3264 H   0  0  0  0  0  0  0  0  0  0  0  0
   -1.9919   -2.2807    1.8125 H   0  0  0  0  0  0  0  0  0  0  0  0
   -3.1673   -3.3196    1.0188 H   0  0  0  0  0  0  0  0  0  0  0  0
    0.1994    3.4815    0.4381 H   0  0  0  0  0  0  0  0  0  0  0  0
    1.5481    3.9158   -1.5014 H   0  0  0  0  0  0  0  0  0  0  0  0
    0.0743    3.7128   -2.6162 H   0  0  0  0  0  0  0  0  0  0  0  0
    0.4290   -2.0067    2.1494 H   0  0  0  0  0  0  0  0  0  0  0  0
    0.6957   -3.2136   -1.9905 H   0  0  0  0  0  0  0  0  0  0  0  0
    2.2361   -0.4770    1.8436 H   0  0  0  0  0  0  0  0  0  0  0  0
    2.5576   -1.6528   -2.3206 H   0  0  0  0  0  0  0  0  0  0  0  0
    3.9947   -0.0357   -1.4074 H   0  0  0  0  0  0  0  0  0  0  0  0
    4.9404    2.2102   -0.9613 H   0  0  0  0  0  0  0  0  0  0  0  0
    5.7467    2.2721    0.6241 H   0  0  0  0  0  0  0  0  0  0  0  0
    6.1000    0.9334   -0.4949 H   0  0  0  0  0  0  0  0  0  0  0  0
  1 14  1  0  0  0  0
  1 16  1  0  0  0  0
  2 12  2  0  0  0  0
  3 23  2  0  0  0  0
  4  6  1  0  0  0  0
  4  7  1  0  0  0  0
  4 10  1  0  0  0  0
  5 20  1  0  0  0  0
  5 23  1  0  0  0  0
  5 43  1  0  0  0  0
  6  8  2  0  0  0  0
  6 11  1  0  0  0  0
  7  9  2  0  0  0  0
  7 13  1  0  0  0  0
  8  9  1  0  0  0  0
  8 12  1  0  0  0  0
  9 25  1  0  0  0  0
 10 15  1  0  0  0  0
 10 26  1  0  0  0  0
 10 27  1  0  0  0  0
 11 28  1  0  0  0  0
 11 29  1  0  0  0  0
 11 30  1  0  0  0  0
 12 14  1  0  0  0  0
 13 31  1  0  0  0  0
 13 32  1  0  0  0  0
 13 33  1  0  0  0  0
 14 34  1  0  0  0  0
 14 35  1  0  0  0  0
 15 17  2  0  0  0  0
 15 36  1  0  0  0  0
 16 18  2  0  0  0  0
 16 19  1  0  0  0  0
 17 37  1  0  0  0  0
 17 38  1  0  0  0  0
 18 21  1  0  0  0  0
 18 39  1  0  0  0  0
 19 22  2  0  0  0  0
 19 40  1  0  0  0  0
 20 21  2  0  0  0  0
 20 22  1  0  0  0  0
 21 41  1  0  0  0  0
 22 42  1  0  0  0  0
 23 24  1  0  0  0  0
 24 44  1  0  0  0  0
 24 45  1  0  0  0  0
 24 46  1  0  0  0  0
M  END
> <PUBCHEM_COMPOUND_CID>
2423353

> <PUBCHEM_CONFORMER_RMSD>
1

> <PUBCHEM_CONFORMER_DIVERSEORDER>
1
18
39
34
352
53
361
121
562
10
407
134
213
304
149
60
351
529
605
370
190
311
51
427
306
635
223
634
649
153
552
479
83
143
135
30
47
23
426
474
117
17
348
295
32
72
8
207
241
300
75
331
66
561
591
4
98
343
577
653
520
570
81
41
442
122
283
140
490
104
123
33
390
24
26
644
29
160
57
194
445
91
151
280
451
124
85
296
69
466
232
11
42
655
154
131
206
6
621
438
450
549
293
239
148
188
318
64
204
480
340
156
168
414
107
347
292
339
198
397
603
472
16
287
84
162
309
600
128
368
142
556
92
269
152
45
320
9
95
19
665
443
54
21
93
449
217
248
643
44
36
571
181
130

> <PUBCHEM_MMFF94_PARTIAL_CHARGES>
33
1 -0.33
10 0.39
11 0.18
12 0.6
13 0.18
14 0.29
15 -0.29
16 0.1
17 -0.3
18 -0.15
19 -0.15
2 -0.57
20 0.12
21 -0.15
22 -0.15
23 0.57
24 0.06
25 0.15
3 -0.57
36 0.15
37 0.15
38 0.15
39 0.15
4 0.05
40 0.15
41 0.15
42 0.15
43 0.37
5 -0.55
6 -0.33
7 -0.33
8 -0.09
9 -0.15

> <PUBCHEM_EFFECTIVE_ROTOR_COUNT>
8

> <PUBCHEM_PHARMACOPHORE_FEATURES>
7
1 17 hydrophobe
1 2 acceptor
1 3 acceptor
1 4 cation
1 5 donor
5 4 6 7 8 9 rings
6 16 18 19 20 21 22 rings

> <PUBCHEM_HEAVY_ATOM_COUNT>
24

> <PUBCHEM_ATOM_DEF_STEREO_COUNT>
0

> <PUBCHEM_ATOM_UDEF_STEREO_COUNT>
0

> <PUBCHEM_BOND_DEF_STEREO_COUNT>
0

> <PUBCHEM_BOND_UDEF_STEREO_COUNT>
0

> <PUBCHEM_ISOTOPIC_ATOM_COUNT>
0

> <PUBCHEM_COMPONENT_COUNT>
1

> <PUBCHEM_CACTVS_TAUTO_COUNT>
4

> <PUBCHEM_CONFORMER_ID>
0024FA3900000001

> <PUBCHEM_MMFF94_ENERGY>
51.8069

> <PUBCHEM_FEATURE_SELFOVERLAP>
35.521

> <PUBCHEM_SHAPE_FINGERPRINT>
10165383 225 17688909378063782639
10498660 4 18408598141286919199
10670039 82 18265347256225885076
1100329 8 17975417133185858395
12156800 1 16192616130136263441
12539773 59 17917423190488931365
128993 33 17907589029540480115
13122387 1 18336828701380278188
1361 2 18119522142579873061
14123250 116 18058731290955507097
14142880 1 18412547617482541515
14279260 333 17130168407742581924
151778 21 17693674614134932600
18981168 100 17975696082658222559
19930381 70 17831010235421430437
22956985 138 15808905539225602218
23419403 2 17324626169493526767
23557571 272 18195256739297075318
238 59 17399777316741582717
469060 322 18190476032595152699
5282940 2 17324368892224963236
6287921 2 18199487569998801508
9925002 15 16980391077548035878

> <PUBCHEM_SHAPE_MULTIPOLES>
476.06
6.67
5.24
1.79
9.06
0.69
0.06
2.9
1.43
-1.92
-0.65
-0.76
0.8
-0.21

> <PUBCHEM_SHAPE_SELFOVERLAP>
983.487

> <PUBCHEM_SHAPE_VOLUME>
276

> <PUBCHEM_COORDINATE_TYPE>
2
5
10

$$$$
