2202737
  -OEChem-01171809183D

 38 41  0     0  0  0  0  0  0999 V2000
   -2.1654   -0.9669   -1.1642 S   0  0  0  0  0  0  0  0  0  0  0  0
   -1.5198   -0.1786   -2.1912 O   0  0  0  0  0  0  0  0  0  0  0  0
   -2.5512   -2.3493   -1.3459 O   0  0  0  0  0  0  0  0  0  0  0  0
    0.5229    0.8560   -0.2264 O   0  0  0  0  0  0  0  0  0  0  0  0
   -1.7259    0.2439    2.4585 O   0  0  0  0  0  0  0  0  0  0  0  0
    2.3007   -0.5793    0.2487 N   0  0  0  0  0  0  0  0  0  0  0  0
   -1.3318   -0.7753    0.3441 N   0  0  0  0  0  0  0  0  0  0  0  0
    2.8234   -1.8896    0.6901 C   0  0  0  0  0  0  0  0  0  0  0  0
    4.3539   -1.8160    0.6612 C   0  0  0  0  0  0  0  0  0  0  0  0
    3.3962    0.2590   -0.0458 C   0  0  0  0  0  0  0  0  0  0  0  0
    4.5938   -0.4226    0.1798 C   0  0  0  0  0  0  0  0  0  0  0  0
   -0.0083   -1.3293    0.5217 C   0  0  0  0  0  0  0  0  0  0  0  0
    0.9604   -0.2345    0.1410 C   0  0  0  0  0  0  0  0  0  0  0  0
   -3.5504   -0.0829   -0.5850 C   0  0  0  0  0  0  0  0  0  0  0  0
   -3.3837    0.3518    0.7297 C   0  0  0  0  0  0  0  0  0  0  0  0
   -2.0893   -0.0285    1.3289 C   0  0  0  0  0  0  0  0  0  0  0  0
    3.4047    1.5713   -0.4959 C   0  0  0  0  0  0  0  0  0  0  0  0
    5.8213    0.1852   -0.0369 C   0  0  0  0  0  0  0  0  0  0  0  0
   -4.6914    0.1728   -1.3171 C   0  0  0  0  0  0  0  0  0  0  0  0
   -4.3833    1.0726    1.3598 C   0  0  0  0  0  0  0  0  0  0  0  0
    4.6384    2.1917   -0.7173 C   0  0  0  0  0  0  0  0  0  0  0  0
    5.8385    1.5042   -0.4895 C   0  0  0  0  0  0  0  0  0  0  0  0
   -5.7030    0.8992   -0.6872 C   0  0  0  0  0  0  0  0  0  0  0  0
   -5.5508    1.3451    0.6389 C   0  0  0  0  0  0  0  0  0  0  0  0
    2.4480   -2.6685    0.0172 H   0  0  0  0  0  0  0  0  0  0  0  0
    2.4520   -2.1024    1.6986 H   0  0  0  0  0  0  0  0  0  0  0  0
    4.7712   -2.5541   -0.0308 H   0  0  0  0  0  0  0  0  0  0  0  0
    4.7747   -1.9692    1.6598 H   0  0  0  0  0  0  0  0  0  0  0  0
    0.1404   -1.6283    1.5630 H   0  0  0  0  0  0  0  0  0  0  0  0
    0.1347   -2.2033   -0.1200 H   0  0  0  0  0  0  0  0  0  0  0  0
    2.4975    2.1325   -0.6825 H   0  0  0  0  0  0  0  0  0  0  0  0
    6.7492   -0.3480    0.1402 H   0  0  0  0  0  0  0  0  0  0  0  0
   -4.8067   -0.1714   -2.3381 H   0  0  0  0  0  0  0  0  0  0  0  0
   -4.2768    1.4212    2.3813 H   0  0  0  0  0  0  0  0  0  0  0  0
    4.6680    3.2193   -1.0701 H   0  0  0  0  0  0  0  0  0  0  0  0
    6.7872    2.0031   -0.6670 H   0  0  0  0  0  0  0  0  0  0  0  0
   -6.6201    1.1244   -1.2252 H   0  0  0  0  0  0  0  0  0  0  0  0
   -6.3527    1.9093    1.1081 H   0  0  0  0  0  0  0  0  0  0  0  0
  1  2  2  0  0  0  0
  1  3  2  0  0  0  0
  1  7  1  0  0  0  0
  1 14  1  0  0  0  0
  4 13  2  0  0  0  0
  5 16  2  0  0  0  0
  6  8  1  0  0  0  0
  6 10  1  0  0  0  0
  6 13  1  0  0  0  0
  7 12  1  0  0  0  0
  7 16  1  0  0  0  0
  8  9  1  0  0  0  0
  8 25  1  0  0  0  0
  8 26  1  0  0  0  0
  9 11  1  0  0  0  0
  9 27  1  0  0  0  0
  9 28  1  0  0  0  0
 10 11  1  0  0  0  0
 10 17  2  0  0  0  0
 11 18  2  0  0  0  0
 12 13  1  0  0  0  0
 12 29  1  0  0  0  0
 12 30  1  0  0  0  0
 14 15  1  0  0  0  0
 14 19  2  0  0  0  0
 15 16  1  0  0  0  0
 15 20  2  0  0  0  0
 17 21  1  0  0  0  0
 17 31  1  0  0  0  0
 18 22  1  0  0  0  0
 18 32  1  0  0  0  0
 19 23  1  0  0  0  0
 19 33  1  0  0  0  0
 20 24  1  0  0  0  0
 20 34  1  0  0  0  0
 21 22  2  0  0  0  0
 21 35  1  0  0  0  0
 22 36  1  0  0  0  0
 23 24  2  0  0  0  0
 23 37  1  0  0  0  0
 24 38  1  0  0  0  0
M  END
> <PUBCHEM_COMPOUND_CID>
2202737

> <PUBCHEM_CONFORMER_RMSD>
0.6

> <PUBCHEM_CONFORMER_DIVERSEORDER>
1
15
7
14
17
16
6
20
11
19
25
8
24
13
23
12
22
10
18
21
5
3
9
4
2

> <PUBCHEM_MMFF94_PARTIAL_CHARGES>
32
1 1.45
10 0.12
11 -0.14
12 0.42
13 0.57
14 -0.01
15 0.09
16 0.72
17 -0.15
18 -0.15
19 -0.15
2 -0.65
20 -0.15
21 -0.15
22 -0.15
23 -0.15
24 -0.15
3 -0.65
31 0.15
32 0.15
33 0.15
34 0.15
35 0.15
36 0.15
37 0.15
38 0.15
4 -0.57
5 -0.57
6 -0.48
7 -0.73
8 0.3
9 0.14

> <PUBCHEM_EFFECTIVE_ROTOR_COUNT>
3.8

> <PUBCHEM_PHARMACOPHORE_FEATURES>
8
1 2 acceptor
1 3 acceptor
1 4 acceptor
1 5 acceptor
5 1 7 14 15 16 rings
5 6 8 9 10 11 rings
6 10 11 17 18 21 22 rings
6 14 15 19 20 23 24 rings

> <PUBCHEM_HEAVY_ATOM_COUNT>
24

> <PUBCHEM_ATOM_DEF_STEREO_COUNT>
0

> <PUBCHEM_ATOM_UDEF_STEREO_COUNT>
0

> <PUBCHEM_BOND_DEF_STEREO_COUNT>
0

> <PUBCHEM_BOND_UDEF_STEREO_COUNT>
0

> <PUBCHEM_ISOTOPIC_ATOM_COUNT>
0

> <PUBCHEM_COMPONENT_COUNT>
1

> <PUBCHEM_CACTVS_TAUTO_COUNT>
1

> <PUBCHEM_CONFORMER_ID>
00219C7100000001

> <PUBCHEM_MMFF94_ENERGY>
65.5944

> <PUBCHEM_FEATURE_SELFOVERLAP>
40.766

> <PUBCHEM_SHAPE_FINGERPRINT>
10 15 16225769644546675436
10366900 7 15195572299000337990
11089746 13 18130787876077443216
11315181 36 16056881351263270354
12107183 9 17691971462059472730
12236239 1 18201717336297740843
12403259 415 16950558844352490086
12596602 18 18333455331133952049
12616971 3 18334848408003187906
12788726 201 17561087960184450993
13167372 99 18337391526405127576
13402501 40 17385722500000733644
13533116 47 16588576501259370738
13583140 156 18335993068168534555
13631057 29 18195242454378254167
14528608 73 18271805748302899312
15183329 4 18202001018856181853
15348495 7 16660652894300970640
17349148 13 17132114636800351137
17870717 6 15626225723786553373
18785283 64 16444209670749267244
19489759 90 16487256556130646417
20157964 124 18334577910556424739
20511986 3 18272357685997175016
20645477 56 17240479217062724350
21033648 29 17095510803716304740
21033650 10 16056617416595614259
22122407 14 18337968821797608129
22224240 67 16660083296413012097
22849339 104 16845008034678689735
23198884 109 17846780715186633821
23402539 116 16558742382963825081
23402655 69 18413388756868271310
23557571 272 14979960246352271266
23559900 14 15554438622029671978
23569914 152 12099385845023002929
2838139 119 18044366133591517533
2916195 48 17385722495853309617
29717793 49 17846222133768606670
300161 21 18201434792359327322
3004659 81 17632018533909775214
335352 9 18334016086871092910
34797466 226 15841267151137109168
474 4 18409731750961011250
497634 4 18263916795360560887
5104073 3 18041555953436810482
542803 24 18272933816941236688
543368 44 18272086149179323713
57724786 102 17822301222755686684
6034566 193 18189629417363132742
8272917 22 18409730630375531990

> <PUBCHEM_SHAPE_MULTIPOLES>
464.32
14.52
1.88
1.49
3.59
0.14
-0.07
-6.22
0.56
1.97
0.21
-2.08
0.12
-1.46

> <PUBCHEM_SHAPE_SELFOVERLAP>
1015.206

> <PUBCHEM_SHAPE_VOLUME>
251.9

> <PUBCHEM_COORDINATE_TYPE>
2
5
10

$$$$
