2766549
  -OEChem-01171809473D

 24 25  0     0  0  0  0  0  0999 V2000
    1.2938    0.0246   -0.0008 N   0  0  0  0  0  0  0  0  0  0  0  0
    2.0166   -1.0994    0.1708 N   0  0  0  0  0  0  0  0  0  0  0  0
   -0.7393    1.0634    0.4462 N   0  0  0  0  0  0  0  0  0  0  0  0
   -0.6495   -1.1810   -0.4266 N   0  0  0  0  0  0  0  0  0  0  0  0
   -5.3648   -0.2540    0.0309 N   0  0  0  0  0  0  0  0  0  0  0  0
    2.0624    1.1430   -0.1728 C   0  0  0  0  0  0  0  0  0  0  0  0
    3.2788   -0.6678    0.1038 C   0  0  0  0  0  0  0  0  0  0  0  0
    3.3679    0.7209   -0.1088 C   0  0  0  0  0  0  0  0  0  0  0  0
   -0.0935   -0.0337    0.0068 C   0  0  0  0  0  0  0  0  0  0  0  0
    1.4985    2.4918   -0.3774 C   0  0  0  0  0  0  0  0  0  0  0  0
    4.3876   -1.6260    0.2490 C   0  0  0  0  0  0  0  0  0  0  0  0
   -2.0853    0.9726    0.4393 C   0  0  0  0  0  0  0  0  0  0  0  0
   -1.9984   -1.2030   -0.4066 C   0  0  0  0  0  0  0  0  0  0  0  0
   -2.7762   -0.1460    0.0201 C   0  0  0  0  0  0  0  0  0  0  0  0
   -4.1988   -0.2053    0.0260 C   0  0  0  0  0  0  0  0  0  0  0  0
    4.2546    1.3314   -0.2025 H   0  0  0  0  0  0  0  0  0  0  0  0
    1.0653    2.8886    0.5461 H   0  0  0  0  0  0  0  0  0  0  0  0
    2.2885    3.1886   -0.6805 H   0  0  0  0  0  0  0  0  0  0  0  0
    0.7476    2.5060   -1.1738 H   0  0  0  0  0  0  0  0  0  0  0  0
    4.3419   -2.3920   -0.5320 H   0  0  0  0  0  0  0  0  0  0  0  0
    5.3588   -1.1265    0.1719 H   0  0  0  0  0  0  0  0  0  0  0  0
    4.3434   -2.1243    1.2230 H   0  0  0  0  0  0  0  0  0  0  0  0
   -2.6000    1.8605    0.7941 H   0  0  0  0  0  0  0  0  0  0  0  0
   -2.4407   -2.1306   -0.7574 H   0  0  0  0  0  0  0  0  0  0  0  0
  1  2  1  0  0  0  0
  1  6  1  0  0  0  0
  1  9  1  0  0  0  0
  2  7  2  0  0  0  0
  3  9  1  0  0  0  0
  3 12  2  0  0  0  0
  4  9  2  0  0  0  0
  4 13  1  0  0  0  0
  5 15  3  0  0  0  0
  6  8  2  0  0  0  0
  6 10  1  0  0  0  0
  7  8  1  0  0  0  0
  7 11  1  0  0  0  0
  8 16  1  0  0  0  0
 10 17  1  0  0  0  0
 10 18  1  0  0  0  0
 10 19  1  0  0  0  0
 11 20  1  0  0  0  0
 11 21  1  0  0  0  0
 11 22  1  0  0  0  0
 12 14  1  0  0  0  0
 12 23  1  0  0  0  0
 13 14  2  0  0  0  0
 13 24  1  0  0  0  0
 14 15  1  0  0  0  0
M  END
> <PUBCHEM_COMPOUND_CID>
2766549

> <PUBCHEM_CONFORMER_RMSD>
0.4

> <PUBCHEM_CONFORMER_DIVERSEORDER>
2
3
1

> <PUBCHEM_MMFF94_PARTIAL_CHARGES>
18
1 0.59
10 0.18
11 0.18
12 0.16
13 0.16
14 0.07
15 0.48
16 0.15
2 -0.71
23 0.15
24 0.15
3 -0.62
4 -0.62
5 -0.56
6 -0.33
7 0.11
8 -0.15
9 0.6

> <PUBCHEM_EFFECTIVE_ROTOR_COUNT>
1

> <PUBCHEM_PHARMACOPHORE_FEATURES>
6
1 2 acceptor
1 3 acceptor
1 5 acceptor
4 1 3 4 9 cation
5 1 2 6 7 8 rings
6 3 4 9 12 13 14 rings

> <PUBCHEM_HEAVY_ATOM_COUNT>
15

> <PUBCHEM_ATOM_DEF_STEREO_COUNT>
0

> <PUBCHEM_ATOM_UDEF_STEREO_COUNT>
0

> <PUBCHEM_BOND_DEF_STEREO_COUNT>
0

> <PUBCHEM_BOND_UDEF_STEREO_COUNT>
0

> <PUBCHEM_ISOTOPIC_ATOM_COUNT>
0

> <PUBCHEM_COMPONENT_COUNT>
1

> <PUBCHEM_CACTVS_TAUTO_COUNT>
1

> <PUBCHEM_CONFORMER_ID>
002A36D500000002

> <PUBCHEM_MMFF94_ENERGY>
30.3491

> <PUBCHEM_FEATURE_SELFOVERLAP>
30.446

> <PUBCHEM_SHAPE_FINGERPRINT>
10062212 137 18059849610693855015
10130415 120 18272088313937422849
11471102 20 18408601482776633069
12032990 46 18337956684303664966
12251169 10 18413106169157427414
12932764 1 17023448841780895851
13571099 22 18409168826502723104
13690532 89 18411136909387952643
13760787 5 18341328968381474255
14115302 16 17988645232814070011
14144814 61 18412546504922474912
15196674 1 18411138008920926257
15442244 35 18411702045775282656
15477762 27 18408887343284224476
15536298 74 18343301496236205552
16945 1 18411990169039341268
17802600 8 18410852153172460749
17862501 102 18272367551415663115
18186145 218 17676758864307353159
18522853 276 18343018891382422344
19026448 4 17530965826056616193
200 152 18343861108936545923
20559304 39 18412829092469989816
20645477 70 18408603656046311862
20871998 22 18197782107505736558
21267235 1 18411990130748937766
21501925 9 18412258420244264392
221490 88 18189625014779294986
2255824 54 18261677064531037942
23402539 116 17846207835653796581
23402655 69 18411417319392291101
23463225 33 18412827988325557364
23557571 272 14764082154703103585
23559900 14 18411979200035817322
2748010 2 17403466173920776372
42 15 18410856546855335371
465052 167 18410301323907093991
5104073 3 18412546522054878683
522135 26 18333732429053716862
5374978 207 18202839963544850040
537710 114 18272937154415961233
69090 78 18272085015608540583
7364860 26 18270680982441743056
9981440 41 17545595021248360088

> <PUBCHEM_SHAPE_MULTIPOLES>
283.79
8.45
1.78
0.65
5.16
0.7
0
-2.65
-0.37
-1.57
0.13
0.01
0.02
-0.47

> <PUBCHEM_SHAPE_SELFOVERLAP>
610.858

> <PUBCHEM_SHAPE_VOLUME>
155.5

> <PUBCHEM_COORDINATE_TYPE>
2
5
10

$$$$
