883348
  -OEChem-01171809403D

 33 35  0     0  0  0  0  0  0999 V2000
    4.1494    2.7744    0.9699 O   0  0  0  0  0  0  0  0  0  0  0  0
   -5.0484   -0.8486    1.2232 O   0  5  0  0  0  0  0  0  0  0  0  0
   -3.7060   -2.1688    0.0944 O   0  0  0  0  0  0  0  0  0  0  0  0
    1.1199    0.5269   -0.9315 N   0  0  0  0  0  0  0  0  0  0  0  0
   -4.0265   -1.0321    0.5183 N   0  3  0  0  0  0  0  0  0  0  0  0
    1.5470   -0.7236   -0.5451 C   0  0  0  0  0  0  0  0  0  0  0  0
   -0.0421    0.8033   -1.7485 C   0  0  0  0  0  0  0  0  0  0  0  0
    2.6964   -0.5446    0.2276 C   0  0  0  0  0  0  0  0  0  0  0  0
    1.9574    1.4874   -0.4312 C   0  0  0  0  0  0  0  0  0  0  0  0
    2.9433    0.8554    0.2909 C   0  0  0  0  0  0  0  0  0  0  0  0
   -1.2732    0.9963   -0.9049 C   0  0  0  0  0  0  0  0  0  0  0  0
    1.0091   -1.9864   -0.8176 C   0  0  0  0  0  0  0  0  0  0  0  0
    3.3425   -1.6803    0.7553 C   0  0  0  0  0  0  0  0  0  0  0  0
   -2.0667   -0.0988   -0.5912 C   0  0  0  0  0  0  0  0  0  0  0  0
   -1.5996    2.2676   -0.4526 C   0  0  0  0  0  0  0  0  0  0  0  0
    1.6670   -3.0982   -0.2837 C   0  0  0  0  0  0  0  0  0  0  0  0
    2.8159   -2.9498    0.4908 C   0  0  0  0  0  0  0  0  0  0  0  0
   -3.2083    0.0809    0.1899 C   0  0  0  0  0  0  0  0  0  0  0  0
    4.0091    1.5377    0.9681 C   0  0  0  0  0  0  0  0  0  0  0  0
   -2.7411    2.4473    0.3284 C   0  0  0  0  0  0  0  0  0  0  0  0
   -3.5454    1.3539    0.6497 C   0  0  0  0  0  0  0  0  0  0  0  0
   -0.1731   -0.0099   -2.4714 H   0  0  0  0  0  0  0  0  0  0  0  0
    0.1674    1.7019   -2.3425 H   0  0  0  0  0  0  0  0  0  0  0  0
    1.7833    2.5370   -0.6305 H   0  0  0  0  0  0  0  0  0  0  0  0
    0.1304   -2.1227   -1.4364 H   0  0  0  0  0  0  0  0  0  0  0  0
    4.2390   -1.5837    1.3608 H   0  0  0  0  0  0  0  0  0  0  0  0
   -1.8021   -1.0791   -0.9729 H   0  0  0  0  0  0  0  0  0  0  0  0
   -0.9809    3.1265   -0.6969 H   0  0  0  0  0  0  0  0  0  0  0  0
    1.2784   -4.0940   -0.4809 H   0  0  0  0  0  0  0  0  0  0  0  0
    3.3107   -3.8294    0.8940 H   0  0  0  0  0  0  0  0  0  0  0  0
    4.7315    0.9049    1.5101 H   0  0  0  0  0  0  0  0  0  0  0  0
   -3.0033    3.4387    0.6863 H   0  0  0  0  0  0  0  0  0  0  0  0
   -4.4269    1.5315    1.2605 H   0  0  0  0  0  0  0  0  0  0  0  0
  1 19  2  0  0  0  0
  2  5  1  0  0  0  0
  3  5  2  0  0  0  0
  4  6  1  0  0  0  0
  4  7  1  0  0  0  0
  4  9  1  0  0  0  0
  5 18  1  0  0  0  0
  6  8  1  0  0  0  0
  6 12  2  0  0  0  0
  7 11  1  0  0  0  0
  7 22  1  0  0  0  0
  7 23  1  0  0  0  0
  8 10  1  0  0  0  0
  8 13  2  0  0  0  0
  9 10  2  0  0  0  0
  9 24  1  0  0  0  0
 10 19  1  0  0  0  0
 11 14  2  0  0  0  0
 11 15  1  0  0  0  0
 12 16  1  0  0  0  0
 12 25  1  0  0  0  0
 13 17  1  0  0  0  0
 13 26  1  0  0  0  0
 14 18  1  0  0  0  0
 14 27  1  0  0  0  0
 15 20  2  0  0  0  0
 15 28  1  0  0  0  0
 16 17  2  0  0  0  0
 16 29  1  0  0  0  0
 17 30  1  0  0  0  0
 18 21  2  0  0  0  0
 19 31  1  0  0  0  0
 20 21  1  0  0  0  0
 20 32  1  0  0  0  0
 21 33  1  0  0  0  0
M  CHG  2   2  -1   5   1
M  END
> <PUBCHEM_COMPOUND_CID>
883348

> <PUBCHEM_CONFORMER_RMSD>
0.6

> <PUBCHEM_CONFORMER_DIVERSEORDER>
1
21
30
20
27
6
7
22
12
11
28
29
15
26
3
9
10
4
23
18
5
19
16
8
2
17
14
13
25
24

> <PUBCHEM_MMFF94_PARTIAL_CHARGES>
30
1 -0.57
10 -0.09
11 -0.14
12 -0.15
13 -0.15
14 -0.15
15 -0.15
16 -0.15
17 -0.15
18 0.13
19 0.6
2 -0.52
20 -0.15
21 -0.15
24 0.15
25 0.15
26 0.15
27 0.15
28 0.15
29 0.15
3 -0.52
30 0.15
31 0.06
32 0.15
33 0.15
4 0.05
5 0.91
6 -0.15
7 0.4
9 -0.3

> <PUBCHEM_EFFECTIVE_ROTOR_COUNT>
4

> <PUBCHEM_PHARMACOPHORE_FEATURES>
8
1 1 acceptor
1 2 acceptor
1 2 anion
1 3 acceptor
1 4 cation
5 4 6 8 9 10 rings
6 11 14 15 18 20 21 rings
6 6 8 12 13 16 17 rings

> <PUBCHEM_HEAVY_ATOM_COUNT>
21

> <PUBCHEM_ATOM_DEF_STEREO_COUNT>
0

> <PUBCHEM_ATOM_UDEF_STEREO_COUNT>
0

> <PUBCHEM_BOND_DEF_STEREO_COUNT>
0

> <PUBCHEM_BOND_UDEF_STEREO_COUNT>
0

> <PUBCHEM_ISOTOPIC_ATOM_COUNT>
0

> <PUBCHEM_COMPONENT_COUNT>
1

> <PUBCHEM_CACTVS_TAUTO_COUNT>
1

> <PUBCHEM_CONFORMER_ID>
000D7A9400000001

> <PUBCHEM_MMFF94_ENERGY>
49.8109

> <PUBCHEM_FEATURE_SELFOVERLAP>
40.77

> <PUBCHEM_SHAPE_FINGERPRINT>
10366900 7 18343298193221751609
10616163 171 18410018744944212935
1100329 8 17402887220650295407
11552529 35 18273211985099182003
12363563 72 16081085991473357157
12553582 1 18191886693698067591
12596602 18 17560257928365324955
12633257 1 18126010356056773457
12892183 10 18411702080103456953
12930653 34 18412258437018458293
13140716 1 18266457603143486205
13533116 47 18339078169247826093
13583140 156 18342728594532810365
14178342 30 18334296439838134861
14223421 5 18337952294483143717
14289901 80 18201425965821751921
14341114 328 17845659264781423009
14787075 74 17771904106252428753
14790565 3 17975140060582508892
14863182 85 18115885137996914030
14955137 171 18198899211615066258
15163728 17 14547019975773965538
15210252 30 10817305035491283128
17492 89 18336550430438945819
17804303 29 17976830787242435823
1813 80 17095817555097629325
18785283 64 18408036317632943424
19591789 44 18410289216831714478
20344682 10 18340204214550905029
20361792 2 16081949039460643789
20600515 1 17545330674695762174
20681677 274 18337387119784044936
20681677 76 18338506448444029541
21065198 57 18265894657564413265
21065199 12 18410010992470312369
21401589 2 17271420707610102464
21673915 165 18338233872650092491
21756936 100 17915730084885860480
21859007 373 17317315117496431773
23559900 14 18336542716276346149
350125 39 18410293631920834086
3797600 57 17560806579570335417
392239 28 18127408079837751880
427121 178 18200315553946767336
458136 41 18409449189874318452
49207404 50 18410852170510319434
5104073 3 18338522937218923449
6287921 2 18408893935937769790
6442390 28 18268149936833916478
7097593 13 18195247702458121829
9709674 26 18196368126645737183

> <PUBCHEM_SHAPE_MULTIPOLES>
404.6
8.43
3.42
1.14
4.87
0.79
-0.18
0.32
3.97
-2.07
0.52
0.04
-0.18
0.86

> <PUBCHEM_SHAPE_SELFOVERLAP>
894.611

> <PUBCHEM_SHAPE_VOLUME>
218.2

> <PUBCHEM_COORDINATE_TYPE>
2
5
10

$$$$
