330164
  -OEChem-01171810153D

 32 34  0     1  0  0  0  0  0999 V2000
   -2.4118   -2.3663    1.3901 O   0  0  0  0  0  0  0  0  0  0  0  0
   -1.9355    1.0731    1.8700 O   0  0  0  0  0  0  0  0  0  0  0  0
   -3.4304    1.6846   -2.1892 O   0  0  0  0  0  0  0  0  0  0  0  0
    0.3844   -1.1560   -0.4041 N   0  0  0  0  0  0  0  0  0  0  0  0
    2.5188   -1.6181   -0.8441 N   0  0  0  0  0  0  0  0  0  0  0  0
    0.6226    1.0719    0.5331 N   0  0  0  0  0  0  0  0  0  0  0  0
    2.9607    1.7704    0.5713 N   0  0  0  0  0  0  0  0  0  0  0  0
    4.7313    0.3763   -0.2339 N   0  0  0  0  0  0  0  0  0  0  0  0
   -1.0683   -1.3378   -0.3194 C   0  0  1  0  0  0  0  0  0  0  0  0
   -1.6293   -1.2037    1.1130 C   0  0  1  0  0  0  0  0  0  0  0  0
   -2.5428    0.0338    1.1159 C   0  0  2  0  0  0  0  0  0  0  0  0
   -2.6329    0.4249   -0.3283 C   0  0  0  0  0  0  0  0  0  0  0  0
   -1.8333   -0.3169   -1.1029 C   0  0  0  0  0  0  0  0  0  0  0  0
    1.0956   -0.0598   -0.0101 C   0  0  0  0  0  0  0  0  0  0  0  0
   -3.5283    1.5221   -0.7822 C   0  0  0  0  0  0  0  0  0  0  0  0
    1.2812   -2.0647   -0.8974 C   0  0  0  0  0  0  0  0  0  0  0  0
    2.4174   -0.3660   -0.2918 C   0  0  0  0  0  0  0  0  0  0  0  0
    3.3673    0.6017    0.0194 C   0  0  0  0  0  0  0  0  0  0  0  0
    1.6332    1.9305    0.7906 C   0  0  0  0  0  0  0  0  0  0  0  0
   -1.2783   -2.3335   -0.7307 H   0  0  0  0  0  0  0  0  0  0  0  0
   -0.8492   -1.1537    1.8800 H   0  0  0  0  0  0  0  0  0  0  0  0
   -3.5285   -0.1865    1.5399 H   0  0  0  0  0  0  0  0  0  0  0  0
   -1.7336   -0.2146   -2.1748 H   0  0  0  0  0  0  0  0  0  0  0  0
   -3.2472    2.4671   -0.3075 H   0  0  0  0  0  0  0  0  0  0  0  0
   -4.5682    1.2906   -0.5317 H   0  0  0  0  0  0  0  0  0  0  0  0
    0.9799   -3.0302   -1.2803 H   0  0  0  0  0  0  0  0  0  0  0  0
   -3.1281   -2.4128    0.7339 H   0  0  0  0  0  0  0  0  0  0  0  0
   -2.5581    1.8193    1.8997 H   0  0  0  0  0  0  0  0  0  0  0  0
   -4.0322    2.4074   -2.4361 H   0  0  0  0  0  0  0  0  0  0  0  0
    1.3433    2.8774    1.2333 H   0  0  0  0  0  0  0  0  0  0  0  0
    5.0372   -0.4947   -0.6464 H   0  0  0  0  0  0  0  0  0  0  0  0
    5.4023    1.0952    0.0004 H   0  0  0  0  0  0  0  0  0  0  0  0
  1 10  1  0  0  0  0
  1 27  1  0  0  0  0
  2 11  1  0  0  0  0
  2 28  1  0  0  0  0
  3 15  1  0  0  0  0
  3 29  1  0  0  0  0
  4  9  1  0  0  0  0
  4 14  1  0  0  0  0
  4 16  1  0  0  0  0
  5 16  2  0  0  0  0
  5 17  1  0  0  0  0
  6 14  2  0  0  0  0
  6 19  1  0  0  0  0
  7 18  1  0  0  0  0
  7 19  2  0  0  0  0
  8 18  1  0  0  0  0
  8 31  1  0  0  0  0
  8 32  1  0  0  0  0
  9 10  1  0  0  0  0
  9 13  1  0  0  0  0
  9 20  1  0  0  0  0
 10 11  1  0  0  0  0
 10 21  1  0  0  0  0
 11 12  1  0  0  0  0
 11 22  1  0  0  0  0
 12 13  2  0  0  0  0
 12 15  1  0  0  0  0
 13 23  1  0  0  0  0
 14 17  1  0  0  0  0
 15 24  1  0  0  0  0
 15 25  1  0  0  0  0
 16 26  1  0  0  0  0
 17 18  2  0  0  0  0
 19 30  1  0  0  0  0
M  END
> <PUBCHEM_COMPOUND_CID>
330164

> <PUBCHEM_CONFORMER_RMSD>
0.6

> <PUBCHEM_CONFORMER_DIVERSEORDER>
3
52
48
50
16
44
61
46
41
62
43
60
4
64
25
23
56
59
30
35
54
19
11
31
15
39
5
27
34
51
45
13
29
37
28
63
17
2
9
58
33
12
38
20
8
32
26
40
14
55
53
57
42
18
24
21
36
1
22
49
7
47
10
6

> <PUBCHEM_MMFF94_PARTIAL_CHARGES>
27
1 -0.68
10 0.28
11 0.42
12 -0.28
13 -0.29
14 0.11
15 0.42
16 0.04
17 0.23
18 0.41
19 0.47
2 -0.68
23 0.15
26 0.15
27 0.4
28 0.4
29 0.4
3 -0.68
30 0.15
31 0.4
32 0.4
4 0.05
5 -0.57
6 -0.57
7 -0.62
8 -0.9
9 0.39

> <PUBCHEM_EFFECTIVE_ROTOR_COUNT>
2.6

> <PUBCHEM_PHARMACOPHORE_FEATURES>
14
1 1 acceptor
1 1 donor
1 2 acceptor
1 2 donor
1 3 acceptor
1 3 donor
1 8 cation
1 8 donor
3 4 5 16 cation
3 4 6 14 cation
3 6 7 19 cation
5 4 5 14 16 17 rings
5 9 10 11 12 13 rings
6 6 7 14 17 18 19 rings

> <PUBCHEM_HEAVY_ATOM_COUNT>
19

> <PUBCHEM_ATOM_DEF_STEREO_COUNT>
0

> <PUBCHEM_ATOM_UDEF_STEREO_COUNT>
3

> <PUBCHEM_BOND_DEF_STEREO_COUNT>
0

> <PUBCHEM_BOND_UDEF_STEREO_COUNT>
0

> <PUBCHEM_ISOTOPIC_ATOM_COUNT>
0

> <PUBCHEM_COMPONENT_COUNT>
1

> <PUBCHEM_CACTVS_TAUTO_COUNT>
3

> <PUBCHEM_CONFORMER_ID>
000509B400000003

> <PUBCHEM_MMFF94_ENERGY>
36.0248

> <PUBCHEM_FEATURE_SELFOVERLAP>
71.653

> <PUBCHEM_SHAPE_FINGERPRINT>
10608611 8 18409728490811457285
11640471 11 16486431879476011787
12077114 3 18187077360385410460
124424 183 18408316675374883538
12500047 106 18040428884797845570
12553582 1 17766859229425272614
12654215 9 18413105031428820580
13294875 104 17898269624802344603
13464514 151 18266172842558953188
13764800 53 17603872161234946949
14289901 80 17313387893704658440
14957384 54 16443333252681567829
16945 1 17917438656797675474
17844478 74 18191314985631187443
18186145 218 18190740830545752381
18219364 16 18413114973745321801
19049666 15 18263087634437989651
192875 21 17915444017802548865
200 152 17775282815727978271
21639500 275 18130780157451220621
231179 274 18335134272335936580
23419403 2 15803313878278575819
23493267 7 18113894970653397592
23557571 272 18113904896185577415
23559900 14 18263646174267450694
25 1 18339635634084989693
2748010 2 18271246148270884112
427121 178 16662616429211459429
6049 1 18337410299611998926
63268167 104 18201719518088236817
633830 44 17559978634994603528
77492 1 16702303416799512583
81228 2 17895771711084449027

> <PUBCHEM_SHAPE_MULTIPOLES>
348.5
6.47
2.2
1.43
2.7
0.32
0.03
-2.42
1.16
-0.08
-0.09
-1.62
-0.19
1.56

> <PUBCHEM_SHAPE_SELFOVERLAP>
764.425

> <PUBCHEM_SHAPE_VOLUME>
187.4

> <PUBCHEM_COORDINATE_TYPE>
2
5
10

$$$$
