1475980
  -OEChem-01171809283D

 33 36  0     0  0  0  0  0  0999 V2000
    6.8503    1.0498    1.1422 Cl  0  0  0  0  0  0  0  0  0  0  0  0
    1.7431   -2.0260   -0.8710 S   0  0  0  0  0  0  0  0  0  0  0  0
   -5.2123   -1.6336    0.6525 F   0  0  0  0  0  0  0  0  0  0  0  0
   -4.3610    0.1446    1.5564 F   0  0  0  0  0  0  0  0  0  0  0  0
   -4.8084    0.1177   -0.5714 F   0  0  0  0  0  0  0  0  0  0  0  0
   -1.8192   -0.3962   -0.1067 N   0  0  0  0  0  0  0  0  0  0  0  0
    0.7909    0.4468   -0.6879 N   0  0  0  0  0  0  0  0  0  0  0  0
   -1.2575   -2.5136   -0.2093 N   0  0  0  0  0  0  0  0  0  0  0  0
   -2.6071   -2.4234    0.0866 N   0  0  0  0  0  0  0  0  0  0  0  0
   -1.5908    0.9835   -0.1711 C   0  0  0  0  0  0  0  0  0  0  0  0
   -0.8037   -1.2865   -0.3207 C   0  0  0  0  0  0  0  0  0  0  0  0
   -0.2640    1.3778   -0.4669 C   0  0  0  0  0  0  0  0  0  0  0  0
   -2.9259   -1.1463    0.1442 C   0  0  0  0  0  0  0  0  0  0  0  0
    0.5148   -0.8206   -0.6144 C   0  0  0  0  0  0  0  0  0  0  0  0
   -2.6080    1.9118    0.0421 C   0  0  0  0  0  0  0  0  0  0  0  0
    0.0126    2.7449   -0.5435 C   0  0  0  0  0  0  0  0  0  0  0  0
   -4.2810   -0.6475    0.4377 C   0  0  0  0  0  0  0  0  0  0  0  0
   -2.3025    3.2695   -0.0402 C   0  0  0  0  0  0  0  0  0  0  0  0
   -1.0004    3.6844   -0.3313 C   0  0  0  0  0  0  0  0  0  0  0  0
    3.1905   -1.1541   -0.3005 C   0  0  0  0  0  0  0  0  0  0  0  0
    3.2555   -0.6996    1.0160 C   0  0  0  0  0  0  0  0  0  0  0  0
    4.2554   -0.9283   -1.1715 C   0  0  0  0  0  0  0  0  0  0  0  0
    4.3875   -0.0176    1.4622 C   0  0  0  0  0  0  0  0  0  0  0  0
    5.3875   -0.2465   -0.7251 C   0  0  0  0  0  0  0  0  0  0  0  0
    5.4535    0.2090    0.5916 C   0  0  0  0  0  0  0  0  0  0  0  0
   -3.6323    1.6870    0.2706 H   0  0  0  0  0  0  0  0  0  0  0  0
    1.0191    3.0895   -0.7683 H   0  0  0  0  0  0  0  0  0  0  0  0
   -3.0798    4.0111    0.1227 H   0  0  0  0  0  0  0  0  0  0  0  0
   -0.7736    4.7452   -0.3931 H   0  0  0  0  0  0  0  0  0  0  0  0
    2.4384   -0.8697    1.7128 H   0  0  0  0  0  0  0  0  0  0  0  0
    4.2216   -1.2753   -2.2013 H   0  0  0  0  0  0  0  0  0  0  0  0
    4.4256    0.3306    2.4913 H   0  0  0  0  0  0  0  0  0  0  0  0
    6.2106   -0.0769   -1.4146 H   0  0  0  0  0  0  0  0  0  0  0  0
  1 25  1  0  0  0  0
  2 14  1  0  0  0  0
  2 20  1  0  0  0  0
  3 17  1  0  0  0  0
  4 17  1  0  0  0  0
  5 17  1  0  0  0  0
  6 10  1  0  0  0  0
  6 11  1  0  0  0  0
  6 13  1  0  0  0  0
  7 12  1  0  0  0  0
  7 14  2  0  0  0  0
  8  9  1  0  0  0  0
  8 11  2  0  0  0  0
  9 13  2  0  0  0  0
 10 12  1  0  0  0  0
 10 15  2  0  0  0  0
 11 14  1  0  0  0  0
 12 16  2  0  0  0  0
 13 17  1  0  0  0  0
 15 18  1  0  0  0  0
 15 26  1  0  0  0  0
 16 19  1  0  0  0  0
 16 27  1  0  0  0  0
 18 19  2  0  0  0  0
 18 28  1  0  0  0  0
 19 29  1  0  0  0  0
 20 21  2  0  0  0  0
 20 22  1  0  0  0  0
 21 23  1  0  0  0  0
 21 30  1  0  0  0  0
 22 24  2  0  0  0  0
 22 31  1  0  0  0  0
 23 25  2  0  0  0  0
 23 32  1  0  0  0  0
 24 25  1  0  0  0  0
 24 33  1  0  0  0  0
M  END
> <PUBCHEM_COMPOUND_CID>
1475980

> <PUBCHEM_CONFORMER_RMSD>
0.6

> <PUBCHEM_CONFORMER_DIVERSEORDER>
2
13
8
1
7
14
15
5
6
12
3
10
9
11
4

> <PUBCHEM_MMFF94_PARTIAL_CHARGES>
33
1 -0.18
10 -0.02
11 0.1
12 0.18
13 0.01
14 0.68
15 -0.15
16 -0.15
17 1.2
18 -0.15
19 -0.15
2 -0.24
20 0.1
21 -0.15
22 -0.15
23 -0.15
24 -0.15
25 0.18
26 0.15
27 0.15
28 0.15
29 0.15
3 -0.34
30 0.15
31 0.15
32 0.15
33 0.15
4 -0.34
5 -0.34
6 0.33
7 -0.63
8 -0.34
9 -0.34

> <PUBCHEM_EFFECTIVE_ROTOR_COUNT>
3

> <PUBCHEM_PHARMACOPHORE_FEATURES>
7
1 7 acceptor
3 6 8 11 cation
3 6 9 13 cation
5 6 8 9 11 13 rings
6 10 12 15 16 18 19 rings
6 20 21 22 23 24 25 rings
6 6 7 10 11 12 14 rings

> <PUBCHEM_HEAVY_ATOM_COUNT>
25

> <PUBCHEM_ATOM_DEF_STEREO_COUNT>
0

> <PUBCHEM_ATOM_UDEF_STEREO_COUNT>
0

> <PUBCHEM_BOND_DEF_STEREO_COUNT>
0

> <PUBCHEM_BOND_UDEF_STEREO_COUNT>
0

> <PUBCHEM_ISOTOPIC_ATOM_COUNT>
0

> <PUBCHEM_COMPONENT_COUNT>
1

> <PUBCHEM_CACTVS_TAUTO_COUNT>
1

> <PUBCHEM_CONFORMER_ID>
0016858C00000002

> <PUBCHEM_MMFF94_ENERGY>
60.7561

> <PUBCHEM_FEATURE_SELFOVERLAP>
38.143

> <PUBCHEM_SHAPE_FINGERPRINT>
10006869 2 18193550061406685291
10319926 262 18267291042512873362
10369192 42 17489021691304725056
10498660 4 18338514124014635684
10670039 82 18263097548050444388
10906281 52 18338532854308828949
1100329 8 18190746520924102499
11595378 159 18113896010067027778
12035758 1 18337685186794634659
12173636 292 18193833739411494916
12236239 1 17458345239057877110
12390115 104 18129112121108254088
12403259 415 18130509639737760086
12553582 1 18337964470889605311
12596602 18 17385443237253531050
12788726 201 18260269624880162232
13140716 1 18265618877756392219
13402501 40 18273491282706886840
13726171 33 18342176636186963280
13782708 43 17988933215299939310
14081887 123 18339638941246587816
14178342 30 18189613848491767502
14341114 328 18040997367349541682
14420673 8 17542777613334691322
14787075 74 17894917364231068154
14840074 17 18060133267054678695
17980427 23 17560813138776947009
1813 80 17748829635304991284
19377110 9 17967525771404332096
19784866 170 18413672417878262886
200 152 14923940150661114086
20510252 161 18269839722316608033
20600515 1 18199766858805282613
20642791 13 18341051809704887125
21033648 29 17703215248522541554
22182313 1 18270128885559274071
2297311 6 18339374002084001142
23366157 5 17681839844841259413
23402539 116 18413383242104149759
23557571 272 18341625771922449822
23559900 14 18339916108197689864
23845131 108 17476091128881365313
24771293 8 18273500091700498657
283562 15 18339640032548134641
3009799 131 18261944190275259645
3187 122 18333722507838096828
34934 24 18410005520814151439
350125 39 18340767139420473928
392239 28 18114186384247722242
469060 322 18335717021698449705
5104073 3 18267022752642364098
621550 34 18131075891972977854
6442390 28 18343585123260985830
7226269 152 18259701203075231723
7808743 9 18410009898039739228

> <PUBCHEM_SHAPE_MULTIPOLES>
478.46
12.09
3.27
1.09
12.58
2.51
0.19
-0.71
4.08
-3.22
-0.51
0.88
-0.07
1.21

> <PUBCHEM_SHAPE_SELFOVERLAP>
1047.689

> <PUBCHEM_SHAPE_VOLUME>
265

> <PUBCHEM_COORDINATE_TYPE>
2
5
10

$$$$
