996076
  -OEChem-01171809303D

 48 51  0     0  0  0  0  0  0999 V2000
   -0.4815   -0.8208   -0.1176 O   0  0  0  0  0  0  0  0  0  0  0  0
   -2.9778    0.5876   -2.4124 O   0  0  0  0  0  0  0  0  0  0  0  0
   -3.5768   -2.0455    1.3525 O   0  0  0  0  0  0  0  0  0  0  0  0
    0.1124   -2.6986   -1.3648 O   0  0  0  0  0  0  0  0  0  0  0  0
    4.8602   -0.1820    1.2633 N   0  0  0  0  0  0  0  0  0  0  0  0
   -3.0264   -1.0470   -0.7138 N   0  0  0  0  0  0  0  0  0  0  0  0
    5.8242    0.6079    0.5065 C   0  0  0  0  0  0  0  0  0  0  0  0
    5.2084    1.2442   -0.7181 C   0  0  0  0  0  0  0  0  0  0  0  0
    3.5320   -0.3231    0.8937 C   0  0  0  0  0  0  0  0  0  0  0  0
    3.9240    1.1194   -1.0953 C   0  0  0  0  0  0  0  0  0  0  0  0
    3.0181    0.2983   -0.2622 C   0  0  0  0  0  0  0  0  0  0  0  0
    6.3677    1.7053    1.4313 C   0  0  0  0  0  0  0  0  0  0  0  0
    6.9658   -0.3234    0.0764 C   0  0  0  0  0  0  0  0  0  0  0  0
    1.6622    0.1192   -0.5871 C   0  0  0  0  0  0  0  0  0  0  0  0
    2.6774   -1.1046    1.6899 C   0  0  0  0  0  0  0  0  0  0  0  0
    3.4099    1.7943   -2.3335 C   0  0  0  0  0  0  0  0  0  0  0  0
    0.8284   -0.6606    0.2157 C   0  0  0  0  0  0  0  0  0  0  0  0
    1.3356   -1.2726    1.3546 C   0  0  0  0  0  0  0  0  0  0  0  0
   -2.2045   -2.0668   -1.2978 C   0  0  0  0  0  0  0  0  0  0  0  0
   -4.1900    0.8873   -0.3975 C   0  0  0  0  0  0  0  0  0  0  0  0
   -4.3686    0.0982    0.7292 C   0  0  0  0  0  0  0  0  0  0  0  0
   -3.3262    0.1609   -1.3274 C   0  0  0  0  0  0  0  0  0  0  0  0
   -3.6217   -1.1443    0.5358 C   0  0  0  0  0  0  0  0  0  0  0  0
   -0.7407   -1.9209   -0.9489 C   0  0  0  0  0  0  0  0  0  0  0  0
   -4.7728    2.1322   -0.5168 C   0  0  0  0  0  0  0  0  0  0  0  0
   -5.1396    0.5123    1.7958 C   0  0  0  0  0  0  0  0  0  0  0  0
   -5.5590    2.5725    0.5517 C   0  0  0  0  0  0  0  0  0  0  0  0
   -5.7404    1.7705    1.6970 C   0  0  0  0  0  0  0  0  0  0  0  0
    5.1767   -0.6512    2.1049 H   0  0  0  0  0  0  0  0  0  0  0  0
    5.8774    1.8481   -1.3294 H   0  0  0  0  0  0  0  0  0  0  0  0
    5.5667    2.3742    1.7693 H   0  0  0  0  0  0  0  0  0  0  0  0
    7.1250    2.3177    0.9281 H   0  0  0  0  0  0  0  0  0  0  0  0
    6.8289    1.2752    2.3283 H   0  0  0  0  0  0  0  0  0  0  0  0
    7.7436    0.2197   -0.4729 H   0  0  0  0  0  0  0  0  0  0  0  0
    6.5997   -1.1298   -0.5709 H   0  0  0  0  0  0  0  0  0  0  0  0
    7.4398   -0.7967    0.9447 H   0  0  0  0  0  0  0  0  0  0  0  0
    1.2323    0.5849   -1.4709 H   0  0  0  0  0  0  0  0  0  0  0  0
    3.0585   -1.5911    2.5855 H   0  0  0  0  0  0  0  0  0  0  0  0
    4.1939    2.3640   -2.8449 H   0  0  0  0  0  0  0  0  0  0  0  0
    2.6084    2.4992   -2.0881 H   0  0  0  0  0  0  0  0  0  0  0  0
    3.0296    1.0574   -3.0489 H   0  0  0  0  0  0  0  0  0  0  0  0
    0.6945   -1.8809    1.9865 H   0  0  0  0  0  0  0  0  0  0  0  0
   -2.5392   -3.0428   -0.9326 H   0  0  0  0  0  0  0  0  0  0  0  0
   -2.2956   -2.0146   -2.3871 H   0  0  0  0  0  0  0  0  0  0  0  0
   -4.6330    2.7491   -1.3967 H   0  0  0  0  0  0  0  0  0  0  0  0
   -5.2790   -0.1036    2.6764 H   0  0  0  0  0  0  0  0  0  0  0  0
   -6.0380    3.5470    0.5015 H   0  0  0  0  0  0  0  0  0  0  0  0
   -6.3567    2.1381    2.5134 H   0  0  0  0  0  0  0  0  0  0  0  0
  1 17  1  0  0  0  0
  1 24  1  0  0  0  0
  2 22  2  0  0  0  0
  3 23  2  0  0  0  0
  4 24  2  0  0  0  0
  5  7  1  0  0  0  0
  5  9  1  0  0  0  0
  5 29  1  0  0  0  0
  6 19  1  0  0  0  0
  6 22  1  0  0  0  0
  6 23  1  0  0  0  0
  7  8  1  0  0  0  0
  7 12  1  0  0  0  0
  7 13  1  0  0  0  0
  8 10  2  0  0  0  0
  8 30  1  0  0  0  0
  9 11  2  0  0  0  0
  9 15  1  0  0  0  0
 10 11  1  0  0  0  0
 10 16  1  0  0  0  0
 11 14  1  0  0  0  0
 12 31  1  0  0  0  0
 12 32  1  0  0  0  0
 12 33  1  0  0  0  0
 13 34  1  0  0  0  0
 13 35  1  0  0  0  0
 13 36  1  0  0  0  0
 14 17  2  0  0  0  0
 14 37  1  0  0  0  0
 15 18  2  0  0  0  0
 15 38  1  0  0  0  0
 16 39  1  0  0  0  0
 16 40  1  0  0  0  0
 16 41  1  0  0  0  0
 17 18  1  0  0  0  0
 18 42  1  0  0  0  0
 19 24  1  0  0  0  0
 19 43  1  0  0  0  0
 19 44  1  0  0  0  0
 20 21  1  0  0  0  0
 20 22  1  0  0  0  0
 20 25  2  0  0  0  0
 21 23  1  0  0  0  0
 21 26  2  0  0  0  0
 25 27  1  0  0  0  0
 25 45  1  0  0  0  0
 26 28  1  0  0  0  0
 26 46  1  0  0  0  0
 27 28  2  0  0  0  0
 27 47  1  0  0  0  0
 28 48  1  0  0  0  0
M  END
> <PUBCHEM_COMPOUND_CID>
996076

> <PUBCHEM_CONFORMER_RMSD>
0.8

> <PUBCHEM_CONFORMER_DIVERSEORDER>
1
55
82
51
136
53
16
109
26
58
31
116
112
91
137
62
50
113
37
132
99
30
42
75
63
95
119
98
35
27
102
115
43
3
94
101
17
44
32
110
118
121
123
79
46
105
78
28
130
88
122
66
124
39
131
34
9
23
64
111
29
11
72
68
134
117
120
129
106
60
103
13
100
18
89
83
114
141
33
49
22
41
77
135
128
73
19
65
59
20
80
97
104
48
6
84
15
96
61
85
133
86
126
71
24
4
57
10
127
7
67
36
56
140
125
81
12
38
92
21
69
70
47
45
25
5
76
108
139
54
90
87
14
2
52
138
107
40
93
74
8

> <PUBCHEM_MMFF94_PARTIAL_CHARGES>
35
1 -0.23
10 -0.17
11 0.03
14 -0.15
15 -0.15
16 0.14
17 0.08
18 -0.15
19 0.36
2 -0.57
20 0.09
21 0.09
22 0.54
23 0.54
24 0.66
25 -0.15
26 -0.15
27 -0.15
28 -0.15
29 0.4
3 -0.57
30 0.15
37 0.15
38 0.15
4 -0.57
42 0.15
45 0.15
46 0.15
47 0.15
48 0.15
5 -0.87
6 -0.42
7 0.51
8 -0.29
9 0.1

> <PUBCHEM_EFFECTIVE_ROTOR_COUNT>
4.6

> <PUBCHEM_PHARMACOPHORE_FEATURES>
10
1 2 acceptor
1 3 acceptor
1 4 acceptor
1 5 cation
1 5 donor
3 7 12 13 hydrophobe
5 6 20 21 22 23 rings
6 20 21 25 26 27 28 rings
6 5 7 8 9 10 11 rings
6 9 11 14 15 17 18 rings

> <PUBCHEM_HEAVY_ATOM_COUNT>
28

> <PUBCHEM_ATOM_DEF_STEREO_COUNT>
0

> <PUBCHEM_ATOM_UDEF_STEREO_COUNT>
0

> <PUBCHEM_BOND_DEF_STEREO_COUNT>
0

> <PUBCHEM_BOND_UDEF_STEREO_COUNT>
0

> <PUBCHEM_ISOTOPIC_ATOM_COUNT>
0

> <PUBCHEM_COMPONENT_COUNT>
1

> <PUBCHEM_CACTVS_TAUTO_COUNT>
1

> <PUBCHEM_CONFORMER_ID>
000F32EC00000001

> <PUBCHEM_MMFF94_ENERGY>
85.9928

> <PUBCHEM_FEATURE_SELFOVERLAP>
50.861

> <PUBCHEM_SHAPE_FINGERPRINT>
105312 117 17918276463093689911
10554248 39 16343709829169067340
11370993 144 17168419355677696755
11552529 35 17606124124141865203
11796584 16 17704354390631852398
12236239 1 18408321107960448722
12422481 6 18040995111932724540
12616971 3 17821731662757529564
12633257 1 17676491644490498387
13583140 156 17095511873458411119
13782708 43 13479398454385364656
14068700 675 18055058025225412615
14294032 229 18060418024357210711
14341114 328 17822301209738246375
14849402 71 17169001130900506260
14856354 85 17240489138653943362
14950920 106 16588030129901284297
15183329 4 14045743694848308961
15188451 53 13912329001584836977
15274700 147 15183411984039746704
15475509 8 18187093811239010094
15513586 35 18046077218217975541
1601671 61 18342175557505871784
16110190 28 18186805785430117421
17349148 13 9223234082700420184
17780758 139 14418132894714361693
19377110 9 16153721932743075503
20775438 99 10227753300986274633
21120745 212 17832718142246915039
21302155 148 18410578353545258537
21756936 100 18410290341311650011
21814621 53 18271809051629006194
22393880 68 14907886185277777031
2303208 19 14418125211023039840
249057 25 18189331436748086494
312425 54 15719676442536299265
38570 142 17533245130872852420
392239 28 16732706068732894953
4098825 35 13686297976952449865
46194498 28 15625080122400441827
4938544 92 14563083672930424311
5104073 3 17314507222623132232
57724786 102 18268710498479943011
59682541 52 13901626269205644961
59755656 520 16702026400569080743
6431902 208 10665225938719148713
6608658 132 17488734568282776009
7226269 152 17703792526545020880
7808743 9 18272089396633113099
7970288 3 11530492129231067713

> <PUBCHEM_SHAPE_MULTIPOLES>
542.79
16.93
2.39
1.95
7.91
0.13
0.32
-10.47
-5.59
-2.2
0.34
-0.31
-0.23
-1.24

> <PUBCHEM_SHAPE_SELFOVERLAP>
1199.891

> <PUBCHEM_SHAPE_VOLUME>
290.8

> <PUBCHEM_COORDINATE_TYPE>
2
5
10

$$$$
