769669
  -OEChem-01171809583D

 25 26  0     0  0  0  0  0  0999 V2000
   -3.1668    0.9545   -0.9869 S   0  0  0  0  0  0  0  0  0  0  0  0
    5.2582   -0.1530   -0.0767 O   0  0  0  0  0  0  0  0  0  0  0  0
   -0.2790    0.3043    0.1589 N   0  0  0  0  0  0  0  0  0  0  0  0
   -1.1622   -0.7656   -0.1889 C   0  0  0  0  0  0  0  0  0  0  0  0
    1.1252    0.1888    0.0984 C   0  0  0  0  0  0  0  0  0  0  0  0
   -2.6075   -0.3616   -0.0684 C   0  0  0  0  0  0  0  0  0  0  0  0
    1.7094   -1.0086   -0.3147 C   0  0  0  0  0  0  0  0  0  0  0  0
    1.9301    1.2715    0.4526 C   0  0  0  0  0  0  0  0  0  0  0  0
   -3.5674   -0.9319    0.7107 C   0  0  0  0  0  0  0  0  0  0  0  0
    3.0983   -1.1232   -0.3737 C   0  0  0  0  0  0  0  0  0  0  0  0
    3.3191    1.1570    0.3937 C   0  0  0  0  0  0  0  0  0  0  0  0
    3.9031   -0.0405   -0.0194 C   0  0  0  0  0  0  0  0  0  0  0  0
   -4.8186   -0.2684    0.5544 C   0  0  0  0  0  0  0  0  0  0  0  0
   -4.7421    0.7765   -0.3399 C   0  0  0  0  0  0  0  0  0  0  0  0
   -0.9858   -1.6278    0.4670 H   0  0  0  0  0  0  0  0  0  0  0  0
   -0.9892   -1.0949   -1.2220 H   0  0  0  0  0  0  0  0  0  0  0  0
   -0.6589    1.1922    0.4692 H   0  0  0  0  0  0  0  0  0  0  0  0
    1.1214   -1.8764   -0.5979 H   0  0  0  0  0  0  0  0  0  0  0  0
    1.4874    2.2100    0.7764 H   0  0  0  0  0  0  0  0  0  0  0  0
   -3.4020   -1.7789    1.3639 H   0  0  0  0  0  0  0  0  0  0  0  0
    3.5415   -2.0615   -0.6969 H   0  0  0  0  0  0  0  0  0  0  0  0
    3.9408    2.0039    0.6709 H   0  0  0  0  0  0  0  0  0  0  0  0
   -5.7285   -0.5435    1.0717 H   0  0  0  0  0  0  0  0  0  0  0  0
   -5.5360    1.4439   -0.6442 H   0  0  0  0  0  0  0  0  0  0  0  0
    5.4876   -1.0475   -0.3824 H   0  0  0  0  0  0  0  0  0  0  0  0
  1  6  1  0  0  0  0
  1 14  1  0  0  0  0
  2 12  1  0  0  0  0
  2 25  1  0  0  0  0
  3  4  1  0  0  0  0
  3  5  1  0  0  0  0
  3 17  1  0  0  0  0
  4  6  1  0  0  0  0
  4 15  1  0  0  0  0
  4 16  1  0  0  0  0
  5  7  2  0  0  0  0
  5  8  1  0  0  0  0
  6  9  2  0  0  0  0
  7 10  1  0  0  0  0
  7 18  1  0  0  0  0
  8 11  2  0  0  0  0
  8 19  1  0  0  0  0
  9 13  1  0  0  0  0
  9 20  1  0  0  0  0
 10 12  2  0  0  0  0
 10 21  1  0  0  0  0
 11 12  1  0  0  0  0
 11 22  1  0  0  0  0
 13 14  2  0  0  0  0
 13 23  1  0  0  0  0
 14 24  1  0  0  0  0
M  END
> <PUBCHEM_COMPOUND_CID>
769669

> <PUBCHEM_CONFORMER_RMSD>
0.6

> <PUBCHEM_CONFORMER_DIVERSEORDER>
1
15
9
5
3
16
13
2
6
14
4
12
7
10
11
8

> <PUBCHEM_MMFF94_PARTIAL_CHARGES>
23
1 -0.08
10 -0.15
11 -0.15
12 0.08
13 -0.15
14 -0.11
17 0.4
18 0.15
19 0.15
2 -0.53
20 0.15
21 0.15
22 0.15
23 0.15
24 0.15
25 0.45
3 -0.87
4 0.55
5 0.1
6 -0.14
7 -0.15
8 -0.15
9 -0.15

> <PUBCHEM_EFFECTIVE_ROTOR_COUNT>
3

> <PUBCHEM_PHARMACOPHORE_FEATURES>
5
1 2 donor
1 3 cation
1 3 donor
5 1 6 9 13 14 rings
6 5 7 8 10 11 12 rings

> <PUBCHEM_HEAVY_ATOM_COUNT>
14

> <PUBCHEM_ATOM_DEF_STEREO_COUNT>
0

> <PUBCHEM_ATOM_UDEF_STEREO_COUNT>
0

> <PUBCHEM_BOND_DEF_STEREO_COUNT>
0

> <PUBCHEM_BOND_UDEF_STEREO_COUNT>
0

> <PUBCHEM_ISOTOPIC_ATOM_COUNT>
0

> <PUBCHEM_COMPONENT_COUNT>
1

> <PUBCHEM_CACTVS_TAUTO_COUNT>
2

> <PUBCHEM_CONFORMER_ID>
000BBE8500000001

> <PUBCHEM_MMFF94_ENERGY>
36.3926

> <PUBCHEM_FEATURE_SELFOVERLAP>
25.371

> <PUBCHEM_SHAPE_FINGERPRINT>
10680689 15 18186802500259689835
11471102 20 18273213101685053948
12236239 1 16415479350289670479
13081056 2 18408884057486816341
13675066 3 18409729599076524025
14123238 8 18259704505941888767
14252887 29 17846505803257567958
15242439 84 18408039602544355517
15375358 24 18411419509725430499
17834072 33 17846212306461544151
17834076 25 16917068858341943678
18186145 218 18343301470123503883
19433438 28 18260266369437545289
1986462 14 18040152911985321575
200 152 17632574937931597217
20279233 1 18408327683249605491
20645477 56 18113897131433469013
20645477 70 18201157646304086670
22485316 2 18333731312399454963
2297311 6 17967823734269835837
23402539 116 16877939447138520863
23402655 69 18202282498143475972
23557571 272 17894911789342419253
23559900 14 18260266309239541590
26918003 58 18342176674002131635
3268164 11 17313373544419558415
3545911 37 18410857663878953299
42 15 18334296469971061735
4214541 1 18410012143842904713
42788 4 18410012139004631402
5104073 3 18339078293126593259
522135 26 18272089387863901950
542803 24 16081090376497523855
69090 78 18342172297773685975
77779 3 18408605872539125611

> <PUBCHEM_SHAPE_MULTIPOLES>
281.11
10.99
1.25
0.81
1.23
0.1
0.04
0.44
-0.29
-0.17
0.01
0.41
0.05
0.91

> <PUBCHEM_SHAPE_SELFOVERLAP>
585.158

> <PUBCHEM_SHAPE_VOLUME>
160.5

> <PUBCHEM_COORDINATE_TYPE>
2
5
10

$$$$
