2471413
  -OEChem-01171809253D

 32 33  0     0  0  0  0  0  0999 V2000
    4.0667    2.6971    0.3189 Cl  0  0  0  0  0  0  0  0  0  0  0  0
    6.1211    0.1510    0.6150 Cl  0  0  0  0  0  0  0  0  0  0  0  0
    0.1099   -1.5929    1.2199 O   0  0  0  0  0  0  0  0  0  0  0  0
    1.4299    1.7427   -0.4968 O   0  0  0  0  0  0  0  0  0  0  0  0
    1.8665   -0.5281   -0.6111 N   0  0  0  0  0  0  0  0  0  0  0  0
    2.7350   -1.5749   -0.4829 N   0  0  0  0  0  0  0  0  0  0  0  0
   -1.7890   -0.6810    0.1674 C   0  0  0  0  0  0  0  0  0  0  0  0
   -4.4636    0.0361    0.0805 C   0  0  0  0  0  0  0  0  0  0  0  0
    0.4995   -0.8183   -1.0121 C   0  0  0  0  0  0  0  0  0  0  0  0
   -0.3668   -1.0642    0.2145 C   0  0  0  0  0  0  0  0  0  0  0  0
   -5.9032    0.4231    0.0329 C   0  0  0  0  0  0  0  0  0  0  0  0
   -2.4599   -0.7109   -1.0442 C   0  0  0  0  0  0  0  0  0  0  0  0
   -2.4275   -0.3001    1.3365 C   0  0  0  0  0  0  0  0  0  0  0  0
   -3.8067   -0.3497   -1.0879 C   0  0  0  0  0  0  0  0  0  0  0  0
   -3.7740    0.0609    1.2926 C   0  0  0  0  0  0  0  0  0  0  0  0
   -6.0950    1.9158   -0.2228 C   0  0  0  0  0  0  0  0  0  0  0  0
    2.2137    0.7997   -0.3803 C   0  0  0  0  0  0  0  0  0  0  0  0
    3.6245    1.0545    0.0297 C   0  0  0  0  0  0  0  0  0  0  0  0
    3.9431   -1.2983   -0.1260 C   0  0  0  0  0  0  0  0  0  0  0  0
    4.4758    0.0375    0.1562 C   0  0  0  0  0  0  0  0  0  0  0  0
    0.1134    0.0250   -1.5930 H   0  0  0  0  0  0  0  0  0  0  0  0
    0.4924   -1.7158   -1.6399 H   0  0  0  0  0  0  0  0  0  0  0  0
   -6.4192   -0.1491   -0.7484 H   0  0  0  0  0  0  0  0  0  0  0  0
   -6.3958    0.1490    0.9742 H   0  0  0  0  0  0  0  0  0  0  0  0
   -1.9787   -1.0243   -1.9655 H   0  0  0  0  0  0  0  0  0  0  0  0
   -1.9027   -0.2712    2.2872 H   0  0  0  0  0  0  0  0  0  0  0  0
   -4.3336   -0.3751   -2.0381 H   0  0  0  0  0  0  0  0  0  0  0  0
   -4.2739    0.3625    2.2094 H   0  0  0  0  0  0  0  0  0  0  0  0
   -5.6287    2.5159    0.5658 H   0  0  0  0  0  0  0  0  0  0  0  0
   -7.1616    2.1602   -0.2506 H   0  0  0  0  0  0  0  0  0  0  0  0
   -5.6522    2.2140   -1.1793 H   0  0  0  0  0  0  0  0  0  0  0  0
    4.6531   -2.1352   -0.0191 H   0  0  0  0  0  0  0  0  0  0  0  0
  1 18  1  0  0  0  0
  2 20  1  0  0  0  0
  3 10  2  0  0  0  0
  4 17  2  0  0  0  0
  5  6  1  0  0  0  0
  5  9  1  0  0  0  0
  5 17  1  0  0  0  0
  6 19  2  0  0  0  0
  7 10  1  0  0  0  0
  7 12  2  0  0  0  0
  7 13  1  0  0  0  0
  8 11  1  0  0  0  0
  8 14  2  0  0  0  0
  8 15  1  0  0  0  0
  9 10  1  0  0  0  0
  9 21  1  0  0  0  0
  9 22  1  0  0  0  0
 11 16  1  0  0  0  0
 11 23  1  0  0  0  0
 11 24  1  0  0  0  0
 12 14  1  0  0  0  0
 12 25  1  0  0  0  0
 13 15  2  0  0  0  0
 13 26  1  0  0  0  0
 14 27  1  0  0  0  0
 15 28  1  0  0  0  0
 16 29  1  0  0  0  0
 16 30  1  0  0  0  0
 16 31  1  0  0  0  0
 17 18  1  0  0  0  0
 18 20  2  0  0  0  0
 19 20  1  0  0  0  0
 19 32  1  0  0  0  0
M  END
> <PUBCHEM_COMPOUND_CID>
2471413

> <PUBCHEM_CONFORMER_RMSD>
0.6

> <PUBCHEM_CONFORMER_DIVERSEORDER>
1
7
64
107
39
88
110
97
90
15
104
106
81
100
91
99
85
47
6
52
37
108
77
26
93
29
84
83
67
73
101
102
41
48
3
92
5
76
9
63
40
51
4
13
19
111
17
24
57
94
38
72
96
11
31
49
45
60
89
59
62
12
75
18
98
103
66
78
23
36
32
30
58
14
70
71
43
21
44
105
79
2
54
50
20
61
69
28
33
35
65
95
56
8
55
82
68
53
25
27
46
10
87
86
34
16
22
42
80
74
109

> <PUBCHEM_MMFF94_PARTIAL_CHARGES>
24
1 -0.14
10 0.42
11 0.14
12 -0.15
13 -0.15
14 -0.15
15 -0.15
17 0.62
18 0.15
19 0.38
2 -0.14
20 0.15
25 0.15
26 0.15
27 0.15
28 0.15
3 -0.57
32 0.06
4 -0.57
5 -0.3
6 -0.51
7 0.09
8 -0.14
9 0.36

> <PUBCHEM_EFFECTIVE_ROTOR_COUNT>
4

> <PUBCHEM_PHARMACOPHORE_FEATURES>
6
1 16 hydrophobe
1 3 acceptor
1 4 acceptor
1 6 acceptor
6 5 6 17 18 19 20 rings
6 7 8 12 13 14 15 rings

> <PUBCHEM_HEAVY_ATOM_COUNT>
20

> <PUBCHEM_ATOM_DEF_STEREO_COUNT>
0

> <PUBCHEM_ATOM_UDEF_STEREO_COUNT>
0

> <PUBCHEM_BOND_DEF_STEREO_COUNT>
0

> <PUBCHEM_BOND_UDEF_STEREO_COUNT>
0

> <PUBCHEM_ISOTOPIC_ATOM_COUNT>
0

> <PUBCHEM_COMPONENT_COUNT>
1

> <PUBCHEM_CACTVS_TAUTO_COUNT>
2

> <PUBCHEM_CONFORMER_ID>
0025B5F500000001

> <PUBCHEM_MMFF94_ENERGY>
50.695

> <PUBCHEM_FEATURE_SELFOVERLAP>
30.447

> <PUBCHEM_SHAPE_FINGERPRINT>
11089746 13 18409162216532204343
11578080 2 14058156185184637548
12236239 1 17846776303986351375
12507557 5 18410859884308460723
12596602 18 14273743961959609869
12633257 1 18188200001129442066
128620 24 14333415548878241647
13167372 99 18271811151519691361
13288520 33 8430313546269245599
13464513 79 10447926174677428002
13533116 47 17677042443612519210
13675066 3 17895197735232326418
14251764 18 17095527313586310362
14341114 176 12901554537248332071
14576447 43 7925639903842951724
15188451 53 16806455876128738819
15238133 3 17531256019564087997
16988056 13 13884807886002052089
17959699 21 18343018874608864977
19489759 90 16200435770891552354
20157964 124 18343866597815202983
20511986 3 17846481643644300790
20715895 44 18129383705297586329
20871999 31 14476967787480834595
21033648 29 17749374992734920389
21033650 10 15409798945311276243
21279426 13 17825097113004326583
21618674 57 17458345225782461841
22950370 63 10737275840427937934
23402539 116 18343015610117007543
23557571 272 13830139372893812291
23559900 14 17676498228475377342
239999 70 11167936953232058534
2838139 119 18412256208637508541
2916195 48 18335982047324761105
300161 21 17846774104999908518
314194 84 11025803115153451777
33382 64 8502652619209742573
351380 180 18409449180677722249
3545911 37 18272374186934543551
4325135 7 12895066327633109320
465052 167 11818995166869658032
474 4 18342461456066879666
5104073 3 18189610712975822258
5385378 56 17314227770174994251
57724786 102 17968380164326427740
633830 44 18334852844213755351
8272917 22 18343022168833164878
9971528 1 18202008698980172758
9981440 41 17264391623635289496

> <PUBCHEM_SHAPE_MULTIPOLES>
393.63
14.12
1.87
1.09
4.26
1.08
-0.15
5.84
-0.97
-1.39
0.05
0.7
-0.19
0.2

> <PUBCHEM_SHAPE_SELFOVERLAP>
817.051

> <PUBCHEM_SHAPE_VOLUME>
225.5

> <PUBCHEM_COORDINATE_TYPE>
2
5
10

$$$$
