5908718
  -OEChem-01171810193D

 35 37  0     0  0  0  0  0  0999 V2000
    1.3214   -0.4824   -1.5295 S   0  0  0  0  0  0  0  0  0  0  0  0
   -0.7890   -3.6110   -1.7819 S   0  0  0  0  0  0  0  0  0  0  0  0
    1.7854   -0.6001    1.0860 N   0  0  0  0  0  0  0  0  0  0  0  0
   -2.0058   -1.3446   -1.2151 N   0  0  0  0  0  0  0  0  0  0  0  0
   -0.7147   -2.7789    2.6500 N   0  0  0  0  0  0  0  0  0  0  0  0
    2.7757    0.2429    0.5774 C   0  0  0  0  0  0  0  0  0  0  0  0
    2.6964    0.4339   -0.8190 C   0  0  0  0  0  0  0  0  0  0  0  0
    0.9329   -1.0713    0.1106 C   0  0  0  0  0  0  0  0  0  0  0  0
    3.7714    0.8672    1.3115 C   0  0  0  0  0  0  0  0  0  0  0  0
   -0.1076   -1.8936    0.2982 C   0  0  0  0  0  0  0  0  0  0  0  0
    3.5985    1.2416   -1.4921 C   0  0  0  0  0  0  0  0  0  0  0  0
   -2.4536   -0.1177   -0.6656 C   0  0  0  0  0  0  0  0  0  0  0  0
    4.6861    1.6833    0.6401 C   0  0  0  0  0  0  0  0  0  0  0  0
    4.6001    1.8690   -0.7490 C   0  0  0  0  0  0  0  0  0  0  0  0
   -0.9749   -2.1935   -0.8759 C   0  0  0  0  0  0  0  0  0  0  0  0
   -3.3286    2.2792    0.4072 C   0  0  0  0  0  0  0  0  0  0  0  0
   -3.0216    0.8291   -1.5004 C   0  0  0  0  0  0  0  0  0  0  0  0
   -2.3130    0.1058    0.6932 C   0  0  0  0  0  0  0  0  0  0  0  0
   -3.4624    2.0370   -0.9598 C   0  0  0  0  0  0  0  0  0  0  0  0
   -2.7539    1.3137    1.2338 C   0  0  0  0  0  0  0  0  0  0  0  0
   -3.8005    3.5705    0.9855 C   0  0  0  0  0  0  0  0  0  0  0  0
   -0.4425   -2.3802    1.5948 C   0  0  0  0  0  0  0  0  0  0  0  0
    1.6969   -0.8408    2.0602 H   0  0  0  0  0  0  0  0  0  0  0  0
    3.8466    0.7312    2.3855 H   0  0  0  0  0  0  0  0  0  0  0  0
    3.5380    1.3895   -2.5650 H   0  0  0  0  0  0  0  0  0  0  0  0
    5.4739    2.1814    1.1991 H   0  0  0  0  0  0  0  0  0  0  0  0
    5.3222    2.5084   -1.2498 H   0  0  0  0  0  0  0  0  0  0  0  0
   -2.4274   -1.5637   -2.1159 H   0  0  0  0  0  0  0  0  0  0  0  0
   -3.1290    0.6499   -2.5665 H   0  0  0  0  0  0  0  0  0  0  0  0
   -1.9840   -0.6286    1.4031 H   0  0  0  0  0  0  0  0  0  0  0  0
   -3.9099    2.7807   -1.6138 H   0  0  0  0  0  0  0  0  0  0  0  0
   -2.6678    1.4819    2.3042 H   0  0  0  0  0  0  0  0  0  0  0  0
   -3.7172    4.3838    0.2566 H   0  0  0  0  0  0  0  0  0  0  0  0
   -4.8464    3.4832    1.2958 H   0  0  0  0  0  0  0  0  0  0  0  0
   -3.1989    3.8571    1.8548 H   0  0  0  0  0  0  0  0  0  0  0  0
  1  7  1  0  0  0  0
  1  8  1  0  0  0  0
  2 15  2  0  0  0  0
  3  6  1  0  0  0  0
  3  8  1  0  0  0  0
  3 23  1  0  0  0  0
  4 12  1  0  0  0  0
  4 15  1  0  0  0  0
  4 28  1  0  0  0  0
  5 22  3  0  0  0  0
  6  7  1  0  0  0  0
  6  9  2  0  0  0  0
  7 11  2  0  0  0  0
  8 10  2  0  0  0  0
  9 13  1  0  0  0  0
  9 24  1  0  0  0  0
 10 15  1  0  0  0  0
 10 22  1  0  0  0  0
 11 14  1  0  0  0  0
 11 25  1  0  0  0  0
 12 17  2  0  0  0  0
 12 18  1  0  0  0  0
 13 14  2  0  0  0  0
 13 26  1  0  0  0  0
 14 27  1  0  0  0  0
 16 19  2  0  0  0  0
 16 20  1  0  0  0  0
 16 21  1  0  0  0  0
 17 19  1  0  0  0  0
 17 29  1  0  0  0  0
 18 20  2  0  0  0  0
 18 30  1  0  0  0  0
 19 31  1  0  0  0  0
 20 32  1  0  0  0  0
 21 33  1  0  0  0  0
 21 34  1  0  0  0  0
 21 35  1  0  0  0  0
M  END
> <PUBCHEM_COMPOUND_CID>
5908718

> <PUBCHEM_CONFORMER_RMSD>
0.6

> <PUBCHEM_CONFORMER_DIVERSEORDER>
1
6
12
8
11
9
14
16
5
17
3
15
10
13
2
4
7

> <PUBCHEM_MMFF94_PARTIAL_CHARGES>
32
1 -0.2
10 0.08
11 -0.15
12 0.12
13 -0.15
14 -0.15
15 0.43
16 -0.14
17 -0.15
18 -0.15
19 -0.15
2 -0.38
20 -0.15
21 0.14
22 0.49
23 0.4
24 0.15
25 0.15
26 0.15
27 0.15
28 0.37
29 0.15
3 -0.6
30 0.15
31 0.15
32 0.15
4 -0.55
5 -0.56
6 0.1
7 0.1
8 0.2
9 -0.15

> <PUBCHEM_EFFECTIVE_ROTOR_COUNT>
3.4

> <PUBCHEM_PHARMACOPHORE_FEATURES>
7
1 2 acceptor
1 3 cation
1 3 donor
1 5 acceptor
5 1 3 6 7 8 rings
6 12 16 17 18 19 20 rings
6 6 7 9 11 13 14 rings

> <PUBCHEM_HEAVY_ATOM_COUNT>
22

> <PUBCHEM_ATOM_DEF_STEREO_COUNT>
0

> <PUBCHEM_ATOM_UDEF_STEREO_COUNT>
0

> <PUBCHEM_BOND_DEF_STEREO_COUNT>
1

> <PUBCHEM_BOND_UDEF_STEREO_COUNT>
0

> <PUBCHEM_ISOTOPIC_ATOM_COUNT>
0

> <PUBCHEM_COMPONENT_COUNT>
1

> <PUBCHEM_CACTVS_TAUTO_COUNT>
5

> <PUBCHEM_CONFORMER_ID>
005A28EE00000001

> <PUBCHEM_MMFF94_ENERGY>
89.243

> <PUBCHEM_FEATURE_SELFOVERLAP>
35.587

> <PUBCHEM_SHAPE_FINGERPRINT>
10042902 136 10953754261300462896
10291535 26 18124588932456715664
10382601 240 17973727978292940329
10498660 4 18059852822965706961
10937287 8 18200312109193592061
11370993 144 14635412863214664060
11477941 20 17482830469634769868
11640471 11 18266160773885298855
12173636 292 18273210894056066085
12633257 1 15502386603420668909
12788726 201 18121483902692948307
13134695 92 17324353017962611387
13583140 156 14707479347987635324
13828863 39 15721113641567079676
13965767 371 18120651327624656253
13994607 96 18189341336615911679
14142880 1 18334571361127086773
14251764 75 18057897848442524025
14787075 74 18116145761461504635
15163728 17 18272658908785152556
15342168 16 18196374724048397693
15534591 1 18335136531114545042
15961568 22 17263545004372780472
17818456 19 18199166439937128970
17980427 23 17549228486307832931
21033650 10 18267032820293573356
21524375 3 18336257968634613751
21731228 192 17967817123935475955
21756936 100 18188218696974459560
21864079 5 18199751345315279337
22182937 141 18261965157572719536
22956985 138 15087204837115674650
23419403 2 17332587415125120255
235170 7 16486967440407603828
23557571 272 17699842118626448590
23559900 14 17917999391312785356
394222 165 18192421975113498451
469060 322 18116162245397709499
474 4 18189050902432601081
5262128 65 13109520509260138531
56616090 278 17831594071810751137
6328613 192 18334858321399714676
6438718 38 18338241586484832758
7288768 16 18334022674422536305
7808743 9 18341897432704391856
9981440 41 18343014532317969978

> <PUBCHEM_SHAPE_MULTIPOLES>
445.51
8.08
3.94
1.99
5.64
1.29
-0.54
-9.86
0.53
-3.42
-0.15
-0.12
1.11
-0.63

> <PUBCHEM_SHAPE_SELFOVERLAP>
945.165

> <PUBCHEM_SHAPE_VOLUME>
249.5

> <PUBCHEM_COORDINATE_TYPE>
2
5
10

$$$$
