2430298
  -OEChem-01171809483D

 32 34  0     0  0  0  0  0  0999 V2000
   -4.7474    0.4505    2.1970 Cl  0  0  0  0  0  0  0  0  0  0  0  0
   -5.9234    1.2800   -0.7559 Cl  0  0  0  0  0  0  0  0  0  0  0  0
   -0.0255    0.9366   -0.2385 O   0  0  0  0  0  0  0  0  0  0  0  0
   -2.1298   -0.8086    1.8941 O   0  0  0  0  0  0  0  0  0  0  0  0
    1.7016   -0.6307   -0.1549 N   0  0  0  0  0  0  0  0  0  0  0  0
   -1.8998   -0.7235   -0.4111 N   0  0  0  0  0  0  0  0  0  0  0  0
   -2.4305   -0.3590   -1.6298 N   0  0  0  0  0  0  0  0  0  0  0  0
    2.1823   -2.0284   -0.1676 C   0  0  0  0  0  0  0  0  0  0  0  0
    3.7087   -1.9990   -0.0344 C   0  0  0  0  0  0  0  0  0  0  0  0
    3.9910   -0.5341    0.0377 C   0  0  0  0  0  0  0  0  0  0  0  0
    2.8190    0.2216   -0.0330 C   0  0  0  0  0  0  0  0  0  0  0  0
    0.3769   -0.2269   -0.2489 C   0  0  0  0  0  0  0  0  0  0  0  0
    5.2327    0.0709    0.1612 C   0  0  0  0  0  0  0  0  0  0  0  0
    2.8680    1.6071    0.0190 C   0  0  0  0  0  0  0  0  0  0  0  0
   -0.6220   -1.3534   -0.3715 C   0  0  0  0  0  0  0  0  0  0  0  0
    5.2908    1.4632    0.2138 C   0  0  0  0  0  0  0  0  0  0  0  0
    4.1164    2.2254    0.1430 C   0  0  0  0  0  0  0  0  0  0  0  0
   -2.5858   -0.4903    0.7951 C   0  0  0  0  0  0  0  0  0  0  0  0
   -3.9191    0.1716    0.7091 C   0  0  0  0  0  0  0  0  0  0  0  0
   -3.5877    0.2103   -1.6467 C   0  0  0  0  0  0  0  0  0  0  0  0
   -4.4165    0.5169   -0.4777 C   0  0  0  0  0  0  0  0  0  0  0  0
    1.8699   -2.5043   -1.1038 H   0  0  0  0  0  0  0  0  0  0  0  0
    1.7202   -2.5740    0.6625 H   0  0  0  0  0  0  0  0  0  0  0  0
    4.1893   -2.4550   -0.9054 H   0  0  0  0  0  0  0  0  0  0  0  0
    4.0348   -2.5117    0.8758 H   0  0  0  0  0  0  0  0  0  0  0  0
    6.1407   -0.5202    0.2161 H   0  0  0  0  0  0  0  0  0  0  0  0
    1.9817    2.2271   -0.0329 H   0  0  0  0  0  0  0  0  0  0  0  0
   -0.5441   -2.0255    0.4876 H   0  0  0  0  0  0  0  0  0  0  0  0
   -0.4580   -1.9114   -1.2985 H   0  0  0  0  0  0  0  0  0  0  0  0
    6.2513    1.9616    0.3103 H   0  0  0  0  0  0  0  0  0  0  0  0
    4.1777    3.3096    0.1853 H   0  0  0  0  0  0  0  0  0  0  0  0
   -4.0054    0.4990   -2.6255 H   0  0  0  0  0  0  0  0  0  0  0  0
  1 19  1  0  0  0  0
  2 21  1  0  0  0  0
  3 12  2  0  0  0  0
  4 18  2  0  0  0  0
  5  8  1  0  0  0  0
  5 11  1  0  0  0  0
  5 12  1  0  0  0  0
  6  7  1  0  0  0  0
  6 15  1  0  0  0  0
  6 18  1  0  0  0  0
  7 20  2  0  0  0  0
  8  9  1  0  0  0  0
  8 22  1  0  0  0  0
  8 23  1  0  0  0  0
  9 10  1  0  0  0  0
  9 24  1  0  0  0  0
  9 25  1  0  0  0  0
 10 11  1  0  0  0  0
 10 13  2  0  0  0  0
 11 14  2  0  0  0  0
 12 15  1  0  0  0  0
 13 16  1  0  0  0  0
 13 26  1  0  0  0  0
 14 17  1  0  0  0  0
 14 27  1  0  0  0  0
 15 28  1  0  0  0  0
 15 29  1  0  0  0  0
 16 17  2  0  0  0  0
 16 30  1  0  0  0  0
 17 31  1  0  0  0  0
 18 19  1  0  0  0  0
 19 21  2  0  0  0  0
 20 21  1  0  0  0  0
 20 32  1  0  0  0  0
M  END
> <PUBCHEM_COMPOUND_CID>
2430298

> <PUBCHEM_CONFORMER_RMSD>
0.6

> <PUBCHEM_CONFORMER_DIVERSEORDER>
1
85
53
49
30
65
54
31
84
59
22
71
40
36
58
29
23
80
28
21
83
25
7
56
60
69
35
16
72
2
77
38
15
82
44
50
6
34
66
63
57
74
67
79
81
9
62
10
51
48
37
68
33
41
64
52
19
73
24
78
55
46
20
45
47
32
12
43
11
76
42
27
18
26
13
70
61
75
17
3
14
8
5
4
39

> <PUBCHEM_MMFF94_PARTIAL_CHARGES>
26
1 -0.14
10 -0.14
11 0.12
12 0.57
13 -0.15
14 -0.15
15 0.36
16 -0.15
17 -0.15
18 0.62
19 0.15
2 -0.14
20 0.38
21 0.15
26 0.15
27 0.15
3 -0.57
30 0.15
31 0.15
32 0.06
4 -0.57
5 -0.48
6 -0.3
7 -0.51
8 0.3
9 0.14

> <PUBCHEM_EFFECTIVE_ROTOR_COUNT>
3.6

> <PUBCHEM_PHARMACOPHORE_FEATURES>
6
1 3 acceptor
1 4 acceptor
1 7 acceptor
5 5 8 9 10 11 rings
6 10 11 13 14 16 17 rings
6 6 7 18 19 20 21 rings

> <PUBCHEM_HEAVY_ATOM_COUNT>
21

> <PUBCHEM_ATOM_DEF_STEREO_COUNT>
0

> <PUBCHEM_ATOM_UDEF_STEREO_COUNT>
0

> <PUBCHEM_BOND_DEF_STEREO_COUNT>
0

> <PUBCHEM_BOND_UDEF_STEREO_COUNT>
0

> <PUBCHEM_ISOTOPIC_ATOM_COUNT>
0

> <PUBCHEM_COMPONENT_COUNT>
1

> <PUBCHEM_CACTVS_TAUTO_COUNT>
1

> <PUBCHEM_CONFORMER_ID>
0025155A00000001

> <PUBCHEM_MMFF94_ENERGY>
65.1754

> <PUBCHEM_FEATURE_SELFOVERLAP>
30.534

> <PUBCHEM_SHAPE_FINGERPRINT>
10411042 1 17763178043337445406
10912923 1 17917707989764833199
11089746 13 17489867159415765240
11370993 144 18187931625386206961
11471102 20 18412542111687941262
12107183 9 17625832556304567395
12236239 1 17703787003396393495
12403259 415 18041006128333888683
12616971 3 17988646263611619306
13533116 47 17532362080610860490
13583140 156 18340770446323310539
13631057 29 17913760884924415455
13675066 3 17894635859068188847
14386348 63 17822294573834555834
14528608 73 18131063866064094012
14848178 96 18057034925288266256
15188451 53 16081376318915534155
15375358 24 18186517713504582274
16988056 13 14029767511681971193
18785283 64 17460331059551690092
200 152 18060132145894075444
20157964 124 18341047433053805319
20511986 3 17774421846188150628
20612939 158 18343301449028397798
20645477 56 18040996250051506815
20645477 70 18411976928162044454
21033648 29 18114168748658804341
21033650 10 15769238097093494722
21065201 7 16153705375718060674
22122407 14 18271817804498243649
23366157 5 13625253172724678463
23402539 116 15267340687420862609
23402655 69 18130221662127783348
23557571 272 16878219762505580790
23559900 14 17241050894690793730
268830 7 18341898450415858513
2838139 119 18123463879239309149
29717793 49 17131835348383955196
300161 21 17846208969192716756
3268164 11 15195566775835880465
335352 9 18411979162035408558
34797466 226 14189288313582651232
474 4 18272089400633051566
5104073 3 18338228388546451530
542803 24 17489872634876347738
543368 44 17703504505769346401
57724786 102 18339093647772397240
5924683 9 17823140197509450595
602551 16 16081376284028222946
633830 44 17988936538897432406
8272917 22 18343300332347788414
90127 26 18261112920297250549

> <PUBCHEM_SHAPE_MULTIPOLES>
409.23
13.34
1.83
1.36
2.71
0.05
-0.42
5.37
-0.74
-2.49
0.04
2.7
0.02
0.31

> <PUBCHEM_SHAPE_SELFOVERLAP>
871.02

> <PUBCHEM_SHAPE_VOLUME>
228.4

> <PUBCHEM_COORDINATE_TYPE>
2
5
10

$$$$
