49786763
  -OEChem-01171810193D

 57 58  0     1  0  0  0  0  0999 V2000
    3.3339    2.5003   -0.0076 O   0  0  0  0  0  0  0  0  0  0  0  0
    3.7075    1.0096    1.7170 O   0  0  0  0  0  0  0  0  0  0  0  0
   -0.8437   -1.6725    0.3911 O   0  0  0  0  0  0  0  0  0  0  0  0
    1.3555   -2.8824    0.6941 O   0  0  0  0  0  0  0  0  0  0  0  0
    2.6277   -1.4824   -0.6665 N   0  0  0  0  0  0  0  0  0  0  0  0
    4.7896    0.7124   -0.4161 C   0  0  1  0  0  0  0  0  0  0  0  0
    5.5424   -0.4621    0.2178 C   0  0  0  0  0  0  0  0  0  0  0  0
    4.0617    0.3502   -1.7150 C   0  0  0  0  0  0  0  0  0  0  0  0
    4.6982   -1.6544    0.6663 C   0  0  0  0  0  0  0  0  0  0  0  0
    2.6969   -0.3261   -1.5639 C   0  0  0  0  0  0  0  0  0  0  0  0
    3.8445   -2.2621   -0.4406 C   0  0  0  0  0  0  0  0  0  0  0  0
    3.8919    1.3996    0.5720 C   0  0  0  0  0  0  0  0  0  0  0  0
    1.4431   -1.8957   -0.0413 C   0  0  0  0  0  0  0  0  0  0  0  0
   -5.9843    0.6323   -0.1413 C   0  0  0  0  0  0  0  0  0  0  0  0
    0.2154   -1.0559   -0.2988 C   0  0  0  0  0  0  0  0  0  0  0  0
   -4.6296    0.0246   -0.0013 C   0  0  0  0  0  0  0  0  0  0  0  0
   -5.9977    2.1080    0.3653 C   0  0  0  0  0  0  0  0  0  0  0  0
   -6.4485    0.6421   -1.6308 C   0  0  0  0  0  0  0  0  0  0  0  0
   -7.1282   -0.0885    0.6465 C   0  0  0  0  0  0  0  0  0  0  0  0
   -2.0951   -1.1118    0.2611 C   0  0  0  0  0  0  0  0  0  0  0  0
   -3.5394    0.5908   -0.6622 C   0  0  0  0  0  0  0  0  0  0  0  0
   -4.4525   -1.1101    0.7906 C   0  0  0  0  0  0  0  0  0  0  0  0
    2.4504    3.2543    0.8283 C   0  0  0  0  0  0  0  0  0  0  0  0
   -2.2722    0.0228   -0.5309 C   0  0  0  0  0  0  0  0  0  0  0  0
   -3.1853   -1.6782    0.9217 C   0  0  0  0  0  0  0  0  0  0  0  0
    1.9178    4.4350    0.0446 C   0  0  0  0  0  0  0  0  0  0  0  0
    5.5661    1.4482   -0.6716 H   0  0  0  0  0  0  0  0  0  0  0  0
    6.2941   -0.8202   -0.4983 H   0  0  0  0  0  0  0  0  0  0  0  0
    6.1075   -0.1016    1.0876 H   0  0  0  0  0  0  0  0  0  0  0  0
    3.9085    1.2645   -2.3042 H   0  0  0  0  0  0  0  0  0  0  0  0
    4.7175   -0.2785   -2.3308 H   0  0  0  0  0  0  0  0  0  0  0  0
    4.0757   -1.3976    1.5297 H   0  0  0  0  0  0  0  0  0  0  0  0
    5.3945   -2.4265    1.0187 H   0  0  0  0  0  0  0  0  0  0  0  0
    2.3690   -0.6818   -2.5485 H   0  0  0  0  0  0  0  0  0  0  0  0
    1.9674    0.4273   -1.2561 H   0  0  0  0  0  0  0  0  0  0  0  0
    3.5614   -3.2762   -0.1356 H   0  0  0  0  0  0  0  0  0  0  0  0
    4.3938   -2.3685   -1.3823 H   0  0  0  0  0  0  0  0  0  0  0  0
    0.3947   -0.0536    0.1055 H   0  0  0  0  0  0  0  0  0  0  0  0
    0.0361   -1.0514   -1.3801 H   0  0  0  0  0  0  0  0  0  0  0  0
   -6.4655   -0.3750   -2.0399 H   0  0  0  0  0  0  0  0  0  0  0  0
   -5.7838    1.2413   -2.2627 H   0  0  0  0  0  0  0  0  0  0  0  0
   -7.4559    1.0625   -1.7317 H   0  0  0  0  0  0  0  0  0  0  0  0
   -6.9995    2.5465    0.2896 H   0  0  0  0  0  0  0  0  0  0  0  0
   -5.6849    2.1621    1.4147 H   0  0  0  0  0  0  0  0  0  0  0  0
   -5.3215    2.7459   -0.2144 H   0  0  0  0  0  0  0  0  0  0  0  0
   -8.0905    0.4154    0.4944 H   0  0  0  0  0  0  0  0  0  0  0  0
   -7.2538   -1.1254    0.3135 H   0  0  0  0  0  0  0  0  0  0  0  0
   -6.9343   -0.0891    1.7255 H   0  0  0  0  0  0  0  0  0  0  0  0
   -3.6496    1.4747   -1.2841 H   0  0  0  0  0  0  0  0  0  0  0  0
   -5.2640   -1.5907    1.3257 H   0  0  0  0  0  0  0  0  0  0  0  0
    2.9957    3.6100    1.7095 H   0  0  0  0  0  0  0  0  0  0  0  0
    1.6185    2.6166    1.1476 H   0  0  0  0  0  0  0  0  0  0  0  0
   -1.4664    0.5141   -1.0659 H   0  0  0  0  0  0  0  0  0  0  0  0
   -3.0521   -2.5620    1.5397 H   0  0  0  0  0  0  0  0  0  0  0  0
    2.7396    5.0723   -0.2982 H   0  0  0  0  0  0  0  0  0  0  0  0
    1.3852    4.0946   -0.8496 H   0  0  0  0  0  0  0  0  0  0  0  0
    1.2365    5.0344    0.6549 H   0  0  0  0  0  0  0  0  0  0  0  0
  1 12  1  0  0  0  0
  1 23  1  0  0  0  0
  2 12  2  0  0  0  0
  3 15  1  0  0  0  0
  3 20  1  0  0  0  0
  4 13  2  0  0  0  0
  5 10  1  0  0  0  0
  5 11  1  0  0  0  0
  5 13  1  0  0  0  0
  6  7  1  0  0  0  0
  6  8  1  0  0  0  0
  6 12  1  0  0  0  0
  6 27  1  0  0  0  0
  7  9  1  0  0  0  0
  7 28  1  0  0  0  0
  7 29  1  0  0  0  0
  8 10  1  0  0  0  0
  8 30  1  0  0  0  0
  8 31  1  0  0  0  0
  9 11  1  0  0  0  0
  9 32  1  0  0  0  0
  9 33  1  0  0  0  0
 10 34  1  0  0  0  0
 10 35  1  0  0  0  0
 11 36  1  0  0  0  0
 11 37  1  0  0  0  0
 13 15  1  0  0  0  0
 14 16  1  0  0  0  0
 14 17  1  0  0  0  0
 14 18  1  0  0  0  0
 14 19  1  0  0  0  0
 15 38  1  0  0  0  0
 15 39  1  0  0  0  0
 16 21  2  0  0  0  0
 16 22  1  0  0  0  0
 17 43  1  0  0  0  0
 17 44  1  0  0  0  0
 17 45  1  0  0  0  0
 18 40  1  0  0  0  0
 18 41  1  0  0  0  0
 18 42  1  0  0  0  0
 19 46  1  0  0  0  0
 19 47  1  0  0  0  0
 19 48  1  0  0  0  0
 20 24  2  0  0  0  0
 20 25  1  0  0  0  0
 21 24  1  0  0  0  0
 21 49  1  0  0  0  0
 22 25  2  0  0  0  0
 22 50  1  0  0  0  0
 23 26  1  0  0  0  0
 23 51  1  0  0  0  0
 23 52  1  0  0  0  0
 24 53  1  0  0  0  0
 25 54  1  0  0  0  0
 26 55  1  0  0  0  0
 26 56  1  0  0  0  0
 26 57  1  0  0  0  0
M  END
> <PUBCHEM_COMPOUND_CID>
49786763

> <PUBCHEM_CONFORMER_RMSD>
1.2

> <PUBCHEM_CONFORMER_DIVERSEORDER>
9
85
121
101
65
41
29
112
47
93
60
20
115
45
116
55
50
11
35
96
49
76
117
98
27
87
10
59
107
77
102
104
100
51
120
88
6
52
103
125
63
90
108
23
62
114
73
5
92
30
44
16
1
33
53
81
86
80
111
83
61
95
69
18
110
78
54
106
105
32
91
113
99
75
24
39
7
21
4
126
119
66
2
13
67
25
97
40
72
8
58
124
56
26
46
79
123
37
19
38
42
109
71
12
57
14
74
89
82
28
84
34
15
70
43
94
68
122
17
22
36
64
48
118
31
3

> <PUBCHEM_MMFF94_PARTIAL_CHARGES>
23
1 -0.43
10 0.3
11 0.3
12 0.66
13 0.57
14 0.14
15 0.34
16 -0.14
2 -0.57
20 0.08
21 -0.15
22 -0.15
23 0.28
24 -0.15
25 -0.15
3 -0.36
4 -0.57
49 0.15
5 -0.66
50 0.15
53 0.15
54 0.15
6 0.06

> <PUBCHEM_EFFECTIVE_ROTOR_COUNT>
9.4

> <PUBCHEM_PHARMACOPHORE_FEATURES>
6
1 2 acceptor
1 3 acceptor
1 4 acceptor
4 14 17 18 19 hydrophobe
6 16 20 21 22 24 25 rings
7 5 6 7 8 9 10 11 rings

> <PUBCHEM_HEAVY_ATOM_COUNT>
26

> <PUBCHEM_ATOM_DEF_STEREO_COUNT>
0

> <PUBCHEM_ATOM_UDEF_STEREO_COUNT>
1

> <PUBCHEM_BOND_DEF_STEREO_COUNT>
0

> <PUBCHEM_BOND_UDEF_STEREO_COUNT>
0

> <PUBCHEM_ISOTOPIC_ATOM_COUNT>
0

> <PUBCHEM_COMPONENT_COUNT>
1

> <PUBCHEM_CACTVS_TAUTO_COUNT>
1

> <PUBCHEM_CONFORMER_ID>
02F7AF8B00000009

> <PUBCHEM_MMFF94_ENERGY>
72.5424

> <PUBCHEM_FEATURE_SELFOVERLAP>
30.464

> <PUBCHEM_SHAPE_FINGERPRINT>
10763959 59 18411142449969715060
11045977 3 18260833704252155163
11089746 13 18412540994627504135
11456790 92 18261395477674461209
11595378 159 15719664381756000535
12596602 18 14707219832872780069
12925494 130 18266172834729427409
13402501 40 18335417976047661748
13878862 14 18263343880771269684
14251764 38 18052534662385585196
14347332 77 10087643685188331267
14528608 73 18343863316739978199
14556957 393 16988847151553847761
15003188 100 18341891935150904349
15183329 4 18342176652944299393
15238133 3 18262801891207863484
15419008 47 18041556944910026892
15475509 84 17973713685058387466
18335252 114 18341044121106753023
20554085 129 16805594851408165033
21033648 29 18335698403590117202
21033650 10 14259978098113212082
21315763 129 18411982489975432643
21315763 76 18343865523857114329
21344244 78 18046323264014659154
21388113 180 18265895954766122257
21475661 188 18338796839930783692
21859007 373 16371835233254251311
21860390 5 18130232644264486876
22122407 14 18271255945497761185
22289505 5 18343025484610720364
23516275 137 13624664727497559880
23559900 14 18410293609808064475
2838139 119 18412538791688647621
33382 64 8574712412044183223
3459 39 16878211022827485551
34797466 226 17775294863301134879
3680242 22 18335985272476078544
4760202 170 18339908331183386525
5104073 3 17968104067149658939
53794403 172 18265055923413578093
58902169 19 17988630879587203719
8509985 295 18335696144547933210

> <PUBCHEM_SHAPE_MULTIPOLES>
506.61
16.99
3.5
1.24
21.25
3.61
0.28
3.09
0.43
-4.04
-0.86
-0.26
0.09
1.01

> <PUBCHEM_SHAPE_SELFOVERLAP>
1037.274

> <PUBCHEM_SHAPE_VOLUME>
289.3

> <PUBCHEM_COORDINATE_TYPE>
2
5
10

$$$$
