72813
  -OEChem-01171809323D

 21 22  0     0  0  0  0  0  0999 V2000
    3.4307    1.9473    0.1734 Cl  0  0  0  0  0  0  0  0  0  0  0  0
    4.4340   -1.1497   -0.2122 Cl  0  0  0  0  0  0  0  0  0  0  0  0
    0.5537    2.0400    0.3867 O   0  0  0  0  0  0  0  0  0  0  0  0
    0.0348   -0.2136    0.0047 N   0  0  0  0  0  0  0  0  0  0  0  0
    0.4992   -1.4986   -0.1254 N   0  0  0  0  0  0  0  0  0  0  0  0
   -1.4057   -0.1261   -0.0131 C   0  0  0  0  0  0  0  0  0  0  0  0
    0.8987    0.8803    0.1590 C   0  0  0  0  0  0  0  0  0  0  0  0
   -2.0287    1.0271   -0.4899 C   0  0  0  0  0  0  0  0  0  0  0  0
   -2.1748   -1.1954    0.4455 C   0  0  0  0  0  0  0  0  0  0  0  0
    2.3633    0.5922    0.0617 C   0  0  0  0  0  0  0  0  0  0  0  0
   -3.4209    1.1112   -0.5080 C   0  0  0  0  0  0  0  0  0  0  0  0
   -3.5671   -1.1116    0.4273 C   0  0  0  0  0  0  0  0  0  0  0  0
    2.8003   -0.6551   -0.0945 C   0  0  0  0  0  0  0  0  0  0  0  0
   -4.1901    0.0418   -0.0494 C   0  0  0  0  0  0  0  0  0  0  0  0
    1.7724   -1.6898   -0.1657 C   0  0  0  0  0  0  0  0  0  0  0  0
   -1.4666    1.8647   -0.8906 H   0  0  0  0  0  0  0  0  0  0  0  0
   -1.7217   -2.1022    0.8373 H   0  0  0  0  0  0  0  0  0  0  0  0
   -3.9066    2.0057   -0.8873 H   0  0  0  0  0  0  0  0  0  0  0  0
   -4.1664   -1.9429    0.7871 H   0  0  0  0  0  0  0  0  0  0  0  0
    2.1339   -2.7263   -0.2687 H   0  0  0  0  0  0  0  0  0  0  0  0
   -5.2741    0.1066   -0.0648 H   0  0  0  0  0  0  0  0  0  0  0  0
  1 10  1  0  0  0  0
  2 13  1  0  0  0  0
  3  7  2  0  0  0  0
  4  5  1  0  0  0  0
  4  6  1  0  0  0  0
  4  7  1  0  0  0  0
  5 15  2  0  0  0  0
  6  8  2  0  0  0  0
  6  9  1  0  0  0  0
  7 10  1  0  0  0  0
  8 11  1  0  0  0  0
  8 16  1  0  0  0  0
  9 12  2  0  0  0  0
  9 17  1  0  0  0  0
 10 13  2  0  0  0  0
 11 14  2  0  0  0  0
 11 18  1  0  0  0  0
 12 14  1  0  0  0  0
 12 19  1  0  0  0  0
 13 15  1  0  0  0  0
 14 21  1  0  0  0  0
 15 20  1  0  0  0  0
M  END
> <PUBCHEM_COMPOUND_CID>
72813

> <PUBCHEM_CONFORMER_RMSD>
0.4

> <PUBCHEM_CONFORMER_DIVERSEORDER>
1
2
3

> <PUBCHEM_MMFF94_PARTIAL_CHARGES>
21
1 -0.14
10 0.15
11 -0.15
12 -0.15
13 0.15
14 -0.15
15 0.38
16 0.15
17 0.15
18 0.15
19 0.15
2 -0.14
20 0.06
21 0.15
3 -0.57
4 -0.11
5 -0.51
6 0.12
7 0.62
8 -0.15
9 -0.15

> <PUBCHEM_EFFECTIVE_ROTOR_COUNT>
1

> <PUBCHEM_PHARMACOPHORE_FEATURES>
4
1 3 acceptor
1 5 acceptor
6 4 5 7 10 13 15 rings
6 6 8 9 11 12 14 rings

> <PUBCHEM_HEAVY_ATOM_COUNT>
15

> <PUBCHEM_ATOM_DEF_STEREO_COUNT>
0

> <PUBCHEM_ATOM_UDEF_STEREO_COUNT>
0

> <PUBCHEM_BOND_DEF_STEREO_COUNT>
0

> <PUBCHEM_BOND_UDEF_STEREO_COUNT>
0

> <PUBCHEM_ISOTOPIC_ATOM_COUNT>
0

> <PUBCHEM_COMPONENT_COUNT>
1

> <PUBCHEM_CACTVS_TAUTO_COUNT>
1

> <PUBCHEM_CONFORMER_ID>
00011C6D00000001

> <PUBCHEM_MMFF94_ENERGY>
50.3955

> <PUBCHEM_FEATURE_SELFOVERLAP>
20.297

> <PUBCHEM_SHAPE_FINGERPRINT>
10608611 8 18408036304025621309
10967382 1 18339079401249422584
10980938 120 18341331175414499930
11132069 177 18260543463394646005
11471102 20 18412822499378601452
11615757 297 18060423520976242259
12032990 46 18412268311364250742
124424 183 18335137566270027227
12654215 9 18411975845634788364
12932764 1 17489017258022418417
13296908 3 18412262839322519642
14144814 61 18410856551419113793
14252887 29 17846503586906893158
14325111 11 18409729590391715221
14415576 193 18408888442643001612
15196674 1 18410292535960375013
15219456 202 18408885156998184249
15442244 35 18196092136004659729
15536298 74 18342457062668594696
15775835 57 18200597024180169837
16945 1 18267027146077259784
17804303 29 18335706035340690095
17834074 16 18408041822963475635
18175812 5 18335421270186993799
18186145 218 18040149604417417932
200 152 17988917869296698815
20201158 50 18410293571237676763
20279233 1 18407760339502312459
20645477 56 18041277643977921885
20645477 70 18272087188577104070
21267235 1 18411428288665009223
21452121 103 18271796956895390952
21501502 16 18409728486875212023
221490 88 18336835285285444666
23402539 116 18272642407584020287
23402655 69 18341603777426822221
23463225 33 18409165506693424352
23557571 272 17458344096221835701
23559900 14 18337948975011675906
2748010 2 18410853291444107436
3312278 4 18337675200320223458
474 4 14708357900648767694
5104073 3 18409731776777872753
53812653 166 18270396217103267960
69090 78 18411695496324780647
7364860 26 18341612659176629320
77779 3 18408887347289080429
8809292 202 18260554428430478163
9709674 26 18263084469094714755

> <PUBCHEM_SHAPE_MULTIPOLES>
296.6
7.88
1.97
0.68
0.57
0.37
0.01
-0.51
0.27
-1.14
-0.08
0.11
0.02
0.68

> <PUBCHEM_SHAPE_SELFOVERLAP>
619.646

> <PUBCHEM_SHAPE_VOLUME>
168.4

> <PUBCHEM_COORDINATE_TYPE>
2
5
10

$$$$
