2809985
  -OEChem-01171809553D

 48 51  0     0  0  0  0  0  0999 V2000
   -8.5298    2.0587    1.0757 Cl  0  0  0  0  0  0  0  0  0  0  0  0
    8.3077    0.0432    1.8061 F   0  0  0  0  0  0  0  0  0  0  0  0
    7.9091   -1.8422    0.8112 F   0  0  0  0  0  0  0  0  0  0  0  0
    8.5834   -0.1277   -0.3440 F   0  0  0  0  0  0  0  0  0  0  0  0
    2.0039    0.5607   -2.4266 O   0  0  0  0  0  0  0  0  0  0  0  0
   -2.3479   -0.3197   -0.4679 N   0  0  0  0  0  0  0  0  0  0  0  0
    0.1735    0.8326   -1.0422 N   0  0  0  0  0  0  0  0  0  0  0  0
    2.3608    1.1075   -0.2011 N   0  0  0  0  0  0  0  0  0  0  0  0
   -5.9671   -2.2808    0.4858 N   0  0  0  0  0  0  0  0  0  0  0  0
   -1.7142   -0.5825   -1.7649 C   0  0  0  0  0  0  0  0  0  0  0  0
   -1.4326   -0.0060    0.6389 C   0  0  0  0  0  0  0  0  0  0  0  0
   -0.7698    0.5604   -2.1262 C   0  0  0  0  0  0  0  0  0  0  0  0
   -0.4706    1.1175    0.2467 C   0  0  0  0  0  0  0  0  0  0  0  0
   -3.5594   -0.9439   -0.1501 C   0  0  0  0  0  0  0  0  0  0  0  0
    1.5598    0.8075   -1.3023 C   0  0  0  0  0  0  0  0  0  0  0  0
   -4.7548   -0.2262    0.1449 C   0  0  0  0  0  0  0  0  0  0  0  0
   -3.6288   -2.3503   -0.1112 C   0  0  0  0  0  0  0  0  0  0  0  0
   -5.9337   -0.9350    0.4570 C   0  0  0  0  0  0  0  0  0  0  0  0
   -4.7558    1.1788    0.1240 C   0  0  0  0  0  0  0  0  0  0  0  0
   -4.8286   -2.9550    0.2047 C   0  0  0  0  0  0  0  0  0  0  0  0
   -7.0830   -0.2021    0.7400 C   0  0  0  0  0  0  0  0  0  0  0  0
    3.7034    0.7096    0.0176 C   0  0  0  0  0  0  0  0  0  0  0  0
   -5.9196    1.8865    0.4110 C   0  0  0  0  0  0  0  0  0  0  0  0
   -7.0844    1.1948    0.7193 C   0  0  0  0  0  0  0  0  0  0  0  0
    4.3929    1.1804    1.1322 C   0  0  0  0  0  0  0  0  0  0  0  0
    4.3270   -0.1501   -0.8832 C   0  0  0  0  0  0  0  0  0  0  0  0
    6.3419   -0.0723    0.4475 C   0  0  0  0  0  0  0  0  0  0  0  0
    5.7142    0.7888    1.3476 C   0  0  0  0  0  0  0  0  0  0  0  0
    5.6483   -0.5417   -0.6678 C   0  0  0  0  0  0  0  0  0  0  0  0
    7.7542   -0.4916    0.6775 C   0  0  0  0  0  0  0  0  0  0  0  0
   -2.4724   -0.6785   -2.5515 H   0  0  0  0  0  0  0  0  0  0  0  0
   -1.1576   -1.5267   -1.7164 H   0  0  0  0  0  0  0  0  0  0  0  0
   -0.8649   -0.9083    0.8995 H   0  0  0  0  0  0  0  0  0  0  0  0
   -1.9898    0.3032    1.5316 H   0  0  0  0  0  0  0  0  0  0  0  0
   -0.2479    0.3260   -3.0590 H   0  0  0  0  0  0  0  0  0  0  0  0
   -1.3384    1.4834   -2.2938 H   0  0  0  0  0  0  0  0  0  0  0  0
   -1.0186    2.0596    0.1252 H   0  0  0  0  0  0  0  0  0  0  0  0
    0.2437    1.2556    1.0583 H   0  0  0  0  0  0  0  0  0  0  0  0
   -2.7547   -2.9599   -0.3200 H   0  0  0  0  0  0  0  0  0  0  0  0
    1.9754    1.7013    0.5249 H   0  0  0  0  0  0  0  0  0  0  0  0
   -3.8610    1.7475   -0.1168 H   0  0  0  0  0  0  0  0  0  0  0  0
   -4.9131   -4.0360    0.2441 H   0  0  0  0  0  0  0  0  0  0  0  0
   -8.0019   -0.7347    0.9829 H   0  0  0  0  0  0  0  0  0  0  0  0
   -5.9022    2.9728    0.3894 H   0  0  0  0  0  0  0  0  0  0  0  0
    3.9148    1.8518    1.8409 H   0  0  0  0  0  0  0  0  0  0  0  0
    3.8315   -0.5751   -1.7471 H   0  0  0  0  0  0  0  0  0  0  0  0
    6.2379    1.1650    2.2221 H   0  0  0  0  0  0  0  0  0  0  0  0
    6.1274   -1.2189   -1.3700 H   0  0  0  0  0  0  0  0  0  0  0  0
  1 24  1  0  0  0  0
  2 30  1  0  0  0  0
  3 30  1  0  0  0  0
  4 30  1  0  0  0  0
  5 15  2  0  0  0  0
  6 10  1  0  0  0  0
  6 11  1  0  0  0  0
  6 14  1  0  0  0  0
  7 12  1  0  0  0  0
  7 13  1  0  0  0  0
  7 15  1  0  0  0  0
  8 15  1  0  0  0  0
  8 22  1  0  0  0  0
  8 40  1  0  0  0  0
  9 18  2  0  0  0  0
  9 20  1  0  0  0  0
 10 12  1  0  0  0  0
 10 31  1  0  0  0  0
 10 32  1  0  0  0  0
 11 13  1  0  0  0  0
 11 33  1  0  0  0  0
 11 34  1  0  0  0  0
 12 35  1  0  0  0  0
 12 36  1  0  0  0  0
 13 37  1  0  0  0  0
 13 38  1  0  0  0  0
 14 16  2  0  0  0  0
 14 17  1  0  0  0  0
 16 18  1  0  0  0  0
 16 19  1  0  0  0  0
 17 20  2  0  0  0  0
 17 39  1  0  0  0  0
 18 21  1  0  0  0  0
 19 23  2  0  0  0  0
 19 41  1  0  0  0  0
 20 42  1  0  0  0  0
 21 24  2  0  0  0  0
 21 43  1  0  0  0  0
 22 25  2  0  0  0  0
 22 26  1  0  0  0  0
 23 24  1  0  0  0  0
 23 44  1  0  0  0  0
 25 28  1  0  0  0  0
 25 45  1  0  0  0  0
 26 29  2  0  0  0  0
 26 46  1  0  0  0  0
 27 28  2  0  0  0  0
 27 29  1  0  0  0  0
 27 30  1  0  0  0  0
 28 47  1  0  0  0  0
 29 48  1  0  0  0  0
M  END
> <PUBCHEM_COMPOUND_CID>
2809985

> <PUBCHEM_CONFORMER_RMSD>
0.8

> <PUBCHEM_CONFORMER_DIVERSEORDER>
1
58
63
5
41
53
7
6
55
8
62
12
26
43
46
56
28
15
18
29
11
59
38
14
49
33
22
68
64
69
4
66
44
40
30
19
51
36
16
39
21
48
37
47
10
52
61
17
34
2
42
9
65
54
67
60
3
32
13
23
20
27
57
25
45
24
35
31
50

> <PUBCHEM_MMFF94_PARTIAL_CHARGES>
39
1 -0.18
10 0.37
11 0.37
12 0.3
13 0.3
14 0.1
15 0.69
17 -0.15
18 0.31
19 -0.15
2 -0.34
20 0.16
21 -0.15
22 0.12
23 -0.15
24 0.18
25 -0.15
26 -0.15
27 -0.14
28 -0.15
29 -0.15
3 -0.34
30 1.16
39 0.15
4 -0.34
40 0.37
41 0.15
42 0.15
43 0.15
44 0.15
45 0.15
46 0.15
47 0.15
48 0.15
5 -0.57
6 -0.84
7 -0.66
8 -0.55
9 -0.62

> <PUBCHEM_EFFECTIVE_ROTOR_COUNT>
6.2

> <PUBCHEM_PHARMACOPHORE_FEATURES>
8
1 5 acceptor
1 6 cation
1 8 donor
1 9 acceptor
6 16 18 19 21 23 24 rings
6 22 25 26 27 28 29 rings
6 6 7 10 11 12 13 rings
6 9 14 16 17 18 20 rings

> <PUBCHEM_HEAVY_ATOM_COUNT>
30

> <PUBCHEM_ATOM_DEF_STEREO_COUNT>
0

> <PUBCHEM_ATOM_UDEF_STEREO_COUNT>
0

> <PUBCHEM_BOND_DEF_STEREO_COUNT>
0

> <PUBCHEM_BOND_UDEF_STEREO_COUNT>
0

> <PUBCHEM_ISOTOPIC_ATOM_COUNT>
0

> <PUBCHEM_COMPONENT_COUNT>
1

> <PUBCHEM_CACTVS_TAUTO_COUNT>
2

> <PUBCHEM_CONFORMER_ID>
002AE08100000001

> <PUBCHEM_MMFF94_ENERGY>
98.8832

> <PUBCHEM_FEATURE_SELFOVERLAP>
40.628

> <PUBCHEM_SHAPE_FINGERPRINT>
10 15 17418091040570689120
10076449 9 13045951196449296085
10299344 5 17894915135406538476
10319926 262 18341902926183192023
10533779 47 17417547842835044902
11135926 11 18186792561436997627
11443803 9 11743832531100745180
11973863 73 17023455352893476664
12107183 9 18334018276856183309
12144603 126 18113346323352684732
12236239 1 17894918477223644733
12373685 5 17561073679988216103
12760667 363 16949998140582497229
12838862 33 15123499282024727978
13627175 4 16370718266330147715
13673619 4 16226044496499057060
14856354 85 15864076486075715699
15021287 119 17240770596851315669
15131766 46 17698994412906643128
15142383 8 17489867133909549512
15183329 4 15574708114782594168
15301273 46 17846787295709462812
15348495 7 18129379461268089137
15352257 5 18186516601514618074
17093844 174 17918274264613590515
17134984 74 12685087078251737984
20105231 36 13840270290861083465
21033648 29 17560791161223350889
21133410 32 15768621302037658029
21150785 3 8646768898001387604
21267235 1 15719113547937112500
21403212 168 16917347013804690244
21585481 151 18335422374674733354
21756936 100 18343581820973999341
21792938 703 16662059246718239082
21792961 116 13262391147135609632
21859007 373 18059019376214577165
22149856 69 18411697678711161400
22224240 67 15554446301763500100
2297311 6 10881398756162718311
23522609 53 17532399541400396092
23559900 14 18056508117742636487
23569943 247 16878209901392466899
246663 6 15213024842873324937
2838139 119 13326857746680058442
312425 54 18408600387639295506
3504750 166 18334852874948712543
397638 26 18060420222425826827
397830 11 17987231312400344992
4073 2 18335424629136535378
4403749 210 16629951256962193286
44389302 135 18262226730948160194
5104073 3 18043260226625230585
5219985 9 17458062668917442500
5381727 24 18334298674581774531
54039377 194 16008751298893028494
543368 44 12391522983846075031
5470011 282 13479132381140238898
559249 180 18335140912624615683
58260988 114 16516545438131573531
6009941 240 18342739620066657107
636775 72 17417819388422309425
636775 8 13479140072614283184
6371009 1 14405188386806212674
6691757 9 18411986867428335443
68570916 9 18266458891850128436
9953998 17 18412261736070000929
999808 66 15285361717301892385

> <PUBCHEM_SHAPE_MULTIPOLES>
571.64
27.14
2.06
1.51
25.12
0.99
0.72
-1.54
-13.22
-4.67
-0.54
1.48
-0.15
-0.15

> <PUBCHEM_SHAPE_SELFOVERLAP>
1238.577

> <PUBCHEM_SHAPE_VOLUME>
314.9

> <PUBCHEM_COORDINATE_TYPE>
2
5
10

$$$$
