998685
  -OEChem-01171809263D

 40 42  0     0  0  0  0  0  0999 V2000
    0.7324    2.7821   -0.6501 S   0  0  0  0  0  0  0  0  0  0  0  0
   -1.4429   -1.1837    0.4651 O   0  0  0  0  0  0  0  0  0  0  0  0
   -5.2611   -2.9174   -0.6534 O   0  5  0  0  0  0  0  0  0  0  0  0
   -3.0754   -2.7296   -0.5739 O   0  0  0  0  0  0  0  0  0  0  0  0
    1.1018    0.3087    0.0042 N   0  0  0  0  0  0  0  0  0  0  0  0
   -5.1985    1.0620    0.4720 N   0  0  0  0  0  0  0  0  0  0  0  0
   -1.1815    1.0647   -0.1420 N   0  0  0  0  0  0  0  0  0  0  0  0
   -3.8725    1.2671    0.5469 N   0  0  0  0  0  0  0  0  0  0  0  0
   -4.2258   -2.2257   -0.4452 N   0  3  0  0  0  0  0  0  0  0  0  0
    2.3446    0.8819   -0.1809 C   0  0  0  0  0  0  0  0  0  0  0  0
    3.5471    0.1171   -0.0052 C   0  0  0  0  0  0  0  0  0  0  0  0
    2.3468    2.2141   -0.5374 C   0  0  0  0  0  0  0  0  0  0  0  0
    0.1778    1.2173   -0.2160 C   0  0  0  0  0  0  0  0  0  0  0  0
   -3.3987    0.0818    0.2177 C   0  0  0  0  0  0  0  0  0  0  0  0
    4.1591    0.0577    1.2468 C   0  0  0  0  0  0  0  0  0  0  0  0
    4.1031   -0.5663   -1.0865 C   0  0  0  0  0  0  0  0  0  0  0  0
   -4.3553   -0.8797   -0.0664 C   0  0  0  0  0  0  0  0  0  0  0  0
    5.8833   -1.3688    0.3360 C   0  0  0  0  0  0  0  0  0  0  0  0
   -1.9369   -0.0950    0.1863 C   0  0  0  0  0  0  0  0  0  0  0  0
    5.3273   -0.6852    1.4173 C   0  0  0  0  0  0  0  0  0  0  0  0
    5.2712   -1.3093   -0.9159 C   0  0  0  0  0  0  0  0  0  0  0  0
   -5.5402   -0.2077    0.1090 C   0  0  0  0  0  0  0  0  0  0  0  0
    3.4708    3.1339   -0.8132 C   0  0  0  0  0  0  0  0  0  0  0  0
   -6.1079    2.1433    0.7665 C   0  0  0  0  0  0  0  0  0  0  0  0
    7.1317   -2.1636    0.5184 C   0  0  0  0  0  0  0  0  0  0  0  0
    3.7379    0.5842    2.1000 H   0  0  0  0  0  0  0  0  0  0  0  0
    3.6377   -0.5307   -2.0688 H   0  0  0  0  0  0  0  0  0  0  0  0
   -1.7074    1.9105   -0.3496 H   0  0  0  0  0  0  0  0  0  0  0  0
   -6.5732   -0.5140    0.0095 H   0  0  0  0  0  0  0  0  0  0  0  0
    5.7938   -0.7254    2.3981 H   0  0  0  0  0  0  0  0  0  0  0  0
    5.6937   -1.8391   -1.7656 H   0  0  0  0  0  0  0  0  0  0  0  0
    4.1240    3.2130    0.0623 H   0  0  0  0  0  0  0  0  0  0  0  0
    3.1376    4.1457   -1.0670 H   0  0  0  0  0  0  0  0  0  0  0  0
    4.0697    2.7646   -1.6524 H   0  0  0  0  0  0  0  0  0  0  0  0
   -5.9338    2.4684    1.7953 H   0  0  0  0  0  0  0  0  0  0  0  0
   -5.9105    2.9588    0.0664 H   0  0  0  0  0  0  0  0  0  0  0  0
   -7.1378    1.7956    0.6540 H   0  0  0  0  0  0  0  0  0  0  0  0
    6.8845   -3.1927    0.7975 H   0  0  0  0  0  0  0  0  0  0  0  0
    7.7653   -1.7306    1.3000 H   0  0  0  0  0  0  0  0  0  0  0  0
    7.7261   -2.1824   -0.4014 H   0  0  0  0  0  0  0  0  0  0  0  0
  1 12  1  0  0  0  0
  1 13  1  0  0  0  0
  2 19  2  0  0  0  0
  3  9  1  0  0  0  0
  4  9  2  0  0  0  0
  5 10  1  0  0  0  0
  5 13  2  0  0  0  0
  6  8  1  0  0  0  0
  6 22  1  0  0  0  0
  6 24  1  0  0  0  0
  7 13  1  0  0  0  0
  7 19  1  0  0  0  0
  7 28  1  0  0  0  0
  8 14  2  0  0  0  0
  9 17  1  0  0  0  0
 10 11  1  0  0  0  0
 10 12  2  0  0  0  0
 11 15  2  0  0  0  0
 11 16  1  0  0  0  0
 12 23  1  0  0  0  0
 14 17  1  0  0  0  0
 14 19  1  0  0  0  0
 15 20  1  0  0  0  0
 15 26  1  0  0  0  0
 16 21  2  0  0  0  0
 16 27  1  0  0  0  0
 17 22  2  0  0  0  0
 18 20  2  0  0  0  0
 18 21  1  0  0  0  0
 18 25  1  0  0  0  0
 20 30  1  0  0  0  0
 21 31  1  0  0  0  0
 22 29  1  0  0  0  0
 23 32  1  0  0  0  0
 23 33  1  0  0  0  0
 23 34  1  0  0  0  0
 24 35  1  0  0  0  0
 24 36  1  0  0  0  0
 24 37  1  0  0  0  0
 25 38  1  0  0  0  0
 25 39  1  0  0  0  0
 25 40  1  0  0  0  0
M  CHG  2   3  -1   9   1
M  END
> <PUBCHEM_COMPOUND_CID>
998685

> <PUBCHEM_CONFORMER_RMSD>
0.8

> <PUBCHEM_CONFORMER_DIVERSEORDER>
1
5
12
6
8
11
10
13
9
14
2
7
4
3

> <PUBCHEM_MMFF94_PARTIAL_CHARGES>
31
1 -0.08
10 0.17
11 0.05
12 -0.14
13 0.44
14 0.2
15 -0.15
16 -0.15
17 0.08
18 -0.14
19 0.72
2 -0.57
20 -0.15
21 -0.15
22 -0.3
23 0.18
24 0.26
25 0.14
26 0.15
27 0.15
28 0.37
29 0.15
3 -0.52
30 0.15
31 0.15
4 -0.52
5 -0.57
6 0.31
7 -0.49
8 -0.71
9 0.96

> <PUBCHEM_EFFECTIVE_ROTOR_COUNT>
5

> <PUBCHEM_PHARMACOPHORE_FEATURES>
9
1 2 acceptor
1 3 acceptor
1 3 anion
1 4 acceptor
1 7 donor
1 8 acceptor
5 1 5 10 12 13 rings
5 6 8 14 17 22 rings
6 11 15 16 18 20 21 rings

> <PUBCHEM_HEAVY_ATOM_COUNT>
25

> <PUBCHEM_ATOM_DEF_STEREO_COUNT>
0

> <PUBCHEM_ATOM_UDEF_STEREO_COUNT>
0

> <PUBCHEM_BOND_DEF_STEREO_COUNT>
0

> <PUBCHEM_BOND_UDEF_STEREO_COUNT>
0

> <PUBCHEM_ISOTOPIC_ATOM_COUNT>
0

> <PUBCHEM_COMPONENT_COUNT>
1

> <PUBCHEM_CACTVS_TAUTO_COUNT>
3

> <PUBCHEM_CONFORMER_ID>
000F3D1D00000001

> <PUBCHEM_MMFF94_ENERGY>
56.4534

> <PUBCHEM_FEATURE_SELFOVERLAP>
45.775

> <PUBCHEM_SHAPE_FINGERPRINT>
10595046 47 18194967567859796053
10622 236 18126550452405635607
11405975 8 18410578413632317001
11524674 6 17346311575081453343
11796584 16 18201720634890854490
12107183 9 18338521837628440201
12422481 6 17775564230501275006
12596602 18 18131345328345839866
12616971 3 18334299781612640025
12633257 1 18408325479583008949
13073987 5 18338238296730060561
13167823 11 18338236080484471439
13533116 47 18193836166057265827
13583140 156 16773790415894914905
1361 4 18120658199831201819
14117953 113 18340207375598979207
14118638 360 18194688283316270029
14211702 104 18191024706235738459
14251751 18 18202279246821831427
14347332 77 18198339749059071127
14420673 8 18410295774513922483
15183329 4 18259982656661469511
15188451 53 18059564823949179799
15196674 1 18338802320335550653
15250474 111 18340200911868961807
15348495 7 17917423254728285594
15537594 2 17968375650099157930
17492 89 18193277627125493363
17818456 19 18342184340762023601
17857418 61 18410009961461584671
18222031 100 18409733946132170544
19141452 34 18413388726339211711
19489759 90 17561082471685790257
20028762 73 18341609339294107958
20645477 70 18262236737324406588
20832881 197 18187088330075107424
21065198 48 18338800138508138037
21267235 1 18260272918919819345
21315763 178 18040992917362613730
23016692 55 18336555928349668140
23522609 53 18043843955061303092
23559900 14 18342172301646731816
3004659 81 18041003925727549612
312425 54 18201712930009527002
335352 9 18409168784001703277
338550 245 18342458187866098518
351380 3 18040434365392334866
397830 11 17488728095381445626
4073 2 17969793071153861448
463206 1 18113898256435917394
465052 167 18408329882547037894
5104073 3 18341620368722034681
559249 180 18411418393550800771
6058803 2 18195257839314871741
6138700 20 18262238820130642970
67856867 119 18340205322900711816
7970288 3 18335697205384522730
8863177 126 17532673397236264659
960060 61 17749114426175691956
9709674 26 18190748737332559363

> <PUBCHEM_SHAPE_MULTIPOLES>
475.82
17.38
3.17
1
1.55
0.53
-0.1
-9.09
-2.8
0.61
0.88
-0.88
-0.05
-2.03

> <PUBCHEM_SHAPE_SELFOVERLAP>
1022.279

> <PUBCHEM_SHAPE_VOLUME>
267.3

> <PUBCHEM_COORDINATE_TYPE>
2
5
10

$$$$
