646724
  -OEChem-01171809143D

 37 38  0     0  0  0  0  0  0999 V2000
    1.0738    0.4215   -0.6166 O   0  0  0  0  0  0  0  0  0  0  0  0
    1.3181   -1.1868    1.0306 O   0  0  0  0  0  0  0  0  0  0  0  0
   -5.2364   -1.1808   -0.9180 O   0  0  0  0  0  0  0  0  0  0  0  0
    3.1772   -0.4497   -0.1543 N   0  0  0  0  0  0  0  0  0  0  0  0
   -4.3504    0.4631    0.5211 N   0  0  0  0  0  0  0  0  0  0  0  0
    5.9498    0.3328    0.0288 C   0  0  0  0  0  0  0  0  0  0  0  0
    5.2843   -0.5077    1.1179 C   0  0  0  0  0  0  0  0  0  0  0  0
    4.9227    1.2038   -0.6937 C   0  0  0  0  0  0  0  0  0  0  0  0
    4.1177   -1.3155    0.5568 C   0  0  0  0  0  0  0  0  0  0  0  0
    3.7601    0.3678   -1.2234 C   0  0  0  0  0  0  0  0  0  0  0  0
    1.8158   -0.4697    0.1635 C   0  0  0  0  0  0  0  0  0  0  0  0
   -0.2949    0.4311   -0.3286 C   0  0  0  0  0  0  0  0  0  0  0  0
   -1.1160   -0.4320   -1.0145 C   0  0  0  0  0  0  0  0  0  0  0  0
   -0.7584    1.3045    0.6265 C   0  0  0  0  0  0  0  0  0  0  0  0
   -2.9849    0.4523    0.2351 C   0  0  0  0  0  0  0  0  0  0  0  0
   -2.4813   -0.4213   -0.7284 C   0  0  0  0  0  0  0  0  0  0  0  0
   -2.1234    1.3152    0.9127 C   0  0  0  0  0  0  0  0  0  0  0  0
   -5.3603   -0.3225   -0.0505 C   0  0  0  0  0  0  0  0  0  0  0  0
   -6.7137   -0.0058    0.5349 C   0  0  0  0  0  0  0  0  0  0  0  0
    6.7282    0.9648    0.4704 H   0  0  0  0  0  0  0  0  0  0  0  0
    6.4426   -0.3285   -0.6944 H   0  0  0  0  0  0  0  0  0  0  0  0
    6.0200   -1.1805    1.5719 H   0  0  0  0  0  0  0  0  0  0  0  0
    4.9188    0.1571    1.9105 H   0  0  0  0  0  0  0  0  0  0  0  0
    4.5389    1.9587    0.0039 H   0  0  0  0  0  0  0  0  0  0  0  0
    5.4034    1.7396   -1.5196 H   0  0  0  0  0  0  0  0  0  0  0  0
    4.4782   -2.0635   -0.1592 H   0  0  0  0  0  0  0  0  0  0  0  0
    3.6140   -1.8521    1.3670 H   0  0  0  0  0  0  0  0  0  0  0  0
    3.0145    1.0243   -1.6795 H   0  0  0  0  0  0  0  0  0  0  0  0
    4.1088   -0.3205   -2.0024 H   0  0  0  0  0  0  0  0  0  0  0  0
   -0.7217   -1.1102   -1.7647 H   0  0  0  0  0  0  0  0  0  0  0  0
   -0.0871    1.9761    1.1522 H   0  0  0  0  0  0  0  0  0  0  0  0
   -3.0847   -1.1174   -1.2942 H   0  0  0  0  0  0  0  0  0  0  0  0
   -2.5021    2.0014    1.6660 H   0  0  0  0  0  0  0  0  0  0  0  0
   -4.6392    1.1283    1.2355 H   0  0  0  0  0  0  0  0  0  0  0  0
   -6.7132   -0.2253    1.6062 H   0  0  0  0  0  0  0  0  0  0  0  0
   -7.4801   -0.6147    0.0473 H   0  0  0  0  0  0  0  0  0  0  0  0
   -6.9481    1.0508    0.3781 H   0  0  0  0  0  0  0  0  0  0  0  0
  1 11  1  0  0  0  0
  1 12  1  0  0  0  0
  2 11  2  0  0  0  0
  3 18  2  0  0  0  0
  4  9  1  0  0  0  0
  4 10  1  0  0  0  0
  4 11  1  0  0  0  0
  5 15  1  0  0  0  0
  5 18  1  0  0  0  0
  5 34  1  0  0  0  0
  6  7  1  0  0  0  0
  6  8  1  0  0  0  0
  6 20  1  0  0  0  0
  6 21  1  0  0  0  0
  7  9  1  0  0  0  0
  7 22  1  0  0  0  0
  7 23  1  0  0  0  0
  8 10  1  0  0  0  0
  8 24  1  0  0  0  0
  8 25  1  0  0  0  0
  9 26  1  0  0  0  0
  9 27  1  0  0  0  0
 10 28  1  0  0  0  0
 10 29  1  0  0  0  0
 12 13  2  0  0  0  0
 12 14  1  0  0  0  0
 13 16  1  0  0  0  0
 13 30  1  0  0  0  0
 14 17  2  0  0  0  0
 14 31  1  0  0  0  0
 15 16  2  0  0  0  0
 15 17  1  0  0  0  0
 16 32  1  0  0  0  0
 17 33  1  0  0  0  0
 18 19  1  0  0  0  0
 19 35  1  0  0  0  0
 19 36  1  0  0  0  0
 19 37  1  0  0  0  0
M  END
> <PUBCHEM_COMPOUND_CID>
646724

> <PUBCHEM_CONFORMER_RMSD>
0.8

> <PUBCHEM_CONFORMER_DIVERSEORDER>
1
11
19
15
23
21
7
14
6
10
17
13
4
5
12
2
8
20
9
18
22
3
16

> <PUBCHEM_MMFF94_PARTIAL_CHARGES>
21
1 -0.23
10 0.3
11 0.78
12 0.08
13 -0.15
14 -0.15
15 0.12
16 -0.15
17 -0.15
18 0.57
19 0.06
2 -0.57
3 -0.57
30 0.15
31 0.15
32 0.15
33 0.15
34 0.37
4 -0.66
5 -0.55
9 0.3

> <PUBCHEM_EFFECTIVE_ROTOR_COUNT>
6.2

> <PUBCHEM_PHARMACOPHORE_FEATURES>
5
1 2 acceptor
1 3 acceptor
1 5 donor
6 12 13 14 15 16 17 rings
6 4 6 7 8 9 10 rings

> <PUBCHEM_HEAVY_ATOM_COUNT>
19

> <PUBCHEM_ATOM_DEF_STEREO_COUNT>
0

> <PUBCHEM_ATOM_UDEF_STEREO_COUNT>
0

> <PUBCHEM_BOND_DEF_STEREO_COUNT>
0

> <PUBCHEM_BOND_UDEF_STEREO_COUNT>
0

> <PUBCHEM_ISOTOPIC_ATOM_COUNT>
0

> <PUBCHEM_COMPONENT_COUNT>
1

> <PUBCHEM_CACTVS_TAUTO_COUNT>
2

> <PUBCHEM_CONFORMER_ID>
0009DE4400000001

> <PUBCHEM_MMFF94_ENERGY>
45.6608

> <PUBCHEM_FEATURE_SELFOVERLAP>
25.371

> <PUBCHEM_SHAPE_FINGERPRINT>
106641 1 17561079246265616611
10968037 39 18343584062076450725
11287383 113 16732987548057105965
12107183 9 17618786851386262466
12236239 1 18410293601154540516
12390115 104 16342877434099245793
12916748 109 17489309668170403264
13533116 47 18334009463604267810
1420 363 16515405161892718315
14251718 22 18202566193681530253
14251764 18 18413673522401730587
14341114 176 14261635044993070915
14848160 23 16443067200794935153
15048467 5 16128654167489303816
15183329 4 8358261453356482323
17492 89 18120651332357583850
17834072 33 18410855477424153589
17834072 8 11097856289274107472
19489759 90 13984659244077522943
200 152 17894347761468127197
20279233 1 15791738477174213408
20645477 56 15769766953274740516
20645477 70 17385719154664263130
21065198 48 18338519629977878528
21267235 1 18411987927694199278
22079108 93 18335417997880681210
2297311 6 16988572298572473488
23035841 295 18202566172481156183
23402539 116 17918268758301837605
23536379 177 17603584110826777917
23557571 272 17131845239641318656
23559900 14 13551484665594894726
26918003 58 17676491652574095929
3014965 18 12535359960577195772
347723 3 12901546836815042901
34797466 226 17346606304722955492
351380 180 15140681392954822348
3545911 37 16773799190987860836
42630746 31 18040435478131950554
4325135 7 18409730664418278542
4340502 62 17603587434598877746
4463277 17 18202847656169179249
474 4 18190466146245341196
5104073 3 17273984531996361586
5283173 99 15647320906305194759
5374978 207 18272930518775742040
7495541 125 17917988408253176136

> <PUBCHEM_SHAPE_MULTIPOLES>
363.44
15.36
1.19
1.08
5.05
0.07
0.04
-1.27
-1.14
-0.29
-0.13
-0.42
-0.04
-1.28

> <PUBCHEM_SHAPE_SELFOVERLAP>
754.737

> <PUBCHEM_SHAPE_VOLUME>
204.9

> <PUBCHEM_COORDINATE_TYPE>
2
5
10

$$$$
