1330547
  -OEChem-01171809303D

 41 42  0     0  0  0  0  0  0999 V2000
   -1.6523   -2.6424    0.0503 S   0  0  0  0  0  0  0  0  0  0  0  0
   -0.1451    2.1143   -0.6303 S   0  0  0  0  0  0  0  0  0  0  0  0
   -6.6785    0.7342   -0.1197 O   0  0  0  0  0  0  0  0  0  0  0  0
    2.5480   -1.6139    0.1955 O   0  0  0  0  0  0  0  0  0  0  0  0
   -5.0152    0.2286    1.3960 O   0  0  0  0  0  0  0  0  0  0  0  0
   -2.3415   -0.2524   -0.6535 N   0  0  0  0  0  0  0  0  0  0  0  0
    0.0017   -0.6293   -0.2393 N   0  0  0  0  0  0  0  0  0  0  0  0
    1.9881    0.6228   -0.2235 N   0  0  0  0  0  0  0  0  0  0  0  0
   -4.7744   -0.3834   -0.9493 C   0  0  0  0  0  0  0  0  0  0  0  0
   -3.4873   -1.0226   -0.6121 C   0  0  0  0  0  0  0  0  0  0  0  0
    4.3057   -0.0734    0.0993 C   0  0  0  0  0  0  0  0  0  0  0  0
    7.0080    0.6120    0.2018 C   0  0  0  0  0  0  0  0  0  0  0  0
   -1.3414   -1.0100   -0.3245 C   0  0  0  0  0  0  0  0  0  0  0  0
    4.7739    1.0269   -0.6189 C   0  0  0  0  0  0  0  0  0  0  0  0
    5.1886   -0.8310    0.8688 C   0  0  0  0  0  0  0  0  0  0  0  0
    6.1250    1.3695   -0.5677 C   0  0  0  0  0  0  0  0  0  0  0  0
    6.5398   -0.4883    0.9200 C   0  0  0  0  0  0  0  0  0  0  0  0
   -3.3137   -2.3424   -0.2515 C   0  0  0  0  0  0  0  0  0  0  0  0
    2.8972   -0.4314    0.0442 C   0  0  0  0  0  0  0  0  0  0  0  0
   -5.4721    0.2159    0.2610 C   0  0  0  0  0  0  0  0  0  0  0  0
    8.4526    0.9786    0.2578 C   0  0  0  0  0  0  0  0  0  0  0  0
    0.5864    0.6234   -0.3761 C   0  0  0  0  0  0  0  0  0  0  0  0
   -7.4482    1.3366    0.9260 C   0  0  0  0  0  0  0  0  0  0  0  0
   -8.7456    1.8578    0.3456 C   0  0  0  0  0  0  0  0  0  0  0  0
   -4.6081    0.4208   -1.6754 H   0  0  0  0  0  0  0  0  0  0  0  0
   -5.4491   -1.1196   -1.4017 H   0  0  0  0  0  0  0  0  0  0  0  0
    4.1318    1.6229   -1.2605 H   0  0  0  0  0  0  0  0  0  0  0  0
    4.8428   -1.6895    1.4386 H   0  0  0  0  0  0  0  0  0  0  0  0
    6.4801    2.2231   -1.1392 H   0  0  0  0  0  0  0  0  0  0  0  0
    7.2181   -1.0866    1.5225 H   0  0  0  0  0  0  0  0  0  0  0  0
   -4.0563   -3.1216   -0.1523 H   0  0  0  0  0  0  0  0  0  0  0  0
    0.6178   -1.4043   -0.0136 H   0  0  0  0  0  0  0  0  0  0  0  0
    8.8901    0.7130    1.2262 H   0  0  0  0  0  0  0  0  0  0  0  0
    9.0033    0.4568   -0.5311 H   0  0  0  0  0  0  0  0  0  0  0  0
    8.5922    2.0573    0.1287 H   0  0  0  0  0  0  0  0  0  0  0  0
    2.3789    1.5585   -0.2838 H   0  0  0  0  0  0  0  0  0  0  0  0
   -6.8810    2.1640    1.3666 H   0  0  0  0  0  0  0  0  0  0  0  0
   -7.6619    0.5896    1.6986 H   0  0  0  0  0  0  0  0  0  0  0  0
   -9.3602    2.3259    1.1197 H   0  0  0  0  0  0  0  0  0  0  0  0
   -8.5478    2.5929   -0.4415 H   0  0  0  0  0  0  0  0  0  0  0  0
   -9.3159    1.0445   -0.1151 H   0  0  0  0  0  0  0  0  0  0  0  0
  1 13  1  0  0  0  0
  1 18  1  0  0  0  0
  2 22  2  0  0  0  0
  3 20  1  0  0  0  0
  3 23  1  0  0  0  0
  4 19  2  0  0  0  0
  5 20  2  0  0  0  0
  6 10  1  0  0  0  0
  6 13  2  0  0  0  0
  7 13  1  0  0  0  0
  7 22  1  0  0  0  0
  7 32  1  0  0  0  0
  8 19  1  0  0  0  0
  8 22  1  0  0  0  0
  8 36  1  0  0  0  0
  9 10  1  0  0  0  0
  9 20  1  0  0  0  0
  9 25  1  0  0  0  0
  9 26  1  0  0  0  0
 10 18  2  0  0  0  0
 11 14  2  0  0  0  0
 11 15  1  0  0  0  0
 11 19  1  0  0  0  0
 12 16  2  0  0  0  0
 12 17  1  0  0  0  0
 12 21  1  0  0  0  0
 14 16  1  0  0  0  0
 14 27  1  0  0  0  0
 15 17  2  0  0  0  0
 15 28  1  0  0  0  0
 16 29  1  0  0  0  0
 17 30  1  0  0  0  0
 18 31  1  0  0  0  0
 21 33  1  0  0  0  0
 21 34  1  0  0  0  0
 21 35  1  0  0  0  0
 23 24  1  0  0  0  0
 23 37  1  0  0  0  0
 23 38  1  0  0  0  0
 24 39  1  0  0  0  0
 24 40  1  0  0  0  0
 24 41  1  0  0  0  0
M  END
> <PUBCHEM_COMPOUND_CID>
1330547

> <PUBCHEM_CONFORMER_RMSD>
1

> <PUBCHEM_CONFORMER_DIVERSEORDER>
1
23
62
45
9
32
58
53
24
42
59
55
21
30
34
13
36
60
40
26
41
18
47
39
5
44
49
25
35
54
46
61
14
11
57
4
20
16
63
50
43
15
12
52
51
2
6
10
17
29
7
37
56
22
38
31
48
27
19
33
28
3
8

> <PUBCHEM_MMFF94_PARTIAL_CHARGES>
30
1 -0.08
10 0.05
11 0.09
12 -0.14
13 0.44
14 -0.15
15 -0.15
16 -0.15
17 -0.15
18 -0.11
19 0.54
2 -0.38
20 0.66
21 0.14
22 0.5
23 0.28
27 0.15
28 0.15
29 0.15
3 -0.43
30 0.15
31 0.15
32 0.37
36 0.37
4 -0.57
5 -0.57
6 -0.57
7 -0.49
8 -0.49
9 0.24

> <PUBCHEM_EFFECTIVE_ROTOR_COUNT>
9

> <PUBCHEM_PHARMACOPHORE_FEATURES>
8
1 2 acceptor
1 4 acceptor
1 5 acceptor
1 7 donor
1 8 donor
3 6 7 13 cation
5 1 6 10 13 18 rings
6 11 12 14 15 16 17 rings

> <PUBCHEM_HEAVY_ATOM_COUNT>
24

> <PUBCHEM_ATOM_DEF_STEREO_COUNT>
0

> <PUBCHEM_ATOM_UDEF_STEREO_COUNT>
0

> <PUBCHEM_BOND_DEF_STEREO_COUNT>
0

> <PUBCHEM_BOND_UDEF_STEREO_COUNT>
0

> <PUBCHEM_ISOTOPIC_ATOM_COUNT>
0

> <PUBCHEM_COMPONENT_COUNT>
1

> <PUBCHEM_CACTVS_TAUTO_COUNT>
8

> <PUBCHEM_CONFORMER_ID>
00144D7300000001

> <PUBCHEM_MMFF94_ENERGY>
51.0687

> <PUBCHEM_FEATURE_SELFOVERLAP>
40.637

> <PUBCHEM_SHAPE_FINGERPRINT>
10 15 18186804669249692995
10299344 5 18334011717876457406
106641 1 18186806890264951299
10906281 52 18337966657022729638
11089746 13 17632292410476876504
11135926 11 18187070759522414662
11315181 36 17275107270696147163
12236239 1 18261670476273024974
12838862 33 18339911642175338081
13073987 5 15647601273069669776
13668630 136 12324232850656174682
13673619 4 12757153489519635319
14251764 18 18409447012014714999
15183329 4 18411131454731884022
15461852 350 17203322347748357005
155225 1 18059576846639048241
15690457 1 8214141850217932232
1577012 14 18412820287507763551
16087824 20 18337954494229930269
17093844 174 18201999979590212123
18335252 98 13117998890550592944
19489759 90 16845576434971988899
20554085 129 17489577935817451251
20621476 66 18411421713365146983
21150785 3 11959730469208016296
21298829 104 18272093747794128633
21304253 13 18341330067245203836
21403212 168 18335981987764846631
21591340 7 18411134737252670509
220451 1 17967528004613544330
22224240 67 17675927586836740571
23559900 14 18266448979424188312
246663 6 12973607724876680489
335352 9 18410570712935108757
3633792 109 13973970891427919707
4073 2 17750516351009757138
4325135 7 18334574651441229044
4340502 62 16298100987099719746
5104073 3 18188485912174483890
5385378 56 18337674101468582771
54039377 194 9294993680125535617
6009941 240 17748831830238800169
6328613 192 18341897436629990280
7226269 152 18202283593871924113
9953998 17 16732707156150678113

> <PUBCHEM_SHAPE_MULTIPOLES>
469.06
24.83
2.15
0.92
3.88
0.65
0.1
-13.47
6.09
2.31
-0.11
0.38
-0.07
-1.6

> <PUBCHEM_SHAPE_SELFOVERLAP>
956.188

> <PUBCHEM_SHAPE_VOLUME>
274

> <PUBCHEM_COORDINATE_TYPE>
2
5
10

$$$$
