1519056
  -OEChem-01171809393D

 38 40  0     0  0  0  0  0  0999 V2000
   -1.3961   -0.5164   -0.7494 S   0  0  0  0  0  0  0  0  0  0  0  0
    6.2679    1.6544    0.2409 F   0  0  0  0  0  0  0  0  0  0  0  0
   -4.8638    3.8368   -0.0184 F   0  0  0  0  0  0  0  0  0  0  0  0
    2.1974   -2.8188   -0.5507 O   0  0  0  0  0  0  0  0  0  0  0  0
   -2.2883   -3.9572    0.6371 O   0  0  0  0  0  0  0  0  0  0  0  0
   -3.4979   -2.6904   -0.8766 O   0  0  0  0  0  0  0  0  0  0  0  0
    1.2431   -0.7049   -0.1186 N   0  0  0  0  0  0  0  0  0  0  0  0
    0.0501    1.3325    0.3548 N   0  0  0  0  0  0  0  0  0  0  0  0
    2.5521   -0.0901   -0.0251 C   0  0  0  0  0  0  0  0  0  0  0  0
    0.0996    0.1254   -0.1079 C   0  0  0  0  0  0  0  0  0  0  0  0
    1.2229   -2.1098   -0.2910 C   0  0  0  0  0  0  0  0  0  0  0  0
    3.6081   -0.8134    0.5098 C   0  0  0  0  0  0  0  0  0  0  0  0
    2.7281    1.2111   -0.4721 C   0  0  0  0  0  0  0  0  0  0  0  0
   -0.0893   -2.7913   -0.1519 C   0  0  0  0  0  0  0  0  0  0  0  0
   -1.2478   -2.1656   -0.3477 C   0  0  0  0  0  0  0  0  0  0  0  0
   -1.1979    1.9686    0.2599 C   0  0  0  0  0  0  0  0  0  0  0  0
    4.8683   -0.2217    0.5999 C   0  0  0  0  0  0  0  0  0  0  0  0
    3.9880    1.8028   -0.3818 C   0  0  0  0  0  0  0  0  0  0  0  0
    5.0581    1.0863    0.1543 C   0  0  0  0  0  0  0  0  0  0  0  0
   -2.1146    1.8526    1.3013 C   0  0  0  0  0  0  0  0  0  0  0  0
   -1.5116    2.7120   -0.8747 C   0  0  0  0  0  0  0  0  0  0  0  0
   -2.4824   -2.9456   -0.2471 C   0  0  0  0  0  0  0  0  0  0  0  0
   -3.3547    2.4847    1.2071 C   0  0  0  0  0  0  0  0  0  0  0  0
   -2.7516    3.3438   -0.9690 C   0  0  0  0  0  0  0  0  0  0  0  0
   -3.6732    3.2300    0.0719 C   0  0  0  0  0  0  0  0  0  0  0  0
   -3.4143   -4.8160    0.8450 C   0  0  0  0  0  0  0  0  0  0  0  0
    3.5030   -1.7978    0.9527 H   0  0  0  0  0  0  0  0  0  0  0  0
    1.9528    1.7859   -0.9666 H   0  0  0  0  0  0  0  0  0  0  0  0
   -0.0186   -3.8585    0.0384 H   0  0  0  0  0  0  0  0  0  0  0  0
    5.6979   -0.7717    1.0346 H   0  0  0  0  0  0  0  0  0  0  0  0
    4.1409    2.8153   -0.7440 H   0  0  0  0  0  0  0  0  0  0  0  0
   -1.8746    1.2772    2.1917 H   0  0  0  0  0  0  0  0  0  0  0  0
   -0.7987    2.8098   -1.6894 H   0  0  0  0  0  0  0  0  0  0  0  0
   -4.0720    2.3971    2.0177 H   0  0  0  0  0  0  0  0  0  0  0  0
   -2.9995    3.9249   -1.8523 H   0  0  0  0  0  0  0  0  0  0  0  0
   -4.2566   -4.2451    1.2473 H   0  0  0  0  0  0  0  0  0  0  0  0
   -3.6929   -5.3081   -0.0918 H   0  0  0  0  0  0  0  0  0  0  0  0
   -3.1290   -5.5808    1.5722 H   0  0  0  0  0  0  0  0  0  0  0  0
  1 10  1  0  0  0  0
  1 15  1  0  0  0  0
  2 19  1  0  0  0  0
  3 25  1  0  0  0  0
  4 11  2  0  0  0  0
  5 22  1  0  0  0  0
  5 26  1  0  0  0  0
  6 22  2  0  0  0  0
  7  9  1  0  0  0  0
  7 10  1  0  0  0  0
  7 11  1  0  0  0  0
  8 10  2  0  0  0  0
  8 16  1  0  0  0  0
  9 12  2  0  0  0  0
  9 13  1  0  0  0  0
 11 14  1  0  0  0  0
 12 17  1  0  0  0  0
 12 27  1  0  0  0  0
 13 18  2  0  0  0  0
 13 28  1  0  0  0  0
 14 15  2  0  0  0  0
 14 29  1  0  0  0  0
 15 22  1  0  0  0  0
 16 20  2  0  0  0  0
 16 21  1  0  0  0  0
 17 19  2  0  0  0  0
 17 30  1  0  0  0  0
 18 19  1  0  0  0  0
 18 31  1  0  0  0  0
 20 23  1  0  0  0  0
 20 32  1  0  0  0  0
 21 24  2  0  0  0  0
 21 33  1  0  0  0  0
 23 25  2  0  0  0  0
 23 34  1  0  0  0  0
 24 25  1  0  0  0  0
 24 35  1  0  0  0  0
 26 36  1  0  0  0  0
 26 37  1  0  0  0  0
 26 38  1  0  0  0  0
M  END
> <PUBCHEM_COMPOUND_CID>
1519056

> <PUBCHEM_CONFORMER_RMSD>
0.8

> <PUBCHEM_CONFORMER_DIVERSEORDER>
1
3
4
2

> <PUBCHEM_MMFF94_PARTIAL_CHARGES>
35
1 -0.24
10 0.65
11 0.62
12 -0.15
13 -0.15
14 -0.14
15 0.12
16 0.18
17 -0.15
18 -0.15
19 0.19
2 -0.19
20 -0.15
21 -0.15
22 0.71
23 -0.15
24 -0.15
25 0.19
26 0.28
27 0.15
28 0.15
29 0.15
3 -0.19
30 0.15
31 0.15
32 0.15
33 0.15
34 0.15
35 0.15
4 -0.57
5 -0.43
6 -0.57
7 -0.24
8 -0.63
9 0.12

> <PUBCHEM_EFFECTIVE_ROTOR_COUNT>
4

> <PUBCHEM_PHARMACOPHORE_FEATURES>
5
1 4 acceptor
1 6 acceptor
6 1 7 10 11 14 15 rings
6 16 20 21 23 24 25 rings
6 9 12 13 17 18 19 rings

> <PUBCHEM_HEAVY_ATOM_COUNT>
26

> <PUBCHEM_ATOM_DEF_STEREO_COUNT>
0

> <PUBCHEM_ATOM_UDEF_STEREO_COUNT>
0

> <PUBCHEM_BOND_DEF_STEREO_COUNT>
0

> <PUBCHEM_BOND_UDEF_STEREO_COUNT>
0

> <PUBCHEM_ISOTOPIC_ATOM_COUNT>
0

> <PUBCHEM_COMPONENT_COUNT>
1

> <PUBCHEM_CACTVS_TAUTO_COUNT>
1

> <PUBCHEM_CONFORMER_ID>
00172DD000000001

> <PUBCHEM_MMFF94_ENERGY>
106.6802

> <PUBCHEM_FEATURE_SELFOVERLAP>
25.373

> <PUBCHEM_SHAPE_FINGERPRINT>
10050765 1 18410292515646250370
10074138 170 18264467585886741531
10090160 65 18051965923154462917
10411042 1 17906172102602772335
10670039 82 18266191702715307988
10688039 33 18120938566294341339
1100329 8 18051409574592207858
11582403 64 16302294378108030605
12107183 9 18119798124588298338
12788726 201 18191577752247523178
13004483 165 18051408762463048202
13052359 8 18411136922441705129
13140716 1 18196093480725049259
13149001 5 17626133878626112798
13540713 4 18202573873995925654
13540713 5 18186518839614123860
13583140 156 16878780474881572192
1361 2 18193273001725478965
138480 1 16897645684868730199
13955234 65 17545890330630936625
14028597 1 17677317428856865635
14363568 33 17254843490777229395
14713325 29 18410575123507987514
14790565 3 18196089941683014469
14866123 147 18410290281161171314
15131766 46 15193020504701171192
16728300 4 16307377300241623418
17138139 8 17769895136032974749
19301679 30 18337114583020432194
19319366 153 17982156839291038509
19427546 62 18194683670416152113
204376 136 18268710511106576832
20642791 105 18339072796143823928
20739085 24 17763480799448989043
21033648 29 18122891054744793040
21041028 32 18051133893267487991
21049683 271 17250337670414429543
21236236 1 18342174496954813692
21641784 216 18118697736075037588
2255824 54 17621600510416388949
23227448 37 18411418388934327220
23558518 356 18260834817149805834
23845131 108 18265051341178598137
283562 15 18338791346551911858
350125 39 18268710679127233696
3886686 26 17976785772271092554
469060 322 18193290795109705498
474 4 18125436406518371280
5080951 261 15984242167784029958
5104073 3 18339630214732931752
5171179 24 17486192698571419201
59755656 520 18338231540546011756
621550 34 17830180099990189965
633830 44 17485091795342817645
7164475 11 18337391664413247662
7399639 24 17900828150149156917
7808743 9 18410291411391704264
9777508 108 18411697677503132696

> <PUBCHEM_SHAPE_MULTIPOLES>
496.8
9.45
6.11
0.96
10.99
3.87
-0.09
-5.42
-1.33
-10.53
-0.31
-0.56
-0.2
0.14

> <PUBCHEM_SHAPE_SELFOVERLAP>
1076.756

> <PUBCHEM_SHAPE_VOLUME>
274.6

> <PUBCHEM_COORDINATE_TYPE>
2
5
10

$$$$
