9580204
  -OEChem-01171809473D

 28 29  0     0  0  0  0  0  0999 V2000
    3.3710   -1.1891    0.1435 S   0  0  0  0  0  0  0  0  0  0  0  0
   -2.4162    2.0499   -0.2248 O   0  0  0  0  0  0  0  0  0  0  0  0
    6.8962    0.3838   -0.0014 O   0  5  0  0  0  0  0  0  0  0  0  0
    6.2172   -1.6901    0.2381 O   0  0  0  0  0  0  0  0  0  0  0  0
   -1.4003   -0.0223   -0.0418 N   0  0  0  0  0  0  0  0  0  0  0  0
   -0.1573    0.5127   -0.0933 N   0  0  0  0  0  0  0  0  0  0  0  0
    5.9618   -0.4617    0.0890 N   0  3  0  0  0  0  0  0  0  0  0  0
   -3.8220    0.1805   -0.0326 C   0  0  0  0  0  0  0  0  0  0  0  0
    2.2145    0.0332   -0.0156 C   0  0  0  0  0  0  0  0  0  0  0  0
    2.7167    1.2772   -0.1556 C   0  0  0  0  0  0  0  0  0  0  0  0
    4.6282   -0.0326    0.0238 C   0  0  0  0  0  0  0  0  0  0  0  0
    4.1410    1.2463   -0.1335 C   0  0  0  0  0  0  0  0  0  0  0  0
   -4.9148    0.8949    0.4586 C   0  0  0  0  0  0  0  0  0  0  0  0
   -3.9824   -1.1420   -0.4465 C   0  0  0  0  0  0  0  0  0  0  0  0
   -2.5159    0.8145   -0.1136 C   0  0  0  0  0  0  0  0  0  0  0  0
   -6.1678    0.2869    0.5361 C   0  0  0  0  0  0  0  0  0  0  0  0
   -5.2355   -1.7499   -0.3690 C   0  0  0  0  0  0  0  0  0  0  0  0
    0.7939   -0.3569    0.0165 C   0  0  0  0  0  0  0  0  0  0  0  0
   -6.3282   -1.0353    0.1223 C   0  0  0  0  0  0  0  0  0  0  0  0
    2.1302    2.1799   -0.2689 H   0  0  0  0  0  0  0  0  0  0  0  0
    4.7655    2.1260   -0.2293 H   0  0  0  0  0  0  0  0  0  0  0  0
   -4.8102    1.9247    0.7900 H   0  0  0  0  0  0  0  0  0  0  0  0
   -3.1650   -1.7243   -0.8616 H   0  0  0  0  0  0  0  0  0  0  0  0
   -7.0185    0.8427    0.9193 H   0  0  0  0  0  0  0  0  0  0  0  0
   -5.3625   -2.7774   -0.6973 H   0  0  0  0  0  0  0  0  0  0  0  0
    0.5756   -1.4352    0.1397 H   0  0  0  0  0  0  0  0  0  0  0  0
   -7.3041   -1.5083    0.1814 H   0  0  0  0  0  0  0  0  0  0  0  0
   -1.4681   -1.0249    0.0992 H   0  0  0  0  0  0  0  0  0  0  0  0
  1  9  1  0  0  0  0
  1 11  1  0  0  0  0
  2 15  2  0  0  0  0
  3  7  1  0  0  0  0
  4  7  2  0  0  0  0
  5  6  1  0  0  0  0
  5 15  1  0  0  0  0
  5 28  1  0  0  0  0
  6 18  2  0  0  0  0
  7 11  1  0  0  0  0
  8 13  2  0  0  0  0
  8 14  1  0  0  0  0
  8 15  1  0  0  0  0
  9 10  2  0  0  0  0
  9 18  1  0  0  0  0
 10 12  1  0  0  0  0
 10 20  1  0  0  0  0
 11 12  2  0  0  0  0
 12 21  1  0  0  0  0
 13 16  1  0  0  0  0
 13 22  1  0  0  0  0
 14 17  2  0  0  0  0
 14 23  1  0  0  0  0
 16 19  2  0  0  0  0
 16 24  1  0  0  0  0
 17 19  1  0  0  0  0
 17 25  1  0  0  0  0
 18 26  1  0  0  0  0
 19 27  1  0  0  0  0
M  CHG  2   3  -1   7   1
M  END
> <PUBCHEM_COMPOUND_CID>
9580204

> <PUBCHEM_CONFORMER_RMSD>
0.6

> <PUBCHEM_CONFORMER_DIVERSEORDER>
1
11
6
10
8
3
9
4
7
5
2

> <PUBCHEM_MMFF94_PARTIAL_CHARGES>
28
1 -0.08
10 -0.15
11 0.12
12 -0.15
13 -0.15
14 -0.15
15 0.54
16 -0.15
17 -0.15
18 0.47
19 -0.15
2 -0.57
20 0.15
21 0.15
22 0.15
23 0.15
24 0.15
25 0.15
26 0.06
27 0.15
28 0.37
3 -0.52
4 -0.52
5 -0.37
6 -0.51
7 0.96
8 0.09
9 -0.05

> <PUBCHEM_EFFECTIVE_ROTOR_COUNT>
5

> <PUBCHEM_PHARMACOPHORE_FEATURES>
8
1 2 acceptor
1 3 acceptor
1 3 anion
1 4 acceptor
1 5 donor
1 6 acceptor
5 1 9 10 11 12 rings
6 8 13 14 16 17 19 rings

> <PUBCHEM_HEAVY_ATOM_COUNT>
19

> <PUBCHEM_ATOM_DEF_STEREO_COUNT>
0

> <PUBCHEM_ATOM_UDEF_STEREO_COUNT>
0

> <PUBCHEM_BOND_DEF_STEREO_COUNT>
1

> <PUBCHEM_BOND_UDEF_STEREO_COUNT>
0

> <PUBCHEM_ISOTOPIC_ATOM_COUNT>
0

> <PUBCHEM_COMPONENT_COUNT>
1

> <PUBCHEM_CACTVS_TAUTO_COUNT>
2

> <PUBCHEM_CONFORMER_ID>
00922EAC00000001

> <PUBCHEM_MMFF94_ENERGY>
43.1844

> <PUBCHEM_FEATURE_SELFOVERLAP>
40.684

> <PUBCHEM_SHAPE_FINGERPRINT>
10299344 5 18411985766708581259
10366900 7 15936408927270644004
10595046 47 18410013242858946136
10968037 39 18334013904563294327
11315181 36 18273497892835589753
11524674 6 16630526250093596543
12091667 2 17603304847805671373
12107183 9 17690280409107819793
12166972 35 18260269663736074852
12236239 1 18412265042640872396
12616971 3 16773788229799220436
13073987 5 18338513037466868688
13167823 11 18410853257105597903
13288520 33 18410574003180587957
13533116 47 17240752952777250970
13668630 136 16153432744284637291
1420 363 17821732736340902867
14251732 16 18341893026135939920
14251764 18 18260264162441306168
14251764 46 17167863075702783003
14933364 13 18272090504624146152
15348495 7 16773505685190887563
15716309 27 18412825785060302807
17834072 33 18410012156189775332
17844677 252 18411987961711585385
17857418 61 18409165506482700707
18222031 100 17022618693533163196
19489759 90 11963388544657254319
21150785 3 15213023764778433278
21267235 1 18410860945360542092
22224240 67 16272206401617640095
23035841 295 18409731768356878803
23402539 116 18408038516128723837
23466295 7 17025732635703386051
23522609 53 18193870138996428436
23536379 177 18341895186087654586
23559900 14 18261951963543871825
3004659 81 18260827107261204584
351380 3 18334573551280696099
3545911 37 18410293609950151332
4073 2 18042127716579045178
4214541 1 18411699868422094309
42788 4 18411982468294919801
4325135 7 18409449193736528767
465052 167 18343021069669462774
5104073 3 18272090538967911561
559249 180 18410572886605220039
59755656 215 18261394416701805446
59755656 520 17168141269409545355
67856867 119 18337674229679272437
7495541 125 17917427669954912528
9996256 80 18410573976798906382
999808 66 17895768404297417107

> <PUBCHEM_SHAPE_MULTIPOLES>
362.31
19.05
1.59
0.65
5.88
0.06
-0.01
4.68
-1.43
-0.36
0.08
-0.25
0.02
-0.61

> <PUBCHEM_SHAPE_SELFOVERLAP>
761.994

> <PUBCHEM_SHAPE_VOLUME>
204.2

> <PUBCHEM_COORDINATE_TYPE>
2
5
10

$$$$
