274941
  -OEChem-01171810173D

 31 33  0     1  0  0  0  0  0999 V2000
    1.9971   -4.5018    0.1429 Cl  0  0  0  0  0  0  0  0  0  0  0  0
   -4.9760    3.0193    0.0717 Cl  0  0  0  0  0  0  0  0  0  0  0  0
    4.9500    2.2442    1.1164 Cl  0  0  0  0  0  0  0  0  0  0  0  0
    3.8141    3.0861   -1.4407 Cl  0  0  0  0  0  0  0  0  0  0  0  0
   -3.0150   -2.2029   -1.1738 O   0  0  0  0  0  0  0  0  0  0  0  0
    3.8011    0.0838   -0.7548 O   0  0  0  0  0  0  0  0  0  0  0  0
    1.7714    0.5967    0.3144 N   0  0  0  0  0  0  0  0  0  0  0  0
   -2.4965   -1.6766    0.0338 C   0  0  1  0  0  0  0  0  0  0  0  0
   -0.3251   -0.6479    0.1696 C   0  0  0  0  0  0  0  0  0  0  0  0
   -0.9970   -1.8885    0.0914 C   0  0  0  0  0  0  0  0  0  0  0  0
   -2.5961   -0.1641    0.0749 C   0  0  0  0  0  0  0  0  0  0  0  0
   -1.3090    0.4133    0.1595 C   0  0  0  0  0  0  0  0  0  0  0  0
    1.0575   -0.5986    0.2372 C   0  0  0  0  0  0  0  0  0  0  0  0
   -0.3019   -3.0859    0.0834 C   0  0  0  0  0  0  0  0  0  0  0  0
   -3.7378    0.6189    0.0477 C   0  0  0  0  0  0  0  0  0  0  0  0
   -1.1565    1.7888    0.2145 C   0  0  0  0  0  0  0  0  0  0  0  0
    1.7645   -1.8047    0.2272 C   0  0  0  0  0  0  0  0  0  0  0  0
    1.0915   -3.0360    0.1512 C   0  0  0  0  0  0  0  0  0  0  0  0
   -3.5836    2.0052    0.1032 C   0  0  0  0  0  0  0  0  0  0  0  0
   -2.3059    2.5844    0.1856 C   0  0  0  0  0  0  0  0  0  0  0  0
    3.0619    0.8701   -0.1672 C   0  0  0  0  0  0  0  0  0  0  0  0
    3.4913    2.2961    0.1120 C   0  0  0  0  0  0  0  0  0  0  0  0
   -2.9949   -2.1181    0.9036 H   0  0  0  0  0  0  0  0  0  0  0  0
   -0.8324   -4.0310    0.0270 H   0  0  0  0  0  0  0  0  0  0  0  0
   -4.7192    0.1598   -0.0142 H   0  0  0  0  0  0  0  0  0  0  0  0
   -0.2105    2.3058    0.2473 H   0  0  0  0  0  0  0  0  0  0  0  0
    2.8478   -1.8219    0.3153 H   0  0  0  0  0  0  0  0  0  0  0  0
   -2.1964    3.6663    0.2217 H   0  0  0  0  0  0  0  0  0  0  0  0
   -3.0221   -3.1719   -1.0924 H   0  0  0  0  0  0  0  0  0  0  0  0
    1.2715    1.3867    0.6947 H   0  0  0  0  0  0  0  0  0  0  0  0
    2.7290    2.8730    0.6413 H   0  0  0  0  0  0  0  0  0  0  0  0
  1 18  1  0  0  0  0
  2 19  1  0  0  0  0
  3 22  1  0  0  0  0
  4 22  1  0  0  0  0
  5  8  1  0  0  0  0
  5 29  1  0  0  0  0
  6 21  2  0  0  0  0
  7 13  1  0  0  0  0
  7 21  1  0  0  0  0
  7 30  1  0  0  0  0
  8 10  1  0  0  0  0
  8 11  1  0  0  0  0
  8 23  1  0  0  0  0
  9 10  2  0  0  0  0
  9 12  1  0  0  0  0
  9 13  1  0  0  0  0
 10 14  1  0  0  0  0
 11 12  2  0  0  0  0
 11 15  1  0  0  0  0
 12 16  1  0  0  0  0
 13 17  2  0  0  0  0
 14 18  2  0  0  0  0
 14 24  1  0  0  0  0
 15 19  2  0  0  0  0
 15 25  1  0  0  0  0
 16 20  2  0  0  0  0
 16 26  1  0  0  0  0
 17 18  1  0  0  0  0
 17 27  1  0  0  0  0
 19 20  1  0  0  0  0
 20 28  1  0  0  0  0
 21 22  1  0  0  0  0
 22 31  1  0  0  0  0
M  END
> <PUBCHEM_COMPOUND_CID>
274941

> <PUBCHEM_CONFORMER_RMSD>
0.6

> <PUBCHEM_CONFORMER_DIVERSEORDER>
1
4
6
2
3
5

> <PUBCHEM_MMFF94_PARTIAL_CHARGES>
27
1 -0.18
10 -0.14
11 -0.14
13 0.12
14 -0.15
15 -0.15
16 -0.15
17 -0.15
18 0.18
19 0.18
2 -0.18
20 -0.15
21 0.57
22 0.64
24 0.15
25 0.15
26 0.15
27 0.15
28 0.15
29 0.4
3 -0.29
30 0.37
4 -0.29
5 -0.68
6 -0.57
7 -0.55
8 0.57

> <PUBCHEM_EFFECTIVE_ROTOR_COUNT>
3.2

> <PUBCHEM_PHARMACOPHORE_FEATURES>
7
1 5 acceptor
1 5 donor
1 6 acceptor
1 7 donor
5 8 9 10 11 12 rings
6 11 12 15 16 19 20 rings
6 9 10 13 14 17 18 rings

> <PUBCHEM_HEAVY_ATOM_COUNT>
22

> <PUBCHEM_ATOM_DEF_STEREO_COUNT>
0

> <PUBCHEM_ATOM_UDEF_STEREO_COUNT>
1

> <PUBCHEM_BOND_DEF_STEREO_COUNT>
0

> <PUBCHEM_BOND_UDEF_STEREO_COUNT>
0

> <PUBCHEM_ISOTOPIC_ATOM_COUNT>
0

> <PUBCHEM_COMPONENT_COUNT>
1

> <PUBCHEM_CACTVS_TAUTO_COUNT>
2

> <PUBCHEM_CONFORMER_ID>
000431FD00000001

> <PUBCHEM_MMFF94_ENERGY>
72.4096

> <PUBCHEM_FEATURE_SELFOVERLAP>
35.684

> <PUBCHEM_SHAPE_FINGERPRINT>
10319926 262 17911218832038486096
10411042 1 17257932023156173834
10498660 4 18338795718701953757
10670039 82 18118416261599824588
10871710 139 18266464402414378149
10967382 1 18122626054797431547
1100329 8 18194118504143633283
11370993 70 18411133654082661440
12107183 9 18335404778636613072
12173636 292 18338796839746161188
12390115 104 18270419276735493345
12403260 363 18337379543873438102
12553582 1 17329718033658474770
12788726 201 17539977590882815602
13140716 1 18336260137471805291
13583140 156 17024580085033230417
138480 1 17833832672915745890
13911987 19 17974562808419335375
13965767 371 18114169797015946268
14508225 48 16973919390751453190
14790565 3 18194413401394089361
15042514 8 17760085512038207834
16945 1 18123185702269629531
17134986 127 18337397054212290036
17818456 19 18192418883312109856
17980427 23 17981573049803102898
18681886 176 17764297350236698139
18785283 64 18191595150758774451
19591789 44 17905612460311823571
20101258 96 16821661237029891970
20510252 161 18270405034502042424
20671657 1 18195530281225622778
21709351 56 17690550889564845093
23366157 5 18188209788848758634
23402539 116 17982723370788118854
23557571 272 17984158216578104404
23558518 356 18333448767933975714
23559900 14 18124589786849401691
283562 15 18268424827483753499
3071541 12 18266742372397250530
335352 9 17762898771551512671
350125 39 18265335001729120994
469060 322 18120674654055706465
474 4 18336829667520910641
5104073 3 18262806134335190753
5939293 188 17689994540221555939
7064713 232 18335978774576311372
7364860 26 18194684752626279626
84936 182 18271521992529983792
9709674 26 18198913698259700420
9981440 41 18336823190636265410
9999458 23 17901391095822915255

> <PUBCHEM_SHAPE_MULTIPOLES>
443.51
8.48
5.31
0.86
0.13
3.2
0.13
-9.92
0
2.69
0.3
0.63
-0.39
-0.7

> <PUBCHEM_SHAPE_SELFOVERLAP>
937.068

> <PUBCHEM_SHAPE_VOLUME>
252.8

> <PUBCHEM_COORDINATE_TYPE>
2
5
10

$$$$
