140230
  -OEChem-01171810173D

 37 38  0     0  0  0  0  0  0999 V2000
   -0.0725    1.5328    0.2655 O   0  0  0  0  0  0  0  0  0  0  0  0
    1.2519   -2.3883    1.4266 O   0  0  0  0  0  0  0  0  0  0  0  0
   -0.1280    0.4775   -1.7815 O   0  0  0  0  0  0  0  0  0  0  0  0
   -0.0477   -0.7900    0.2653 C   0  0  0  0  0  0  0  0  0  0  0  0
    2.5152   -0.7742    0.2601 C   0  0  0  0  0  0  0  0  0  0  0  0
   -2.5621   -0.8185    0.2797 C   0  0  0  0  0  0  0  0  0  0  0  0
    1.2438   -1.3986    0.7022 C   0  0  0  0  0  0  0  0  0  0  0  0
   -1.2277   -1.3204    0.6406 C   0  0  0  0  0  0  0  0  0  0  0  0
    3.0849    0.2080    1.0447 C   0  0  0  0  0  0  0  0  0  0  0  0
    3.0900   -1.1947   -0.9223 C   0  0  0  0  0  0  0  0  0  0  0  0
   -3.1804    0.1190    1.0935 C   0  0  0  0  0  0  0  0  0  0  0  0
   -3.1803   -1.2910   -0.8684 C   0  0  0  0  0  0  0  0  0  0  0  0
   -0.0917    0.4511   -0.5601 C   0  0  0  0  0  0  0  0  0  0  0  0
    4.2802    0.7949    0.6294 C   0  0  0  0  0  0  0  0  0  0  0  0
    4.2854   -0.6080   -1.3376 C   0  0  0  0  0  0  0  0  0  0  0  0
   -4.4462    0.5949    0.7514 C   0  0  0  0  0  0  0  0  0  0  0  0
   -4.4461   -0.8150   -1.2104 C   0  0  0  0  0  0  0  0  0  0  0  0
    4.8804    0.3869   -0.5616 C   0  0  0  0  0  0  0  0  0  0  0  0
   -5.0789    0.1280   -0.4005 C   0  0  0  0  0  0  0  0  0  0  0  0
   -0.0979    2.8081   -0.3839 C   0  0  0  0  0  0  0  0  0  0  0  0
   -0.0721    3.8974    0.6672 C   0  0  0  0  0  0  0  0  0  0  0  0
   -1.2550   -2.2157    1.2582 H   0  0  0  0  0  0  0  0  0  0  0  0
    2.6218    0.5302    1.9728 H   0  0  0  0  0  0  0  0  0  0  0  0
    2.6311   -1.9687   -1.5305 H   0  0  0  0  0  0  0  0  0  0  0  0
   -2.6978    0.4912    1.9935 H   0  0  0  0  0  0  0  0  0  0  0  0
   -2.6978   -2.0256   -1.5078 H   0  0  0  0  0  0  0  0  0  0  0  0
    4.7431    1.5699    1.2332 H   0  0  0  0  0  0  0  0  0  0  0  0
    4.7527   -0.9254   -2.2651 H   0  0  0  0  0  0  0  0  0  0  0  0
   -4.9388    1.3295    1.3817 H   0  0  0  0  0  0  0  0  0  0  0  0
   -4.9389   -1.1783   -2.1074 H   0  0  0  0  0  0  0  0  0  0  0  0
    5.8109    0.8440   -0.8851 H   0  0  0  0  0  0  0  0  0  0  0  0
   -6.0644    0.4988   -0.6670 H   0  0  0  0  0  0  0  0  0  0  0  0
    0.7773    2.9023   -1.0365 H   0  0  0  0  0  0  0  0  0  0  0  0
   -1.0108    2.8936   -0.9838 H   0  0  0  0  0  0  0  0  0  0  0  0
   -0.0906    4.8880    0.2046 H   0  0  0  0  0  0  0  0  0  0  0  0
   -0.9317    3.8042    1.3391 H   0  0  0  0  0  0  0  0  0  0  0  0
    0.8266    3.8127    1.2871 H   0  0  0  0  0  0  0  0  0  0  0  0
  1 13  1  0  0  0  0
  1 20  1  0  0  0  0
  2  7  2  0  0  0  0
  3 13  2  0  0  0  0
  4  7  1  0  0  0  0
  4  8  2  0  0  0  0
  4 13  1  0  0  0  0
  5  7  1  0  0  0  0
  5  9  2  0  0  0  0
  5 10  1  0  0  0  0
  6  8  1  0  0  0  0
  6 11  2  0  0  0  0
  6 12  1  0  0  0  0
  8 22  1  0  0  0  0
  9 14  1  0  0  0  0
  9 23  1  0  0  0  0
 10 15  2  0  0  0  0
 10 24  1  0  0  0  0
 11 16  1  0  0  0  0
 11 25  1  0  0  0  0
 12 17  2  0  0  0  0
 12 26  1  0  0  0  0
 14 18  2  0  0  0  0
 14 27  1  0  0  0  0
 15 18  1  0  0  0  0
 15 28  1  0  0  0  0
 16 19  2  0  0  0  0
 16 29  1  0  0  0  0
 17 19  1  0  0  0  0
 17 30  1  0  0  0  0
 18 31  1  0  0  0  0
 19 32  1  0  0  0  0
 20 21  1  0  0  0  0
 20 33  1  0  0  0  0
 20 34  1  0  0  0  0
 21 35  1  0  0  0  0
 21 36  1  0  0  0  0
 21 37  1  0  0  0  0
M  END
> <PUBCHEM_COMPOUND_CID>
140230

> <PUBCHEM_CONFORMER_RMSD>
0.8

> <PUBCHEM_CONFORMER_DIVERSEORDER>
1
9
23
12
21
6
13
4
14
2
16
30
24
19
25
5
3
15
10
22
18
20
17
29
11
28
8
26
7
27

> <PUBCHEM_MMFF94_PARTIAL_CHARGES>
31
1 -0.43
10 -0.15
11 -0.15
12 -0.15
13 0.71
14 -0.15
15 -0.15
16 -0.15
17 -0.15
18 -0.15
19 -0.15
2 -0.57
20 0.28
22 0.15
23 0.15
24 0.15
25 0.15
26 0.15
27 0.15
28 0.15
29 0.15
3 -0.57
30 0.15
31 0.15
32 0.15
4 0.03
5 0.09
6 0.03
7 0.47
8 -0.18
9 -0.15

> <PUBCHEM_EFFECTIVE_ROTOR_COUNT>
6

> <PUBCHEM_PHARMACOPHORE_FEATURES>
5
1 2 acceptor
1 3 acceptor
1 4 anion
6 5 9 10 14 15 18 rings
6 6 11 12 16 17 19 rings

> <PUBCHEM_HEAVY_ATOM_COUNT>
21

> <PUBCHEM_ATOM_DEF_STEREO_COUNT>
0

> <PUBCHEM_ATOM_UDEF_STEREO_COUNT>
0

> <PUBCHEM_BOND_DEF_STEREO_COUNT>
0

> <PUBCHEM_BOND_UDEF_STEREO_COUNT>
1

> <PUBCHEM_ISOTOPIC_ATOM_COUNT>
0

> <PUBCHEM_COMPONENT_COUNT>
1

> <PUBCHEM_CACTVS_TAUTO_COUNT>
1

> <PUBCHEM_CONFORMER_ID>
000223C600000001

> <PUBCHEM_MMFF94_ENERGY>
66.9449

> <PUBCHEM_FEATURE_SELFOVERLAP>
25.372

> <PUBCHEM_SHAPE_FINGERPRINT>
10498660 4 18338231570436702640
12236239 1 18343582928648443067
12553582 1 18408884023242810939
12788726 201 18336267847260166680
12954195 1 18053959350783390716
12969540 114 18336816550511505903
13132413 78 18410295787678360225
13583140 156 14476946892095778463
13899415 154 18336557087331734209
14573314 32 17275106123976815151
14787075 74 18336547204685956004
14955137 171 18267608912472543099
15210252 30 18113902671509264556
15848700 24 18413386548870147852
15848702 151 17917997182765853590
1601671 61 18113336409824204271
16945 1 17749108893730527479
17357779 13 18411127039653684261
17862501 102 9295288335312125919
17980427 23 17275111643590507177
18785283 64 17751940248337234909
20600515 1 18187937226203019756
21029758 11 18411136952564693249
21033648 29 17561074813706523235
23402539 116 18411134762569144342
23557571 272 18341054021491549932
23558518 356 17757268176214953403
23559900 14 16702013188611186467
296302 2 17167863066949675379
34797466 226 16629966645455233864
34934 24 18409163303428312931
350125 39 17971191431196511354
465052 167 13110960976428727639
532947 4 18053382381820150264
537710 114 17967533475821306030
59755656 215 18187928323195393970
70251023 43 17974283231755333571
7164475 11 18193554476559108558
7495541 125 15864364591954403743
81228 2 18191038810702265584

> <PUBCHEM_SHAPE_MULTIPOLES>
414.56
9.65
2.6
1.31
1.52
3.22
0.16
-1.43
1.71
-0.18
-0.47
-0.13
-0.28
-0.22

> <PUBCHEM_SHAPE_SELFOVERLAP>
883.821

> <PUBCHEM_SHAPE_VOLUME>
230.1

> <PUBCHEM_COORDINATE_TYPE>
2
5
10

$$$$
