49786903
  -OEChem-01171810193D

 55 59  0     0  0  0  0  0  0999 V2000
   -5.1791    2.6030    1.3029 O   0  0  0  0  0  0  0  0  0  0  0  0
   -1.5356   -5.3201    0.1397 O   0  0  0  0  0  0  0  0  0  0  0  0
    6.1818    4.5740   -0.6946 O   0  0  0  0  0  0  0  0  0  0  0  0
   -5.9714    1.5973   -0.6284 N   0  0  0  0  0  0  0  0  0  0  0  0
    2.0763   -1.5846   -0.0099 N   0  0  0  0  0  0  0  0  0  0  0  0
    3.3108   -3.4456   -0.0982 N   0  0  0  0  0  0  0  0  0  0  0  0
    0.7804   -4.9877    0.0196 N   0  0  0  0  0  0  0  0  0  0  0  0
   -7.2145    2.3154   -0.6825 C   0  0  0  0  0  0  0  0  0  0  0  0
   -8.4139    1.8566    0.0940 C   0  0  0  0  0  0  0  0  0  0  0  0
   -8.4041    1.7521   -1.4030 C   0  0  0  0  0  0  0  0  0  0  0  0
   -5.0158    1.7887    0.3770 C   0  0  0  0  0  0  0  0  0  0  0  0
   -3.8135    0.9731    0.3114 C   0  0  0  0  0  0  0  0  0  0  0  0
   -3.8506   -0.2766   -0.3073 C   0  0  0  0  0  0  0  0  0  0  0  0
   -2.6230    1.4410    0.8675 C   0  0  0  0  0  0  0  0  0  0  0  0
   -1.5064   -0.5902    0.1864 C   0  0  0  0  0  0  0  0  0  0  0  0
   -0.2859   -1.4167    0.1204 C   0  0  0  0  0  0  0  0  0  0  0  0
   -2.6970   -1.0582   -0.3697 C   0  0  0  0  0  0  0  0  0  0  0  0
   -1.4695    0.6594    0.8050 C   0  0  0  0  0  0  0  0  0  0  0  0
    2.0810   -2.9754   -0.0264 C   0  0  0  0  0  0  0  0  0  0  0  0
    0.9196   -0.8125    0.0609 C   0  0  0  0  0  0  0  0  0  0  0  0
    3.3854   -1.1805   -0.0771 C   0  0  0  0  0  0  0  0  0  0  0  0
    0.8120   -3.6239    0.0339 C   0  0  0  0  0  0  0  0  0  0  0  0
   -0.3135   -2.8848    0.1033 C   0  0  0  0  0  0  0  0  0  0  0  0
    3.8295    0.1935   -0.0855 C   0  0  0  0  0  0  0  0  0  0  0  0
    4.1212   -2.3402   -0.1296 C   0  0  0  0  0  0  0  0  0  0  0  0
    4.5618    0.6832   -1.1672 C   0  0  0  0  0  0  0  0  0  0  0  0
    3.5262    1.0310    0.9877 C   0  0  0  0  0  0  0  0  0  0  0  0
    4.9907    2.0104   -1.1754 C   0  0  0  0  0  0  0  0  0  0  0  0
    3.9550    2.3582    0.9795 C   0  0  0  0  0  0  0  0  0  0  0  0
    4.6872    2.8480   -0.1019 C   0  0  0  0  0  0  0  0  0  0  0  0
   -0.3819   -5.7262    0.0731 C   0  0  0  0  0  0  0  0  0  0  0  0
    5.1344    4.2318   -0.1104 C   0  0  0  0  0  0  0  0  0  0  0  0
    4.3224    5.3064    0.6046 C   0  0  0  0  0  0  0  0  0  0  0  0
   -7.0657    3.3872   -0.7707 H   0  0  0  0  0  0  0  0  0  0  0  0
   -8.3259    0.7628   -1.8370 H   0  0  0  0  0  0  0  0  0  0  0  0
   -9.0287    2.4389   -1.9608 H   0  0  0  0  0  0  0  0  0  0  0  0
   -9.0436    2.6144    0.5436 H   0  0  0  0  0  0  0  0  0  0  0  0
   -8.3405    0.9378    0.6628 H   0  0  0  0  0  0  0  0  0  0  0  0
   -5.7833    0.9676   -1.4029 H   0  0  0  0  0  0  0  0  0  0  0  0
   -4.7619   -0.6887   -0.7306 H   0  0  0  0  0  0  0  0  0  0  0  0
   -2.5746    2.4111    1.3555 H   0  0  0  0  0  0  0  0  0  0  0  0
   -2.7612   -2.0173   -0.8760 H   0  0  0  0  0  0  0  0  0  0  0  0
   -0.5724    1.0515    1.2763 H   0  0  0  0  0  0  0  0  0  0  0  0
    1.0502    0.2615    0.0282 H   0  0  0  0  0  0  0  0  0  0  0  0
   -1.3101   -3.2792    0.1908 H   0  0  0  0  0  0  0  0  0  0  0  0
    5.1959   -2.4412   -0.1880 H   0  0  0  0  0  0  0  0  0  0  0  0
    4.8044    0.0459   -2.0143 H   0  0  0  0  0  0  0  0  0  0  0  0
    2.9679    0.6660    1.8467 H   0  0  0  0  0  0  0  0  0  0  0  0
    1.6665   -5.4835   -0.0338 H   0  0  0  0  0  0  0  0  0  0  0  0
    5.5562    2.3756   -2.0288 H   0  0  0  0  0  0  0  0  0  0  0  0
    3.7173    2.9842    1.8352 H   0  0  0  0  0  0  0  0  0  0  0  0
   -0.1532   -6.8048    0.0482 H   0  0  0  0  0  0  0  0  0  0  0  0
    4.4688    6.2630    0.0941 H   0  0  0  0  0  0  0  0  0  0  0  0
    3.2544    5.0749    0.5681 H   0  0  0  0  0  0  0  0  0  0  0  0
    4.6583    5.3897    1.6410 H   0  0  0  0  0  0  0  0  0  0  0  0
  1 11  2  0  0  0  0
  2 31  2  0  0  0  0
  3 32  2  0  0  0  0
  4  8  1  0  0  0  0
  4 11  1  0  0  0  0
  4 39  1  0  0  0  0
  5 19  1  0  0  0  0
  5 20  1  0  0  0  0
  5 21  1  0  0  0  0
  6 19  2  0  0  0  0
  6 25  1  0  0  0  0
  7 22  1  0  0  0  0
  7 31  1  0  0  0  0
  7 49  1  0  0  0  0
  8  9  1  0  0  0  0
  8 10  1  0  0  0  0
  8 34  1  0  0  0  0
  9 10  1  0  0  0  0
  9 37  1  0  0  0  0
  9 38  1  0  0  0  0
 10 35  1  0  0  0  0
 10 36  1  0  0  0  0
 11 12  1  0  0  0  0
 12 13  2  0  0  0  0
 12 14  1  0  0  0  0
 13 17  1  0  0  0  0
 13 40  1  0  0  0  0
 14 18  2  0  0  0  0
 14 41  1  0  0  0  0
 15 16  1  0  0  0  0
 15 17  2  0  0  0  0
 15 18  1  0  0  0  0
 16 20  2  0  0  0  0
 16 23  1  0  0  0  0
 17 42  1  0  0  0  0
 18 43  1  0  0  0  0
 19 22  1  0  0  0  0
 20 44  1  0  0  0  0
 21 24  1  0  0  0  0
 21 25  2  0  0  0  0
 22 23  2  0  0  0  0
 23 45  1  0  0  0  0
 24 26  2  0  0  0  0
 24 27  1  0  0  0  0
 25 46  1  0  0  0  0
 26 28  1  0  0  0  0
 26 47  1  0  0  0  0
 27 29  2  0  0  0  0
 27 48  1  0  0  0  0
 28 30  2  0  0  0  0
 28 50  1  0  0  0  0
 29 30  1  0  0  0  0
 29 51  1  0  0  0  0
 30 32  1  0  0  0  0
 31 52  1  0  0  0  0
 32 33  1  0  0  0  0
 33 53  1  0  0  0  0
 33 54  1  0  0  0  0
 33 55  1  0  0  0  0
M  END
> <PUBCHEM_COMPOUND_CID>
49786903

> <PUBCHEM_CONFORMER_RMSD>
1

> <PUBCHEM_CONFORMER_DIVERSEORDER>
1
3
2
6
4
5

> <PUBCHEM_MMFF94_PARTIAL_CHARGES>
52
1 -0.57
10 -0.2
11 0.54
12 0.09
13 -0.15
14 -0.15
15 0.03
16 -0.03
17 -0.15
18 -0.15
19 0.14
2 -0.57
20 -0.18
21 -0.2
22 0.15
23 -0.15
24 0.05
25 0.08
26 -0.15
27 -0.15
28 -0.15
29 -0.15
3 -0.57
30 0.09
31 0.57
32 0.42
33 0.06
34 0.1
35 0.1
36 0.1
37 0.1
38 0.1
39 0.37
4 -0.58
40 0.15
41 0.15
42 0.15
43 0.15
44 0.15
45 0.15
46 0.15
47 0.15
48 0.15
49 0.37
5 0.33
50 0.15
51 0.15
52 0.06
6 -0.57
7 -0.54
8 0.05
9 -0.2

> <PUBCHEM_EFFECTIVE_ROTOR_COUNT>
8.6

> <PUBCHEM_PHARMACOPHORE_FEATURES>
10
1 1 acceptor
1 2 acceptor
1 3 acceptor
1 4 donor
1 7 donor
3 5 6 19 cation
5 5 6 19 21 25 rings
6 12 13 14 15 17 18 rings
6 24 26 27 28 29 30 rings
6 5 16 19 20 22 23 rings

> <PUBCHEM_HEAVY_ATOM_COUNT>
33

> <PUBCHEM_ATOM_DEF_STEREO_COUNT>
0

> <PUBCHEM_ATOM_UDEF_STEREO_COUNT>
0

> <PUBCHEM_BOND_DEF_STEREO_COUNT>
0

> <PUBCHEM_BOND_UDEF_STEREO_COUNT>
0

> <PUBCHEM_ISOTOPIC_ATOM_COUNT>
0

> <PUBCHEM_COMPONENT_COUNT>
1

> <PUBCHEM_CACTVS_TAUTO_COUNT>
8

> <PUBCHEM_CONFORMER_ID>
02F7B01700000001

> <PUBCHEM_MMFF94_ENERGY>
104.5741

> <PUBCHEM_FEATURE_SELFOVERLAP>
50.861

> <PUBCHEM_SHAPE_FINGERPRINT>
10411042 1 17617658757227112290
10673678 19 18410014325686596437
10675989 125 18412263909086634904
10937287 8 18338801220982165394
11059845 2 18051947472702785328
11101153 10 18269272366782672417
11135609 127 18338227181618618357
11135609 187 18339076098900035761
11374522 174 18261971720315170181
11386260 185 18270116782256986004
12788726 201 17614553070928357346
12925494 130 18336829791943125840
1361 2 18409728444010272905
13878862 14 18262502702794579189
13965767 371 18041550451847662268
14117953 113 18411699881655708068
14142895 15 18411134745959137109
14400156 413 18193543477639461701
14790565 3 18411987944525869963
14937079 2 18338520738702218682
15082195 135 18341890775499282361
15198563 99 17548418562560294518
15439362 3 18410856573331981956
15484559 13 18341899532985565822
15890870 6 18410293636000439460
15979999 66 17621041962842220990
18681886 176 18125153832268001154
19053607 189 18340194306299191552
19301679 30 9150904870604480236
19319366 153 18271235024564459647
19427546 62 18409448064065879219
21049683 118 17603301557301684555
21344244 78 17834658414781112250
21360442 67 18410290320485289659
22311459 1 18194965136734473435
23522609 53 17702677541047441729
23559900 14 18267303136143987098
23729417 116 16828411636866142023
23845131 108 18407761447446230179
255183 451 17409370577159150983
27425 322 18341895199104796311
283562 15 17759801838265296178
335352 9 18267307530634333950
3534868 343 17771908238469624073
397830 11 18041295313736985673
437795 163 18341324596622180223
44555599 121 17984707706505401737
45270241 37 18266457612925625813
4760202 70 18270672174317913695
5109719 28 18408892845602100417
53794403 172 18411703158023963332
6036956 94 17831298672365814509
6697151 62 17394986783661901127
7808743 9 18122063376091835136
9849439 229 18340196496826970520
9961470 85 18341608278790120080

> <PUBCHEM_SHAPE_MULTIPOLES>
641.59
18.04
7.97
0.96
35.07
5.9
-0.06
-28.9
-4.64
-9.27
0.33
0.23
-0.64
0.17

> <PUBCHEM_SHAPE_SELFOVERLAP>
1419.472

> <PUBCHEM_SHAPE_VOLUME>
344.1

> <PUBCHEM_COORDINATE_TYPE>
2
5
10

$$$$
