4005536
  -OEChem-01171809493D

 51 53  0     1  0  0  0  0  0999 V2000
   -4.9147    0.8110   -1.7630 S   0  0  0  0  0  0  0  0  0  0  0  0
   -2.2814   -3.1754    0.0593 F   0  0  0  0  0  0  0  0  0  0  0  0
   -4.3427   -3.9425    1.6833 F   0  0  0  0  0  0  0  0  0  0  0  0
    7.0799   -1.3683    0.4532 O   0  0  0  0  0  0  0  0  0  0  0  0
    1.7783    1.3820    0.7289 O   0  0  0  0  0  0  0  0  0  0  0  0
    3.7199    1.1623   -1.1228 O   0  0  0  0  0  0  0  0  0  0  0  0
   -6.3359    0.9999   -1.9859 O   0  0  0  0  0  0  0  0  0  0  0  0
   -4.0234    0.6467   -2.8953 O   0  0  0  0  0  0  0  0  0  0  0  0
    0.9749    1.4830    2.8840 O   0  0  0  0  0  0  0  0  0  0  0  0
    5.3837    0.9563    0.4913 N   0  0  0  0  0  0  0  0  0  0  0  0
   -4.3365    2.0661   -0.7343 N   0  0  0  0  0  0  0  0  0  0  0  0
    6.7647   -0.6325   -0.7409 C   0  0  2  0  0  0  0  0  0  0  0  0
    7.9399   -0.8303   -1.6825 C   0  0  0  0  0  0  0  0  0  0  0  0
    8.3667   -2.2354   -1.3392 C   0  0  0  0  0  0  0  0  0  0  0  0
    8.1595   -2.2678    0.1602 C   0  0  0  0  0  0  0  0  0  0  0  0
    6.5037    0.8209   -0.3960 C   0  0  0  0  0  0  0  0  0  0  0  0
    4.0733    1.1172    0.0524 C   0  0  0  0  0  0  0  0  0  0  0  0
    3.0990    1.2333    1.2052 C   0  0  0  0  0  0  0  0  0  0  0  0
   -3.0504    1.9236   -0.1311 C   0  0  0  0  0  0  0  0  0  0  0  0
   -4.7430   -0.6151   -0.7289 C   0  0  0  0  0  0  0  0  0  0  0  0
   -0.5373    1.6461    1.0478 C   0  0  0  0  0  0  0  0  0  0  0  0
   -2.9288    1.9164    1.2585 C   0  0  0  0  0  0  0  0  0  0  0  0
   -1.9153    1.7922   -0.9312 C   0  0  0  0  0  0  0  0  0  0  0  0
    0.8002    1.4977    1.6754 C   0  0  0  0  0  0  0  0  0  0  0  0
   -1.6723    1.7776    1.8478 C   0  0  0  0  0  0  0  0  0  0  0  0
   -0.6588    1.6535   -0.3418 C   0  0  0  0  0  0  0  0  0  0  0  0
   -3.5559   -1.3475   -0.7423 C   0  0  0  0  0  0  0  0  0  0  0  0
   -5.7948   -1.0065    0.0995 C   0  0  0  0  0  0  0  0  0  0  0  0
   -3.4207   -2.4713    0.0728 C   0  0  0  0  0  0  0  0  0  0  0  0
   -5.6594   -2.1303    0.9145 C   0  0  0  0  0  0  0  0  0  0  0  0
   -4.4724   -2.8628    0.9011 C   0  0  0  0  0  0  0  0  0  0  0  0
    5.8634   -1.0920   -1.1666 H   0  0  0  0  0  0  0  0  0  0  0  0
    7.6683   -0.7031   -2.7340 H   0  0  0  0  0  0  0  0  0  0  0  0
    8.7529   -0.1317   -1.4500 H   0  0  0  0  0  0  0  0  0  0  0  0
    9.3932   -2.4686   -1.6335 H   0  0  0  0  0  0  0  0  0  0  0  0
    7.6983   -2.9561   -1.8251 H   0  0  0  0  0  0  0  0  0  0  0  0
    9.0467   -1.9059    0.6906 H   0  0  0  0  0  0  0  0  0  0  0  0
    7.9163   -3.2682    0.5289 H   0  0  0  0  0  0  0  0  0  0  0  0
    6.3177    1.4044   -1.3042 H   0  0  0  0  0  0  0  0  0  0  0  0
    7.3635    1.2542    0.1265 H   0  0  0  0  0  0  0  0  0  0  0  0
    5.5660    0.9216    1.4903 H   0  0  0  0  0  0  0  0  0  0  0  0
    3.3786    2.1063    1.8064 H   0  0  0  0  0  0  0  0  0  0  0  0
    3.1748    0.3249    1.8142 H   0  0  0  0  0  0  0  0  0  0  0  0
   -5.0434    2.5227   -0.1431 H   0  0  0  0  0  0  0  0  0  0  0  0
   -3.8066    2.0160    1.8919 H   0  0  0  0  0  0  0  0  0  0  0  0
   -1.9784    1.8235   -2.0145 H   0  0  0  0  0  0  0  0  0  0  0  0
   -1.5990    1.7733    2.9321 H   0  0  0  0  0  0  0  0  0  0  0  0
    0.1992    1.5599   -1.0015 H   0  0  0  0  0  0  0  0  0  0  0  0
   -2.7255   -1.0679   -1.3835 H   0  0  0  0  0  0  0  0  0  0  0  0
   -6.7250   -0.4467    0.1317 H   0  0  0  0  0  0  0  0  0  0  0  0
   -6.4773   -2.4345    1.5610 H   0  0  0  0  0  0  0  0  0  0  0  0
  1  7  2  0  0  0  0
  1  8  2  0  0  0  0
  1 11  1  0  0  0  0
  1 20  1  0  0  0  0
  2 29  1  0  0  0  0
  3 31  1  0  0  0  0
  4 12  1  0  0  0  0
  4 15  1  0  0  0  0
  5 18  1  0  0  0  0
  5 24  1  0  0  0  0
  6 17  2  0  0  0  0
  9 24  2  0  0  0  0
 10 16  1  0  0  0  0
 10 17  1  0  0  0  0
 10 41  1  0  0  0  0
 11 19  1  0  0  0  0
 11 44  1  0  0  0  0
 12 13  1  0  0  0  0
 12 16  1  0  0  0  0
 12 32  1  0  0  0  0
 13 14  1  0  0  0  0
 13 33  1  0  0  0  0
 13 34  1  0  0  0  0
 14 15  1  0  0  0  0
 14 35  1  0  0  0  0
 14 36  1  0  0  0  0
 15 37  1  0  0  0  0
 15 38  1  0  0  0  0
 16 39  1  0  0  0  0
 16 40  1  0  0  0  0
 17 18  1  0  0  0  0
 18 42  1  0  0  0  0
 18 43  1  0  0  0  0
 19 22  2  0  0  0  0
 19 23  1  0  0  0  0
 20 27  2  0  0  0  0
 20 28  1  0  0  0  0
 21 24  1  0  0  0  0
 21 25  2  0  0  0  0
 21 26  1  0  0  0  0
 22 25  1  0  0  0  0
 22 45  1  0  0  0  0
 23 26  2  0  0  0  0
 23 46  1  0  0  0  0
 25 47  1  0  0  0  0
 26 48  1  0  0  0  0
 27 29  1  0  0  0  0
 27 49  1  0  0  0  0
 28 30  2  0  0  0  0
 28 50  1  0  0  0  0
 29 31  2  0  0  0  0
 30 31  1  0  0  0  0
 30 51  1  0  0  0  0
M  END
> <PUBCHEM_COMPOUND_CID>
4005536

> <PUBCHEM_CONFORMER_RMSD>
1.4

> <PUBCHEM_CONFORMER_DIVERSEORDER>
1
34
53
62
24
71
64
3
69
52
65
35
42
66
29
60
79
13
44
55
78
12
18
23
11
67
76
36
68
58
48
39
72
54
56
61
70
47
17
57
77
14
38
50
25
5
37
21
49
16
10
19
7
32
33
26
22
59
40
51
74
2
8
9
28
43
41
45
20
73
75
6
31
4
63
27
46
30
15

> <PUBCHEM_MMFF94_PARTIAL_CHARGES>
38
1 1.45
10 -0.73
11 -0.76
12 0.28
15 0.28
16 0.3
17 0.57
18 0.34
19 0.2
2 -0.19
20 -0.01
21 0.09
22 -0.15
23 -0.15
24 0.63
25 -0.15
26 -0.15
27 -0.15
28 -0.15
29 0.19
3 -0.19
30 -0.15
31 0.19
4 -0.56
41 0.37
44 0.42
45 0.15
46 0.15
47 0.15
48 0.15
49 0.15
5 -0.43
50 0.15
51 0.15
6 -0.57
7 -0.65
8 -0.65
9 -0.57

> <PUBCHEM_EFFECTIVE_ROTOR_COUNT>
11

> <PUBCHEM_PHARMACOPHORE_FEATURES>
10
1 10 donor
1 11 donor
1 4 acceptor
1 6 acceptor
1 7 acceptor
1 8 acceptor
1 9 acceptor
5 4 12 13 14 15 rings
6 19 21 22 23 25 26 rings
6 20 27 28 29 30 31 rings

> <PUBCHEM_HEAVY_ATOM_COUNT>
31

> <PUBCHEM_ATOM_DEF_STEREO_COUNT>
0

> <PUBCHEM_ATOM_UDEF_STEREO_COUNT>
1

> <PUBCHEM_BOND_DEF_STEREO_COUNT>
0

> <PUBCHEM_BOND_UDEF_STEREO_COUNT>
0

> <PUBCHEM_ISOTOPIC_ATOM_COUNT>
0

> <PUBCHEM_COMPONENT_COUNT>
1

> <PUBCHEM_CACTVS_TAUTO_COUNT>
4

> <PUBCHEM_CONFORMER_ID>
003D1EA000000001

> <PUBCHEM_MMFF94_ENERGY>
60.0548

> <PUBCHEM_FEATURE_SELFOVERLAP>
50.767

> <PUBCHEM_SHAPE_FINGERPRINT>
10 15 9511461134811266932
10391435 84 18340477963656403472
117089 54 17681847537392269147
11763389 116 18060143107332137038
12402354 99 17749661871677314154
12655364 131 15482684446294097653
12760667 363 17989207066202562553
1361 4 18267027339794010266
13782708 43 18343301487867921096
13911987 19 13767918035964334793
14211702 104 17917159295535731574
14904525 67 9655278330142321698
15064986 266 18272375264945500392
15183329 4 18260266314130341518
15230672 131 18261101933639415435
15352257 5 18343024385236404950
15510800 12 17917442986736763742
17686467 74 18131347502544076264
17852330 162 18262525914058629140
19958102 18 18410008832539384870
21867018 265 18040445416802364094
22288116 15 17095531720375535912
2260408 40 12823025222782226280
23559900 14 18270105950540031881
25025965 108 17273962554849337830
32027 91 17845928649493682848
3383291 50 17560794416750942134
3711267 37 10951465113485354666
4107672 100 17894627041811404749
439807 62 18412269445430802322
445580 160 18409731780719742615
44880168 125 18198904906335999819
484985 159 18271533074136295347
5104073 3 12751249060681464140
6608658 132 16732972098786144589
6636798 310 13038319537554067325
70634741 139 18263368156391019860
999808 66 18131918161003164844

> <PUBCHEM_SHAPE_MULTIPOLES>
582.09
23.27
3.62
2.06
53.55
2.96
0.18
17.42
8.98
-3.07
-1.52
-1.78
-0.57
3.24

> <PUBCHEM_SHAPE_SELFOVERLAP>
1224.585

> <PUBCHEM_SHAPE_VOLUME>
329.3

> <PUBCHEM_COORDINATE_TYPE>
2
5
10

$$$$
