2370513
  -OEChem-01171809413D

 36 37  0     0  0  0  0  0  0999 V2000
    6.5627   -3.1004    0.1672 Cl  0  0  0  0  0  0  0  0  0  0  0  0
    1.2192    1.4693    1.7212 O   0  0  0  0  0  0  0  0  0  0  0  0
   -6.1825   -2.4105   -0.3881 O   0  5  0  0  0  0  0  0  0  0  0  0
   -4.1339   -3.1339   -0.0728 O   0  0  0  0  0  0  0  0  0  0  0  0
    1.9375    1.6777   -0.4643 N   0  0  0  0  0  0  0  0  0  0  0  0
   -4.9718   -2.2017   -0.1329 N   0  3  0  0  0  0  0  0  0  0  0  0
   -0.9002    1.1939   -2.5572 N   0  0  0  0  0  0  0  0  0  0  0  0
    3.3244    1.9432   -0.1526 C   0  0  0  0  0  0  0  0  0  0  0  0
    4.1339    0.6813   -0.0726 C   0  0  0  0  0  0  0  0  0  0  0  0
   -2.7839    0.6941    0.5968 C   0  0  0  0  0  0  0  0  0  0  0  0
    4.2563    0.0188    1.1431 C   0  0  0  0  0  0  0  0  0  0  0  0
    4.7534    0.1883   -1.2151 C   0  0  0  0  0  0  0  0  0  0  0  0
    0.9808    1.4584    0.5146 C   0  0  0  0  0  0  0  0  0  0  0  0
   -1.3696    0.9663    0.8963 C   0  0  0  0  0  0  0  0  0  0  0  0
   -3.1951   -0.6122    0.3784 C   0  0  0  0  0  0  0  0  0  0  0  0
   -0.4076    1.2055   -0.0162 C   0  0  0  0  0  0  0  0  0  0  0  0
   -3.6820    1.7493    0.5385 C   0  0  0  0  0  0  0  0  0  0  0  0
   -4.5364   -0.8694    0.0945 C   0  0  0  0  0  0  0  0  0  0  0  0
    5.0091   -1.1533    1.2174 C   0  0  0  0  0  0  0  0  0  0  0  0
    5.5064   -0.9835   -1.1407 C   0  0  0  0  0  0  0  0  0  0  0  0
    5.6343   -1.6543    0.0755 C   0  0  0  0  0  0  0  0  0  0  0  0
   -5.4503    0.1825    0.0322 C   0  0  0  0  0  0  0  0  0  0  0  0
   -5.0232    1.4918    0.2542 C   0  0  0  0  0  0  0  0  0  0  0  0
   -0.6816    1.1988   -1.4174 C   0  0  0  0  0  0  0  0  0  0  0  0
    3.7162    2.6028   -0.9354 H   0  0  0  0  0  0  0  0  0  0  0  0
    3.3888    2.4999    0.7900 H   0  0  0  0  0  0  0  0  0  0  0  0
    1.6898    1.6435   -1.4477 H   0  0  0  0  0  0  0  0  0  0  0  0
    3.7786    0.4003    2.0409 H   0  0  0  0  0  0  0  0  0  0  0  0
    4.6589    0.7018   -2.1680 H   0  0  0  0  0  0  0  0  0  0  0  0
   -1.1509    0.9659    1.9619 H   0  0  0  0  0  0  0  0  0  0  0  0
   -2.4646   -1.4162    0.4325 H   0  0  0  0  0  0  0  0  0  0  0  0
   -3.3618    2.7736    0.7100 H   0  0  0  0  0  0  0  0  0  0  0  0
    5.1007   -1.6650    2.1721 H   0  0  0  0  0  0  0  0  0  0  0  0
    5.9874   -1.3627   -2.0388 H   0  0  0  0  0  0  0  0  0  0  0  0
   -6.5027    0.0200   -0.1868 H   0  0  0  0  0  0  0  0  0  0  0  0
   -5.7346    2.3110    0.2059 H   0  0  0  0  0  0  0  0  0  0  0  0
  1 21  1  0  0  0  0
  2 13  2  0  0  0  0
  3  6  1  0  0  0  0
  4  6  2  0  0  0  0
  5  8  1  0  0  0  0
  5 13  1  0  0  0  0
  5 27  1  0  0  0  0
  6 18  1  0  0  0  0
  7 24  3  0  0  0  0
  8  9  1  0  0  0  0
  8 25  1  0  0  0  0
  8 26  1  0  0  0  0
  9 11  2  0  0  0  0
  9 12  1  0  0  0  0
 10 14  1  0  0  0  0
 10 15  2  0  0  0  0
 10 17  1  0  0  0  0
 11 19  1  0  0  0  0
 11 28  1  0  0  0  0
 12 20  2  0  0  0  0
 12 29  1  0  0  0  0
 13 16  1  0  0  0  0
 14 16  2  0  0  0  0
 14 30  1  0  0  0  0
 15 18  1  0  0  0  0
 15 31  1  0  0  0  0
 16 24  1  0  0  0  0
 17 23  2  0  0  0  0
 17 32  1  0  0  0  0
 18 22  2  0  0  0  0
 19 21  2  0  0  0  0
 19 33  1  0  0  0  0
 20 21  1  0  0  0  0
 20 34  1  0  0  0  0
 22 23  1  0  0  0  0
 22 35  1  0  0  0  0
 23 36  1  0  0  0  0
M  CHG  2   3  -1   6   1
M  END
> <PUBCHEM_COMPOUND_CID>
2370513

> <PUBCHEM_CONFORMER_RMSD>
0.8

> <PUBCHEM_CONFORMER_DIVERSEORDER>
1
69
67
59
5
11
55
51
65
58
33
73
15
54
24
34
42
60
18
36
68
49
52
6
26
23
12
8
62
72
35
31
53
71
22
27
7
21
56
64
32
13
37
2
19
48
25
40
17
50
66
20
14
3
41
47
70
38
57
10
44
45
29
43
30
16
28
63
39
46
61
9
4

> <PUBCHEM_MMFF94_PARTIAL_CHARGES>
34
1 -0.18
10 0.03
11 -0.15
12 -0.15
13 0.62
14 -0.18
15 -0.15
16 0.08
17 -0.15
18 0.13
19 -0.15
2 -0.57
20 -0.15
21 0.18
22 -0.15
23 -0.15
24 0.49
27 0.37
28 0.15
29 0.15
3 -0.52
30 0.15
31 0.15
32 0.15
33 0.15
34 0.15
35 0.15
36 0.15
4 -0.52
5 -0.73
6 0.91
7 -0.56
8 0.44
9 -0.14

> <PUBCHEM_EFFECTIVE_ROTOR_COUNT>
6

> <PUBCHEM_PHARMACOPHORE_FEATURES>
8
1 2 acceptor
1 3 acceptor
1 3 anion
1 4 acceptor
1 5 donor
1 7 acceptor
6 10 15 17 18 22 23 rings
6 9 11 12 19 20 21 rings

> <PUBCHEM_HEAVY_ATOM_COUNT>
24

> <PUBCHEM_ATOM_DEF_STEREO_COUNT>
0

> <PUBCHEM_ATOM_UDEF_STEREO_COUNT>
0

> <PUBCHEM_BOND_DEF_STEREO_COUNT>
1

> <PUBCHEM_BOND_UDEF_STEREO_COUNT>
0

> <PUBCHEM_ISOTOPIC_ATOM_COUNT>
0

> <PUBCHEM_COMPONENT_COUNT>
1

> <PUBCHEM_CACTVS_TAUTO_COUNT>
2

> <PUBCHEM_CONFORMER_ID>
00242BD100000001

> <PUBCHEM_MMFF94_ENERGY>
62.2852

> <PUBCHEM_FEATURE_SELFOVERLAP>
40.679

> <PUBCHEM_SHAPE_FINGERPRINT>
10498660 4 12252188455116076844
10595046 47 18337959003291294256
10670039 82 13695866974982867846
10692045 39 12247413258889784924
11796584 16 18342741797172146256
12107183 9 18267592303570752801
12596602 18 18131631184268378624
13167823 11 18411138077745800681
13533116 47 18339643467857567256
1361 4 18266743673862310907
13782708 43 18409166614636776687
13911987 19 14562531773753937737
14211702 104 18338519750031702275
14251751 18 18412261727295255154
14251764 30 18410292489132472852
14347332 77 18410009962084128785
14420673 8 18341052908609963643
14739800 52 9367072107878165814
14840074 17 17313110726142717975
14910302 57 18334003999852050368
15183329 4 18260548905017905457
15475509 35 18130502049966416234
15575132 122 11530486618407653163
17857418 61 18408041810147061256
17959699 21 8286207140889989188
20028762 73 18341049628078388914
20567600 247 18335138674751411050
21585483 132 18336811052933125162
21641784 216 14707196700147126607
22950370 63 18408044004923250916
23522609 53 18048351957035588612
23559900 14 18341887545916471793
25122255 55 18201167601974695631
2916195 48 11095884856509682641
3004659 81 18114466674203705856
44062 13 18410856547034696513
465052 167 18343869909562009972
5104073 3 17775571952509789745
531348 171 18261393287557747913
543368 44 9295281734242472923
559249 180 18412544280588293049
5718773 13 17987229105652831495
7808743 9 8790623480958618951
7970288 3 18267585715702655002
8863177 126 18342455946172172730
960060 61 17676215671530638580

> <PUBCHEM_SHAPE_MULTIPOLES>
463.23
17.3
2.89
1.35
5.03
2.41
0.47
13.67
-0.03
-0.76
0.1
0.79
-0.49
-0.73

> <PUBCHEM_SHAPE_SELFOVERLAP>
980.711

> <PUBCHEM_SHAPE_VOLUME>
258.6

> <PUBCHEM_COORDINATE_TYPE>
2
5
10

$$$$
