49791136
  -OEChem-01171810193D

 60 63  0     0  0  0  0  0  0999 V2000
    3.7760   -3.5065    0.1114 F   0  0  0  0  0  0  0  0  0  0  0  0
    2.6813   -3.2861   -1.7543 F   0  0  0  0  0  0  0  0  0  0  0  0
    2.9547   -1.5736   -0.4519 F   0  0  0  0  0  0  0  0  0  0  0  0
    2.9340    4.2577    0.3479 O   0  0  0  0  0  0  0  0  0  0  0  0
   -5.8146    2.7074   -1.1221 O   0  0  0  0  0  0  0  0  0  0  0  0
   -2.5372   -1.1719   -0.0119 N   0  0  0  0  0  0  0  0  0  0  0  0
   -4.3544   -2.2683   -0.7125 N   0  0  0  0  0  0  0  0  0  0  0  0
   -5.6443    0.3708   -1.1201 N   0  0  0  0  0  0  0  0  0  0  0  0
    2.8151    1.9639    0.6661 N   0  0  0  0  0  0  0  0  0  0  0  0
    6.0925    1.1966   -0.9281 N   0  0  0  0  0  0  0  0  0  0  0  0
   -2.2380   -2.5084    0.0619 C   0  0  0  0  0  0  0  0  0  0  0  0
   -3.8396   -1.0748   -0.4907 C   0  0  0  0  0  0  0  0  0  0  0  0
   -2.2371    1.1743    0.1622 C   0  0  0  0  0  0  0  0  0  0  0  0
   -1.7441   -0.0735    0.3097 C   0  0  0  0  0  0  0  0  0  0  0  0
   -4.3695    0.2395   -0.6523 C   0  0  0  0  0  0  0  0  0  0  0  0
   -3.6093    1.3093   -0.3429 C   0  0  0  0  0  0  0  0  0  0  0  0
   -1.3861    2.3322    0.4973 C   0  0  0  0  0  0  0  0  0  0  0  0
   -0.9785   -3.0523    0.5124 C   0  0  0  0  0  0  0  0  0  0  0  0
   -3.3685   -3.1583   -0.3724 C   0  0  0  0  0  0  0  0  0  0  0  0
   -0.0006    2.2406    0.3644 C   0  0  0  0  0  0  0  0  0  0  0  0
    0.8045    3.3348    0.6815 C   0  0  0  0  0  0  0  0  0  0  0  0
    0.2009   -2.7300   -0.1590 C   0  0  0  0  0  0  0  0  0  0  0  0
   -1.9666    3.5181    0.9474 C   0  0  0  0  0  0  0  0  0  0  0  0
   -0.9414   -3.9001    1.6195 C   0  0  0  0  0  0  0  0  0  0  0  0
    4.2348    1.7084    0.5774 C   0  0  0  0  0  0  0  0  0  0  0  0
    4.6548    1.4230   -0.8569 C   0  0  0  0  0  0  0  0  0  0  0  0
    1.4175   -3.2553    0.2766 C   0  0  0  0  0  0  0  0  0  0  0  0
    0.2239    4.5206    1.1317 C   0  0  0  0  0  0  0  0  0  0  0  0
   -1.1616    4.6122    1.2648 C   0  0  0  0  0  0  0  0  0  0  0  0
    2.2491    3.2383    0.5440 C   0  0  0  0  0  0  0  0  0  0  0  0
    0.2751   -4.4257    2.0550 C   0  0  0  0  0  0  0  0  0  0  0  0
    1.4546   -4.1030    1.3838 C   0  0  0  0  0  0  0  0  0  0  0  0
    2.6790   -2.9113   -0.4408 C   0  0  0  0  0  0  0  0  0  0  0  0
    6.4236   -0.1620   -0.4937 C   0  0  0  0  0  0  0  0  0  0  0  0
    6.5850    1.4280   -2.2876 C   0  0  0  0  0  0  0  0  0  0  0  0
   -6.2649    1.5853   -1.3178 C   0  0  0  0  0  0  0  0  0  0  0  0
   -0.7596   -0.2868    0.7058 H   0  0  0  0  0  0  0  0  0  0  0  0
   -3.9043    2.3359   -0.4664 H   0  0  0  0  0  0  0  0  0  0  0  0
   -3.5280   -4.2238   -0.4605 H   0  0  0  0  0  0  0  0  0  0  0  0
    0.4479    1.3439   -0.0529 H   0  0  0  0  0  0  0  0  0  0  0  0
    0.1834   -2.0778   -1.0300 H   0  0  0  0  0  0  0  0  0  0  0  0
   -3.0389    3.6206    1.0889 H   0  0  0  0  0  0  0  0  0  0  0  0
   -1.8500   -4.1605    2.1573 H   0  0  0  0  0  0  0  0  0  0  0  0
    4.7754    2.5752    0.9751 H   0  0  0  0  0  0  0  0  0  0  0  0
    4.4306    0.8569    1.2361 H   0  0  0  0  0  0  0  0  0  0  0  0
    4.0829    0.5876   -1.2811 H   0  0  0  0  0  0  0  0  0  0  0  0
    4.3847    2.3042   -1.4552 H   0  0  0  0  0  0  0  0  0  0  0  0
   -6.1623   -0.4776   -1.3338 H   0  0  0  0  0  0  0  0  0  0  0  0
    0.8336    5.3826    1.3898 H   0  0  0  0  0  0  0  0  0  0  0  0
   -1.6129    5.5333    1.6221 H   0  0  0  0  0  0  0  0  0  0  0  0
    2.2301    1.1647    0.8848 H   0  0  0  0  0  0  0  0  0  0  0  0
    0.3040   -5.0853    2.9174 H   0  0  0  0  0  0  0  0  0  0  0  0
    2.3916   -4.5226    1.7395 H   0  0  0  0  0  0  0  0  0  0  0  0
    5.9342   -0.9256   -1.1097 H   0  0  0  0  0  0  0  0  0  0  0  0
    7.6697    1.2802   -2.3349 H   0  0  0  0  0  0  0  0  0  0  0  0
    6.1128    0.7594   -3.0166 H   0  0  0  0  0  0  0  0  0  0  0  0
    6.3989    2.4632   -2.5951 H   0  0  0  0  0  0  0  0  0  0  0  0
    7.5061   -0.3253   -0.5492 H   0  0  0  0  0  0  0  0  0  0  0  0
    6.1472   -0.3319    0.5513 H   0  0  0  0  0  0  0  0  0  0  0  0
   -7.2885    1.4358   -1.7001 H   0  0  0  0  0  0  0  0  0  0  0  0
  1 33  1  0  0  0  0
  2 33  1  0  0  0  0
  3 33  1  0  0  0  0
  4 30  2  0  0  0  0
  5 36  2  0  0  0  0
  6 11  1  0  0  0  0
  6 12  1  0  0  0  0
  6 14  1  0  0  0  0
  7 12  2  0  0  0  0
  7 19  1  0  0  0  0
  8 15  1  0  0  0  0
  8 36  1  0  0  0  0
  8 48  1  0  0  0  0
  9 25  1  0  0  0  0
  9 30  1  0  0  0  0
  9 51  1  0  0  0  0
 10 26  1  0  0  0  0
 10 34  1  0  0  0  0
 10 35  1  0  0  0  0
 11 18  1  0  0  0  0
 11 19  2  0  0  0  0
 12 15  1  0  0  0  0
 13 14  2  0  0  0  0
 13 16  1  0  0  0  0
 13 17  1  0  0  0  0
 14 37  1  0  0  0  0
 15 16  2  0  0  0  0
 16 38  1  0  0  0  0
 17 20  2  0  0  0  0
 17 23  1  0  0  0  0
 18 22  2  0  0  0  0
 18 24  1  0  0  0  0
 19 39  1  0  0  0  0
 20 21  1  0  0  0  0
 20 40  1  0  0  0  0
 21 28  2  0  0  0  0
 21 30  1  0  0  0  0
 22 27  1  0  0  0  0
 22 41  1  0  0  0  0
 23 29  2  0  0  0  0
 23 42  1  0  0  0  0
 24 31  2  0  0  0  0
 24 43  1  0  0  0  0
 25 26  1  0  0  0  0
 25 44  1  0  0  0  0
 25 45  1  0  0  0  0
 26 46  1  0  0  0  0
 26 47  1  0  0  0  0
 27 32  2  0  0  0  0
 27 33  1  0  0  0  0
 28 29  1  0  0  0  0
 28 49  1  0  0  0  0
 29 50  1  0  0  0  0
 31 32  1  0  0  0  0
 31 52  1  0  0  0  0
 32 53  1  0  0  0  0
 34 54  1  0  0  0  0
 34 58  1  0  0  0  0
 34 59  1  0  0  0  0
 35 55  1  0  0  0  0
 35 56  1  0  0  0  0
 35 57  1  0  0  0  0
 36 60  1  0  0  0  0
M  END
> <PUBCHEM_COMPOUND_CID>
49791136

> <PUBCHEM_CONFORMER_RMSD>
1

> <PUBCHEM_CONFORMER_DIVERSEORDER>
1
47
60
81
99
93
105
2
84
121
3
63
57
68
89
107
75
86
94
106
70
118
101
82
34
114
54
69
66
92
108
52
97
83
32
58
42
98
85
87
117
91
90
88
50
30
14
120
44
27
95
102
26
116
38
115
119
65
35
56
67
109
74
20
103
17
110
79
45
12
7
40
15
78
113
37
49
51
104
73
9
36
80
77
28
19
96
39
24
62
10
71
23
11
16
64
112
55
59
61
33
25
72
4
18
46
22
8
21
13
29
41
111
48
31
6
76
100
5
43
53

> <PUBCHEM_MMFF94_PARTIAL_CHARGES>
50
1 -0.34
10 -0.81
11 -0.2
12 0.14
13 -0.03
14 -0.18
15 0.15
16 -0.15
17 0.03
18 0.05
19 0.08
2 -0.34
20 -0.15
21 0.09
22 -0.15
23 -0.15
24 -0.15
25 0.3
26 0.27
27 -0.14
28 -0.15
29 -0.15
3 -0.34
30 0.54
31 -0.15
32 -0.15
33 1.16
34 0.27
35 0.27
36 0.57
37 0.15
38 0.15
39 0.15
4 -0.57
40 0.15
41 0.15
42 0.15
43 0.15
48 0.37
49 0.15
5 -0.57
50 0.15
51 0.37
52 0.15
53 0.15
6 0.33
60 0.06
7 -0.57
8 -0.54
9 -0.73

> <PUBCHEM_EFFECTIVE_ROTOR_COUNT>
10

> <PUBCHEM_PHARMACOPHORE_FEATURES>
10
1 10 cation
1 4 acceptor
1 5 acceptor
1 8 donor
1 9 donor
3 6 7 12 cation
5 6 7 11 12 19 rings
6 17 20 21 23 28 29 rings
6 18 22 24 27 31 32 rings
6 6 12 13 14 15 16 rings

> <PUBCHEM_HEAVY_ATOM_COUNT>
36

> <PUBCHEM_ATOM_DEF_STEREO_COUNT>
0

> <PUBCHEM_ATOM_UDEF_STEREO_COUNT>
0

> <PUBCHEM_BOND_DEF_STEREO_COUNT>
0

> <PUBCHEM_BOND_UDEF_STEREO_COUNT>
0

> <PUBCHEM_ISOTOPIC_ATOM_COUNT>
0

> <PUBCHEM_COMPONENT_COUNT>
1

> <PUBCHEM_CACTVS_TAUTO_COUNT>
4

> <PUBCHEM_CONFORMER_ID>
02F7C0A000000001

> <PUBCHEM_MMFF94_ENERGY>
97.1047

> <PUBCHEM_FEATURE_SELFOVERLAP>
50.86

> <PUBCHEM_SHAPE_FINGERPRINT>
10190206 1 18268169659762031908
10653451 467 18045801232388896027
10675989 125 18411972555769727665
12788726 201 17836357152267552659
12978246 48 16032393741011447562
13402501 40 18196938983802761758
14040222 75 18342181124664273588
14725015 67 17760916733859025027
14931854 50 18341056229115328932
15160629 131 17775295923683245495
15320467 1 18412545375615114400
15351339 4 18337946805900067945
15927050 60 18339632439399623759
16067689 391 17554933947245879222
17627616 140 18335136454074094394
20642791 35 18268422448029595363
20764821 26 18194125110277425752
21133410 230 17824851041897510459
21792965 11 18263645069568994876
23559900 14 18270673306945451225
325973 47 18123756615149998248
3298306 158 18339634654869220149
437795 96 17260184922797413568
4394409 98 18259988188711735924
4461854 278 14805740881080090552
474144 1 17896299386381434354
5265222 85 18188777287183330133
6036956 94 18263935357824338709

> <PUBCHEM_SHAPE_MULTIPOLES>
682.4
12.3
8.05
1.46
7.49
1.19
0.1
-5.45
9.11
1.12
-3.98
0.67
0.27
0.4

> <PUBCHEM_SHAPE_SELFOVERLAP>
1490.801

> <PUBCHEM_SHAPE_VOLUME>
373.3

> <PUBCHEM_COORDINATE_TYPE>
2
5
10

$$$$
