46902471
  -OEChem-01171810173D

 63 68  0     1  0  0  0  0  0999 V2000
   -2.2180   -0.1793   -1.9018 S   0  0  0  0  0  0  0  0  0  0  0  0
   -6.2768    3.5682    1.3157 F   0  0  0  0  0  0  0  0  0  0  0  0
   -4.3269    3.0217    2.1074 F   0  0  0  0  0  0  0  0  0  0  0  0
   -4.4665    4.3423    0.3928 F   0  0  0  0  0  0  0  0  0  0  0  0
   -0.2253   -4.7495    0.3316 O   0  0  0  0  0  0  0  0  0  0  0  0
   -2.4763   -0.8989   -3.1268 O   0  0  0  0  0  0  0  0  0  0  0  0
   -1.2481    0.8892   -1.8460 O   0  0  0  0  0  0  0  0  0  0  0  0
    4.9981    0.0293   -0.5717 O   0  0  0  0  0  0  0  0  0  0  0  0
   -1.8559   -1.3124   -0.6638 N   0  0  1  0  0  0  0  0  0  0  0  0
   -0.0421   -3.5724    1.1733 N   0  0  1  0  0  0  0  0  0  0  0  0
   -2.2361   -3.5709    0.2701 C   0  0  1  0  0  0  0  0  0  0  0  0
   -1.4176   -3.1747    1.4985 C   0  0  2  0  0  0  0  0  0  0  0  0
   -1.5428   -1.6827    1.8185 C   0  0  0  0  0  0  0  0  0  0  0  0
   -1.2978   -0.7416    0.6165 C   0  0  1  0  0  0  0  0  0  0  0  0
   -2.8589   -2.3966   -0.4799 C   0  0  0  0  0  0  0  0  0  0  0  0
   -1.2658   -4.3829   -0.5719 C   0  0  0  0  0  0  0  0  0  0  0  0
    0.1647   -0.3316    0.5151 C   0  0  0  0  0  0  0  0  0  0  0  0
    0.6857   -4.0484    2.3431 C   0  0  0  0  0  0  0  0  0  0  0  0
   -3.7545    0.4417   -1.2983 C   0  0  0  0  0  0  0  0  0  0  0  0
    0.6289    0.7767    1.2236 C   0  0  0  0  0  0  0  0  0  0  0  0
    1.0406   -1.0642   -0.2861 C   0  0  0  0  0  0  0  0  0  0  0  0
    1.9690    1.1523    1.1310 C   0  0  0  0  0  0  0  0  0  0  0  0
    2.3808   -0.6885   -0.3787 C   0  0  0  0  0  0  0  0  0  0  0  0
   -3.7746    1.5457   -0.4462 C   0  0  0  0  0  0  0  0  0  0  0  0
   -4.9499   -0.1715   -1.6738 C   0  0  0  0  0  0  0  0  0  0  0  0
    2.8450    0.4197    0.3300 C   0  0  0  0  0  0  0  0  0  0  0  0
   -4.9900    2.0364    0.0309 C   0  0  0  0  0  0  0  0  0  0  0  0
   -6.1653    0.3192   -1.1965 C   0  0  0  0  0  0  0  0  0  0  0  0
    4.2306    0.8085    0.2342 C   0  0  0  0  0  0  0  0  0  0  0  0
   -6.1854    1.4232   -0.3443 C   0  0  0  0  0  0  0  0  0  0  0  0
   -5.0120    3.2169    0.9420 C   0  0  0  0  0  0  0  0  0  0  0  0
    4.9788    1.8207    0.7895 C   0  0  0  0  0  0  0  0  0  0  0  0
    6.3000    1.6592    0.2956 C   0  0  0  0  0  0  0  0  0  0  0  0
    6.2590    0.5450   -0.5364 C   0  0  0  0  0  0  0  0  0  0  0  0
    7.5244    2.3304    0.4592 C   0  0  0  0  0  0  0  0  0  0  0  0
    7.3615    0.0438   -1.2263 C   0  0  0  0  0  0  0  0  0  0  0  0
    8.6513    1.8494   -0.2215 C   0  0  0  0  0  0  0  0  0  0  0  0
    8.5686    0.7266   -1.0488 C   0  0  0  0  0  0  0  0  0  0  0  0
   -3.0464   -4.2413    0.5869 H   0  0  0  0  0  0  0  0  0  0  0  0
   -1.7912   -3.7501    2.3570 H   0  0  0  0  0  0  0  0  0  0  0  0
   -2.5701   -1.5134    2.1724 H   0  0  0  0  0  0  0  0  0  0  0  0
   -0.8975   -1.4159    2.6652 H   0  0  0  0  0  0  0  0  0  0  0  0
   -1.8624    0.1677    0.8482 H   0  0  0  0  0  0  0  0  0  0  0  0
   -3.7119   -2.0180    0.0943 H   0  0  0  0  0  0  0  0  0  0  0  0
   -3.2290   -2.7517   -1.4473 H   0  0  0  0  0  0  0  0  0  0  0  0
   -0.8325   -3.8207   -1.4063 H   0  0  0  0  0  0  0  0  0  0  0  0
   -1.7328   -5.2885   -0.9708 H   0  0  0  0  0  0  0  0  0  0  0  0
    0.8013   -3.2456    3.0788 H   0  0  0  0  0  0  0  0  0  0  0  0
    0.1926   -4.8980    2.8292 H   0  0  0  0  0  0  0  0  0  0  0  0
    1.6936   -4.3625    2.0515 H   0  0  0  0  0  0  0  0  0  0  0  0
   -0.0432    1.3547    1.8522 H   0  0  0  0  0  0  0  0  0  0  0  0
    0.7055   -1.9179   -0.8662 H   0  0  0  0  0  0  0  0  0  0  0  0
    2.3004    2.0201    1.6952 H   0  0  0  0  0  0  0  0  0  0  0  0
    3.0310   -1.2815   -1.0166 H   0  0  0  0  0  0  0  0  0  0  0  0
   -2.8526    2.0396   -0.1511 H   0  0  0  0  0  0  0  0  0  0  0  0
   -4.9597   -1.0322   -2.3363 H   0  0  0  0  0  0  0  0  0  0  0  0
   -7.0959   -0.1585   -1.4885 H   0  0  0  0  0  0  0  0  0  0  0  0
   -7.1426    1.7897    0.0161 H   0  0  0  0  0  0  0  0  0  0  0  0
    4.6317    2.5878    1.4679 H   0  0  0  0  0  0  0  0  0  0  0  0
    7.6038    3.2044    1.0986 H   0  0  0  0  0  0  0  0  0  0  0  0
    7.2895   -0.8277   -1.8659 H   0  0  0  0  0  0  0  0  0  0  0  0
    9.6041    2.3592   -0.1033 H   0  0  0  0  0  0  0  0  0  0  0  0
    9.4594    0.3764   -1.5645 H   0  0  0  0  0  0  0  0  0  0  0  0
  1  6  2  0  0  0  0
  1  7  2  0  0  0  0
  1  9  1  0  0  0  0
  1 19  1  0  0  0  0
  2 31  1  0  0  0  0
  3 31  1  0  0  0  0
  4 31  1  0  0  0  0
  5 10  1  0  0  0  0
  5 16  1  0  0  0  0
  8 29  1  0  0  0  0
  8 34  1  0  0  0  0
  9 14  1  0  0  0  0
  9 15  1  0  0  0  0
 10 12  1  0  0  0  0
 10 18  1  0  0  0  0
 11 12  1  0  0  0  0
 11 15  1  0  0  0  0
 11 16  1  0  0  0  0
 11 39  1  0  0  0  0
 12 13  1  0  0  0  0
 12 40  1  0  0  0  0
 13 14  1  0  0  0  0
 13 41  1  0  0  0  0
 13 42  1  0  0  0  0
 14 17  1  0  0  0  0
 14 43  1  0  0  0  0
 15 44  1  0  0  0  0
 15 45  1  0  0  0  0
 16 46  1  0  0  0  0
 16 47  1  0  0  0  0
 17 20  2  0  0  0  0
 17 21  1  0  0  0  0
 18 48  1  0  0  0  0
 18 49  1  0  0  0  0
 18 50  1  0  0  0  0
 19 24  1  0  0  0  0
 19 25  2  0  0  0  0
 20 22  1  0  0  0  0
 20 51  1  0  0  0  0
 21 23  2  0  0  0  0
 21 52  1  0  0  0  0
 22 26  2  0  0  0  0
 22 53  1  0  0  0  0
 23 26  1  0  0  0  0
 23 54  1  0  0  0  0
 24 27  2  0  0  0  0
 24 55  1  0  0  0  0
 25 28  1  0  0  0  0
 25 56  1  0  0  0  0
 26 29  1  0  0  0  0
 27 30  1  0  0  0  0
 27 31  1  0  0  0  0
 28 30  2  0  0  0  0
 28 57  1  0  0  0  0
 29 32  2  0  0  0  0
 30 58  1  0  0  0  0
 32 33  1  0  0  0  0
 32 59  1  0  0  0  0
 33 34  1  0  0  0  0
 33 35  2  0  0  0  0
 34 36  2  0  0  0  0
 35 37  1  0  0  0  0
 35 60  1  0  0  0  0
 36 38  1  0  0  0  0
 36 61  1  0  0  0  0
 37 38  2  0  0  0  0
 37 62  1  0  0  0  0
 38 63  1  0  0  0  0
M  END
> <PUBCHEM_COMPOUND_CID>
46902471

> <PUBCHEM_CONFORMER_RMSD>
1

> <PUBCHEM_CONFORMER_DIVERSEORDER>
3
77
21
37
76
51
31
42
56
80
81
5
58
67
30
75
34
48
78
8
79
71
40
69
32
9
24
23
35
53
45
50
60
83
18
44
62
25
43
27
57
10
59
84
61
28
26
66
65
20
47
46
68
29
22
70
19
82
64
49
33
72
1
73
13
63
54
14
55
41
39
6
36
38
2
15
52
11
74
7
16
4
12
17

> <PUBCHEM_MMFF94_PARTIAL_CHARGES>
48
1 1.45
10 -0.64
12 0.27
14 0.5
15 0.36
16 0.28
17 -0.14
18 0.27
19 -0.01
2 -0.34
20 -0.15
21 -0.15
22 -0.15
23 -0.15
24 -0.15
25 -0.15
26 0.05
27 -0.14
28 -0.15
29 0.09
3 -0.34
30 -0.15
31 1.16
32 -0.15
34 0.14
35 -0.15
36 -0.15
37 -0.15
38 -0.15
4 -0.34
5 -0.18
51 0.15
52 0.15
53 0.15
54 0.15
55 0.15
56 0.15
57 0.15
58 0.15
59 0.15
6 -0.65
60 0.15
61 0.15
62 0.15
63 0.15
7 -0.65
8 -0.28
9 -0.85

> <PUBCHEM_EFFECTIVE_ROTOR_COUNT>
6.4

> <PUBCHEM_PHARMACOPHORE_FEATURES>
9
1 6 acceptor
1 7 acceptor
1 8 acceptor
5 5 10 11 12 16 rings
5 8 29 32 33 34 rings
6 17 20 21 22 23 26 rings
6 19 24 25 27 28 30 rings
6 33 34 35 36 37 38 rings
6 9 11 12 13 14 15 rings

> <PUBCHEM_HEAVY_ATOM_COUNT>
38

> <PUBCHEM_ATOM_DEF_STEREO_COUNT>
3

> <PUBCHEM_ATOM_UDEF_STEREO_COUNT>
0

> <PUBCHEM_BOND_DEF_STEREO_COUNT>
0

> <PUBCHEM_BOND_UDEF_STEREO_COUNT>
0

> <PUBCHEM_ISOTOPIC_ATOM_COUNT>
0

> <PUBCHEM_COMPONENT_COUNT>
1

> <PUBCHEM_CACTVS_TAUTO_COUNT>
1

> <PUBCHEM_CONFORMER_ID>
02CBACC700000003

> <PUBCHEM_MMFF94_ENERGY>
84.0774

> <PUBCHEM_FEATURE_SELFOVERLAP>
46.038

> <PUBCHEM_SHAPE_FINGERPRINT>
10 15 14779264211755481804
10165383 225 18333726919058984709
10190206 1 18412818110713393927
10369192 42 18113613470086238181
10675989 125 18265899043248210098
11007060 377 18343584057644632697
11200772 48 18272090513045080782
11434127 23 18271802441600153455
11578821 258 18120655988973415404
1200032 147 17488472858723988601
13383668 90 17632293501541521861
13690498 29 16987701562936223549
14340393 91 17060337439961143864
14664723 55 18261116296495285348
14790565 3 18339357440431683737
15064981 194 18190469444109980397
15183329 4 17632856412866519180
15361156 5 18057600061253284772
16112460 7 18334289834457638290
16628084 112 18122909720692733896
19304152 47 18263090925138072809
21033650 10 17989201560080927889
21424621 283 18410576150005242728
21756936 100 18412263939361908521
21927370 108 17241612908721146395
23198884 109 18342735225888176637
23569914 152 16983796939859715092
249057 3 18114460167006830684
38570 142 18340486677527978753
397830 11 10881394345168073108
4058900 60 18338517434975484827
4073 2 18338796832042417188
4098825 35 18060138700462958804
4144715 1 18120098536091679936
4516262 110 18265329509442551885
469060 322 16226037934300854335
508180 173 17346876762770682896
5265222 85 18044380659102145326
563151 40 18187365454192106986
57527295 17 18201988946025268894
5776283 40 18201433718217285265
59755656 520 18334570248266261814
6703917 75 18335711554484454719
9953998 17 12035724306283746933

> <PUBCHEM_SHAPE_MULTIPOLES>
730.61
19.82
5.13
1.89
40.26
4.14
0.28
-21.86
4.74
-7.68
-2.99
-1.79
0.36
-1.23

> <PUBCHEM_SHAPE_SELFOVERLAP>
1607.233

> <PUBCHEM_SHAPE_VOLUME>
399.1

> <PUBCHEM_COORDINATE_TYPE>
2
5
10

$$$$
