1274511
  -OEChem-01171809293D

 48 49  0     0  0  0  0  0  0999 V2000
    1.7419   -2.3149   -0.2641 O   0  0  0  0  0  0  0  0  0  0  0  0
    0.6791   -0.3835   -1.9559 O   0  0  0  0  0  0  0  0  0  0  0  0
   -3.6647    2.2061   -0.3628 O   0  0  0  0  0  0  0  0  0  0  0  0
   -6.2073    1.3726    0.4547 O   0  0  0  0  0  0  0  0  0  0  0  0
    6.2796    2.9978    0.2163 O   0  5  0  0  0  0  0  0  0  0  0  0
    7.6734    1.4073   -0.3726 O   0  0  0  0  0  0  0  0  0  0  0  0
   -2.7159    1.2535    1.5159 O   0  0  0  0  0  0  0  0  0  0  0  0
   -6.5267   -0.8237   -0.1668 O   0  0  0  0  0  0  0  0  0  0  0  0
    6.5433    1.7868    0.0194 N   0  3  0  0  0  0  0  0  0  0  0  0
    0.4116   -2.0234   -0.2327 C   0  0  0  0  0  0  0  0  0  0  0  0
    2.4777   -2.1152    0.9413 C   0  0  0  0  0  0  0  0  0  0  0  0
    3.5460   -1.0898    0.6989 C   0  0  0  0  0  0  0  0  0  0  0  0
   -0.1218   -1.0529   -1.0808 C   0  0  0  0  0  0  0  0  0  0  0  0
   -2.3158   -1.4426   -0.1471 C   0  0  0  0  0  0  0  0  0  0  0  0
   -1.4856   -0.7627   -1.0381 C   0  0  0  0  0  0  0  0  0  0  0  0
   -0.4188   -2.7035    0.6582 C   0  0  0  0  0  0  0  0  0  0  0  0
   -1.7824   -2.4130    0.7012 C   0  0  0  0  0  0  0  0  0  0  0  0
    4.8095   -1.4888    0.2628 C   0  0  0  0  0  0  0  0  0  0  0  0
    3.2756    0.2623    0.9094 C   0  0  0  0  0  0  0  0  0  0  0  0
   -3.7529   -1.1364   -0.1017 C   0  0  0  0  0  0  0  0  0  0  0  0
    5.5323    0.8166    0.2475 C   0  0  0  0  0  0  0  0  0  0  0  0
    5.8026   -0.5356    0.0369 C   0  0  0  0  0  0  0  0  0  0  0  0
    4.2689    1.2154    0.6838 C   0  0  0  0  0  0  0  0  0  0  0  0
   -4.3125    0.0547    0.1821 C   0  0  0  0  0  0  0  0  0  0  0  0
    0.0563    0.5931   -2.7880 C   0  0  0  0  0  0  0  0  0  0  0  0
   -3.4667    1.2200    0.5528 C   0  0  0  0  0  0  0  0  0  0  0  0
   -5.8013    0.1177    0.1196 C   0  0  0  0  0  0  0  0  0  0  0  0
   -2.9021    3.3991   -0.1553 C   0  0  0  0  0  0  0  0  0  0  0  0
   -7.6232    1.5831    0.4652 C   0  0  0  0  0  0  0  0  0  0  0  0
    1.8466   -1.7990    1.7828 H   0  0  0  0  0  0  0  0  0  0  0  0
    2.9247   -3.0740    1.2295 H   0  0  0  0  0  0  0  0  0  0  0  0
   -1.9513   -0.0264   -1.6853 H   0  0  0  0  0  0  0  0  0  0  0  0
   -0.0184   -3.4685    1.3181 H   0  0  0  0  0  0  0  0  0  0  0  0
   -2.4174   -2.9523    1.3999 H   0  0  0  0  0  0  0  0  0  0  0  0
    5.0313   -2.5391    0.0934 H   0  0  0  0  0  0  0  0  0  0  0  0
    2.2942    0.5850    1.2469 H   0  0  0  0  0  0  0  0  0  0  0  0
   -4.3754   -1.9985   -0.3348 H   0  0  0  0  0  0  0  0  0  0  0  0
    6.7750   -0.8830   -0.3029 H   0  0  0  0  0  0  0  0  0  0  0  0
    4.0221    2.2596    0.8579 H   0  0  0  0  0  0  0  0  0  0  0  0
    0.8411    1.0288   -3.4153 H   0  0  0  0  0  0  0  0  0  0  0  0
   -0.3702    1.4127   -2.1995 H   0  0  0  0  0  0  0  0  0  0  0  0
   -0.6754    0.1394   -3.4652 H   0  0  0  0  0  0  0  0  0  0  0  0
   -3.1538    4.1061   -0.9503 H   0  0  0  0  0  0  0  0  0  0  0  0
   -1.8318    3.1775   -0.2080 H   0  0  0  0  0  0  0  0  0  0  0  0
   -3.1573    3.8490    0.8090 H   0  0  0  0  0  0  0  0  0  0  0  0
   -7.8099    2.6226    0.7475 H   0  0  0  0  0  0  0  0  0  0  0  0
   -8.0978    0.9281    1.2020 H   0  0  0  0  0  0  0  0  0  0  0  0
   -8.0390    1.4097   -0.5319 H   0  0  0  0  0  0  0  0  0  0  0  0
  1 10  1  0  0  0  0
  1 11  1  0  0  0  0
  2 13  1  0  0  0  0
  2 25  1  0  0  0  0
  3 26  1  0  0  0  0
  3 28  1  0  0  0  0
  4 27  1  0  0  0  0
  4 29  1  0  0  0  0
  5  9  1  0  0  0  0
  6  9  2  0  0  0  0
  7 26  2  0  0  0  0
  8 27  2  0  0  0  0
  9 21  1  0  0  0  0
 10 13  2  0  0  0  0
 10 16  1  0  0  0  0
 11 12  1  0  0  0  0
 11 30  1  0  0  0  0
 11 31  1  0  0  0  0
 12 18  2  0  0  0  0
 12 19  1  0  0  0  0
 13 15  1  0  0  0  0
 14 15  2  0  0  0  0
 14 17  1  0  0  0  0
 14 20  1  0  0  0  0
 15 32  1  0  0  0  0
 16 17  2  0  0  0  0
 16 33  1  0  0  0  0
 17 34  1  0  0  0  0
 18 22  1  0  0  0  0
 18 35  1  0  0  0  0
 19 23  2  0  0  0  0
 19 36  1  0  0  0  0
 20 24  2  0  0  0  0
 20 37  1  0  0  0  0
 21 22  2  0  0  0  0
 21 23  1  0  0  0  0
 22 38  1  0  0  0  0
 23 39  1  0  0  0  0
 24 26  1  0  0  0  0
 24 27  1  0  0  0  0
 25 40  1  0  0  0  0
 25 41  1  0  0  0  0
 25 42  1  0  0  0  0
 28 43  1  0  0  0  0
 28 44  1  0  0  0  0
 28 45  1  0  0  0  0
 29 46  1  0  0  0  0
 29 47  1  0  0  0  0
 29 48  1  0  0  0  0
M  CHG  2   5  -1   9   1
M  END
> <PUBCHEM_COMPOUND_CID>
1274511

> <PUBCHEM_CONFORMER_RMSD>
1

> <PUBCHEM_CONFORMER_DIVERSEORDER>
4
19
135
131
10
115
127
93
31
27
118
88
84
134
62
119
105
41
77
112
54
33
49
14
30
113
94
37
66
91
29
114
122
55
100
98
90
47
86
121
102
58
69
97
35
67
117
132
76
9
72
70
87
44
8
56
1
7
79
11
104
64
101
20
65
71
123
60
99
80
125
23
103
116
107
57
40
108
130
133
81
68
120
78
28
15
75
13
124
89
36
18
48
50
32
3
126
129
52
110
96
2
45
73
39
111
43
59
46
16
92
106
74
5
38
85
128
6
95
21
34
24
42
53
51
26
82
61
109
12
63
83
25
17
22

> <PUBCHEM_MMFF94_PARTIAL_CHARGES>
37
1 -0.36
10 0.08
11 0.42
12 -0.14
13 0.08
14 0.03
15 -0.15
16 -0.15
17 -0.15
18 -0.15
19 -0.15
2 -0.36
20 -0.18
21 0.13
22 -0.15
23 -0.15
24 0.03
25 0.28
26 0.71
27 0.71
28 0.28
29 0.28
3 -0.43
32 0.15
33 0.15
34 0.15
35 0.15
36 0.15
37 0.15
38 0.15
39 0.15
4 -0.43
5 -0.52
6 -0.52
7 -0.57
8 -0.57
9 0.91

> <PUBCHEM_EFFECTIVE_ROTOR_COUNT>
10

> <PUBCHEM_PHARMACOPHORE_FEATURES>
10
1 1 acceptor
1 2 acceptor
1 24 anion
1 5 acceptor
1 5 anion
1 6 acceptor
1 7 acceptor
1 8 acceptor
6 10 13 14 15 16 17 rings
6 12 18 19 21 22 23 rings

> <PUBCHEM_HEAVY_ATOM_COUNT>
29

> <PUBCHEM_ATOM_DEF_STEREO_COUNT>
0

> <PUBCHEM_ATOM_UDEF_STEREO_COUNT>
0

> <PUBCHEM_BOND_DEF_STEREO_COUNT>
0

> <PUBCHEM_BOND_UDEF_STEREO_COUNT>
0

> <PUBCHEM_ISOTOPIC_ATOM_COUNT>
0

> <PUBCHEM_COMPONENT_COUNT>
1

> <PUBCHEM_CACTVS_TAUTO_COUNT>
1

> <PUBCHEM_CONFORMER_ID>
0013728F00000004

> <PUBCHEM_MMFF94_ENERGY>
106.2117

> <PUBCHEM_FEATURE_SELFOVERLAP>
50.836

> <PUBCHEM_SHAPE_FINGERPRINT>
10 15 18113901567385599691
10693767 8 10015570689070255293
11578080 2 17971740087709807509
11991303 11 16702014331009126295
12516196 113 15502096340824319367
12596602 18 17749105586853552219
12633257 1 15864075411991097546
14251751 18 10665224865377802678
14394314 77 18411141329522100625
14787075 74 18342450427223989875
14840074 17 17385730213935733046
15163728 17 17346053176805624750
15183329 4 16415487056125865050
15419008 145 18116136806839555080
15575132 122 18336257951860997873
15840311 113 18336550421932621263
15961568 22 18412546504896517053
17980427 23 18408603690986332199
19611394 137 18115881874317862771
21033648 29 17023173886797000351
21344244 181 11383824987288048365
21521239 73 11239997849836073758
21637258 2 11963392964036664195
21781051 124 15051729849843132039
23569943 247 9943542807542631733
24771293 8 18187365449854597551
2838139 119 17632567223964702921
34797466 226 18059580148255491487
4325135 7 17775278345115253623
5718773 13 9583251534929056072
57527585 21 16772099225900714249
58260988 393 15502643885341941300
59682541 35 18114473318692342459
70251023 43 9363342612494429045
7808743 9 18411695526078348098

> <PUBCHEM_SHAPE_MULTIPOLES>
544.87
18.31
3.19
1.31
4.32
0.99
-0.9
13.2
3.5
0.58
0.44
-0.01
0.09
-0.49

> <PUBCHEM_SHAPE_SELFOVERLAP>
1155.712

> <PUBCHEM_SHAPE_VOLUME>
305.3

> <PUBCHEM_COORDINATE_TYPE>
2
5
10

$$$$
