2412928
  -OEChem-01171810113D

 52 54  0     0  0  0  0  0  0999 V2000
    0.1009   -4.7272   -0.1328 Cl  0  0  0  0  0  0  0  0  0  0  0  0
   -0.8155    1.7648   -0.2479 O   0  0  0  0  0  0  0  0  0  0  0  0
    3.7170    2.9080   -1.0362 O   0  0  0  0  0  0  0  0  0  0  0  0
    6.4376   -0.2665    0.9491 O   0  0  0  0  0  0  0  0  0  0  0  0
    1.1219    1.0807   -2.0879 O   0  0  0  0  0  0  0  0  0  0  0  0
   -3.2567    0.1843    2.7864 O   0  0  0  0  0  0  0  0  0  0  0  0
   -1.4886    3.0413    1.5458 O   0  0  0  0  0  0  0  0  0  0  0  0
   -1.8183   -1.9603   -2.8310 O   0  5  0  0  0  0  0  0  0  0  0  0
   -0.5969   -3.7329   -2.4007 O   0  0  0  0  0  0  0  0  0  0  0  0
    4.1949   -0.7525    0.5941 N   0  0  0  0  0  0  0  0  0  0  0  0
    5.1146    1.3431   -0.0444 N   0  0  0  0  0  0  0  0  0  0  0  0
    1.8661   -1.2730    0.2368 N   0  0  0  0  0  0  0  0  0  0  0  0
   -1.2720   -2.7471   -2.0232 N   0  3  0  0  0  0  0  0  0  0  0  0
    2.7531    0.8468   -0.4182 C   0  0  0  0  0  0  0  0  0  0  0  0
    2.9176   -0.3823    0.1286 C   0  0  0  0  0  0  0  0  0  0  0  0
    3.8958    1.7988   -0.5330 C   0  0  0  0  0  0  0  0  0  0  0  0
    5.3266    0.0785    0.5308 C   0  0  0  0  0  0  0  0  0  0  0  0
    1.4335    1.2926   -0.9225 C   0  0  0  0  0  0  0  0  0  0  0  0
    4.3682   -2.0847    1.1852 C   0  0  0  0  0  0  0  0  0  0  0  0
    0.5419    1.9968    0.0699 C   0  0  0  0  0  0  0  0  0  0  0  0
    6.2597    2.2452   -0.1355 C   0  0  0  0  0  0  0  0  0  0  0  0
   -3.7639    0.9056    0.6201 C   0  0  0  0  0  0  0  0  0  0  0  0
   -3.1203    2.0264    0.1341 C   0  0  0  0  0  0  0  0  0  0  0  0
   -3.1338   -0.0037    1.5684 C   0  0  0  0  0  0  0  0  0  0  0  0
   -2.3273   -1.1807    1.1300 C   0  0  0  0  0  0  0  0  0  0  0  0
   -1.7385    2.3465    0.5730 C   0  0  0  0  0  0  0  0  0  0  0  0
   -5.0619    0.6307    0.1897 C   0  0  0  0  0  0  0  0  0  0  0  0
   -3.7235    2.8841   -0.7658 C   0  0  0  0  0  0  0  0  0  0  0  0
   -2.1765   -1.4119   -0.2182 C   0  0  0  0  0  0  0  0  0  0  0  0
   -5.6907    1.4826   -0.7183 C   0  0  0  0  0  0  0  0  0  0  0  0
   -5.0216    2.6093   -1.1961 C   0  0  0  0  0  0  0  0  0  0  0  0
   -1.7660   -1.9896    2.0916 C   0  0  0  0  0  0  0  0  0  0  0  0
   -1.4233   -2.5124   -0.6273 C   0  0  0  0  0  0  0  0  0  0  0  0
   -1.0128   -3.0900    1.6823 C   0  0  0  0  0  0  0  0  0  0  0  0
   -0.8414   -3.3514    0.3230 C   0  0  0  0  0  0  0  0  0  0  0  0
    4.1159   -2.8463    0.4403 H   0  0  0  0  0  0  0  0  0  0  0  0
    5.3977   -2.2604    1.5084 H   0  0  0  0  0  0  0  0  0  0  0  0
    3.7206   -2.1774    2.0630 H   0  0  0  0  0  0  0  0  0  0  0  0
    0.7462    1.6211    1.0787 H   0  0  0  0  0  0  0  0  0  0  0  0
    0.7622    3.0689    0.0200 H   0  0  0  0  0  0  0  0  0  0  0  0
    6.0090    3.2032   -0.5967 H   0  0  0  0  0  0  0  0  0  0  0  0
    7.0441    1.7563   -0.7221 H   0  0  0  0  0  0  0  0  0  0  0  0
    6.6472    2.4207    0.8734 H   0  0  0  0  0  0  0  0  0  0  0  0
    2.0019   -2.1854    0.6486 H   0  0  0  0  0  0  0  0  0  0  0  0
    0.9457   -1.0102   -0.0906 H   0  0  0  0  0  0  0  0  0  0  0  0
   -5.5944   -0.2441    0.5543 H   0  0  0  0  0  0  0  0  0  0  0  0
   -3.2081    3.7631   -1.1421 H   0  0  0  0  0  0  0  0  0  0  0  0
   -2.6302   -0.7566   -0.9536 H   0  0  0  0  0  0  0  0  0  0  0  0
   -6.7014    1.2685   -1.0536 H   0  0  0  0  0  0  0  0  0  0  0  0
   -1.8849   -1.8061    3.1547 H   0  0  0  0  0  0  0  0  0  0  0  0
   -5.5112    3.2724   -1.9033 H   0  0  0  0  0  0  0  0  0  0  0  0
   -0.5650   -3.7334    2.4357 H   0  0  0  0  0  0  0  0  0  0  0  0
  1 35  1  0  0  0  0
  2 20  1  0  0  0  0
  2 26  1  0  0  0  0
  3 16  2  0  0  0  0
  4 17  2  0  0  0  0
  5 18  2  0  0  0  0
  6 24  2  0  0  0  0
  7 26  2  0  0  0  0
  8 13  1  0  0  0  0
  9 13  2  0  0  0  0
 10 15  1  0  0  0  0
 10 17  1  0  0  0  0
 10 19  1  0  0  0  0
 11 16  1  0  0  0  0
 11 17  1  0  0  0  0
 11 21  1  0  0  0  0
 12 15  1  0  0  0  0
 12 44  1  0  0  0  0
 12 45  1  0  0  0  0
 13 33  1  0  0  0  0
 14 15  2  0  0  0  0
 14 16  1  0  0  0  0
 14 18  1  0  0  0  0
 18 20  1  0  0  0  0
 19 36  1  0  0  0  0
 19 37  1  0  0  0  0
 19 38  1  0  0  0  0
 20 39  1  0  0  0  0
 20 40  1  0  0  0  0
 21 41  1  0  0  0  0
 21 42  1  0  0  0  0
 21 43  1  0  0  0  0
 22 23  1  0  0  0  0
 22 24  1  0  0  0  0
 22 27  2  0  0  0  0
 23 26  1  0  0  0  0
 23 28  2  0  0  0  0
 24 25  1  0  0  0  0
 25 29  2  0  0  0  0
 25 32  1  0  0  0  0
 27 30  1  0  0  0  0
 27 46  1  0  0  0  0
 28 31  1  0  0  0  0
 28 47  1  0  0  0  0
 29 33  1  0  0  0  0
 29 48  1  0  0  0  0
 30 31  2  0  0  0  0
 30 49  1  0  0  0  0
 31 51  1  0  0  0  0
 32 34  2  0  0  0  0
 32 50  1  0  0  0  0
 33 35  2  0  0  0  0
 34 35  1  0  0  0  0
 34 52  1  0  0  0  0
M  CHG  2   8  -1  13   1
M  END
> <PUBCHEM_COMPOUND_CID>
2412928

> <PUBCHEM_CONFORMER_RMSD>
1.6

> <PUBCHEM_CONFORMER_DIVERSEORDER>
2
68
28
81
125
6
19
146
126
118
24
71
116
83
98
76
104
111
58
123
117
74
139
91
72
44
65
84
56
54
13
62
85
64
86
101
112
67
52
138
25
108
36
33
7
70
103
23
9
135
90
26
130
34
97
75
127
40
131
57
50
5
106
129
105
120
141
31
137
82
122
119
92
148
37
102
8
39
113
99
132
114
55
110
61
48
121
41
46
140
88
4
134
69
124
66
136
12
14
10
38
115
78
30
128
15
73
147
107
35
21
11
142
59
18
94
22
145
53
80
79
17
20
3
63
51
47
87
16
29
109
45
133
143
1
96
77
89
144
93
32
49
95
60
27
100
43
42

> <PUBCHEM_MMFF94_PARTIAL_CHARGES>
44
1 -0.18
10 -0.47
11 -0.42
12 -0.9
13 0.91
14 0.03
15 0.21
16 0.62
17 0.69
18 0.49
19 0.3
2 -0.43
20 0.34
21 0.3
22 0.09
23 0.09
24 0.4
25 0.09
26 0.63
27 -0.15
28 -0.15
29 -0.15
3 -0.57
30 -0.15
31 -0.15
32 -0.15
33 0.13
34 -0.15
35 0.18
4 -0.57
44 0.4
45 0.4
46 0.15
47 0.15
48 0.15
49 0.15
5 -0.57
50 0.15
51 0.15
52 0.15
6 -0.57
7 -0.57
8 -0.52
9 -0.52

> <PUBCHEM_EFFECTIVE_ROTOR_COUNT>
8

> <PUBCHEM_PHARMACOPHORE_FEATURES>
14
1 12 cation
1 12 donor
1 14 anion
1 3 acceptor
1 4 acceptor
1 5 acceptor
1 6 acceptor
1 7 acceptor
1 8 acceptor
1 8 anion
1 9 acceptor
6 10 11 14 15 16 17 rings
6 22 23 27 28 30 31 rings
6 25 29 32 33 34 35 rings

> <PUBCHEM_HEAVY_ATOM_COUNT>
35

> <PUBCHEM_ATOM_DEF_STEREO_COUNT>
0

> <PUBCHEM_ATOM_UDEF_STEREO_COUNT>
0

> <PUBCHEM_BOND_DEF_STEREO_COUNT>
0

> <PUBCHEM_BOND_UDEF_STEREO_COUNT>
0

> <PUBCHEM_ISOTOPIC_ATOM_COUNT>
0

> <PUBCHEM_COMPONENT_COUNT>
1

> <PUBCHEM_CACTVS_TAUTO_COUNT>
7

> <PUBCHEM_CONFORMER_ID>
0024D18000000002

> <PUBCHEM_MMFF94_ENERGY>
125.1431

> <PUBCHEM_FEATURE_SELFOVERLAP>
71.132

> <PUBCHEM_SHAPE_FINGERPRINT>
10483366 6 18267009748009444991
11370993 70 18261112928882267545
11524674 6 18342171142121210212
11578080 2 17558816523917646528
12156800 1 16912798368444723095
12422481 6 18186799180471373328
12788726 201 18198049468555372007
14114207 22 17532639140661818907
14659021 117 17978496869554903674
14674994 50 16271075102741669685
16728300 4 18113616798459675955
19315092 285 14476398136940926973
20197701 30 18335414617641497621
20511986 3 18260818320090835768
21344244 246 18265604400112591199
23559900 14 18334573589746530896
3298306 158 18263360292205557317
3633792 109 18190452775616652733
4017518 198 18272368617058858766
5085150 59 18336814321412565993
5171179 24 17555446598193880272
5265222 85 18335710454836248860
6086070 43 17274534443225274048
7288768 16 17603867823022780914
9981440 41 18335146350021402049

> <PUBCHEM_SHAPE_MULTIPOLES>
655.27
11.91
5.09
1.92
12.34
4.15
0.4
-9.69
-1.26
-1.3
1.2
-1.55
1.29
-0.49

> <PUBCHEM_SHAPE_SELFOVERLAP>
1419.818

> <PUBCHEM_SHAPE_VOLUME>
359.4

> <PUBCHEM_COORDINATE_TYPE>
2
5
10

$$$$
