8271970
  -OEChem-01171810093D

 45 47  0     0  0  0  0  0  0999 V2000
    2.4391    1.1412    0.9491 S   0  0  0  0  0  0  0  0  0  0  0  0
    2.7218    2.5553    0.8338 O   0  0  0  0  0  0  0  0  0  0  0  0
    1.8610    0.5389    2.1305 O   0  0  0  0  0  0  0  0  0  0  0  0
   -0.2840   -0.9680    0.5112 O   0  0  0  0  0  0  0  0  0  0  0  0
    2.0721   -0.8097   -2.3437 O   0  0  0  0  0  0  0  0  0  0  0  0
   -4.3146   -0.0152   -0.0277 N   0  0  0  0  0  0  0  0  0  0  0  0
    1.6348    0.5757   -0.4647 N   0  0  0  0  0  0  0  0  0  0  0  0
   -5.6045   -0.5631    0.3363 C   0  0  0  0  0  0  0  0  0  0  0  0
   -3.1019   -0.5635    0.2994 C   0  0  0  0  0  0  0  0  0  0  0  0
   -2.1568    0.2527   -0.2268 C   0  0  0  0  0  0  0  0  0  0  0  0
   -4.1195    1.1326   -0.7507 C   0  0  0  0  0  0  0  0  0  0  0  0
    0.2532    0.9995   -0.7327 C   0  0  0  0  0  0  0  0  0  0  0  0
   -2.7618    1.3193   -0.8879 C   0  0  0  0  0  0  0  0  0  0  0  0
    3.8825    0.2583    0.5338 C   0  0  0  0  0  0  0  0  0  0  0  0
   -0.7072    0.0146   -0.0992 C   0  0  0  0  0  0  0  0  0  0  0  0
    3.7411   -0.4473   -0.6609 C   0  0  0  0  0  0  0  0  0  0  0  0
    2.4187   -0.2910   -1.2982 C   0  0  0  0  0  0  0  0  0  0  0  0
   -5.8063   -0.5934    1.8527 C   0  0  0  0  0  0  0  0  0  0  0  0
   -5.8400   -1.9383   -0.2912 C   0  0  0  0  0  0  0  0  0  0  0  0
   -2.9946   -1.8140    1.0823 C   0  0  0  0  0  0  0  0  0  0  0  0
   -5.2429    1.9535   -1.2484 C   0  0  0  0  0  0  0  0  0  0  0  0
    5.0435    0.2403    1.2788 C   0  0  0  0  0  0  0  0  0  0  0  0
    4.7877   -1.2088   -1.1513 C   0  0  0  0  0  0  0  0  0  0  0  0
    6.1024   -0.5258    0.7895 C   0  0  0  0  0  0  0  0  0  0  0  0
    5.9762   -1.2439   -0.4142 C   0  0  0  0  0  0  0  0  0  0  0  0
   -6.3777    0.0985   -0.0664 H   0  0  0  0  0  0  0  0  0  0  0  0
    0.0829    1.9981   -0.3181 H   0  0  0  0  0  0  0  0  0  0  0  0
    0.0839    1.0382   -1.8134 H   0  0  0  0  0  0  0  0  0  0  0  0
   -2.2939    2.1418   -1.4112 H   0  0  0  0  0  0  0  0  0  0  0  0
   -5.2402   -1.3480    2.3967 H   0  0  0  0  0  0  0  0  0  0  0  0
   -6.8623   -0.7896    2.0742 H   0  0  0  0  0  0  0  0  0  0  0  0
   -5.5612    0.3802    2.2931 H   0  0  0  0  0  0  0  0  0  0  0  0
   -5.6233   -1.9128   -1.3657 H   0  0  0  0  0  0  0  0  0  0  0  0
   -6.8969   -2.2105   -0.1830 H   0  0  0  0  0  0  0  0  0  0  0  0
   -5.2718   -2.7636    0.1348 H   0  0  0  0  0  0  0  0  0  0  0  0
   -3.8919   -2.3171    1.4102 H   0  0  0  0  0  0  0  0  0  0  0  0
   -2.4371   -2.5563    0.4984 H   0  0  0  0  0  0  0  0  0  0  0  0
   -2.4164   -1.6184    1.9935 H   0  0  0  0  0  0  0  0  0  0  0  0
   -4.8712    2.8237   -1.8004 H   0  0  0  0  0  0  0  0  0  0  0  0
   -5.8780    1.3819   -1.9330 H   0  0  0  0  0  0  0  0  0  0  0  0
   -5.8543    2.3303   -0.4220 H   0  0  0  0  0  0  0  0  0  0  0  0
    5.1387    0.7939    2.2055 H   0  0  0  0  0  0  0  0  0  0  0  0
    4.7015   -1.7661   -2.0777 H   0  0  0  0  0  0  0  0  0  0  0  0
    7.0366   -0.5700    1.3430 H   0  0  0  0  0  0  0  0  0  0  0  0
    6.8150   -1.8336   -0.7749 H   0  0  0  0  0  0  0  0  0  0  0  0
  1  2  2  0  0  0  0
  1  3  2  0  0  0  0
  1  7  1  0  0  0  0
  1 14  1  0  0  0  0
  4 15  2  0  0  0  0
  5 17  2  0  0  0  0
  6  8  1  0  0  0  0
  6  9  1  0  0  0  0
  6 11  1  0  0  0  0
  7 12  1  0  0  0  0
  7 17  1  0  0  0  0
  8 18  1  0  0  0  0
  8 19  1  0  0  0  0
  8 26  1  0  0  0  0
  9 10  2  0  0  0  0
  9 20  1  0  0  0  0
 10 13  1  0  0  0  0
 10 15  1  0  0  0  0
 11 13  2  0  0  0  0
 11 21  1  0  0  0  0
 12 15  1  0  0  0  0
 12 27  1  0  0  0  0
 12 28  1  0  0  0  0
 13 29  1  0  0  0  0
 14 16  1  0  0  0  0
 14 22  2  0  0  0  0
 16 17  1  0  0  0  0
 16 23  2  0  0  0  0
 18 30  1  0  0  0  0
 18 31  1  0  0  0  0
 18 32  1  0  0  0  0
 19 33  1  0  0  0  0
 19 34  1  0  0  0  0
 19 35  1  0  0  0  0
 20 36  1  0  0  0  0
 20 37  1  0  0  0  0
 20 38  1  0  0  0  0
 21 39  1  0  0  0  0
 21 40  1  0  0  0  0
 21 41  1  0  0  0  0
 22 24  1  0  0  0  0
 22 42  1  0  0  0  0
 23 25  1  0  0  0  0
 23 43  1  0  0  0  0
 24 25  2  0  0  0  0
 24 44  1  0  0  0  0
 25 45  1  0  0  0  0
M  END
> <PUBCHEM_COMPOUND_CID>
8271970

> <PUBCHEM_CONFORMER_RMSD>
0.8

> <PUBCHEM_CONFORMER_DIVERSEORDER>
1
48
64
22
83
39
40
84
62
63
16
45
58
80
11
49
31
43
61
68
69
25
42
37
77
5
19
81
18
15
14
46
35
59
74
24
66
78
36
56
38
75
65
53
73
72
2
10
21
28
12
20
57
23
8
79
26
51
47
13
27
4
29
76
6
60
33
70
30
9
71
52
17
44
34
67
55
54
7
32
50
82
41
3

> <PUBCHEM_MMFF94_PARTIAL_CHARGES>
28
1 1.45
10 -0.09
11 -0.33
12 0.42
13 -0.15
14 -0.01
15 0.6
16 0.09
17 0.72
2 -0.65
20 0.18
21 0.18
22 -0.15
23 -0.15
24 -0.15
25 -0.15
29 0.15
3 -0.65
4 -0.57
42 0.15
43 0.15
44 0.15
45 0.15
5 -0.57
6 0.05
7 -0.73
8 0.26
9 -0.33

> <PUBCHEM_EFFECTIVE_ROTOR_COUNT>
4.2

> <PUBCHEM_PHARMACOPHORE_FEATURES>
9
1 2 acceptor
1 3 acceptor
1 4 acceptor
1 5 acceptor
1 6 cation
3 8 18 19 hydrophobe
5 1 7 14 16 17 rings
5 6 9 10 11 13 rings
6 14 16 22 23 24 25 rings

> <PUBCHEM_HEAVY_ATOM_COUNT>
25

> <PUBCHEM_ATOM_DEF_STEREO_COUNT>
0

> <PUBCHEM_ATOM_UDEF_STEREO_COUNT>
0

> <PUBCHEM_BOND_DEF_STEREO_COUNT>
0

> <PUBCHEM_BOND_UDEF_STEREO_COUNT>
0

> <PUBCHEM_ISOTOPIC_ATOM_COUNT>
0

> <PUBCHEM_COMPONENT_COUNT>
1

> <PUBCHEM_CACTVS_TAUTO_COUNT>
2

> <PUBCHEM_CONFORMER_ID>
007E386200000001

> <PUBCHEM_MMFF94_ENERGY>
51.7863

> <PUBCHEM_FEATURE_SELFOVERLAP>
45.755

> <PUBCHEM_SHAPE_FINGERPRINT>
10688039 33 18060140912371376224
10693767 8 14996550752272399848
11405975 8 18130792303845606643
11545043 162 18407757032488498265
11796584 16 18187366493990800242
12107183 9 13683244507864760126
12166972 35 17458350757669002765
12236239 1 16732704930772127468
12403259 415 18409728469590088181
12616971 3 15913328017919121201
12788726 201 14779811737901075461
13533116 47 15913331252572898966
13583140 156 18340195324231963271
13685833 64 18411702092803515242
13782708 43 18412546548009876019
13862211 1 18040998479582813883
14294032 229 17314498237937003021
14341114 176 18060420218389049576
14341114 328 14333411142368513662
14386348 63 18342740706487725966
14528608 73 13190340188141347082
14849402 71 16271069566655419208
15042514 8 17896892152351921099
15142383 8 17131559340536732553
15183329 4 16008749095712209166
15348495 7 18272651294071731427
15475509 35 18263631897975624658
1577012 14 16660365852893189356
15788980 27 18413386535926963996
17349148 13 17603586352789143935
17844677 252 18334015007995823741
17980427 23 13326844556745809153
18222031 100 17095516344556217885
18681886 176 16732987565311035996
18927931 339 18113057156242605195
19377110 9 14908181971412766775
19489759 90 18259982661330807919
20567600 75 18340765953602720974
21033648 29 18129926923590956001
21033650 10 17389120961972738388
21150785 3 16298395681785235542
21267235 1 17676496064217593947
21623969 137 17632861936088882526
21641784 216 12324524148297932110
21781051 124 17096382773068557763
2297311 6 18186525393117097661
23081809 10 16588026788347701748
23402539 116 18113614573776710605
23559900 14 18409442583539656693
24771293 8 14979655733872631114
29717793 49 16298382444569480614
3004659 81 17530972371644947374
345986 75 16701457828535098282
34797466 226 18334869337536804460
4340502 62 16845577525798847462
465052 167 18202282494639819054
5104073 3 18128824216887151227
542803 24 14333125273560981909
559249 180 17603582998329962887
59755656 215 18187079533945285139
67856867 119 14045442488607315811
7495541 125 18410293631615164908

> <PUBCHEM_SHAPE_MULTIPOLES>
484.9
16.11
1.77
1.59
2.13
0.34
-0.07
-4.75
-0.53
2.26
-0.04
-1.33
-0.04
1.57

> <PUBCHEM_SHAPE_SELFOVERLAP>
1034.451

> <PUBCHEM_SHAPE_VOLUME>
273.2

> <PUBCHEM_COORDINATE_TYPE>
2
5
10

$$$$
