660289
  -OEChem-01171810133D

 35 37  0     0  0  0  0  0  0999 V2000
    1.8085   -0.6070   -0.6028 S   0  0  0  0  0  0  0  0  0  0  0  0
   -3.9440   -1.1964    1.5184 S   0  0  0  0  0  0  0  0  0  0  0  0
    0.2390    1.4976   -0.2618 N   0  0  0  0  0  0  0  0  0  0  0  0
   -0.9275    3.5329    0.0288 N   0  0  0  0  0  0  0  0  0  0  0  0
    7.0067   -0.6204    0.1050 N   0  0  0  0  0  0  0  0  0  0  0  0
   -0.9154   -3.1841   -0.4920 N   0  0  0  0  0  0  0  0  0  0  0  0
   -4.3653    2.7782    0.3623 N   0  0  0  0  0  0  0  0  0  0  0  0
   -2.1607    0.0734   -0.0987 C   0  0  0  0  0  0  0  0  0  0  0  0
   -0.9599   -0.6017   -0.2874 C   0  0  0  0  0  0  0  0  0  0  0  0
   -3.4090   -0.6654   -0.0144 C   0  0  0  0  0  0  0  0  0  0  0  0
   -2.1632    1.4598    0.0086 C   0  0  0  0  0  0  0  0  0  0  0  0
    0.2018    0.1498   -0.3616 C   0  0  0  0  0  0  0  0  0  0  0  0
    2.8901    0.5636    0.2615 C   0  0  0  0  0  0  0  0  0  0  0  0
   -0.9476    2.1191   -0.0787 C   0  0  0  0  0  0  0  0  0  0  0  0
    4.3345    0.1485    0.2066 C   0  0  0  0  0  0  0  0  0  0  0  0
   -4.2669   -1.0202   -1.0243 C   0  0  0  0  0  0  0  0  0  0  0  0
   -5.3908   -1.7449   -0.5325 C   0  0  0  0  0  0  0  0  0  0  0  0
    5.1330    0.5821   -0.8374 C   0  0  0  0  0  0  0  0  0  0  0  0
    4.8520   -0.6639    1.2006 C   0  0  0  0  0  0  0  0  0  0  0  0
   -5.3411   -1.9117    0.8340 C   0  0  0  0  0  0  0  0  0  0  0  0
   -0.9353   -2.0327   -0.4008 C   0  0  0  0  0  0  0  0  0  0  0  0
   -3.3832    2.1903    0.2045 C   0  0  0  0  0  0  0  0  0  0  0  0
    6.4563    0.1717   -0.8423 C   0  0  0  0  0  0  0  0  0  0  0  0
    6.1879   -1.0186    1.1044 C   0  0  0  0  0  0  0  0  0  0  0  0
    2.5681    0.6526    1.3060 H   0  0  0  0  0  0  0  0  0  0  0  0
    2.7925    1.5613   -0.1827 H   0  0  0  0  0  0  0  0  0  0  0  0
   -4.1079   -0.7782   -2.0677 H   0  0  0  0  0  0  0  0  0  0  0  0
   -6.1947   -2.1246   -1.1495 H   0  0  0  0  0  0  0  0  0  0  0  0
    4.7513    1.2178   -1.6285 H   0  0  0  0  0  0  0  0  0  0  0  0
    4.2470   -1.0175    2.0280 H   0  0  0  0  0  0  0  0  0  0  0  0
   -6.0585   -2.4194    1.4632 H   0  0  0  0  0  0  0  0  0  0  0  0
   -0.0194    3.9750   -0.0498 H   0  0  0  0  0  0  0  0  0  0  0  0
   -1.6147    3.9856    0.6184 H   0  0  0  0  0  0  0  0  0  0  0  0
    7.1303    0.4794   -1.6351 H   0  0  0  0  0  0  0  0  0  0  0  0
    6.6492   -1.6537    1.8535 H   0  0  0  0  0  0  0  0  0  0  0  0
  1 12  1  0  0  0  0
  1 13  1  0  0  0  0
  2 10  1  0  0  0  0
  2 20  1  0  0  0  0
  3 12  1  0  0  0  0
  3 14  2  0  0  0  0
  4 14  1  0  0  0  0
  4 32  1  0  0  0  0
  4 33  1  0  0  0  0
  5 23  2  0  0  0  0
  5 24  1  0  0  0  0
  6 21  3  0  0  0  0
  7 22  3  0  0  0  0
  8  9  1  0  0  0  0
  8 10  1  0  0  0  0
  8 11  2  0  0  0  0
  9 12  2  0  0  0  0
  9 21  1  0  0  0  0
 10 16  2  0  0  0  0
 11 14  1  0  0  0  0
 11 22  1  0  0  0  0
 13 15  1  0  0  0  0
 13 25  1  0  0  0  0
 13 26  1  0  0  0  0
 15 18  2  0  0  0  0
 15 19  1  0  0  0  0
 16 17  1  0  0  0  0
 16 27  1  0  0  0  0
 17 20  2  0  0  0  0
 17 28  1  0  0  0  0
 18 23  1  0  0  0  0
 18 29  1  0  0  0  0
 19 24  2  0  0  0  0
 19 30  1  0  0  0  0
 20 31  1  0  0  0  0
 23 34  1  0  0  0  0
 24 35  1  0  0  0  0
M  END
> <PUBCHEM_COMPOUND_CID>
660289

> <PUBCHEM_CONFORMER_RMSD>
0.8

> <PUBCHEM_CONFORMER_DIVERSEORDER>
1
17
15
9
14
6
10
3
18
5
13
12
11
16
4
7
2
8

> <PUBCHEM_MMFF94_PARTIAL_CHARGES>
33
1 -0.33
10 -0.01
11 0.07
12 0.41
13 0.37
14 0.41
15 -0.14
16 -0.15
17 -0.15
18 -0.15
19 -0.15
2 -0.08
20 -0.11
21 0.48
22 0.48
23 0.16
24 0.16
27 0.15
28 0.15
29 0.15
3 -0.62
30 0.15
31 0.15
32 0.4
33 0.4
34 0.15
35 0.15
4 -0.9
5 -0.62
6 -0.56
7 -0.56
8 0.05
9 0.07

> <PUBCHEM_EFFECTIVE_ROTOR_COUNT>
4

> <PUBCHEM_PHARMACOPHORE_FEATURES>
8
1 4 donor
1 5 acceptor
1 6 acceptor
1 7 acceptor
3 3 4 14 cation
5 2 10 16 17 20 rings
6 3 8 9 11 12 14 rings
6 5 15 18 19 23 24 rings

> <PUBCHEM_HEAVY_ATOM_COUNT>
24

> <PUBCHEM_ATOM_DEF_STEREO_COUNT>
0

> <PUBCHEM_ATOM_UDEF_STEREO_COUNT>
0

> <PUBCHEM_BOND_DEF_STEREO_COUNT>
0

> <PUBCHEM_BOND_UDEF_STEREO_COUNT>
0

> <PUBCHEM_ISOTOPIC_ATOM_COUNT>
0

> <PUBCHEM_COMPONENT_COUNT>
1

> <PUBCHEM_CACTVS_TAUTO_COUNT>
2

> <PUBCHEM_CONFORMER_ID>
000A134100000001

> <PUBCHEM_MMFF94_ENERGY>
64.905

> <PUBCHEM_FEATURE_SELFOVERLAP>
40.597

> <PUBCHEM_SHAPE_FINGERPRINT>
10411042 1 18339360898544865133
10595046 47 18260550009710892564
10670039 82 18336557032261791062
10906281 52 18266172830481133885
1100329 8 18193839469040597367
11315181 36 17967254217269194676
11545043 162 18202276996522738688
11578080 2 17701829787110921115
12107183 9 17540806197648759320
12166972 35 17749108941075213372
12236239 1 17894911832703340582
12390115 104 18130236951488826457
12403259 415 17775278374816040984
12596602 18 17676206892490859138
12633257 1 17845940735668946562
12760667 363 18335701671675165875
12788726 201 18334571335151425018
13140716 1 18051417567658000075
13782708 43 17775286075735029670
13862211 1 18340201998606320975
15042514 8 18409730642632465393
1577012 14 18113623357496734860
16087824 20 18339359649338091093
17844677 252 18342740741148534600
17980427 23 17967827028314742405
18927931 339 18412547617530202775
21033648 29 17917699202177200872
21065198 48 18187081729158337386
21236236 1 18411700967833332901
21267235 1 18409736196014577710
22182313 1 17987816115558740949
2297311 6 18342464742275874508
23081809 10 18113059320731860788
23402539 116 18343295989945655671
23522609 53 18123221053876878864
23557571 272 18130799948839888540
23559900 14 17532090673153412117
335352 9 18410290329439266917
3383291 50 18334573572988499442
34797466 226 17845947333540884980
497634 4 17748824116018639454
5104073 3 18270399374241899554
559249 180 18335134255171871978
57724786 102 15769483348922563018

> <PUBCHEM_SHAPE_MULTIPOLES>
476.7
15.43
2.91
1.04
22.71
1.62
0.2
-5.38
1.75
-4.23
0.07
0.09
-0.37
-0.67

> <PUBCHEM_SHAPE_SELFOVERLAP>
1015.983

> <PUBCHEM_SHAPE_VOLUME>
266.3

> <PUBCHEM_COORDINATE_TYPE>
2
5
10

$$$$
