979681
  -OEChem-01171809273D

 44 46  0     0  0  0  0  0  0999 V2000
    4.0922   -3.4577    0.9292 Br  0  0  0  0  0  0  0  0  0  0  0  0
   -4.9912   -0.3688   -1.6679 O   0  0  0  0  0  0  0  0  0  0  0  0
   -6.2944    0.4339    0.7749 O   0  0  0  0  0  0  0  0  0  0  0  0
    4.3903    1.5679   -0.6312 O   0  0  0  0  0  0  0  0  0  0  0  0
    5.5201   -0.7711    0.2824 O   0  0  0  0  0  0  0  0  0  0  0  0
   -0.7514   -0.0401    0.5340 N   0  0  0  0  0  0  0  0  0  0  0  0
   -0.0429   -0.4705   -0.6312 C   0  0  0  0  0  0  0  0  0  0  0  0
   -2.1555    0.0913    0.5716 C   0  0  0  0  0  0  0  0  0  0  0  0
    1.4402   -0.5565   -0.3859 C   0  0  0  0  0  0  0  0  0  0  0  0
   -4.3025   -0.0795   -0.5191 C   0  0  0  0  0  0  0  0  0  0  0  0
   -4.9334    0.3202    0.6616 C   0  0  0  0  0  0  0  0  0  0  0  0
   -2.9140   -0.2088   -0.5602 C   0  0  0  0  0  0  0  0  0  0  0  0
   -6.3342    0.1208   -1.6225 C   0  0  0  0  0  0  0  0  0  0  0  0
   -6.9758   -0.2289   -0.2939 C   0  0  0  0  0  0  0  0  0  0  0  0
   -2.7837    0.5167    1.7425 C   0  0  0  0  0  0  0  0  0  0  0  0
   -4.1731    0.6333    1.7887 C   0  0  0  0  0  0  0  0  0  0  0  0
    2.2369    0.5544   -0.6239 C   0  0  0  0  0  0  0  0  0  0  0  0
    1.9894   -1.7449    0.0748 C   0  0  0  0  0  0  0  0  0  0  0  0
    3.6110    0.4755   -0.3967 C   0  0  0  0  0  0  0  0  0  0  0  0
    4.1742   -0.7137    0.0661 C   0  0  0  0  0  0  0  0  0  0  0  0
    3.3634   -1.8240    0.3019 C   0  0  0  0  0  0  0  0  0  0  0  0
    4.0950    2.7470    0.1149 C   0  0  0  0  0  0  0  0  0  0  0  0
    5.3739    3.5284    0.3286 C   0  0  0  0  0  0  0  0  0  0  0  0
    6.3655   -0.5250   -0.8384 C   0  0  0  0  0  0  0  0  0  0  0  0
   -0.2200    0.2173   -1.4686 H   0  0  0  0  0  0  0  0  0  0  0  0
   -0.3956   -1.4575   -0.9587 H   0  0  0  0  0  0  0  0  0  0  0  0
   -0.2406    0.1990    1.3771 H   0  0  0  0  0  0  0  0  0  0  0  0
   -2.4580   -0.5345   -1.4907 H   0  0  0  0  0  0  0  0  0  0  0  0
   -6.8860   -0.3443   -2.4452 H   0  0  0  0  0  0  0  0  0  0  0  0
   -6.3179    1.2048   -1.7906 H   0  0  0  0  0  0  0  0  0  0  0  0
   -8.0195    0.0999   -0.2776 H   0  0  0  0  0  0  0  0  0  0  0  0
   -6.9540   -1.3096   -0.1065 H   0  0  0  0  0  0  0  0  0  0  0  0
   -2.2014    0.7551    2.6290 H   0  0  0  0  0  0  0  0  0  0  0  0
    1.7948    1.4771   -0.9904 H   0  0  0  0  0  0  0  0  0  0  0  0
   -4.6549    0.9566    2.7074 H   0  0  0  0  0  0  0  0  0  0  0  0
    1.3506   -2.6055    0.2582 H   0  0  0  0  0  0  0  0  0  0  0  0
    3.3777    3.3534   -0.4489 H   0  0  0  0  0  0  0  0  0  0  0  0
    3.6581    2.4977    1.0900 H   0  0  0  0  0  0  0  0  0  0  0  0
    5.1818    4.4480    0.8882 H   0  0  0  0  0  0  0  0  0  0  0  0
    6.1054    2.9264    0.8778 H   0  0  0  0  0  0  0  0  0  0  0  0
    5.8324    3.7879   -0.6314 H   0  0  0  0  0  0  0  0  0  0  0  0
    6.7035    0.5150   -0.8315 H   0  0  0  0  0  0  0  0  0  0  0  0
    5.8757   -0.7612   -1.7896 H   0  0  0  0  0  0  0  0  0  0  0  0
    7.2468   -1.1662   -0.7420 H   0  0  0  0  0  0  0  0  0  0  0  0
  1 21  1  0  0  0  0
  2 10  1  0  0  0  0
  2 13  1  0  0  0  0
  3 11  1  0  0  0  0
  3 14  1  0  0  0  0
  4 19  1  0  0  0  0
  4 22  1  0  0  0  0
  5 20  1  0  0  0  0
  5 24  1  0  0  0  0
  6  7  1  0  0  0  0
  6  8  1  0  0  0  0
  6 27  1  0  0  0  0
  7  9  1  0  0  0  0
  7 25  1  0  0  0  0
  7 26  1  0  0  0  0
  8 12  2  0  0  0  0
  8 15  1  0  0  0  0
  9 17  2  0  0  0  0
  9 18  1  0  0  0  0
 10 11  2  0  0  0  0
 10 12  1  0  0  0  0
 11 16  1  0  0  0  0
 12 28  1  0  0  0  0
 13 14  1  0  0  0  0
 13 29  1  0  0  0  0
 13 30  1  0  0  0  0
 14 31  1  0  0  0  0
 14 32  1  0  0  0  0
 15 16  2  0  0  0  0
 15 33  1  0  0  0  0
 16 35  1  0  0  0  0
 17 19  1  0  0  0  0
 17 34  1  0  0  0  0
 18 21  2  0  0  0  0
 18 36  1  0  0  0  0
 19 20  2  0  0  0  0
 20 21  1  0  0  0  0
 22 23  1  0  0  0  0
 22 37  1  0  0  0  0
 22 38  1  0  0  0  0
 23 39  1  0  0  0  0
 23 40  1  0  0  0  0
 23 41  1  0  0  0  0
 24 42  1  0  0  0  0
 24 43  1  0  0  0  0
 24 44  1  0  0  0  0
M  END
> <PUBCHEM_COMPOUND_CID>
979681

> <PUBCHEM_CONFORMER_RMSD>
0.8

> <PUBCHEM_CONFORMER_DIVERSEORDER>
1
11
78
20
21
53
26
13
40
51
12
8
19
83
34
86
30
64
17
41
71
66
68
58
46
22
54
32
79
6
14
81
45
18
29
38
3
23
43
72
75
56
4
7
85
69
28
33
37
24
73
59
44
39
74
52
76
84
70
2
25
67
10
62
55
31
48
9
82
63
60
50
57
5
65
27
35
36
42
16
47
61
77
49
15
80

> <PUBCHEM_MMFF94_PARTIAL_CHARGES>
29
1 -0.11
10 0.08
11 0.08
12 -0.15
13 0.28
14 0.28
15 -0.15
16 -0.15
17 -0.15
18 -0.15
19 0.08
2 -0.36
20 0.08
21 0.11
22 0.28
24 0.28
27 0.4
28 0.15
3 -0.36
33 0.15
34 0.15
35 0.15
36 0.15
4 -0.36
5 -0.36
6 -0.87
7 0.51
8 0.1
9 -0.14

> <PUBCHEM_EFFECTIVE_ROTOR_COUNT>
6.8

> <PUBCHEM_PHARMACOPHORE_FEATURES>
10
1 1 hydrophobe
1 2 acceptor
1 3 acceptor
1 4 acceptor
1 5 acceptor
1 6 cation
1 6 donor
6 2 3 10 11 13 14 rings
6 8 10 11 12 15 16 rings
6 9 17 18 19 20 21 rings

> <PUBCHEM_HEAVY_ATOM_COUNT>
24

> <PUBCHEM_ATOM_DEF_STEREO_COUNT>
0

> <PUBCHEM_ATOM_UDEF_STEREO_COUNT>
0

> <PUBCHEM_BOND_DEF_STEREO_COUNT>
0

> <PUBCHEM_BOND_UDEF_STEREO_COUNT>
0

> <PUBCHEM_ISOTOPIC_ATOM_COUNT>
0

> <PUBCHEM_COMPONENT_COUNT>
1

> <PUBCHEM_CACTVS_TAUTO_COUNT>
1

> <PUBCHEM_CONFORMER_ID>
000EF2E100000001

> <PUBCHEM_MMFF94_ENERGY>
94.6518

> <PUBCHEM_FEATURE_SELFOVERLAP>
50.793

> <PUBCHEM_SHAPE_FINGERPRINT>
10411042 1 18049157771180095394
10595046 47 18342455963378435101
10638233 991 18344149202210427169
10912923 1 18060140921018741491
11059845 2 16121911700174568042
11089746 13 18341617014357571220
12107183 9 17619918253109385498
12166972 35 17846500301414920736
12236239 1 17989205923572645110
12596602 18 18271809076907822151
12616971 3 18271810073461599467
13533116 47 18261675883019782650
13878862 14 18262786463168852780
13955234 65 18334572426453238058
14461889 52 18042407005132455379
14528608 73 17988646332315492561
15183329 4 18410569557710140709
15475509 35 16371269058212420384
15483637 11 18192428567852484932
16079462 125 17530959198695355237
17844677 252 18335704888679582181
18681886 176 17418372494009311674
19377110 9 17846504695156252787
20157964 124 18409445912307797804
20511986 3 18131058351268336293
20612939 158 18341896316012544160
20645477 70 18041559131164638762
21033648 144 18337106868772813116
21033648 29 17385719210018692693
21065201 7 15791739576633256363
21315759 40 17132121204069318134
21344244 78 18268976602332970698
21403212 168 18339068398740969184
22061861 79 17822292340905586791
2297311 6 15051740802694921001
23081809 10 17989204837710563387
23522609 53 17559698246787135601
23559900 14 17240489073991628162
23845131 108 18190460657250438594
268830 7 18412269402407387057
29717793 49 17846222150531751108
3004659 81 17917711275388382422
335352 9 18411144637242179774
3545911 37 18040439892704164095
4073 2 18188213216227288875
4325135 7 17775287145096931349
474 4 18339081622312192560
5104073 3 18261957456912629882
8988823 20 18334574620822563330

> <PUBCHEM_SHAPE_MULTIPOLES>
471.39
18.61
2.65
1.32
15.45
0.59
-0.15
2.57
2.33
-8.23
-0.81
1.97
0.03
-0.89

> <PUBCHEM_SHAPE_SELFOVERLAP>
993.091

> <PUBCHEM_SHAPE_VOLUME>
272.7

> <PUBCHEM_COORDINATE_TYPE>
2
5
10

$$$$
