3707695
  -OEChem-01171809463D

 57 59  0     0  0  0  0  0  0999 V2000
   -0.2897    0.6199   -2.1045 S   0  0  0  0  0  0  0  0  0  0  0  0
   -3.1650    0.8006   -2.5004 O   0  0  0  0  0  0  0  0  0  0  0  0
   -3.8841    1.3099   -0.3588 N   0  0  0  0  0  0  0  0  0  0  0  0
    1.6928   -0.4798   -0.5098 N   0  0  0  0  0  0  0  0  0  0  0  0
    1.7426    1.8622   -1.0737 N   0  0  0  0  0  0  0  0  0  0  0  0
    3.4565   -1.4913    0.8837 N   0  0  0  0  0  0  0  0  0  0  0  0
    3.5940    3.0484   -0.1787 N   0  0  0  0  0  0  0  0  0  0  0  0
    4.7376    2.6934    0.6387 N   0  0  0  0  0  0  0  0  0  0  0  0
   -3.5627    1.5680    1.0397 C   0  0  0  0  0  0  0  0  0  0  0  0
   -3.5635    0.2962    1.8813 C   0  0  0  0  0  0  0  0  0  0  0  0
   -3.2535    0.5663    3.3555 C   0  0  0  0  0  0  0  0  0  0  0  0
   -5.3058    1.3751   -0.6907 C   0  0  0  0  0  0  0  0  0  0  0  0
   -2.9011    1.0201   -1.3155 C   0  0  0  0  0  0  0  0  0  0  0  0
    2.9031   -0.4074    0.2402 C   0  0  0  0  0  0  0  0  0  0  0  0
    3.4879    0.8030    0.3050 C   0  0  0  0  0  0  0  0  0  0  0  0
   -1.4727    0.9933   -0.7993 C   0  0  0  0  0  0  0  0  0  0  0  0
    1.1932    0.6812   -1.1291 C   0  0  0  0  0  0  0  0  0  0  0  0
    1.0098   -1.7299   -0.6124 C   0  0  0  0  0  0  0  0  0  0  0  0
   -3.3207   -0.7098    4.1798 C   0  0  0  0  0  0  0  0  0  0  0  0
   -5.7164    2.7744   -1.1001 C   0  0  0  0  0  0  0  0  0  0  0  0
    2.8967    1.9629   -0.3578 C   0  0  0  0  0  0  0  0  0  0  0  0
    4.6712    1.4129    0.9095 C   0  0  0  0  0  0  0  0  0  0  0  0
    0.0403   -2.0799    0.3309 C   0  0  0  0  0  0  0  0  0  0  0  0
    1.3066   -2.6081   -1.6576 C   0  0  0  0  0  0  0  0  0  0  0  0
   -0.6277   -3.3003    0.2294 C   0  0  0  0  0  0  0  0  0  0  0  0
    0.6386   -3.8283   -1.7590 C   0  0  0  0  0  0  0  0  0  0  0  0
    5.6822    0.6925    1.7315 C   0  0  0  0  0  0  0  0  0  0  0  0
   -0.3286   -4.1745   -0.8155 C   0  0  0  0  0  0  0  0  0  0  0  0
   -1.6616   -3.6709    1.2380 C   0  0  0  0  0  0  0  0  0  0  0  0
   -4.2972    2.2785    1.4386 H   0  0  0  0  0  0  0  0  0  0  0  0
   -2.5958    2.0687    1.1309 H   0  0  0  0  0  0  0  0  0  0  0  0
   -2.8434   -0.4281    1.4857 H   0  0  0  0  0  0  0  0  0  0  0  0
   -4.5463   -0.1862    1.8054 H   0  0  0  0  0  0  0  0  0  0  0  0
   -3.9686    1.2925    3.7588 H   0  0  0  0  0  0  0  0  0  0  0  0
   -2.2540    1.0064    3.4489 H   0  0  0  0  0  0  0  0  0  0  0  0
   -5.4975    0.6928   -1.5264 H   0  0  0  0  0  0  0  0  0  0  0  0
   -5.9001    1.0248    0.1599 H   0  0  0  0  0  0  0  0  0  0  0  0
   -1.2185    1.9856   -0.4160 H   0  0  0  0  0  0  0  0  0  0  0  0
   -1.3831    0.2582   -0.0030 H   0  0  0  0  0  0  0  0  0  0  0  0
   -4.3186   -1.1570    4.1310 H   0  0  0  0  0  0  0  0  0  0  0  0
   -3.0952   -0.4954    5.2291 H   0  0  0  0  0  0  0  0  0  0  0  0
   -2.5956   -1.4469    3.8203 H   0  0  0  0  0  0  0  0  0  0  0  0
   -5.5521    3.4909   -0.2889 H   0  0  0  0  0  0  0  0  0  0  0  0
   -6.7779    2.7979   -1.3651 H   0  0  0  0  0  0  0  0  0  0  0  0
   -5.1408    3.1167   -1.9666 H   0  0  0  0  0  0  0  0  0  0  0  0
   -0.1860   -1.4058    1.1539 H   0  0  0  0  0  0  0  0  0  0  0  0
    2.0582   -2.3495   -2.3993 H   0  0  0  0  0  0  0  0  0  0  0  0
    4.3119   -1.4020    1.4128 H   0  0  0  0  0  0  0  0  0  0  0  0
    3.0002   -2.3925    0.8313 H   0  0  0  0  0  0  0  0  0  0  0  0
    0.8712   -4.5086   -2.5730 H   0  0  0  0  0  0  0  0  0  0  0  0
    6.1367   -0.1091    1.1438 H   0  0  0  0  0  0  0  0  0  0  0  0
    5.2074    0.2777    2.6243 H   0  0  0  0  0  0  0  0  0  0  0  0
    6.4700    1.3836    2.0451 H   0  0  0  0  0  0  0  0  0  0  0  0
   -0.8429   -5.1275   -0.9075 H   0  0  0  0  0  0  0  0  0  0  0  0
   -1.3577   -3.3540    2.2414 H   0  0  0  0  0  0  0  0  0  0  0  0
   -2.6154   -3.1941    0.9908 H   0  0  0  0  0  0  0  0  0  0  0  0
   -1.8150   -4.7547    1.2762 H   0  0  0  0  0  0  0  0  0  0  0  0
  1 16  1  0  0  0  0
  1 17  1  0  0  0  0
  2 13  2  0  0  0  0
  3  9  1  0  0  0  0
  3 12  1  0  0  0  0
  3 13  1  0  0  0  0
  4 14  1  0  0  0  0
  4 17  1  0  0  0  0
  4 18  1  0  0  0  0
  5 17  2  0  0  0  0
  5 21  1  0  0  0  0
  6 14  1  0  0  0  0
  6 48  1  0  0  0  0
  6 49  1  0  0  0  0
  7  8  1  0  0  0  0
  7 21  2  0  0  0  0
  8 22  2  0  0  0  0
  9 10  1  0  0  0  0
  9 30  1  0  0  0  0
  9 31  1  0  0  0  0
 10 11  1  0  0  0  0
 10 32  1  0  0  0  0
 10 33  1  0  0  0  0
 11 19  1  0  0  0  0
 11 34  1  0  0  0  0
 11 35  1  0  0  0  0
 12 20  1  0  0  0  0
 12 36  1  0  0  0  0
 12 37  1  0  0  0  0
 13 16  1  0  0  0  0
 14 15  2  0  0  0  0
 15 21  1  0  0  0  0
 15 22  1  0  0  0  0
 16 38  1  0  0  0  0
 16 39  1  0  0  0  0
 18 23  1  0  0  0  0
 18 24  2  0  0  0  0
 19 40  1  0  0  0  0
 19 41  1  0  0  0  0
 19 42  1  0  0  0  0
 20 43  1  0  0  0  0
 20 44  1  0  0  0  0
 20 45  1  0  0  0  0
 22 27  1  0  0  0  0
 23 25  2  0  0  0  0
 23 46  1  0  0  0  0
 24 26  1  0  0  0  0
 24 47  1  0  0  0  0
 25 28  1  0  0  0  0
 25 29  1  0  0  0  0
 26 28  2  0  0  0  0
 26 50  1  0  0  0  0
 27 51  1  0  0  0  0
 27 52  1  0  0  0  0
 27 53  1  0  0  0  0
 28 54  1  0  0  0  0
 29 55  1  0  0  0  0
 29 56  1  0  0  0  0
 29 57  1  0  0  0  0
M  END
> <PUBCHEM_COMPOUND_CID>
3707695

> <PUBCHEM_CONFORMER_RMSD>
1

> <PUBCHEM_CONFORMER_DIVERSEORDER>
1
22
21
123
3
228
137
207
231
76
227
32
184
170
91
230
11
12
146
190
79
42
104
101
142
100
193
145
58
29
2
82
115
138
136
125
46
23
57
158
95
222
198
16
5
205
81
59
108
70
80
147
45
189
141
162
43
219
204
172
50
112
39
185
102
67
160
47
163
150
77
111
211
61
203
177
179
98
175
24
152
186
92
103
224
133
126
73
36
7
178
174
165
210
208
106
118
113
164
99
128
19
122
109
65
88
87
44
117
225
94
155
195
69
200
15
209
49
134
38
116
41
84
215
216
232
176
60
55
220
74
33
218
20
159
31
54
143
169
64
119
148
56
26
182
97
201
124
217
131
151
234
161
17
192
71
187
13
221
83
181
52
10
132
78
214
85
129
235
63
127
168
89
75
35
9
25
144
199
14
226
110
121
6
34
194
4
66
28
206
166
188
90
135
27
62
68
202
51
229
196
37
72
213
153
114
86
173
157
191
183
223
8
171
48
167
180
156
30
18
105
107
53
139
197
154
236
130
40
93
212
233
140
120
149
96

> <PUBCHEM_MMFF94_PARTIAL_CHARGES>
31
1 -0.37
12 0.3
13 0.57
14 0.2
15 0.03
16 0.29
17 0.64
18 0.1
2 -0.57
21 0.65
22 0.37
23 -0.15
24 -0.15
25 -0.14
26 -0.15
27 0.06
28 -0.15
29 0.14
3 -0.66
4 -0.25
46 0.15
47 0.15
48 0.4
49 0.4
5 -0.66
50 0.15
54 0.15
6 -0.9
7 -0.45
8 -0.45
9 0.3

> <PUBCHEM_EFFECTIVE_ROTOR_COUNT>
9

> <PUBCHEM_PHARMACOPHORE_FEATURES>
10
1 19 hydrophobe
1 2 acceptor
1 6 cation
1 6 donor
1 8 acceptor
3 4 5 17 cation
3 5 7 21 cation
5 7 8 15 21 22 rings
6 18 23 24 25 26 28 rings
6 4 5 14 15 17 21 rings

> <PUBCHEM_HEAVY_ATOM_COUNT>
29

> <PUBCHEM_ATOM_DEF_STEREO_COUNT>
0

> <PUBCHEM_ATOM_UDEF_STEREO_COUNT>
0

> <PUBCHEM_BOND_DEF_STEREO_COUNT>
0

> <PUBCHEM_BOND_UDEF_STEREO_COUNT>
0

> <PUBCHEM_ISOTOPIC_ATOM_COUNT>
0

> <PUBCHEM_COMPONENT_COUNT>
1

> <PUBCHEM_CACTVS_TAUTO_COUNT>
3

> <PUBCHEM_CONFORMER_ID>
0038932F00000001

> <PUBCHEM_MMFF94_ENERGY>
101.2625

> <PUBCHEM_FEATURE_SELFOVERLAP>
51.023

> <PUBCHEM_SHAPE_FINGERPRINT>
11387372 6 16371552697414928346
114674 6 17973727978588476111
11578080 2 17481753949124587284
12035758 1 18339931394703747082
12156800 1 17544709807303610755
12422481 6 18117864267717403283
12788726 201 17769913990179917830
13540713 5 17972299984194818556
13583140 156 17458617952016545520
13965767 371 17978265881650375506
14932701 244 16271642424824215155
15274700 34 17824281482748153321
17138139 8 17481379015432714935
17974551 9 17095799915071242498
20511986 3 17701797931281146261
20739085 24 18264204717236247828
21197605 99 18409166654062343591
469060 322 17319297901415599417
474 4 18272363135893799500
484985 159 15358795963863441464
9981440 41 18408319965578769681

> <PUBCHEM_SHAPE_MULTIPOLES>
564.9
10.38
4.69
2.9
1.19
5.28
2.91
-11.69
3.92
-0.88
-1.31
3.89
0.24
2.29

> <PUBCHEM_SHAPE_SELFOVERLAP>
1168.678

> <PUBCHEM_SHAPE_VOLUME>
326.5

> <PUBCHEM_COORDINATE_TYPE>
2
5
10

$$$$
