16188851
  -OEChem-01171809413D

 34 36  0     0  0  0  0  0  0999 V2000
   -3.9439    1.8060    0.1146 O   0  0  0  0  0  0  0  0  0  0  0  0
   -0.8674   -1.5179   -0.1426 O   0  0  0  0  0  0  0  0  0  0  0  0
    6.0611   -1.3493    0.5190 O   0  0  0  0  0  0  0  0  0  0  0  0
   -2.5465    1.6028    0.0917 N   0  0  0  0  0  0  0  0  0  0  0  0
   -0.0002    0.6430    0.0007 N   0  0  0  0  0  0  0  0  0  0  0  0
   -5.7537   -1.3450    0.1376 C   0  0  0  0  0  0  0  0  0  0  0  0
   -4.2475   -1.7068   -0.1795 C   0  0  0  0  0  0  0  0  0  0  0  0
   -5.9191    0.2148   -0.0073 C   0  0  0  0  0  0  0  0  0  0  0  0
   -3.5957   -0.3959   -0.0705 C   0  0  0  0  0  0  0  0  0  0  0  0
   -4.5100    0.5995    0.0158 C   0  0  0  0  0  0  0  0  0  0  0  0
   -2.3774    0.2687   -0.0203 C   0  0  0  0  0  0  0  0  0  0  0  0
   -1.0571   -0.2867   -0.0722 C   0  0  0  0  0  0  0  0  0  0  0  0
    1.3973    0.4062    0.0097 C   0  0  0  0  0  0  0  0  0  0  0  0
    2.2859    1.4785    0.0884 C   0  0  0  0  0  0  0  0  0  0  0  0
    1.8840   -0.8993   -0.0597 C   0  0  0  0  0  0  0  0  0  0  0  0
    4.1477   -0.0600    0.0288 C   0  0  0  0  0  0  0  0  0  0  0  0
    3.6609    1.2455    0.0981 C   0  0  0  0  0  0  0  0  0  0  0  0
    3.2593   -1.1324   -0.0500 C   0  0  0  0  0  0  0  0  0  0  0  0
    5.5817   -0.3025    0.0395 C   0  0  0  0  0  0  0  0  0  0  0  0
    6.5404    0.7309   -0.5419 C   0  0  0  0  0  0  0  0  0  0  0  0
   -6.4490   -1.8923   -0.5071 H   0  0  0  0  0  0  0  0  0  0  0  0
   -5.9748   -1.6308    1.1745 H   0  0  0  0  0  0  0  0  0  0  0  0
   -4.1605   -2.1063   -1.1949 H   0  0  0  0  0  0  0  0  0  0  0  0
   -3.8628   -2.4387    0.5358 H   0  0  0  0  0  0  0  0  0  0  0  0
   -6.5005    0.6313    0.8183 H   0  0  0  0  0  0  0  0  0  0  0  0
   -6.3880    0.4654   -0.9630 H   0  0  0  0  0  0  0  0  0  0  0  0
   -0.2629    1.6250    0.0607 H   0  0  0  0  0  0  0  0  0  0  0  0
    1.9195    2.5003    0.1457 H   0  0  0  0  0  0  0  0  0  0  0  0
    1.2642   -1.7817   -0.1236 H   0  0  0  0  0  0  0  0  0  0  0  0
    4.3298    2.0984    0.1732 H   0  0  0  0  0  0  0  0  0  0  0  0
    3.6215   -2.1556   -0.1085 H   0  0  0  0  0  0  0  0  0  0  0  0
    6.8324    1.4384    0.2378 H   0  0  0  0  0  0  0  0  0  0  0  0
    6.0802    1.2583   -1.3818 H   0  0  0  0  0  0  0  0  0  0  0  0
    7.4290    0.2185   -0.9229 H   0  0  0  0  0  0  0  0  0  0  0  0
  1  4  1  0  0  0  0
  1 10  1  0  0  0  0
  2 12  2  0  0  0  0
  3 19  2  0  0  0  0
  4 11  2  0  0  0  0
  5 12  1  0  0  0  0
  5 13  1  0  0  0  0
  5 27  1  0  0  0  0
  6  7  1  0  0  0  0
  6  8  1  0  0  0  0
  6 21  1  0  0  0  0
  6 22  1  0  0  0  0
  7  9  1  0  0  0  0
  7 23  1  0  0  0  0
  7 24  1  0  0  0  0
  8 10  1  0  0  0  0
  8 25  1  0  0  0  0
  8 26  1  0  0  0  0
  9 10  2  0  0  0  0
  9 11  1  0  0  0  0
 11 12  1  0  0  0  0
 13 14  2  0  0  0  0
 13 15  1  0  0  0  0
 14 17  1  0  0  0  0
 14 28  1  0  0  0  0
 15 18  2  0  0  0  0
 15 29  1  0  0  0  0
 16 17  2  0  0  0  0
 16 18  1  0  0  0  0
 16 19  1  0  0  0  0
 17 30  1  0  0  0  0
 18 31  1  0  0  0  0
 19 20  1  0  0  0  0
 20 32  1  0  0  0  0
 20 33  1  0  0  0  0
 20 34  1  0  0  0  0
M  END
> <PUBCHEM_COMPOUND_CID>
16188851

> <PUBCHEM_CONFORMER_RMSD>
0.6

> <PUBCHEM_CONFORMER_DIVERSEORDER>
1
15
24
7
28
10
18
16
33
9
31
19
2
8
5
4
12
26
17
3
34
32
21
6
25
11
20
30
23
14
27
22
13
29

> <PUBCHEM_MMFF94_PARTIAL_CHARGES>
24
1 -0.02
10 -0.04
11 0.2
12 0.72
13 0.12
14 -0.15
15 -0.15
16 0.09
17 -0.15
18 -0.15
19 0.42
2 -0.57
20 0.06
27 0.37
28 0.15
29 0.15
3 -0.57
30 0.15
31 0.15
4 -0.41
5 -0.55
7 0.18
8 0.18
9 -0.18

> <PUBCHEM_EFFECTIVE_ROTOR_COUNT>
4.6

> <PUBCHEM_PHARMACOPHORE_FEATURES>
7
1 2 acceptor
1 3 acceptor
1 4 acceptor
1 5 donor
5 1 4 9 10 11 rings
5 6 7 8 9 10 rings
6 13 14 15 16 17 18 rings

> <PUBCHEM_HEAVY_ATOM_COUNT>
20

> <PUBCHEM_ATOM_DEF_STEREO_COUNT>
0

> <PUBCHEM_ATOM_UDEF_STEREO_COUNT>
0

> <PUBCHEM_BOND_DEF_STEREO_COUNT>
0

> <PUBCHEM_BOND_UDEF_STEREO_COUNT>
0

> <PUBCHEM_ISOTOPIC_ATOM_COUNT>
0

> <PUBCHEM_COMPONENT_COUNT>
1

> <PUBCHEM_CACTVS_TAUTO_COUNT>
9

> <PUBCHEM_CONFORMER_ID>
00F705B300000001

> <PUBCHEM_MMFF94_ENERGY>
69.8257

> <PUBCHEM_FEATURE_SELFOVERLAP>
35.775

> <PUBCHEM_SHAPE_FINGERPRINT>
10 15 18341321302012914736
10366900 7 16443061703237328808
10595046 47 18408041814489533632
10968037 39 18407760352656142335
11315181 36 18412829101344800225
11524674 6 16630808833245761567
12091667 2 17385444310773990509
12107183 9 17689151210455071273
12166972 35 18336267924332408724
12236239 1 18259704493078040340
12403259 415 18271796934618980265
12516196 113 18272932739289905256
12616971 3 16845285085670539252
13073987 5 18411134706591917512
13167823 11 18410571794982134147
13288520 33 18411701006809603631
13533116 47 16950554443018405530
1420 363 18343586252130093446
14251718 22 18408324393177783390
14251732 16 18337672013839585656
14251764 18 18410857676331286537
14341114 176 18410014368166738449
15042514 8 18194965365037763479
15183329 4 18410295792020436594
15196674 1 18411418427309230400
17834072 33 18410293631477774412
17844677 252 18412269449399092217
17857418 61 18410290315568063859
18681886 176 18342453785814341448
18927931 339 18341898519726321823
19433438 28 18342172280282392185
19489759 90 18040434391320283513
200 152 18202563977446731065
20645477 70 18339925918546351430
21150785 3 16950286247252469830
21267235 1 18411707598819609358
21709351 56 18334570252556026221
2297311 6 18202009823644652909
23035841 295 18408604769043929507
23402539 116 18341608226796442085
23522609 53 18192179073307475876
23536379 177 18408885127012528160
23559900 14 18338792428957510753
26918003 58 18273495676110108467
3004659 81 18334298635526291462
335352 9 18411980270226615613
34797466 226 17346324834383986636
350125 39 18411419522504798405
351380 180 18410011052562515433
3545911 37 18413108359664536373
4073 2 17968382359339123802
4214541 1 18411418397661158225
42788 4 18410573989462249188
4340502 62 14620797102639009908
4463277 17 18410293618856746516
465052 167 18342459240644411910
5104073 3 18341612641648374048
542803 24 17603587434677680452
59755656 215 18411138013263457607
59755656 520 17385439942850760603
67856867 119 18263365948203083517
7495541 125 17703505601070071769
77779 3 18411700984891830817
9709674 26 18411707594757302895
9996256 80 18411699906586235118

> <PUBCHEM_SHAPE_MULTIPOLES>
384.02
16.4
1.64
0.63
4.89
0.03
-0.01
-1.9
-0.12
-0.61
0.05
0.16
-0.01
-0.32

> <PUBCHEM_SHAPE_SELFOVERLAP>
836.482

> <PUBCHEM_SHAPE_VOLUME>
211.6

> <PUBCHEM_COORDINATE_TYPE>
2
5
10

$$$$
