5338360
  -OEChem-01171809443D

 33 35  0     0  0  0  0  0  0999 V2000
    4.3346   -2.2113   -0.0002 O   0  0  0  0  0  0  0  0  0  0  0  0
    6.2708   -0.7765    0.0032 O   0  0  0  0  0  0  0  0  0  0  0  0
   -7.0294   -0.1521    0.0059 O   0  0  0  0  0  0  0  0  0  0  0  0
   -6.1592   -2.2519    0.0002 O   0  0  0  0  0  0  0  0  0  0  0  0
   -0.9686    1.5759   -0.0012 N   0  0  0  0  0  0  0  0  0  0  0  0
    0.1755    0.8644   -0.0022 N   0  0  0  0  0  0  0  0  0  0  0  0
    4.0004   -0.8920   -0.0010 C   0  0  0  0  0  0  0  0  0  0  0  0
    5.1061   -0.0728    0.0010 C   0  0  0  0  0  0  0  0  0  0  0  0
    2.5739    1.0078   -0.0010 C   0  0  0  0  0  0  0  0  0  0  0  0
    2.7185   -0.3816   -0.0022 C   0  0  0  0  0  0  0  0  0  0  0  0
    4.9909    1.3021    0.0020 C   0  0  0  0  0  0  0  0  0  0  0  0
    3.7036    1.8448    0.0010 C   0  0  0  0  0  0  0  0  0  0  0  0
    5.7746   -2.1305    0.0018 C   0  0  0  0  0  0  0  0  0  0  0  0
    1.2431    1.5948   -0.0013 C   0  0  0  0  0  0  0  0  0  0  0  0
   -2.2145    0.9295   -0.0018 C   0  0  0  0  0  0  0  0  0  0  0  0
   -2.2836   -0.4671   -0.0046 C   0  0  0  0  0  0  0  0  0  0  0  0
   -3.3959    1.6775    0.0014 C   0  0  0  0  0  0  0  0  0  0  0  0
   -4.6971   -0.3582   -0.0005 C   0  0  0  0  0  0  0  0  0  0  0  0
   -3.5217   -1.1093   -0.0038 C   0  0  0  0  0  0  0  0  0  0  0  0
   -4.6342    1.0352    0.0021 C   0  0  0  0  0  0  0  0  0  0  0  0
   -5.9879   -1.0285    0.0014 C   0  0  0  0  0  0  0  0  0  0  0  0
    1.8688   -1.0560   -0.0033 H   0  0  0  0  0  0  0  0  0  0  0  0
    5.8645    1.9440    0.0039 H   0  0  0  0  0  0  0  0  0  0  0  0
    3.5888    2.9263    0.0021 H   0  0  0  0  0  0  0  0  0  0  0  0
    6.1560   -2.6432   -0.8888 H   0  0  0  0  0  0  0  0  0  0  0  0
    6.1537   -2.6441    0.8929 H   0  0  0  0  0  0  0  0  0  0  0  0
    1.1872    2.6996   -0.0001 H   0  0  0  0  0  0  0  0  0  0  0  0
   -1.3889   -1.0842   -0.0069 H   0  0  0  0  0  0  0  0  0  0  0  0
   -3.3610    2.7642    0.0036 H   0  0  0  0  0  0  0  0  0  0  0  0
   -3.5496   -2.1958   -0.0057 H   0  0  0  0  0  0  0  0  0  0  0  0
   -5.5240    1.6583    0.0048 H   0  0  0  0  0  0  0  0  0  0  0  0
   -0.9552    2.5897    0.0001 H   0  0  0  0  0  0  0  0  0  0  0  0
   -7.8949   -0.6139    0.0077 H   0  0  0  0  0  0  0  0  0  0  0  0
  1  7  1  0  0  0  0
  1 13  1  0  0  0  0
  2  8  1  0  0  0  0
  2 13  1  0  0  0  0
  3 21  1  0  0  0  0
  3 33  1  0  0  0  0
  4 21  2  0  0  0  0
  5  6  1  0  0  0  0
  5 15  1  0  0  0  0
  5 32  1  0  0  0  0
  6 14  2  0  0  0  0
  7  8  2  0  0  0  0
  7 10  1  0  0  0  0
  8 11  1  0  0  0  0
  9 10  2  0  0  0  0
  9 12  1  0  0  0  0
  9 14  1  0  0  0  0
 10 22  1  0  0  0  0
 11 12  2  0  0  0  0
 11 23  1  0  0  0  0
 12 24  1  0  0  0  0
 13 25  1  0  0  0  0
 13 26  1  0  0  0  0
 14 27  1  0  0  0  0
 15 16  2  0  0  0  0
 15 17  1  0  0  0  0
 16 19  1  0  0  0  0
 16 28  1  0  0  0  0
 17 20  2  0  0  0  0
 17 29  1  0  0  0  0
 18 19  2  0  0  0  0
 18 20  1  0  0  0  0
 18 21  1  0  0  0  0
 19 30  1  0  0  0  0
 20 31  1  0  0  0  0
M  END
> <PUBCHEM_COMPOUND_CID>
5338360

> <PUBCHEM_CONFORMER_RMSD>
0.8

> <PUBCHEM_CONFORMER_DIVERSEORDER>
1
11
13
5
2
12
3
7
4
10
6
8
9

> <PUBCHEM_MMFF94_PARTIAL_CHARGES>
31
1 -0.36
10 -0.15
11 -0.15
12 -0.15
13 0.56
14 0.3
15 0.1
16 -0.15
17 -0.15
18 0.09
19 -0.15
2 -0.36
20 -0.15
21 0.63
22 0.15
23 0.15
24 0.15
27 0.06
28 0.15
29 0.15
3 -0.65
30 0.15
31 0.15
32 0.4
33 0.5
4 -0.57
5 -0.46
6 -0.49
7 0.08
8 0.08
9 0.09

> <PUBCHEM_EFFECTIVE_ROTOR_COUNT>
4.6

> <PUBCHEM_PHARMACOPHORE_FEATURES>
10
1 1 acceptor
1 2 acceptor
1 3 acceptor
1 4 acceptor
1 5 donor
1 6 acceptor
3 3 4 21 anion
5 1 2 7 8 13 rings
6 15 16 17 18 19 20 rings
6 7 8 9 10 11 12 rings

> <PUBCHEM_HEAVY_ATOM_COUNT>
21

> <PUBCHEM_ATOM_DEF_STEREO_COUNT>
0

> <PUBCHEM_ATOM_UDEF_STEREO_COUNT>
0

> <PUBCHEM_BOND_DEF_STEREO_COUNT>
1

> <PUBCHEM_BOND_UDEF_STEREO_COUNT>
0

> <PUBCHEM_ISOTOPIC_ATOM_COUNT>
0

> <PUBCHEM_COMPONENT_COUNT>
1

> <PUBCHEM_CACTVS_TAUTO_COUNT>
2

> <PUBCHEM_CONFORMER_ID>
005174F800000001

> <PUBCHEM_MMFF94_ENERGY>
64.5539

> <PUBCHEM_FEATURE_SELFOVERLAP>
50.961

> <PUBCHEM_SHAPE_FINGERPRINT>
10 15 11959724984313278854
10595046 47 18410296925744642244
10835480 77 18410565202070938413
11524674 6 16702303477572802823
12107183 9 17836652915819722928
12166972 35 18335424581660117508
12236239 1 18412265042947048465
12516196 113 18273494589220073880
12596602 18 17847064384680422256
12616971 3 16343414089814831561
12633257 1 15913321424785664597
12760667 363 18342455950693941263
13073987 5 18344146990181119608
13167823 11 18411135827151185032
13288520 33 18410575094107828709
13402501 40 18409450284310640275
13533116 47 18341332274952800480
13551218 46 18413671314166386135
13685833 64 18410294709219108163
13955234 65 18057317503918792840
14211702 104 18336838592837816283
14251764 18 18273216404182835545
14341114 176 18410577305177105772
14461889 52 18265608965457164024
15183329 4 18335420145179836387
15196674 1 18410575071783477764
15352361 1 18410575072026330728
15483637 11 18048879885883746034
17492 89 18197498424926469558
17844677 252 18411424998651865512
17857418 61 18413388748109512223
1813 80 17312821576244079372
20028762 73 18341892961870536926
20645477 70 18408885118728476996
21065198 48 18343590628844641288
21130935 74 18272090521798903211
21197605 99 18342459291736334638
21267235 1 18410862052902961166
21623969 137 17988927760200401350
221357 26 18335419058484681384
23522609 53 18123503598115927289
23559900 14 18338791342816198457
239999 70 18272656736549474542
28498 318 18409164403672800053
2871803 45 18040713658493984576
29717793 49 17821730550113170980
3004659 81 18259984868822815112
3411729 13 15912184594962488968
351380 3 18411416211069104439
4073 2 18114186396821484962
4214541 1 18410855421590150277
4325135 7 18333734645905941780
46194498 28 17386005117602243460
465052 167 18201722830246494262
5104073 3 18131069307619236800
559249 180 18410572843354931573
5718773 13 18189893124667450922
59682541 35 18200861943176312946
7495541 125 17775000223637862200
999808 66 18041009479331767219

> <PUBCHEM_SHAPE_MULTIPOLES>
398.73
18.54
2.22
0.59
7.76
0.48
0
8.85
0.02
-1.09
0
-0.02
-0.02
0

> <PUBCHEM_SHAPE_SELFOVERLAP>
876.758

> <PUBCHEM_SHAPE_VOLUME>
214.9

> <PUBCHEM_COORDINATE_TYPE>
2
5
10

$$$$
