906456
  -OEChem-01171809433D

 42 45  0     0  0  0  0  0  0999 V2000
    1.9214   -2.3987    0.0410 O   0  0  0  0  0  0  0  0  0  0  0  0
   -2.8584   -2.8351   -0.3907 O   0  0  0  0  0  0  0  0  0  0  0  0
    4.1685   -2.1793    0.2711 O   0  0  0  0  0  0  0  0  0  0  0  0
    6.7371    2.1916   -1.4608 O   0  0  0  0  0  0  0  0  0  0  0  0
    6.6154    1.9067    0.7894 O   0  0  0  0  0  0  0  0  0  0  0  0
    0.4715   -0.4462    0.1611 C   0  0  0  0  0  0  0  0  0  0  0  0
    1.6697    0.3993    0.3610 C   0  0  0  0  0  0  0  0  0  0  0  0
   -1.9367   -0.8000   -0.0631 C   0  0  0  0  0  0  0  0  0  0  0  0
    2.8892   -0.1762    0.4275 C   0  0  0  0  0  0  0  0  0  0  0  0
    0.6377   -1.8224    0.0053 C   0  0  0  0  0  0  0  0  0  0  0  0
   -0.8418    0.0681    0.1300 C   0  0  0  0  0  0  0  0  0  0  0  0
   -1.6891   -2.1578   -0.2167 C   0  0  0  0  0  0  0  0  0  0  0  0
    4.1771    0.5618    0.6915 C   0  0  0  0  0  0  0  0  0  0  0  0
   -3.3465   -0.6524   -0.1494 C   0  0  0  0  0  0  0  0  0  0  0  0
   -0.4197   -2.7217   -0.1900 C   0  0  0  0  0  0  0  0  0  0  0  0
    3.0638   -1.6456    0.2478 C   0  0  0  0  0  0  0  0  0  0  0  0
    1.4458    1.8884    0.4640 C   0  0  0  0  0  0  0  0  0  0  0  0
    4.8327    1.0396   -0.5910 C   0  0  0  0  0  0  0  0  0  0  0  0
   -3.8567   -1.9143   -0.3484 C   0  0  0  0  0  0  0  0  0  0  0  0
   -4.1687    0.5173   -0.0613 C   0  0  0  0  0  0  0  0  0  0  0  0
   -4.6601    0.9374    1.1769 C   0  0  0  0  0  0  0  0  0  0  0  0
   -4.4819    1.2427   -1.2131 C   0  0  0  0  0  0  0  0  0  0  0  0
    6.1443    1.7397   -0.3283 C   0  0  0  0  0  0  0  0  0  0  0  0
   -5.4605    2.0766    1.2627 C   0  0  0  0  0  0  0  0  0  0  0  0
   -5.2823    2.3818   -1.1273 C   0  0  0  0  0  0  0  0  0  0  0  0
   -5.7716    2.7988    0.1106 C   0  0  0  0  0  0  0  0  0  0  0  0
   -1.0406    1.1283    0.2540 H   0  0  0  0  0  0  0  0  0  0  0  0
    4.8717   -0.0730    1.2574 H   0  0  0  0  0  0  0  0  0  0  0  0
    4.0034    1.4096    1.3657 H   0  0  0  0  0  0  0  0  0  0  0  0
   -0.2611   -3.7866   -0.3095 H   0  0  0  0  0  0  0  0  0  0  0  0
    2.3702    2.4686    0.5126 H   0  0  0  0  0  0  0  0  0  0  0  0
    0.8689    2.1294    1.3636 H   0  0  0  0  0  0  0  0  0  0  0  0
    0.9071    2.2599   -0.4151 H   0  0  0  0  0  0  0  0  0  0  0  0
    5.0374    0.1903   -1.2532 H   0  0  0  0  0  0  0  0  0  0  0  0
    4.1768    1.7428   -1.1167 H   0  0  0  0  0  0  0  0  0  0  0  0
   -4.8550   -2.3099   -0.4734 H   0  0  0  0  0  0  0  0  0  0  0  0
   -4.4269    0.3868    2.0854 H   0  0  0  0  0  0  0  0  0  0  0  0
   -4.1084    0.9324   -2.1863 H   0  0  0  0  0  0  0  0  0  0  0  0
   -5.8414    2.4015    2.2266 H   0  0  0  0  0  0  0  0  0  0  0  0
   -5.5243    2.9444   -2.0242 H   0  0  0  0  0  0  0  0  0  0  0  0
   -6.3946    3.6858    0.1774 H   0  0  0  0  0  0  0  0  0  0  0  0
    7.5812    2.6548   -1.2727 H   0  0  0  0  0  0  0  0  0  0  0  0
  1 10  1  0  0  0  0
  1 16  1  0  0  0  0
  2 12  1  0  0  0  0
  2 19  1  0  0  0  0
  3 16  2  0  0  0  0
  4 23  1  0  0  0  0
  4 42  1  0  0  0  0
  5 23  2  0  0  0  0
  6  7  1  0  0  0  0
  6 10  1  0  0  0  0
  6 11  2  0  0  0  0
  7  9  2  0  0  0  0
  7 17  1  0  0  0  0
  8 11  1  0  0  0  0
  8 12  2  0  0  0  0
  8 14  1  0  0  0  0
  9 13  1  0  0  0  0
  9 16  1  0  0  0  0
 10 15  2  0  0  0  0
 11 27  1  0  0  0  0
 12 15  1  0  0  0  0
 13 18  1  0  0  0  0
 13 28  1  0  0  0  0
 13 29  1  0  0  0  0
 14 19  2  0  0  0  0
 14 20  1  0  0  0  0
 15 30  1  0  0  0  0
 17 31  1  0  0  0  0
 17 32  1  0  0  0  0
 17 33  1  0  0  0  0
 18 23  1  0  0  0  0
 18 34  1  0  0  0  0
 18 35  1  0  0  0  0
 19 36  1  0  0  0  0
 20 21  2  0  0  0  0
 20 22  1  0  0  0  0
 21 24  1  0  0  0  0
 21 37  1  0  0  0  0
 22 25  2  0  0  0  0
 22 38  1  0  0  0  0
 24 26  2  0  0  0  0
 24 39  1  0  0  0  0
 25 26  1  0  0  0  0
 25 40  1  0  0  0  0
 26 41  1  0  0  0  0
M  END
> <PUBCHEM_COMPOUND_CID>
906456

> <PUBCHEM_CONFORMER_RMSD>
0.8

> <PUBCHEM_CONFORMER_DIVERSEORDER>
1
7
3
5
2
6
8
4

> <PUBCHEM_MMFF94_PARTIAL_CHARGES>
34
1 -0.23
10 0.08
11 -0.15
12 0.14
13 0.14
14 -0.05
15 -0.15
16 0.71
17 0.14
18 0.06
19 -0.01
2 -0.28
20 0.05
21 -0.15
22 -0.15
23 0.66
24 -0.15
25 -0.15
26 -0.15
27 0.15
3 -0.57
30 0.15
36 0.15
37 0.15
38 0.15
39 0.15
4 -0.65
40 0.15
41 0.15
42 0.5
5 -0.57
6 0.03
7 -0.17
9 -0.12

> <PUBCHEM_EFFECTIVE_ROTOR_COUNT>
4

> <PUBCHEM_PHARMACOPHORE_FEATURES>
9
1 2 acceptor
1 3 acceptor
1 4 acceptor
1 5 acceptor
3 4 5 23 anion
5 2 8 12 14 19 rings
6 1 6 7 9 10 16 rings
6 20 21 22 24 25 26 rings
6 6 8 10 11 12 15 rings

> <PUBCHEM_HEAVY_ATOM_COUNT>
26

> <PUBCHEM_ATOM_DEF_STEREO_COUNT>
0

> <PUBCHEM_ATOM_UDEF_STEREO_COUNT>
0

> <PUBCHEM_BOND_DEF_STEREO_COUNT>
0

> <PUBCHEM_BOND_UDEF_STEREO_COUNT>
0

> <PUBCHEM_ISOTOPIC_ATOM_COUNT>
0

> <PUBCHEM_COMPONENT_COUNT>
1

> <PUBCHEM_CACTVS_TAUTO_COUNT>
1

> <PUBCHEM_CONFORMER_ID>
000DD4D800000001

> <PUBCHEM_MMFF94_ENERGY>
68.5598

> <PUBCHEM_FEATURE_SELFOVERLAP>
45.858

> <PUBCHEM_SHAPE_FINGERPRINT>
10 15 18186806876873647393
10411042 1 16899898589207468295
10554248 39 18266725918483022270
10906281 52 18059585637365626545
11475781 23 18202568402260539252
12107183 9 18192983829666155994
12293681 160 17917715694835670032
12390115 104 18341619234708022163
12422481 6 17458056067373237164
12788726 201 17560526083925855289
13073987 5 18335701662874644035
13540713 5 18337933645746538394
13690498 29 17701253865860861535
14211702 104 9222964681204729152
14765038 42 18129676214029671065
14790565 3 18264772241382514928
14931854 50 17917424286164754945
15064981 113 16557619708419868213
15081414 286 18411707551828663872
15196674 1 18411696582255401594
1601671 61 18409164433289548268
18608769 82 18267306611474065011
21033648 144 18336254666326788757
21033648 29 17386846107064920949
21279426 13 18272377460242805838
21304253 335 18333454244269849324
21421861 104 17896586316056593394
22393880 68 17988075720356303306
23559900 14 18058725789382949790
23569914 152 17055291583727813964
2748736 6 18410846673047606500
283562 15 18336819905852219603
335352 9 18268988683153281822
34934 24 18410851062382493618
350125 39 18412825820264144539
4058900 60 18187362155942118530
5104073 3 18261108564979334698
6327066 14 18335976477153540421
6328613 192 18412546492164465880
633830 44 18259979349326285202
636775 72 18050846917266710200
7495541 125 12324247174003056150
7808743 9 18409163324865979281

> <PUBCHEM_SHAPE_MULTIPOLES>
505.72
15.63
3.48
0.99
10.41
0.75
0.06
-15.81
1.23
-0.95
0.36
-0.41
-0.56
-0.91

> <PUBCHEM_SHAPE_SELFOVERLAP>
1126.638

> <PUBCHEM_SHAPE_VOLUME>
269.8

> <PUBCHEM_COORDINATE_TYPE>
2
5
10

$$$$
