1482682
  -OEChem-01171809283D

 60 63  0     0  0  0  0  0  0999 V2000
   -2.0339    0.4740    0.6675 S   0  0  0  0  0  0  0  0  0  0  0  0
    5.7879    1.7516   -0.6684 O   0  0  0  0  0  0  0  0  0  0  0  0
    4.7444    3.2448    1.4274 O   0  0  0  0  0  0  0  0  0  0  0  0
   -0.2135   -6.3059    1.4856 O   0  0  0  0  0  0  0  0  0  0  0  0
    0.1003   -0.4276   -0.8723 N   0  0  0  0  0  0  0  0  0  0  0  0
    0.4134    1.3076    0.7572 N   0  0  0  0  0  0  0  0  0  0  0  0
    1.8744   -0.9047   -2.4597 N   0  0  0  0  0  0  0  0  0  0  0  0
   -0.7741   -1.4880   -1.3968 C   0  0  0  0  0  0  0  0  0  0  0  0
    2.3062    0.6295   -0.6808 C   0  0  0  0  0  0  0  0  0  0  0  0
    1.3975   -0.3071   -1.4108 C   0  0  0  0  0  0  0  0  0  0  0  0
   -0.3412    0.4435    0.1405 C   0  0  0  0  0  0  0  0  0  0  0  0
    1.7671    1.3815    0.3765 C   0  0  0  0  0  0  0  0  0  0  0  0
   -0.6251   -2.7698   -0.6295 C   0  0  0  0  0  0  0  0  0  0  0  0
    3.6563    0.7557   -1.0300 C   0  0  0  0  0  0  0  0  0  0  0  0
    2.6058    2.2590    1.0743 C   0  0  0  0  0  0  0  0  0  0  0  0
    4.4753    1.6344   -0.3221 C   0  0  0  0  0  0  0  0  0  0  0  0
   -2.6504    1.6927   -0.5064 C   0  0  0  0  0  0  0  0  0  0  0  0
    3.9518    2.3847    0.7283 C   0  0  0  0  0  0  0  0  0  0  0  0
   -4.1186    1.9631   -0.3252 C   0  0  0  0  0  0  0  0  0  0  0  0
    0.3191   -3.7062   -1.0334 C   0  0  0  0  0  0  0  0  0  0  0  0
   -1.4329   -3.0077    0.4763 C   0  0  0  0  0  0  0  0  0  0  0  0
   -4.5527    2.9645    0.5349 C   0  0  0  0  0  0  0  0  0  0  0  0
    0.4577   -4.8975   -0.3214 C   0  0  0  0  0  0  0  0  0  0  0  0
   -1.2942   -4.1989    1.1886 C   0  0  0  0  0  0  0  0  0  0  0  0
   -0.3488   -5.1439    0.7898 C   0  0  0  0  0  0  0  0  0  0  0  0
   -5.0313    1.1906   -1.0338 C   0  0  0  0  0  0  0  0  0  0  0  0
   -5.9194    3.1970    0.6891 C   0  0  0  0  0  0  0  0  0  0  0  0
   -3.5834    3.8023    1.3029 C   0  0  0  0  0  0  0  0  0  0  0  0
   -6.3979    1.4233   -0.8798 C   0  0  0  0  0  0  0  0  0  0  0  0
   -6.8420    2.4263   -0.0182 C   0  0  0  0  0  0  0  0  0  0  0  0
    6.1144    2.7375   -1.6458 C   0  0  0  0  0  0  0  0  0  0  0  0
    5.4158    2.7223    2.5719 C   0  0  0  0  0  0  0  0  0  0  0  0
    0.7722   -7.2283    1.0236 C   0  0  0  0  0  0  0  0  0  0  0  0
   -0.6089   -1.6706   -2.4645 H   0  0  0  0  0  0  0  0  0  0  0  0
   -1.8277   -1.1857   -1.3967 H   0  0  0  0  0  0  0  0  0  0  0  0
    4.0845    0.1762   -1.8435 H   0  0  0  0  0  0  0  0  0  0  0  0
    2.2048    2.8522    1.8938 H   0  0  0  0  0  0  0  0  0  0  0  0
   -2.4754    1.3210   -1.5238 H   0  0  0  0  0  0  0  0  0  0  0  0
   -2.0624    2.6135   -0.4359 H   0  0  0  0  0  0  0  0  0  0  0  0
    0.9492   -3.5348   -1.9005 H   0  0  0  0  0  0  0  0  0  0  0  0
   -2.2002   -2.3116    0.7899 H   0  0  0  0  0  0  0  0  0  0  0  0
    1.2099   -5.5885   -0.6865 H   0  0  0  0  0  0  0  0  0  0  0  0
   -1.9306   -4.3889    2.0486 H   0  0  0  0  0  0  0  0  0  0  0  0
    1.1928   -1.5145   -2.9074 H   0  0  0  0  0  0  0  0  0  0  0  0
   -4.6990    0.4047   -1.7066 H   0  0  0  0  0  0  0  0  0  0  0  0
   -6.2827    3.9747    1.3557 H   0  0  0  0  0  0  0  0  0  0  0  0
   -2.9265    3.1838    1.9215 H   0  0  0  0  0  0  0  0  0  0  0  0
   -2.9825    4.4174    0.6255 H   0  0  0  0  0  0  0  0  0  0  0  0
   -4.0994    4.4885    1.9841 H   0  0  0  0  0  0  0  0  0  0  0  0
   -7.1165    0.8230   -1.4302 H   0  0  0  0  0  0  0  0  0  0  0  0
   -7.9062    2.6071    0.1016 H   0  0  0  0  0  0  0  0  0  0  0  0
    7.1953    2.7133   -1.8089 H   0  0  0  0  0  0  0  0  0  0  0  0
    5.6124    2.5188   -2.5936 H   0  0  0  0  0  0  0  0  0  0  0  0
    5.8358    3.7360   -1.2944 H   0  0  0  0  0  0  0  0  0  0  0  0
    6.0114    3.5248    3.0157 H   0  0  0  0  0  0  0  0  0  0  0  0
    4.6919    2.3719    3.3143 H   0  0  0  0  0  0  0  0  0  0  0  0
    6.0865    1.9058    2.2861 H   0  0  0  0  0  0  0  0  0  0  0  0
    1.7807   -6.8063    1.0904 H   0  0  0  0  0  0  0  0  0  0  0  0
    0.5409   -7.5937    0.0173 H   0  0  0  0  0  0  0  0  0  0  0  0
    0.7431   -8.0945    1.6927 H   0  0  0  0  0  0  0  0  0  0  0  0
  1 11  1  0  0  0  0
  1 17  1  0  0  0  0
  2 16  1  0  0  0  0
  2 31  1  0  0  0  0
  3 18  1  0  0  0  0
  3 32  1  0  0  0  0
  4 25  1  0  0  0  0
  4 33  1  0  0  0  0
  5  8  1  0  0  0  0
  5 10  1  0  0  0  0
  5 11  1  0  0  0  0
  6 11  2  0  0  0  0
  6 12  1  0  0  0  0
  7 10  2  0  0  0  0
  7 44  1  0  0  0  0
  8 13  1  0  0  0  0
  8 34  1  0  0  0  0
  8 35  1  0  0  0  0
  9 10  1  0  0  0  0
  9 12  1  0  0  0  0
  9 14  2  0  0  0  0
 12 15  2  0  0  0  0
 13 20  2  0  0  0  0
 13 21  1  0  0  0  0
 14 16  1  0  0  0  0
 14 36  1  0  0  0  0
 15 18  1  0  0  0  0
 15 37  1  0  0  0  0
 16 18  2  0  0  0  0
 17 19  1  0  0  0  0
 17 38  1  0  0  0  0
 17 39  1  0  0  0  0
 19 22  1  0  0  0  0
 19 26  2  0  0  0  0
 20 23  1  0  0  0  0
 20 40  1  0  0  0  0
 21 24  2  0  0  0  0
 21 41  1  0  0  0  0
 22 27  2  0  0  0  0
 22 28  1  0  0  0  0
 23 25  2  0  0  0  0
 23 42  1  0  0  0  0
 24 25  1  0  0  0  0
 24 43  1  0  0  0  0
 26 29  1  0  0  0  0
 26 45  1  0  0  0  0
 27 30  1  0  0  0  0
 27 46  1  0  0  0  0
 28 47  1  0  0  0  0
 28 48  1  0  0  0  0
 28 49  1  0  0  0  0
 29 30  2  0  0  0  0
 29 50  1  0  0  0  0
 30 51  1  0  0  0  0
 31 52  1  0  0  0  0
 31 53  1  0  0  0  0
 31 54  1  0  0  0  0
 32 55  1  0  0  0  0
 32 56  1  0  0  0  0
 32 57  1  0  0  0  0
 33 58  1  0  0  0  0
 33 59  1  0  0  0  0
 33 60  1  0  0  0  0
M  END
> <PUBCHEM_COMPOUND_CID>
1482682

> <PUBCHEM_CONFORMER_RMSD>
1

> <PUBCHEM_CONFORMER_DIVERSEORDER>
3
40
65
59
22
50
97
101
82
75
36
51
37
104
81
69
62
42
84
66
52
26
32
39
46
16
15
87
85
91
34
24
95
71
49
96
48
10
33
93
64
14
89
61
78
99
54
68
31
74
77
98
35
19
90
23
45
55
41
80
2
7
29
100
18
105
76
94
70
21
47
103
1
38
83
12
9
27
57
43
4
17
72
13
60
44
8
30
6
58
73
11
86
53
67
63
5
92
56
79
28
20
25
88
102

> <PUBCHEM_MMFF94_PARTIAL_CHARGES>
44
1 -0.37
10 0.41
11 0.64
12 0.18
13 -0.14
14 -0.15
15 -0.15
16 0.08
17 0.37
18 0.08
19 -0.14
2 -0.36
20 -0.15
21 -0.15
22 -0.14
23 -0.15
24 -0.15
25 0.08
26 -0.15
27 -0.15
28 0.14
29 -0.15
3 -0.36
30 -0.15
31 0.28
32 0.28
33 0.28
36 0.15
37 0.15
4 -0.36
40 0.15
41 0.15
42 0.15
43 0.15
44 0.4
45 0.15
46 0.15
5 -0.47
50 0.15
51 0.15
6 -0.63
7 -0.85
8 0.51
9 0.09

> <PUBCHEM_EFFECTIVE_ROTOR_COUNT>
8

> <PUBCHEM_PHARMACOPHORE_FEATURES>
10
1 2 acceptor
1 3 acceptor
1 4 acceptor
1 7 donor
3 5 6 11 cation
3 5 7 10 cation
6 13 20 21 23 24 25 rings
6 19 22 26 27 29 30 rings
6 5 6 9 10 11 12 rings
6 9 12 14 15 16 18 rings

> <PUBCHEM_HEAVY_ATOM_COUNT>
33

> <PUBCHEM_ATOM_DEF_STEREO_COUNT>
0

> <PUBCHEM_ATOM_UDEF_STEREO_COUNT>
0

> <PUBCHEM_BOND_DEF_STEREO_COUNT>
0

> <PUBCHEM_BOND_UDEF_STEREO_COUNT>
0

> <PUBCHEM_ISOTOPIC_ATOM_COUNT>
0

> <PUBCHEM_COMPONENT_COUNT>
1

> <PUBCHEM_CACTVS_TAUTO_COUNT>
1

> <PUBCHEM_CONFORMER_ID>
00169FBA00000003

> <PUBCHEM_MMFF94_ENERGY>
130.6413

> <PUBCHEM_FEATURE_SELFOVERLAP>
50.877

> <PUBCHEM_SHAPE_FINGERPRINT>
10074138 170 18052231154184903320
10675989 125 18200595774297922281
10721379 63 17981332192405385273
10985338 8 16628555762053547601
11062273 23 18119525698290047802
11411753 3 17842004566443199360
11445158 3 17752461202153014538
11488393 25 17901658272542144453
11621639 183 17699258244152395480
11763715 3 17108492991061396732
11991303 11 18262521506166487244
12597179 24 18261398823701637787
12788726 201 17981300585620026975
13540713 4 17773037686526491916
13955234 65 18194686960735062865
14068700 675 16966054017189916607
14190465 44 18270390733074271848
14394314 77 17039792760643770227
14675019 173 9583522036343492319
14784336 7 17690577290396939710
15347591 1 18194123156769893716
15927050 60 18412546496280696143
16090146 7 18267891469644589528
16993438 75 17985259918090244095
17980427 26 18267858381315748925
18393751 57 18409725188620806697
18681886 176 17413590545820078775
19319366 153 18340764841607163533
20505436 4 17821729468498973616
21033648 29 18341333374396376280
21049683 118 18198318775994825648
21796203 349 17259093717852906699
22956985 138 17832417601266318522
249999 5 18265894645196066867
25223398 141 17972068987071854719
3380486 145 16473720777829622036
3418910 222 17111569992081476586
376196 1 17988921167378135740
4058900 60 18340219491717993021
4409770 3 18192153922073364191
504843 32 18261960755310037855
59755656 520 18409161134184998829
6058803 2 17912079453068490669
613672 6 16828673321107370967
6371380 46 18413110533566932262
6669772 16 18411983520482994247
6673363 416 17186163064291612934
6697151 62 17326310153598215525
6703917 75 18336564788234729989
6898599 12 18119261798610143924
7288768 16 18341322375274775165
9658208 31 18342173427424061320
9981440 41 18409166615301506513

> <PUBCHEM_SHAPE_MULTIPOLES>
650.42
13.01
9.27
1.73
10.4
23.34
0.09
-25.17
-0.4
-4.27
5.2
-1.9
-0.32
0.25

> <PUBCHEM_SHAPE_SELFOVERLAP>
1391.818

> <PUBCHEM_SHAPE_VOLUME>
363.3

> <PUBCHEM_COORDINATE_TYPE>
2
5
10

$$$$
