46942460
  -OEChem-01171810183D

 37 40  0     0  0  0  0  0  0999 V2000
   -6.5573    0.2222    0.2211 O   0  0  0  0  0  0  0  0  0  0  0  0
   -3.7643    0.0658   -0.0502 N   0  0  0  0  0  0  0  0  0  0  0  0
    4.0160    0.6913    0.0434 N   0  0  0  0  0  0  0  0  0  0  0  0
    6.0023   -0.2607    0.0116 N   0  0  0  0  0  0  0  0  0  0  0  0
    6.1705    1.1072    0.0927 N   0  0  0  0  0  0  0  0  0  0  0  0
   -4.3798    1.1988    0.6544 C   0  0  0  0  0  0  0  0  0  0  0  0
   -4.5842   -1.1488   -0.1159 C   0  0  0  0  0  0  0  0  0  0  0  0
   -2.3691   -0.0336   -0.0481 C   0  0  0  0  0  0  0  0  0  0  0  0
   -5.7934    1.4246    0.1301 C   0  0  0  0  0  0  0  0  0  0  0  0
   -5.9873   -0.7979   -0.5984 C   0  0  0  0  0  0  0  0  0  0  0  0
   -1.7504   -1.1567    0.5010 C   0  0  0  0  0  0  0  0  0  0  0  0
   -1.5964    0.9907   -0.5952 C   0  0  0  0  0  0  0  0  0  0  0  0
    0.4137   -0.2311   -0.0440 C   0  0  0  0  0  0  0  0  0  0  0  0
   -0.3589   -1.2555    0.5030 C   0  0  0  0  0  0  0  0  0  0  0  0
   -0.2049    0.8920   -0.5930 C   0  0  0  0  0  0  0  0  0  0  0  0
    1.8856   -0.3354   -0.0414 C   0  0  0  0  0  0  0  0  0  0  0  0
    2.6299    0.7898    0.0335 C   0  0  0  0  0  0  0  0  0  0  0  0
    2.5979   -1.6195   -0.1048 C   0  0  0  0  0  0  0  0  0  0  0  0
    4.7095   -0.5046   -0.0171 C   0  0  0  0  0  0  0  0  0  0  0  0
    3.9428   -1.6972   -0.0938 C   0  0  0  0  0  0  0  0  0  0  0  0
    4.9777    1.6588    0.1111 C   0  0  0  0  0  0  0  0  0  0  0  0
   -4.1511   -1.8850   -0.8033 H   0  0  0  0  0  0  0  0  0  0  0  0
   -4.6476   -1.5958    0.8840 H   0  0  0  0  0  0  0  0  0  0  0  0
   -4.4143    0.9646    1.7257 H   0  0  0  0  0  0  0  0  0  0  0  0
   -3.8071    2.1244    0.5320 H   0  0  0  0  0  0  0  0  0  0  0  0
   -5.7832    1.7726   -0.9100 H   0  0  0  0  0  0  0  0  0  0  0  0
   -6.2967    2.1888    0.7307 H   0  0  0  0  0  0  0  0  0  0  0  0
   -6.6342   -1.6789   -0.5383 H   0  0  0  0  0  0  0  0  0  0  0  0
   -5.9785   -0.4634   -1.6429 H   0  0  0  0  0  0  0  0  0  0  0  0
   -2.3204   -1.9643    0.9516 H   0  0  0  0  0  0  0  0  0  0  0  0
   -2.0610    1.8645   -1.0450 H   0  0  0  0  0  0  0  0  0  0  0  0
    0.0898   -2.1337    0.9592 H   0  0  0  0  0  0  0  0  0  0  0  0
    0.3560    1.6984   -1.0573 H   0  0  0  0  0  0  0  0  0  0  0  0
    2.2323    1.7949    0.1091 H   0  0  0  0  0  0  0  0  0  0  0  0
    2.0231   -2.5362   -0.1878 H   0  0  0  0  0  0  0  0  0  0  0  0
    4.4473   -2.6551   -0.1516 H   0  0  0  0  0  0  0  0  0  0  0  0
    4.7594    2.7158    0.1700 H   0  0  0  0  0  0  0  0  0  0  0  0
  1  9  1  0  0  0  0
  1 10  1  0  0  0  0
  2  6  1  0  0  0  0
  2  7  1  0  0  0  0
  2  8  1  0  0  0  0
  3 17  1  0  0  0  0
  3 19  1  0  0  0  0
  3 21  1  0  0  0  0
  4  5  1  0  0  0  0
  4 19  2  0  0  0  0
  5 21  2  0  0  0  0
  6  9  1  0  0  0  0
  6 24  1  0  0  0  0
  6 25  1  0  0  0  0
  7 10  1  0  0  0  0
  7 22  1  0  0  0  0
  7 23  1  0  0  0  0
  8 11  2  0  0  0  0
  8 12  1  0  0  0  0
  9 26  1  0  0  0  0
  9 27  1  0  0  0  0
 10 28  1  0  0  0  0
 10 29  1  0  0  0  0
 11 14  1  0  0  0  0
 11 30  1  0  0  0  0
 12 15  2  0  0  0  0
 12 31  1  0  0  0  0
 13 14  2  0  0  0  0
 13 15  1  0  0  0  0
 13 16  1  0  0  0  0
 14 32  1  0  0  0  0
 15 33  1  0  0  0  0
 16 17  2  0  0  0  0
 16 18  1  0  0  0  0
 17 34  1  0  0  0  0
 18 20  2  0  0  0  0
 18 35  1  0  0  0  0
 19 20  1  0  0  0  0
 20 36  1  0  0  0  0
 21 37  1  0  0  0  0
M  END
> <PUBCHEM_COMPOUND_CID>
46942460

> <PUBCHEM_CONFORMER_RMSD>
0.6

> <PUBCHEM_CONFORMER_DIVERSEORDER>
1
4
5
6
2
3

> <PUBCHEM_MMFF94_PARTIAL_CHARGES>
29
1 -0.56
10 0.28
11 -0.15
12 -0.15
13 0.03
14 -0.15
15 -0.15
16 -0.03
17 -0.18
18 -0.15
19 0.14
2 -0.84
20 -0.11
21 0.04
3 0.33
30 0.15
31 0.15
32 0.15
33 0.15
34 0.15
35 0.15
36 0.15
37 0.15
4 -0.34
5 -0.34
6 0.37
7 0.37
8 0.1
9 0.28

> <PUBCHEM_EFFECTIVE_ROTOR_COUNT>
3.2

> <PUBCHEM_PHARMACOPHORE_FEATURES>
8
1 1 acceptor
1 2 cation
3 3 4 19 cation
3 3 5 21 cation
5 3 4 5 19 21 rings
6 1 2 6 7 9 10 rings
6 3 16 17 18 19 20 rings
6 8 11 12 13 14 15 rings

> <PUBCHEM_HEAVY_ATOM_COUNT>
21

> <PUBCHEM_ATOM_DEF_STEREO_COUNT>
0

> <PUBCHEM_ATOM_UDEF_STEREO_COUNT>
0

> <PUBCHEM_BOND_DEF_STEREO_COUNT>
0

> <PUBCHEM_BOND_UDEF_STEREO_COUNT>
0

> <PUBCHEM_ISOTOPIC_ATOM_COUNT>
0

> <PUBCHEM_COMPONENT_COUNT>
1

> <PUBCHEM_CACTVS_TAUTO_COUNT>
1

> <PUBCHEM_CONFORMER_ID>
02CC48FC00000001

> <PUBCHEM_MMFF94_ENERGY>
70.7691

> <PUBCHEM_FEATURE_SELFOVERLAP>
43.182

> <PUBCHEM_SHAPE_FINGERPRINT>
10 15 17968372446892500216
10411042 1 17979356357880607838
10595046 47 18343863308039130627
10906281 52 18188227458301405710
11315181 36 18342458162807996009
117890 112 18412546504780186472
12107183 9 17550393934157304507
12236239 1 18272651238437564311
12403259 415 17968372342952890188
12516196 113 18342174475211159809
12730499 353 18410860953940433954
12788726 201 16988850427664049275
13073987 5 18409451358579595427
13167372 99 18341896238407779440
13533116 47 18130787815821371874
14251732 16 18412544348975642171
14251764 18 18408602569450844722
14528608 73 18343021107643517318
14933364 13 18341897385422328177
15048467 5 18343021090321346761
15196674 1 18410012113345772811
17834072 33 18273493481234243999
17844677 252 18341620265231362165
19141452 34 18335421296178616375
19427546 62 18336266859892175598
200 152 18131912662996658978
20281389 69 18260828189540488321
20645477 70 18271246024160477198
21150785 3 16630519653071165285
21236236 1 18410009893496878165
21267235 1 18410296866110550134
220451 1 17060338522451034239
22224240 67 18334008432959491264
23402539 116 18342172276388020229
23536379 177 18273215279133369779
23559900 14 18341325703805779657
239999 70 18200880578538893190
2916195 48 18334573542638118009
29717793 49 17632865200754313078
300161 21 18408881824304048623
3004659 81 18409450250631117562
314173 85 17168146719748943293
335352 9 18410295814133726214
34797466 226 17489596691838847405
34934 24 18335417988985343546
3545911 37 18407760339702597182
4073 2 18114749329722053386
4214541 1 18412545405737901121
42788 4 18412825789312851221
4325135 7 18341611529283466335
4340502 62 15574713586396895394
4463277 17 18409729552016564981
5104073 3 18335140864662480147
542803 24 17988924465759745433
59755656 215 18409173182296276998
59755656 520 17967247615852402171
67856867 119 18339644563623126733
7495541 125 17131826616689153003
8272917 22 18201442428890768950

> <PUBCHEM_SHAPE_MULTIPOLES>
406.38
16.33
1.65
0.7
4.05
0.06
-0.01
-3.07
0.23
-0.56
0.05
0.29
-0.01
-0.16

> <PUBCHEM_SHAPE_SELFOVERLAP>
894.801

> <PUBCHEM_SHAPE_VOLUME>
221.3

> <PUBCHEM_COORDINATE_TYPE>
2
5
10

$$$$
