5731073
  -OEChem-01171809213D

 33 35  0     0  0  0  0  0  0999 V2000
   -3.3806   -0.1091   -0.1196 O   0  0  0  0  0  0  0  0  0  0  0  0
    3.7006   -2.6218    0.4020 O   0  0  0  0  0  0  0  0  0  0  0  0
   -6.8750   -0.1900   -0.2318 O   0  5  0  0  0  0  0  0  0  0  0  0
   -5.3624   -1.6750   -0.8025 O   0  0  0  0  0  0  0  0  0  0  0  0
    1.6344   -1.5478    0.1368 N   0  0  0  0  0  0  0  0  0  0  0  0
    1.5772    0.8005   -0.2496 N   0  0  0  0  0  0  0  0  0  0  0  0
   -5.6609   -0.5329   -0.3438 N   0  3  0  0  0  0  0  0  0  0  0  0
    3.7369   -0.3197    0.0143 C   0  0  0  0  0  0  0  0  0  0  0  0
    0.9720   -0.3377   -0.0822 C   0  0  0  0  0  0  0  0  0  0  0  0
    2.9763    0.8299   -0.2058 C   0  0  0  0  0  0  0  0  0  0  0  0
    3.0373   -1.6075    0.2032 C   0  0  0  0  0  0  0  0  0  0  0  0
    5.1346   -0.2563    0.0542 C   0  0  0  0  0  0  0  0  0  0  0  0
   -0.5070   -0.3468   -0.1281 C   0  0  0  0  0  0  0  0  0  0  0  0
    0.9055   -2.8069    0.3050 C   0  0  0  0  0  0  0  0  0  0  0  0
    3.6342    2.0521   -0.3865 C   0  0  0  0  0  0  0  0  0  0  0  0
    5.7767    0.9678   -0.1274 C   0  0  0  0  0  0  0  0  0  0  0  0
   -1.1453    0.7475    0.2797 C   0  0  0  0  0  0  0  0  0  0  0  0
    5.0276    2.1214   -0.3476 C   0  0  0  0  0  0  0  0  0  0  0  0
   -2.6122    0.8882    0.3036 C   0  0  0  0  0  0  0  0  0  0  0  0
   -3.2793    1.9696    0.7292 C   0  0  0  0  0  0  0  0  0  0  0  0
   -4.6496    0.3502    0.0389 C   0  0  0  0  0  0  0  0  0  0  0  0
   -4.6410    1.6241    0.5579 C   0  0  0  0  0  0  0  0  0  0  0  0
    5.7368   -1.1444    0.2244 H   0  0  0  0  0  0  0  0  0  0  0  0
   -1.0293   -1.2168   -0.5054 H   0  0  0  0  0  0  0  0  0  0  0  0
    0.4200   -3.0580   -0.6432 H   0  0  0  0  0  0  0  0  0  0  0  0
    0.1399   -2.6843    1.0772 H   0  0  0  0  0  0  0  0  0  0  0  0
    1.5645   -3.6300    0.5917 H   0  0  0  0  0  0  0  0  0  0  0  0
    3.0625    2.9609   -0.5589 H   0  0  0  0  0  0  0  0  0  0  0  0
   -0.5977    1.6086    0.6557 H   0  0  0  0  0  0  0  0  0  0  0  0
    6.8610    1.0220   -0.0972 H   0  0  0  0  0  0  0  0  0  0  0  0
    5.5275    3.0752   -0.4891 H   0  0  0  0  0  0  0  0  0  0  0  0
   -2.8823    2.8974    1.1161 H   0  0  0  0  0  0  0  0  0  0  0  0
   -5.5044    2.2330    0.7865 H   0  0  0  0  0  0  0  0  0  0  0  0
  1 19  1  0  0  0  0
  1 21  1  0  0  0  0
  2 11  2  0  0  0  0
  3  7  1  0  0  0  0
  4  7  2  0  0  0  0
  5  9  1  0  0  0  0
  5 11  1  0  0  0  0
  5 14  1  0  0  0  0
  6  9  2  0  0  0  0
  6 10  1  0  0  0  0
  7 21  1  0  0  0  0
  8 10  1  0  0  0  0
  8 11  1  0  0  0  0
  8 12  2  0  0  0  0
  9 13  1  0  0  0  0
 10 15  2  0  0  0  0
 12 16  1  0  0  0  0
 12 23  1  0  0  0  0
 13 17  2  0  0  0  0
 13 24  1  0  0  0  0
 14 25  1  0  0  0  0
 14 26  1  0  0  0  0
 14 27  1  0  0  0  0
 15 18  1  0  0  0  0
 15 28  1  0  0  0  0
 16 18  2  0  0  0  0
 16 30  1  0  0  0  0
 17 19  1  0  0  0  0
 17 29  1  0  0  0  0
 18 31  1  0  0  0  0
 19 20  2  0  0  0  0
 20 22  1  0  0  0  0
 20 32  1  0  0  0  0
 21 22  2  0  0  0  0
 22 33  1  0  0  0  0
M  CHG  2   3  -1   7   1
M  END
> <PUBCHEM_COMPOUND_CID>
5731073

> <PUBCHEM_CONFORMER_RMSD>
0.6

> <PUBCHEM_CONFORMER_DIVERSEORDER>
6
3
4
5
2
7
1

> <PUBCHEM_MMFF94_PARTIAL_CHARGES>
30
1 -0.28
10 0.18
11 0.54
12 -0.15
13 -0.14
14 0.3
15 -0.15
16 -0.15
17 -0.11
18 -0.15
19 0.09
2 -0.57
20 -0.15
21 0.22
22 -0.15
23 0.15
24 0.15
28 0.15
29 0.15
3 -0.52
30 0.15
31 0.15
32 0.15
33 0.15
4 -0.52
5 -0.42
6 -0.63
7 0.96
8 0.09
9 0.5

> <PUBCHEM_EFFECTIVE_ROTOR_COUNT>
3

> <PUBCHEM_PHARMACOPHORE_FEATURES>
8
1 1 acceptor
1 2 acceptor
1 3 acceptor
1 3 anion
1 4 acceptor
5 1 19 20 21 22 rings
6 5 6 8 9 10 11 rings
6 8 10 12 15 16 18 rings

> <PUBCHEM_HEAVY_ATOM_COUNT>
22

> <PUBCHEM_ATOM_DEF_STEREO_COUNT>
0

> <PUBCHEM_ATOM_UDEF_STEREO_COUNT>
0

> <PUBCHEM_BOND_DEF_STEREO_COUNT>
1

> <PUBCHEM_BOND_UDEF_STEREO_COUNT>
0

> <PUBCHEM_ISOTOPIC_ATOM_COUNT>
0

> <PUBCHEM_COMPONENT_COUNT>
1

> <PUBCHEM_CACTVS_TAUTO_COUNT>
1

> <PUBCHEM_CONFORMER_ID>
0057730100000006

> <PUBCHEM_MMFF94_ENERGY>
59.9356

> <PUBCHEM_FEATURE_SELFOVERLAP>
40.719

> <PUBCHEM_SHAPE_FINGERPRINT>
10090160 65 18333449845848836745
10411042 1 17975692780688832322
10595046 47 18412826884841027449
10693767 8 18128265489514907710
10835480 77 18261104141969978501
10912923 1 18272373031862459481
12107183 9 17691691082389359649
12236239 1 18131071510974102720
13167823 11 18341330003152321663
13533116 47 18411416189720933707
13631057 29 18200028573144223711
13785724 45 17620760479502408806
13836976 161 18333736831975450708
14251764 18 18334010606366131664
14341114 328 18201442441638052897
14528608 73 18411140238087924900
14787075 74 18413388752341137217
15196674 1 18339361868516468529
15250474 111 18342726404479453559
16993438 75 18043537320635839987
17492 89 18199189473198176391
17834072 33 18411981355956360453
17844677 252 18268437840891528497
17857418 61 18412259532741079147
18681886 176 18273210881540610954
19377110 9 18272380750135007505
19489759 90 15140674783311682645
200 152 18341610400266229937
20028762 73 18342171108110534182
20157964 124 18334576840998804509
20645477 70 18337955589029157678
21033648 29 16877656829689856381
21054139 6 18411977000823008527
21065198 48 18341897342493812777
21267235 1 18341620295290605222
21709351 56 18265892467009383622
22224240 67 18334852858011221872
23559900 14 17628918932862603727
239999 70 18271531884071976342
335352 9 18408609163439006270
34797466 226 16702027521254831884
3545911 37 18335423482089882676
4073 2 18113344136755453699
4214541 1 18340206280952251121
42630746 31 18410012126773948278
4325135 7 18413670218917849789
474 4 18333454265834635320
474229 33 18411139168709750259
5104073 3 18335426707932134737
59755656 215 18334863805608370966
67856867 119 18411132507167832848
7495541 125 17632291302317396145
8272917 22 18339648828567303862
9709674 26 18337681797854740043

> <PUBCHEM_SHAPE_MULTIPOLES>
414.33
15.19
2.5
0.7
13.89
0.98
0.01
-2.82
-1.43
-1.84
0.21
0.22
-0.03
-1.41

> <PUBCHEM_SHAPE_SELFOVERLAP>
912.303

> <PUBCHEM_SHAPE_VOLUME>
222.3

> <PUBCHEM_COORDINATE_TYPE>
2
5
10

$$$$
