2690573
  -OEChem-01171809513D

 51 54  0     0  0  0  0  0  0999 V2000
    4.2038    4.9523   -0.2204 Cl  0  0  0  0  0  0  0  0  0  0  0  0
   -3.2746   -2.3218    0.6562 S   0  0  0  0  0  0  0  0  0  0  0  0
   -3.3249   -2.4113    2.1052 O   0  0  0  0  0  0  0  0  0  0  0  0
   -4.0491   -3.2460   -0.1534 O   0  0  0  0  0  0  0  0  0  0  0  0
    6.2841   -1.2591    1.1241 O   0  0  0  0  0  0  0  0  0  0  0  0
    0.9759   -1.9751   -0.9227 N   0  0  0  0  0  0  0  0  0  0  0  0
   -1.6345   -2.4573    0.1828 N   0  0  0  0  0  0  0  0  0  0  0  0
    3.0223   -0.0141   -0.8458 N   0  0  0  0  0  0  0  0  0  0  0  0
    4.3677   -1.7967   -0.0128 N   0  0  0  0  0  0  0  0  0  0  0  0
    0.7419   -1.8987    0.5262 C   0  0  0  0  0  0  0  0  0  0  0  0
    0.0585   -2.9419   -1.5424 C   0  0  0  0  0  0  0  0  0  0  0  0
   -0.6998   -1.4890    0.8236 C   0  0  0  0  0  0  0  0  0  0  0  0
   -1.3966   -2.5530   -1.2856 C   0  0  0  0  0  0  0  0  0  0  0  0
    2.3659   -2.3340   -1.2010 C   0  0  0  0  0  0  0  0  0  0  0  0
    3.3253   -1.3402   -0.6443 C   0  0  0  0  0  0  0  0  0  0  0  0
   -3.7152   -0.7096    0.2016 C   0  0  0  0  0  0  0  0  0  0  0  0
    3.8853    0.9630   -0.3457 C   0  0  0  0  0  0  0  0  0  0  0  0
    5.0346    0.5599    0.3478 C   0  0  0  0  0  0  0  0  0  0  0  0
   -4.9711   -0.3244    0.4602 C   0  0  0  0  0  0  0  0  0  0  0  0
    5.2792   -0.9004    0.5178 C   0  0  0  0  0  0  0  0  0  0  0  0
    3.6330    2.3264   -0.5188 C   0  0  0  0  0  0  0  0  0  0  0  0
   -5.5210    1.0076    0.1537 C   0  0  0  0  0  0  0  0  0  0  0  0
    5.9237    1.5060    0.8644 C   0  0  0  0  0  0  0  0  0  0  0  0
    4.5196    3.2737   -0.0040 C   0  0  0  0  0  0  0  0  0  0  0  0
    5.6614    2.8642    0.6855 C   0  0  0  0  0  0  0  0  0  0  0  0
   -6.5097    1.5372    0.9674 C   0  0  0  0  0  0  0  0  0  0  0  0
   -5.0391    1.7052   -0.9423 C   0  0  0  0  0  0  0  0  0  0  0  0
   -7.0307    2.7982    0.6772 C   0  0  0  0  0  0  0  0  0  0  0  0
   -5.5601    2.9663   -1.2322 C   0  0  0  0  0  0  0  0  0  0  0  0
   -6.5559    3.5127   -0.4224 C   0  0  0  0  0  0  0  0  0  0  0  0
    1.3898   -1.1565    1.0046 H   0  0  0  0  0  0  0  0  0  0  0  0
    0.9526   -2.8668    1.0009 H   0  0  0  0  0  0  0  0  0  0  0  0
    0.2434   -3.9536   -1.1567 H   0  0  0  0  0  0  0  0  0  0  0  0
    0.2216   -2.9684   -2.6265 H   0  0  0  0  0  0  0  0  0  0  0  0
   -0.8785   -0.4742    0.4526 H   0  0  0  0  0  0  0  0  0  0  0  0
   -0.8476   -1.4930    1.9087 H   0  0  0  0  0  0  0  0  0  0  0  0
   -2.0396   -3.3246   -1.7210 H   0  0  0  0  0  0  0  0  0  0  0  0
   -1.6270   -1.5962   -1.7684 H   0  0  0  0  0  0  0  0  0  0  0  0
    2.6044   -3.3335   -0.8143 H   0  0  0  0  0  0  0  0  0  0  0  0
    2.5327   -2.3558   -2.2856 H   0  0  0  0  0  0  0  0  0  0  0  0
   -2.9868   -0.0639   -0.2712 H   0  0  0  0  0  0  0  0  0  0  0  0
    2.1909    0.2783   -1.3452 H   0  0  0  0  0  0  0  0  0  0  0  0
   -5.6604   -1.0051    0.9558 H   0  0  0  0  0  0  0  0  0  0  0  0
    2.7426    2.6459   -1.0562 H   0  0  0  0  0  0  0  0  0  0  0  0
    6.8179    1.2077    1.4040 H   0  0  0  0  0  0  0  0  0  0  0  0
    6.3576    3.5948    1.0899 H   0  0  0  0  0  0  0  0  0  0  0  0
   -6.8881    0.9927    1.8284 H   0  0  0  0  0  0  0  0  0  0  0  0
   -4.2772    1.3014   -1.6029 H   0  0  0  0  0  0  0  0  0  0  0  0
   -7.8059    3.2238    1.3077 H   0  0  0  0  0  0  0  0  0  0  0  0
   -5.1937    3.5215   -2.0908 H   0  0  0  0  0  0  0  0  0  0  0  0
   -6.9621    4.4941   -0.6489 H   0  0  0  0  0  0  0  0  0  0  0  0
  1 24  1  0  0  0  0
  2  3  2  0  0  0  0
  2  4  2  0  0  0  0
  2  7  1  0  0  0  0
  2 16  1  0  0  0  0
  5 20  2  0  0  0  0
  6 10  1  0  0  0  0
  6 11  1  0  0  0  0
  6 14  1  0  0  0  0
  7 12  1  0  0  0  0
  7 13  1  0  0  0  0
  8 15  1  0  0  0  0
  8 17  1  0  0  0  0
  8 42  1  0  0  0  0
  9 15  2  0  0  0  0
  9 20  1  0  0  0  0
 10 12  1  0  0  0  0
 10 31  1  0  0  0  0
 10 32  1  0  0  0  0
 11 13  1  0  0  0  0
 11 33  1  0  0  0  0
 11 34  1  0  0  0  0
 12 35  1  0  0  0  0
 12 36  1  0  0  0  0
 13 37  1  0  0  0  0
 13 38  1  0  0  0  0
 14 15  1  0  0  0  0
 14 39  1  0  0  0  0
 14 40  1  0  0  0  0
 16 19  2  0  0  0  0
 16 41  1  0  0  0  0
 17 18  2  0  0  0  0
 17 21  1  0  0  0  0
 18 20  1  0  0  0  0
 18 23  1  0  0  0  0
 19 22  1  0  0  0  0
 19 43  1  0  0  0  0
 21 24  2  0  0  0  0
 21 44  1  0  0  0  0
 22 26  2  0  0  0  0
 22 27  1  0  0  0  0
 23 25  2  0  0  0  0
 23 45  1  0  0  0  0
 24 25  1  0  0  0  0
 25 46  1  0  0  0  0
 26 28  1  0  0  0  0
 26 47  1  0  0  0  0
 27 29  2  0  0  0  0
 27 48  1  0  0  0  0
 28 30  2  0  0  0  0
 28 49  1  0  0  0  0
 29 30  1  0  0  0  0
 29 50  1  0  0  0  0
 30 51  1  0  0  0  0
M  END
> <PUBCHEM_COMPOUND_CID>
2690573

> <PUBCHEM_CONFORMER_RMSD>
0.8

> <PUBCHEM_CONFORMER_DIVERSEORDER>
1
335
327
208
399
390
164
219
67
307
288
92
319
356
191
308
140
62
211
4
392
124
264
162
341
73
212
189
152
60
26
90
333
315
242
402
179
371
378
44
223
181
309
196
39
375
352
357
117
381
213
134
344
343
48
221
387
210
362
33
363
328
350
11
273
385
69
49
329
353
268
199
404
282
246
215
358
405
138
80
50
290
200
382
59
178
113
407
99
173
391
182
302
384
146
201
314
272
118
354
102
330
360
240
400
202
172
396
369
345
66
194
195
176
337
167
398
281
229
144
216
149
235
355
183
346
294
250
41
325
394
241
303
324
339
161
340
253
114
227
376
373
29
296
331
35
218
321
150
317
305
237
409
311
70
14
225
336
372
169
38
205
209
370
220
154
174
262
151
255
284
63
388
72
245
56
130
348
84
166
232
293
224
401
233
6
86
131
393
78
368
347
243
192
247
280
292
397
259
65
214
377
126
16
157
155
122
252
258
168
58
163
145
312
286
95
188
88
269
142
380
228
365
46
244
342
184
109
386
364
274
89
297
367
13
326
175
254
76
57
94
351
45
271
261
338
107
71
238
374
332
100
334
28
116
171
3
156
128
322
249
98
51
291
389
239
289
141
12
379
21
408
20
285
231
93
135
359
36
287
139
8
186
81
180
298
316
82
85
277
301
366
132
83
31
127
123
320
256
17
275
165
34
187
279
43
79
42
266
197
406
112
125
23
37
47
260
111
248
87
349
153
115
361
74
77
133
68
226
61
108
395
306
27
198
2
160
300
7
25
104
129
54
251
91
204
323
19
299
119
203
230
103
75
276
207
206
270
190
32
40
24
106
22
120
217
267
147
101
159
318
403
185
304
96
55
9
136
15
257
158
53
295
170
64
18
5
236
10
234
105
265
263
121
143
278
310
193
313
30
97
383
52
177
110
283
148
222
137

> <PUBCHEM_MMFF94_PARTIAL_CHARGES>
41
1 -0.18
10 0.27
11 0.27
12 0.36
13 0.36
14 0.33
15 0.44
16 -0.17
17 0.1
18 0.09
19 -0.18
2 1.45
20 0.69
21 -0.15
22 0.03
23 -0.15
24 0.18
25 -0.15
26 -0.15
27 -0.15
28 -0.15
29 -0.15
3 -0.65
30 -0.15
4 -0.65
41 0.15
42 0.4
43 0.15
44 0.15
45 0.15
46 0.15
47 0.15
48 0.15
49 0.15
5 -0.57
50 0.15
51 0.15
6 -0.81
7 -0.85
8 -0.55
9 -0.66

> <PUBCHEM_EFFECTIVE_ROTOR_COUNT>
6.2

> <PUBCHEM_PHARMACOPHORE_FEATURES>
10
1 3 acceptor
1 4 acceptor
1 5 acceptor
1 6 cation
1 8 donor
1 9 donor
6 17 18 21 23 24 25 rings
6 22 26 27 28 29 30 rings
6 6 7 10 11 12 13 rings
6 8 9 15 17 18 20 rings

> <PUBCHEM_HEAVY_ATOM_COUNT>
30

> <PUBCHEM_ATOM_DEF_STEREO_COUNT>
0

> <PUBCHEM_ATOM_UDEF_STEREO_COUNT>
0

> <PUBCHEM_BOND_DEF_STEREO_COUNT>
1

> <PUBCHEM_BOND_UDEF_STEREO_COUNT>
0

> <PUBCHEM_ISOTOPIC_ATOM_COUNT>
0

> <PUBCHEM_COMPONENT_COUNT>
1

> <PUBCHEM_CACTVS_TAUTO_COUNT>
3

> <PUBCHEM_CONFORMER_ID>
00290E0D00000001

> <PUBCHEM_MMFF94_ENERGY>
78.393

> <PUBCHEM_FEATURE_SELFOVERLAP>
50.825

> <PUBCHEM_SHAPE_FINGERPRINT>
10673678 19 18201443541281835271
10763959 59 18412554206342558678
10838868 217 18188761756644709853
10864689 126 17902792964305363589
10904742 38 18335139753099562017
11101153 10 18195242450367688575
11399510 152 17896332469887222986
11828042 107 18200008725600222545
11828042 207 17274809247464550457
12107183 9 18336818715797716554
12422481 6 18186801395967889532
12728209 76 17989203776347649303
12857493 111 17764873485592291542
13560911 23 18189042243979363386
13782708 43 9223231840637840347
14117953 113 18200597999797122748
14202776 33 17774149245357932967
14223995 32 17970622996253517669
14251764 30 8430309139321524693
14739800 52 17968936358754760523
14951699 99 18260837050326961468
16990350 14 17975419328210280172
19302320 297 18410579444292787681
19438510 23 18334296436112600875
20058555 10 18411419552923211661
20511986 3 18058723741036133546
20691028 202 18341050710473107129
20715895 44 18342739576848172962
21585482 57 18412254040095177605
21792964 463 17897176925536597452
22122407 14 18336266841915832242
24204213 265 16772111320750147166
2748736 6 18343295951401875321
2838139 119 18409725141259426879
376196 1 18411423895119758975
393628 194 18271526378335658105
4144715 1 18261683674180674242
437795 171 18336256963550067677
437795 96 18335699455720656197
5104073 3 18114461253253982234
550186 72 17474671031935103862
60123966 16 17916877811399679902

> <PUBCHEM_SHAPE_MULTIPOLES>
585.57
20.03
5.81
1.27
11.21
4.1
-0.01
20.71
-3.81
0.31
0.92
0.57
-0.57
1.37

> <PUBCHEM_SHAPE_SELFOVERLAP>
1240.384

> <PUBCHEM_SHAPE_VOLUME>
328.5

> <PUBCHEM_COORDINATE_TYPE>
2
5
10

$$$$
