6265504
  -OEChem-01171809353D

 45 48  0     0  0  0  0  0  0999 V2000
   -2.1304   -0.1579    1.7217 S   0  0  0  0  0  0  0  0  0  0  0  0
   -2.1935    1.1649    2.3058 O   0  0  0  0  0  0  0  0  0  0  0  0
   -2.5529   -1.3171    2.4785 O   0  0  0  0  0  0  0  0  0  0  0  0
    0.2200    1.1388   -0.5046 N   0  0  0  0  0  0  0  0  0  0  0  0
    1.1246    1.3761    1.5116 N   0  0  0  0  0  0  0  0  0  0  0  0
   -0.5240   -0.4222    1.1130 C   0  0  0  0  0  0  0  0  0  0  0  0
    0.2839    0.6784    0.7811 C   0  0  0  0  0  0  0  0  0  0  0  0
    1.0766    2.2043   -0.6109 C   0  0  0  0  0  0  0  0  0  0  0  0
   -3.0756   -0.1380    0.2284 C   0  0  0  0  0  0  0  0  0  0  0  0
   -0.1544   -1.7219    1.0115 C   0  0  0  0  0  0  0  0  0  0  0  0
    1.6290    2.3323    0.6606 C   0  0  0  0  0  0  0  0  0  0  0  0
    1.1414   -2.2049    0.5124 C   0  0  0  0  0  0  0  0  0  0  0  0
    1.4060    3.0414   -1.6776 C   0  0  0  0  0  0  0  0  0  0  0  0
    2.5670    3.3507    0.9003 C   0  0  0  0  0  0  0  0  0  0  0  0
   -3.6004   -1.3241   -0.2552 C   0  0  0  0  0  0  0  0  0  0  0  0
   -3.2726    1.0631   -0.4310 C   0  0  0  0  0  0  0  0  0  0  0  0
    1.2927   -2.4799   -0.8387 C   0  0  0  0  0  0  0  0  0  0  0  0
    2.1924   -2.3770    1.4011 C   0  0  0  0  0  0  0  0  0  0  0  0
    2.5226   -2.9373   -1.3117 C   0  0  0  0  0  0  0  0  0  0  0  0
    2.3413    4.0493   -1.4211 C   0  0  0  0  0  0  0  0  0  0  0  0
    2.9127    4.2030   -0.1559 C   0  0  0  0  0  0  0  0  0  0  0  0
   -4.3451   -1.3088   -1.4346 C   0  0  0  0  0  0  0  0  0  0  0  0
   -4.0174    1.0784   -1.6103 C   0  0  0  0  0  0  0  0  0  0  0  0
    3.4223   -2.8344    0.9282 C   0  0  0  0  0  0  0  0  0  0  0  0
    3.5874   -3.1145   -0.4284 C   0  0  0  0  0  0  0  0  0  0  0  0
   -4.5536   -0.1075   -2.1120 C   0  0  0  0  0  0  0  0  0  0  0  0
    2.7000   -3.2350   -2.7622 C   0  0  0  0  0  0  0  0  0  0  0  0
   -0.3502    0.7636   -1.2517 H   0  0  0  0  0  0  0  0  0  0  0  0
   -0.8275   -2.5333    1.2773 H   0  0  0  0  0  0  0  0  0  0  0  0
    0.9610    2.9200   -2.6586 H   0  0  0  0  0  0  0  0  0  0  0  0
    3.0167    3.4782    1.8798 H   0  0  0  0  0  0  0  0  0  0  0  0
   -3.4445   -2.2706    0.2530 H   0  0  0  0  0  0  0  0  0  0  0  0
   -2.8600    1.9960   -0.0596 H   0  0  0  0  0  0  0  0  0  0  0  0
    0.4623   -2.3431   -1.5277 H   0  0  0  0  0  0  0  0  0  0  0  0
    2.0767   -2.1622    2.4602 H   0  0  0  0  0  0  0  0  0  0  0  0
    2.6284    4.7256   -2.2226 H   0  0  0  0  0  0  0  0  0  0  0  0
    3.6369    4.9958    0.0128 H   0  0  0  0  0  0  0  0  0  0  0  0
   -4.7612   -2.2324   -1.8264 H   0  0  0  0  0  0  0  0  0  0  0  0
   -4.1785    2.0135   -2.1388 H   0  0  0  0  0  0  0  0  0  0  0  0
    4.2513   -2.9725    1.6161 H   0  0  0  0  0  0  0  0  0  0  0  0
    4.5502   -3.4715   -0.7840 H   0  0  0  0  0  0  0  0  0  0  0  0
   -5.1327   -0.0957   -3.0307 H   0  0  0  0  0  0  0  0  0  0  0  0
    2.4008   -4.2665   -2.9733 H   0  0  0  0  0  0  0  0  0  0  0  0
    2.0966   -2.5600   -3.3788 H   0  0  0  0  0  0  0  0  0  0  0  0
    3.7429   -3.1033   -3.0700 H   0  0  0  0  0  0  0  0  0  0  0  0
  1  2  2  0  0  0  0
  1  3  2  0  0  0  0
  1  6  1  0  0  0  0
  1  9  1  0  0  0  0
  4  7  1  0  0  0  0
  4  8  1  0  0  0  0
  4 28  1  0  0  0  0
  5  7  2  0  0  0  0
  5 11  1  0  0  0  0
  6  7  1  0  0  0  0
  6 10  2  0  0  0  0
  8 11  1  0  0  0  0
  8 13  2  0  0  0  0
  9 15  2  0  0  0  0
  9 16  1  0  0  0  0
 10 12  1  0  0  0  0
 10 29  1  0  0  0  0
 11 14  2  0  0  0  0
 12 17  1  0  0  0  0
 12 18  2  0  0  0  0
 13 20  1  0  0  0  0
 13 30  1  0  0  0  0
 14 21  1  0  0  0  0
 14 31  1  0  0  0  0
 15 22  1  0  0  0  0
 15 32  1  0  0  0  0
 16 23  2  0  0  0  0
 16 33  1  0  0  0  0
 17 19  2  0  0  0  0
 17 34  1  0  0  0  0
 18 24  1  0  0  0  0
 18 35  1  0  0  0  0
 19 25  1  0  0  0  0
 19 27  1  0  0  0  0
 20 21  2  0  0  0  0
 20 36  1  0  0  0  0
 21 37  1  0  0  0  0
 22 26  2  0  0  0  0
 22 38  1  0  0  0  0
 23 26  1  0  0  0  0
 23 39  1  0  0  0  0
 24 25  2  0  0  0  0
 24 40  1  0  0  0  0
 25 41  1  0  0  0  0
 26 42  1  0  0  0  0
 27 43  1  0  0  0  0
 27 44  1  0  0  0  0
 27 45  1  0  0  0  0
M  END
> <PUBCHEM_COMPOUND_CID>
6265504

> <PUBCHEM_CONFORMER_RMSD>
0.8

> <PUBCHEM_CONFORMER_DIVERSEORDER>
1
34
13
16
32
29
5
19
24
27
36
20
14
7
22
31
9
17
28
11
8
21
35
6
23
33
26
15
3
30
12
18
10
2
25
4

> <PUBCHEM_MMFF94_PARTIAL_CHARGES>
42
1 1.33
10 -0.18
11 0.23
12 0.03
13 -0.15
14 -0.15
15 -0.15
16 -0.15
17 -0.15
18 -0.15
19 -0.14
2 -0.65
20 -0.15
21 -0.15
22 -0.15
23 -0.15
24 -0.15
25 -0.15
26 -0.15
27 0.14
28 0.27
29 0.15
3 -0.65
30 0.15
31 0.15
32 0.15
33 0.15
34 0.15
35 0.15
36 0.15
37 0.15
38 0.15
39 0.15
4 0.03
40 0.15
41 0.15
42 0.15
5 -0.57
6 0.03
7 0.14
8 -0.15
9 -0.01

> <PUBCHEM_EFFECTIVE_ROTOR_COUNT>
4

> <PUBCHEM_PHARMACOPHORE_FEATURES>
8
1 2 acceptor
1 3 acceptor
1 4 donor
3 4 5 7 cation
5 4 5 7 8 11 rings
6 12 17 18 19 24 25 rings
6 8 11 13 14 20 21 rings
6 9 15 16 22 23 26 rings

> <PUBCHEM_HEAVY_ATOM_COUNT>
27

> <PUBCHEM_ATOM_DEF_STEREO_COUNT>
0

> <PUBCHEM_ATOM_UDEF_STEREO_COUNT>
0

> <PUBCHEM_BOND_DEF_STEREO_COUNT>
1

> <PUBCHEM_BOND_UDEF_STEREO_COUNT>
0

> <PUBCHEM_ISOTOPIC_ATOM_COUNT>
0

> <PUBCHEM_COMPONENT_COUNT>
1

> <PUBCHEM_CACTVS_TAUTO_COUNT>
1

> <PUBCHEM_CONFORMER_ID>
005F9AA000000001

> <PUBCHEM_MMFF94_ENERGY>
64.1238

> <PUBCHEM_FEATURE_SELFOVERLAP>
40.722

> <PUBCHEM_SHAPE_FINGERPRINT>
10006869 2 16748761919232414321
10930396 42 17828444109006333482
11477941 20 17693131512148637478
11578080 2 17531546337667386255
11763715 3 17132116814407072523
121448 382 17555461986823941249
12156800 1 15143457539856514590
12160290 23 17184199340395625240
12422481 6 17836598116748575522
12788726 201 17468760693279202154
13149001 5 18187653470525237699
13383661 66 16476846685124941663
133893 2 18411711996966328163
13681431 1 18339368469928564842
13911987 19 17834679670890640361
14251757 17 16589177968194717782
14863182 85 17701794778231578491
14910302 57 17053300324983445822
14955137 171 17837524893328828275
15439362 3 18262502788720447781
15463212 79 17326881276283881824
15775530 1 17895486928808782579
17980427 26 17697641914191651641
1813 80 18198348346924149411
20197701 30 18051958505619037072
20600515 1 18126556825967803539
21033648 29 13914808400184237213
21304303 282 17043697662909184516
21344244 246 18341891948262952086
21860390 5 18116407341510877164
22182313 1 17749113339744281363
22907989 373 17396448025618592438
238 59 18336265746762299727
23929065 36 17397794927753262042
26353 1 18195812855829986654
3298306 158 18262806301690955276
340366 18 18198611143736722413
3493558 16 13051549080502721535
35225 105 17405424889313294676
376196 1 17608337419911357941
4017518 198 18127682950405000328
4280585 95 18194946466522154690
44802255 64 17465110731851797332
46194498 28 18265874952908340839
5081480 168 18262241006680356109
532947 4 18408603691059918080
6913067 236 17841974617056028242
81228 2 17616827530471907810
9981440 41 17972304385961251753

> <PUBCHEM_SHAPE_MULTIPOLES>
537.8
7.35
5.67
2.35
7.55
3.56
0.24
-2.4
3.23
-9.6
2.09
0.69
-0.77
0.53

> <PUBCHEM_SHAPE_SELFOVERLAP>
1181.652

> <PUBCHEM_SHAPE_VOLUME>
290.9

> <PUBCHEM_COORDINATE_TYPE>
2
5
10

$$$$
