779863
  -OEChem-01171809573D

 25 26  0     0  0  0  0  0  0999 V2000
    2.8459   -2.7957   -0.1176 Cl  0  0  0  0  0  0  0  0  0  0  0  0
    4.3179    0.0937    0.1173 Cl  0  0  0  0  0  0  0  0  0  0  0  0
    2.3980    2.2172    0.1221 O   0  0  0  0  0  0  0  0  0  0  0  0
   -0.0097   -2.4789   -0.3079 O   0  0  0  0  0  0  0  0  0  0  0  0
   -0.1985   -0.1602   -0.0314 N   0  0  0  0  0  0  0  0  0  0  0  0
    0.4479    1.0473    0.0361 N   0  0  0  0  0  0  0  0  0  0  0  0
   -1.6359   -0.0381   -0.0032 C   0  0  0  0  0  0  0  0  0  0  0  0
    0.4996   -1.3711   -0.1381 C   0  0  0  0  0  0  0  0  0  0  0  0
   -2.4127   -1.0668    0.5297 C   0  0  0  0  0  0  0  0  0  0  0  0
   -2.2488    1.1080   -0.5095 C   0  0  0  0  0  0  0  0  0  0  0  0
    1.7322    1.0444    0.0603 C   0  0  0  0  0  0  0  0  0  0  0  0
    1.9934   -1.2900   -0.0627 C   0  0  0  0  0  0  0  0  0  0  0  0
    2.6167   -0.1148    0.0326 C   0  0  0  0  0  0  0  0  0  0  0  0
   -3.8023   -0.9492    0.5565 C   0  0  0  0  0  0  0  0  0  0  0  0
   -3.6384    1.2256   -0.4827 C   0  0  0  0  0  0  0  0  0  0  0  0
   -4.4153    0.1969    0.0504 C   0  0  0  0  0  0  0  0  0  0  0  0
    1.5102    3.3317    0.1480 C   0  0  0  0  0  0  0  0  0  0  0  0
   -1.9721   -1.9569    0.9672 H   0  0  0  0  0  0  0  0  0  0  0  0
   -1.6743    1.9212   -0.9450 H   0  0  0  0  0  0  0  0  0  0  0  0
   -4.4072   -1.7462    0.9793 H   0  0  0  0  0  0  0  0  0  0  0  0
   -4.1161    2.1166   -0.8794 H   0  0  0  0  0  0  0  0  0  0  0  0
   -5.4972    0.2891    0.0725 H   0  0  0  0  0  0  0  0  0  0  0  0
    2.1234    4.2370    0.1976 H   0  0  0  0  0  0  0  0  0  0  0  0
    0.8764    3.3189    1.0416 H   0  0  0  0  0  0  0  0  0  0  0  0
    0.9153    3.3918   -0.7700 H   0  0  0  0  0  0  0  0  0  0  0  0
  1 12  1  0  0  0  0
  2 13  1  0  0  0  0
  3 11  1  0  0  0  0
  3 17  1  0  0  0  0
  4  8  2  0  0  0  0
  5  6  1  0  0  0  0
  5  7  1  0  0  0  0
  5  8  1  0  0  0  0
  6 11  2  0  0  0  0
  7  9  2  0  0  0  0
  7 10  1  0  0  0  0
  8 12  1  0  0  0  0
  9 14  1  0  0  0  0
  9 18  1  0  0  0  0
 10 15  2  0  0  0  0
 10 19  1  0  0  0  0
 11 13  1  0  0  0  0
 12 13  2  0  0  0  0
 14 16  2  0  0  0  0
 14 20  1  0  0  0  0
 15 16  1  0  0  0  0
 15 21  1  0  0  0  0
 16 22  1  0  0  0  0
 17 23  1  0  0  0  0
 17 24  1  0  0  0  0
 17 25  1  0  0  0  0
M  END
> <PUBCHEM_COMPOUND_CID>
779863

> <PUBCHEM_CONFORMER_RMSD>
0.6

> <PUBCHEM_CONFORMER_DIVERSEORDER>
1
2
3

> <PUBCHEM_MMFF94_PARTIAL_CHARGES>
22
1 -0.14
10 -0.15
11 0.59
12 0.15
13 0.15
14 -0.15
15 -0.15
16 -0.15
17 0.28
18 0.15
19 0.15
2 -0.14
20 0.15
21 0.15
22 0.15
3 -0.43
4 -0.57
5 -0.11
6 -0.51
7 0.12
8 0.62
9 -0.15

> <PUBCHEM_EFFECTIVE_ROTOR_COUNT>
2

> <PUBCHEM_PHARMACOPHORE_FEATURES>
3
1 4 acceptor
6 5 6 8 11 12 13 rings
6 7 9 10 14 15 16 rings

> <PUBCHEM_HEAVY_ATOM_COUNT>
17

> <PUBCHEM_ATOM_DEF_STEREO_COUNT>
0

> <PUBCHEM_ATOM_UDEF_STEREO_COUNT>
0

> <PUBCHEM_BOND_DEF_STEREO_COUNT>
0

> <PUBCHEM_BOND_UDEF_STEREO_COUNT>
0

> <PUBCHEM_ISOTOPIC_ATOM_COUNT>
0

> <PUBCHEM_COMPONENT_COUNT>
1

> <PUBCHEM_CACTVS_TAUTO_COUNT>
1

> <PUBCHEM_CONFORMER_ID>
000BE65700000001

> <PUBCHEM_MMFF94_ENERGY>
61.6398

> <PUBCHEM_FEATURE_SELFOVERLAP>
15.223

> <PUBCHEM_SHAPE_FINGERPRINT>
10608611 8 18335417967884819525
10967382 1 18411136918172949118
11471102 20 18411415073071433247
116883 192 17837211467953057246
12403259 226 18262233327077941719
13140716 1 18195521730457394194
13922767 16 18411697698983419112
14026960 21 18191872433979402769
14648413 74 18408602561056264409
14790565 3 18338526334654767492
14866123 147 16826152135927453587
15196674 1 18337671906375823367
15219456 202 18335984186218519831
15375462 6 18336266859374951197
15442244 35 18196374719199094225
15536298 74 18342175514403419254
16945 1 18339073895359883478
17802600 8 18335416885315560661
18186145 218 18201449115700940465
19591789 44 18122912194098095558
200 152 18131342000110038775
20233049 118 18334016086274922564
20606313 2 18411417267783897206
20645477 70 18269833125532210967
20671657 1 18267308818570257748
20671657 53 18198630921254193359
21501502 16 18053097616808170438
21524375 3 17984423215632551148
21639500 275 18340756118085557949
221490 88 18336273400447028475
22854114 111 18340487867123318777
2334 1 17763181749581926422
23402539 116 18272922817999659182
23402655 69 18269264691285048981
23557571 272 17385437727032088589
23558518 356 17758951911396940866
23559900 14 18337948983031859331
2748010 2 18196082253728023278
3060560 45 18131071506869157126
350125 39 18050852418385443450
5104073 3 18337392630591128779
58051976 378 18342174488080023255
7364860 26 18411419518204276988
81228 2 17550114653840179898
8809292 202 18188497848210540779
9709674 26 18408045126089141275

> <PUBCHEM_SHAPE_MULTIPOLES>
331.89
7.46
2.94
0.68
3.67
0.91
-0.01
-0.34
-0.27
-2.53
0.01
0.18
-0.02
0.61

> <PUBCHEM_SHAPE_SELFOVERLAP>
693.824

> <PUBCHEM_SHAPE_VOLUME>
189.1

> <PUBCHEM_COORDINATE_TYPE>
2
5
10

$$$$
