2930407
  -OEChem-01171809173D

 51 54  0     0  0  0  0  0  0999 V2000
   -4.3541    5.5795   -0.0052 F   0  0  0  0  0  0  0  0  0  0  0  0
    6.7018    0.1462   -0.1912 O   0  0  0  0  0  0  0  0  0  0  0  0
   -1.4321   -2.4131    0.0719 N   0  0  0  0  0  0  0  0  0  0  0  0
   -2.6736   -4.9797   -0.1042 N   0  0  0  0  0  0  0  0  0  0  0  0
    0.5446   -1.1242   -0.0044 N   0  0  0  0  0  0  0  0  0  0  0  0
   -1.6169   -0.0596    0.0319 N   0  0  0  0  0  0  0  0  0  0  0  0
   -2.7630   -2.5471   -0.5336 C   0  0  0  0  0  0  0  0  0  0  0  0
   -0.6110   -3.6277    0.0743 C   0  0  0  0  0  0  0  0  0  0  0  0
   -3.4907   -3.7679    0.0342 C   0  0  0  0  0  0  0  0  0  0  0  0
   -1.4083   -4.8143    0.6215 C   0  0  0  0  0  0  0  0  0  0  0  0
   -0.8147   -1.1580    0.0316 C   0  0  0  0  0  0  0  0  0  0  0  0
   -3.4005   -6.1477    0.3915 C   0  0  0  0  0  0  0  0  0  0  0  0
    1.1067    0.1018   -0.0414 C   0  0  0  0  0  0  0  0  0  0  0  0
   -0.9887    1.1337   -0.0063 C   0  0  0  0  0  0  0  0  0  0  0  0
    0.3833    1.2769   -0.0442 C   0  0  0  0  0  0  0  0  0  0  0  0
    2.5494    0.1130   -0.0790 C   0  0  0  0  0  0  0  0  0  0  0  0
   -1.8598    2.2844   -0.0059 C   0  0  0  0  0  0  0  0  0  0  0  0
    3.2572    1.1753    0.4874 C   0  0  0  0  0  0  0  0  0  0  0  0
    3.2428   -0.9382   -0.6831 C   0  0  0  0  0  0  0  0  0  0  0  0
   -1.4338    3.4859    0.5646 C   0  0  0  0  0  0  0  0  0  0  0  0
   -3.1321    2.2007   -0.5761 C   0  0  0  0  0  0  0  0  0  0  0  0
    4.6517    1.1863    0.4501 C   0  0  0  0  0  0  0  0  0  0  0  0
    4.6371   -0.9272   -0.7203 C   0  0  0  0  0  0  0  0  0  0  0  0
    5.3415    0.1350   -0.1538 C   0  0  0  0  0  0  0  0  0  0  0  0
   -2.2758    4.5980    0.5650 C   0  0  0  0  0  0  0  0  0  0  0  0
   -3.9740    3.3129   -0.5758 C   0  0  0  0  0  0  0  0  0  0  0  0
   -3.5459    4.5115   -0.0053 C   0  0  0  0  0  0  0  0  0  0  0  0
    7.3589    1.2632    0.4057 C   0  0  0  0  0  0  0  0  0  0  0  0
   -2.6593   -2.6374   -1.6224 H   0  0  0  0  0  0  0  0  0  0  0  0
   -3.3919   -1.6714   -0.3350 H   0  0  0  0  0  0  0  0  0  0  0  0
    0.2743   -3.5045    0.7101 H   0  0  0  0  0  0  0  0  0  0  0  0
   -0.2637   -3.8383   -0.9452 H   0  0  0  0  0  0  0  0  0  0  0  0
   -3.7424   -3.5880    1.0882 H   0  0  0  0  0  0  0  0  0  0  0  0
   -4.4349   -3.8881   -0.5109 H   0  0  0  0  0  0  0  0  0  0  0  0
   -0.7944   -5.7170    0.5162 H   0  0  0  0  0  0  0  0  0  0  0  0
   -1.5933   -4.6686    1.6945 H   0  0  0  0  0  0  0  0  0  0  0  0
   -3.6556   -6.0587    1.4538 H   0  0  0  0  0  0  0  0  0  0  0  0
   -2.8049   -7.0572    0.2550 H   0  0  0  0  0  0  0  0  0  0  0  0
   -4.3273   -6.2921   -0.1747 H   0  0  0  0  0  0  0  0  0  0  0  0
    0.8592    2.2460   -0.1271 H   0  0  0  0  0  0  0  0  0  0  0  0
    2.7611    2.0007    0.9911 H   0  0  0  0  0  0  0  0  0  0  0  0
    2.7246   -1.7759   -1.1436 H   0  0  0  0  0  0  0  0  0  0  0  0
   -0.4638    3.5910    1.0434 H   0  0  0  0  0  0  0  0  0  0  0  0
   -3.4930    1.2852   -1.0389 H   0  0  0  0  0  0  0  0  0  0  0  0
    5.1364    2.0386    0.9139 H   0  0  0  0  0  0  0  0  0  0  0  0
    5.1693   -1.7475   -1.1942 H   0  0  0  0  0  0  0  0  0  0  0  0
   -1.9456    5.5301    1.0141 H   0  0  0  0  0  0  0  0  0  0  0  0
   -4.9620    3.2470   -1.0218 H   0  0  0  0  0  0  0  0  0  0  0  0
    8.4359    1.1080    0.2833 H   0  0  0  0  0  0  0  0  0  0  0  0
    7.1640    1.3165    1.4823 H   0  0  0  0  0  0  0  0  0  0  0  0
    7.1103    2.1982   -0.1079 H   0  0  0  0  0  0  0  0  0  0  0  0
  1 27  1  0  0  0  0
  2 24  1  0  0  0  0
  2 28  1  0  0  0  0
  3  7  1  0  0  0  0
  3  8  1  0  0  0  0
  3 11  1  0  0  0  0
  4  9  1  0  0  0  0
  4 10  1  0  0  0  0
  4 12  1  0  0  0  0
  5 11  2  0  0  0  0
  5 13  1  0  0  0  0
  6 11  1  0  0  0  0
  6 14  2  0  0  0  0
  7  9  1  0  0  0  0
  7 29  1  0  0  0  0
  7 30  1  0  0  0  0
  8 10  1  0  0  0  0
  8 31  1  0  0  0  0
  8 32  1  0  0  0  0
  9 33  1  0  0  0  0
  9 34  1  0  0  0  0
 10 35  1  0  0  0  0
 10 36  1  0  0  0  0
 12 37  1  0  0  0  0
 12 38  1  0  0  0  0
 12 39  1  0  0  0  0
 13 15  2  0  0  0  0
 13 16  1  0  0  0  0
 14 15  1  0  0  0  0
 14 17  1  0  0  0  0
 15 40  1  0  0  0  0
 16 18  2  0  0  0  0
 16 19  1  0  0  0  0
 17 20  2  0  0  0  0
 17 21  1  0  0  0  0
 18 22  1  0  0  0  0
 18 41  1  0  0  0  0
 19 23  2  0  0  0  0
 19 42  1  0  0  0  0
 20 25  1  0  0  0  0
 20 43  1  0  0  0  0
 21 26  2  0  0  0  0
 21 44  1  0  0  0  0
 22 24  2  0  0  0  0
 22 45  1  0  0  0  0
 23 24  1  0  0  0  0
 23 46  1  0  0  0  0
 25 27  2  0  0  0  0
 25 47  1  0  0  0  0
 26 27  1  0  0  0  0
 26 48  1  0  0  0  0
 28 49  1  0  0  0  0
 28 50  1  0  0  0  0
 28 51  1  0  0  0  0
M  END
> <PUBCHEM_COMPOUND_CID>
2930407

> <PUBCHEM_CONFORMER_RMSD>
0.8

> <PUBCHEM_CONFORMER_DIVERSEORDER>
1
11
5
9
2
6
4
12
3
8
10
7

> <PUBCHEM_MMFF94_PARTIAL_CHARGES>
35
1 -0.19
10 0.27
11 0.72
12 0.27
13 0.31
14 0.31
15 -0.15
18 -0.15
19 -0.15
2 -0.36
20 -0.15
21 -0.15
22 -0.15
23 -0.15
24 0.08
25 -0.15
26 -0.15
27 0.19
28 0.28
3 -0.84
4 -0.81
40 0.15
41 0.15
42 0.15
43 0.15
44 0.15
45 0.15
46 0.15
47 0.15
48 0.15
5 -0.62
6 -0.62
7 0.37
8 0.37
9 0.27

> <PUBCHEM_EFFECTIVE_ROTOR_COUNT>
5.2

> <PUBCHEM_PHARMACOPHORE_FEATURES>
8
1 2 acceptor
1 4 cation
1 6 acceptor
4 3 5 6 11 cation
6 16 18 19 22 23 24 rings
6 17 20 21 25 26 27 rings
6 3 4 7 8 9 10 rings
6 5 6 11 13 14 15 rings

> <PUBCHEM_HEAVY_ATOM_COUNT>
28

> <PUBCHEM_ATOM_DEF_STEREO_COUNT>
0

> <PUBCHEM_ATOM_UDEF_STEREO_COUNT>
0

> <PUBCHEM_BOND_DEF_STEREO_COUNT>
0

> <PUBCHEM_BOND_UDEF_STEREO_COUNT>
0

> <PUBCHEM_ISOTOPIC_ATOM_COUNT>
0

> <PUBCHEM_COMPONENT_COUNT>
1

> <PUBCHEM_CACTVS_TAUTO_COUNT>
1

> <PUBCHEM_CONFORMER_ID>
002CB6E700000001

> <PUBCHEM_MMFF94_ENERGY>
98.3875

> <PUBCHEM_FEATURE_SELFOVERLAP>
40.598

> <PUBCHEM_SHAPE_FINGERPRINT>
10050765 1 18410855457104786518
10319688 45 18266463294075516803
10411042 1 17978228584254603194
10940486 97 18261689103583390972
11056379 131 18338528525066275134
11763715 3 17975155427979963268
12107183 9 17980499067962542979
12440610 7 18341616971724358318
12758862 56 17974847582005516595
12788726 201 18261666077509362434
12977781 61 17987254265460579678
13248334 5 17329709821385196523
13540713 4 18130794460863409022
13590594 115 18048324624453781451
13690498 29 18128274448663030854
13757389 114 18263661614284497084
138480 1 16753250108485048575
13955234 65 17474114198468422609
14068700 675 18044655549756516846
14068700 686 18270400633226024660
14790565 3 18050568439147406564
15042514 8 18338802341625770787
15230672 131 18192721043099900454
15400415 2 18194401078880222564
15664445 248 17259929814218783964
15705408 1 17257935892767922511
15927050 60 18267584602673369638
16087824 20 18410575111683401743
16992752 21 18121229937814478308
16993438 75 18335146371364356913
17980427 26 17763732200959159661
18365409 1 18410572873488574229
19304671 126 16752347942807193983
19319366 153 17910387291139738101
19427546 20 18336271232015889572
20238998 120 18050848024665775455
21033648 29 18269267981056652184
21049683 271 17252590582577100205
21120745 212 18120958340550781748
21796203 349 17325240775060763370
23559900 14 17473818906603662643
23845131 108 18119814603966199977
23929065 36 18267849740068460816
249057 25 17749671926607353892
255183 313 18269014058489330491
283562 15 18335415802757397043
3091708 16 9056166550787487963
3103668 31 18335132146875959551
3421961 26 17547011191939922939
3627633 1 18266459999893304583
3886686 26 17977912780363809178
4058900 60 17981333287374743176
4073 2 18411418394130815598
4409770 3 18335697265444798031
563151 97 18121769544399853437
5969126 39 18199177563533114974
59755656 520 18265328418029904132
6058803 2 18186802500692148044
6376802 90 18341058428571159286
6673363 416 17833287672718319660
6677587 24 15800955554337746271
6679774 75 17610902287927698938
6695519 79 18053969267932144953
6697151 62 17690254424688736079
6700243 42 17839783492392332804
77188 2 17834114521549271599
79837 15 18339364058875858737
9777508 108 18412259528103363704
9981440 41 18192715544713171089

> <PUBCHEM_SHAPE_MULTIPOLES>
543.16
11.69
9.08
0.74
26.57
1.9
0.01
-1.05
0.15
-22.1
-1.23
0.07
-0.02
1.01

> <PUBCHEM_SHAPE_SELFOVERLAP>
1182.793

> <PUBCHEM_SHAPE_VOLUME>
298.2

> <PUBCHEM_COORDINATE_TYPE>
2
5
10

$$$$
