200953
  -OEChem-01171810013D

 23 24  0     0  0  0  0  0  0999 V2000
    4.0404    0.4568    0.0649 O   0  0  0  0  0  0  0  0  0  0  0  0
    2.0004    2.2613    0.4060 O   0  0  0  0  0  0  0  0  0  0  0  0
   -2.2190    0.1097    0.0312 C   0  0  0  0  0  0  0  0  0  0  0  0
    2.7668    0.0488   -0.0033 C   0  0  0  0  0  0  0  0  0  0  0  0
    2.6360   -1.2701   -0.2451 C   0  0  0  0  0  0  0  0  0  0  0  0
   -3.1271    0.9781   -0.5748 C   0  0  0  0  0  0  0  0  0  0  0  0
   -2.6642   -1.0929    0.5803 C   0  0  0  0  0  0  0  0  0  0  0  0
   -4.4802    0.6440   -0.6318 C   0  0  0  0  0  0  0  0  0  0  0  0
   -4.0173   -1.4270    0.5233 C   0  0  0  0  0  0  0  0  0  0  0  0
    3.9631   -1.7525   -0.3409 C   0  0  0  0  0  0  0  0  0  0  0  0
   -4.9252   -0.5585   -0.0828 C   0  0  0  0  0  0  0  0  0  0  0  0
    1.7436    1.0806    0.1921 C   0  0  0  0  0  0  0  0  0  0  0  0
    4.7802   -0.6636   -0.1449 C   0  0  0  0  0  0  0  0  0  0  0  0
   -0.8330    0.4522    0.0896 C   0  0  0  0  0  0  0  0  0  0  0  0
    0.3355    0.7333    0.1361 C   0  0  0  0  0  0  0  0  0  0  0  0
    1.7259   -1.8438   -0.3456 H   0  0  0  0  0  0  0  0  0  0  0  0
   -2.7957    1.9191   -1.0074 H   0  0  0  0  0  0  0  0  0  0  0  0
   -1.9686   -1.7804    1.0560 H   0  0  0  0  0  0  0  0  0  0  0  0
    4.2839   -2.7669   -0.5291 H   0  0  0  0  0  0  0  0  0  0  0  0
   -5.1872    1.3200   -1.1036 H   0  0  0  0  0  0  0  0  0  0  0  0
   -4.3641   -2.3633    0.9507 H   0  0  0  0  0  0  0  0  0  0  0  0
   -5.9787   -0.8188   -0.1272 H   0  0  0  0  0  0  0  0  0  0  0  0
    5.8516   -0.5268   -0.1255 H   0  0  0  0  0  0  0  0  0  0  0  0
  1  4  1  0  0  0  0
  1 13  1  0  0  0  0
  2 12  2  0  0  0  0
  3  6  2  0  0  0  0
  3  7  1  0  0  0  0
  3 14  1  0  0  0  0
  4  5  2  0  0  0  0
  4 12  1  0  0  0  0
  5 10  1  0  0  0  0
  5 16  1  0  0  0  0
  6  8  1  0  0  0  0
  6 17  1  0  0  0  0
  7  9  2  0  0  0  0
  7 18  1  0  0  0  0
  8 11  2  0  0  0  0
  8 20  1  0  0  0  0
  9 11  1  0  0  0  0
  9 21  1  0  0  0  0
 10 13  2  0  0  0  0
 10 19  1  0  0  0  0
 11 22  1  0  0  0  0
 12 15  1  0  0  0  0
 13 23  1  0  0  0  0
 14 15  3  0  0  0  0
M  END
> <PUBCHEM_COMPOUND_CID>
200953

> <PUBCHEM_CONFORMER_RMSD>
0.4

> <PUBCHEM_CONFORMER_DIVERSEORDER>
1
4
2
3

> <PUBCHEM_MMFF94_PARTIAL_CHARGES>
23
1 -0.28
10 -0.15
11 -0.15
12 0.76
13 -0.01
14 -0.07
15 -0.1
16 0.15
17 0.15
18 0.15
19 0.15
2 -0.57
20 0.15
21 0.15
22 0.15
23 0.15
3 0.07
4 0.05
5 -0.15
6 -0.15
7 -0.15
8 -0.15
9 -0.15

> <PUBCHEM_EFFECTIVE_ROTOR_COUNT>
1

> <PUBCHEM_PHARMACOPHORE_FEATURES>
4
1 1 acceptor
1 2 acceptor
5 1 4 5 10 13 rings
6 3 6 7 8 9 11 rings

> <PUBCHEM_HEAVY_ATOM_COUNT>
15

> <PUBCHEM_ATOM_DEF_STEREO_COUNT>
0

> <PUBCHEM_ATOM_UDEF_STEREO_COUNT>
0

> <PUBCHEM_BOND_DEF_STEREO_COUNT>
0

> <PUBCHEM_BOND_UDEF_STEREO_COUNT>
0

> <PUBCHEM_ISOTOPIC_ATOM_COUNT>
0

> <PUBCHEM_COMPONENT_COUNT>
1

> <PUBCHEM_CACTVS_TAUTO_COUNT>
1

> <PUBCHEM_CONFORMER_ID>
000310F900000001

> <PUBCHEM_MMFF94_ENERGY>
18.644

> <PUBCHEM_FEATURE_SELFOVERLAP>
20.302

> <PUBCHEM_SHAPE_FINGERPRINT>
11128504 68 15864078684139050703
12555020 224 18411128135466482839
12596602 18 16056872559085920186
13167823 11 18272647987163366599
14252887 29 17632582617702459238
14386348 63 18409731755039538058
14866123 147 17405996154133672306
15196674 1 18409730655554407474
15242439 84 18333726910427001413
15352361 1 18411419483997584374
15477762 27 18411983563944181376
15961568 22 17096087029899565556
17834072 8 18259979358606439501
17834074 16 18408041822989907875
17870717 6 18261401009661000567
18186145 218 17894340099425942569
193927 3 17845386470303090518
1986462 14 18186238424940330605
200 152 17989484121974358665
20279233 1 18408326583463573762
20281475 54 18337962194709860400
20325693 3 17095526184632299719
20374829 77 18259700081925172298
20432913 95 17775569723432175375
20645477 70 18341894099598215134
20671657 53 18341900675161711088
21065198 57 18411136969913231129
21065201 7 17894621574334016777
21250096 35 18271805692299428570
221490 88 18263933296271152298
2215653 11 18410567367213509911
22485316 2 18408039606686504370
22646028 1 17704068499636801047
22943178 12 18263074565153207833
231179 274 8286201652058675032
23402539 116 16515400755493610734
23403322 49 18410575072195122811
23557571 272 17748819718109733164
23559900 14 18337103557553864361
239999 70 18413393129572454630
26918003 58 18343018882649939483
2871803 45 18335140843641433858
2916195 48 11603123707262035902
3004659 81 17968941882119957290
32948 21 18114458968410196469
33824 294 18412260623847752482
42 15 18413392033696151141
4214541 1 18409166584941504605
465052 167 18202007641695836911
4921388 177 16298681563366750419
4990 188 18113616780920401921
5104073 3 18413107242767415968
5281201 14 18113901580254911277
77779 3 18408042931154754293
94968 8 18411703167072872794
9709674 26 18189618426621222811

> <PUBCHEM_SHAPE_MULTIPOLES>
296.95
11.25
1.69
0.72
0.73
0.09
0.02
-3.44
1.07
-0.69
-0.12
0.26
-0.02
0.92

> <PUBCHEM_SHAPE_SELFOVERLAP>
642.693

> <PUBCHEM_SHAPE_VOLUME>
162.6

> <PUBCHEM_COORDINATE_TYPE>
2
5
10

$$$$
