3161478
  -OEChem-01171810043D

 42 44  0     0  0  0  0  0  0999 V2000
   -2.5624    2.6978    0.0670 Cl  0  0  0  0  0  0  0  0  0  0  0  0
    4.2555    0.2207    0.0045 O   0  0  0  0  0  0  0  0  0  0  0  0
    2.0380   -2.5000   -0.1036 O   0  0  0  0  0  0  0  0  0  0  0  0
    7.4873    1.5466    0.1049 O   0  5  0  0  0  0  0  0  0  0  0  0
    5.5093    2.5084    0.1137 O   0  0  0  0  0  0  0  0  0  0  0  0
   -3.9796   -0.0040    0.0243 N   0  0  0  0  0  0  0  0  0  0  0  0
   -6.8293   -0.1838   -0.0523 N   0  0  0  0  0  0  0  0  0  0  0  0
    1.6314   -0.2061   -0.0500 N   0  0  0  0  0  0  0  0  0  0  0  0
    6.2244    1.4644    0.0828 N   0  3  0  0  0  0  0  0  0  0  0  0
   -4.7043   -0.6508    1.1224 C   0  0  0  0  0  0  0  0  0  0  0  0
   -4.6859    0.0435   -1.2621 C   0  0  0  0  0  0  0  0  0  0  0  0
   -6.1248   -0.0908    1.2321 C   0  0  0  0  0  0  0  0  0  0  0  0
   -6.1061    0.5819   -1.0752 C   0  0  0  0  0  0  0  0  0  0  0  0
   -2.5805   -0.0298    0.0058 C   0  0  0  0  0  0  0  0  0  0  0  0
   -8.2018    0.3041    0.0787 C   0  0  0  0  0  0  0  0  0  0  0  0
   -1.8021    1.1472    0.0219 C   0  0  0  0  0  0  0  0  0  0  0  0
   -1.9035   -1.2662   -0.0298 C   0  0  0  0  0  0  0  0  0  0  0  0
   -0.4085    1.0889    0.0029 C   0  0  0  0  0  0  0  0  0  0  0  0
   -0.5101   -1.3244   -0.0488 C   0  0  0  0  0  0  0  0  0  0  0  0
    0.2374   -0.1468   -0.0324 C   0  0  0  0  0  0  0  0  0  0  0  0
    2.4603   -1.3457   -0.0839 C   0  0  0  0  0  0  0  0  0  0  0  0
    3.9064   -1.0680   -0.0523 C   0  0  0  0  0  0  0  0  0  0  0  0
    4.9470   -1.9166   -0.0715 C   0  0  0  0  0  0  0  0  0  0  0  0
    6.0878   -1.0805   -0.0220 C   0  0  0  0  0  0  0  0  0  0  0  0
    5.6141    0.2101    0.0232 C   0  0  0  0  0  0  0  0  0  0  0  0
   -4.1849   -0.4791    2.0732 H   0  0  0  0  0  0  0  0  0  0  0  0
   -4.7410   -1.7348    0.9549 H   0  0  0  0  0  0  0  0  0  0  0  0
   -4.7165   -0.9634   -1.6981 H   0  0  0  0  0  0  0  0  0  0  0  0
   -4.1559    0.6911   -1.9713 H   0  0  0  0  0  0  0  0  0  0  0  0
   -6.6611   -0.6649    1.9975 H   0  0  0  0  0  0  0  0  0  0  0  0
   -6.0820    0.9515    1.5760 H   0  0  0  0  0  0  0  0  0  0  0  0
   -6.0624    1.6457   -0.8047 H   0  0  0  0  0  0  0  0  0  0  0  0
   -6.6286    0.5110   -2.0368 H   0  0  0  0  0  0  0  0  0  0  0  0
   -8.2416    1.3558    0.3849 H   0  0  0  0  0  0  0  0  0  0  0  0
   -8.7521   -0.2907    0.8161 H   0  0  0  0  0  0  0  0  0  0  0  0
   -8.7384    0.2009   -0.8710 H   0  0  0  0  0  0  0  0  0  0  0  0
   -2.4669   -2.1970   -0.0489 H   0  0  0  0  0  0  0  0  0  0  0  0
    0.1766    2.0062    0.0160 H   0  0  0  0  0  0  0  0  0  0  0  0
   -0.0920   -2.3198   -0.0775 H   0  0  0  0  0  0  0  0  0  0  0  0
    2.1036    0.6957   -0.0301 H   0  0  0  0  0  0  0  0  0  0  0  0
    4.9257   -2.9959   -0.1151 H   0  0  0  0  0  0  0  0  0  0  0  0
    7.1242   -1.3874   -0.0195 H   0  0  0  0  0  0  0  0  0  0  0  0
  1 16  1  0  0  0  0
  2 22  1  0  0  0  0
  2 25  1  0  0  0  0
  3 21  2  0  0  0  0
  4  9  1  0  0  0  0
  5  9  2  0  0  0  0
  6 10  1  0  0  0  0
  6 11  1  0  0  0  0
  6 14  1  0  0  0  0
  7 12  1  0  0  0  0
  7 13  1  0  0  0  0
  7 15  1  0  0  0  0
  8 20  1  0  0  0  0
  8 21  1  0  0  0  0
  8 40  1  0  0  0  0
  9 25  1  0  0  0  0
 10 12  1  0  0  0  0
 10 26  1  0  0  0  0
 10 27  1  0  0  0  0
 11 13  1  0  0  0  0
 11 28  1  0  0  0  0
 11 29  1  0  0  0  0
 12 30  1  0  0  0  0
 12 31  1  0  0  0  0
 13 32  1  0  0  0  0
 13 33  1  0  0  0  0
 14 16  2  0  0  0  0
 14 17  1  0  0  0  0
 15 34  1  0  0  0  0
 15 35  1  0  0  0  0
 15 36  1  0  0  0  0
 16 18  1  0  0  0  0
 17 19  2  0  0  0  0
 17 37  1  0  0  0  0
 18 20  2  0  0  0  0
 18 38  1  0  0  0  0
 19 20  1  0  0  0  0
 19 39  1  0  0  0  0
 21 22  1  0  0  0  0
 22 23  2  0  0  0  0
 23 24  1  0  0  0  0
 23 41  1  0  0  0  0
 24 25  2  0  0  0  0
 24 42  1  0  0  0  0
M  CHG  2   4  -1   9   1
M  END
> <PUBCHEM_COMPOUND_CID>
3161478

> <PUBCHEM_CONFORMER_RMSD>
0.8

> <PUBCHEM_CONFORMER_DIVERSEORDER>
1
26
18
6
17
28
2
7
24
12
5
4
25
16
19
10
11
21
8
27
13
9
15
20
3
23
14
22

> <PUBCHEM_MMFF94_PARTIAL_CHARGES>
31
1 -0.18
10 0.37
11 0.37
12 0.27
13 0.27
14 0.1
15 0.27
16 0.18
17 -0.15
18 -0.15
19 -0.15
2 -0.28
20 0.12
21 0.71
22 0.05
23 -0.15
24 -0.15
25 0.22
3 -0.57
37 0.15
38 0.15
39 0.15
4 -0.52
40 0.37
41 0.15
42 0.15
5 -0.52
6 -0.84
7 -0.81
8 -0.55
9 0.96

> <PUBCHEM_EFFECTIVE_ROTOR_COUNT>
6.2

> <PUBCHEM_PHARMACOPHORE_FEATURES>
11
1 2 acceptor
1 3 acceptor
1 4 acceptor
1 4 anion
1 5 acceptor
1 6 cation
1 7 cation
1 8 donor
5 2 22 23 24 25 rings
6 14 16 17 18 19 20 rings
6 6 7 10 11 12 13 rings

> <PUBCHEM_HEAVY_ATOM_COUNT>
25

> <PUBCHEM_ATOM_DEF_STEREO_COUNT>
0

> <PUBCHEM_ATOM_UDEF_STEREO_COUNT>
0

> <PUBCHEM_BOND_DEF_STEREO_COUNT>
0

> <PUBCHEM_BOND_UDEF_STEREO_COUNT>
0

> <PUBCHEM_ISOTOPIC_ATOM_COUNT>
0

> <PUBCHEM_COMPONENT_COUNT>
1

> <PUBCHEM_CACTVS_TAUTO_COUNT>
2

> <PUBCHEM_CONFORMER_ID>
00303D8600000001

> <PUBCHEM_MMFF94_ENERGY>
74.2522

> <PUBCHEM_FEATURE_SELFOVERLAP>
55.914

> <PUBCHEM_SHAPE_FINGERPRINT>
10 15 17967812773608170362
10050765 1 18050849918957278095
10299344 5 17704071785403080423
10638233 991 17775567558705478633
10835480 77 18261104137289915365
10906281 52 17988375822690884711
10968037 39 18411980265456738511
11101153 10 18412546505049900505
11638347 137 16805598154000502610
12236239 1 17775004566472153803
125118 31 18041000622096495701
12516196 113 18412825776850033433
13533116 47 18201999894170926914
13899415 154 17275105041555321411
14123256 10 18413669110626370204
14170010 4 18259705609727606020
14251764 18 17847059991688487503
14840074 17 18059850667002173775
14849402 71 18202005477618181313
14856354 85 16128654172227584221
15183329 4 16415482661693618755
15419008 47 17603298254562063285
15716309 27 18131069312383357447
16120349 18 18412541037835639693
17844677 252 18341620248631462360
19489759 90 16081090351234187231
20157964 124 18411418406652026038
20281389 69 18259983760304443431
21150785 3 18131629006867645623
21236236 1 18269275673632709521
21267235 1 18339929212627940398
21315759 40 16845293804844475406
21315763 28 18411417272242544146
21315764 268 18334289834758468092
21521721 280 18412265042751824523
21792934 111 18339631261739886296
220451 1 16917065547186169359
23081809 10 17489870410141713491
23522609 53 17631753628368260273
23536379 177 15646773362579077675
23559900 14 18338228375229181825
255183 451 17558000446531882206
283562 15 18265615386681074001
3009799 131 17894911815613181053
3411729 13 15648198441829275990
34797466 226 17917717894386458804
350125 39 18342176652759884361
397830 11 17677626425925466505
4073 2 18187088389978121226
4325135 7 18202001027846828652
4340502 62 17167580475323887170
444735 82 18260271862616983852
445580 126 18200867470751990360
4463277 17 18411418393445032873
5104073 3 18262518070688334480
59682541 35 18186809106072424331

> <PUBCHEM_SHAPE_MULTIPOLES>
472.96
21.35
2.1
0.83
0.56
0.83
0
3.94
0.6
2.96
0.05
-1.3
-0.04
0.55

> <PUBCHEM_SHAPE_SELFOVERLAP>
1003.282

> <PUBCHEM_SHAPE_VOLUME>
266

> <PUBCHEM_COORDINATE_TYPE>
2
5
10

$$$$
