3826912
  -OEChem-01171810153D

 44 47  0     1  0  0  0  0  0999 V2000
   -1.0089    0.4774    1.2901 O   0  0  0  0  0  0  0  0  0  0  0  0
    1.5290   -0.9138   -0.7767 O   0  0  0  0  0  0  0  0  0  0  0  0
    3.6133   -1.0454   -1.7473 O   0  0  0  0  0  0  0  0  0  0  0  0
    0.8787   -1.5183    0.3628 C   0  0  0  0  0  0  0  0  0  0  0  0
    1.1178   -0.6542    1.6182 C   0  0  0  0  0  0  0  0  0  0  0  0
   -0.6250   -1.6119    0.0886 C   0  0  0  0  0  0  0  0  0  0  0  0
    0.3818    0.7016    1.5803 C   0  0  1  0  0  0  0  0  0  0  0  0
   -1.2606   -0.2173    0.0627 C   0  0  1  0  0  0  0  0  0  0  0  0
    1.5170   -2.9001    0.4767 C   0  0  0  0  0  0  0  0  0  0  0  0
    2.8601   -2.6317   -0.0900 C   0  0  0  0  0  0  0  0  0  0  0  0
    0.9702    1.8370    0.7513 C   0  0  0  0  0  0  0  0  0  0  0  0
   -2.7583   -0.2959   -0.1432 C   0  0  0  0  0  0  0  0  0  0  0  0
    2.7678   -1.4545   -0.9733 C   0  0  0  0  0  0  0  0  0  0  0  0
    4.0048   -3.2743    0.1457 C   0  0  0  0  0  0  0  0  0  0  0  0
    0.1282    2.7891    0.1785 C   0  0  0  0  0  0  0  0  0  0  0  0
   -3.2856   -0.2803   -1.4339 C   0  0  0  0  0  0  0  0  0  0  0  0
    2.3493    1.9217    0.5669 C   0  0  0  0  0  0  0  0  0  0  0  0
   -3.6090   -0.3835    0.9581 C   0  0  0  0  0  0  0  0  0  0  0  0
    0.6667    3.8283   -0.5802 C   0  0  0  0  0  0  0  0  0  0  0  0
   -4.6655   -0.3527   -1.6237 C   0  0  0  0  0  0  0  0  0  0  0  0
    2.8879    2.9609   -0.1919 C   0  0  0  0  0  0  0  0  0  0  0  0
   -4.9890   -0.4558    0.7682 C   0  0  0  0  0  0  0  0  0  0  0  0
    2.0465    3.9143   -0.7654 C   0  0  0  0  0  0  0  0  0  0  0  0
   -5.5172   -0.4404   -0.5226 C   0  0  0  0  0  0  0  0  0  0  0  0
    2.1856   -0.5243    1.8162 H   0  0  0  0  0  0  0  0  0  0  0  0
    0.7153   -1.2124    2.4759 H   0  0  0  0  0  0  0  0  0  0  0  0
   -1.0939   -2.2192    0.8744 H   0  0  0  0  0  0  0  0  0  0  0  0
   -0.8077   -2.1129   -0.8707 H   0  0  0  0  0  0  0  0  0  0  0  0
    0.3951    1.0863    2.6092 H   0  0  0  0  0  0  0  0  0  0  0  0
   -0.8391    0.3675   -0.7638 H   0  0  0  0  0  0  0  0  0  0  0  0
    1.0044   -3.6323   -0.1584 H   0  0  0  0  0  0  0  0  0  0  0  0
    1.5378   -3.2791    1.5027 H   0  0  0  0  0  0  0  0  0  0  0  0
   -0.9483    2.7581    0.3192 H   0  0  0  0  0  0  0  0  0  0  0  0
   -2.6322   -0.2142   -2.2998 H   0  0  0  0  0  0  0  0  0  0  0  0
    3.0372    1.2112    1.0115 H   0  0  0  0  0  0  0  0  0  0  0  0
   -3.2228   -0.4109    1.9732 H   0  0  0  0  0  0  0  0  0  0  0  0
    4.0326   -4.1264    0.8166 H   0  0  0  0  0  0  0  0  0  0  0  0
    4.9365   -2.9707   -0.3194 H   0  0  0  0  0  0  0  0  0  0  0  0
    0.0121    4.5730   -1.0236 H   0  0  0  0  0  0  0  0  0  0  0  0
   -5.0768   -0.3413   -2.6288 H   0  0  0  0  0  0  0  0  0  0  0  0
    3.9626    3.0303   -0.3330 H   0  0  0  0  0  0  0  0  0  0  0  0
   -5.6523   -0.5273    1.6253 H   0  0  0  0  0  0  0  0  0  0  0  0
    2.4659    4.7244   -1.3546 H   0  0  0  0  0  0  0  0  0  0  0  0
   -6.5917   -0.4977   -0.6704 H   0  0  0  0  0  0  0  0  0  0  0  0
  1  7  1  0  0  0  0
  1  8  1  0  0  0  0
  2  4  1  0  0  0  0
  2 13  1  0  0  0  0
  3 13  2  0  0  0  0
  4  5  1  0  0  0  0
  4  6  1  0  0  0  0
  4  9  1  0  0  0  0
  5  7  1  0  0  0  0
  5 25  1  0  0  0  0
  5 26  1  0  0  0  0
  6  8  1  0  0  0  0
  6 27  1  0  0  0  0
  6 28  1  0  0  0  0
  7 11  1  0  0  0  0
  7 29  1  0  0  0  0
  8 12  1  0  0  0  0
  8 30  1  0  0  0  0
  9 10  1  0  0  0  0
  9 31  1  0  0  0  0
  9 32  1  0  0  0  0
 10 13  1  0  0  0  0
 10 14  2  0  0  0  0
 11 15  2  0  0  0  0
 11 17  1  0  0  0  0
 12 16  2  0  0  0  0
 12 18  1  0  0  0  0
 14 37  1  0  0  0  0
 14 38  1  0  0  0  0
 15 19  1  0  0  0  0
 15 33  1  0  0  0  0
 16 20  1  0  0  0  0
 16 34  1  0  0  0  0
 17 21  2  0  0  0  0
 17 35  1  0  0  0  0
 18 22  2  0  0  0  0
 18 36  1  0  0  0  0
 19 23  2  0  0  0  0
 19 39  1  0  0  0  0
 20 24  2  0  0  0  0
 20 40  1  0  0  0  0
 21 23  1  0  0  0  0
 21 41  1  0  0  0  0
 22 24  1  0  0  0  0
 22 42  1  0  0  0  0
 23 43  1  0  0  0  0
 24 44  1  0  0  0  0
M  END
> <PUBCHEM_COMPOUND_CID>
3826912

> <PUBCHEM_CONFORMER_RMSD>
0.6

> <PUBCHEM_CONFORMER_DIVERSEORDER>
1
22
26
11
2
21
15
8
7
31
9
20
16
30
17
13
4
19
3
24
29
18
14
12
28
5
25
6
10
27
23

> <PUBCHEM_MMFF94_PARTIAL_CHARGES>
34
1 -0.56
10 -0.12
11 -0.14
12 -0.14
13 0.71
14 -0.3
15 -0.15
16 -0.15
17 -0.15
18 -0.15
19 -0.15
2 -0.43
20 -0.15
21 -0.15
22 -0.15
23 -0.15
24 -0.15
3 -0.57
33 0.15
34 0.15
35 0.15
36 0.15
37 0.15
38 0.15
39 0.15
4 0.28
40 0.15
41 0.15
42 0.15
43 0.15
44 0.15
7 0.42
8 0.42
9 0.14

> <PUBCHEM_EFFECTIVE_ROTOR_COUNT>
3.4

> <PUBCHEM_PHARMACOPHORE_FEATURES>
6
1 1 acceptor
1 3 acceptor
5 2 4 9 10 13 rings
6 1 4 5 6 7 8 rings
6 11 15 17 19 21 23 rings
6 12 16 18 20 22 24 rings

> <PUBCHEM_HEAVY_ATOM_COUNT>
24

> <PUBCHEM_ATOM_DEF_STEREO_COUNT>
0

> <PUBCHEM_ATOM_UDEF_STEREO_COUNT>
2

> <PUBCHEM_BOND_DEF_STEREO_COUNT>
0

> <PUBCHEM_BOND_UDEF_STEREO_COUNT>
0

> <PUBCHEM_ISOTOPIC_ATOM_COUNT>
0

> <PUBCHEM_COMPONENT_COUNT>
1

> <PUBCHEM_CACTVS_TAUTO_COUNT>
1

> <PUBCHEM_CONFORMER_ID>
003A64E000000001

> <PUBCHEM_MMFF94_ENERGY>
72.9169

> <PUBCHEM_FEATURE_SELFOVERLAP>
30.457

> <PUBCHEM_SHAPE_FINGERPRINT>
10369192 42 17755027728359066877
10411042 1 18265895748444051474
105312 117 17758405453881092524
11045515 52 18192994820355025486
12160290 23 17190077346574106747
12173636 292 17402892718329883317
12422481 6 18054190359836585640
12553582 1 18269841921562039663
12788726 201 17469034467384819723
13009979 54 17846226505676250603
13134695 92 18336547131460359823
133893 2 18269293363927450593
13681431 1 18410565172015924497
13899415 180 18194380235123814687
13911987 19 18044968807559848414
14508225 48 18195242222359628446
14556957 393 17974599930269964174
14840074 17 18120906612734737560
15163728 17 17899143989881100820
15439362 3 18338515351763755181
15502722 9 18339080509625135705
17357779 13 17841403982988467125
17492 54 18265917872479450396
17539 30 17834668297415644776
17818456 19 17487913215668700977
1813 80 18130231432609124311
18785283 64 18262521527572608803
18915476 22 18191882308219908603
20388580 30 18272931600780498363
20691752 17 18337395924693940050
21304303 282 16674964923647749468
21344244 246 18268424805892768702
21641784 216 18120391869198561318
21703447 108 17978212882593161250
22182313 1 18194378057475194800
2255824 54 18342172284809701679
23175994 123 18265054643940266619
23402539 116 18127127468276535378
23419403 2 17244661691208264718
23559900 14 18409158923104977059
23566358 27 18339922744528661399
23598288 3 17398134663364788754
25147074 1 17917443016764423065
26353 1 18269838605656760012
3060560 45 18265887141324159524
312423 11 17988929989989885323
4280585 95 18266166245652950850
4409770 3 17328581722428893449
46194498 28 18262502776457447341
474 4 18266735973175281425
5081480 168 18410863122919979069
5104073 3 8141814949837167471
6669772 16 18194688292159431780
7164475 11 17977392625158712038
7471813 234 18339358544391350638
7495541 125 18334021596639296747
81228 2 17836074572919530609
9925002 15 17977963284398971148

> <PUBCHEM_SHAPE_MULTIPOLES>
476.3
8.3
4.49
1.41
12.28
3.19
0.06
-3.63
2.4
-7.36
0.65
0.32
-0.07
0.06

> <PUBCHEM_SHAPE_SELFOVERLAP>
1044.318

> <PUBCHEM_SHAPE_VOLUME>
256.4

> <PUBCHEM_COORDINATE_TYPE>
2
5
10

$$$$
