2930974
  -OEChem-01171809433D

 44 45  0     0  0  0  0  0  0999 V2000
   -0.9753   -1.6476    0.2969 S   0  0  0  0  0  0  0  0  0  0  0  0
   -0.7475    2.7331   -0.4740 O   0  0  0  0  0  0  0  0  0  0  0  0
   -2.6895    2.9198    0.7302 O   0  0  0  0  0  0  0  0  0  0  0  0
    1.7781   -1.6505    0.1748 O   0  0  0  0  0  0  0  0  0  0  0  0
    7.9483    0.2021   -0.3765 O   0  0  0  0  0  0  0  0  0  0  0  0
    6.7841   -1.7265   -0.0691 O   0  0  0  0  0  0  0  0  0  0  0  0
    0.6411    0.4161    0.1821 N   0  0  0  0  0  0  0  0  0  0  0  0
   -5.2805   -0.0803   -0.7889 C   0  0  0  0  0  0  0  0  0  0  0  0
   -5.7237   -1.5342   -0.6004 C   0  0  0  0  0  0  0  0  0  0  0  0
   -4.4090    0.4617    0.3448 C   0  0  0  0  0  0  0  0  0  0  0  0
   -4.6108   -2.5777   -0.7374 C   0  0  0  0  0  0  0  0  0  0  0  0
   -3.0058   -0.0611    0.3137 C   0  0  0  0  0  0  0  0  0  0  0  0
   -3.6006   -2.5745    0.4111 C   0  0  0  0  0  0  0  0  0  0  0  0
   -2.6689   -1.4034    0.3438 C   0  0  0  0  0  0  0  0  0  0  0  0
   -1.8356    0.7634    0.2509 C   0  0  0  0  0  0  0  0  0  0  0  0
   -0.6710    0.0307    0.2355 C   0  0  0  0  0  0  0  0  0  0  0  0
   -1.8221    2.2058    0.2077 C   0  0  0  0  0  0  0  0  0  0  0  0
    1.7715   -0.4242    0.1657 C   0  0  0  0  0  0  0  0  0  0  0  0
    3.0608    0.3867    0.1022 C   0  0  0  0  0  0  0  0  0  0  0  0
    4.3270   -0.4674    0.0817 C   0  0  0  0  0  0  0  0  0  0  0  0
    5.5917    0.3738   -0.0675 C   0  0  0  0  0  0  0  0  0  0  0  0
   -0.6723    4.1610   -0.5556 C   0  0  0  0  0  0  0  0  0  0  0  0
    6.8101   -0.5069   -0.1714 C   0  0  0  0  0  0  0  0  0  0  0  0
   -6.1884    0.5347   -0.8388 H   0  0  0  0  0  0  0  0  0  0  0  0
   -4.7720    0.0336   -1.7544 H   0  0  0  0  0  0  0  0  0  0  0  0
   -6.2247   -1.6487    0.3686 H   0  0  0  0  0  0  0  0  0  0  0  0
   -6.4801   -1.7527   -1.3650 H   0  0  0  0  0  0  0  0  0  0  0  0
   -4.4383    1.5492    0.2615 H   0  0  0  0  0  0  0  0  0  0  0  0
   -4.8603    0.2210    1.3157 H   0  0  0  0  0  0  0  0  0  0  0  0
   -4.1007   -2.4549   -1.7011 H   0  0  0  0  0  0  0  0  0  0  0  0
   -5.0879   -3.5658   -0.7600 H   0  0  0  0  0  0  0  0  0  0  0  0
   -4.1226   -2.5695    1.3759 H   0  0  0  0  0  0  0  0  0  0  0  0
   -3.0340   -3.5134    0.3710 H   0  0  0  0  0  0  0  0  0  0  0  0
    0.8031    1.4197    0.1548 H   0  0  0  0  0  0  0  0  0  0  0  0
    3.0193    1.0076   -0.8011 H   0  0  0  0  0  0  0  0  0  0  0  0
    3.0833    1.0591    0.9683 H   0  0  0  0  0  0  0  0  0  0  0  0
    4.3806   -1.0643    1.0013 H   0  0  0  0  0  0  0  0  0  0  0  0
    4.2633   -1.1868   -0.7453 H   0  0  0  0  0  0  0  0  0  0  0  0
    5.5306    0.9813   -0.9770 H   0  0  0  0  0  0  0  0  0  0  0  0
    5.7108    1.0325    0.7991 H   0  0  0  0  0  0  0  0  0  0  0  0
   -1.5467    4.5552   -1.0819 H   0  0  0  0  0  0  0  0  0  0  0  0
    0.2264    4.4220   -1.1205 H   0  0  0  0  0  0  0  0  0  0  0  0
   -0.5960    4.5922    0.4469 H   0  0  0  0  0  0  0  0  0  0  0  0
    8.7361   -0.3794   -0.4359 H   0  0  0  0  0  0  0  0  0  0  0  0
  1 14  1  0  0  0  0
  1 16  1  0  0  0  0
  2 17  1  0  0  0  0
  2 22  1  0  0  0  0
  3 17  2  0  0  0  0
  4 18  2  0  0  0  0
  5 23  1  0  0  0  0
  5 44  1  0  0  0  0
  6 23  2  0  0  0  0
  7 16  1  0  0  0  0
  7 18  1  0  0  0  0
  7 34  1  0  0  0  0
  8  9  1  0  0  0  0
  8 10  1  0  0  0  0
  8 24  1  0  0  0  0
  8 25  1  0  0  0  0
  9 11  1  0  0  0  0
  9 26  1  0  0  0  0
  9 27  1  0  0  0  0
 10 12  1  0  0  0  0
 10 28  1  0  0  0  0
 10 29  1  0  0  0  0
 11 13  1  0  0  0  0
 11 30  1  0  0  0  0
 11 31  1  0  0  0  0
 12 14  2  0  0  0  0
 12 15  1  0  0  0  0
 13 14  1  0  0  0  0
 13 32  1  0  0  0  0
 13 33  1  0  0  0  0
 15 16  2  0  0  0  0
 15 17  1  0  0  0  0
 18 19  1  0  0  0  0
 19 20  1  0  0  0  0
 19 35  1  0  0  0  0
 19 36  1  0  0  0  0
 20 21  1  0  0  0  0
 20 37  1  0  0  0  0
 20 38  1  0  0  0  0
 21 23  1  0  0  0  0
 21 39  1  0  0  0  0
 21 40  1  0  0  0  0
 22 41  1  0  0  0  0
 22 42  1  0  0  0  0
 22 43  1  0  0  0  0
M  END
> <PUBCHEM_COMPOUND_CID>
2930974

> <PUBCHEM_CONFORMER_RMSD>
1

> <PUBCHEM_CONFORMER_DIVERSEORDER>
1
62
30
60
4
58
50
39
10
70
53
27
57
49
68
31
61
3
19
44
15
54
7
21
67
47
56
13
63
6
25
46
37
22
2
59
71
64
42
66
72
38
52
20
51
43
73
16
36
55
34
28
41
75
35
23
12
74
48
14
24
29
11
32
18
5
33
65
9
40
26
69
45
17
8

> <PUBCHEM_MMFF94_PARTIAL_CHARGES>
21
1 -0.08
10 0.18
12 -0.18
13 0.18
14 -0.14
15 -0.09
16 0.1
17 0.81
18 0.57
19 0.06
2 -0.43
21 0.06
22 0.28
23 0.66
3 -0.57
34 0.37
4 -0.57
44 0.5
5 -0.65
6 -0.57
7 -0.49

> <PUBCHEM_EFFECTIVE_ROTOR_COUNT>
9

> <PUBCHEM_PHARMACOPHORE_FEATURES>
8
1 3 acceptor
1 4 acceptor
1 5 acceptor
1 6 acceptor
1 7 donor
3 5 6 23 anion
5 1 12 14 15 16 rings
7 8 9 10 11 12 13 14 rings

> <PUBCHEM_HEAVY_ATOM_COUNT>
23

> <PUBCHEM_ATOM_DEF_STEREO_COUNT>
0

> <PUBCHEM_ATOM_UDEF_STEREO_COUNT>
0

> <PUBCHEM_BOND_DEF_STEREO_COUNT>
0

> <PUBCHEM_BOND_UDEF_STEREO_COUNT>
0

> <PUBCHEM_ISOTOPIC_ATOM_COUNT>
0

> <PUBCHEM_COMPONENT_COUNT>
1

> <PUBCHEM_CACTVS_TAUTO_COUNT>
4

> <PUBCHEM_CONFORMER_ID>
002CB91E00000001

> <PUBCHEM_MMFF94_ENERGY>
41.7058

> <PUBCHEM_FEATURE_SELFOVERLAP>
40.676

> <PUBCHEM_SHAPE_FINGERPRINT>
10411042 1 18195247943889426715
10595046 47 18408044009919389922
10670039 82 18335700504071672400
10968037 39 18408603673331604543
11101153 10 18336833099727736092
11265709 11 18410012178250278305
11315181 36 18059859492980852491
11524674 6 16128656370660367038
12166972 35 17822010960048593444
12236239 1 17822008701180683826
12788726 201 18188483580149699497
13140716 1 18267314303976282961
13288520 33 18342457071332603191
13782708 43 17918273147764162990
14347332 77 18336540517791102314
14508225 48 18338227258674783005
15183329 4 18335986385827669386
16087824 20 18338234853068817429
167882 2 17974008654722712949
17492 89 17907013238194701543
17844677 252 18413116065637796800
18336668 15 18040156240601132117
18681886 176 18338229483457149906
18927931 339 18411708689931551023
20721686 56 18264208174869634608
21236236 1 18341333305607658504
21267235 1 18338237171781146323
21304303 172 18202004326893798241
21792961 116 18113613487461798699
2297311 6 18412547621661457634
23402539 116 18411416228354481831
23557571 272 18272654510833703524
23559900 14 18267858561678384297
283562 15 18337390435725611945
3004659 81 18041554836439344562
335352 9 18410287022356452055
4214541 1 18339082593153850712
4280585 95 18409726296204598821
5969126 39 18343294881807228525
59755656 215 18408321077780282606
9996256 80 18341332211045067194

> <PUBCHEM_SHAPE_MULTIPOLES>
442.85
16.1
3.39
0.75
33.66
3.57
-0.03
-8.71
-3.01
-3.52
-0.33
-0.49
0.01
-0.5

> <PUBCHEM_SHAPE_SELFOVERLAP>
902.489

> <PUBCHEM_SHAPE_VOLUME>
256.1

> <PUBCHEM_COORDINATE_TYPE>
2
5
10

$$$$
