5770968
  -OEChem-01171809413D

 60 62  0     0  0  0  0  0  0999 V2000
   -4.7399   -2.6189    0.4934 S   0  0  0  0  0  0  0  0  0  0  0  0
   -1.9836    0.0791   -0.9927 O   0  0  0  0  0  0  0  0  0  0  0  0
    0.4751   -2.5544    1.0193 O   0  0  0  0  0  0  0  0  0  0  0  0
    2.5385    2.0436    0.5608 O   0  0  0  0  0  0  0  0  0  0  0  0
    5.0306    2.7984    0.9793 O   0  0  0  0  0  0  0  0  0  0  0  0
    8.2838   -0.1032   -0.9440 O   0  0  0  0  0  0  0  0  0  0  0  0
   -3.4234    1.5081    0.1419 N   0  0  0  0  0  0  0  0  0  0  0  0
   -1.3644   -1.1427    1.3963 N   0  0  0  0  0  0  0  0  0  0  0  0
   -4.0918    2.0672   -1.0122 C   0  0  0  0  0  0  0  0  0  0  0  0
   -4.5049    3.5210   -0.7592 C   0  0  0  0  0  0  0  0  0  0  0  0
   -5.2953    1.2106   -1.4200 C   0  0  0  0  0  0  0  0  0  0  0  0
   -5.6689    3.6354    0.2250 C   0  0  0  0  0  0  0  0  0  0  0  0
   -6.4581    1.3290   -0.4347 C   0  0  0  0  0  0  0  0  0  0  0  0
   -6.8582    2.7837   -0.2079 C   0  0  0  0  0  0  0  0  0  0  0  0
   -2.4188    0.5548    0.0530 C   0  0  0  0  0  0  0  0  0  0  0  0
   -1.8687    0.1985    1.4175 C   0  0  0  0  0  0  0  0  0  0  0  0
   -2.3159   -2.2072    1.7458 C   0  0  0  0  0  0  0  0  0  0  0  0
   -0.0211   -1.4275    1.0567 C   0  0  0  0  0  0  0  0  0  0  0  0
   -3.0426   -2.7293    0.5402 C   0  0  0  0  0  0  0  0  0  0  0  0
    0.8097   -0.2406    0.6985 C   0  0  0  0  0  0  0  0  0  0  0  0
   -2.5061   -3.3068   -0.5730 C   0  0  0  0  0  0  0  0  0  0  0  0
   -3.5189   -3.6755   -1.5047 C   0  0  0  0  0  0  0  0  0  0  0  0
    2.1331   -0.2810    0.9011 C   0  0  0  0  0  0  0  0  0  0  0  0
   -4.7802   -3.3581   -1.0506 C   0  0  0  0  0  0  0  0  0  0  0  0
    2.9672    0.8954    0.5310 C   0  0  0  0  0  0  0  0  0  0  0  0
    4.3775    0.6467    0.1457 C   0  0  0  0  0  0  0  0  0  0  0  0
    5.3385    1.6085    0.3902 C   0  0  0  0  0  0  0  0  0  0  0  0
    4.6874   -0.5598   -0.4534 C   0  0  0  0  0  0  0  0  0  0  0  0
    6.6597    1.3550    0.0222 C   0  0  0  0  0  0  0  0  0  0  0  0
    6.0086   -0.8132   -0.8215 C   0  0  0  0  0  0  0  0  0  0  0  0
    6.9949    0.1442   -0.5838 C   0  0  0  0  0  0  0  0  0  0  0  0
    8.5561   -1.3610   -1.5600 C   0  0  0  0  0  0  0  0  0  0  0  0
   -3.3711    2.0559   -1.8394 H   0  0  0  0  0  0  0  0  0  0  0  0
   -3.6524    4.0989   -0.3823 H   0  0  0  0  0  0  0  0  0  0  0  0
   -4.8028    3.9778   -1.7116 H   0  0  0  0  0  0  0  0  0  0  0  0
   -5.0046    0.1581   -1.5157 H   0  0  0  0  0  0  0  0  0  0  0  0
   -5.6409    1.5331   -2.4106 H   0  0  0  0  0  0  0  0  0  0  0  0
   -5.3461    3.3325    1.2280 H   0  0  0  0  0  0  0  0  0  0  0  0
   -5.9797    4.6839    0.3003 H   0  0  0  0  0  0  0  0  0  0  0  0
   -7.3185    0.7665   -0.8147 H   0  0  0  0  0  0  0  0  0  0  0  0
   -6.1794    0.8725    0.5228 H   0  0  0  0  0  0  0  0  0  0  0  0
   -7.6456    2.8356    0.5525 H   0  0  0  0  0  0  0  0  0  0  0  0
   -7.2814    3.1931   -1.1336 H   0  0  0  0  0  0  0  0  0  0  0  0
   -3.7366    1.8020    1.0621 H   0  0  0  0  0  0  0  0  0  0  0  0
   -1.1133    0.9341    1.7069 H   0  0  0  0  0  0  0  0  0  0  0  0
   -2.6589    0.2699    2.1742 H   0  0  0  0  0  0  0  0  0  0  0  0
   -1.7465   -3.0389    2.1800 H   0  0  0  0  0  0  0  0  0  0  0  0
   -2.9899   -1.8489    2.5321 H   0  0  0  0  0  0  0  0  0  0  0  0
    0.3565    0.6272    0.2377 H   0  0  0  0  0  0  0  0  0  0  0  0
   -1.4486   -3.4701   -0.7325 H   0  0  0  0  0  0  0  0  0  0  0  0
   -3.3320   -4.1497   -2.4594 H   0  0  0  0  0  0  0  0  0  0  0  0
    2.6263   -1.1502    1.3224 H   0  0  0  0  0  0  0  0  0  0  0  0
   -5.7232   -3.5245   -1.5518 H   0  0  0  0  0  0  0  0  0  0  0  0
    3.9411   -1.3167   -0.6746 H   0  0  0  0  0  0  0  0  0  0  0  0
    7.4289    2.1009    0.2067 H   0  0  0  0  0  0  0  0  0  0  0  0
    6.1987   -1.7716   -1.2927 H   0  0  0  0  0  0  0  0  0  0  0  0
    4.1080    2.8041    1.2787 H   0  0  0  0  0  0  0  0  0  0  0  0
    8.0324   -1.4624   -2.5165 H   0  0  0  0  0  0  0  0  0  0  0  0
    9.6287   -1.3883   -1.7786 H   0  0  0  0  0  0  0  0  0  0  0  0
    8.3469   -2.1951   -0.8816 H   0  0  0  0  0  0  0  0  0  0  0  0
  1 19  1  0  0  0  0
  1 24  1  0  0  0  0
  2 15  2  0  0  0  0
  3 18  2  0  0  0  0
  4 25  2  0  0  0  0
  5 27  1  0  0  0  0
  5 57  1  0  0  0  0
  6 31  1  0  0  0  0
  6 32  1  0  0  0  0
  7  9  1  0  0  0  0
  7 15  1  0  0  0  0
  7 44  1  0  0  0  0
  8 16  1  0  0  0  0
  8 17  1  0  0  0  0
  8 18  1  0  0  0  0
  9 10  1  0  0  0  0
  9 11  1  0  0  0  0
  9 33  1  0  0  0  0
 10 12  1  0  0  0  0
 10 34  1  0  0  0  0
 10 35  1  0  0  0  0
 11 13  1  0  0  0  0
 11 36  1  0  0  0  0
 11 37  1  0  0  0  0
 12 14  1  0  0  0  0
 12 38  1  0  0  0  0
 12 39  1  0  0  0  0
 13 14  1  0  0  0  0
 13 40  1  0  0  0  0
 13 41  1  0  0  0  0
 14 42  1  0  0  0  0
 14 43  1  0  0  0  0
 15 16  1  0  0  0  0
 16 45  1  0  0  0  0
 16 46  1  0  0  0  0
 17 19  1  0  0  0  0
 17 47  1  0  0  0  0
 17 48  1  0  0  0  0
 18 20  1  0  0  0  0
 19 21  2  0  0  0  0
 20 23  2  0  0  0  0
 20 49  1  0  0  0  0
 21 22  1  0  0  0  0
 21 50  1  0  0  0  0
 22 24  2  0  0  0  0
 22 51  1  0  0  0  0
 23 25  1  0  0  0  0
 23 52  1  0  0  0  0
 24 53  1  0  0  0  0
 25 26  1  0  0  0  0
 26 27  2  0  0  0  0
 26 28  1  0  0  0  0
 27 29  1  0  0  0  0
 28 30  2  0  0  0  0
 28 54  1  0  0  0  0
 29 31  2  0  0  0  0
 29 55  1  0  0  0  0
 30 31  1  0  0  0  0
 30 56  1  0  0  0  0
 32 58  1  0  0  0  0
 32 59  1  0  0  0  0
 32 60  1  0  0  0  0
M  END
> <PUBCHEM_COMPOUND_CID>
5770968

> <PUBCHEM_CONFORMER_RMSD>
1.2

> <PUBCHEM_CONFORMER_DIVERSEORDER>
1
220
43
6
16
137
244
217
249
198
145
59
133
81
99
181
105
238
38
46
243
172
153
227
253
67
141
24
228
102
206
186
250
78
201
61
91
236
88
191
104
255
229
223
150
124
100
2
202
114
173
165
96
157
93
39
151
139
187
216
215
22
86
254
190
200
208
98
189
65
170
218
74
27
28
115
103
256
241
185
85
154
80
82
224
144
199
204
135
194
152
184
25
205
31
245
123
193
113
219
196
235
156
163
126
164
4
45
162
120
188
131
107
138
41
179
20
166
33
83
169
11
110
168
180
122
101
148
92
211
251
15
118
213
212
47
226
94
51
12
177
72
176
160
252
9
42
209
29
225
195
112
37
246
158
35
63
89
97
178
210
121
171
147
197
75
239
23
21
203
242
175
55
14
116
222
18
117
68
183
132
50
207
146
95
30
127
130
57
136
134
108
7
73
49
70
192
60
167
71
240
69
149
106
44
32
3
111
56
84
140
90
10
54
161
5
230
233
8
77
231
248
40
221
87
129
64
109
214
232
26
182
76
128
34
174
48
247
159
36
79
143
234
52
237
142
257
53
62
155
13
119
17
58
125
19
66

> <PUBCHEM_MMFF94_PARTIAL_CHARGES>
37
1 -0.08
15 0.57
16 0.36
17 0.48
18 0.62
19 -0.14
2 -0.57
20 -0.14
21 -0.15
22 -0.15
23 -0.14
24 -0.11
25 0.47
26 0.09
27 0.08
28 -0.15
29 -0.15
3 -0.57
30 -0.15
31 0.08
32 0.28
4 -0.57
44 0.37
49 0.15
5 -0.53
50 0.15
51 0.15
52 0.15
53 0.15
54 0.15
55 0.15
56 0.15
57 0.45
6 -0.36
7 -0.73
8 -0.66
9 0.3

> <PUBCHEM_EFFECTIVE_ROTOR_COUNT>
12.2

> <PUBCHEM_PHARMACOPHORE_FEATURES>
9
1 2 acceptor
1 3 acceptor
1 4 acceptor
1 5 donor
1 6 acceptor
1 7 donor
5 1 19 21 22 24 rings
6 26 27 28 29 30 31 rings
6 9 10 11 12 13 14 rings

> <PUBCHEM_HEAVY_ATOM_COUNT>
32

> <PUBCHEM_ATOM_DEF_STEREO_COUNT>
0

> <PUBCHEM_ATOM_UDEF_STEREO_COUNT>
0

> <PUBCHEM_BOND_DEF_STEREO_COUNT>
1

> <PUBCHEM_BOND_UDEF_STEREO_COUNT>
0

> <PUBCHEM_ISOTOPIC_ATOM_COUNT>
0

> <PUBCHEM_COMPONENT_COUNT>
1

> <PUBCHEM_CACTVS_TAUTO_COUNT>
10

> <PUBCHEM_CONFORMER_ID>
00580ED800000001

> <PUBCHEM_MMFF94_ENERGY>
80.0719

> <PUBCHEM_FEATURE_SELFOVERLAP>
45.673

> <PUBCHEM_SHAPE_FINGERPRINT>
10190206 1 18336533993973117967
10454371 7 18409726288089495965
10815517 723 18040150721320471013
11211813 163 18340765953428900943
11445158 3 16412669170816367905
12013929 94 18410572874528030745
12120059 9 18060134294786920686
12539747 164 18195254536591120571
12788726 201 18190443034983928827
13150687 139 18338795611965607535
13540713 5 18042381591911666027
13782708 43 18269839864900277186
14294032 229 17821722789323727253
15064981 194 18340221755377092489
15183329 4 17917147196022371936
15198563 99 18338223986468373077
15230672 131 18338514141052521586
15361156 5 18047480212414027030
15439362 3 18052258397526094421
16992610 120 18261403199730201524
17899979 129 17833265321075293557
19301676 85 17908998612439313366
19304152 47 17095805404862281581
19958102 18 18199468938694928934
21033648 29 18335696187466549208
21236236 1 18262233421504107075
22393880 68 18410849988846365746
23576562 1 18261959647288266244
25147074 1 17896017923667600930
3610482 184 17967825946125291532
4073 2 18335983147063229072
484985 159 15266776745551809183
508706 21 18114181999049267346
5171179 24 17912352432420386593
531348 171 18412262852403321466
563151 40 18260830384648624099
59755656 520 18335133164239681589
6086070 43 18412822495959224216
6698420 124 18200601302363911881

> <PUBCHEM_SHAPE_MULTIPOLES>
623.09
22.03
4.69
1.4
37.24
0.88
0
-9.46
9.23
-10.71
0.7
-0.21
0.66
1.66

> <PUBCHEM_SHAPE_SELFOVERLAP>
1299.536

> <PUBCHEM_SHAPE_VOLUME>
353.9

> <PUBCHEM_COORDINATE_TYPE>
2
5
10

$$$$
