6142161
  -OEChem-01171809493D

 28 29  0     0  0  0  0  0  0999 V2000
    5.1819    1.2003    0.3935 Cl  0  0  0  0  0  0  0  0  0  0  0  0
    3.3325   -2.5038   -0.8217 O   0  5  0  0  0  0  0  0  0  0  0  0
    5.0706   -1.1914   -0.5467 O   0  0  0  0  0  0  0  0  0  0  0  0
    3.8411   -1.4171   -0.4605 N   0  3  0  0  0  0  0  0  0  0  0  0
   -3.2758   -1.0867    0.8117 N   0  0  0  0  0  0  0  0  0  0  0  0
   -0.8967    1.3716   -2.4246 N   0  0  0  0  0  0  0  0  0  0  0  0
    0.7620    0.3054    0.6681 C   0  0  0  0  0  0  0  0  0  0  0  0
    1.6249   -0.6643    0.1573 C   0  0  0  0  0  0  0  0  0  0  0  0
   -0.6639    0.0343    0.7619 C   0  0  0  0  0  0  0  0  0  0  0  0
    2.9920   -0.4029    0.0660 C   0  0  0  0  0  0  0  0  0  0  0  0
    1.2662    1.5364    1.0875 C   0  0  0  0  0  0  0  0  0  0  0  0
   -1.6062    0.2890   -0.1814 C   0  0  0  0  0  0  0  0  0  0  0  0
    3.4963    0.8281    0.4854 C   0  0  0  0  0  0  0  0  0  0  0  0
    2.6334    1.7977    0.9961 C   0  0  0  0  0  0  0  0  0  0  0  0
   -3.0330   -0.0339    0.0145 C   0  0  0  0  0  0  0  0  0  0  0  0
   -3.9864    0.7356   -0.6094 C   0  0  0  0  0  0  0  0  0  0  0  0
   -5.3170    0.3932   -0.3957 C   0  0  0  0  0  0  0  0  0  0  0  0
   -5.6282   -0.6884    0.4210 C   0  0  0  0  0  0  0  0  0  0  0  0
   -4.5804   -1.3896    0.9958 C   0  0  0  0  0  0  0  0  0  0  0  0
   -1.2131    0.8867   -1.4188 C   0  0  0  0  0  0  0  0  0  0  0  0
    1.2048   -1.6161   -0.1623 H   0  0  0  0  0  0  0  0  0  0  0  0
   -0.9535   -0.4135    1.7113 H   0  0  0  0  0  0  0  0  0  0  0  0
    0.6065    2.3025    1.4881 H   0  0  0  0  0  0  0  0  0  0  0  0
    3.0098    2.7622    1.3274 H   0  0  0  0  0  0  0  0  0  0  0  0
   -3.7565    1.5897   -1.2364 H   0  0  0  0  0  0  0  0  0  0  0  0
   -6.1104    0.9699   -0.8617 H   0  0  0  0  0  0  0  0  0  0  0  0
   -6.6582   -0.9728    0.6025 H   0  0  0  0  0  0  0  0  0  0  0  0
   -4.7699   -2.2411    1.6412 H   0  0  0  0  0  0  0  0  0  0  0  0
  1 13  1  0  0  0  0
  2  4  1  0  0  0  0
  3  4  2  0  0  0  0
  4 10  1  0  0  0  0
  5 15  1  0  0  0  0
  5 19  2  0  0  0  0
  6 20  3  0  0  0  0
  7  8  2  0  0  0  0
  7  9  1  0  0  0  0
  7 11  1  0  0  0  0
  8 10  1  0  0  0  0
  8 21  1  0  0  0  0
  9 12  2  0  0  0  0
  9 22  1  0  0  0  0
 10 13  2  0  0  0  0
 11 14  2  0  0  0  0
 11 23  1  0  0  0  0
 12 15  1  0  0  0  0
 12 20  1  0  0  0  0
 13 14  1  0  0  0  0
 14 24  1  0  0  0  0
 15 16  2  0  0  0  0
 16 17  1  0  0  0  0
 16 25  1  0  0  0  0
 17 18  2  0  0  0  0
 17 26  1  0  0  0  0
 18 19  1  0  0  0  0
 18 27  1  0  0  0  0
 19 28  1  0  0  0  0
M  CHG  2   2  -1   4   1
M  END
> <PUBCHEM_COMPOUND_CID>
6142161

> <PUBCHEM_CONFORMER_RMSD>
0.6

> <PUBCHEM_CONFORMER_DIVERSEORDER>
1
15
6
7
14
2
10
11
4
3
12
9
8
13
5

> <PUBCHEM_MMFF94_PARTIAL_CHARGES>
28
1 -0.18
10 0.13
11 -0.15
12 0.04
13 0.18
14 -0.15
15 0.34
16 -0.15
17 -0.15
18 -0.15
19 0.16
2 -0.52
20 0.49
21 0.15
22 0.15
23 0.15
24 0.15
25 0.15
26 0.15
27 0.15
28 0.15
3 -0.52
4 0.91
5 -0.62
6 -0.56
7 0.03
8 -0.15
9 -0.18

> <PUBCHEM_EFFECTIVE_ROTOR_COUNT>
3

> <PUBCHEM_PHARMACOPHORE_FEATURES>
7
1 2 acceptor
1 2 anion
1 3 acceptor
1 5 acceptor
1 6 acceptor
6 5 15 16 17 18 19 rings
6 7 8 10 11 13 14 rings

> <PUBCHEM_HEAVY_ATOM_COUNT>
20

> <PUBCHEM_ATOM_DEF_STEREO_COUNT>
0

> <PUBCHEM_ATOM_UDEF_STEREO_COUNT>
0

> <PUBCHEM_BOND_DEF_STEREO_COUNT>
1

> <PUBCHEM_BOND_UDEF_STEREO_COUNT>
0

> <PUBCHEM_ISOTOPIC_ATOM_COUNT>
0

> <PUBCHEM_COMPONENT_COUNT>
1

> <PUBCHEM_CACTVS_TAUTO_COUNT>
1

> <PUBCHEM_CONFORMER_ID>
005DB8D100000001

> <PUBCHEM_MMFF94_ENERGY>
69.7325

> <PUBCHEM_FEATURE_SELFOVERLAP>
35.605

> <PUBCHEM_SHAPE_FINGERPRINT>
10498660 4 17095794434887871765
11128504 68 16008756813641768126
11287383 113 18260266377906076160
11370993 144 18342462513288055233
11471102 20 18273493485798204368
11552529 35 17415840451801196463
12107183 9 17484821315645402651
12166972 35 13840255997193649620
12236239 1 16558751234443022793
12507560 40 18412825794198876601
12596602 18 16271640191230438659
12633257 1 17560805437557726527
12670546 56 17060337422533049385
12730499 353 18341334500141193536
12788726 201 16009304302187976845
128620 24 16298380266878357329
13533116 47 17989205941137668859
13544592 145 18334859415719459683
13583140 156 17559949003993590489
13760787 5 17489585671195313337
13955234 65 18059850701652082002
14341114 176 18343308071862764977
14386348 63 18334013899772513467
14573314 32 18409448077166558765
15664445 248 17386010580721346780
15848702 151 18408604764369277421
15961568 22 17386289917026553396
17349148 13 15339113555176252861
17844677 252 18343589533917923289
1813 80 17313103072922265181
18222031 100 17531241807807123959
18785283 64 18194394726781717832
19141452 34 18337391638664990883
200 152 17775283863620682585
20645477 70 18201439155787968502
21033648 29 18339909490307026513
21033650 10 16879076226477196700
21267235 1 17988370282710489510
2215653 11 18410567371629809319
23402539 116 17023173955130958649
23557571 272 17967245399311420316
23559900 14 18409162234218768273
239999 70 18408042914312612378
314173 85 17748827423634281749
345986 75 17059776602946970466
46194498 28 18260552217160462316
465052 167 17561368408922440375
474 4 16842735400031613488
4990 188 18260546718773914033
5104073 3 18202000975980148296
5281201 14 18408604764258624509
621550 34 18335412500391516740
7495541 125 18334012792008398674
7970288 3 17842845425828017310
8272917 22 17703797994207147991

> <PUBCHEM_SHAPE_MULTIPOLES>
386.78
12.25
1.75
1.29
4.33
0.53
-0.57
2.52
0.8
-1.74
-0.18
0.35
-0.4
1.94

> <PUBCHEM_SHAPE_SELFOVERLAP>
830.217

> <PUBCHEM_SHAPE_VOLUME>
213

> <PUBCHEM_COORDINATE_TYPE>
2
5
10

$$$$
