5773323
  -OEChem-01171809533D

 40 42  0     0  0  0  0  0  0999 V2000
    5.0128   -0.4747    2.4913 Cl  0  0  0  0  0  0  0  0  0  0  0  0
    1.0323   -1.9728   -0.2568 O   0  0  0  0  0  0  0  0  0  0  0  0
   -5.3579   -1.0955   -0.0730 N   0  0  0  0  0  0  0  0  0  0  0  0
    0.0610    0.1626   -0.0721 N   0  0  0  0  0  0  0  0  0  0  0  0
   -4.2461    2.9407    0.2238 N   0  0  0  0  0  0  0  0  0  0  0  0
   -3.6185    0.5694    0.0266 C   0  0  0  0  0  0  0  0  0  0  0  0
   -4.0515   -0.7696   -0.0709 C   0  0  0  0  0  0  0  0  0  0  0  0
   -4.5926    1.5723    0.1229 C   0  0  0  0  0  0  0  0  0  0  0  0
   -2.2466    0.8735    0.0260 C   0  0  0  0  0  0  0  0  0  0  0  0
   -1.3001   -0.1424   -0.0708 C   0  0  0  0  0  0  0  0  0  0  0  0
   -3.0835   -1.7656   -0.1664 C   0  0  0  0  0  0  0  0  0  0  0  0
   -1.7194   -1.4635   -0.1672 C   0  0  0  0  0  0  0  0  0  0  0  0
   -6.2663   -0.0976    0.0217 C   0  0  0  0  0  0  0  0  0  0  0  0
   -5.9395    1.2396    0.1210 C   0  0  0  0  0  0  0  0  0  0  0  0
   -7.7026   -0.5023    0.0146 C   0  0  0  0  0  0  0  0  0  0  0  0
    1.1035   -0.7533   -0.1637 C   0  0  0  0  0  0  0  0  0  0  0  0
    4.8685   -0.1735   -0.2243 C   0  0  0  0  0  0  0  0  0  0  0  0
    2.4278   -0.0557   -0.1334 C   0  0  0  0  0  0  0  0  0  0  0  0
    3.5627   -0.7654   -0.2278 C   0  0  0  0  0  0  0  0  0  0  0  0
    5.6251    0.0114    0.9489 C   0  0  0  0  0  0  0  0  0  0  0  0
    5.4238    0.2435   -1.4474 C   0  0  0  0  0  0  0  0  0  0  0  0
    6.8919    0.5932    0.8988 C   0  0  0  0  0  0  0  0  0  0  0  0
    6.6906    0.8254   -1.4975 C   0  0  0  0  0  0  0  0  0  0  0  0
    7.4247    1.0002   -0.3244 C   0  0  0  0  0  0  0  0  0  0  0  0
   -1.8852    1.8951    0.0997 H   0  0  0  0  0  0  0  0  0  0  0  0
   -3.3880   -2.8080   -0.2429 H   0  0  0  0  0  0  0  0  0  0  0  0
   -1.0664   -2.3197   -0.2463 H   0  0  0  0  0  0  0  0  0  0  0  0
   -6.7103    2.0004    0.1943 H   0  0  0  0  0  0  0  0  0  0  0  0
    0.2900    1.1515    0.0011 H   0  0  0  0  0  0  0  0  0  0  0  0
   -7.8048   -1.5894   -0.0681 H   0  0  0  0  0  0  0  0  0  0  0  0
   -8.1917   -0.1873    0.9419 H   0  0  0  0  0  0  0  0  0  0  0  0
   -8.2217   -0.0491   -0.8359 H   0  0  0  0  0  0  0  0  0  0  0  0
   -3.2884    3.2561    0.2306 H   0  0  0  0  0  0  0  0  0  0  0  0
   -4.9832    3.6312    0.2907 H   0  0  0  0  0  0  0  0  0  0  0  0
    2.4471    1.0260   -0.0434 H   0  0  0  0  0  0  0  0  0  0  0  0
    3.5438   -1.8479   -0.3195 H   0  0  0  0  0  0  0  0  0  0  0  0
    4.8705    0.1166   -2.3761 H   0  0  0  0  0  0  0  0  0  0  0  0
    7.4775    0.7368    1.8034 H   0  0  0  0  0  0  0  0  0  0  0  0
    7.1056    1.1422   -2.4498 H   0  0  0  0  0  0  0  0  0  0  0  0
    8.4111    1.4532   -0.3635 H   0  0  0  0  0  0  0  0  0  0  0  0
  1 20  1  0  0  0  0
  2 16  2  0  0  0  0
  3  7  2  0  0  0  0
  3 13  1  0  0  0  0
  4 10  1  0  0  0  0
  4 16  1  0  0  0  0
  4 29  1  0  0  0  0
  5  8  1  0  0  0  0
  5 33  1  0  0  0  0
  5 34  1  0  0  0  0
  6  7  1  0  0  0  0
  6  8  2  0  0  0  0
  6  9  1  0  0  0  0
  7 11  1  0  0  0  0
  8 14  1  0  0  0  0
  9 10  2  0  0  0  0
  9 25  1  0  0  0  0
 10 12  1  0  0  0  0
 11 12  2  0  0  0  0
 11 26  1  0  0  0  0
 12 27  1  0  0  0  0
 13 14  2  0  0  0  0
 13 15  1  0  0  0  0
 14 28  1  0  0  0  0
 15 30  1  0  0  0  0
 15 31  1  0  0  0  0
 15 32  1  0  0  0  0
 16 18  1  0  0  0  0
 17 19  1  0  0  0  0
 17 20  1  0  0  0  0
 17 21  2  0  0  0  0
 18 19  2  0  0  0  0
 18 35  1  0  0  0  0
 19 36  1  0  0  0  0
 20 22  2  0  0  0  0
 21 23  1  0  0  0  0
 21 37  1  0  0  0  0
 22 24  1  0  0  0  0
 22 38  1  0  0  0  0
 23 24  2  0  0  0  0
 23 39  1  0  0  0  0
 24 40  1  0  0  0  0
M  END
> <PUBCHEM_COMPOUND_CID>
5773323

> <PUBCHEM_CONFORMER_RMSD>
0.8

> <PUBCHEM_CONFORMER_DIVERSEORDER>
1
16
12
11
17
14
6
18
15
5
10
9
2
8
13
7
4
3

> <PUBCHEM_MMFF94_PARTIAL_CHARGES>
36
1 -0.18
10 0.12
11 -0.15
12 -0.15
13 0.17
14 -0.15
15 0.14
16 0.62
17 0.03
18 -0.14
19 -0.18
2 -0.57
20 0.18
21 -0.15
22 -0.15
23 -0.15
24 -0.15
25 0.15
26 0.15
27 0.15
28 0.15
29 0.37
3 -0.62
33 0.4
34 0.4
35 0.15
36 0.15
37 0.15
38 0.15
39 0.15
4 -0.55
40 0.15
5 -0.9
7 0.31
8 0.1
9 -0.15

> <PUBCHEM_EFFECTIVE_ROTOR_COUNT>
4

> <PUBCHEM_PHARMACOPHORE_FEATURES>
8
1 2 acceptor
1 3 acceptor
1 4 donor
1 5 cation
1 5 donor
6 17 20 21 22 23 24 rings
6 3 6 7 8 13 14 rings
6 6 7 9 10 11 12 rings

> <PUBCHEM_HEAVY_ATOM_COUNT>
24

> <PUBCHEM_ATOM_DEF_STEREO_COUNT>
0

> <PUBCHEM_ATOM_UDEF_STEREO_COUNT>
0

> <PUBCHEM_BOND_DEF_STEREO_COUNT>
1

> <PUBCHEM_BOND_UDEF_STEREO_COUNT>
0

> <PUBCHEM_ISOTOPIC_ATOM_COUNT>
0

> <PUBCHEM_COMPONENT_COUNT>
1

> <PUBCHEM_CACTVS_TAUTO_COUNT>
16

> <PUBCHEM_CONFORMER_ID>
0058180B00000001

> <PUBCHEM_MMFF94_ENERGY>
88.4257

> <PUBCHEM_FEATURE_SELFOVERLAP>
40.626

> <PUBCHEM_SHAPE_FINGERPRINT>
10 15 18334014995121036419
10087517 78 18334575720339888469
10299344 5 17967812756296568834
10411042 1 17979917439465324215
11315181 36 17967536792195389505
12236239 1 17822009804586326131
12516196 113 17917993879762241448
12730499 353 17346601863942828806
13073987 5 18337391531021601315
13533116 47 17631735967874344598
13914758 101 15647326404301196109
14251764 18 18113336426935417238
14251764 46 18259703411390035439
14933364 13 18131353011915731020
15183329 4 18409171016989194340
15419008 47 17632856429782918033
1577012 14 18259984846878421693
16989713 51 17416117511082263439
19377110 9 17821725014248232560
20281389 69 18409166597768260776
21033648 29 17702931648159615386
21150785 3 16343984714837270724
220451 1 17240202149387312130
22061861 79 15913331282320911796
221357 26 15841555167850002906
22224240 67 15791731922985626266
23081809 10 18260543424945733658
23559900 14 18059850709661929961
29717793 49 12247681591419075824
3004659 81 18410577310058096588
335352 9 18412823600182465869
34797466 226 17704077317568974996
3545911 37 18060420213661533054
3663271 9 17676205766861054048
4073 2 18114470041242606810
4325135 7 18408888446842854670
4340502 62 15719109172103753938
44249763 50 17488726991569581750
445580 37 18271535229661426564
5104073 3 18265900155602516379
5758199 1 18342745100603461659
59682541 35 18336274513708345243

> <PUBCHEM_SHAPE_MULTIPOLES>
474.97
23.09
1.69
1.18
7.79
0.5
0.49
5.76
0.41
-2.31
0.01
3.01
-0.04
-1.07

> <PUBCHEM_SHAPE_SELFOVERLAP>
1030.105

> <PUBCHEM_SHAPE_VOLUME>
259.7

> <PUBCHEM_COORDINATE_TYPE>
2
5
10

$$$$
