2923067
  -OEChem-01171809243D

 55 55  0     1  0  0  0  0  0999 V2000
   -0.8391    1.1691    0.5602 O   0  0  0  0  0  0  0  0  0  0  0  0
    3.3170   -2.6673   -0.4663 O   0  0  0  0  0  0  0  0  0  0  0  0
    4.4734    1.9026   -0.5386 O   0  0  0  0  0  0  0  0  0  0  0  0
    4.1042   -1.7888    1.5116 O   0  0  0  0  0  0  0  0  0  0  0  0
    4.7629    0.8150    1.4705 O   0  0  0  0  0  0  0  0  0  0  0  0
   -6.3391    0.2139   -0.3233 C   0  0  1  0  0  0  0  0  0  0  0  0
    2.4032   -0.0125   -0.9869 C   0  0  0  0  0  0  0  0  0  0  0  0
    1.4068    0.4154    0.1015 C   0  0  0  0  0  0  0  0  0  0  0  0
    3.8018   -0.3578   -0.4441 C   0  0  0  0  0  0  0  0  0  0  0  0
   -4.8879    0.4658   -0.0907 C   0  0  0  0  0  0  0  0  0  0  0  0
   -6.8276   -1.1873    0.1365 C   0  0  0  0  0  0  0  0  0  0  0  0
    0.0519    0.8004   -0.4827 C   0  0  0  0  0  0  0  0  0  0  0  0
   -7.2185    1.2842    0.3577 C   0  0  0  0  0  0  0  0  0  0  0  0
   -4.3729    0.4279    1.2052 C   0  0  0  0  0  0  0  0  0  0  0  0
   -4.0454    0.7395   -1.1682 C   0  0  0  0  0  0  0  0  0  0  0  0
   -2.1731    0.9371    0.3458 C   0  0  0  0  0  0  0  0  0  0  0  0
   -6.1065   -2.3243   -0.5773 C   0  0  0  0  0  0  0  0  0  0  0  0
   -3.0156    0.6635    1.4234 C   0  0  0  0  0  0  0  0  0  0  0  0
   -2.6880    0.9750   -0.9500 C   0  0  0  0  0  0  0  0  0  0  0  0
    3.7708   -1.6615    0.3414 C   0  0  0  0  0  0  0  0  0  0  0  0
    4.4003    0.8266    0.3020 C   0  0  0  0  0  0  0  0  0  0  0  0
    3.2391   -3.9605    0.1417 C   0  0  0  0  0  0  0  0  0  0  0  0
    5.0243    3.0948    0.0299 C   0  0  0  0  0  0  0  0  0  0  0  0
    2.7230   -4.9541   -0.8770 C   0  0  0  0  0  0  0  0  0  0  0  0
    5.0351    4.1834   -1.0221 C   0  0  0  0  0  0  0  0  0  0  0  0
   -6.5454    0.2855   -1.4004 H   0  0  0  0  0  0  0  0  0  0  0  0
    1.9863   -0.8644   -1.5376 H   0  0  0  0  0  0  0  0  0  0  0  0
    2.4910    0.8017   -1.7179 H   0  0  0  0  0  0  0  0  0  0  0  0
    1.2679   -0.3943    0.8282 H   0  0  0  0  0  0  0  0  0  0  0  0
    1.7937    1.2675    0.6728 H   0  0  0  0  0  0  0  0  0  0  0  0
    4.4822   -0.5472   -1.2865 H   0  0  0  0  0  0  0  0  0  0  0  0
   -6.7029   -1.3089    1.2192 H   0  0  0  0  0  0  0  0  0  0  0  0
   -7.9017   -1.2778   -0.0683 H   0  0  0  0  0  0  0  0  0  0  0  0
   -0.3212   -0.0666   -1.0437 H   0  0  0  0  0  0  0  0  0  0  0  0
    0.1694    1.6487   -1.1672 H   0  0  0  0  0  0  0  0  0  0  0  0
   -8.2710    1.1473    0.0864 H   0  0  0  0  0  0  0  0  0  0  0  0
   -6.9204    2.2905    0.0423 H   0  0  0  0  0  0  0  0  0  0  0  0
   -7.1469    1.2399    1.4499 H   0  0  0  0  0  0  0  0  0  0  0  0
   -5.0104    0.2164    2.0591 H   0  0  0  0  0  0  0  0  0  0  0  0
   -4.4318    0.7784   -2.1832 H   0  0  0  0  0  0  0  0  0  0  0  0
   -6.2040   -2.2298   -1.6635 H   0  0  0  0  0  0  0  0  0  0  0  0
   -6.5392   -3.2856   -0.2818 H   0  0  0  0  0  0  0  0  0  0  0  0
   -5.0420   -2.3488   -0.3256 H   0  0  0  0  0  0  0  0  0  0  0  0
   -2.6197    0.6324    2.4347 H   0  0  0  0  0  0  0  0  0  0  0  0
   -2.0727    1.2121   -1.8128 H   0  0  0  0  0  0  0  0  0  0  0  0
    2.5568   -3.9204    0.9981 H   0  0  0  0  0  0  0  0  0  0  0  0
    4.2350   -4.2641    0.4833 H   0  0  0  0  0  0  0  0  0  0  0  0
    6.0472    2.8985    0.3701 H   0  0  0  0  0  0  0  0  0  0  0  0
    4.4112    3.4096    0.8818 H   0  0  0  0  0  0  0  0  0  0  0  0
    2.6502   -5.9558   -0.4445 H   0  0  0  0  0  0  0  0  0  0  0  0
    3.3855   -4.9922   -1.7481 H   0  0  0  0  0  0  0  0  0  0  0  0
    1.7354   -4.6536   -1.2420 H   0  0  0  0  0  0  0  0  0  0  0  0
    5.4503    5.1117   -0.6202 H   0  0  0  0  0  0  0  0  0  0  0  0
    4.0205    4.3777   -1.3855 H   0  0  0  0  0  0  0  0  0  0  0  0
    5.6296    3.8758   -1.8887 H   0  0  0  0  0  0  0  0  0  0  0  0
  1 12  1  0  0  0  0
  1 16  1  0  0  0  0
  2 20  1  0  0  0  0
  2 22  1  0  0  0  0
  3 21  1  0  0  0  0
  3 23  1  0  0  0  0
  4 20  2  0  0  0  0
  5 21  2  0  0  0  0
  6 10  1  0  0  0  0
  6 11  1  0  0  0  0
  6 13  1  0  0  0  0
  6 26  1  0  0  0  0
  7  8  1  0  0  0  0
  7  9  1  0  0  0  0
  7 27  1  0  0  0  0
  7 28  1  0  0  0  0
  8 12  1  0  0  0  0
  8 29  1  0  0  0  0
  8 30  1  0  0  0  0
  9 20  1  0  0  0  0
  9 21  1  0  0  0  0
  9 31  1  0  0  0  0
 10 14  2  0  0  0  0
 10 15  1  0  0  0  0
 11 17  1  0  0  0  0
 11 32  1  0  0  0  0
 11 33  1  0  0  0  0
 12 34  1  0  0  0  0
 12 35  1  0  0  0  0
 13 36  1  0  0  0  0
 13 37  1  0  0  0  0
 13 38  1  0  0  0  0
 14 18  1  0  0  0  0
 14 39  1  0  0  0  0
 15 19  2  0  0  0  0
 15 40  1  0  0  0  0
 16 18  2  0  0  0  0
 16 19  1  0  0  0  0
 17 41  1  0  0  0  0
 17 42  1  0  0  0  0
 17 43  1  0  0  0  0
 18 44  1  0  0  0  0
 19 45  1  0  0  0  0
 22 24  1  0  0  0  0
 22 46  1  0  0  0  0
 22 47  1  0  0  0  0
 23 25  1  0  0  0  0
 23 48  1  0  0  0  0
 23 49  1  0  0  0  0
 24 50  1  0  0  0  0
 24 51  1  0  0  0  0
 24 52  1  0  0  0  0
 25 53  1  0  0  0  0
 25 54  1  0  0  0  0
 25 55  1  0  0  0  0
M  END
> <PUBCHEM_COMPOUND_CID>
2923067

> <PUBCHEM_CONFORMER_RMSD>
1.2

> <PUBCHEM_CONFORMER_DIVERSEORDER>
1
2
88
29
19
46
51
64
71
33
67
106
12
82
90
107
9
81
93
56
100
72
55
44
103
26
108
85
27
97
78
84
105
47
109
18
38
39
96
57
16
21
98
68
28
8
70
45
95
34
73
101
52
5
74
53
6
54
94
76
87
17
13
99
86
15
3
42
43
80
25
83
89
66
37
50
58
35
24
36
62
30
20
91
75
102
23
4
32
60
65
69
48
11
14
104
79
63
41
10
22
49
77
59
92
7
40
31
61

> <PUBCHEM_MMFF94_PARTIAL_CHARGES>
22
1 -0.36
10 -0.14
12 0.28
14 -0.15
15 -0.15
16 0.08
18 -0.15
19 -0.15
2 -0.43
20 0.66
21 0.66
22 0.28
23 0.28
3 -0.43
39 0.15
4 -0.57
40 0.15
44 0.15
45 0.15
5 -0.57
6 0.14
9 0.12

> <PUBCHEM_EFFECTIVE_ROTOR_COUNT>
13

> <PUBCHEM_PHARMACOPHORE_FEATURES>
7
1 1 acceptor
1 13 hydrophobe
1 17 hydrophobe
1 4 acceptor
1 5 acceptor
1 9 anion
6 10 14 15 16 18 19 rings

> <PUBCHEM_HEAVY_ATOM_COUNT>
25

> <PUBCHEM_ATOM_DEF_STEREO_COUNT>
0

> <PUBCHEM_ATOM_UDEF_STEREO_COUNT>
1

> <PUBCHEM_BOND_DEF_STEREO_COUNT>
0

> <PUBCHEM_BOND_UDEF_STEREO_COUNT>
0

> <PUBCHEM_ISOTOPIC_ATOM_COUNT>
0

> <PUBCHEM_COMPONENT_COUNT>
1

> <PUBCHEM_CACTVS_TAUTO_COUNT>
1

> <PUBCHEM_CONFORMER_ID>
002C9A3B00000001

> <PUBCHEM_MMFF94_ENERGY>
46.472

> <PUBCHEM_FEATURE_SELFOVERLAP>
35.529

> <PUBCHEM_SHAPE_FINGERPRINT>
10595046 47 18412547630589528425
10835480 77 18334850611443074661
12107183 9 17623863322584581913
12596602 18 18202003244086792083
13533116 47 18270119006965778635
13955234 65 18411417285559768074
14251740 57 18269838618700664118
14461889 52 18189333639892281552
15001296 14 18335979788367921771
15183329 4 15213017150903200909
17492 89 18196371416522185278
17844677 252 18337113362890569029
17859628 70 18268430140479845350
19319366 153 18272645784008414148
19427546 62 18264773328077546220
20157964 124 18335422386989643504
20645477 70 18261954042518961442
220451 1 18343310253927638705
23081809 10 17989203738283786381
23559900 14 18334861580751949536
23845131 108 18194400216002317576
239999 70 18186800241133376746
25222932 49 18130499838068970927
2838139 119 8574446305352189459
4073 2 18335425724769537363
5104073 3 17917150477477106801
6025842 7 18410014330118454028
8988823 20 18260828194141404224

> <PUBCHEM_SHAPE_MULTIPOLES>
485.14
18.88
4.62
1.18
22.11
4.68
0.19
-3.27
0.33
-10.96
-1.41
-0.15
-0.09
-1.09

> <PUBCHEM_SHAPE_SELFOVERLAP>
965.982

> <PUBCHEM_SHAPE_VOLUME>
288

> <PUBCHEM_COORDINATE_TYPE>
2
5
10

$$$$
