647427
  -OEChem-01171809143D

 35 36  0     0  0  0  0  0  0999 V2000
   -5.5673    1.2733    0.9151 O   0  0  0  0  0  0  0  0  0  0  0  0
   -5.5140    0.1249   -1.0851 O   0  0  0  0  0  0  0  0  0  0  0  0
   -1.4647   -0.9470   -0.2902 N   0  0  0  0  0  0  0  0  0  0  0  0
   -0.4627   -0.1365   -0.6216 N   0  0  0  0  0  0  0  0  0  0  0  0
   -1.1654   -2.0378    0.4106 N   0  0  0  0  0  0  0  0  0  0  0  0
    0.1503   -1.9623    0.5695 N   0  0  0  0  0  0  0  0  0  0  0  0
   -2.8387   -0.6517   -0.6795 C   0  0  0  0  0  0  0  0  0  0  0  0
    4.5718    0.4395   -0.1863 C   0  0  0  0  0  0  0  0  0  0  0  0
    1.9067   -0.3902   -0.1015 C   0  0  0  0  0  0  0  0  0  0  0  0
    5.9948    0.8830   -0.2308 C   0  0  0  0  0  0  0  0  0  0  0  0
   -3.5663    0.1857    0.3687 C   0  0  0  0  0  0  0  0  0  0  0  0
    0.5393   -0.8162   -0.0580 C   0  0  0  0  0  0  0  0  0  0  0  0
    3.5824    1.2071   -0.8006 C   0  0  0  0  0  0  0  0  0  0  0  0
    4.2300   -0.7426    0.4705 C   0  0  0  0  0  0  0  0  0  0  0  0
    2.2512    0.7928   -0.7582 C   0  0  0  0  0  0  0  0  0  0  0  0
    2.8989   -1.1572    0.5128 C   0  0  0  0  0  0  0  0  0  0  0  0
    6.3595    1.7764    0.9533 C   0  0  0  0  0  0  0  0  0  0  0  0
   -4.9832    0.5025   -0.0496 C   0  0  0  0  0  0  0  0  0  0  0  0
   -6.9228    1.6561    0.6607 C   0  0  0  0  0  0  0  0  0  0  0  0
   -3.3444   -1.6107   -0.8426 H   0  0  0  0  0  0  0  0  0  0  0  0
   -2.7987   -0.1328   -1.6446 H   0  0  0  0  0  0  0  0  0  0  0  0
    6.6594    0.0101   -0.2464 H   0  0  0  0  0  0  0  0  0  0  0  0
    6.1908    1.4211   -1.1667 H   0  0  0  0  0  0  0  0  0  0  0  0
   -3.5999   -0.3560    1.3210 H   0  0  0  0  0  0  0  0  0  0  0  0
   -3.0330    1.1308    0.5242 H   0  0  0  0  0  0  0  0  0  0  0  0
    3.8360    2.1311   -1.3137 H   0  0  0  0  0  0  0  0  0  0  0  0
    4.9915   -1.3484    0.9547 H   0  0  0  0  0  0  0  0  0  0  0  0
    1.5068    1.4163   -1.2474 H   0  0  0  0  0  0  0  0  0  0  0  0
    2.6636   -2.0828    1.0325 H   0  0  0  0  0  0  0  0  0  0  0  0
    5.7423    2.6810    0.9716 H   0  0  0  0  0  0  0  0  0  0  0  0
    7.4086    2.0815    0.8867 H   0  0  0  0  0  0  0  0  0  0  0  0
    6.2170    1.2517    1.9039 H   0  0  0  0  0  0  0  0  0  0  0  0
   -7.5588    0.7691    0.5844 H   0  0  0  0  0  0  0  0  0  0  0  0
   -6.9820    2.2547   -0.2533 H   0  0  0  0  0  0  0  0  0  0  0  0
   -7.2678    2.2640    1.5013 H   0  0  0  0  0  0  0  0  0  0  0  0
  1 18  1  0  0  0  0
  1 19  1  0  0  0  0
  2 18  2  0  0  0  0
  3  4  1  0  0  0  0
  3  5  1  0  0  0  0
  3  7  1  0  0  0  0
  4 12  2  0  0  0  0
  5  6  2  0  0  0  0
  6 12  1  0  0  0  0
  7 11  1  0  0  0  0
  7 20  1  0  0  0  0
  7 21  1  0  0  0  0
  8 10  1  0  0  0  0
  8 13  2  0  0  0  0
  8 14  1  0  0  0  0
  9 12  1  0  0  0  0
  9 15  2  0  0  0  0
  9 16  1  0  0  0  0
 10 17  1  0  0  0  0
 10 22  1  0  0  0  0
 10 23  1  0  0  0  0
 11 18  1  0  0  0  0
 11 24  1  0  0  0  0
 11 25  1  0  0  0  0
 13 15  1  0  0  0  0
 13 26  1  0  0  0  0
 14 16  2  0  0  0  0
 14 27  1  0  0  0  0
 15 28  1  0  0  0  0
 16 29  1  0  0  0  0
 17 30  1  0  0  0  0
 17 31  1  0  0  0  0
 17 32  1  0  0  0  0
 19 33  1  0  0  0  0
 19 34  1  0  0  0  0
 19 35  1  0  0  0  0
M  END
> <PUBCHEM_COMPOUND_CID>
647427

> <PUBCHEM_CONFORMER_RMSD>
0.8

> <PUBCHEM_CONFORMER_DIVERSEORDER>
1
13
27
29
2
21
28
17
9
24
22
10
19
23
16
11
15
20
26
12
7
18
6
14
8
30
3
5
25
4

> <PUBCHEM_MMFF94_PARTIAL_CHARGES>
22
1 -0.43
10 0.14
11 0.06
12 0.46
13 -0.15
14 -0.15
15 -0.15
16 -0.15
18 0.66
19 0.28
2 -0.57
26 0.15
27 0.15
28 0.15
29 0.15
3 0.58
4 -0.71
5 -0.42
6 -0.23
7 0.26
8 -0.14
9 0.05

> <PUBCHEM_EFFECTIVE_ROTOR_COUNT>
6

> <PUBCHEM_PHARMACOPHORE_FEATURES>
5
1 17 hydrophobe
1 2 acceptor
3 4 6 12 cation
5 3 4 5 6 12 rings
6 8 9 13 14 15 16 rings

> <PUBCHEM_HEAVY_ATOM_COUNT>
19

> <PUBCHEM_ATOM_DEF_STEREO_COUNT>
0

> <PUBCHEM_ATOM_UDEF_STEREO_COUNT>
0

> <PUBCHEM_BOND_DEF_STEREO_COUNT>
0

> <PUBCHEM_BOND_UDEF_STEREO_COUNT>
0

> <PUBCHEM_ISOTOPIC_ATOM_COUNT>
0

> <PUBCHEM_COMPONENT_COUNT>
1

> <PUBCHEM_CACTVS_TAUTO_COUNT>
1

> <PUBCHEM_CONFORMER_ID>
0009E10300000001

> <PUBCHEM_MMFF94_ENERGY>
29.8399

> <PUBCHEM_FEATURE_SELFOVERLAP>
25.372

> <PUBCHEM_SHAPE_FINGERPRINT>
10 15 16877664582111249508
10354089 29 17967255295247983212
10366900 7 12751246930208640014
10688039 33 17022902315793426173
10740516 88 13119104926645935376
11089746 13 18272365412595887156
11724838 91 18261115205684140503
117890 112 18272088314254024672
12236239 1 18344143683256313263
12555020 224 11095874961490991669
12670543 26 13758080666743943907
13167372 99 18339362950943504049
13288520 33 8502379931699137511
13533116 47 18341892940590333634
13631057 29 18338793546561994375
13668630 136 9367343730548552409
13785724 45 17686896116566124010
14123256 34 9151172073520969153
1420 363 10735880590469209060
14251764 18 18187365454376151163
14341114 176 17385445388494127815
14576447 43 11023836063345086548
15048467 5 18341894095282207112
15183329 4 15051738551799741851
15188451 53 14057012658847536809
15238133 3 18335710481043688220
15348495 7 16443357506625761569
15475509 35 15358249374078566042
15690457 1 12252192896329032641
15880784 105 11602825696133396685
18222031 100 10159696876304272254
20281389 69 18408884018652821049
20526848 3 18343588421590023865
20621476 66 18412548725220418588
20645477 70 11672068536230764620
21150785 3 16415194623975328557
212847 35 18342174449293344858
22224240 67 17894352177216812211
22956985 138 12036822662660799472
23402539 116 18341889735969471398
23402655 69 18344143704583560782
2767999 5 18410007745506594133
2838139 119 18202280316490396329
2916195 48 18343299305370309608
293599 30 18410012143378843438
29717793 49 17561369457348108854
300161 21 18411975888647758478
3014063 24 10881403153529176489
312425 54 16226055449188161009
314194 84 9871744711233590853
33382 64 12613017380848192168
3472631 163 18131353037464209860
3545911 37 18333731330096003062
4340502 62 16225766302850772200
465052 167 10809352126195297377
5104073 3 17460029802704362240
5385378 56 18260828159913593546
542803 24 18273211993304040279
59682541 52 17489322845504640516
8272917 22 18411702045944523190

> <PUBCHEM_SHAPE_MULTIPOLES>
359.35
16.9
1.75
0.93
12.65
0.16
-0.02
-12.1
2.79
-0.08
0.43
0.07
-0.16
-0.66

> <PUBCHEM_SHAPE_SELFOVERLAP>
749.324

> <PUBCHEM_SHAPE_VOLUME>
205.9

> <PUBCHEM_COORDINATE_TYPE>
2
5
10

$$$$
