15945494
  -OEChem-01171809393D

 49 52  0     0  0  0  0  0  0999 V2000
    9.4904    1.9693    0.1452 Cl  0  0  0  0  0  0  0  0  0  0  0  0
   -6.8972    1.6187    1.8919 S   0  0  0  0  0  0  0  0  0  0  0  0
   -4.5438   -0.6392   -1.4142 O   0  0  0  0  0  0  0  0  0  0  0  0
    1.8850   -0.3798   -0.3348 N   0  0  0  0  0  0  0  0  0  0  0  0
    1.2707   -2.4549    0.7011 N   0  0  0  0  0  0  0  0  0  0  0  0
    2.9874    0.4032   -0.5163 N   0  0  0  0  0  0  0  0  0  0  0  0
   -4.8979    0.5090    0.6095 N   0  0  0  0  0  0  0  0  0  0  0  0
   -7.0832    0.4424   -0.4025 N   0  0  0  0  0  0  0  0  0  0  0  0
   -0.3953   -1.0372   -0.5208 C   0  0  0  0  0  0  0  0  0  0  0  0
    0.5751   -0.1359   -0.7906 C   0  0  0  0  0  0  0  0  0  0  0  0
   -1.8294   -0.9753   -0.9507 C   0  0  0  0  0  0  0  0  0  0  0  0
    0.0586   -2.2359    0.2863 C   0  0  0  0  0  0  0  0  0  0  0  0
    2.2059   -1.5235    0.3906 C   0  0  0  0  0  0  0  0  0  0  0  0
   -2.6921   -0.2475    0.0733 C   0  0  0  0  0  0  0  0  0  0  0  0
    3.9747   -0.2529    0.0896 C   0  0  0  0  0  0  0  0  0  0  0  0
    3.5514   -1.4530    0.6698 C   0  0  0  0  0  0  0  0  0  0  0  0
    0.3675    1.1449   -1.5558 C   0  0  0  0  0  0  0  0  0  0  0  0
   -0.9732   -3.2832    0.6493 C   0  0  0  0  0  0  0  0  0  0  0  0
    5.3099    0.2849    0.1021 C   0  0  0  0  0  0  0  0  0  0  0  0
   -4.1519   -0.1621   -0.3547 C   0  0  0  0  0  0  0  0  0  0  0  0
    6.4044   -0.5758    0.1419 C   0  0  0  0  0  0  0  0  0  0  0  0
    5.5025    1.6645    0.0757 C   0  0  0  0  0  0  0  0  0  0  0  0
    7.6982   -0.0546    0.1555 C   0  0  0  0  0  0  0  0  0  0  0  0
    6.7963    2.1859    0.0891 C   0  0  0  0  0  0  0  0  0  0  0  0
   -6.2685    0.7732    0.5523 C   0  0  0  0  0  0  0  0  0  0  0  0
    7.8942    1.3264    0.1289 C   0  0  0  0  0  0  0  0  0  0  0  0
   -8.3430    0.8945   -0.0612 C   0  0  0  0  0  0  0  0  0  0  0  0
   -8.4399    1.5550    1.1455 C   0  0  0  0  0  0  0  0  0  0  0  0
   -9.4566    0.6391   -0.9960 C   0  0  0  0  0  0  0  0  0  0  0  0
   -1.9060   -0.4664   -1.9199 H   0  0  0  0  0  0  0  0  0  0  0  0
   -2.2315   -1.9735   -1.1542 H   0  0  0  0  0  0  0  0  0  0  0  0
   -2.3251    0.7772    0.2145 H   0  0  0  0  0  0  0  0  0  0  0  0
   -2.6526   -0.7465    1.0481 H   0  0  0  0  0  0  0  0  0  0  0  0
    4.1219   -2.1831    1.2267 H   0  0  0  0  0  0  0  0  0  0  0  0
    0.9346    1.1247   -2.4926 H   0  0  0  0  0  0  0  0  0  0  0  0
    0.7041    2.0031   -0.9636 H   0  0  0  0  0  0  0  0  0  0  0  0
   -0.6795    1.3302   -1.8081 H   0  0  0  0  0  0  0  0  0  0  0  0
   -1.2966   -3.8123   -0.2512 H   0  0  0  0  0  0  0  0  0  0  0  0
   -1.8309   -2.8336    1.1520 H   0  0  0  0  0  0  0  0  0  0  0  0
   -0.5361   -4.0186    1.3329 H   0  0  0  0  0  0  0  0  0  0  0  0
    6.2845   -1.6562    0.1527 H   0  0  0  0  0  0  0  0  0  0  0  0
    4.6668    2.3596    0.0533 H   0  0  0  0  0  0  0  0  0  0  0  0
   -4.4314    0.8521    1.4454 H   0  0  0  0  0  0  0  0  0  0  0  0
    8.5444   -0.7361    0.1843 H   0  0  0  0  0  0  0  0  0  0  0  0
    6.9341    3.2640    0.0701 H   0  0  0  0  0  0  0  0  0  0  0  0
   -9.3121    1.9902    1.6126 H   0  0  0  0  0  0  0  0  0  0  0  0
  -10.3115    1.2913   -0.7911 H   0  0  0  0  0  0  0  0  0  0  0  0
   -9.1403    0.8154   -2.0291 H   0  0  0  0  0  0  0  0  0  0  0  0
   -9.7904   -0.3998   -0.9119 H   0  0  0  0  0  0  0  0  0  0  0  0
  1 26  1  0  0  0  0
  2 25  1  0  0  0  0
  2 28  1  0  0  0  0
  3 20  2  0  0  0  0
  4  6  1  0  0  0  0
  4 10  1  0  0  0  0
  4 13  1  0  0  0  0
  5 12  2  0  0  0  0
  5 13  1  0  0  0  0
  6 15  2  0  0  0  0
  7 20  1  0  0  0  0
  7 25  1  0  0  0  0
  7 43  1  0  0  0  0
  8 25  2  0  0  0  0
  8 27  1  0  0  0  0
  9 10  2  0  0  0  0
  9 11  1  0  0  0  0
  9 12  1  0  0  0  0
 10 17  1  0  0  0  0
 11 14  1  0  0  0  0
 11 30  1  0  0  0  0
 11 31  1  0  0  0  0
 12 18  1  0  0  0  0
 13 16  2  0  0  0  0
 14 20  1  0  0  0  0
 14 32  1  0  0  0  0
 14 33  1  0  0  0  0
 15 16  1  0  0  0  0
 15 19  1  0  0  0  0
 16 34  1  0  0  0  0
 17 35  1  0  0  0  0
 17 36  1  0  0  0  0
 17 37  1  0  0  0  0
 18 38  1  0  0  0  0
 18 39  1  0  0  0  0
 18 40  1  0  0  0  0
 19 21  2  0  0  0  0
 19 22  1  0  0  0  0
 21 23  1  0  0  0  0
 21 41  1  0  0  0  0
 22 24  2  0  0  0  0
 22 42  1  0  0  0  0
 23 26  2  0  0  0  0
 23 44  1  0  0  0  0
 24 26  1  0  0  0  0
 24 45  1  0  0  0  0
 27 28  2  0  0  0  0
 27 29  1  0  0  0  0
 28 46  1  0  0  0  0
 29 47  1  0  0  0  0
 29 48  1  0  0  0  0
 29 49  1  0  0  0  0
M  END
> <PUBCHEM_COMPOUND_CID>
15945494

> <PUBCHEM_CONFORMER_RMSD>
0.8

> <PUBCHEM_CONFORMER_DIVERSEORDER>
1
33
27
30
37
16
34
36
23
19
8
31
7
42
41
10
40
13
43
21
4
38
26
35
29
11
39
44
24
2
25
12
28
18
14
17
9
3
6
32
5
15
22
20

> <PUBCHEM_MMFF94_PARTIAL_CHARGES>
36
1 -0.18
10 -0.17
11 0.14
12 0.37
13 -0.03
14 0.06
15 0.23
16 -0.15
17 0.14
18 0.06
19 0.05
2 -0.08
20 0.57
21 -0.15
22 -0.15
23 -0.15
24 -0.15
25 0.44
26 0.18
27 0.05
28 -0.11
29 0.18
3 -0.57
34 0.15
4 0.6
41 0.15
42 0.15
43 0.37
44 0.15
45 0.15
46 0.15
5 -0.58
6 -0.71
7 -0.49
8 -0.57
9 -0.12

> <PUBCHEM_EFFECTIVE_ROTOR_COUNT>
6

> <PUBCHEM_PHARMACOPHORE_FEATURES>
8
1 3 acceptor
1 5 acceptor
1 6 acceptor
1 7 donor
5 2 8 25 27 28 rings
5 4 6 13 15 16 rings
6 19 21 22 23 24 26 rings
6 4 5 9 10 12 13 rings

> <PUBCHEM_HEAVY_ATOM_COUNT>
29

> <PUBCHEM_ATOM_DEF_STEREO_COUNT>
0

> <PUBCHEM_ATOM_UDEF_STEREO_COUNT>
0

> <PUBCHEM_BOND_DEF_STEREO_COUNT>
0

> <PUBCHEM_BOND_UDEF_STEREO_COUNT>
0

> <PUBCHEM_ISOTOPIC_ATOM_COUNT>
0

> <PUBCHEM_COMPONENT_COUNT>
1

> <PUBCHEM_CACTVS_TAUTO_COUNT>
3

> <PUBCHEM_CONFORMER_ID>
00F34F1600000001

> <PUBCHEM_MMFF94_ENERGY>
61.4276

> <PUBCHEM_FEATURE_SELFOVERLAP>
40.724

> <PUBCHEM_SHAPE_FINGERPRINT>
10 15 17821445751126827689
10076449 9 12607404391035895979
10162869 55 18040713702235085039
10165383 225 18408601470577481440
106641 1 17967817158833122099
10670039 82 15195290790265244043
10693767 8 9871470885256608684
10904742 90 18413670206086098103
11135609 127 16629952339969197968
11135609 99 12035743023598105697
11273773 42 18272649052694836647
11315181 36 18343301458562421953
11386260 185 13973671850204131978
11408170 108 11314295119417925840
12539765 74 18130795550878105190
12838862 33 18334283275979461925
13248334 5 18124318203056766935
13540713 4 17097758076634765494
13540713 5 17243313891346992398
14344974 52 16916777539205381593
14394314 77 18411140212978069361
14849402 71 18411701006594047089
15183329 4 15841557366393502386
15461852 350 17203604913768041181
155225 1 18342738524412692217
15690457 1 10881398742745358712
15706992 2 18341624727686487168
1577012 14 18342168973105028030
15773216 30 14692024513558069709
15840311 113 18409732863373352444
16087824 20 18409449194312373036
16989713 51 16199291257625143903
1818759 1 8214141875993244657
18603816 31 13118293615934143505
20505436 4 18343577439074357263
20771845 65 7853565820936062431
21344244 246 10591780774414563660
21403212 168 18334011692011487302
21585482 111 18339362934181054873
21591340 7 18411416237366247183
22224240 67 18186802474405749971
23559900 14 18263636442277213648
23576562 1 14620211105495608113
24771293 8 18335421287477587653
306946 40 17240752962380197853
3092352 35 18060415811346896719
3178227 256 17458064872150989404
3711267 37 18411991255672374785
395649 100 18338793529434905527
3991529 128 17531259383077524804
4073 2 18342742914539630183
4173938 188 18335989753398502403
4339292 15 10447939352312565716
4340502 62 16298104272375174258
4403749 210 18187650245543083179
4516262 110 18412257307921828391
484989 97 12966831490702201469
5104073 3 17969491792810741738
5219985 9 10809345542295665319
5385378 56 18187644670343119410
54039377 194 9511464420060400152
5758199 1 18409449180741129771
5911458 16 18202286892206652681
59682541 35 17821451270265441225
9953998 17 17530686528697072211

> <PUBCHEM_SHAPE_MULTIPOLES>
571.75
30.68
2.42
1.14
16.98
1.17
0.03
-25.48
3.6
-1.64
0.73
2
-0.22
-1.43

> <PUBCHEM_SHAPE_SELFOVERLAP>
1220.184

> <PUBCHEM_SHAPE_VOLUME>
321.6

> <PUBCHEM_COORDINATE_TYPE>
2
5
10

$$$$
