16014341
  -OEChem-01171810033D

 47 49  0     0  0  0  0  0  0999 V2000
    2.0159    4.6222   -0.3475 Cl  0  0  0  0  0  0  0  0  0  0  0  0
   -2.6906    0.8785    0.8125 S   0  0  0  0  0  0  0  0  0  0  0  0
    4.1017   -1.2962    1.1927 S   0  0  0  0  0  0  0  0  0  0  0  0
   -2.2195   -0.1225    1.7546 O   0  0  0  0  0  0  0  0  0  0  0  0
   -3.8379    1.7078    1.1409 O   0  0  0  0  0  0  0  0  0  0  0  0
    2.4557    1.8506   -1.7933 O   0  0  0  0  0  0  0  0  0  0  0  0
   -0.2281    1.3379    0.0428 N   0  0  0  0  0  0  0  0  0  0  0  0
   -1.5589    3.2392    0.6919 N   0  0  0  0  0  0  0  0  0  0  0  0
    2.5534    0.5737    0.1783 N   0  0  0  0  0  0  0  0  0  0  0  0
    5.4884   -1.1109   -0.9539 N   0  0  0  0  0  0  0  0  0  0  0  0
    4.4610   -0.1941   -1.0927 N   0  0  0  0  0  0  0  0  0  0  0  0
   -3.0143    0.0957   -0.7345 C   0  0  0  0  0  0  0  0  0  0  0  0
   -4.1629   -0.8366   -0.5455 C   0  0  0  0  0  0  0  0  0  0  0  0
    6.3636   -2.7922    0.6465 C   0  0  0  0  0  0  0  0  0  0  0  0
   -1.3250    1.9501    0.4743 C   0  0  0  0  0  0  0  0  0  0  0  0
   -5.4679   -0.3859   -0.7453 C   0  0  0  0  0  0  0  0  0  0  0  0
   -3.9322   -2.1598   -0.1688 C   0  0  0  0  0  0  0  0  0  0  0  0
    5.4184   -1.7528    0.1927 C   0  0  0  0  0  0  0  0  0  0  0  0
   -6.3111   -2.5810   -0.1918 C   0  0  0  0  0  0  0  0  0  0  0  0
    7.8096   -2.2682    0.8163 C   0  0  0  0  0  0  0  0  0  0  0  0
    6.3775   -4.0428   -0.2648 C   0  0  0  0  0  0  0  0  0  0  0  0
   -6.5419   -1.2581   -0.5683 C   0  0  0  0  0  0  0  0  0  0  0  0
   -5.0062   -3.0320    0.0080 C   0  0  0  0  0  0  0  0  0  0  0  0
    0.7930    2.1842   -0.2053 C   0  0  0  0  0  0  0  0  0  0  0  0
    3.6912   -0.2070   -0.0487 C   0  0  0  0  0  0  0  0  0  0  0  0
   -7.4594   -3.5138   -0.0036 C   0  0  0  0  0  0  0  0  0  0  0  0
    2.0076    1.5360   -0.6800 C   0  0  0  0  0  0  0  0  0  0  0  0
    0.7158    3.5509   -0.0313 C   0  0  0  0  0  0  0  0  0  0  0  0
   -0.4968    4.0270    0.4239 C   0  0  0  0  0  0  0  0  0  0  0  0
   -3.2413    0.8674   -1.4770 H   0  0  0  0  0  0  0  0  0  0  0  0
   -2.1167   -0.4413   -1.0565 H   0  0  0  0  0  0  0  0  0  0  0  0
    6.0580   -3.1507    1.6396 H   0  0  0  0  0  0  0  0  0  0  0  0
   -5.6616    0.6420   -1.0403 H   0  0  0  0  0  0  0  0  0  0  0  0
   -2.9205   -2.5240   -0.0108 H   0  0  0  0  0  0  0  0  0  0  0  0
    8.2209   -1.9300   -0.1413 H   0  0  0  0  0  0  0  0  0  0  0  0
    8.4638   -3.0514    1.2135 H   0  0  0  0  0  0  0  0  0  0  0  0
    7.8337   -1.4200    1.5091 H   0  0  0  0  0  0  0  0  0  0  0  0
    5.3723   -4.4700   -0.3490 H   0  0  0  0  0  0  0  0  0  0  0  0
    7.0421   -4.8128    0.1405 H   0  0  0  0  0  0  0  0  0  0  0  0
    6.7197   -3.7904   -1.2745 H   0  0  0  0  0  0  0  0  0  0  0  0
   -7.5538   -0.8955   -0.7290 H   0  0  0  0  0  0  0  0  0  0  0  0
   -4.8136   -4.0611    0.2996 H   0  0  0  0  0  0  0  0  0  0  0  0
   -7.2330   -4.2715    0.7543 H   0  0  0  0  0  0  0  0  0  0  0  0
   -8.3522   -2.9780    0.3364 H   0  0  0  0  0  0  0  0  0  0  0  0
   -7.6913   -4.0191   -0.9464 H   0  0  0  0  0  0  0  0  0  0  0  0
    2.0904    0.4000    1.0671 H   0  0  0  0  0  0  0  0  0  0  0  0
   -0.6654    5.0859    0.5949 H   0  0  0  0  0  0  0  0  0  0  0  0
  1 28  1  0  0  0  0
  2  4  2  0  0  0  0
  2  5  2  0  0  0  0
  2 12  1  0  0  0  0
  2 15  1  0  0  0  0
  3 18  1  0  0  0  0
  3 25  1  0  0  0  0
  6 27  2  0  0  0  0
  7 15  1  0  0  0  0
  7 24  2  0  0  0  0
  8 15  2  0  0  0  0
  8 29  1  0  0  0  0
  9 25  1  0  0  0  0
  9 27  1  0  0  0  0
  9 46  1  0  0  0  0
 10 11  1  0  0  0  0
 10 18  2  0  0  0  0
 11 25  2  0  0  0  0
 12 13  1  0  0  0  0
 12 30  1  0  0  0  0
 12 31  1  0  0  0  0
 13 16  2  0  0  0  0
 13 17  1  0  0  0  0
 14 18  1  0  0  0  0
 14 20  1  0  0  0  0
 14 21  1  0  0  0  0
 14 32  1  0  0  0  0
 16 22  1  0  0  0  0
 16 33  1  0  0  0  0
 17 23  2  0  0  0  0
 17 34  1  0  0  0  0
 19 22  2  0  0  0  0
 19 23  1  0  0  0  0
 19 26  1  0  0  0  0
 20 35  1  0  0  0  0
 20 36  1  0  0  0  0
 20 37  1  0  0  0  0
 21 38  1  0  0  0  0
 21 39  1  0  0  0  0
 21 40  1  0  0  0  0
 22 41  1  0  0  0  0
 23 42  1  0  0  0  0
 24 27  1  0  0  0  0
 24 28  1  0  0  0  0
 26 43  1  0  0  0  0
 26 44  1  0  0  0  0
 26 45  1  0  0  0  0
 28 29  2  0  0  0  0
 29 47  1  0  0  0  0
M  END
> <PUBCHEM_COMPOUND_CID>
16014341

> <PUBCHEM_CONFORMER_RMSD>
0.8

> <PUBCHEM_CONFORMER_DIVERSEORDER>
1
123
92
39
68
152
104
183
107
142
196
11
191
55
208
88
110
176
153
193
118
7
47
67
147
173
95
8
199
178
27
15
127
126
203
98
194
65
150
121
166
204
187
43
9
131
93
144
10
86
71
174
94
217
36
79
50
165
41
186
96
54
180
53
84
26
52
210
157
156
200
130
211
192
114
81
89
189
90
105
48
163
214
215
181
179
167
139
85
117
42
20
80
135
195
46
129
23
64
83
29
28
198
111
40
197
73
171
87
216
185
160
205
137
213
158
99
168
206
63
5
58
209
175
103
35
155
6
116
162
124
49
138
190
115
75
44
136
45
149
141
212
148
19
101
51
188
164
57
18
66
182
125
76
100
33
207
154
172
201
113
91
143
34
30
56
13
151
61
133
21
134
169
161
177
184
146
59
119
82
170
77
128
69
37
122
32
132
159
4
202
140
72
106
102
70
78
14
22
97
120
74
108
3
31
24
25
112
12
38
60
2
145
62
16
109
17

> <PUBCHEM_MMFF94_PARTIAL_CHARGES>
33
1 -0.18
10 -0.34
11 -0.34
12 0.25
13 -0.14
14 0.18
15 0.61
16 -0.15
17 -0.15
18 0.2
19 -0.14
2 1.2
22 -0.15
23 -0.15
24 0.4
25 0.44
26 0.14
27 0.54
28 0.18
29 0.16
3 -0.08
33 0.15
34 0.15
4 -0.65
41 0.15
42 0.15
46 0.37
47 0.15
5 -0.65
6 -0.57
7 -0.62
8 -0.62
9 -0.49

> <PUBCHEM_EFFECTIVE_ROTOR_COUNT>
7

> <PUBCHEM_PHARMACOPHORE_FEATURES>
11
1 10 acceptor
1 4 acceptor
1 5 acceptor
1 6 acceptor
1 7 acceptor
1 9 donor
3 14 20 21 hydrophobe
3 7 8 15 cation
5 3 10 11 18 25 rings
6 13 16 17 19 22 23 rings
6 7 8 15 24 28 29 rings

> <PUBCHEM_HEAVY_ATOM_COUNT>
29

> <PUBCHEM_ATOM_DEF_STEREO_COUNT>
0

> <PUBCHEM_ATOM_UDEF_STEREO_COUNT>
0

> <PUBCHEM_BOND_DEF_STEREO_COUNT>
0

> <PUBCHEM_BOND_UDEF_STEREO_COUNT>
0

> <PUBCHEM_ISOTOPIC_ATOM_COUNT>
0

> <PUBCHEM_COMPONENT_COUNT>
1

> <PUBCHEM_CACTVS_TAUTO_COUNT>
3

> <PUBCHEM_CONFORMER_ID>
00F45C0500000001

> <PUBCHEM_MMFF94_ENERGY>
58.4782

> <PUBCHEM_FEATURE_SELFOVERLAP>
55.841

> <PUBCHEM_SHAPE_FINGERPRINT>
10050765 1 18411699902571700137
10100884 174 18261106345410365602
10258705 36 17827368988630758763
10319688 140 18193556889988130020
10622 236 18409729551647215373
10939801 23 18272085059249264718
11135609 149 18196348520394799149
11204353 107 17833279988383139710
11273773 46 18408598150911179495
11409948 35 18266739272755605071
11410812 94 16588574302737379094
11497681 19 18337113368245372126
11607047 403 18196923586878288808
117089 54 18411707560392796502
11719270 70 17978506769529471600
11963148 33 17838330044946409487
12107183 9 18342752801891475225
12166972 35 18113338630338367919
12633046 712 17679046987002566993
13533116 47 18196373843574378913
13540713 5 18340225045237989537
1361 4 17977947114364410479
13782708 43 17916859102991642466
13955234 65 17839460334573942961
14068700 675 18408039589796843968
14344974 204 18195807372033715910
14429380 30 18409450276068696570
14844126 61 18120099381578141616
14866123 147 18341055104293099233
15019793 15 17690562305261694783
15927050 60 17692813009514795782
16992752 21 18411426081900801380
17492 89 18411696629821756257
17686467 74 18342446042489330648
18393751 57 17624669634566572408
19246450 95 18054527815887063705
19303781 99 18339346561158853559
19304671 126 14635155675998360598
19315092 285 17989205962728303696
19319366 153 17764310934749082180
1979834 28 17203061767249893839
20028762 73 18411418376466604718
20775438 99 17832127691148555059
20843269 155 18410292472105922070
208703 8 18410005529150845794
21130935 74 18122628529812346451
21133410 171 15548206753480499815
22956985 138 18412256273167876904
23559900 14 18268420399609705321
23569914 152 11892432567392956210
2748736 6 9079118830232313975
2838139 119 8357957980332838858
3004659 81 18260263092271905879
32027 91 18340197583701349701
3504750 166 17757264887282854202
3627633 1 18265892459000684876
397830 11 18127676160103670306
4017518 198 16894267994097067508
406291 66 18412542128430883087
484985 159 18192142690364510085
5104073 3 17774452693413716305
559249 180 18341048524234032621
5718773 13 18411133623859673750
58260988 647 18262523723266599387
5874358 3 16915642887316234191
6034566 193 9367348103004198889
6058803 2 18268455531952719513
6695519 79 16898232317731258985
6697151 62 18129644410007801621
70251023 43 18336265733883016961
7970288 3 18410853244110329022
96874 4 18334571318098785930

> <PUBCHEM_SHAPE_MULTIPOLES>
563.86
19.71
6.03
1.1
3.32
3.25
0.04
-33.08
-0.48
2.39
0.16
0.37
0.17
-1.71

> <PUBCHEM_SHAPE_SELFOVERLAP>
1170.609

> <PUBCHEM_SHAPE_VOLUME>
325.6

> <PUBCHEM_COORDINATE_TYPE>
2
5
10

$$$$
