2245813
  -OEChem-01171809403D

 40 41  0     0  0  0  0  0  0999 V2000
    2.4303   -2.6649    0.1053 S   0  0  0  0  0  0  0  0  0  0  0  0
    0.7485    2.0547    0.7919 S   0  0  0  0  0  0  0  0  0  0  0  0
    7.3628    0.8501    0.0169 O   0  0  0  0  0  0  0  0  0  0  0  0
    5.6949    0.2164   -1.4446 O   0  0  0  0  0  0  0  0  0  0  0  0
   -1.8109   -1.7290   -0.1915 O   0  0  0  0  0  0  0  0  0  0  0  0
   -8.4734   -0.0367   -0.9623 O   0  5  0  0  0  0  0  0  0  0  0  0
   -8.1664    1.6138    0.4521 O   0  0  0  0  0  0  0  0  0  0  0  0
    3.0618   -0.2217    0.6662 N   0  0  0  0  0  0  0  0  0  0  0  0
    0.6968   -0.6770    0.3050 N   0  0  0  0  0  0  0  0  0  0  0  0
   -1.3298    0.5089    0.3103 N   0  0  0  0  0  0  0  0  0  0  0  0
   -7.7266    0.6575   -0.2309 N   0  3  0  0  0  0  0  0  0  0  0  0
    5.5010   -0.2705    0.9341 C   0  0  0  0  0  0  0  0  0  0  0  0
    4.2279   -0.9619    0.6511 C   0  0  0  0  0  0  0  0  0  0  0  0
   -3.6198   -0.2514   -0.0620 C   0  0  0  0  0  0  0  0  0  0  0  0
    2.0509   -1.0160    0.3920 C   0  0  0  0  0  0  0  0  0  0  0  0
    4.0864   -2.3039    0.3663 C   0  0  0  0  0  0  0  0  0  0  0  0
    6.1663    0.2792   -0.3173 C   0  0  0  0  0  0  0  0  0  0  0  0
   -4.1312    0.8074    0.6885 C   0  0  0  0  0  0  0  0  0  0  0  0
   -4.4692   -1.0088   -0.8687 C   0  0  0  0  0  0  0  0  0  0  0  0
   -2.2008   -0.5646   -0.0035 C   0  0  0  0  0  0  0  0  0  0  0  0
   -6.3412    0.3514   -0.1743 C   0  0  0  0  0  0  0  0  0  0  0  0
   -5.4919    1.1087    0.6323 C   0  0  0  0  0  0  0  0  0  0  0  0
   -5.8299   -0.7074   -0.9249 C   0  0  0  0  0  0  0  0  0  0  0  0
    0.0695    0.5504    0.4785 C   0  0  0  0  0  0  0  0  0  0  0  0
    8.1021    1.4139   -1.0712 C   0  0  0  0  0  0  0  0  0  0  0  0
    9.3918    2.0013   -0.5392 C   0  0  0  0  0  0  0  0  0  0  0  0
    6.2016   -0.9619    1.4168 H   0  0  0  0  0  0  0  0  0  0  0  0
    5.3217    0.5680    1.6168 H   0  0  0  0  0  0  0  0  0  0  0  0
    4.8488   -3.0671    0.2998 H   0  0  0  0  0  0  0  0  0  0  0  0
   -3.5153    1.4004    1.3581 H   0  0  0  0  0  0  0  0  0  0  0  0
   -4.0888   -1.8346   -1.4644 H   0  0  0  0  0  0  0  0  0  0  0  0
    0.1039   -1.4731    0.0909 H   0  0  0  0  0  0  0  0  0  0  0  0
   -5.8571    1.9353    1.2366 H   0  0  0  0  0  0  0  0  0  0  0  0
   -6.4615   -1.3182   -1.5649 H   0  0  0  0  0  0  0  0  0  0  0  0
   -1.7521    1.4287    0.3985 H   0  0  0  0  0  0  0  0  0  0  0  0
    7.5066    2.2000   -1.5488 H   0  0  0  0  0  0  0  0  0  0  0  0
    8.3266    0.6313   -1.8045 H   0  0  0  0  0  0  0  0  0  0  0  0
    9.9832    2.4421   -1.3465 H   0  0  0  0  0  0  0  0  0  0  0  0
    9.9903    1.2305   -0.0425 H   0  0  0  0  0  0  0  0  0  0  0  0
    9.1838    2.7733    0.2091 H   0  0  0  0  0  0  0  0  0  0  0  0
  1 15  1  0  0  0  0
  1 16  1  0  0  0  0
  2 24  2  0  0  0  0
  3 17  1  0  0  0  0
  3 25  1  0  0  0  0
  4 17  2  0  0  0  0
  5 20  2  0  0  0  0
  6 11  1  0  0  0  0
  7 11  2  0  0  0  0
  8 13  1  0  0  0  0
  8 15  2  0  0  0  0
  9 15  1  0  0  0  0
  9 24  1  0  0  0  0
  9 32  1  0  0  0  0
 10 20  1  0  0  0  0
 10 24  1  0  0  0  0
 10 35  1  0  0  0  0
 11 21  1  0  0  0  0
 12 13  1  0  0  0  0
 12 17  1  0  0  0  0
 12 27  1  0  0  0  0
 12 28  1  0  0  0  0
 13 16  2  0  0  0  0
 14 18  2  0  0  0  0
 14 19  1  0  0  0  0
 14 20  1  0  0  0  0
 16 29  1  0  0  0  0
 18 22  1  0  0  0  0
 18 30  1  0  0  0  0
 19 23  2  0  0  0  0
 19 31  1  0  0  0  0
 21 22  2  0  0  0  0
 21 23  1  0  0  0  0
 22 33  1  0  0  0  0
 23 34  1  0  0  0  0
 25 26  1  0  0  0  0
 25 36  1  0  0  0  0
 25 37  1  0  0  0  0
 26 38  1  0  0  0  0
 26 39  1  0  0  0  0
 26 40  1  0  0  0  0
M  CHG  2   6  -1  11   1
M  END
> <PUBCHEM_COMPOUND_CID>
2245813

> <PUBCHEM_CONFORMER_RMSD>
1

> <PUBCHEM_CONFORMER_DIVERSEORDER>
1
39
74
73
51
53
45
42
16
59
8
71
17
48
60
67
38
69
20
24
30
26
55
19
61
57
35
7
63
62
31
47
64
43
40
5
25
49
21
58
29
12
66
72
75
22
37
10
41
11
9
32
3
36
2
54
44
68
28
65
14
52
18
46
70
34
27
13
56
6
50
15
23
33
4

> <PUBCHEM_MMFF94_PARTIAL_CHARGES>
32
1 -0.08
10 -0.49
11 0.91
12 0.24
13 0.05
14 0.09
15 0.44
16 -0.11
17 0.66
18 -0.15
19 -0.15
2 -0.38
20 0.54
21 0.13
22 -0.15
23 -0.15
24 0.5
25 0.28
29 0.15
3 -0.43
30 0.15
31 0.15
32 0.37
33 0.15
34 0.15
35 0.37
4 -0.57
5 -0.57
6 -0.52
7 -0.52
8 -0.57
9 -0.49

> <PUBCHEM_EFFECTIVE_ROTOR_COUNT>
10

> <PUBCHEM_PHARMACOPHORE_FEATURES>
11
1 10 donor
1 2 acceptor
1 4 acceptor
1 5 acceptor
1 6 acceptor
1 6 anion
1 7 acceptor
1 9 donor
3 8 9 15 cation
5 1 8 13 15 16 rings
6 14 18 19 21 22 23 rings

> <PUBCHEM_HEAVY_ATOM_COUNT>
26

> <PUBCHEM_ATOM_DEF_STEREO_COUNT>
0

> <PUBCHEM_ATOM_UDEF_STEREO_COUNT>
0

> <PUBCHEM_BOND_DEF_STEREO_COUNT>
0

> <PUBCHEM_BOND_UDEF_STEREO_COUNT>
0

> <PUBCHEM_ISOTOPIC_ATOM_COUNT>
0

> <PUBCHEM_COMPONENT_COUNT>
1

> <PUBCHEM_CACTVS_TAUTO_COUNT>
8

> <PUBCHEM_CONFORMER_ID>
002244B500000001

> <PUBCHEM_MMFF94_ENERGY>
60.2966

> <PUBCHEM_FEATURE_SELFOVERLAP>
55.944

> <PUBCHEM_SHAPE_FINGERPRINT>
10 15 16877661266728689346
10299344 5 18343580716028161635
10883706 142 15647051577390676840
10906281 52 18340781367987567394
11135609 187 18335138666077099971
11315181 36 18408886240226592475
11456790 92 11386368110670283519
11638347 137 14562522973904102928
11646440 116 12685091471522915606
12236239 1 18130218273683689643
12516196 113 18130782343731908457
12838862 33 18336816585831365504
13073987 5 15575264394382805199
14123256 10 18408040715173104172
14251764 18 18343579625770885835
15183329 4 18272651234158447505
15461852 350 16486965207947490021
155225 1 18260267478198821988
15849732 13 17060334137025732765
16120349 18 18114178657575429493
1754911 235 18343022207582705620
1818759 1 10735881686008038564
195137 175 18201725029154179465
20157964 124 17530680997021976330
21049683 271 18410574023938883273
21150785 3 18131633387138116933
21781055 127 16056338184578015611
22224240 67 15936411135184118963
23559900 14 18130774699296659819
246663 6 13326858838028818052
335352 9 18201432581084380637
4017518 198 16271930432451257310
4073 2 18260268555423678651
4325135 7 18407759227269170388
4340502 62 16008746901548365554
445580 126 17967249824156149372
45377200 153 15913035578249802687
5486654 2 18342458158201954842
5758199 1 18335138704805600018
6081469 158 12247679362072619259

> <PUBCHEM_SHAPE_MULTIPOLES>
493.5
27.48
2.12
0.99
3.53
0.59
0.12
-14.75
7.87
2.69
-0.16
0.45
-0.11
-2.08

> <PUBCHEM_SHAPE_SELFOVERLAP>
1012.076

> <PUBCHEM_SHAPE_VOLUME>
287.2

> <PUBCHEM_COORDINATE_TYPE>
2
5
10

$$$$
