4884388
  -OEChem-01171809253D

 39 42  0     1  0  0  0  0  0999 V2000
   -5.2603   -2.8658   -1.2239 Cl  0  0  0  0  0  0  0  0  0  0  0  0
    1.8004   -0.6323    1.3068 S   0  0  0  0  0  0  0  0  0  0  0  0
    4.8200   -1.4956   -0.9071 O   0  0  0  0  0  0  0  0  0  0  0  0
    4.7728   -1.5390    1.3827 O   0  0  0  0  0  0  0  0  0  0  0  0
   -0.8101    0.0984    1.0603 N   0  0  0  0  0  0  0  0  0  0  0  0
   -0.3460   -1.9257    0.2682 N   0  0  0  0  0  0  0  0  0  0  0  0
    2.7033   -1.6111    0.0918 C   0  0  1  0  0  0  0  0  0  0  0  0
    2.5650   -1.0658   -1.3125 C   0  0  0  0  0  0  0  0  0  0  0  0
    0.1469   -0.8548    0.8491 C   0  0  0  0  0  0  0  0  0  0  0  0
   -1.9997   -0.3899    0.5840 C   0  0  0  0  0  0  0  0  0  0  0  0
    3.8453   -1.5392   -1.9556 C   0  0  0  0  0  0  0  0  0  0  0  0
   -0.6313    1.3967    1.6750 C   0  0  0  0  0  0  0  0  0  0  0  0
   -1.6837   -1.6543    0.0948 C   0  0  0  0  0  0  0  0  0  0  0  0
    4.1887   -1.5303    0.3102 C   0  0  0  0  0  0  0  0  0  0  0  0
   -0.2890    2.4461    0.6522 C   0  0  0  0  0  0  0  0  0  0  0  0
   -3.2858    0.1496    0.5403 C   0  0  0  0  0  0  0  0  0  0  0  0
   -2.6986   -2.4414   -0.4752 C   0  0  0  0  0  0  0  0  0  0  0  0
   -4.2835   -0.6475   -0.0302 C   0  0  0  0  0  0  0  0  0  0  0  0
   -3.9974   -1.9203   -0.5297 C   0  0  0  0  0  0  0  0  0  0  0  0
   -1.3086    3.1575    0.0342 C   0  0  0  0  0  0  0  0  0  0  0  0
    1.0419    2.6893    0.3403 C   0  0  0  0  0  0  0  0  0  0  0  0
   -0.9915    4.1303   -0.9137 C   0  0  0  0  0  0  0  0  0  0  0  0
    1.3589    3.6624   -0.6076 C   0  0  0  0  0  0  0  0  0  0  0  0
    0.3422    4.3828   -1.2345 C   0  0  0  0  0  0  0  0  0  0  0  0
    2.4124   -2.6663    0.1427 H   0  0  0  0  0  0  0  0  0  0  0  0
    2.5485    0.0319   -1.3211 H   0  0  0  0  0  0  0  0  0  0  0  0
    1.6772   -1.4239   -1.8418 H   0  0  0  0  0  0  0  0  0  0  0  0
   -1.5537    1.6589    2.2072 H   0  0  0  0  0  0  0  0  0  0  0  0
    0.1362    1.3312    2.4540 H   0  0  0  0  0  0  0  0  0  0  0  0
    4.1581   -0.8878   -2.7765 H   0  0  0  0  0  0  0  0  0  0  0  0
    3.7731   -2.5687   -2.3219 H   0  0  0  0  0  0  0  0  0  0  0  0
   -3.5236    1.1274    0.9403 H   0  0  0  0  0  0  0  0  0  0  0  0
   -2.4710   -3.4302   -0.8620 H   0  0  0  0  0  0  0  0  0  0  0  0
   -5.2979   -0.2561   -0.0751 H   0  0  0  0  0  0  0  0  0  0  0  0
   -2.3508    2.9879    0.2818 H   0  0  0  0  0  0  0  0  0  0  0  0
    1.8523    2.1713    0.8388 H   0  0  0  0  0  0  0  0  0  0  0  0
   -1.7828    4.6943   -1.3989 H   0  0  0  0  0  0  0  0  0  0  0  0
    2.3977    3.8651   -0.8514 H   0  0  0  0  0  0  0  0  0  0  0  0
    0.5892    5.1422   -1.9705 H   0  0  0  0  0  0  0  0  0  0  0  0
  1 19  1  0  0  0  0
  2  7  1  0  0  0  0
  2  9  1  0  0  0  0
  3 11  1  0  0  0  0
  3 14  1  0  0  0  0
  4 14  2  0  0  0  0
  5  9  1  0  0  0  0
  5 10  1  0  0  0  0
  5 12  1  0  0  0  0
  6  9  2  0  0  0  0
  6 13  1  0  0  0  0
  7  8  1  0  0  0  0
  7 14  1  0  0  0  0
  7 25  1  0  0  0  0
  8 11  1  0  0  0  0
  8 26  1  0  0  0  0
  8 27  1  0  0  0  0
 10 13  2  0  0  0  0
 10 16  1  0  0  0  0
 11 30  1  0  0  0  0
 11 31  1  0  0  0  0
 12 15  1  0  0  0  0
 12 28  1  0  0  0  0
 12 29  1  0  0  0  0
 13 17  1  0  0  0  0
 15 20  2  0  0  0  0
 15 21  1  0  0  0  0
 16 18  2  0  0  0  0
 16 32  1  0  0  0  0
 17 19  2  0  0  0  0
 17 33  1  0  0  0  0
 18 19  1  0  0  0  0
 18 34  1  0  0  0  0
 20 22  1  0  0  0  0
 20 35  1  0  0  0  0
 21 23  2  0  0  0  0
 21 36  1  0  0  0  0
 22 24  2  0  0  0  0
 22 37  1  0  0  0  0
 23 24  1  0  0  0  0
 23 38  1  0  0  0  0
 24 39  1  0  0  0  0
M  END
> <PUBCHEM_COMPOUND_CID>
4884388

> <PUBCHEM_CONFORMER_RMSD>
0.8

> <PUBCHEM_CONFORMER_DIVERSEORDER>
1
22
62
63
10
70
51
59
49
36
7
52
47
65
53
48
27
18
64
60
67
13
33
2
32
45
12
23
68
15
57
46
21
69
44
39
35
66
16
34
4
55
5
56
61
58
24
17
26
9
14
30
38
25
43
31
3
6
41
40
37
8
54
20
42
28
50
19
11
29

> <PUBCHEM_MMFF94_PARTIAL_CHARGES>
31
1 -0.18
10 -0.15
11 0.28
12 0.4
13 0.23
14 0.66
15 -0.14
16 -0.15
17 -0.15
18 -0.15
19 0.18
2 -0.29
20 -0.15
21 -0.15
22 -0.15
23 -0.15
24 -0.15
3 -0.43
32 0.15
33 0.15
34 0.15
35 0.15
36 0.15
37 0.15
38 0.15
39 0.15
4 -0.57
5 0.05
6 -0.57
7 0.29
9 0.24

> <PUBCHEM_EFFECTIVE_ROTOR_COUNT>
4.8

> <PUBCHEM_PHARMACOPHORE_FEATURES>
6
1 4 acceptor
3 5 6 9 cation
5 3 7 8 11 14 rings
5 5 6 9 10 13 rings
6 10 13 16 17 18 19 rings
6 15 20 21 22 23 24 rings

> <PUBCHEM_HEAVY_ATOM_COUNT>
24

> <PUBCHEM_ATOM_DEF_STEREO_COUNT>
0

> <PUBCHEM_ATOM_UDEF_STEREO_COUNT>
1

> <PUBCHEM_BOND_DEF_STEREO_COUNT>
0

> <PUBCHEM_BOND_UDEF_STEREO_COUNT>
0

> <PUBCHEM_ISOTOPIC_ATOM_COUNT>
0

> <PUBCHEM_COMPONENT_COUNT>
1

> <PUBCHEM_CACTVS_TAUTO_COUNT>
2

> <PUBCHEM_CONFORMER_ID>
004A87A400000001

> <PUBCHEM_MMFF94_ENERGY>
47.9233

> <PUBCHEM_FEATURE_SELFOVERLAP>
30.555

> <PUBCHEM_SHAPE_FINGERPRINT>
10165383 225 17047987476349970184
10369192 42 17202465862835057320
10871710 139 18118143397578399804
11045515 52 18409169887486278263
11488393 25 17759250982464624515
11833330 49 18336825299343712488
12156800 1 16373499966688375900
12160290 23 17978812120133376866
12553582 1 18337406971133871922
12617007 42 18341043133470035491
12788726 201 18188782621669244258
13009979 54 18059305348211392411
13149001 5 17970353826115555899
133893 2 18051435129399063065
13681431 1 18267872859281263866
13899415 180 18339342150211096471
14114207 22 17974555099443837540
14508225 48 18411978057231657718
14790565 3 17691692182017882617
14910302 57 17914343372820917382
14955137 171 18195555673721195323
15961568 22 18410292562743509328
17357779 13 18129363943561895485
17686467 74 18342173402313497938
17818456 19 17612860505673202490
1813 80 18342176686966518323
20600515 1 18059022691707497321
21285901 2 18058455309237122183
21304303 282 17398350202030029564
21344244 181 17408807614399065573
21344244 246 17979639253535698358
21421566 26 18269286676647585060
22907989 373 18122064204366363148
23366157 5 18046061833238361099
23419403 2 17702357625195351976
23557571 272 18200876154685148018
23559900 14 18126271172642333923
23598288 3 17900260797310353939
26353 1 18411425015751925213
3298306 158 17617105045457135804
340366 18 18272081756129491359
352729 6 17113814094827016097
4066623 53 18115566237102604149
4280585 95 18410562998725614242
46194498 28 18119231012531927343
469060 322 18192451700344608433
5081480 168 18264191652029564661
5104073 3 8501002317488654111
7164475 11 18263645052969698090
7471813 234 18261114058848693062
81228 2 18269571454507030690
9925002 15 18337405845778723589

> <PUBCHEM_SHAPE_MULTIPOLES>
477.93
8.33
5.43
1.47
1.8
7.87
0.15
-11.09
2.56
-1.1
2.22
-0.87
-0.14
-0.83

> <PUBCHEM_SHAPE_SELFOVERLAP>
1029.772

> <PUBCHEM_SHAPE_VOLUME>
267

> <PUBCHEM_COORDINATE_TYPE>
2
5
10

$$$$
