3276705
  -OEChem-01171809503D

 55 57  0     0  0  0  0  0  0999 V2000
    1.6945   -2.3848    2.1123 Cl  0  0  0  0  0  0  0  0  0  0  0  0
    3.1374    1.3296    2.2807 Cl  0  0  0  0  0  0  0  0  0  0  0  0
   -4.5473    0.4686   -1.0250 S   0  0  0  0  0  0  0  0  0  0  0  0
   -5.1049    1.6348   -1.6846 O   0  0  0  0  0  0  0  0  0  0  0  0
   -4.6874   -0.8366   -1.6440 O   0  0  0  0  0  0  0  0  0  0  0  0
   -1.1378   -3.0176   -0.6294 O   0  0  0  0  0  0  0  0  0  0  0  0
    1.3833    3.8385   -0.2825 O   0  0  0  0  0  0  0  0  0  0  0  0
   -5.1216    0.3986    0.5995 N   0  0  0  0  0  0  0  0  0  0  0  0
    0.3013   -1.1685   -0.4431 N   0  0  0  0  0  0  0  0  0  0  0  0
    1.2793    1.4905   -0.3082 N   0  0  0  0  0  0  0  0  0  0  0  0
    2.9890   -4.2969    0.9652 N   0  0  0  0  0  0  0  0  0  0  0  0
    5.3581    2.0236    1.1694 N   0  0  0  0  0  0  0  0  0  0  0  0
   -2.8144    0.7645   -0.8099 C   0  0  0  0  0  0  0  0  0  0  0  0
   -4.5540   -0.6443    1.4914 C   0  0  0  0  0  0  0  0  0  0  0  0
   -5.3377    1.6827    1.3136 C   0  0  0  0  0  0  0  0  0  0  0  0
   -1.9305   -0.3096   -0.7078 C   0  0  0  0  0  0  0  0  0  0  0  0
   -0.5655   -0.0761   -0.5410 C   0  0  0  0  0  0  0  0  0  0  0  0
   -2.3334    2.0722   -0.7451 C   0  0  0  0  0  0  0  0  0  0  0  0
   -0.0846    1.2317   -0.4762 C   0  0  0  0  0  0  0  0  0  0  0  0
   -5.5778   -1.0350    2.5379 C   0  0  0  0  0  0  0  0  0  0  0  0
   -6.7487    2.1756    1.0643 C   0  0  0  0  0  0  0  0  0  0  0  0
   -0.9684    2.3059   -0.5782 C   0  0  0  0  0  0  0  0  0  0  0  0
   -0.0214   -2.5293   -0.4910 C   0  0  0  0  0  0  0  0  0  0  0  0
    1.9141    2.7346   -0.2238 C   0  0  0  0  0  0  0  0  0  0  0  0
    1.1261   -3.4602   -0.3288 C   0  0  0  0  0  0  0  0  0  0  0  0
    3.3920    2.6843   -0.0729 C   0  0  0  0  0  0  0  0  0  0  0  0
    1.4098   -4.3715   -1.3402 C   0  0  0  0  0  0  0  0  0  0  0  0
    4.1947    3.2653   -1.0484 C   0  0  0  0  0  0  0  0  0  0  0  0
    1.9386   -3.4633    0.7935 C   0  0  0  0  0  0  0  0  0  0  0  0
    4.0171    2.0813    1.0067 C   0  0  0  0  0  0  0  0  0  0  0  0
    2.4822   -5.2454   -1.2002 C   0  0  0  0  0  0  0  0  0  0  0  0
    5.5783    3.2263   -0.9162 C   0  0  0  0  0  0  0  0  0  0  0  0
    3.2341   -5.1686   -0.0388 C   0  0  0  0  0  0  0  0  0  0  0  0
    6.1057    2.5990    0.2011 C   0  0  0  0  0  0  0  0  0  0  0  0
   -4.3084   -1.5377    0.9080 H   0  0  0  0  0  0  0  0  0  0  0  0
   -3.6353   -0.2848    1.9671 H   0  0  0  0  0  0  0  0  0  0  0  0
   -5.1588    1.6012    2.3892 H   0  0  0  0  0  0  0  0  0  0  0  0
   -4.6231    2.4339    0.9635 H   0  0  0  0  0  0  0  0  0  0  0  0
   -2.3642   -1.2955   -0.7599 H   0  0  0  0  0  0  0  0  0  0  0  0
   -3.0039    2.9232   -0.8233 H   0  0  0  0  0  0  0  0  0  0  0  0
   -5.7871   -0.2343    3.2522 H   0  0  0  0  0  0  0  0  0  0  0  0
   -6.5262   -1.3231    2.0715 H   0  0  0  0  0  0  0  0  0  0  0  0
   -5.2124   -1.8919    3.1136 H   0  0  0  0  0  0  0  0  0  0  0  0
   -6.9443    2.3454    0.0019 H   0  0  0  0  0  0  0  0  0  0  0  0
   -7.4841    1.4484    1.4246 H   0  0  0  0  0  0  0  0  0  0  0  0
   -6.9189    3.1193    1.5918 H   0  0  0  0  0  0  0  0  0  0  0  0
   -0.6836    3.3468   -0.5385 H   0  0  0  0  0  0  0  0  0  0  0  0
    1.2859   -0.9575   -0.3225 H   0  0  0  0  0  0  0  0  0  0  0  0
    1.8905    0.6837   -0.2460 H   0  0  0  0  0  0  0  0  0  0  0  0
    0.8051   -4.4091   -2.2424 H   0  0  0  0  0  0  0  0  0  0  0  0
    3.7552    3.7498   -1.9163 H   0  0  0  0  0  0  0  0  0  0  0  0
    2.7224   -5.9635   -1.9757 H   0  0  0  0  0  0  0  0  0  0  0  0
    6.2237    3.6722   -1.6644 H   0  0  0  0  0  0  0  0  0  0  0  0
    4.0811   -5.8279    0.1189 H   0  0  0  0  0  0  0  0  0  0  0  0
    7.1787    2.5413    0.3509 H   0  0  0  0  0  0  0  0  0  0  0  0
  1 29  1  0  0  0  0
  2 30  1  0  0  0  0
  3  4  2  0  0  0  0
  3  5  2  0  0  0  0
  3  8  1  0  0  0  0
  3 13  1  0  0  0  0
  6 23  2  0  0  0  0
  7 24  2  0  0  0  0
  8 14  1  0  0  0  0
  8 15  1  0  0  0  0
  9 17  1  0  0  0  0
  9 23  1  0  0  0  0
  9 48  1  0  0  0  0
 10 19  1  0  0  0  0
 10 24  1  0  0  0  0
 10 49  1  0  0  0  0
 11 29  1  0  0  0  0
 11 33  2  0  0  0  0
 12 30  1  0  0  0  0
 12 34  2  0  0  0  0
 13 16  2  0  0  0  0
 13 18  1  0  0  0  0
 14 20  1  0  0  0  0
 14 35  1  0  0  0  0
 14 36  1  0  0  0  0
 15 21  1  0  0  0  0
 15 37  1  0  0  0  0
 15 38  1  0  0  0  0
 16 17  1  0  0  0  0
 16 39  1  0  0  0  0
 17 19  2  0  0  0  0
 18 22  2  0  0  0  0
 18 40  1  0  0  0  0
 19 22  1  0  0  0  0
 20 41  1  0  0  0  0
 20 42  1  0  0  0  0
 20 43  1  0  0  0  0
 21 44  1  0  0  0  0
 21 45  1  0  0  0  0
 21 46  1  0  0  0  0
 22 47  1  0  0  0  0
 23 25  1  0  0  0  0
 24 26  1  0  0  0  0
 25 27  1  0  0  0  0
 25 29  2  0  0  0  0
 26 28  1  0  0  0  0
 26 30  2  0  0  0  0
 27 31  2  0  0  0  0
 27 50  1  0  0  0  0
 28 32  2  0  0  0  0
 28 51  1  0  0  0  0
 31 33  1  0  0  0  0
 31 52  1  0  0  0  0
 32 34  1  0  0  0  0
 32 53  1  0  0  0  0
 33 54  1  0  0  0  0
 34 55  1  0  0  0  0
M  END
> <PUBCHEM_COMPOUND_CID>
3276705

> <PUBCHEM_CONFORMER_RMSD>
1

> <PUBCHEM_CONFORMER_DIVERSEORDER>
1
35
13
26
10
8
19
36
33
12
31
39
37
34
24
14
38
28
7
30
27
17
22
25
40
23
9
32
21
20
16
11
15
6
4
29
3
18
5
2

> <PUBCHEM_MMFF94_PARTIAL_CHARGES>
43
1 -0.18
10 -0.55
11 -0.62
12 -0.62
13 -0.01
14 0.36
15 0.36
16 -0.15
17 0.12
18 -0.15
19 0.12
2 -0.18
22 -0.15
23 0.54
24 0.54
25 0.09
26 0.09
27 -0.15
28 -0.15
29 0.49
3 1.45
30 0.49
31 -0.15
32 -0.15
33 0.16
34 0.16
39 0.15
4 -0.65
40 0.15
47 0.15
48 0.37
49 0.37
5 -0.65
50 0.15
51 0.15
52 0.15
53 0.15
54 0.15
55 0.15
6 -0.57
7 -0.57
8 -0.85
9 -0.55

> <PUBCHEM_EFFECTIVE_ROTOR_COUNT>
10

> <PUBCHEM_PHARMACOPHORE_FEATURES>
11
1 10 donor
1 11 acceptor
1 12 acceptor
1 4 acceptor
1 5 acceptor
1 6 acceptor
1 7 acceptor
1 9 donor
6 11 25 27 29 31 33 rings
6 12 26 28 30 32 34 rings
6 13 16 17 18 19 22 rings

> <PUBCHEM_HEAVY_ATOM_COUNT>
34

> <PUBCHEM_ATOM_DEF_STEREO_COUNT>
0

> <PUBCHEM_ATOM_UDEF_STEREO_COUNT>
0

> <PUBCHEM_BOND_DEF_STEREO_COUNT>
0

> <PUBCHEM_BOND_UDEF_STEREO_COUNT>
0

> <PUBCHEM_ISOTOPIC_ATOM_COUNT>
0

> <PUBCHEM_COMPONENT_COUNT>
1

> <PUBCHEM_CACTVS_TAUTO_COUNT>
4

> <PUBCHEM_CONFORMER_ID>
0031FFA100000001

> <PUBCHEM_MMFF94_ENERGY>
94.7261

> <PUBCHEM_FEATURE_SELFOVERLAP>
55.847

> <PUBCHEM_SHAPE_FINGERPRINT>
10010297 198 18341892957421588823
11007060 377 17981602976850521233
11297750 10 17754181877678926389
11488393 25 18336831892276988586
12788726 201 17470999745893839854
13540713 4 18042122051902518061
13540713 5 18131059400084025189
13726171 33 17546474600792213068
13782708 43 13047036410200211440
14028597 1 17846787294897372232
14363568 33 18269276760106512946
14444916 359 18338813303025875788
14790565 3 18339355387395287116
14866123 147 18050568744333132446
15200665 1 17908138029477313835
15297060 5 18270958063967454512
15775530 1 17971456413325018589
15927050 60 18341617061212426063
15961568 22 17906440045029148454
161222 619 18261112988874790258
17913733 40 18340215167144459569
19611394 137 18188778215276379794
20028762 73 18125159600487674791
20101258 96 17835801889703834215
21796203 349 17908174008634916235
21927370 108 17762910861721440474
23516275 137 18189357739523576432
23559900 14 18116995473290104175
249999 5 18339649944757614841
255183 313 18121785194600594865
3411729 13 18410017615546999865
3418910 222 17761784966874787374
4017518 198 18340198700793728366
5265222 85 18190749832950965460
5385378 56 18412268311438461033
563151 74 18270701809218119097
6669772 16 18341335569604037350
6673363 416 17764321544664170886

> <PUBCHEM_SHAPE_MULTIPOLES>
658.91
13.4
7.44
1.84
11.93
10.18
0.94
-12.31
3.91
-13
-1.51
1.17
0.41
0.24

> <PUBCHEM_SHAPE_SELFOVERLAP>
1374.147

> <PUBCHEM_SHAPE_VOLUME>
375.6

> <PUBCHEM_COORDINATE_TYPE>
2
5
10

$$$$
