12005206
  -OEChem-01171809333D

 39 42  0     0  0  0  0  0  0999 V2000
    3.7701   -2.1309   -0.6479 O   0  0  0  0  0  0  0  0  0  0  0  0
    5.6717   -0.1401    0.2071 O   0  0  0  0  0  0  0  0  0  0  0  0
   -0.9708   -1.0126    0.9669 O   0  0  0  0  0  0  0  0  0  0  0  0
   -3.2743    3.5379   -0.5041 O   0  5  0  0  0  0  0  0  0  0  0  0
   -1.2562    4.4275   -0.3052 O   0  0  0  0  0  0  0  0  0  0  0  0
    0.2062    0.9513    0.2309 N   0  0  0  0  0  0  0  0  0  0  0  0
   -0.8415    0.0710    0.1161 N   0  0  0  0  0  0  0  0  0  0  0  0
   -0.2178    2.2659    0.0562 N   0  0  0  0  0  0  0  0  0  0  0  0
   -3.2369    0.4954   -0.1388 N   0  0  0  0  0  0  0  0  0  0  0  0
   -2.0452    3.4657   -0.3257 N   0  3  0  0  0  0  0  0  0  0  0  0
    1.5896    0.6504    0.2345 C   0  0  0  0  0  0  0  0  0  0  0  0
    3.3974   -0.8860   -0.2132 C   0  0  0  0  0  0  0  0  0  0  0  0
    4.3183    0.0749    0.2117 C   0  0  0  0  0  0  0  0  0  0  0  0
    2.0333   -0.5932   -0.2162 C   0  0  0  0  0  0  0  0  0  0  0  0
    2.5075    1.5999    0.6845 C   0  0  0  0  0  0  0  0  0  0  0  0
    5.1174   -2.4423   -0.2825 C   0  0  0  0  0  0  0  0  0  0  0  0
    6.0294   -1.2712   -0.5920 C   0  0  0  0  0  0  0  0  0  0  0  0
    3.8727    1.3130    0.6752 C   0  0  0  0  0  0  0  0  0  0  0  0
   -1.9920    0.7920   -0.0673 C   0  0  0  0  0  0  0  0  0  0  0  0
   -1.4976    2.1797   -0.1285 C   0  0  0  0  0  0  0  0  0  0  0  0
   -3.5532   -0.8764   -0.0656 C   0  0  0  0  0  0  0  0  0  0  0  0
   -3.7962   -1.4594    1.1717 C   0  0  0  0  0  0  0  0  0  0  0  0
   -3.6174   -1.6288   -1.2316 C   0  0  0  0  0  0  0  0  0  0  0  0
   -4.1088   -2.8168    1.2442 C   0  0  0  0  0  0  0  0  0  0  0  0
   -3.9300   -2.9863   -1.1591 C   0  0  0  0  0  0  0  0  0  0  0  0
   -4.1757   -3.5804    0.0788 C   0  0  0  0  0  0  0  0  0  0  0  0
    1.3327   -1.3444   -0.5721 H   0  0  0  0  0  0  0  0  0  0  0  0
    2.1832    2.5707    1.0502 H   0  0  0  0  0  0  0  0  0  0  0  0
    5.4224   -3.3235   -0.8555 H   0  0  0  0  0  0  0  0  0  0  0  0
    5.1403   -2.7019    0.7832 H   0  0  0  0  0  0  0  0  0  0  0  0
    7.0681   -1.5269   -0.3608 H   0  0  0  0  0  0  0  0  0  0  0  0
    5.9743   -0.9844   -1.6495 H   0  0  0  0  0  0  0  0  0  0  0  0
    4.5813    2.0607    1.0206 H   0  0  0  0  0  0  0  0  0  0  0  0
   -0.8429   -0.5992    1.8378 H   0  0  0  0  0  0  0  0  0  0  0  0
   -3.7492   -0.8712    2.0841 H   0  0  0  0  0  0  0  0  0  0  0  0
   -3.4275   -1.1734   -2.1996 H   0  0  0  0  0  0  0  0  0  0  0  0
   -4.3005   -3.2792    2.2081 H   0  0  0  0  0  0  0  0  0  0  0  0
   -3.9820   -3.5808   -2.0665 H   0  0  0  0  0  0  0  0  0  0  0  0
   -4.4191   -4.6373    0.1353 H   0  0  0  0  0  0  0  0  0  0  0  0
  1 12  1  0  0  0  0
  1 16  1  0  0  0  0
  2 13  1  0  0  0  0
  2 17  1  0  0  0  0
  3  7  1  0  0  0  0
  3 34  1  0  0  0  0
  4 10  1  0  0  0  0
  5 10  2  0  0  0  0
  6  7  1  0  0  0  0
  6  8  1  0  0  0  0
  6 11  1  0  0  0  0
  7 19  1  0  0  0  0
  8 20  2  0  0  0  0
  9 19  2  0  0  0  0
  9 21  1  0  0  0  0
 10 20  1  0  0  0  0
 11 14  2  0  0  0  0
 11 15  1  0  0  0  0
 12 13  2  0  0  0  0
 12 14  1  0  0  0  0
 13 18  1  0  0  0  0
 14 27  1  0  0  0  0
 15 18  2  0  0  0  0
 15 28  1  0  0  0  0
 16 17  1  0  0  0  0
 16 29  1  0  0  0  0
 16 30  1  0  0  0  0
 17 31  1  0  0  0  0
 17 32  1  0  0  0  0
 18 33  1  0  0  0  0
 19 20  1  0  0  0  0
 21 22  2  0  0  0  0
 21 23  1  0  0  0  0
 22 24  1  0  0  0  0
 22 35  1  0  0  0  0
 23 25  2  0  0  0  0
 23 36  1  0  0  0  0
 24 26  2  0  0  0  0
 24 37  1  0  0  0  0
 25 26  1  0  0  0  0
 25 38  1  0  0  0  0
 26 39  1  0  0  0  0
M  CHG  2   4  -1  10   1
M  END
> <PUBCHEM_COMPOUND_CID>
12005206

> <PUBCHEM_CONFORMER_RMSD>
0.8

> <PUBCHEM_CONFORMER_DIVERSEORDER>
1
6
3
5
2
4

> <PUBCHEM_MMFF94_PARTIAL_CHARGES>
35
1 -0.36
10 0.87
11 0.1
12 0.08
13 0.08
14 -0.15
15 -0.15
16 0.28
17 0.28
18 -0.15
19 0.5
2 -0.36
20 0.62
21 0.18
22 -0.15
23 -0.15
24 -0.15
25 -0.15
26 -0.15
27 0.15
28 0.15
3 -0.38
33 0.15
34 0.4
35 0.15
36 0.15
37 0.15
38 0.15
39 0.15
4 -0.52
5 -0.52
6 -0.06
7 -0.07
8 -0.49
9 -0.63

> <PUBCHEM_EFFECTIVE_ROTOR_COUNT>
3.8

> <PUBCHEM_PHARMACOPHORE_FEATURES>
10
1 1 acceptor
1 2 acceptor
1 4 acceptor
1 5 acceptor
3 7 9 19 cation
3 8 10 20 cation
5 6 7 8 19 20 rings
6 1 2 12 13 16 17 rings
6 11 12 13 14 15 18 rings
6 21 22 23 24 25 26 rings

> <PUBCHEM_HEAVY_ATOM_COUNT>
26

> <PUBCHEM_ATOM_DEF_STEREO_COUNT>
0

> <PUBCHEM_ATOM_UDEF_STEREO_COUNT>
0

> <PUBCHEM_BOND_DEF_STEREO_COUNT>
0

> <PUBCHEM_BOND_UDEF_STEREO_COUNT>
0

> <PUBCHEM_ISOTOPIC_ATOM_COUNT>
0

> <PUBCHEM_COMPONENT_COUNT>
1

> <PUBCHEM_CACTVS_TAUTO_COUNT>
1

> <PUBCHEM_CONFORMER_ID>
00B72F5600000001

> <PUBCHEM_MMFF94_ENERGY>
97.9972

> <PUBCHEM_FEATURE_SELFOVERLAP>
50.911

> <PUBCHEM_SHAPE_FINGERPRINT>
10254770 206 16893133302329983818
1100329 8 17470725512000421322
11056379 131 18338525140262598820
11796584 16 18194682554436668762
11809386 21 18261949648925913922
12107183 9 18268446771146818171
12363563 72 18263085586012876603
12403259 226 18342171198204010128
12422481 6 17775017790101913367
12549972 3 17631147737247378744
12553582 1 18194411219339329663
12633257 1 15697443363697211839
12788726 201 18262508196574357985
13103583 49 17203063974805191235
13544653 18 18338517559524092815
13690498 29 18268729263513728822
138480 1 15960331744948720637
14790565 3 17330840119397449656
14866123 147 18339645530216933235
14950920 106 16486976262149221067
15042514 8 18409735036974989409
15250474 111 18116142278137701882
15352361 1 18339360876289774575
15361156 5 18262252087347429886
17349148 13 17821729463855645066
17492 89 18410291419859903686
1813 80 18198078069275014615
18927931 339 18410862057235358711
19141452 34 18343869918225719539
19301676 85 17189262591094764694
19427546 20 18334581213608230956
20101258 96 18409738378053389921
21065201 7 18337944589892161120
21133410 171 17543291308049546555
221490 88 18413670210581155120
22950370 63 18338524169573758819
23559900 14 18411128126528381808
314194 84 18053383481183630115
4073 2 18338233765924302008
44062 13 18268149764798127230
46194498 28 17244410121999387079
463206 1 18118687848918487931
5104073 3 18272084960211433146
5309563 4 18266178507805985003
59755656 520 18124875660326752089
613672 6 18120917645883221451
6431902 208 18410572920364331750
6677587 24 15100063484106050021
7164475 11 18335987544856935604
7399639 24 18127676326937994760
7970288 3 18194964269241127111
9709674 26 18409729564938370752

> <PUBCHEM_SHAPE_MULTIPOLES>
480.82
12.21
4.6
0.95
10.93
3.37
0.05
-11.3
-0.5
-4.96
-0.77
-0.77
-0.46
1.27

> <PUBCHEM_SHAPE_SELFOVERLAP>
1064.095

> <PUBCHEM_SHAPE_VOLUME>
254.2

> <PUBCHEM_COORDINATE_TYPE>
2
5
10

$$$$
