3465001
  -OEChem-01171809523D

 46 49  0     1  0  0  0  0  0999 V2000
    0.3177    1.8324    3.2466 Cl  0  0  0  0  0  0  0  0  0  0  0  0
    1.5713    2.4066   -1.6907 S   0  0  0  0  0  0  0  0  0  0  0  0
    4.5347   -2.1505    1.0767 O   0  0  0  0  0  0  0  0  0  0  0  0
    0.2520    2.9494   -1.4298 O   0  0  0  0  0  0  0  0  0  0  0  0
    2.0954    2.3214   -3.0401 O   0  0  0  0  0  0  0  0  0  0  0  0
   -5.4439   -1.1453   -1.3750 O   0  0  0  0  0  0  0  0  0  0  0  0
    1.7086    0.8873   -0.9409 N   0  0  1  0  0  0  0  0  0  0  0  0
    2.9814    0.1978   -1.1938 N   0  0  0  0  0  0  0  0  0  0  0  0
   -1.9534    1.0519    2.3058 N   0  0  0  0  0  0  0  0  0  0  0  0
    1.3826    0.7814    0.5095 C   0  0  2  0  0  0  0  0  0  0  0  0
    2.1652   -0.4645    0.9273 C   0  0  0  0  0  0  0  0  0  0  0  0
   -0.0902    0.6847    0.8149 C   0  0  0  0  0  0  0  0  0  0  0  0
    3.2182   -0.5407   -0.1517 C   0  0  0  0  0  0  0  0  0  0  0  0
   -0.9514    0.1299   -0.1208 C   0  0  0  0  0  0  0  0  0  0  0  0
    4.3922   -1.3947   -0.0458 C   0  0  0  0  0  0  0  0  0  0  0  0
   -0.6372    1.1271    2.0023 C   0  0  0  0  0  0  0  0  0  0  0  0
   -2.3224    0.0336    0.1530 C   0  0  0  0  0  0  0  0  0  0  0  0
    2.7369    3.3242   -0.7141 C   0  0  0  0  0  0  0  0  0  0  0  0
   -2.7868    0.5136    1.3955 C   0  0  0  0  0  0  0  0  0  0  0  0
    5.4518   -1.6064   -0.9016 C   0  0  0  0  0  0  0  0  0  0  0  0
   -3.2206   -0.5226   -0.7735 C   0  0  0  0  0  0  0  0  0  0  0  0
   -4.1488    0.4175    1.6671 C   0  0  0  0  0  0  0  0  0  0  0  0
   -4.5779   -0.6058   -0.4758 C   0  0  0  0  0  0  0  0  0  0  0  0
    6.2938   -2.5488   -0.2644 C   0  0  0  0  0  0  0  0  0  0  0  0
   -5.0421   -0.1353    0.7462 C   0  0  0  0  0  0  0  0  0  0  0  0
    5.6922   -2.8485    0.9356 C   0  0  0  0  0  0  0  0  0  0  0  0
   -6.5995   -1.8002   -0.8530 C   0  0  0  0  0  0  0  0  0  0  0  0
   -7.0198   -2.8956   -1.8096 C   0  0  0  0  0  0  0  0  0  0  0  0
    1.8259    1.6353    1.0259 H   0  0  0  0  0  0  0  0  0  0  0  0
    1.5673   -1.3822    0.8951 H   0  0  0  0  0  0  0  0  0  0  0  0
    2.6104   -0.3603    1.9208 H   0  0  0  0  0  0  0  0  0  0  0  0
   -0.5744   -0.2486   -1.0683 H   0  0  0  0  0  0  0  0  0  0  0  0
    3.6878    2.7918   -0.6675 H   0  0  0  0  0  0  0  0  0  0  0  0
    2.8949    4.2823   -1.2173 H   0  0  0  0  0  0  0  0  0  0  0  0
    2.3331    3.5207    0.2789 H   0  0  0  0  0  0  0  0  0  0  0  0
    5.6021   -1.1411   -1.8655 H   0  0  0  0  0  0  0  0  0  0  0  0
   -2.8619   -0.8928   -1.7319 H   0  0  0  0  0  0  0  0  0  0  0  0
   -4.5378    0.7846    2.6153 H   0  0  0  0  0  0  0  0  0  0  0  0
    7.2229   -2.9583   -0.6335 H   0  0  0  0  0  0  0  0  0  0  0  0
   -6.0942   -0.1530    1.0146 H   0  0  0  0  0  0  0  0  0  0  0  0
    5.9464   -3.5026    1.7568 H   0  0  0  0  0  0  0  0  0  0  0  0
   -6.3983   -2.2704    0.1178 H   0  0  0  0  0  0  0  0  0  0  0  0
   -7.4092   -1.0701   -0.7463 H   0  0  0  0  0  0  0  0  0  0  0  0
   -7.9117   -3.4131   -1.4450 H   0  0  0  0  0  0  0  0  0  0  0  0
   -7.2328   -2.4811   -2.8005 H   0  0  0  0  0  0  0  0  0  0  0  0
   -6.2144   -3.6264   -1.9372 H   0  0  0  0  0  0  0  0  0  0  0  0
  1 16  1  0  0  0  0
  2  4  2  0  0  0  0
  2  5  2  0  0  0  0
  2  7  1  0  0  0  0
  2 18  1  0  0  0  0
  3 15  1  0  0  0  0
  3 26  1  0  0  0  0
  6 23  1  0  0  0  0
  6 27  1  0  0  0  0
  7  8  1  0  0  0  0
  7 10  1  0  0  0  0
  8 13  2  0  0  0  0
  9 16  1  0  0  0  0
  9 19  2  0  0  0  0
 10 11  1  0  0  0  0
 10 12  1  0  0  0  0
 10 29  1  0  0  0  0
 11 13  1  0  0  0  0
 11 30  1  0  0  0  0
 11 31  1  0  0  0  0
 12 14  1  0  0  0  0
 12 16  2  0  0  0  0
 13 15  1  0  0  0  0
 14 17  2  0  0  0  0
 14 32  1  0  0  0  0
 15 20  2  0  0  0  0
 17 19  1  0  0  0  0
 17 21  1  0  0  0  0
 18 33  1  0  0  0  0
 18 34  1  0  0  0  0
 18 35  1  0  0  0  0
 19 22  1  0  0  0  0
 20 24  1  0  0  0  0
 20 36  1  0  0  0  0
 21 23  2  0  0  0  0
 21 37  1  0  0  0  0
 22 25  2  0  0  0  0
 22 38  1  0  0  0  0
 23 25  1  0  0  0  0
 24 26  2  0  0  0  0
 24 39  1  0  0  0  0
 25 40  1  0  0  0  0
 26 41  1  0  0  0  0
 27 28  1  0  0  0  0
 27 42  1  0  0  0  0
 27 43  1  0  0  0  0
 28 44  1  0  0  0  0
 28 45  1  0  0  0  0
 28 46  1  0  0  0  0
M  END
> <PUBCHEM_COMPOUND_CID>
3465001

> <PUBCHEM_CONFORMER_RMSD>
0.8

> <PUBCHEM_CONFORMER_DIVERSEORDER>
1
62
52
44
15
35
54
40
65
70
61
7
77
79
78
68
73
33
38
43
50
56
51
13
46
67
20
29
66
57
41
28
59
49
69
34
76
32
60
53
42
45
30
17
36
24
19
47
58
31
6
72
16
39
26
71
48
74
25
10
37
23
3
75
14
55
27
22
64
9
2
11
4
63
5
12
8
18
21

> <PUBCHEM_MMFF94_PARTIAL_CHARGES>
33
1 -0.18
10 0.5
11 0.06
12 -0.14
13 0.47
14 -0.15
15 0.05
16 0.49
18 0.11
19 0.31
2 1.33
20 -0.15
21 -0.15
22 -0.15
23 0.08
24 -0.15
25 -0.15
26 -0.01
27 0.28
3 -0.28
32 0.15
36 0.15
37 0.15
38 0.15
39 0.15
4 -0.65
40 0.15
41 0.15
5 -0.65
6 -0.36
7 -0.51
8 -0.43
9 -0.62

> <PUBCHEM_EFFECTIVE_ROTOR_COUNT>
5.6

> <PUBCHEM_PHARMACOPHORE_FEATURES>
10
1 3 acceptor
1 4 acceptor
1 5 acceptor
1 6 acceptor
1 8 acceptor
1 9 acceptor
5 3 15 20 24 26 rings
5 7 8 10 11 13 rings
6 17 19 21 22 23 25 rings
6 9 12 14 16 17 19 rings

> <PUBCHEM_HEAVY_ATOM_COUNT>
28

> <PUBCHEM_ATOM_DEF_STEREO_COUNT>
0

> <PUBCHEM_ATOM_UDEF_STEREO_COUNT>
1

> <PUBCHEM_BOND_DEF_STEREO_COUNT>
0

> <PUBCHEM_BOND_UDEF_STEREO_COUNT>
0

> <PUBCHEM_ISOTOPIC_ATOM_COUNT>
0

> <PUBCHEM_COMPONENT_COUNT>
1

> <PUBCHEM_CACTVS_TAUTO_COUNT>
1

> <PUBCHEM_CONFORMER_ID>
0034DF2900000001

> <PUBCHEM_MMFF94_ENERGY>
67.7059

> <PUBCHEM_FEATURE_SELFOVERLAP>
50.801

> <PUBCHEM_SHAPE_FINGERPRINT>
10165383 225 14707506728488887681
10319926 262 16343150104213559874
11135609 99 18059848511129811070
11497681 19 18270966718580367358
11578080 2 18270666598164454224
11963148 33 16839354475202303943
12166972 35 18412823594542384423
12236239 1 18342465802789788456
12403259 415 15574721339361671985
12616971 3 18341065059773629041
12895836 83 12757160077434977295
13009979 54 18270977772744232992
13134695 92 18042141941463425588
13540713 4 16589450776154466497
13540713 5 17987816184046914745
13911987 19 17169582660919404898
14068700 675 18342455903001057840
14347329 18 14129332975554763743
14508225 48 17313959506929136124
14556957 393 17025748892043409582
15183329 4 14707209868944428482
15188451 53 17989480814786737575
15484559 13 14243298867703026975
17349148 13 18270694086075629498
1813 80 18265068946286383518
18222031 100 18334012757822915698
19784866 240 18413107251747778807
1979834 28 14261356885493722849
20028762 73 18131349687622548950
20600515 1 16845024394077608697
20775438 99 17899123099265992371
21304303 282 16970827572939409572
2132832 1 18342185431736438560
21344244 78 14620237528883662027
21424621 283 8069727582669621142
21637258 2 18411975828339102282
221357 26 17313106332448839453
22393880 68 16443347628358983595
23175994 123 17241348888227444656
23536364 44 16951123950469132644
23559900 14 16081097003816749655
2838139 119 11674892095076405094
3004659 81 18131359630159511389
392239 28 13038893435209989067
437795 70 17532081714236677669
439807 62 18271523204533973191
50009960 94 16915067833749353079
5104073 3 16773517780657550867
5718773 13 17846488275733988207
57527295 17 17241316963387101097
59682541 52 18113614638201298135
5969126 39 17969222236178184596
70251023 43 18187361030169725629
7471813 234 18336838515269929056
7808743 9 12540698128406124547

> <PUBCHEM_SHAPE_MULTIPOLES>
543.53
15.01
3.34
2.44
9.05
0.11
0.05
19.76
-2.99
-2.43
-1
-0.15
-2.05
-4.18

> <PUBCHEM_SHAPE_SELFOVERLAP>
1162.712

> <PUBCHEM_SHAPE_VOLUME>
306

> <PUBCHEM_COORDINATE_TYPE>
2
5
10

$$$$
