6895734
  -OEChem-01171809243D

 31 32  0     0  0  0  0  0  0999 V2000
    3.5556   -1.2136    0.1136 S   0  0  0  0  0  0  0  0  0  0  0  0
   -2.1856    2.0346   -0.3891 O   0  0  0  0  0  0  0  0  0  0  0  0
    7.0849    0.3520   -0.0080 O   0  5  0  0  0  0  0  0  0  0  0  0
    6.3999   -1.7193    0.2359 O   0  0  0  0  0  0  0  0  0  0  0  0
   -1.2132   -0.0353   -0.1212 N   0  0  0  0  0  0  0  0  0  0  0  0
    0.0330    0.4949   -0.1631 N   0  0  0  0  0  0  0  0  0  0  0  0
    6.1482   -0.4913    0.0784 N   0  3  0  0  0  0  0  0  0  0  0  0
   -4.3023   -0.0249    0.9834 C   0  0  0  0  0  0  0  0  0  0  0  0
   -3.6186    0.1698   -0.2167 C   0  0  0  0  0  0  0  0  0  0  0  0
   -5.5531   -0.6429    0.9812 C   0  0  0  0  0  0  0  0  0  0  0  0
   -4.1855   -0.2536   -1.4189 C   0  0  0  0  0  0  0  0  0  0  0  0
   -3.7182    0.4176    2.2854 C   0  0  0  0  0  0  0  0  0  0  0  0
   -2.3113    0.8118   -0.2433 C   0  0  0  0  0  0  0  0  0  0  0  0
   -6.1197   -1.0663   -0.2210 C   0  0  0  0  0  0  0  0  0  0  0  0
   -5.4359   -0.8716   -1.4209 C   0  0  0  0  0  0  0  0  0  0  0  0
    2.3834    0.0046   -0.0617 C   0  0  0  0  0  0  0  0  0  0  0  0
    2.9086    1.2522   -0.2038 C   0  0  0  0  0  0  0  0  0  0  0  0
    4.8160   -0.0602   -0.0009 C   0  0  0  0  0  0  0  0  0  0  0  0
    4.3326    1.2189   -0.1688 C   0  0  0  0  0  0  0  0  0  0  0  0
    0.9813   -0.3774   -0.0405 C   0  0  0  0  0  0  0  0  0  0  0  0
   -6.0993   -0.8031    1.9070 H   0  0  0  0  0  0  0  0  0  0  0  0
   -3.6627   -0.1076   -2.3608 H   0  0  0  0  0  0  0  0  0  0  0  0
   -3.5060    1.4918    2.2674 H   0  0  0  0  0  0  0  0  0  0  0  0
   -4.4036    0.2385    3.1210 H   0  0  0  0  0  0  0  0  0  0  0  0
   -2.7946   -0.1310    2.4972 H   0  0  0  0  0  0  0  0  0  0  0  0
   -7.0932   -1.5477   -0.2228 H   0  0  0  0  0  0  0  0  0  0  0  0
   -5.8773   -1.2014   -2.3569 H   0  0  0  0  0  0  0  0  0  0  0  0
    2.3261    2.1564   -0.3270 H   0  0  0  0  0  0  0  0  0  0  0  0
    4.9594    2.0969   -0.2636 H   0  0  0  0  0  0  0  0  0  0  0  0
   -1.3088   -1.0399   -0.0069 H   0  0  0  0  0  0  0  0  0  0  0  0
    0.7530   -1.4531    0.0863 H   0  0  0  0  0  0  0  0  0  0  0  0
  1 16  1  0  0  0  0
  1 18  1  0  0  0  0
  2 13  2  0  0  0  0
  3  7  1  0  0  0  0
  4  7  2  0  0  0  0
  5  6  1  0  0  0  0
  5 13  1  0  0  0  0
  5 30  1  0  0  0  0
  6 20  2  0  0  0  0
  7 18  1  0  0  0  0
  8  9  1  0  0  0  0
  8 10  2  0  0  0  0
  8 12  1  0  0  0  0
  9 11  2  0  0  0  0
  9 13  1  0  0  0  0
 10 14  1  0  0  0  0
 10 21  1  0  0  0  0
 11 15  1  0  0  0  0
 11 22  1  0  0  0  0
 12 23  1  0  0  0  0
 12 24  1  0  0  0  0
 12 25  1  0  0  0  0
 14 15  2  0  0  0  0
 14 26  1  0  0  0  0
 15 27  1  0  0  0  0
 16 17  2  0  0  0  0
 16 20  1  0  0  0  0
 17 19  1  0  0  0  0
 17 28  1  0  0  0  0
 18 19  2  0  0  0  0
 19 29  1  0  0  0  0
 20 31  1  0  0  0  0
M  CHG  2   3  -1   7   1
M  END
> <PUBCHEM_COMPOUND_CID>
6895734

> <PUBCHEM_CONFORMER_RMSD>
0.8

> <PUBCHEM_CONFORMER_DIVERSEORDER>
1
6
10
8
5
3
2
9
7
4

> <PUBCHEM_MMFF94_PARTIAL_CHARGES>
28
1 -0.08
10 -0.15
11 -0.15
12 0.14
13 0.54
14 -0.15
15 -0.15
16 -0.05
17 -0.15
18 0.12
19 -0.15
2 -0.57
20 0.47
21 0.15
22 0.15
26 0.15
27 0.15
28 0.15
29 0.15
3 -0.52
30 0.37
31 0.06
4 -0.52
5 -0.37
6 -0.51
7 0.96
8 -0.14
9 0.09

> <PUBCHEM_EFFECTIVE_ROTOR_COUNT>
5

> <PUBCHEM_PHARMACOPHORE_FEATURES>
8
1 2 acceptor
1 3 acceptor
1 3 anion
1 4 acceptor
1 5 donor
1 6 acceptor
5 1 16 17 18 19 rings
6 8 9 10 11 14 15 rings

> <PUBCHEM_HEAVY_ATOM_COUNT>
20

> <PUBCHEM_ATOM_DEF_STEREO_COUNT>
0

> <PUBCHEM_ATOM_UDEF_STEREO_COUNT>
0

> <PUBCHEM_BOND_DEF_STEREO_COUNT>
1

> <PUBCHEM_BOND_UDEF_STEREO_COUNT>
0

> <PUBCHEM_ISOTOPIC_ATOM_COUNT>
0

> <PUBCHEM_COMPONENT_COUNT>
1

> <PUBCHEM_CACTVS_TAUTO_COUNT>
2

> <PUBCHEM_CONFORMER_ID>
0069387600000001

> <PUBCHEM_MMFF94_ENERGY>
48.4616

> <PUBCHEM_FEATURE_SELFOVERLAP>
40.685

> <PUBCHEM_SHAPE_FINGERPRINT>
10 15 14261345869140050318
10638233 991 18059580243219765960
10912923 1 17917997191144876065
11315181 36 17775565364662537313
12091667 2 18409448076944954285
12166972 35 18201439194838625376
12236239 1 18060702796729250144
12596602 18 17489867150424774370
12616971 3 18060137673585921197
13288520 33 18272086111246921429
13533116 47 17988644061253784618
13668630 136 18259704505937075251
1420 363 18113621187614954154
14251764 18 18201999946005537264
14528608 73 13334742353337059686
14848160 23 17603585248613147211
14849402 71 17345747633581593048
15048467 5 9295287248848780990
15716309 27 18273496762420530999
17780758 139 17489587879378254631
17844677 252 18333455334886171828
17857418 61 18413385432178702806
17870717 6 16370728128218578227
18222031 100 16660363688614989028
18927931 339 18113908143439335551
19377110 9 17846781788844152674
19489759 90 16008744715251404861
200 152 18334292076710180381
20281389 69 11600005444434380378
20621476 66 10881672490996821775
21150785 3 15502380040926639110
21267235 1 18410579470520955590
220451 1 17561081406686875174
23035841 295 18273495697885917727
23081809 10 18410299094845259292
23402539 116 18409729547763964661
23466295 7 17607534824000317387
23522609 53 18056508181529699320
23559900 14 16588025757487290725
300161 21 8646768885258962636
328310 630 8862648136333691210
34797466 226 16443357489086891287
4325135 7 18131632292143002783
5104073 3 18338230441303513608
542803 24 16128655249905575064
59755656 215 16805317778166602666
7495541 125 17560514105425070264

> <PUBCHEM_SHAPE_MULTIPOLES>
382.89
18.64
1.33
1.22
14.3
0.09
0.38
-5.45
1.07
0.46
-0.09
-2.24
0.1
-1.16

> <PUBCHEM_SHAPE_SELFOVERLAP>
804.746

> <PUBCHEM_SHAPE_VOLUME>
216.8

> <PUBCHEM_COORDINATE_TYPE>
2
5
10

$$$$
