16460826
  -OEChem-01171809513D

 51 54  0     0  0  0  0  0  0999 V2000
    3.9284   -1.5663    0.4266 S   0  0  0  0  0  0  0  0  0  0  0  0
    1.7280    2.4846   -0.1062 O   0  0  0  0  0  0  0  0  0  0  0  0
   -3.0413   -2.4280    1.0850 O   0  0  0  0  0  0  0  0  0  0  0  0
   -1.7300   -1.7071   -0.6720 O   0  0  0  0  0  0  0  0  0  0  0  0
   -6.5384   -0.4126   -1.8753 O   0  0  0  0  0  0  0  0  0  0  0  0
    1.9810    0.1808    0.4532 N   0  0  0  0  0  0  0  0  0  0  0  0
    1.1752   -0.8421    0.9364 N   0  0  0  0  0  0  0  0  0  0  0  0
   -2.3391    1.5716    1.1831 N   0  0  0  0  0  0  0  0  0  0  0  0
    4.1526    0.8992   -0.2967 N   0  0  0  0  0  0  0  0  0  0  0  0
   -0.0480    1.0795    0.7290 C   0  0  0  0  0  0  0  0  0  0  0  0
   -0.0148   -0.3342    1.1023 C   0  0  0  0  0  0  0  0  0  0  0  0
   -1.0782    1.9215    0.7658 C   0  0  0  0  0  0  0  0  0  0  0  0
    1.3231    1.4082    0.2891 C   0  0  0  0  0  0  0  0  0  0  0  0
   -1.1922   -1.0942    1.6092 C   0  0  0  0  0  0  0  0  0  0  0  0
    3.3077    0.0053    0.1615 C   0  0  0  0  0  0  0  0  0  0  0  0
   -0.9199    3.3592    0.3369 C   0  0  0  0  0  0  0  0  0  0  0  0
   -3.3919    1.0743    0.4159 C   0  0  0  0  0  0  0  0  0  0  0  0
    5.4770   -1.0352   -0.1144 C   0  0  0  0  0  0  0  0  0  0  0  0
    5.4014    0.3174   -0.4601 C   0  0  0  0  0  0  0  0  0  0  0  0
   -1.9911   -1.7615    0.5221 C   0  0  0  0  0  0  0  0  0  0  0  0
   -3.2369    0.8735   -0.9640 C   0  0  0  0  0  0  0  0  0  0  0  0
   -4.6242    0.7659    1.0112 C   0  0  0  0  0  0  0  0  0  0  0  0
    6.6727   -1.7631   -0.2250 C   0  0  0  0  0  0  0  0  0  0  0  0
    6.5651    0.9619   -0.9328 C   0  0  0  0  0  0  0  0  0  0  0  0
    7.8096   -1.1015   -0.6955 C   0  0  0  0  0  0  0  0  0  0  0  0
    7.7588    0.2433   -1.0455 C   0  0  0  0  0  0  0  0  0  0  0  0
   -4.2904    0.3757   -1.7309 C   0  0  0  0  0  0  0  0  0  0  0  0
   -5.6775    0.2680    0.2441 C   0  0  0  0  0  0  0  0  0  0  0  0
   -5.5107    0.0729   -1.1268 C   0  0  0  0  0  0  0  0  0  0  0  0
   -3.8975   -3.1164    0.1675 C   0  0  0  0  0  0  0  0  0  0  0  0
   -7.7584   -0.7008   -1.1938 C   0  0  0  0  0  0  0  0  0  0  0  0
   -1.8258   -0.4918    2.2594 H   0  0  0  0  0  0  0  0  0  0  0  0
   -0.7916   -1.9001    2.2392 H   0  0  0  0  0  0  0  0  0  0  0  0
   -2.6215    1.9998    2.0600 H   0  0  0  0  0  0  0  0  0  0  0  0
   -1.8619    3.9103    0.4430 H   0  0  0  0  0  0  0  0  0  0  0  0
   -0.1822    3.8775    0.9583 H   0  0  0  0  0  0  0  0  0  0  0  0
   -0.6317    3.4266   -0.7174 H   0  0  0  0  0  0  0  0  0  0  0  0
   -2.3024    1.1012   -1.4703 H   0  0  0  0  0  0  0  0  0  0  0  0
   -4.7678    0.9107    2.0795 H   0  0  0  0  0  0  0  0  0  0  0  0
    6.7198   -2.8133    0.0464 H   0  0  0  0  0  0  0  0  0  0  0  0
    6.5366    2.0122   -1.2091 H   0  0  0  0  0  0  0  0  0  0  0  0
    8.7453   -1.6465   -0.7887 H   0  0  0  0  0  0  0  0  0  0  0  0
    8.6532    0.7413   -1.4096 H   0  0  0  0  0  0  0  0  0  0  0  0
   -4.1546    0.2254   -2.7984 H   0  0  0  0  0  0  0  0  0  0  0  0
   -6.5971    0.0525    0.7773 H   0  0  0  0  0  0  0  0  0  0  0  0
   -4.0321   -2.5665   -0.7677 H   0  0  0  0  0  0  0  0  0  0  0  0
   -3.4825   -4.1076   -0.0350 H   0  0  0  0  0  0  0  0  0  0  0  0
   -4.8756   -3.2348    0.6417 H   0  0  0  0  0  0  0  0  0  0  0  0
   -7.6260   -1.4946   -0.4509 H   0  0  0  0  0  0  0  0  0  0  0  0
   -8.4649   -1.0770   -1.9410 H   0  0  0  0  0  0  0  0  0  0  0  0
   -8.2011    0.2029   -0.7614 H   0  0  0  0  0  0  0  0  0  0  0  0
  1 15  1  0  0  0  0
  1 18  1  0  0  0  0
  2 13  2  0  0  0  0
  3 20  1  0  0  0  0
  3 30  1  0  0  0  0
  4 20  2  0  0  0  0
  5 29  1  0  0  0  0
  5 31  1  0  0  0  0
  6  7  1  0  0  0  0
  6 13  1  0  0  0  0
  6 15  1  0  0  0  0
  7 11  2  0  0  0  0
  8 12  1  0  0  0  0
  8 17  1  0  0  0  0
  8 34  1  0  0  0  0
  9 15  2  0  0  0  0
  9 19  1  0  0  0  0
 10 11  1  0  0  0  0
 10 12  2  0  0  0  0
 10 13  1  0  0  0  0
 11 14  1  0  0  0  0
 12 16  1  0  0  0  0
 14 20  1  0  0  0  0
 14 32  1  0  0  0  0
 14 33  1  0  0  0  0
 16 35  1  0  0  0  0
 16 36  1  0  0  0  0
 16 37  1  0  0  0  0
 17 21  2  0  0  0  0
 17 22  1  0  0  0  0
 18 19  1  0  0  0  0
 18 23  2  0  0  0  0
 19 24  2  0  0  0  0
 21 27  1  0  0  0  0
 21 38  1  0  0  0  0
 22 28  2  0  0  0  0
 22 39  1  0  0  0  0
 23 25  1  0  0  0  0
 23 40  1  0  0  0  0
 24 26  1  0  0  0  0
 24 41  1  0  0  0  0
 25 26  2  0  0  0  0
 25 42  1  0  0  0  0
 26 43  1  0  0  0  0
 27 29  2  0  0  0  0
 27 44  1  0  0  0  0
 28 29  1  0  0  0  0
 28 45  1  0  0  0  0
 30 46  1  0  0  0  0
 30 47  1  0  0  0  0
 30 48  1  0  0  0  0
 31 49  1  0  0  0  0
 31 50  1  0  0  0  0
 31 51  1  0  0  0  0
M  END
> <PUBCHEM_COMPOUND_CID>
16460826

> <PUBCHEM_CONFORMER_RMSD>
1

> <PUBCHEM_CONFORMER_DIVERSEORDER>
1
16
35
32
23
8
28
14
11
13
33
31
21
3
29
22
6
34
5
9
30
27
18
7
20
2
26
4
12
19
15
25
17
10
24

> <PUBCHEM_MMFF94_PARTIAL_CHARGES>
40
1 -0.08
10 0.03
11 0.37
12 -0.04
13 0.62
14 0.12
15 0.44
16 0.14
17 0.1
18 0.04
19 0.23
2 -0.57
20 0.66
21 -0.15
22 -0.15
23 -0.15
24 -0.15
25 -0.15
26 -0.15
27 -0.15
28 -0.15
29 0.08
3 -0.43
30 0.28
31 0.28
34 0.4
38 0.15
39 0.15
4 -0.57
40 0.15
41 0.15
42 0.15
43 0.15
44 0.15
45 0.15
5 -0.36
6 -0.06
7 -0.51
8 -0.6
9 -0.57

> <PUBCHEM_EFFECTIVE_ROTOR_COUNT>
7.2

> <PUBCHEM_PHARMACOPHORE_FEATURES>
10
1 2 acceptor
1 4 acceptor
1 5 acceptor
1 7 acceptor
1 8 cation
1 8 donor
5 1 9 15 18 19 rings
5 6 7 10 11 13 rings
6 17 21 22 27 28 29 rings
6 18 19 23 24 25 26 rings

> <PUBCHEM_HEAVY_ATOM_COUNT>
31

> <PUBCHEM_ATOM_DEF_STEREO_COUNT>
0

> <PUBCHEM_ATOM_UDEF_STEREO_COUNT>
0

> <PUBCHEM_BOND_DEF_STEREO_COUNT>
1

> <PUBCHEM_BOND_UDEF_STEREO_COUNT>
0

> <PUBCHEM_ISOTOPIC_ATOM_COUNT>
0

> <PUBCHEM_COMPONENT_COUNT>
1

> <PUBCHEM_CACTVS_TAUTO_COUNT>
7

> <PUBCHEM_CONFORMER_ID>
00FB2C1A00000001

> <PUBCHEM_MMFF94_ENERGY>
111.044

> <PUBCHEM_FEATURE_SELFOVERLAP>
50.819

> <PUBCHEM_SHAPE_FINGERPRINT>
10076449 9 18114187467112347275
10165383 225 17821726114318886567
10299344 5 17989208131201575156
10674148 151 17988920059956866881
10835480 77 18335422430772740332
11135926 11 18333735680339120746
12390115 104 8214152875604690090
12516196 113 17561362864515397648
12788726 201 18270112396979410064
13540713 4 18045503277047163697
13668630 136 16415483731831481004
13690498 29 18190179177652329715
13782708 43 17275380989452440518
13911987 19 18114177510945423923
14068700 675 17418372493408250392
14674994 50 16128081364517312183
14767858 380 18408885118522911148
14931854 50 18334564725365450877
15082195 135 18262524809883041772
15183329 4 18408321073284471914
15510800 12 17774736319530829886
15849732 13 17022907851895156063
16087824 20 18337678491263042633
17492 54 18260816091424249993
19958102 18 18260834739713982414
2026 5 17486506902222864718
20775438 99 16691841804944758735
21033648 29 13046518630917897468
21150785 3 18333448737821159982
21267235 1 18273212015496288397
21792961 116 18114184128915501667
22224240 67 8358258155185784093
23198884 109 18413952780347128357
23522609 53 17915208808768550160
23559900 14 18339359777184420160
23569943 247 17986112907244037090
23576562 1 17750233763499198269
3004659 81 18261107483042688048
3383291 50 18272928345375344119
397830 11 15625639683941074248
4098825 35 17894915178177155910
44802255 64 16805324383721042587
484989 97 18191023598814670979
504579 68 18261128365917344102
54039377 194 18130787893578949151
57527306 92 14996278115916696143
59682541 35 9655568626247615615
59755656 520 16298109804314144450

> <PUBCHEM_SHAPE_MULTIPOLES>
598.41
20.16
2.61
1.35
18.16
0.07
-0.22
-5.94
-10.78
-1.21
0.56
-1.63
-0.08
-0.46

> <PUBCHEM_SHAPE_SELFOVERLAP>
1297.191

> <PUBCHEM_SHAPE_VOLUME>
329.7

> <PUBCHEM_COORDINATE_TYPE>
2
5
10

$$$$
