44142150
  -OEChem-01171810113D

 22 24  0     0  0  0  0  0  0999 V2000
   -0.2516   -2.9027    0.6646 Br  0  0  0  0  0  0  0  0  0  0  0  0
    0.9340    0.1654    1.5221 S   0  0  0  0  0  0  0  0  0  0  0  0
   -3.7721   -0.8184   -0.8996 S   0  0  0  0  0  0  0  0  0  0  0  0
    3.3500   -0.1031    0.1626 N   0  0  0  0  0  0  0  0  0  0  0  0
   -0.8447    1.9822    0.7984 N   0  0  0  0  0  0  0  0  0  0  0  0
   -2.9848    1.6535   -0.2925 N   0  0  0  0  0  0  0  0  0  0  0  0
    1.7248    0.5159   -1.1329 N   0  0  0  0  0  0  0  0  0  0  0  0
    3.8966    0.0186   -1.0550 N   0  0  0  0  0  0  0  0  0  0  0  0
    2.8980    0.3971   -1.8434 N   0  0  0  0  0  0  0  0  0  0  0  0
   -1.5407   -0.2325    0.2590 C   0  0  0  0  0  0  0  0  0  0  0  0
   -0.6043    0.6536    0.8014 C   0  0  0  0  0  0  0  0  0  0  0  0
   -2.6941    0.3382   -0.2634 C   0  0  0  0  0  0  0  0  0  0  0  0
   -1.5689   -1.6559    0.1203 C   0  0  0  0  0  0  0  0  0  0  0  0
    2.0274    0.2019    0.1057 C   0  0  0  0  0  0  0  0  0  0  0  0
   -2.7202   -2.1038   -0.4904 C   0  0  0  0  0  0  0  0  0  0  0  0
    4.1582   -0.5057    1.2858 C   0  0  0  0  0  0  0  0  0  0  0  0
   -2.0075    2.3958    0.2575 C   0  0  0  0  0  0  0  0  0  0  0  0
   -3.0034   -3.1220   -0.7204 H   0  0  0  0  0  0  0  0  0  0  0  0
    3.7467   -1.4312    1.6957 H   0  0  0  0  0  0  0  0  0  0  0  0
    5.1863   -0.6746    0.9546 H   0  0  0  0  0  0  0  0  0  0  0  0
    4.1378    0.2923    2.0319 H   0  0  0  0  0  0  0  0  0  0  0  0
   -2.1764    3.4669    0.2673 H   0  0  0  0  0  0  0  0  0  0  0  0
  1 13  1  0  0  0  0
  2 11  1  0  0  0  0
  2 14  1  0  0  0  0
  3 12  1  0  0  0  0
  3 15  1  0  0  0  0
  4  8  1  0  0  0  0
  4 14  1  0  0  0  0
  4 16  1  0  0  0  0
  5 11  2  0  0  0  0
  5 17  1  0  0  0  0
  6 12  1  0  0  0  0
  6 17  2  0  0  0  0
  7  9  1  0  0  0  0
  7 14  2  0  0  0  0
  8  9  2  0  0  0  0
 10 11  1  0  0  0  0
 10 12  2  0  0  0  0
 10 13  1  0  0  0  0
 13 15  2  0  0  0  0
 15 18  1  0  0  0  0
 16 19  1  0  0  0  0
 16 20  1  0  0  0  0
 16 21  1  0  0  0  0
 17 22  1  0  0  0  0
M  END
> <PUBCHEM_COMPOUND_CID>
44142150

> <PUBCHEM_CONFORMER_RMSD>
0.6

> <PUBCHEM_CONFORMER_DIVERSEORDER>
2
3
16
12
13
15
10
1
4
6
11
7
5
17
9
8
14

> <PUBCHEM_MMFF94_PARTIAL_CHARGES>
17
1 -0.06
11 0.41
12 0.3
13 0.06
14 0.24
15 -0.11
16 0.26
17 0.47
18 0.15
2 -0.16
22 0.15
3 -0.08
4 0.31
5 -0.62
6 -0.57
7 -0.34
8 -0.42

> <PUBCHEM_EFFECTIVE_ROTOR_COUNT>
2

> <PUBCHEM_PHARMACOPHORE_FEATURES>
7
1 1 hydrophobe
1 5 acceptor
3 4 7 14 cation
3 5 6 17 cation
5 3 10 12 13 15 rings
5 4 7 8 9 14 rings
6 5 6 10 11 12 17 rings

> <PUBCHEM_HEAVY_ATOM_COUNT>
17

> <PUBCHEM_ATOM_DEF_STEREO_COUNT>
0

> <PUBCHEM_ATOM_UDEF_STEREO_COUNT>
0

> <PUBCHEM_BOND_DEF_STEREO_COUNT>
0

> <PUBCHEM_BOND_UDEF_STEREO_COUNT>
0

> <PUBCHEM_ISOTOPIC_ATOM_COUNT>
0

> <PUBCHEM_COMPONENT_COUNT>
1

> <PUBCHEM_CACTVS_TAUTO_COUNT>
1

> <PUBCHEM_CONFORMER_ID>
02A18E4600000002

> <PUBCHEM_MMFF94_ENERGY>
30.5376

> <PUBCHEM_FEATURE_SELFOVERLAP>
35.601

> <PUBCHEM_SHAPE_FINGERPRINT>
10062212 137 18188760665511688315
11578080 2 17462803771435694500
11582403 64 15830216887215947232
12236239 1 17894621544005332696
12592029 89 18115317652774013755
13296908 3 17203614778627515468
14115302 16 18187637054748483082
15415430 2 18341894147011809763
15775835 57 17531252759446221364
16752209 62 18337096922061136859
16945 1 18339625811964087299
192875 21 18186793695249607604
20645476 183 17604135008891340643
20871999 31 18341619251698104301
20905425 154 18200592484526916887
23402539 116 18341036467511707636
23526113 38 17131540640206739216
23557571 272 18201998867462772968
23559900 14 18201995492087521890
23598291 2 17750508495150491306
27216 239 12974462143863154468
2748010 2 17833809935933932867
77492 1 17894625937825539216
81228 2 18200889429917428761
90525 40 18260271815160586411
9709674 26 18272934908111317646

> <PUBCHEM_SHAPE_MULTIPOLES>
333.61
6.72
2.49
1.33
4.76
0.69
0.21
0.39
1.76
-2.23
-0.51
1.14
-0.08
-0.65

> <PUBCHEM_SHAPE_SELFOVERLAP>
686.146

> <PUBCHEM_SHAPE_VOLUME>
197

> <PUBCHEM_COORDINATE_TYPE>
2
5
10

$$$$
