16453202
  -OEChem-01171810053D

 47 49  0     0  0  0  0  0  0999 V2000
    2.6135    4.2573   -0.7514 Cl  0  0  0  0  0  0  0  0  0  0  0  0
   -2.7528    1.4304    0.0975 S   0  0  0  0  0  0  0  0  0  0  0  0
   -3.1785    1.7281    1.4546 O   0  0  0  0  0  0  0  0  0  0  0  0
   -3.6092    1.7678   -1.0271 O   0  0  0  0  0  0  0  0  0  0  0  0
    2.5005   -2.2457   -1.4439 O   0  0  0  0  0  0  0  0  0  0  0  0
    2.9307    1.9566    1.3909 O   0  0  0  0  0  0  0  0  0  0  0  0
   -0.1409    1.5480    0.2719 N   0  0  0  0  0  0  0  0  0  0  0  0
   -1.2718    3.4361   -0.7094 N   0  0  0  0  0  0  0  0  0  0  0  0
    2.3972    0.2012   -0.0715 N   0  0  0  0  0  0  0  0  0  0  0  0
   -2.3664   -0.2868   -0.0133 C   0  0  0  0  0  0  0  0  0  0  0  0
   -3.6305   -1.0550    0.1789 C   0  0  0  0  0  0  0  0  0  0  0  0
   -1.1977    2.2373   -0.1427 C   0  0  0  0  0  0  0  0  0  0  0  0
   -4.0212   -1.4455    1.4596 C   0  0  0  0  0  0  0  0  0  0  0  0
   -4.4219   -1.3824   -0.9221 C   0  0  0  0  0  0  0  0  0  0  0  0
    1.0280    2.1923    0.0736 C   0  0  0  0  0  0  0  0  0  0  0  0
    3.4259   -0.7400    0.1783 C   0  0  0  0  0  0  0  0  0  0  0  0
   -5.2035   -2.1636    1.6395 C   0  0  0  0  0  0  0  0  0  0  0  0
   -5.6043   -2.1004   -0.7423 C   0  0  0  0  0  0  0  0  0  0  0  0
    3.4502   -1.9383   -0.5155 C   0  0  0  0  0  0  0  0  0  0  0  0
    2.2022    1.4558    0.5205 C   0  0  0  0  0  0  0  0  0  0  0  0
    1.1263    3.4426   -0.5018 C   0  0  0  0  0  0  0  0  0  0  0  0
   -5.9951   -2.4909    0.5385 C   0  0  0  0  0  0  0  0  0  0  0  0
   -0.0682    4.0224   -0.8776 C   0  0  0  0  0  0  0  0  0  0  0  0
    4.3926   -0.4321    1.1216 C   0  0  0  0  0  0  0  0  0  0  0  0
    4.4699   -2.8548   -0.2592 C   0  0  0  0  0  0  0  0  0  0  0  0
    5.4123   -1.3487    1.3780 C   0  0  0  0  0  0  0  0  0  0  0  0
    5.4510   -2.5601    0.6877 C   0  0  0  0  0  0  0  0  0  0  0  0
    1.7191   -3.4148   -1.2078 C   0  0  0  0  0  0  0  0  0  0  0  0
    0.3426   -3.2168   -1.8055 C   0  0  0  0  0  0  0  0  0  0  0  0
   -1.9236   -0.4846   -0.9946 H   0  0  0  0  0  0  0  0  0  0  0  0
   -1.6353   -0.5451    0.7589 H   0  0  0  0  0  0  0  0  0  0  0  0
   -3.4138   -1.1974    2.3260 H   0  0  0  0  0  0  0  0  0  0  0  0
   -4.1285   -1.0853   -1.9254 H   0  0  0  0  0  0  0  0  0  0  0  0
   -5.5079   -2.4677    2.6367 H   0  0  0  0  0  0  0  0  0  0  0  0
   -6.2206   -2.3555   -1.5994 H   0  0  0  0  0  0  0  0  0  0  0  0
    1.7162   -0.0875   -0.7714 H   0  0  0  0  0  0  0  0  0  0  0  0
   -6.9156   -3.0499    0.6786 H   0  0  0  0  0  0  0  0  0  0  0  0
   -0.1048    5.0043   -1.3394 H   0  0  0  0  0  0  0  0  0  0  0  0
    4.4373    0.4788    1.6983 H   0  0  0  0  0  0  0  0  0  0  0  0
    4.5185   -3.7990   -0.7948 H   0  0  0  0  0  0  0  0  0  0  0  0
    6.1773   -1.1204    2.1146 H   0  0  0  0  0  0  0  0  0  0  0  0
    6.2461   -3.2729    0.8860 H   0  0  0  0  0  0  0  0  0  0  0  0
    1.6194   -3.6124   -0.1332 H   0  0  0  0  0  0  0  0  0  0  0  0
    2.2106   -4.2720   -1.6805 H   0  0  0  0  0  0  0  0  0  0  0  0
   -0.2819   -4.1015   -1.6525 H   0  0  0  0  0  0  0  0  0  0  0  0
   -0.1521   -2.3523   -1.3513 H   0  0  0  0  0  0  0  0  0  0  0  0
    0.4130   -3.0150   -2.8794 H   0  0  0  0  0  0  0  0  0  0  0  0
  1 21  1  0  0  0  0
  2  3  2  0  0  0  0
  2  4  2  0  0  0  0
  2 10  1  0  0  0  0
  2 12  1  0  0  0  0
  5 19  1  0  0  0  0
  5 28  1  0  0  0  0
  6 20  2  0  0  0  0
  7 12  1  0  0  0  0
  7 15  2  0  0  0  0
  8 12  2  0  0  0  0
  8 23  1  0  0  0  0
  9 16  1  0  0  0  0
  9 20  1  0  0  0  0
  9 36  1  0  0  0  0
 10 11  1  0  0  0  0
 10 30  1  0  0  0  0
 10 31  1  0  0  0  0
 11 13  2  0  0  0  0
 11 14  1  0  0  0  0
 13 17  1  0  0  0  0
 13 32  1  0  0  0  0
 14 18  2  0  0  0  0
 14 33  1  0  0  0  0
 15 20  1  0  0  0  0
 15 21  1  0  0  0  0
 16 19  1  0  0  0  0
 16 24  2  0  0  0  0
 17 22  2  0  0  0  0
 17 34  1  0  0  0  0
 18 22  1  0  0  0  0
 18 35  1  0  0  0  0
 19 25  2  0  0  0  0
 21 23  2  0  0  0  0
 22 37  1  0  0  0  0
 23 38  1  0  0  0  0
 24 26  1  0  0  0  0
 24 39  1  0  0  0  0
 25 27  1  0  0  0  0
 25 40  1  0  0  0  0
 26 27  2  0  0  0  0
 26 41  1  0  0  0  0
 27 42  1  0  0  0  0
 28 29  1  0  0  0  0
 28 43  1  0  0  0  0
 28 44  1  0  0  0  0
 29 45  1  0  0  0  0
 29 46  1  0  0  0  0
 29 47  1  0  0  0  0
M  END
> <PUBCHEM_COMPOUND_CID>
16453202

> <PUBCHEM_CONFORMER_RMSD>
1

> <PUBCHEM_CONFORMER_DIVERSEORDER>
1
17
89
9
47
95
66
26
36
88
58
61
84
45
100
85
53
44
82
69
25
96
56
73
60
57
14
42
50
77
16
52
78
90
76
32
93
28
46
68
51
71
41
92
34
83
40
27
99
62
101
67
29
65
86
18
48
23
74
79
94
15
87
63
31
98
2
37
22
70
54
59
35
20
97
6
49
19
33
13
39
72
38
81
55
21
8
80
12
30
24
91
64
75
11
4
10
43
7
3
5

> <PUBCHEM_MMFF94_PARTIAL_CHARGES>
39
1 -0.18
10 0.25
11 -0.14
12 0.61
13 -0.15
14 -0.15
15 0.4
16 0.12
17 -0.15
18 -0.15
19 0.08
2 1.2
20 0.54
21 0.18
22 -0.15
23 0.16
24 -0.15
25 -0.15
26 -0.15
27 -0.15
28 0.28
3 -0.65
32 0.15
33 0.15
34 0.15
35 0.15
36 0.37
37 0.15
38 0.15
39 0.15
4 -0.65
40 0.15
41 0.15
42 0.15
5 -0.36
6 -0.57
7 -0.62
8 -0.62
9 -0.55

> <PUBCHEM_EFFECTIVE_ROTOR_COUNT>
8

> <PUBCHEM_PHARMACOPHORE_FEATURES>
10
1 3 acceptor
1 4 acceptor
1 5 acceptor
1 6 acceptor
1 7 acceptor
1 9 donor
3 7 8 12 cation
6 11 13 14 17 18 22 rings
6 16 19 24 25 26 27 rings
6 7 8 12 15 21 23 rings

> <PUBCHEM_HEAVY_ATOM_COUNT>
29

> <PUBCHEM_ATOM_DEF_STEREO_COUNT>
0

> <PUBCHEM_ATOM_UDEF_STEREO_COUNT>
0

> <PUBCHEM_BOND_DEF_STEREO_COUNT>
0

> <PUBCHEM_BOND_UDEF_STEREO_COUNT>
0

> <PUBCHEM_ISOTOPIC_ATOM_COUNT>
0

> <PUBCHEM_COMPONENT_COUNT>
1

> <PUBCHEM_CACTVS_TAUTO_COUNT>
2

> <PUBCHEM_CONFORMER_ID>
00FB0E5200000001

> <PUBCHEM_MMFF94_ENERGY>
83.1449

> <PUBCHEM_FEATURE_SELFOVERLAP>
50.766

> <PUBCHEM_SHAPE_FINGERPRINT>
10622 236 17627210588636946679
10675989 125 16111185453418687671
10688039 33 18335136466980140662
10838868 158 18049457945843344594
11135609 12 18335699455503949785
11135926 11 18048029967473599757
11828532 37 17605565551219379563
12107183 9 18339657655110667953
12422481 6 17989212512448304479
13402501 40 18125996070895216038
14114206 34 16950847998841963721
14429380 30 18334575720387244234
14725015 67 18336539452270266435
14863182 85 18046913963456522996
17492 89 18336263552498254601
19301679 30 18338245976753877211
19315092 285 17130972334941016803
19319366 153 17765155364206315477
1979834 28 18123466339395311169
20775530 9 18413389838846504753
21033650 10 15936672797455879853
21133410 58 18192135213629073895
21307412 95 18192987128385246341
21796203 349 18194993887429669562
23559900 14 18338503197454674521
23572383 38 18338505335968164191
3421961 26 18337390564300635905
345986 75 17916319388658228065
373842 8 18052816146364823807
4280585 95 18189603969613559336
437795 96 18053098428488918071
49967989 163 16544423189818274478
508706 21 18051129190304562470
5309563 4 18410854356554039215
56633871 153 18268159656228999705

> <PUBCHEM_SHAPE_MULTIPOLES>
564.11
12.71
5.96
1.43
7.33
4.07
-0.07
-13.89
-4.11
-3.21
2.17
0.21
-0.78
0.55

> <PUBCHEM_SHAPE_SELFOVERLAP>
1193.069

> <PUBCHEM_SHAPE_VOLUME>
316.7

> <PUBCHEM_COORDINATE_TYPE>
2
5
10

$$$$
