2892697
  -OEChem-01171809453D

 37 39  0     0  0  0  0  0  0999 V2000
    6.3456   -0.7758   -0.4012 O   0  5  0  0  0  0  0  0  0  0  0  0
    5.9492    0.5657    1.2907 O   0  0  0  0  0  0  0  0  0  0  0  0
    0.0275   -0.6072   -0.5957 N   0  0  0  0  0  0  0  0  0  0  0  0
   -3.1280    2.0863    0.0397 N   0  0  0  0  0  0  0  0  0  0  0  0
    5.5498   -0.1536    0.3433 N   0  3  0  0  0  0  0  0  0  0  0  0
   -2.3457   -0.1889   -0.0974 C   0  0  0  0  0  0  0  0  0  0  0  0
   -1.0545    0.2784   -0.3772 C   0  0  0  0  0  0  0  0  0  0  0  0
   -3.3667    0.7628    0.1069 C   0  0  0  0  0  0  0  0  0  0  0  0
   -2.6304   -1.5628   -0.0196 C   0  0  0  0  0  0  0  0  0  0  0  0
   -0.8055    1.6415   -0.4471 C   0  0  0  0  0  0  0  0  0  0  0  0
   -3.9221   -1.9997    0.2598 C   0  0  0  0  0  0  0  0  0  0  0  0
   -1.8679    2.4960   -0.2327 C   0  0  0  0  0  0  0  0  0  0  0  0
   -4.6492    0.2981    0.3848 C   0  0  0  0  0  0  0  0  0  0  0  0
    1.4082   -0.4952   -0.3596 C   0  0  0  0  0  0  0  0  0  0  0  0
   -4.9325   -1.0678    0.4622 C   0  0  0  0  0  0  0  0  0  0  0  0
   -4.2204   -3.4581    0.3410 C   0  0  0  0  0  0  0  0  0  0  0  0
   -1.6469    3.9703   -0.2977 C   0  0  0  0  0  0  0  0  0  0  0  0
    2.3175   -1.1746   -1.1745 C   0  0  0  0  0  0  0  0  0  0  0  0
    1.8793    0.2991    0.6892 C   0  0  0  0  0  0  0  0  0  0  0  0
    3.6882   -1.0607   -0.9421 C   0  0  0  0  0  0  0  0  0  0  0  0
    3.2499    0.4131    0.9214 C   0  0  0  0  0  0  0  0  0  0  0  0
    4.1544   -0.2668    0.1059 C   0  0  0  0  0  0  0  0  0  0  0  0
   -1.8567   -2.3131   -0.1626 H   0  0  0  0  0  0  0  0  0  0  0  0
    0.1737    2.0426   -0.6866 H   0  0  0  0  0  0  0  0  0  0  0  0
   -0.2263   -1.4419   -1.1150 H   0  0  0  0  0  0  0  0  0  0  0  0
   -5.4581    1.0081    0.5478 H   0  0  0  0  0  0  0  0  0  0  0  0
   -5.9478   -1.3863    0.6833 H   0  0  0  0  0  0  0  0  0  0  0  0
   -3.9510   -3.8425    1.3298 H   0  0  0  0  0  0  0  0  0  0  0  0
   -5.2831   -3.6598    0.1682 H   0  0  0  0  0  0  0  0  0  0  0  0
   -3.6609   -4.0139   -0.4193 H   0  0  0  0  0  0  0  0  0  0  0  0
   -2.5760    4.5165   -0.1037 H   0  0  0  0  0  0  0  0  0  0  0  0
   -0.9117    4.2786    0.4524 H   0  0  0  0  0  0  0  0  0  0  0  0
   -1.2876    4.2582   -1.2908 H   0  0  0  0  0  0  0  0  0  0  0  0
    1.9676   -1.7953   -1.9956 H   0  0  0  0  0  0  0  0  0  0  0  0
    1.1985    0.8209    1.3563 H   0  0  0  0  0  0  0  0  0  0  0  0
    4.3633   -1.6047   -1.5978 H   0  0  0  0  0  0  0  0  0  0  0  0
    3.5769    1.0358    1.7503 H   0  0  0  0  0  0  0  0  0  0  0  0
  1  5  1  0  0  0  0
  2  5  2  0  0  0  0
  3  7  1  0  0  0  0
  3 14  1  0  0  0  0
  3 25  1  0  0  0  0
  4  8  2  0  0  0  0
  4 12  1  0  0  0  0
  5 22  1  0  0  0  0
  6  7  2  0  0  0  0
  6  8  1  0  0  0  0
  6  9  1  0  0  0  0
  7 10  1  0  0  0  0
  8 13  1  0  0  0  0
  9 11  2  0  0  0  0
  9 23  1  0  0  0  0
 10 12  2  0  0  0  0
 10 24  1  0  0  0  0
 11 15  1  0  0  0  0
 11 16  1  0  0  0  0
 12 17  1  0  0  0  0
 13 15  2  0  0  0  0
 13 26  1  0  0  0  0
 14 18  2  0  0  0  0
 14 19  1  0  0  0  0
 15 27  1  0  0  0  0
 16 28  1  0  0  0  0
 16 29  1  0  0  0  0
 16 30  1  0  0  0  0
 17 31  1  0  0  0  0
 17 32  1  0  0  0  0
 17 33  1  0  0  0  0
 18 20  1  0  0  0  0
 18 34  1  0  0  0  0
 19 21  2  0  0  0  0
 19 35  1  0  0  0  0
 20 22  2  0  0  0  0
 20 36  1  0  0  0  0
 21 22  1  0  0  0  0
 21 37  1  0  0  0  0
M  CHG  2   1  -1   5   1
M  END
> <PUBCHEM_COMPOUND_CID>
2892697

> <PUBCHEM_CONFORMER_RMSD>
0.6

> <PUBCHEM_CONFORMER_DIVERSEORDER>
1
5
7
4
6
2
8
3

> <PUBCHEM_MMFF94_PARTIAL_CHARGES>
30
1 -0.52
10 -0.15
11 -0.14
12 0.17
13 -0.15
14 0.1
15 -0.15
16 0.14
17 0.14
18 -0.15
19 -0.15
2 -0.52
20 -0.15
21 -0.15
22 0.13
23 0.15
24 0.15
25 0.4
26 0.15
27 0.15
3 -0.6
34 0.15
35 0.15
36 0.15
37 0.15
4 -0.62
5 0.91
7 0.1
8 0.31
9 -0.15

> <PUBCHEM_EFFECTIVE_ROTOR_COUNT>
3

> <PUBCHEM_PHARMACOPHORE_FEATURES>
9
1 1 acceptor
1 1 anion
1 2 acceptor
1 3 cation
1 3 donor
1 4 acceptor
6 14 18 19 20 21 22 rings
6 4 6 7 8 10 12 rings
6 6 8 9 11 13 15 rings

> <PUBCHEM_HEAVY_ATOM_COUNT>
22

> <PUBCHEM_ATOM_DEF_STEREO_COUNT>
0

> <PUBCHEM_ATOM_UDEF_STEREO_COUNT>
0

> <PUBCHEM_BOND_DEF_STEREO_COUNT>
0

> <PUBCHEM_BOND_UDEF_STEREO_COUNT>
0

> <PUBCHEM_ISOTOPIC_ATOM_COUNT>
0

> <PUBCHEM_COMPONENT_COUNT>
1

> <PUBCHEM_CACTVS_TAUTO_COUNT>
8

> <PUBCHEM_CONFORMER_ID>
002C239900000001

> <PUBCHEM_MMFF94_ENERGY>
85.2493

> <PUBCHEM_FEATURE_SELFOVERLAP>
45.783

> <PUBCHEM_SHAPE_FINGERPRINT>
10 15 18200863072536310370
10319926 262 18267571422119812922
10366900 7 18130210584858643441
10369192 42 17489024989707876044
10411042 1 18265336299643252795
11056379 131 18336552611854356172
11315181 36 18040155123756315964
11370993 144 17560253409658496955
11595378 159 18187352200017405280
12107183 9 17468467124027988594
12173636 292 18048598114812066637
12236239 1 17240202118900222914
12403259 415 17917422130301590960
12596602 18 17749380478136092680
12616971 3 17313394430175404375
13140716 1 18339367473965916961
13402501 40 18273495675872933058
13540713 5 17980496864965001003
14081887 123 18410289177601917835
14178342 30 18261957323731512126
14341114 176 18412547596118546168
14844126 61 18334859454759612371
15099037 37 18411417310591067567
15961568 22 18263083370169201884
17138139 8 17024584723065719659
17349148 13 16877663461404223666
17844677 252 18410580561574835704
1813 80 17749395888077577333
18927931 339 18409735066712745519
19141452 34 18201163230505174663
19433438 28 18343298155046879584
200 152 15429752878084556262
20510252 161 18198062482802111769
20600515 1 18270699622758063389
20693207 138 17843144518395728462
21033648 29 17560785603166437376
21033650 10 17973754418702211676
21065201 7 18339081476214550766
21267235 1 18335146431699854219
21650355 55 18409168827193832605
21792961 116 17917716752473823070
22122407 14 15913337913766566867
2297311 6 18411145727003167340
23366157 5 17682124618922708373
23402539 116 18333446560214958950
23557571 272 18341897359409950860
23559900 14 18412261714046382389
23845131 108 17476094427901597441
283562 15 18196369213927259537
314173 85 18411708703201288855
335352 9 18408603682965641599
4214541 1 18411702045622165392
4409770 3 18187918436196178413
5104073 3 18271803455080624714
67856867 119 18115033033902789876
7495541 125 18341613750425091008
9709674 26 18270967812852373095

> <PUBCHEM_SHAPE_MULTIPOLES>
426.07
12.54
3.12
0.91
15.34
1.82
0.02
-5.52
2.65
-5.14
-0.23
0.8
-0.07
1.08

> <PUBCHEM_SHAPE_SELFOVERLAP>
936.865

> <PUBCHEM_SHAPE_VOLUME>
230.5

> <PUBCHEM_COORDINATE_TYPE>
2
5
10

$$$$
