12004871
  -OEChem-01171809333D

 43 46  0     0  0  0  0  0  0999 V2000
    2.4868   -2.0602    1.0207 F   0  0  0  0  0  0  0  0  0  0  0  0
   -3.4160   -2.3436   -0.4449 O   0  0  0  0  0  0  0  0  0  0  0  0
    2.2918    1.8651    0.6115 O   0  0  0  0  0  0  0  0  0  0  0  0
    8.1174   -0.0143   -0.7704 O   0  5  0  0  0  0  0  0  0  0  0  0
    6.9552    1.8359   -0.9830 O   0  0  0  0  0  0  0  0  0  0  0  0
   -4.9722   -0.6049   -0.2745 N   0  0  0  0  0  0  0  0  0  0  0  0
   -4.2297    1.5977    0.2088 N   0  0  0  0  0  0  0  0  0  0  0  0
    1.1031   -0.1134    0.1640 N   0  0  0  0  0  0  0  0  0  0  0  0
    7.0369    0.6186   -0.6894 N   0  3  0  0  0  0  0  0  0  0  0  0
   -7.4152   -0.9198   -0.7766 C   0  0  0  0  0  0  0  0  0  0  0  0
   -7.6767    0.2479    0.1525 C   0  0  0  0  0  0  0  0  0  0  0  0
   -6.0830   -1.5509   -0.4181 C   0  0  0  0  0  0  0  0  0  0  0  0
   -6.5962    1.2891   -0.0514 C   0  0  0  0  0  0  0  0  0  0  0  0
   -5.1808    0.7436   -0.0125 C   0  0  0  0  0  0  0  0  0  0  0  0
   -3.6794   -1.1552   -0.2812 C   0  0  0  0  0  0  0  0  0  0  0  0
   -2.5820   -0.1947   -0.0469 C   0  0  0  0  0  0  0  0  0  0  0  0
   -2.9053    1.1421    0.1958 C   0  0  0  0  0  0  0  0  0  0  0  0
   -1.2488   -0.6194   -0.0583 C   0  0  0  0  0  0  0  0  0  0  0  0
   -1.8710    2.0560    0.4274 C   0  0  0  0  0  0  0  0  0  0  0  0
   -0.2289    0.3023    0.1738 C   0  0  0  0  0  0  0  0  0  0  0  0
   -0.5391    1.6386    0.4167 C   0  0  0  0  0  0  0  0  0  0  0  0
    2.2503    0.6624    0.3757 C   0  0  0  0  0  0  0  0  0  0  0  0
    3.5410   -0.0678    0.2732 C   0  0  0  0  0  0  0  0  0  0  0  0
    4.6583    0.6188   -0.1541 C   0  0  0  0  0  0  0  0  0  0  0  0
    3.5808   -1.4053    0.6066 C   0  0  0  0  0  0  0  0  0  0  0  0
    5.8709   -0.0636   -0.2524 C   0  0  0  0  0  0  0  0  0  0  0  0
    4.7933   -2.0877    0.5083 C   0  0  0  0  0  0  0  0  0  0  0  0
    5.9385   -1.4168    0.0788 C   0  0  0  0  0  0  0  0  0  0  0  0
   -8.2153   -1.6631   -0.6917 H   0  0  0  0  0  0  0  0  0  0  0  0
   -7.3996   -0.5747   -1.8176 H   0  0  0  0  0  0  0  0  0  0  0  0
   -7.6823   -0.0930    1.1949 H   0  0  0  0  0  0  0  0  0  0  0  0
   -8.6598    0.6845   -0.0540 H   0  0  0  0  0  0  0  0  0  0  0  0
   -6.1654   -2.0799    0.5402 H   0  0  0  0  0  0  0  0  0  0  0  0
   -5.8180   -2.3040   -1.1696 H   0  0  0  0  0  0  0  0  0  0  0  0
   -6.6932    2.0764    0.7053 H   0  0  0  0  0  0  0  0  0  0  0  0
   -6.7241    1.7723   -1.0284 H   0  0  0  0  0  0  0  0  0  0  0  0
   -1.0015   -1.6615   -0.2461 H   0  0  0  0  0  0  0  0  0  0  0  0
   -2.0991    3.1022    0.6172 H   0  0  0  0  0  0  0  0  0  0  0  0
    0.1922    2.4117    0.6048 H   0  0  0  0  0  0  0  0  0  0  0  0
    1.2327   -1.1004   -0.0446 H   0  0  0  0  0  0  0  0  0  0  0  0
    4.5849    1.6712   -0.4148 H   0  0  0  0  0  0  0  0  0  0  0  0
    4.8451   -3.1414    0.7663 H   0  0  0  0  0  0  0  0  0  0  0  0
    6.8655   -1.9807    0.0145 H   0  0  0  0  0  0  0  0  0  0  0  0
  1 25  1  0  0  0  0
  2 15  2  0  0  0  0
  3 22  2  0  0  0  0
  4  9  1  0  0  0  0
  5  9  2  0  0  0  0
  6 12  1  0  0  0  0
  6 14  1  0  0  0  0
  6 15  1  0  0  0  0
  7 14  2  0  0  0  0
  7 17  1  0  0  0  0
  8 20  1  0  0  0  0
  8 22  1  0  0  0  0
  8 40  1  0  0  0  0
  9 26  1  0  0  0  0
 10 11  1  0  0  0  0
 10 12  1  0  0  0  0
 10 29  1  0  0  0  0
 10 30  1  0  0  0  0
 11 13  1  0  0  0  0
 11 31  1  0  0  0  0
 11 32  1  0  0  0  0
 12 33  1  0  0  0  0
 12 34  1  0  0  0  0
 13 14  1  0  0  0  0
 13 35  1  0  0  0  0
 13 36  1  0  0  0  0
 15 16  1  0  0  0  0
 16 17  2  0  0  0  0
 16 18  1  0  0  0  0
 17 19  1  0  0  0  0
 18 20  2  0  0  0  0
 18 37  1  0  0  0  0
 19 21  2  0  0  0  0
 19 38  1  0  0  0  0
 20 21  1  0  0  0  0
 21 39  1  0  0  0  0
 22 23  1  0  0  0  0
 23 24  1  0  0  0  0
 23 25  2  0  0  0  0
 24 26  2  0  0  0  0
 24 41  1  0  0  0  0
 25 27  1  0  0  0  0
 26 28  1  0  0  0  0
 27 28  2  0  0  0  0
 27 42  1  0  0  0  0
 28 43  1  0  0  0  0
M  CHG  2   4  -1   9   1
M  END
> <PUBCHEM_COMPOUND_CID>
12004871

> <PUBCHEM_CONFORMER_RMSD>
0.8

> <PUBCHEM_CONFORMER_DIVERSEORDER>
2
12
6
4
10
5
8
1
11
7
3
9

> <PUBCHEM_MMFF94_PARTIAL_CHARGES>
33
1 -0.19
12 0.3
13 0.06
14 0.45
15 0.54
16 0.09
17 0.18
18 -0.15
19 -0.15
2 -0.57
20 0.12
21 -0.15
22 0.54
23 0.09
24 -0.15
25 0.19
26 0.13
27 -0.15
28 -0.15
3 -0.57
37 0.15
38 0.15
39 0.15
4 -0.52
40 0.37
41 0.15
42 0.15
43 0.15
5 -0.52
6 -0.42
7 -0.63
8 -0.55
9 0.91

> <PUBCHEM_EFFECTIVE_ROTOR_COUNT>
4.8

> <PUBCHEM_PHARMACOPHORE_FEATURES>
10
1 2 acceptor
1 3 acceptor
1 4 acceptor
1 4 anion
1 5 acceptor
1 8 donor
6 16 17 18 19 20 21 rings
6 23 24 25 26 27 28 rings
6 6 10 11 12 13 14 rings
6 6 7 14 15 16 17 rings

> <PUBCHEM_HEAVY_ATOM_COUNT>
28

> <PUBCHEM_ATOM_DEF_STEREO_COUNT>
0

> <PUBCHEM_ATOM_UDEF_STEREO_COUNT>
0

> <PUBCHEM_BOND_DEF_STEREO_COUNT>
0

> <PUBCHEM_BOND_UDEF_STEREO_COUNT>
0

> <PUBCHEM_ISOTOPIC_ATOM_COUNT>
0

> <PUBCHEM_COMPONENT_COUNT>
1

> <PUBCHEM_CACTVS_TAUTO_COUNT>
2

> <PUBCHEM_CONFORMER_ID>
00B72E0700000002

> <PUBCHEM_MMFF94_ENERGY>
84.1044

> <PUBCHEM_FEATURE_SELFOVERLAP>
50.885

> <PUBCHEM_SHAPE_FINGERPRINT>
10299344 5 18411138026153302607
10595046 47 18336547127639964040
10968037 39 18408040711004600975
11315181 36 18060705000786075033
11524674 6 16271923831392614431
117089 54 17974855270598330243
11963148 33 18202273706536391415
12107183 9 17545036001215660800
12166972 35 18335139800001765597
12236239 1 18334294245014407168
12516196 113 18060133245448167872
13288520 33 18343863329983413517
13533116 47 18335696101076462834
14251764 18 18341892991728624683
14617045 38 18412545401052946523
14933364 13 18408885135665811533
15183329 4 18413107251483865995
15247644 1 15769780143894612238
15301273 46 15841555162784992608
15419008 47 15410892933779954379
15439362 3 17972324190330481460
15461852 350 17704063003054849197
1577012 14 18337673018693368369
15849732 13 17749109985321841775
15927050 60 17554035928917163376
16087824 20 18340206277401796953
18335252 98 18114188544721942283
18681886 176 18272082829190443408
2026 5 16772404916219207726
20554085 129 14345789483282779432
21150785 3 18040998448837398460
21267235 1 18341051900141429465
21781055 127 16844752884178845969
23516275 137 18197800841526315466
23522609 53 18197244522975810936
23559900 14 18341886437419121089
2838139 119 8646769976376081683
3004659 81 18408881849688984105
335352 9 18341607119544264253
34797466 226 16917066681727513328
350125 39 18411417293611898601
397830 11 14978808052830098439
4017518 198 16845294951268526343
4073 2 17968100866934877514
4098825 35 18186236208357917653
4325135 7 18407761435114423694
497634 4 18411137991720211613
5265222 85 18130223869034507470
59755656 215 18272654527929274495
999808 66 18113910381687366955

> <PUBCHEM_SHAPE_MULTIPOLES>
525.55
22.82
2.11
0.78
5.57
0.22
0.02
1.87
5.32
0.01
-0.16
0.45
0.02
-1.54

> <PUBCHEM_SHAPE_SELFOVERLAP>
1165.591

> <PUBCHEM_SHAPE_VOLUME>
279.4

> <PUBCHEM_COORDINATE_TYPE>
2
5
10

$$$$
