19654240
  -OEChem-01171810063D

 46 48  0     0  0  0  0  0  0999 V2000
    7.4717    1.1629   -0.7638 Cl  0  0  0  0  0  0  0  0  0  0  0  0
    5.5911   -3.6970    0.6416 Cl  0  0  0  0  0  0  0  0  0  0  0  0
    2.4020    2.2584   -1.7757 S   0  0  0  0  0  0  0  0  0  0  0  0
   -3.0518    0.9247    0.3979 N   0  0  0  0  0  0  0  0  0  0  0  0
    0.5334    1.6211   -0.0454 N   0  0  0  0  0  0  0  0  0  0  0  0
    2.4974    0.3864    0.2600 N   0  0  0  0  0  0  0  0  0  0  0  0
   -0.1811    0.9670    1.0279 C   0  0  0  0  0  0  0  0  0  0  0  0
   -0.8982   -0.2894    0.5283 C   0  0  0  0  0  0  0  0  0  0  0  0
   -1.1843    1.9187    1.6838 C   0  0  0  0  0  0  0  0  0  0  0  0
   -2.1233    0.0474   -0.3276 C   0  0  0  0  0  0  0  0  0  0  0  0
   -2.4001    2.1816    0.7896 C   0  0  0  0  0  0  0  0  0  0  0  0
   -4.2398    1.1943   -0.4117 C   0  0  0  0  0  0  0  0  0  0  0  0
   -5.2246    0.0567   -0.3591 C   0  0  0  0  0  0  0  0  0  0  0  0
    1.8400    1.3764   -0.4613 C   0  0  0  0  0  0  0  0  0  0  0  0
   -5.1444   -0.9788   -1.2903 C   0  0  0  0  0  0  0  0  0  0  0  0
   -6.2170    0.0378    0.6211 C   0  0  0  0  0  0  0  0  0  0  0  0
   -6.0565   -2.0330   -1.2415 C   0  0  0  0  0  0  0  0  0  0  0  0
   -7.1290   -1.0165    0.6699 C   0  0  0  0  0  0  0  0  0  0  0  0
   -7.0487   -2.0519   -0.2615 C   0  0  0  0  0  0  0  0  0  0  0  0
    3.8068   -0.1500    0.1557 C   0  0  0  0  0  0  0  0  0  0  0  0
    4.0293   -1.5014    0.4190 C   0  0  0  0  0  0  0  0  0  0  0  0
    4.8713    0.6737   -0.2105 C   0  0  0  0  0  0  0  0  0  0  0  0
    6.1584    0.1459   -0.3131 C   0  0  0  0  0  0  0  0  0  0  0  0
    5.3163   -2.0293    0.3164 C   0  0  0  0  0  0  0  0  0  0  0  0
    6.3810   -1.2057   -0.0497 C   0  0  0  0  0  0  0  0  0  0  0  0
    0.5358    0.6881    1.8073 H   0  0  0  0  0  0  0  0  0  0  0  0
   -1.2230   -0.8818    1.3940 H   0  0  0  0  0  0  0  0  0  0  0  0
   -0.2164   -0.9242   -0.0498 H   0  0  0  0  0  0  0  0  0  0  0  0
   -0.7016    2.8718    1.9319 H   0  0  0  0  0  0  0  0  0  0  0  0
   -1.5285    1.4805    2.6300 H   0  0  0  0  0  0  0  0  0  0  0  0
   -2.5939   -0.9089   -0.5720 H   0  0  0  0  0  0  0  0  0  0  0  0
   -1.8021    0.5051   -1.2725 H   0  0  0  0  0  0  0  0  0  0  0  0
   -2.1062    2.7629   -0.0936 H   0  0  0  0  0  0  0  0  0  0  0  0
   -3.1032    2.8005    1.3610 H   0  0  0  0  0  0  0  0  0  0  0  0
   -4.7626    2.0861   -0.0377 H   0  0  0  0  0  0  0  0  0  0  0  0
   -3.9835    1.4359   -1.4527 H   0  0  0  0  0  0  0  0  0  0  0  0
    0.0216    2.3074   -0.5915 H   0  0  0  0  0  0  0  0  0  0  0  0
   -4.3890   -0.9714   -2.0714 H   0  0  0  0  0  0  0  0  0  0  0  0
   -6.2894    0.8368    1.3542 H   0  0  0  0  0  0  0  0  0  0  0  0
    1.8853   -0.2346    0.7800 H   0  0  0  0  0  0  0  0  0  0  0  0
   -5.9966   -2.8372   -1.9691 H   0  0  0  0  0  0  0  0  0  0  0  0
   -7.9015   -1.0316    1.4332 H   0  0  0  0  0  0  0  0  0  0  0  0
   -7.7594   -2.8723   -0.2240 H   0  0  0  0  0  0  0  0  0  0  0  0
    3.1982   -2.1434    0.7032 H   0  0  0  0  0  0  0  0  0  0  0  0
    4.7429    1.7409   -0.3548 H   0  0  0  0  0  0  0  0  0  0  0  0
    7.3848   -1.6174   -0.1295 H   0  0  0  0  0  0  0  0  0  0  0  0
  1 23  1  0  0  0  0
  2 24  1  0  0  0  0
  3 14  2  0  0  0  0
  4 10  1  0  0  0  0
  4 11  1  0  0  0  0
  4 12  1  0  0  0  0
  5  7  1  0  0  0  0
  5 14  1  0  0  0  0
  5 37  1  0  0  0  0
  6 14  1  0  0  0  0
  6 20  1  0  0  0  0
  6 40  1  0  0  0  0
  7  8  1  0  0  0  0
  7  9  1  0  0  0  0
  7 26  1  0  0  0  0
  8 10  1  0  0  0  0
  8 27  1  0  0  0  0
  8 28  1  0  0  0  0
  9 11  1  0  0  0  0
  9 29  1  0  0  0  0
  9 30  1  0  0  0  0
 10 31  1  0  0  0  0
 10 32  1  0  0  0  0
 11 33  1  0  0  0  0
 11 34  1  0  0  0  0
 12 13  1  0  0  0  0
 12 35  1  0  0  0  0
 12 36  1  0  0  0  0
 13 15  2  0  0  0  0
 13 16  1  0  0  0  0
 15 17  1  0  0  0  0
 15 38  1  0  0  0  0
 16 18  2  0  0  0  0
 16 39  1  0  0  0  0
 17 19  2  0  0  0  0
 17 41  1  0  0  0  0
 18 19  1  0  0  0  0
 18 42  1  0  0  0  0
 19 43  1  0  0  0  0
 20 21  2  0  0  0  0
 20 22  1  0  0  0  0
 21 24  1  0  0  0  0
 21 44  1  0  0  0  0
 22 23  2  0  0  0  0
 22 45  1  0  0  0  0
 23 25  1  0  0  0  0
 24 25  2  0  0  0  0
 25 46  1  0  0  0  0
M  END
> <PUBCHEM_COMPOUND_CID>
19654240

> <PUBCHEM_CONFORMER_RMSD>
0.8

> <PUBCHEM_CONFORMER_DIVERSEORDER>
2
192
73
75
127
120
104
163
51
8
119
114
76
28
106
83
108
68
52
161
72
149
188
136
156
85
164
10
193
98
70
110
111
165
25
178
99
171
24
170
151
96
160
6
147
84
87
179
154
146
130
137
94
145
166
81
90
139
140
100
135
107
1
134
121
123
102
112
93
7
126
175
23
109
3
143
113
150
63
46
56
41
92
180
185
38
191
167
71
141
95
45
157
44
169
152
20
190
132
36
37
181
55
91
118
148
129
58
88
15
16
49
115
77
128
131
162
53
159
67
42
66
57
54
142
80
144
183
33
74
21
186
5
174
124
172
65
155
27
40
101
189
64
125
177
89
18
97
9
182
79
34
19
82
138
61
29
39
26
62
117
122
168
78
103
14
187
184
30
22
158
50
60
116
43
17
48
31
32
86
153
59
133
69
11
35
12
4
105
176
47
173
13

> <PUBCHEM_MMFF94_PARTIAL_CHARGES>
33
1 -0.18
10 0.27
11 0.27
12 0.41
13 -0.14
14 0.5
15 -0.15
16 -0.15
17 -0.15
18 -0.15
19 -0.15
2 -0.18
20 0.12
21 -0.15
22 -0.15
23 0.18
24 0.18
25 -0.15
3 -0.38
37 0.37
38 0.15
39 0.15
4 -0.81
40 0.37
41 0.15
42 0.15
43 0.15
44 0.15
45 0.15
46 0.15
5 -0.73
6 -0.55
7 0.3

> <PUBCHEM_EFFECTIVE_ROTOR_COUNT>
7.2

> <PUBCHEM_PHARMACOPHORE_FEATURES>
7
1 3 acceptor
1 4 cation
1 5 donor
1 6 donor
6 13 15 16 17 18 19 rings
6 20 21 22 23 24 25 rings
6 4 7 8 9 10 11 rings

> <PUBCHEM_HEAVY_ATOM_COUNT>
25

> <PUBCHEM_ATOM_DEF_STEREO_COUNT>
0

> <PUBCHEM_ATOM_UDEF_STEREO_COUNT>
0

> <PUBCHEM_BOND_DEF_STEREO_COUNT>
0

> <PUBCHEM_BOND_UDEF_STEREO_COUNT>
0

> <PUBCHEM_ISOTOPIC_ATOM_COUNT>
0

> <PUBCHEM_COMPONENT_COUNT>
1

> <PUBCHEM_CACTVS_TAUTO_COUNT>
3

> <PUBCHEM_CONFORMER_ID>
012BE66000000002

> <PUBCHEM_MMFF94_ENERGY>
66.4121

> <PUBCHEM_FEATURE_SELFOVERLAP>
35.564

> <PUBCHEM_SHAPE_FINGERPRINT>
10 15 10231755626463538157
10299344 5 18343586256741558787
10595046 47 18411420579736646872
10670039 82 14129328581797945575
10693767 8 18114456756898120090
11089746 13 11097858509983143985
11497681 19 18339082580537974446
11524674 6 15913325814996401807
117089 54 17974292316286625107
11991303 11 15068914096046842475
12144603 126 18342751714457880905
12166972 35 18409167727033956012
12236239 1 18411983525057588120
12516196 113 18343863312503182568
12760667 363 18342177782736794139
13533116 47 18411982490102481520
1361 2 18261111864052268202
1361 4 18410011048178793227
13668630 136 18342460314037946462
13692114 37 18410287031142481634
13782708 43 18187077347854059835
14211702 104 18271812272010575702
14347332 77 18410291385236661677
15183329 4 18113332029126581819
15348495 7 14692277500132521671
15728490 51 18201434818392875388
17134984 74 17749387083358152234
17780758 139 17275107232996087361
18335252 98 18333736839911484962
18365409 1 18195250147239428694
19958102 18 18040995146245294859
20028762 73 18267861680321227778
20567600 247 18411414029705948027
21150785 3 18113901584839917984
21267235 1 18202006542168273976
21585483 132 18337653283604441075
23522609 53 18127159500533324977
23559900 14 18114464581848296801
2748736 6 10881398729702318163
2838139 119 11530483346090953423
3004659 81 18335416902379378857
397830 11 13398051163438897695
439807 62 18410855486805521911
44880568 143 16732980894889157996
46194498 28 17385441055215213292
465052 167 17632577150182827948
5104073 3 17489867137619273529
54039377 194 18340772628282923575
5470011 282 18114180856355858111
59682541 52 17822291309685915204
6004065 56 18187648046335022264
96874 4 18412537700187400671
999808 66 18261401087624793267

> <PUBCHEM_SHAPE_MULTIPOLES>
507.13
22.47
2.91
1.22
4.98
1.73
-0.12
13.74
-3.25
-2.69
0.08
0.67
-0.42
-2.7

> <PUBCHEM_SHAPE_SELFOVERLAP>
1038.457

> <PUBCHEM_SHAPE_VOLUME>
294.1

> <PUBCHEM_COORDINATE_TYPE>
2
5
10

$$$$
