16022986
  -OEChem-01171810043D

 68 72  0     0  0  0  0  0  0999 V2000
   -4.1534   -0.7555   -2.0813 O   0  0  0  0  0  0  0  0  0  0  0  0
    5.6450   -4.8130    0.0050 O   0  0  0  0  0  0  0  0  0  0  0  0
   -0.6808    1.7890   -0.1506 N   0  0  0  0  0  0  0  0  0  0  0  0
   -5.2531   -0.7631   -0.0294 N   0  0  0  0  0  0  0  0  0  0  0  0
    0.7524    3.7438    0.0892 N   0  0  0  0  0  0  0  0  0  0  0  0
    3.3592    0.2256    0.1086 N   0  0  0  0  0  0  0  0  0  0  0  0
    2.0205    0.3434   -0.0006 N   0  0  0  0  0  0  0  0  0  0  0  0
    2.0487    4.4048    0.2406 N   0  0  0  0  0  0  0  0  0  0  0  0
   -6.3121   -1.6851   -0.3757 C   0  0  0  0  0  0  0  0  0  0  0  0
   -3.3075    0.6026   -0.3117 C   0  0  0  0  0  0  0  0  0  0  0  0
   -7.5067   -0.9468   -0.9889 C   0  0  0  0  0  0  0  0  0  0  0  0
   -6.7371   -2.5169    0.8391 C   0  0  0  0  0  0  0  0  0  0  0  0
   -2.1394   -0.1353    0.3381 C   0  0  0  0  0  0  0  0  0  0  0  0
   -2.7923    1.5468   -1.3953 C   0  0  0  0  0  0  0  0  0  0  0  0
   -8.2805   -0.1271    0.0437 C   0  0  0  0  0  0  0  0  0  0  0  0
   -7.5123   -1.6947    1.8686 C   0  0  0  0  0  0  0  0  0  0  0  0
   -8.7023   -0.9787    1.2371 C   0  0  0  0  0  0  0  0  0  0  0  0
   -1.1044    0.8423    0.8911 C   0  0  0  0  0  0  0  0  0  0  0  0
   -1.7496    2.5179   -0.8428 C   0  0  0  0  0  0  0  0  0  0  0  0
   -4.2630   -0.3784   -0.9175 C   0  0  0  0  0  0  0  0  0  0  0  0
    0.5774    2.3860   -0.0058 C   0  0  0  0  0  0  0  0  0  0  0  0
    1.7905    1.6665    0.0572 C   0  0  0  0  0  0  0  0  0  0  0  0
    3.0480    2.3564    0.2068 C   0  0  0  0  0  0  0  0  0  0  0  0
    4.0291    1.4082    0.2359 C   0  0  0  0  0  0  0  0  0  0  0  0
    3.2265    3.7281    0.3029 C   0  0  0  0  0  0  0  0  0  0  0  0
    5.4981    1.4909    0.3693 C   0  0  0  0  0  0  0  0  0  0  0  0
    3.9359   -1.0453    0.0824 C   0  0  0  0  0  0  0  0  0  0  0  0
    4.4899    4.4918    0.4558 C   0  0  0  0  0  0  0  0  0  0  0  0
    5.2183   -1.2046   -0.4250 C   0  0  0  0  0  0  0  0  0  0  0  0
    3.2185   -2.1323    0.5638 C   0  0  0  0  0  0  0  0  0  0  0  0
    5.7943   -2.4749   -0.4514 C   0  0  0  0  0  0  0  0  0  0  0  0
    3.7947   -3.4024    0.5374 C   0  0  0  0  0  0  0  0  0  0  0  0
    5.0825   -3.5737    0.0298 C   0  0  0  0  0  0  0  0  0  0  0  0
    6.9651   -4.9163   -0.5264 C   0  0  0  0  0  0  0  0  0  0  0  0
   -5.9097   -2.3685   -1.1338 H   0  0  0  0  0  0  0  0  0  0  0  0
   -3.8278    1.2008    0.4480 H   0  0  0  0  0  0  0  0  0  0  0  0
   -7.1769   -0.2879   -1.8012 H   0  0  0  0  0  0  0  0  0  0  0  0
   -8.1880   -1.6824   -1.4354 H   0  0  0  0  0  0  0  0  0  0  0  0
   -5.8591   -2.9655    1.3192 H   0  0  0  0  0  0  0  0  0  0  0  0
   -7.3720   -3.3451    0.4994 H   0  0  0  0  0  0  0  0  0  0  0  0
   -1.6594   -0.7961   -0.3964 H   0  0  0  0  0  0  0  0  0  0  0  0
   -2.5002   -0.7820    1.1471 H   0  0  0  0  0  0  0  0  0  0  0  0
   -3.6229    2.1115   -1.8361 H   0  0  0  0  0  0  0  0  0  0  0  0
   -2.3337    0.9756   -2.2139 H   0  0  0  0  0  0  0  0  0  0  0  0
   -7.6618    0.7092    0.3910 H   0  0  0  0  0  0  0  0  0  0  0  0
   -9.1684    0.3104   -0.4269 H   0  0  0  0  0  0  0  0  0  0  0  0
   -7.8668   -2.3548    2.6688 H   0  0  0  0  0  0  0  0  0  0  0  0
   -6.8498   -0.9597    2.3406 H   0  0  0  0  0  0  0  0  0  0  0  0
   -1.5311    1.4030    1.7325 H   0  0  0  0  0  0  0  0  0  0  0  0
   -0.2660    0.2621    1.2904 H   0  0  0  0  0  0  0  0  0  0  0  0
   -1.3389    3.0973   -1.6789 H   0  0  0  0  0  0  0  0  0  0  0  0
   -2.2202    3.2258   -0.1495 H   0  0  0  0  0  0  0  0  0  0  0  0
   -9.1929   -0.3472    1.9862 H   0  0  0  0  0  0  0  0  0  0  0  0
   -9.4422   -1.7204    0.9114 H   0  0  0  0  0  0  0  0  0  0  0  0
   -5.2701   -0.3446    0.8957 H   0  0  0  0  0  0  0  0  0  0  0  0
    5.9887    1.6002   -0.6025 H   0  0  0  0  0  0  0  0  0  0  0  0
    5.7860    2.3670    0.9554 H   0  0  0  0  0  0  0  0  0  0  0  0
    5.9387    0.6772    0.9517 H   0  0  0  0  0  0  0  0  0  0  0  0
    4.9192    4.3313    1.4487 H   0  0  0  0  0  0  0  0  0  0  0  0
    4.2989    5.5657    0.3530 H   0  0  0  0  0  0  0  0  0  0  0  0
    5.2129    4.2183   -0.3177 H   0  0  0  0  0  0  0  0  0  0  0  0
    5.7741   -0.4339   -0.9411 H   0  0  0  0  0  0  0  0  0  0  0  0
    2.2182   -2.0296    0.9760 H   0  0  0  0  0  0  0  0  0  0  0  0
    6.7857   -2.5429   -0.8864 H   0  0  0  0  0  0  0  0  0  0  0  0
    3.2366   -4.2544    0.9161 H   0  0  0  0  0  0  0  0  0  0  0  0
    7.6857   -4.3475    0.0711 H   0  0  0  0  0  0  0  0  0  0  0  0
    7.2577   -5.9694   -0.4623 H   0  0  0  0  0  0  0  0  0  0  0  0
    6.9945   -4.6403   -1.5859 H   0  0  0  0  0  0  0  0  0  0  0  0
  1 20  2  0  0  0  0
  2 33  1  0  0  0  0
  2 34  1  0  0  0  0
  3 18  1  0  0  0  0
  3 19  1  0  0  0  0
  3 21  1  0  0  0  0
  4  9  1  0  0  0  0
  4 20  1  0  0  0  0
  4 55  1  0  0  0  0
  5  8  1  0  0  0  0
  5 21  2  0  0  0  0
  6  7  1  0  0  0  0
  6 24  1  0  0  0  0
  6 27  1  0  0  0  0
  7 22  2  0  0  0  0
  8 25  2  0  0  0  0
  9 11  1  0  0  0  0
  9 12  1  0  0  0  0
  9 35  1  0  0  0  0
 10 13  1  0  0  0  0
 10 14  1  0  0  0  0
 10 20  1  0  0  0  0
 10 36  1  0  0  0  0
 11 15  1  0  0  0  0
 11 37  1  0  0  0  0
 11 38  1  0  0  0  0
 12 16  1  0  0  0  0
 12 39  1  0  0  0  0
 12 40  1  0  0  0  0
 13 18  1  0  0  0  0
 13 41  1  0  0  0  0
 13 42  1  0  0  0  0
 14 19  1  0  0  0  0
 14 43  1  0  0  0  0
 14 44  1  0  0  0  0
 15 17  1  0  0  0  0
 15 45  1  0  0  0  0
 15 46  1  0  0  0  0
 16 17  1  0  0  0  0
 16 47  1  0  0  0  0
 16 48  1  0  0  0  0
 17 53  1  0  0  0  0
 17 54  1  0  0  0  0
 18 49  1  0  0  0  0
 18 50  1  0  0  0  0
 19 51  1  0  0  0  0
 19 52  1  0  0  0  0
 21 22  1  0  0  0  0
 22 23  1  0  0  0  0
 23 24  2  0  0  0  0
 23 25  1  0  0  0  0
 24 26  1  0  0  0  0
 25 28  1  0  0  0  0
 26 56  1  0  0  0  0
 26 57  1  0  0  0  0
 26 58  1  0  0  0  0
 27 29  2  0  0  0  0
 27 30  1  0  0  0  0
 28 59  1  0  0  0  0
 28 60  1  0  0  0  0
 28 61  1  0  0  0  0
 29 31  1  0  0  0  0
 29 62  1  0  0  0  0
 30 32  2  0  0  0  0
 30 63  1  0  0  0  0
 31 33  2  0  0  0  0
 31 64  1  0  0  0  0
 32 33  1  0  0  0  0
 32 65  1  0  0  0  0
 34 66  1  0  0  0  0
 34 67  1  0  0  0  0
 34 68  1  0  0  0  0
M  END
> <PUBCHEM_COMPOUND_CID>
16022986

> <PUBCHEM_CONFORMER_RMSD>
1

> <PUBCHEM_CONFORMER_DIVERSEORDER>
20
82
54
30
5
19
39
35
14
122
69
9
92
43
98
104
101
29
4
96
60
33
52
124
53
49
61
38
44
28
31
89
10
55
51
73
71
8
34
76
57
88
85
59
97
115
132
74
72
48
126
27
123
56
79
62
25
102
93
15
18
120
12
90
129
119
6
111
117
94
78
32
83
75
36
86
65
1
26
70
58
118
87
113
45
50
106
11
84
108
121
131
24
116
64
109
23
125
107
103
100
114
81
22
2
46
7
80
105
21
63
110
66
47
68
130
3
42
91
13
41
37
95
40
128
127
67
112
16
17
77
99

> <PUBCHEM_MMFF94_PARTIAL_CHARGES>
31
1 -0.57
10 0.06
18 0.37
19 0.37
2 -0.36
20 0.57
21 0.41
22 0.29
24 -0.33
25 0.17
26 0.18
27 -0.02
28 0.14
29 -0.15
3 -0.84
30 -0.15
31 -0.15
32 -0.15
33 0.08
34 0.28
4 -0.73
5 -0.31
55 0.37
6 0.59
62 0.15
63 0.15
64 0.15
65 0.15
7 -0.71
8 -0.31
9 0.3

> <PUBCHEM_EFFECTIVE_ROTOR_COUNT>
8.4

> <PUBCHEM_PHARMACOPHORE_FEATURES>
11
1 1 acceptor
1 2 acceptor
1 4 donor
1 7 acceptor
1 8 acceptor
3 3 5 21 cation
5 6 7 22 23 24 rings
6 27 29 30 31 32 33 rings
6 3 10 13 14 18 19 rings
6 5 8 21 22 23 25 rings
6 9 11 12 15 16 17 rings

> <PUBCHEM_HEAVY_ATOM_COUNT>
34

> <PUBCHEM_ATOM_DEF_STEREO_COUNT>
0

> <PUBCHEM_ATOM_UDEF_STEREO_COUNT>
0

> <PUBCHEM_BOND_DEF_STEREO_COUNT>
0

> <PUBCHEM_BOND_UDEF_STEREO_COUNT>
0

> <PUBCHEM_ISOTOPIC_ATOM_COUNT>
0

> <PUBCHEM_COMPONENT_COUNT>
1

> <PUBCHEM_CACTVS_TAUTO_COUNT>
2

> <PUBCHEM_CONFORMER_ID>
00F47DCA00000014

> <PUBCHEM_MMFF94_ENERGY>
113.939

> <PUBCHEM_FEATURE_SELFOVERLAP>
55.961

> <PUBCHEM_SHAPE_FINGERPRINT>
10050765 1 18410853222662230109
10075450 59 17628650661154354407
10169797 241 18187071880186697418
10258705 36 18114757005599531195
10319688 140 18410856594616953388
10411042 1 18267584607664019346
10533779 47 18188790452618901147
10580692 12 18410291433235701857
10864689 126 18113334181549282363
11135926 11 18195514016258761612
11409948 35 18411697687253993319
11409948 41 18197759194251163983
117089 54 18196376927113698966
11828042 200 18194693558270469558
12107183 9 18127701439638343257
12342043 65 18261387823831788309
12841400 136 18337667495154948927
13008946 62 16885564774968556540
13533116 47 18342457097023487337
13782708 43 18113612387828351351
13955234 65 18199179775373291736
13989917 61 18337674233963956490
14040222 275 18268733635416629902
14347424 109 18273217525897495105
14556957 393 12757688952041513167
15328684 2 17346332496626736171
15351339 4 17677893414463869954
15400415 2 17690838286827144541
15467298 65 17912350228833918279
15483637 11 17832985322981913018
15510800 12 18260265226929070978
15773216 30 18336272327601873788
16990366 60 18263072224839663330
17492 89 18411976927887724532
19301676 85 17618772571158515335
19303781 99 18264754485961781598
19315958 150 18264210378356207601
19319366 153 17984132932016234772
20505436 4 17558268993055592916
20775438 99 18192976334848231114
208703 8 18338793391093871662
21130935 74 18339927138654641243
21133410 32 16373583542915976842
22899556 105 18196951976949758238
23559900 14 18267007381002487964
23569914 152 17690520184795719453
23569943 247 18340765958515808515
24893989 43 17772754003288012438
25269216 80 15719401603732089807
255183 451 18342179913030107982
3178227 256 18339919445999221752
3991529 202 18339936926779146651
4073 2 18119247513785397403
439807 62 18334577897840711239
44344687 77 18260557706039151867
4435113 14 17678188294170154459
46194498 28 17676763270712087452
5309563 4 18267302041338497030
57527295 17 17533498937532825472
58260988 647 18335990809300664611
6441014 3 17906449927279599586
6700243 42 16733252483405196807
70251023 43 18409167684432222176
7970288 3 18268142055464141598
86090 222 17676486172364807291
9555976 147 17488759865502636529
9831232 110 18261393394752231877

> <PUBCHEM_SHAPE_MULTIPOLES>
658.08
23.27
6.32
1.11
43.1
0.83
-0.09
24.64
2.74
-16.94
0.39
2.09
0.25
2.38

> <PUBCHEM_SHAPE_SELFOVERLAP>
1412.79

> <PUBCHEM_SHAPE_VOLUME>
361

> <PUBCHEM_COORDINATE_TYPE>
2
5
10

$$$$
