44142138
  -OEChem-01171810103D

 33 36  0     0  0  0  0  0  0999 V2000
    3.1767    2.6687    1.1421 S   0  0  0  0  0  0  0  0  0  0  0  0
    0.4408   -1.1043   -1.4983 S   0  0  0  0  0  0  0  0  0  0  0  0
    4.4175    0.6715   -0.1112 N   0  0  0  0  0  0  0  0  0  0  0  0
    3.1008   -0.9931   -1.2833 N   0  0  0  0  0  0  0  0  0  0  0  0
   -1.0446   -3.0183   -0.1244 N   0  0  0  0  0  0  0  0  0  0  0  0
    0.7413   -2.4161    0.9484 N   0  0  0  0  0  0  0  0  0  0  0  0
   -1.0573   -3.7322    1.0099 N   0  0  0  0  0  0  0  0  0  0  0  0
    0.0375   -3.3599    1.6620 N   0  0  0  0  0  0  0  0  0  0  0  0
   -5.8117    1.1658   -0.3331 N   0  0  0  0  0  0  0  0  0  0  0  0
    0.9585    1.6478    0.3465 C   0  0  0  0  0  0  0  0  0  0  0  0
    1.9824    0.7899   -0.1651 C   0  0  0  0  0  0  0  0  0  0  0  0
   -0.4728    1.5467    0.2031 C   0  0  0  0  0  0  0  0  0  0  0  0
    3.2407    1.2465    0.2051 C   0  0  0  0  0  0  0  0  0  0  0  0
    1.9509   -0.3758   -0.9375 C   0  0  0  0  0  0  0  0  0  0  0  0
    1.4679    2.7030    1.0717 C   0  0  0  0  0  0  0  0  0  0  0  0
   -1.1114    2.1635   -0.8730 C   0  0  0  0  0  0  0  0  0  0  0  0
   -1.2185    0.8308    1.1396 C   0  0  0  0  0  0  0  0  0  0  0  0
   -2.4957    2.0641   -1.0123 C   0  0  0  0  0  0  0  0  0  0  0  0
   -2.6030    0.7317    1.0002 C   0  0  0  0  0  0  0  0  0  0  0  0
   -3.2416    1.3484   -0.0757 C   0  0  0  0  0  0  0  0  0  0  0  0
    0.0540   -2.2197   -0.1532 C   0  0  0  0  0  0  0  0  0  0  0  0
    4.2507   -0.4375   -0.8535 C   0  0  0  0  0  0  0  0  0  0  0  0
   -2.1032   -3.1691   -1.0905 C   0  0  0  0  0  0  0  0  0  0  0  0
   -4.6599    1.2476   -0.2177 C   0  0  0  0  0  0  0  0  0  0  0  0
    0.9289    3.4989    1.5688 H   0  0  0  0  0  0  0  0  0  0  0  0
   -0.5446    2.7243   -1.6126 H   0  0  0  0  0  0  0  0  0  0  0  0
   -0.7365    0.3436    1.9839 H   0  0  0  0  0  0  0  0  0  0  0  0
   -2.9791    2.5500   -1.8566 H   0  0  0  0  0  0  0  0  0  0  0  0
   -3.1703    0.1690    1.7378 H   0  0  0  0  0  0  0  0  0  0  0  0
    5.1597   -0.9523   -1.1444 H   0  0  0  0  0  0  0  0  0  0  0  0
   -1.6679   -3.5124   -2.0321 H   0  0  0  0  0  0  0  0  0  0  0  0
   -2.8264   -3.9047   -0.7286 H   0  0  0  0  0  0  0  0  0  0  0  0
   -2.5953   -2.2020   -1.2198 H   0  0  0  0  0  0  0  0  0  0  0  0
  1 13  1  0  0  0  0
  1 15  1  0  0  0  0
  2 14  1  0  0  0  0
  2 21  1  0  0  0  0
  3 13  1  0  0  0  0
  3 22  2  0  0  0  0
  4 14  2  0  0  0  0
  4 22  1  0  0  0  0
  5  7  1  0  0  0  0
  5 21  1  0  0  0  0
  5 23  1  0  0  0  0
  6  8  1  0  0  0  0
  6 21  2  0  0  0  0
  7  8  2  0  0  0  0
  9 24  3  0  0  0  0
 10 11  1  0  0  0  0
 10 12  1  0  0  0  0
 10 15  2  0  0  0  0
 11 13  2  0  0  0  0
 11 14  1  0  0  0  0
 12 16  2  0  0  0  0
 12 17  1  0  0  0  0
 15 25  1  0  0  0  0
 16 18  1  0  0  0  0
 16 26  1  0  0  0  0
 17 19  2  0  0  0  0
 17 27  1  0  0  0  0
 18 20  2  0  0  0  0
 18 28  1  0  0  0  0
 19 20  1  0  0  0  0
 19 29  1  0  0  0  0
 20 24  1  0  0  0  0
 22 30  1  0  0  0  0
 23 31  1  0  0  0  0
 23 32  1  0  0  0  0
 23 33  1  0  0  0  0
M  END
> <PUBCHEM_COMPOUND_CID>
44142138

> <PUBCHEM_CONFORMER_RMSD>
0.6

> <PUBCHEM_CONFORMER_DIVERSEORDER>
1
16
4
12
18
19
20
14
10
21
17
15
9
11
2
3
13
7
8
6
5

> <PUBCHEM_MMFF94_PARTIAL_CHARGES>
28
1 -0.08
10 -0.05
12 0.05
13 0.3
14 0.41
15 -0.11
16 -0.15
17 -0.15
18 -0.15
19 -0.15
2 -0.16
20 0.07
21 0.24
22 0.47
23 0.26
24 0.48
25 0.15
26 0.15
27 0.15
28 0.15
29 0.15
3 -0.57
30 0.15
4 -0.62
5 0.31
6 -0.34
7 -0.42
9 -0.56

> <PUBCHEM_EFFECTIVE_ROTOR_COUNT>
3

> <PUBCHEM_PHARMACOPHORE_FEATURES>
8
1 4 acceptor
1 9 acceptor
3 3 4 22 cation
3 5 6 21 cation
5 1 10 11 13 15 rings
5 5 6 7 8 21 rings
6 12 16 17 18 19 20 rings
6 3 4 11 13 14 22 rings

> <PUBCHEM_HEAVY_ATOM_COUNT>
24

> <PUBCHEM_ATOM_DEF_STEREO_COUNT>
0

> <PUBCHEM_ATOM_UDEF_STEREO_COUNT>
0

> <PUBCHEM_BOND_DEF_STEREO_COUNT>
0

> <PUBCHEM_BOND_UDEF_STEREO_COUNT>
0

> <PUBCHEM_ISOTOPIC_ATOM_COUNT>
0

> <PUBCHEM_COMPONENT_COUNT>
1

> <PUBCHEM_CACTVS_TAUTO_COUNT>
1

> <PUBCHEM_CONFORMER_ID>
02A18E3A00000001

> <PUBCHEM_MMFF94_ENERGY>
50.6975

> <PUBCHEM_FEATURE_SELFOVERLAP>
40.678

> <PUBCHEM_SHAPE_FINGERPRINT>
104564 63 17692819597931323972
10688039 33 17758679236745286451
108634 29 18267867374787875311
1100329 8 18265605503423755866
11578080 2 15983393382570756226
116883 192 17978790447591302471
12156800 1 17910918604305743307
12236239 1 16487254348370471249
12422481 6 17981635924167005331
12592029 89 18337103458853798473
12730499 353 18263927649170334337
12788726 201 17833535078879255577
13140716 1 18200866401009994040
13149001 5 18271545151251976596
14223421 5 17982451804480294936
14787075 74 18343023267912042164
14866123 147 18335406951441898954
16728300 4 17246083269327075434
17357779 13 17839458130811997670
19591789 44 18410010996606647187
20567600 347 18114182978301771867
20600515 1 16957851041928446614
20642791 13 17980184606860505597
20691752 17 18264468694056985733
20905425 154 17832424198346576164
21197605 99 18128538369971583471
21421861 104 17546744650543317465
22182313 1 17771916193224407588
22393880 68 18340761530097889517
23419403 2 16910365252165257916
23558518 356 18122333846544584332
23559900 14 18130503145499990352
238 59 18338518513138740329
2748010 2 17986958655741040236
2871803 45 18268713818368447629
3052486 1 18189048858054515911
3060560 45 18335699408074543353
3298306 158 18263076626652918881
3383291 50 18054515699695124462
338550 245 18263648540588111725
4340502 62 18272087215001145553
469060 322 17531795961762865887
5283268 108 17686914120994506491
6669772 16 18339631292210514322
70251023 43 17479752515628471215
81228 2 18048034361208669480
9896288 288 17117742663555021082

> <PUBCHEM_SHAPE_MULTIPOLES>
466.74
7.39
4.37
1.36
3.46
4.06
0.1
-4.44
-1.27
1.31
1.22
-0.15
0.5
1.15

> <PUBCHEM_SHAPE_SELFOVERLAP>
1009.964

> <PUBCHEM_SHAPE_VOLUME>
256.9

> <PUBCHEM_COORDINATE_TYPE>
2
5
10

$$$$
