718402
  -OEChem-01171809583D

 34 35  0     0  0  0  0  0  0999 V2000
   -1.5205   -0.0756   -0.6161 O   0  0  0  0  0  0  0  0  0  0  0  0
   -0.0087   -1.8533    0.8940 O   0  0  0  0  0  0  0  0  0  0  0  0
   -1.8289    1.2498    1.2761 O   0  0  0  0  0  0  0  0  0  0  0  0
    7.1309   -0.7318   -0.2857 O   0  5  0  0  0  0  0  0  0  0  0  0
    6.5169    1.1692    0.6419 O   0  0  0  0  0  0  0  0  0  0  0  0
   -5.4634   -0.6827   -1.1279 N   0  0  0  0  0  0  0  0  0  0  0  0
    6.2766    0.0614    0.1382 N   0  3  0  0  0  0  0  0  0  0  0  0
   -0.1749    0.0944   -0.4886 C   0  0  0  0  0  0  0  0  0  0  0  0
    0.5838   -0.7975    0.2693 C   0  0  0  0  0  0  0  0  0  0  0  0
    2.5791    0.4648   -0.2426 C   0  0  0  0  0  0  0  0  0  0  0  0
    1.9608   -0.6124    0.3923 C   0  0  0  0  0  0  0  0  0  0  0  0
    0.4434    1.1715   -1.1237 C   0  0  0  0  0  0  0  0  0  0  0  0
    1.8204    1.3567   -1.0006 C   0  0  0  0  0  0  0  0  0  0  0  0
    4.0149    0.6580   -0.1144 C   0  0  0  0  0  0  0  0  0  0  0  0
   -3.7295    0.3401    0.1598 C   0  0  0  0  0  0  0  0  0  0  0  0
   -2.2765    0.5707    0.3643 C   0  0  0  0  0  0  0  0  0  0  0  0
   -4.6395    0.9042    1.0208 C   0  0  0  0  0  0  0  0  0  0  0  0
   -4.1569   -0.4335   -0.8856 C   0  0  0  0  0  0  0  0  0  0  0  0
    4.9166   -0.3298    0.0397 C   0  0  0  0  0  0  0  0  0  0  0  0
   -0.1018   -3.0721    0.1591 C   0  0  0  0  0  0  0  0  0  0  0  0
   -5.9931    0.6706    0.8042 C   0  0  0  0  0  0  0  0  0  0  0  0
   -6.3497   -0.1226   -0.2744 C   0  0  0  0  0  0  0  0  0  0  0  0
    2.5276   -1.3144    0.9996 H   0  0  0  0  0  0  0  0  0  0  0  0
   -0.1415    1.8695   -1.7166 H   0  0  0  0  0  0  0  0  0  0  0  0
    2.2855    2.2009   -1.5038 H   0  0  0  0  0  0  0  0  0  0  0  0
    4.3244    1.7003   -0.1715 H   0  0  0  0  0  0  0  0  0  0  0  0
   -4.3347    1.5225    1.8593 H   0  0  0  0  0  0  0  0  0  0  0  0
   -3.4912   -0.9070   -1.5983 H   0  0  0  0  0  0  0  0  0  0  0  0
    4.7613   -1.3981    0.0487 H   0  0  0  0  0  0  0  0  0  0  0  0
    0.8957   -3.4420   -0.0985 H   0  0  0  0  0  0  0  0  0  0  0  0
   -0.6964   -2.9297   -0.7489 H   0  0  0  0  0  0  0  0  0  0  0  0
   -0.5985   -3.8149    0.7892 H   0  0  0  0  0  0  0  0  0  0  0  0
   -6.7451    1.0959    1.4589 H   0  0  0  0  0  0  0  0  0  0  0  0
   -7.3924   -0.3350   -0.4867 H   0  0  0  0  0  0  0  0  0  0  0  0
  1  8  1  0  0  0  0
  1 16  1  0  0  0  0
  2  9  1  0  0  0  0
  2 20  1  0  0  0  0
  3 16  2  0  0  0  0
  4  7  1  0  0  0  0
  5  7  2  0  0  0  0
  6 18  1  0  0  0  0
  6 22  2  0  0  0  0
  7 19  1  0  0  0  0
  8  9  2  0  0  0  0
  8 12  1  0  0  0  0
  9 11  1  0  0  0  0
 10 11  2  0  0  0  0
 10 13  1  0  0  0  0
 10 14  1  0  0  0  0
 11 23  1  0  0  0  0
 12 13  2  0  0  0  0
 12 24  1  0  0  0  0
 13 25  1  0  0  0  0
 14 19  2  0  0  0  0
 14 26  1  0  0  0  0
 15 16  1  0  0  0  0
 15 17  1  0  0  0  0
 15 18  2  0  0  0  0
 17 21  2  0  0  0  0
 17 27  1  0  0  0  0
 18 28  1  0  0  0  0
 19 29  1  0  0  0  0
 20 30  1  0  0  0  0
 20 31  1  0  0  0  0
 20 32  1  0  0  0  0
 21 22  1  0  0  0  0
 21 33  1  0  0  0  0
 22 34  1  0  0  0  0
M  CHG  2   4  -1   7   1
M  END
> <PUBCHEM_COMPOUND_CID>
718402

> <PUBCHEM_CONFORMER_RMSD>
0.8

> <PUBCHEM_CONFORMER_DIVERSEORDER>
1
76
64
61
18
80
90
92
86
52
40
79
70
28
63
4
93
44
16
84
11
58
60
71
9
82
81
15
42
72
67
78
2
53
8
38
47
74
17
12
24
43
27
20
73
39
54
95
25
29
88
3
69
7
48
91
14
51
85
50
94
55
65
21
31
83
37
32
13
5
19
33
68
89
35
46
22
87
56
30
41
45
77
6
26
66
23
57
10
59
75
34
36
49
62

> <PUBCHEM_MMFF94_PARTIAL_CHARGES>
31
1 -0.23
10 0.03
11 -0.15
12 -0.15
13 -0.15
14 -0.18
15 0.09
16 0.63
17 -0.15
18 0.16
19 0.05
2 -0.36
20 0.28
21 -0.15
22 0.16
23 0.15
24 0.15
25 0.15
26 0.15
27 0.15
28 0.15
29 0.15
3 -0.57
33 0.15
34 0.15
4 -0.52
5 -0.52
6 -0.62
7 0.84
8 0.08
9 0.08

> <PUBCHEM_EFFECTIVE_ROTOR_COUNT>
6

> <PUBCHEM_PHARMACOPHORE_FEATURES>
8
1 2 acceptor
1 3 acceptor
1 4 acceptor
1 4 anion
1 5 acceptor
1 6 acceptor
6 6 15 17 18 21 22 rings
6 8 9 10 11 12 13 rings

> <PUBCHEM_HEAVY_ATOM_COUNT>
22

> <PUBCHEM_ATOM_DEF_STEREO_COUNT>
0

> <PUBCHEM_ATOM_UDEF_STEREO_COUNT>
0

> <PUBCHEM_BOND_DEF_STEREO_COUNT>
1

> <PUBCHEM_BOND_UDEF_STEREO_COUNT>
0

> <PUBCHEM_ISOTOPIC_ATOM_COUNT>
0

> <PUBCHEM_COMPONENT_COUNT>
1

> <PUBCHEM_CACTVS_TAUTO_COUNT>
2

> <PUBCHEM_CONFORMER_ID>
000AF64200000001

> <PUBCHEM_MMFF94_ENERGY>
85.1439

> <PUBCHEM_FEATURE_SELFOVERLAP>
40.678

> <PUBCHEM_SHAPE_FINGERPRINT>
10 15 17458902739178113936
11315181 36 17917992798274326201
12011746 2 17458344134876514664
12166972 35 18411419527116829080
12236239 1 18344145891022360813
13533116 47 18201438031171305202
13631057 29 18200588224779267119
13862211 1 18114177528040974862
14251764 18 18343017797046580392
14251764 46 18259985977293467145
14849402 71 18199750413360682752
15048467 5 14476967770242878457
15849732 13 17749392581158533086
18681886 176 18337947986826040313
19141452 34 18335701685087653350
200 152 18334573534575704125
20567600 75 15574988438376026490
21054139 6 18340199787136097999
21236236 1 18263363745270060219
22224240 67 18335138700357664963
23035841 295 17989207044949272079
23402539 116 17917990585569694269
23536379 177 17346882234658997006
23559900 14 18199461233232942904
23569917 315 18335990838791675987
23569943 247 18124321502277147210
23622692 88 18040719186306707662
26918003 58 17749115495802104409
335352 9 18260832618342477646
404807 14 16264364452549897846
4340502 62 16487257660369687476
465052 167 17168150035215574288
474229 33 18334576849836801883
5104073 3 17969502800379521496
5758199 1 18412266133609921762
59755656 215 18334295327451985894
59755656 520 18411131454764169495
7495541 125 16199862968425488041

> <PUBCHEM_SHAPE_MULTIPOLES>
413.44
16.1
1.66
1.03
8.15
1.36
0.02
-2.05
-1.03
0.36
-0.11
-0.79
-0.19
-0.69

> <PUBCHEM_SHAPE_SELFOVERLAP>
888.201

> <PUBCHEM_SHAPE_VOLUME>
225.9

> <PUBCHEM_COORDINATE_TYPE>
2
5
10

$$$$
