3164003
  -OEChem-01171810043D

 53 55  0     0  0  0  0  0  0999 V2000
    7.1164   -1.2171   -1.3058 O   0  0  0  0  0  0  0  0  0  0  0  0
   -5.7124   -0.1762    0.0087 O   0  0  0  0  0  0  0  0  0  0  0  0
   -3.3655    2.3788   -0.3234 O   0  0  0  0  0  0  0  0  0  0  0  0
   -9.0336   -1.2539    0.1518 O   0  5  0  0  0  0  0  0  0  0  0  0
   -7.1316   -2.3470    0.3106 O   0  0  0  0  0  0  0  0  0  0  0  0
    5.3426   -0.7211    0.1073 N   0  0  0  0  0  0  0  0  0  0  0  0
    2.5306   -0.4941    0.1711 N   0  0  0  0  0  0  0  0  0  0  0  0
   -3.0622    0.0674   -0.0172 N   0  0  0  0  0  0  0  0  0  0  0  0
   -7.7679   -1.2637    0.1564 N   0  3  0  0  0  0  0  0  0  0  0  0
    4.5243   -1.8412   -0.3499 C   0  0  0  0  0  0  0  0  0  0  0  0
    4.7129    0.0843    1.1553 C   0  0  0  0  0  0  0  0  0  0  0  0
    3.1651   -1.3507   -0.8438 C   0  0  0  0  0  0  0  0  0  0  0  0
    3.3536    0.6069    0.6906 C   0  0  0  0  0  0  0  0  0  0  0  0
    7.3774    0.6747    0.0978 C   0  0  0  0  0  0  0  0  0  0  0  0
    6.6077   -0.5076   -0.4341 C   0  0  0  0  0  0  0  0  0  0  0  0
    1.1387   -0.3543    0.1254 C   0  0  0  0  0  0  0  0  0  0  0  0
    8.7311    0.7397   -0.6109 C   0  0  0  0  0  0  0  0  0  0  0  0
    6.5732    1.9470   -0.1726 C   0  0  0  0  0  0  0  0  0  0  0  0
    7.5689    0.4712    1.6009 C   0  0  0  0  0  0  0  0  0  0  0  0
    0.2811   -1.4724    0.2533 C   0  0  0  0  0  0  0  0  0  0  0  0
    0.5307    0.9111   -0.0518 C   0  0  0  0  0  0  0  0  0  0  0  0
   -1.1061   -1.3331    0.2067 C   0  0  0  0  0  0  0  0  0  0  0  0
   -0.8564    1.0505   -0.0984 C   0  0  0  0  0  0  0  0  0  0  0  0
   -1.6748   -0.0716    0.0308 C   0  0  0  0  0  0  0  0  0  0  0  0
   -3.8062    1.2427   -0.1856 C   0  0  0  0  0  0  0  0  0  0  0  0
   -5.2825    1.0707   -0.1662 C   0  0  0  0  0  0  0  0  0  0  0  0
   -6.2444    1.9858   -0.2986 C   0  0  0  0  0  0  0  0  0  0  0  0
   -7.4440    1.2414   -0.1974 C   0  0  0  0  0  0  0  0  0  0  0  0
   -7.0666   -0.0681   -0.0111 C   0  0  0  0  0  0  0  0  0  0  0  0
    4.3995   -2.5213    0.5014 H   0  0  0  0  0  0  0  0  0  0  0  0
    5.0299   -2.3983   -1.1449 H   0  0  0  0  0  0  0  0  0  0  0  0
    5.2721    0.9156    1.5539 H   0  0  0  0  0  0  0  0  0  0  0  0
    4.5591   -0.5966    2.0036 H   0  0  0  0  0  0  0  0  0  0  0  0
    2.5491   -2.2244   -1.0844 H   0  0  0  0  0  0  0  0  0  0  0  0
    3.2888   -0.7718   -1.7679 H   0  0  0  0  0  0  0  0  0  0  0  0
    3.4898    1.3626   -0.0921 H   0  0  0  0  0  0  0  0  0  0  0  0
    2.8622    1.0864    1.5462 H   0  0  0  0  0  0  0  0  0  0  0  0
    9.3306    1.5776   -0.2358 H   0  0  0  0  0  0  0  0  0  0  0  0
    9.3160   -0.1751   -0.4572 H   0  0  0  0  0  0  0  0  0  0  0  0
    8.6145    0.8776   -1.6926 H   0  0  0  0  0  0  0  0  0  0  0  0
    7.2074    2.6974   -0.6638 H   0  0  0  0  0  0  0  0  0  0  0  0
    5.7351    1.7909   -0.8607 H   0  0  0  0  0  0  0  0  0  0  0  0
    6.2025    2.4619    0.7186 H   0  0  0  0  0  0  0  0  0  0  0  0
    7.0962   -0.4271    2.0120 H   0  0  0  0  0  0  0  0  0  0  0  0
    7.2698    1.3355    2.2040 H   0  0  0  0  0  0  0  0  0  0  0  0
    8.6353    0.3380    1.8294 H   0  0  0  0  0  0  0  0  0  0  0  0
    0.7006   -2.4652    0.4033 H   0  0  0  0  0  0  0  0  0  0  0  0
    1.1373    1.8063   -0.1693 H   0  0  0  0  0  0  0  0  0  0  0  0
   -1.7320   -2.2158    0.3111 H   0  0  0  0  0  0  0  0  0  0  0  0
   -1.2199    2.0583   -0.2405 H   0  0  0  0  0  0  0  0  0  0  0  0
   -3.5910   -0.7961    0.0877 H   0  0  0  0  0  0  0  0  0  0  0  0
   -6.1440    3.0508   -0.4487 H   0  0  0  0  0  0  0  0  0  0  0  0
   -8.4552    1.6194   -0.2540 H   0  0  0  0  0  0  0  0  0  0  0  0
  1 15  2  0  0  0  0
  2 26  1  0  0  0  0
  2 29  1  0  0  0  0
  3 25  2  0  0  0  0
  4  9  1  0  0  0  0
  5  9  2  0  0  0  0
  6 10  1  0  0  0  0
  6 11  1  0  0  0  0
  6 15  1  0  0  0  0
  7 12  1  0  0  0  0
  7 13  1  0  0  0  0
  7 16  1  0  0  0  0
  8 24  1  0  0  0  0
  8 25  1  0  0  0  0
  8 51  1  0  0  0  0
  9 29  1  0  0  0  0
 10 12  1  0  0  0  0
 10 30  1  0  0  0  0
 10 31  1  0  0  0  0
 11 13  1  0  0  0  0
 11 32  1  0  0  0  0
 11 33  1  0  0  0  0
 12 34  1  0  0  0  0
 12 35  1  0  0  0  0
 13 36  1  0  0  0  0
 13 37  1  0  0  0  0
 14 15  1  0  0  0  0
 14 17  1  0  0  0  0
 14 18  1  0  0  0  0
 14 19  1  0  0  0  0
 16 20  2  0  0  0  0
 16 21  1  0  0  0  0
 17 38  1  0  0  0  0
 17 39  1  0  0  0  0
 17 40  1  0  0  0  0
 18 41  1  0  0  0  0
 18 42  1  0  0  0  0
 18 43  1  0  0  0  0
 19 44  1  0  0  0  0
 19 45  1  0  0  0  0
 19 46  1  0  0  0  0
 20 22  1  0  0  0  0
 20 47  1  0  0  0  0
 21 23  2  0  0  0  0
 21 48  1  0  0  0  0
 22 24  2  0  0  0  0
 22 49  1  0  0  0  0
 23 24  1  0  0  0  0
 23 50  1  0  0  0  0
 25 26  1  0  0  0  0
 26 27  2  0  0  0  0
 27 28  1  0  0  0  0
 27 52  1  0  0  0  0
 28 29  2  0  0  0  0
 28 53  1  0  0  0  0
M  CHG  2   4  -1   9   1
M  END
> <PUBCHEM_COMPOUND_CID>
3164003

> <PUBCHEM_CONFORMER_RMSD>
1

> <PUBCHEM_CONFORMER_DIVERSEORDER>
1
12
14
6
10
3
8
9
13
5
7
11
2
4

> <PUBCHEM_MMFF94_PARTIAL_CHARGES>
33
1 -0.57
10 0.3
11 0.3
12 0.37
13 0.37
14 0.06
15 0.57
16 0.1
2 -0.28
20 -0.15
21 -0.15
22 -0.15
23 -0.15
24 0.12
25 0.71
26 0.05
27 -0.15
28 -0.15
29 0.22
3 -0.57
4 -0.52
47 0.15
48 0.15
49 0.15
5 -0.52
50 0.15
51 0.37
52 0.15
53 0.15
6 -0.66
7 -0.84
8 -0.55
9 0.96

> <PUBCHEM_EFFECTIVE_ROTOR_COUNT>
8.2

> <PUBCHEM_PHARMACOPHORE_FEATURES>
12
1 1 acceptor
1 2 acceptor
1 3 acceptor
1 4 acceptor
1 4 anion
1 5 acceptor
1 7 cation
1 8 donor
4 14 17 18 19 hydrophobe
5 2 26 27 28 29 rings
6 16 20 21 22 23 24 rings
6 6 7 10 11 12 13 rings

> <PUBCHEM_HEAVY_ATOM_COUNT>
29

> <PUBCHEM_ATOM_DEF_STEREO_COUNT>
0

> <PUBCHEM_ATOM_UDEF_STEREO_COUNT>
0

> <PUBCHEM_BOND_DEF_STEREO_COUNT>
0

> <PUBCHEM_BOND_UDEF_STEREO_COUNT>
0

> <PUBCHEM_ISOTOPIC_ATOM_COUNT>
0

> <PUBCHEM_COMPONENT_COUNT>
1

> <PUBCHEM_CACTVS_TAUTO_COUNT>
2

> <PUBCHEM_CONFORMER_ID>
0030476300000001

> <PUBCHEM_MMFF94_ENERGY>
106.5442

> <PUBCHEM_FEATURE_SELFOVERLAP>
60.988

> <PUBCHEM_SHAPE_FINGERPRINT>
10 15 18040998436126570048
10050765 1 18046910651719427408
10162869 55 16009032821283522235
10299344 5 12895353291588515029
11273773 118 13973693789503299209
11315181 36 18341896269590830385
11724838 91 18113056043344720980
12082328 90 18272369733617888725
13422730 43 18260823804373240947
13533116 47 13686303427002250796
13914758 101 10159700196282168367
14142895 15 18336267946218247604
14251764 18 17675924295984124864
14251764 46 18113056034364402504
14344974 52 18341615962934882036
14461889 52 18408321094764778634
14849402 71 18342177803700772345
14918687 75 17488738004657312399
14933364 13 18342737403399561761
150020 25 18343021056235668319
15131766 46 11604551977141222974
15183329 4 16272205267160659032
15419008 47 18131344198501188801
15461852 350 18335707156411706263
15510794 2 18343021064636062527
15728490 51 18409447007772540751
15840311 113 17967819375638043468
15849732 13 18411138034690477277
17686467 74 17749392602660321189
18335252 98 18341897394054623119
18608769 82 18411980282357130131
18681886 176 18408036330217346993
19611394 137 18115879671115021697
20105231 36 17489872639382533254
20281389 69 17968093084717601372
21049683 271 18342739637099814248
21130935 74 18340206267714265899
21150785 3 18113338613110700573
21267235 1 18342740710951654097
21315763 28 18336546024017959116
21365058 27 16630526233129894903
21792961 116 17846504712351809458
22224240 67 17385723590832528754
23035841 295 11455884758742233461
232437 2 18408323277130092042
23424782 7 18412827988294032214
23559900 14 18059564828502590808
24771293 8 18187368701002701549
24771750 20 18194125346448977348
249057 3 16558743542230591428
28498 318 7925916984799197264
3092352 35 17967812756966780922
335507 130 18342175600233810637
34797466 226 17775570832314394852
395649 100 17895478137137756747
4073 2 18334298668815645211
54583773 228 18114752658089131444
5758199 1 18187085018702346771
59682541 35 18412824711597839721
6691757 9 16298680425527646809
67123 10 18408886243398063365
9663363 56 18333450959833261843

> <PUBCHEM_SHAPE_MULTIPOLES>
547.54
29.62
1.98
0.87
12.11
0.02
0.11
-1.08
-0.54
1.78
-0.19
-1.56
0.02
1.24

> <PUBCHEM_SHAPE_SELFOVERLAP>
1169.072

> <PUBCHEM_SHAPE_VOLUME>
303.8

> <PUBCHEM_COORDINATE_TYPE>
2
5
10

$$$$
