9580773
  -OEChem-01171809553D

 44 44  0     0  0  0  0  0  0999 V2000
    0.1006   -0.2272   -0.2763 O   0  0  0  0  0  0  0  0  0  0  0  0
   -4.1026    0.3301    0.2195 O   0  0  0  0  0  0  0  0  0  0  0  0
   -4.9447   -1.7500   -0.2490 O   0  0  0  0  0  0  0  0  0  0  0  0
   -2.0148    1.7791    0.8855 N   0  0  0  0  0  0  0  0  0  0  0  0
   -2.9149   -0.3922    0.4035 N   0  0  0  0  0  0  0  0  0  0  0  0
   -6.3299    0.1146   -0.3298 N   0  0  0  0  0  0  0  0  0  0  0  0
    5.7335    0.0189   -0.0747 C   0  0  0  0  0  0  0  0  0  0  0  0
    4.2448   -0.0465   -0.1282 C   0  0  0  0  0  0  0  0  0  0  0  0
    6.2364    1.4957   -0.1012 C   0  0  0  0  0  0  0  0  0  0  0  0
    6.3766   -0.7186   -1.2900 C   0  0  0  0  0  0  0  0  0  0  0  0
    6.3888   -0.6210    1.1942 C   0  0  0  0  0  0  0  0  0  0  0  0
    3.5355   -0.6475    0.9118 C   0  0  0  0  0  0  0  0  0  0  0  0
    3.5614    0.4939   -1.2174 C   0  0  0  0  0  0  0  0  0  0  0  0
    2.1429   -0.7081    0.8624 C   0  0  0  0  0  0  0  0  0  0  0  0
    2.1687    0.4334   -1.2666 C   0  0  0  0  0  0  0  0  0  0  0  0
    1.4722   -0.1671   -0.2264 C   0  0  0  0  0  0  0  0  0  0  0  0
   -0.5895   -0.2159    0.9580 C   0  0  0  0  0  0  0  0  0  0  0  0
   -1.9503    0.4141    0.7343 C   0  0  0  0  0  0  0  0  0  0  0  0
   -5.1073   -0.5363   -0.1285 C   0  0  0  0  0  0  0  0  0  0  0  0
   -6.4717    1.5592   -0.1743 C   0  0  0  0  0  0  0  0  0  0  0  0
   -7.5359   -0.6087   -0.7068 C   0  0  0  0  0  0  0  0  0  0  0  0
    7.3293    1.5461   -0.0333 H   0  0  0  0  0  0  0  0  0  0  0  0
    5.9461    2.0103   -1.0238 H   0  0  0  0  0  0  0  0  0  0  0  0
    5.8203    2.0637    0.7392 H   0  0  0  0  0  0  0  0  0  0  0  0
    6.0904   -0.2621   -2.2438 H   0  0  0  0  0  0  0  0  0  0  0  0
    7.4713   -0.6958   -1.2366 H   0  0  0  0  0  0  0  0  0  0  0  0
    6.0627   -1.7688   -1.3185 H   0  0  0  0  0  0  0  0  0  0  0  0
    7.4817   -0.5337    1.1608 H   0  0  0  0  0  0  0  0  0  0  0  0
    6.0559   -0.1234    2.1125 H   0  0  0  0  0  0  0  0  0  0  0  0
    6.1555   -1.6894    1.2714 H   0  0  0  0  0  0  0  0  0  0  0  0
    4.0164   -1.0879    1.7782 H   0  0  0  0  0  0  0  0  0  0  0  0
    4.0883    0.9678   -2.0406 H   0  0  0  0  0  0  0  0  0  0  0  0
    1.6282   -1.2077    1.6773 H   0  0  0  0  0  0  0  0  0  0  0  0
    1.6393    0.8552   -2.1161 H   0  0  0  0  0  0  0  0  0  0  0  0
   -0.7229   -1.2431    1.3165 H   0  0  0  0  0  0  0  0  0  0  0  0
   -0.0738    0.3767    1.7248 H   0  0  0  0  0  0  0  0  0  0  0  0
   -1.2005    2.3318    1.1322 H   0  0  0  0  0  0  0  0  0  0  0  0
   -2.8868    2.2779    0.7452 H   0  0  0  0  0  0  0  0  0  0  0  0
   -7.2214    1.7525    0.5988 H   0  0  0  0  0  0  0  0  0  0  0  0
   -5.5431    2.0578    0.1087 H   0  0  0  0  0  0  0  0  0  0  0  0
   -6.8172    1.9776   -1.1245 H   0  0  0  0  0  0  0  0  0  0  0  0
   -8.2979   -0.4498    0.0614 H   0  0  0  0  0  0  0  0  0  0  0  0
   -7.8933   -0.2241   -1.6662 H   0  0  0  0  0  0  0  0  0  0  0  0
   -7.3407   -1.6798   -0.8011 H   0  0  0  0  0  0  0  0  0  0  0  0
  1 16  1  0  0  0  0
  1 17  1  0  0  0  0
  2  5  1  0  0  0  0
  2 19  1  0  0  0  0
  3 19  2  0  0  0  0
  4 18  1  0  0  0  0
  4 37  1  0  0  0  0
  4 38  1  0  0  0  0
  5 18  2  0  0  0  0
  6 19  1  0  0  0  0
  6 20  1  0  0  0  0
  6 21  1  0  0  0  0
  7  8  1  0  0  0  0
  7  9  1  0  0  0  0
  7 10  1  0  0  0  0
  7 11  1  0  0  0  0
  8 12  2  0  0  0  0
  8 13  1  0  0  0  0
  9 22  1  0  0  0  0
  9 23  1  0  0  0  0
  9 24  1  0  0  0  0
 10 25  1  0  0  0  0
 10 26  1  0  0  0  0
 10 27  1  0  0  0  0
 11 28  1  0  0  0  0
 11 29  1  0  0  0  0
 11 30  1  0  0  0  0
 12 14  1  0  0  0  0
 12 31  1  0  0  0  0
 13 15  2  0  0  0  0
 13 32  1  0  0  0  0
 14 16  2  0  0  0  0
 14 33  1  0  0  0  0
 15 16  1  0  0  0  0
 15 34  1  0  0  0  0
 17 18  1  0  0  0  0
 17 35  1  0  0  0  0
 17 36  1  0  0  0  0
 20 39  1  0  0  0  0
 20 40  1  0  0  0  0
 20 41  1  0  0  0  0
 21 42  1  0  0  0  0
 21 43  1  0  0  0  0
 21 44  1  0  0  0  0
M  END
> <PUBCHEM_COMPOUND_CID>
9580773

> <PUBCHEM_CONFORMER_RMSD>
0.8

> <PUBCHEM_CONFORMER_DIVERSEORDER>
1
101
28
174
67
61
102
165
161
140
30
167
162
163
54
44
22
12
42
111
73
71
47
144
55
68
78
117
115
7
56
164
60
80
48
118
6
151
110
10
49
141
112
26
119
159
29
107
135
17
106
116
90
92
8
70
43
15
99
121
51
41
105
142
53
57
137
50
36
158
27
40
108
154
5
120
170
32
63
98
81
125
96
138
168
95
23
75
39
38
155
139
25
124
172
173
122
166
64
128
35
72
131
45
132
4
65
33
52
126
21
3
11
84
85
82
100
20
76
171
74
149
157
46
31
13
130
114
89
146
134
93
58
66
2
18
109
59
129
79
83
104
156
9
169
62
14
136
77
16
150
160
145
19
97
34
69
133
86
88
123
152
153
143
148
127
103
91
37
24
113
147
87
94

> <PUBCHEM_MMFF94_PARTIAL_CHARGES>
24
1 -0.36
12 -0.15
13 -0.15
14 -0.15
15 -0.15
16 0.08
17 0.34
18 0.44
19 0.78
2 -0.09
20 0.3
21 0.3
3 -0.57
31 0.15
32 0.15
33 0.15
34 0.15
37 0.4
38 0.4
4 -0.85
5 -0.51
6 -0.66
7 0.14
8 -0.14

> <PUBCHEM_EFFECTIVE_ROTOR_COUNT>
7

> <PUBCHEM_PHARMACOPHORE_FEATURES>
6
1 1 acceptor
1 3 acceptor
1 4 donor
3 4 5 18 cation
4 7 9 10 11 hydrophobe
6 8 12 13 14 15 16 rings

> <PUBCHEM_HEAVY_ATOM_COUNT>
21

> <PUBCHEM_ATOM_DEF_STEREO_COUNT>
0

> <PUBCHEM_ATOM_UDEF_STEREO_COUNT>
0

> <PUBCHEM_BOND_DEF_STEREO_COUNT>
1

> <PUBCHEM_BOND_UDEF_STEREO_COUNT>
0

> <PUBCHEM_ISOTOPIC_ATOM_COUNT>
0

> <PUBCHEM_COMPONENT_COUNT>
1

> <PUBCHEM_CACTVS_TAUTO_COUNT>
2

> <PUBCHEM_CONFORMER_ID>
009230E500000001

> <PUBCHEM_MMFF94_ENERGY>
67.5785

> <PUBCHEM_FEATURE_SELFOVERLAP>
30.446

> <PUBCHEM_SHAPE_FINGERPRINT>
10 15 17060046069896552802
10968037 39 18060419123604788783
11089746 13 17821730554434329860
11315181 36 17418376905209510025
11646440 116 14345799327310204029
11719270 70 17846779585763631942
12091667 2 18408887335290356515
12166972 35 18113339725771708796
12236239 1 18333448755127785530
12730499 353 15123793981337585852
12916748 109 12895078405740405090
13167372 99 17676486107824389229
13533116 47 17968371252448227434
13914758 101 17968094183696576553
14123256 10 17203609289664605359
14170010 4 16877661271102648092
1420 363 16415482657403990822
14251752 14 18334855009277835215
14251764 18 17313105246117525453
14251764 46 18412543214835250699
15183329 4 17022901246593975245
15716309 27 13542465362963934469
19489759 90 18412266121242062321
200 152 18040716969671053073
20281389 69 11097851899886453646
21150785 3 18342736338927855559
21267235 1 13182750234375047768
21344244 181 11455903481344240140
21521721 280 13901900137995571934
23035841 295 18202563977879507451
23402539 116 18408884044728242279
23536379 177 17894629245240390387
23559900 14 18340200907726637681
29717793 49 18335146375648787334
300161 21 18040433300193018091
3009799 131 17894347791453971893
34797466 226 17632021927039297276
3545911 37 14129059214376246169
4072396 5 16226040116233586984
4073 2 15430046477796174736
4325135 7 16630528448831884572
4340502 62 17346599664977647582
5283156 175 18411136909546325347
5385378 56 12324507698641357033
59755656 215 18201443545192090326
59755656 520 12396298192789069065
7495541 125 16917067785153968986

> <PUBCHEM_SHAPE_MULTIPOLES>
399.62
21.44
1.25
1.14
19.45
0.24
0.09
0.63
3.55
0.35
-0.12
-0.83
0.01
-1.04

> <PUBCHEM_SHAPE_SELFOVERLAP>
808.976

> <PUBCHEM_SHAPE_VOLUME>
234

> <PUBCHEM_COORDINATE_TYPE>
2
5
10

$$$$
