648182
  -OEChem-01171809153D

 49 51  0     0  0  0  0  0  0999 V2000
   -0.1977    3.4968    0.0905 S   0  0  0  0  0  0  0  0  0  0  0  0
   -2.6696   -2.1962   -1.5350 F   0  0  0  0  0  0  0  0  0  0  0  0
   -0.1339    4.1350    1.3876 O   0  0  0  0  0  0  0  0  0  0  0  0
   -0.2926    4.2799   -1.1226 O   0  0  0  0  0  0  0  0  0  0  0  0
    4.4807   -0.0595   -0.4014 O   0  0  0  0  0  0  0  0  0  0  0  0
    5.5885   -3.1328    1.0535 O   0  0  0  0  0  0  0  0  0  0  0  0
    5.6974   -2.3506   -1.1154 O   0  0  0  0  0  0  0  0  0  0  0  0
   -1.4563    2.3346    0.1011 N   0  0  0  0  0  0  0  0  0  0  0  0
   -3.0774    0.0077    0.1298 N   0  0  0  0  0  0  0  0  0  0  0  0
   -1.5428    1.4749   -1.1132 C   0  0  0  0  0  0  0  0  0  0  0  0
   -1.5612    1.5173    1.3427 C   0  0  0  0  0  0  0  0  0  0  0  0
   -2.8837    0.7469   -1.1259 C   0  0  0  0  0  0  0  0  0  0  0  0
   -2.9004    0.7849    1.3619 C   0  0  0  0  0  0  0  0  0  0  0  0
   -3.9604   -1.0781    0.1164 C   0  0  0  0  0  0  0  0  0  0  0  0
    1.2026    2.4323   -0.0573 C   0  0  0  0  0  0  0  0  0  0  0  0
   -3.7409   -2.1834   -0.7293 C   0  0  0  0  0  0  0  0  0  0  0  0
   -5.0956   -1.0967    0.9504 C   0  0  0  0  0  0  0  0  0  0  0  0
    1.8149    1.9539    1.0899 C   0  0  0  0  0  0  0  0  0  0  0  0
    1.6670    2.0922   -1.3177 C   0  0  0  0  0  0  0  0  0  0  0  0
   -4.6220   -3.2647   -0.7402 C   0  0  0  0  0  0  0  0  0  0  0  0
   -5.9767   -2.1781    0.9393 C   0  0  0  0  0  0  0  0  0  0  0  0
    2.9217    1.1130    0.9737 C   0  0  0  0  0  0  0  0  0  0  0  0
    2.7737    1.2511   -1.4338 C   0  0  0  0  0  0  0  0  0  0  0  0
    3.4010    0.7615   -0.2881 C   0  0  0  0  0  0  0  0  0  0  0  0
   -5.7400   -3.2619    0.0940 C   0  0  0  0  0  0  0  0  0  0  0  0
    4.6779   -1.0196    0.6355 C   0  0  0  0  0  0  0  0  0  0  0  0
    5.3764   -2.2223    0.0582 C   0  0  0  0  0  0  0  0  0  0  0  0
    6.2494   -4.3381    0.6552 C   0  0  0  0  0  0  0  0  0  0  0  0
   -0.7393    0.7310   -1.1130 H   0  0  0  0  0  0  0  0  0  0  0  0
   -1.4662    2.0841   -2.0192 H   0  0  0  0  0  0  0  0  0  0  0  0
   -1.5022    2.1552    2.2299 H   0  0  0  0  0  0  0  0  0  0  0  0
   -0.7477    0.7849    1.3818 H   0  0  0  0  0  0  0  0  0  0  0  0
   -3.7014    1.4703   -1.2395 H   0  0  0  0  0  0  0  0  0  0  0  0
   -2.9121    0.0912   -2.0027 H   0  0  0  0  0  0  0  0  0  0  0  0
   -3.7173    1.5112    1.4591 H   0  0  0  0  0  0  0  0  0  0  0  0
   -2.9180    0.1313    2.2427 H   0  0  0  0  0  0  0  0  0  0  0  0
   -5.3204   -0.2642    1.6125 H   0  0  0  0  0  0  0  0  0  0  0  0
    1.4589    2.2172    2.0812 H   0  0  0  0  0  0  0  0  0  0  0  0
    1.1931    2.4607   -2.2222 H   0  0  0  0  0  0  0  0  0  0  0  0
   -4.4376   -4.1084   -1.3985 H   0  0  0  0  0  0  0  0  0  0  0  0
   -6.8490   -2.1750    1.5864 H   0  0  0  0  0  0  0  0  0  0  0  0
    3.3968    0.7742    1.8896 H   0  0  0  0  0  0  0  0  0  0  0  0
    3.1424    0.9800   -2.4194 H   0  0  0  0  0  0  0  0  0  0  0  0
   -6.4265   -4.1035    0.0847 H   0  0  0  0  0  0  0  0  0  0  0  0
    3.7244   -1.3773    1.0432 H   0  0  0  0  0  0  0  0  0  0  0  0
    5.3112   -0.5822    1.4140 H   0  0  0  0  0  0  0  0  0  0  0  0
    7.2454   -4.1119    0.2625 H   0  0  0  0  0  0  0  0  0  0  0  0
    6.3564   -4.9748    1.5375 H   0  0  0  0  0  0  0  0  0  0  0  0
    5.6508   -4.8694   -0.0909 H   0  0  0  0  0  0  0  0  0  0  0  0
  1  3  2  0  0  0  0
  1  4  2  0  0  0  0
  1  8  1  0  0  0  0
  1 15  1  0  0  0  0
  2 16  1  0  0  0  0
  5 24  1  0  0  0  0
  5 26  1  0  0  0  0
  6 27  1  0  0  0  0
  6 28  1  0  0  0  0
  7 27  2  0  0  0  0
  8 10  1  0  0  0  0
  8 11  1  0  0  0  0
  9 12  1  0  0  0  0
  9 13  1  0  0  0  0
  9 14  1  0  0  0  0
 10 12  1  0  0  0  0
 10 29  1  0  0  0  0
 10 30  1  0  0  0  0
 11 13  1  0  0  0  0
 11 31  1  0  0  0  0
 11 32  1  0  0  0  0
 12 33  1  0  0  0  0
 12 34  1  0  0  0  0
 13 35  1  0  0  0  0
 13 36  1  0  0  0  0
 14 16  1  0  0  0  0
 14 17  2  0  0  0  0
 15 18  2  0  0  0  0
 15 19  1  0  0  0  0
 16 20  2  0  0  0  0
 17 21  1  0  0  0  0
 17 37  1  0  0  0  0
 18 22  1  0  0  0  0
 18 38  1  0  0  0  0
 19 23  2  0  0  0  0
 19 39  1  0  0  0  0
 20 25  1  0  0  0  0
 20 40  1  0  0  0  0
 21 25  2  0  0  0  0
 21 41  1  0  0  0  0
 22 24  2  0  0  0  0
 22 42  1  0  0  0  0
 23 24  1  0  0  0  0
 23 43  1  0  0  0  0
 25 44  1  0  0  0  0
 26 27  1  0  0  0  0
 26 45  1  0  0  0  0
 26 46  1  0  0  0  0
 28 47  1  0  0  0  0
 28 48  1  0  0  0  0
 28 49  1  0  0  0  0
M  END
> <PUBCHEM_COMPOUND_CID>
648182

> <PUBCHEM_CONFORMER_RMSD>
1

> <PUBCHEM_CONFORMER_DIVERSEORDER>
1
83
122
86
64
156
79
5
152
150
104
56
54
105
3
108
57
151
32
106
35
148
115
31
26
33
74
120
139
82
87
112
146
18
128
68
13
59
141
99
25
77
20
126
55
91
14
149
97
154
102
153
136
16
111
85
44
131
137
60
117
24
113
142
58
114
37
130
89
94
78
95
101
28
36
11
30
103
49
96
76
6
125
133
124
147
61
119
155
7
140
107
46
138
22
50
80
21
71
38
118
127
90
123
10
66
65
157
67
70
47
8
134
145
40
41
92
132
98
121
15
72
75
27
43
143
9
48
129
81
19
110
62
52
23
51
2
135
144
69
93
53
84
4
17
88
45
34
12
29
116
42
109
100
63
73
39

> <PUBCHEM_MMFF94_PARTIAL_CHARGES>
36
1 1.45
10 0.36
11 0.36
12 0.37
13 0.37
14 0.1
15 -0.01
16 0.19
17 -0.15
18 -0.15
19 -0.15
2 -0.19
20 -0.15
21 -0.15
22 -0.15
23 -0.15
24 0.08
25 -0.15
26 0.34
27 0.66
28 0.28
3 -0.65
37 0.15
38 0.15
39 0.15
4 -0.65
40 0.15
41 0.15
42 0.15
43 0.15
44 0.15
5 -0.36
6 -0.43
7 -0.57
8 -0.85
9 -0.84

> <PUBCHEM_EFFECTIVE_ROTOR_COUNT>
8.2

> <PUBCHEM_PHARMACOPHORE_FEATURES>
8
1 3 acceptor
1 4 acceptor
1 5 acceptor
1 7 acceptor
1 9 cation
6 14 16 17 20 21 25 rings
6 15 18 19 22 23 24 rings
6 8 9 10 11 12 13 rings

> <PUBCHEM_HEAVY_ATOM_COUNT>
28

> <PUBCHEM_ATOM_DEF_STEREO_COUNT>
0

> <PUBCHEM_ATOM_UDEF_STEREO_COUNT>
0

> <PUBCHEM_BOND_DEF_STEREO_COUNT>
0

> <PUBCHEM_BOND_UDEF_STEREO_COUNT>
0

> <PUBCHEM_ISOTOPIC_ATOM_COUNT>
0

> <PUBCHEM_COMPONENT_COUNT>
1

> <PUBCHEM_CACTVS_TAUTO_COUNT>
1

> <PUBCHEM_CONFORMER_ID>
0009E3F600000001

> <PUBCHEM_MMFF94_ENERGY>
75.2551

> <PUBCHEM_FEATURE_SELFOVERLAP>
40.622

> <PUBCHEM_SHAPE_FINGERPRINT>
10042902 136 18411423878207986138
10074138 170 17487631714500375673
10622 236 18115021888758107458
10928967 22 18340215196819314630
11069576 57 18115877463206770028
11497681 19 18335988567934721966
117089 54 18335993024866498914
12107183 9 18271824431970047161
12174731 88 18339920407375797530
12422481 6 17561369460815265086
12633257 1 15625938793579183417
13103583 49 18059869328408637024
13533116 47 17908990151732164355
13911852 28 18410290345901717447
13965767 371 11959744754290809880
14347332 77 18335420132348000122
14429380 30 18335704918982230290
14866123 147 18268149760830552073
14950920 106 17703224023536502880
15163728 17 8142089775097117112
15320291 9 17836358620530138286
15728490 83 18265333910987717994
15803439 3 16668216172626795124
16728300 4 18200315541521646159
17492 89 18408321060752932964
1813 80 17971749137216572933
19319366 153 17977672240393342228
20775438 99 17760073421446904355
20775530 9 18409439289310244654
20843269 155 18336826386662015490
21033648 29 15338576963474044193
23569914 152 18050249702084658415
270888 7 9511462208305314010
2748736 6 9655571877480569978
2835820 82 18194962083772978863
2838139 119 9007067854580311536
3004659 81 17841730796262764869
32027 91 18341602729243785641
345986 75 17844822562582420977
3680242 22 18198355129115405219
44062 13 18260822670866060069
463206 1 18336267932827144931
484985 159 18193555558479709389
5104073 3 17918278653342407896
513202 73 18259708904716348083
56633871 153 18272933851538943399
6201460 15 17681545940472950786
6700243 42 16517077635623561831
70251023 43 18189899897456271689
7288768 16 11312051050001495789
7970288 3 18410012164854069794
88748 71 18336264630223659959

> <PUBCHEM_SHAPE_MULTIPOLES>
533.49
14.71
5.95
1.42
4.18
0.93
0.06
25.21
-1.69
3.86
-0.3
-0.13
-0.4
-1.31

> <PUBCHEM_SHAPE_SELFOVERLAP>
1117.166

> <PUBCHEM_SHAPE_VOLUME>
304.2

> <PUBCHEM_COORDINATE_TYPE>
2
5
10

$$$$
