2866858
  -OEChem-01171809303D

 45 47  0     0  0  0  0  0  0999 V2000
   -0.2955    4.6995    1.1356 Cl  0  0  0  0  0  0  0  0  0  0  0  0
    3.0974   -0.2429   -0.6799 S   0  0  0  0  0  0  0  0  0  0  0  0
   -3.0777   -2.2853   -1.1720 O   0  0  0  0  0  0  0  0  0  0  0  0
    2.9754   -0.3671   -2.1208 O   0  0  0  0  0  0  0  0  0  0  0  0
    4.4095   -0.0642   -0.0866 O   0  0  0  0  0  0  0  0  0  0  0  0
    4.0270   -2.3472    1.4161 O   0  0  0  0  0  0  0  0  0  0  0  0
   -4.1820    0.3247    1.9660 O   0  0  0  0  0  0  0  0  0  0  0  0
   -1.0092    2.4145   -2.4539 O   0  5  0  0  0  0  0  0  0  0  0  0
   -1.4682    4.0453   -1.0580 O   0  0  0  0  0  0  0  0  0  0  0  0
    2.2526   -1.5530    0.0822 N   0  0  0  0  0  0  0  0  0  0  0  0
   -0.7775    3.0590   -1.4046 N   0  3  0  0  0  0  0  0  0  0  0  0
   -1.4639   -1.3418    0.0965 C   0  0  0  0  0  0  0  0  0  0  0  0
    0.8846   -1.7669   -0.2713 C   0  0  0  0  0  0  0  0  0  0  0  0
   -1.7331   -2.1933   -0.9701 C   0  0  0  0  0  0  0  0  0  0  0  0
   -0.1233   -1.1207    0.4575 C   0  0  0  0  0  0  0  0  0  0  0  0
   -2.7285   -0.8952    0.5625 C   0  0  0  0  0  0  0  0  0  0  0  0
   -3.6715   -1.4960   -0.2391 C   0  0  0  0  0  0  0  0  0  0  0  0
    0.5727   -2.6150   -1.3369 C   0  0  0  0  0  0  0  0  0  0  0  0
   -0.7533   -2.8492   -1.7131 C   0  0  0  0  0  0  0  0  0  0  0  0
    2.1292    1.1525   -0.1793 C   0  0  0  0  0  0  0  0  0  0  0  0
    2.8541   -2.4456    1.0587 C   0  0  0  0  0  0  0  0  0  0  0  0
   -3.0164    0.0004    1.6453 C   0  0  0  0  0  0  0  0  0  0  0  0
    1.0706    1.5568   -0.9718 C   0  0  0  0  0  0  0  0  0  0  0  0
   -5.1412   -1.4488   -0.2799 C   0  0  0  0  0  0  0  0  0  0  0  0
    2.4524    1.8087    0.9941 C   0  0  0  0  0  0  0  0  0  0  0  0
    0.3084    2.6562   -0.5769 C   0  0  0  0  0  0  0  0  0  0  0  0
    1.9875   -3.5395    1.6324 C   0  0  0  0  0  0  0  0  0  0  0  0
    1.6900    2.9081    1.3889 C   0  0  0  0  0  0  0  0  0  0  0  0
   -1.8881    0.6142    2.4749 C   0  0  0  0  0  0  0  0  0  0  0  0
    0.6180    3.3318    0.6034 C   0  0  0  0  0  0  0  0  0  0  0  0
    0.1510   -0.4865    1.2916 H   0  0  0  0  0  0  0  0  0  0  0  0
    1.3681   -3.1085   -1.8917 H   0  0  0  0  0  0  0  0  0  0  0  0
   -1.0030   -3.5057   -2.5380 H   0  0  0  0  0  0  0  0  0  0  0  0
    0.8456    1.0148   -1.8858 H   0  0  0  0  0  0  0  0  0  0  0  0
   -5.5399   -2.0792   -1.0812 H   0  0  0  0  0  0  0  0  0  0  0  0
   -5.5652   -1.8026    0.6650 H   0  0  0  0  0  0  0  0  0  0  0  0
   -5.4897   -0.4263   -0.4553 H   0  0  0  0  0  0  0  0  0  0  0  0
    3.2766    1.4883    1.6234 H   0  0  0  0  0  0  0  0  0  0  0  0
    1.1333   -3.1152    2.1651 H   0  0  0  0  0  0  0  0  0  0  0  0
    2.5740   -4.1203    2.3517 H   0  0  0  0  0  0  0  0  0  0  0  0
    1.6550   -4.2202    0.8454 H   0  0  0  0  0  0  0  0  0  0  0  0
    1.9432    3.4218    2.3128 H   0  0  0  0  0  0  0  0  0  0  0  0
   -1.2451    1.2235    1.8383 H   0  0  0  0  0  0  0  0  0  0  0  0
   -1.3272   -0.1718    2.9857 H   0  0  0  0  0  0  0  0  0  0  0  0
   -2.3194    1.2692    3.2389 H   0  0  0  0  0  0  0  0  0  0  0  0
  1 30  1  0  0  0  0
  2  4  2  0  0  0  0
  2  5  2  0  0  0  0
  2 10  1  0  0  0  0
  2 20  1  0  0  0  0
  3 14  1  0  0  0  0
  3 17  1  0  0  0  0
  6 21  2  0  0  0  0
  7 22  2  0  0  0  0
  8 11  1  0  0  0  0
  9 11  2  0  0  0  0
 10 13  1  0  0  0  0
 10 21  1  0  0  0  0
 11 26  1  0  0  0  0
 12 14  2  0  0  0  0
 12 15  1  0  0  0  0
 12 16  1  0  0  0  0
 13 15  2  0  0  0  0
 13 18  1  0  0  0  0
 14 19  1  0  0  0  0
 15 31  1  0  0  0  0
 16 17  2  0  0  0  0
 16 22  1  0  0  0  0
 17 24  1  0  0  0  0
 18 19  2  0  0  0  0
 18 32  1  0  0  0  0
 19 33  1  0  0  0  0
 20 23  2  0  0  0  0
 20 25  1  0  0  0  0
 21 27  1  0  0  0  0
 22 29  1  0  0  0  0
 23 26  1  0  0  0  0
 23 34  1  0  0  0  0
 24 35  1  0  0  0  0
 24 36  1  0  0  0  0
 24 37  1  0  0  0  0
 25 28  2  0  0  0  0
 25 38  1  0  0  0  0
 26 30  2  0  0  0  0
 27 39  1  0  0  0  0
 27 40  1  0  0  0  0
 27 41  1  0  0  0  0
 28 30  1  0  0  0  0
 28 42  1  0  0  0  0
 29 43  1  0  0  0  0
 29 44  1  0  0  0  0
 29 45  1  0  0  0  0
M  CHG  2   8  -1  11   1
M  END
> <PUBCHEM_COMPOUND_CID>
2866858

> <PUBCHEM_CONFORMER_RMSD>
0.8

> <PUBCHEM_CONFORMER_DIVERSEORDER>
1
44
34
23
18
32
14
41
36
40
29
43
16
45
42
3
11
2
9
24
38
8
28
31
26
12
37
46
4
27
19
6
35
22
10
21
25
39
30
33
5
20
13
7
17
15

> <PUBCHEM_MMFF94_PARTIAL_CHARGES>
35
1 -0.18
10 -0.57
11 0.91
13 0.2
14 0.14
15 -0.15
16 -0.09
17 -0.04
18 -0.15
19 -0.15
2 1.45
20 -0.01
21 0.75
22 0.6
23 -0.15
24 0.18
25 -0.15
26 0.13
27 0.06
28 -0.15
29 0.06
3 -0.28
30 0.18
31 0.15
32 0.15
33 0.15
34 0.15
38 0.15
4 -0.65
42 0.15
5 -0.65
6 -0.57
7 -0.57
8 -0.52
9 -0.52

> <PUBCHEM_EFFECTIVE_ROTOR_COUNT>
6

> <PUBCHEM_PHARMACOPHORE_FEATURES>
11
1 3 acceptor
1 4 acceptor
1 5 acceptor
1 6 acceptor
1 7 acceptor
1 8 acceptor
1 8 anion
1 9 acceptor
5 3 12 14 16 17 rings
6 12 13 14 15 18 19 rings
6 20 23 25 26 28 30 rings

> <PUBCHEM_HEAVY_ATOM_COUNT>
30

> <PUBCHEM_ATOM_DEF_STEREO_COUNT>
0

> <PUBCHEM_ATOM_UDEF_STEREO_COUNT>
0

> <PUBCHEM_BOND_DEF_STEREO_COUNT>
0

> <PUBCHEM_BOND_UDEF_STEREO_COUNT>
0

> <PUBCHEM_ISOTOPIC_ATOM_COUNT>
0

> <PUBCHEM_COMPONENT_COUNT>
1

> <PUBCHEM_CACTVS_TAUTO_COUNT>
2

> <PUBCHEM_CONFORMER_ID>
002BBEAA00000001

> <PUBCHEM_MMFF94_ENERGY>
83.2064

> <PUBCHEM_FEATURE_SELFOVERLAP>
56.034

> <PUBCHEM_SHAPE_FINGERPRINT>
10119406 146 15457066550969911455
104564 63 18193014637597892852
10708813 3 18199755906496402449
11370993 70 17189242233223197433
11578080 2 18055602115254575304
12156800 1 17251406026523474545
12422481 6 17687772457693229329
12788726 201 18335984165071224722
13140716 1 18339351951236437576
13692114 37 17476079030121834249
13965767 371 18057334885371364698
14279260 333 8107703048340948369
14955137 171 17838944508600357139
15420108 30 18202849858991367841
20691752 17 18262517117089601786
20715895 44 18053649563677936991
20764821 26 18339062818359944700
20905425 154 18336544906841263286
21133410 90 17701793567541515777
22749437 52 17621597650078978661
23558518 356 17473827702232233927
23559900 14 17344075327328138484
352729 6 17762612889769232758
4409770 3 17833262030565380962
474 4 17976534241225768911
57527358 35 13712128034218062438

> <PUBCHEM_SHAPE_MULTIPOLES>
572.06
6.5
5.61
2.04
5.34
3.89
-0.06
-2.51
-1.03
-3.17
-0.4
0.32
0.26
-1.18

> <PUBCHEM_SHAPE_SELFOVERLAP>
1226.069

> <PUBCHEM_SHAPE_VOLUME>
320

> <PUBCHEM_COORDINATE_TYPE>
2
5
10

$$$$
