371687
  -OEChem-01171810003D

 26 27  0     0  0  0  0  0  0999 V2000
   -0.1925    1.0521    0.0012 S   0  0  0  0  0  0  0  0  0  0  0  0
   -0.0107    1.7610   -1.2577 O   0  0  0  0  0  0  0  0  0  0  0  0
    0.0705    1.7355    1.2610 O   0  0  0  0  0  0  0  0  0  0  0  0
    4.1878    1.0515   -0.0026 O   0  5  0  0  0  0  0  0  0  0  0  0
    2.2510    2.0850    0.0003 O   0  0  0  0  0  0  0  0  0  0  0  0
    0.2055   -1.4875   -0.0019 N   0  0  0  0  0  0  0  0  0  0  0  0
    2.9329    1.0312   -0.0012 N   0  3  0  0  0  0  0  0  0  0  0  0
   -1.8369    0.4651    0.0021 C   0  0  0  0  0  0  0  0  0  0  0  0
    0.9021   -0.3423   -0.0009 C   0  0  0  0  0  0  0  0  0  0  0  0
    2.2648   -0.2210   -0.0020 C   0  0  0  0  0  0  0  0  0  0  0  0
   -2.4928    0.2297    1.2105 C   0  0  0  0  0  0  0  0  0  0  0  0
   -2.4948    0.2314   -1.2056 C   0  0  0  0  0  0  0  0  0  0  0  0
    2.9995   -1.4015   -0.0042 C   0  0  0  0  0  0  0  0  0  0  0  0
   -3.8063   -0.2397    1.2113 C   0  0  0  0  0  0  0  0  0  0  0  0
   -3.8083   -0.2380   -1.2047 C   0  0  0  0  0  0  0  0  0  0  0  0
   -4.4640   -0.4734    0.0038 C   0  0  0  0  0  0  0  0  0  0  0  0
    2.3388   -2.6251   -0.0054 C   0  0  0  0  0  0  0  0  0  0  0  0
    0.9533   -2.6139   -0.0040 C   0  0  0  0  0  0  0  0  0  0  0  0
   -1.9971    0.3988    2.1623 H   0  0  0  0  0  0  0  0  0  0  0  0
   -2.0022    0.3990   -2.1592 H   0  0  0  0  0  0  0  0  0  0  0  0
    4.0863   -1.4072   -0.0053 H   0  0  0  0  0  0  0  0  0  0  0  0
   -4.3165   -0.4248    2.1521 H   0  0  0  0  0  0  0  0  0  0  0  0
   -4.3201   -0.4222   -2.1448 H   0  0  0  0  0  0  0  0  0  0  0  0
   -5.4864   -0.8399    0.0044 H   0  0  0  0  0  0  0  0  0  0  0  0
    2.8904   -3.5582   -0.0072 H   0  0  0  0  0  0  0  0  0  0  0  0
    0.3902   -3.5414   -0.0047 H   0  0  0  0  0  0  0  0  0  0  0  0
  1  2  2  0  0  0  0
  1  3  2  0  0  0  0
  1  8  1  0  0  0  0
  1  9  1  0  0  0  0
  4  7  1  0  0  0  0
  5  7  2  0  0  0  0
  6  9  1  0  0  0  0
  6 18  2  0  0  0  0
  7 10  1  0  0  0  0
  8 11  2  0  0  0  0
  8 12  1  0  0  0  0
  9 10  2  0  0  0  0
 10 13  1  0  0  0  0
 11 14  1  0  0  0  0
 11 19  1  0  0  0  0
 12 15  2  0  0  0  0
 12 20  1  0  0  0  0
 13 17  2  0  0  0  0
 13 21  1  0  0  0  0
 14 16  2  0  0  0  0
 14 22  1  0  0  0  0
 15 16  1  0  0  0  0
 15 23  1  0  0  0  0
 16 24  1  0  0  0  0
 17 18  1  0  0  0  0
 17 25  1  0  0  0  0
 18 26  1  0  0  0  0
M  CHG  2   4  -1   7   1
M  END
> <PUBCHEM_COMPOUND_CID>
371687

> <PUBCHEM_CONFORMER_RMSD>
0.6

> <PUBCHEM_CONFORMER_DIVERSEORDER>
1

> <PUBCHEM_MMFF94_PARTIAL_CHARGES>
26
1 1.32
10 0.13
11 -0.15
12 -0.15
13 -0.15
14 -0.15
15 -0.15
16 -0.15
17 -0.15
18 0.16
19 0.15
2 -0.65
20 0.15
21 0.15
22 0.15
23 0.15
24 0.15
25 0.15
26 0.15
3 -0.65
4 -0.52
5 -0.52
6 -0.62
7 0.91
8 -0.01
9 0.3

> <PUBCHEM_EFFECTIVE_ROTOR_COUNT>
3

> <PUBCHEM_PHARMACOPHORE_FEATURES>
8
1 2 acceptor
1 3 acceptor
1 4 acceptor
1 4 anion
1 5 acceptor
1 6 acceptor
6 6 9 10 13 17 18 rings
6 8 11 12 14 15 16 rings

> <PUBCHEM_HEAVY_ATOM_COUNT>
18

> <PUBCHEM_ATOM_DEF_STEREO_COUNT>
0

> <PUBCHEM_ATOM_UDEF_STEREO_COUNT>
0

> <PUBCHEM_BOND_DEF_STEREO_COUNT>
0

> <PUBCHEM_BOND_UDEF_STEREO_COUNT>
0

> <PUBCHEM_ISOTOPIC_ATOM_COUNT>
0

> <PUBCHEM_COMPONENT_COUNT>
1

> <PUBCHEM_CACTVS_TAUTO_COUNT>
1

> <PUBCHEM_CONFORMER_ID>
0005ABE700000001

> <PUBCHEM_MMFF94_ENERGY>
48.7003

> <PUBCHEM_FEATURE_SELFOVERLAP>
40.724

> <PUBCHEM_SHAPE_FINGERPRINT>
10967382 1 18410855473356169414
10980938 120 18343018887029367634
11471102 20 18410572881360738846
12236239 1 17775569749702807625
12553582 1 18050855411772712939
12596599 1 17917435293775330479
13140716 1 18122621914871133536
13296908 3 17967534536815365095
13583140 156 16589123083087229268
14251717 144 18411978070195745639
14787075 74 17774436226013283056
15219456 202 18186800258054535829
15375358 24 17968089820452545295
15375462 189 18131633383164851211
16945 1 18410856568440850656
18186145 218 18341899601414261638
19422 9 17846781776011920207
200 152 18270391698797555423
20279233 1 17821447963130034659
204376 136 18265334095876416172
20645477 70 18338506453029010951
21427221 339 17558011471100059017
21501502 16 18266178318616063656
22112679 90 17346593054574280265
221490 88 18263927635678608646
2255824 54 18342178890368766932
22802520 49 18042960965735149917
23402539 116 16515953857187242663
23557571 272 17240198820613357429
23559900 14 16950840311018931922
2748010 2 17835792002958495046
33824 294 18408603677536849234
458136 41 18337685195073007620
474 4 17629185285143668016
581208 293 18411978065858456954
633830 44 18058466441618429148
77492 1 17703790314821362275
81228 2 17044283174040806402
8272917 22 18412268311569816797
9981440 41 15618309484357957464

> <PUBCHEM_SHAPE_MULTIPOLES>
340.84
7.14
2.3
1.08
3.21
0.71
0
0.76
0
-2.55
-0.01
1.09
-0.21
0.01

> <PUBCHEM_SHAPE_SELFOVERLAP>
728.022

> <PUBCHEM_SHAPE_VOLUME>
188.7

> <PUBCHEM_COORDINATE_TYPE>
2
5
10

$$$$
