5350726
  -OEChem-01171810013D

 40 41  0     0  0  0  0  0  0999 V2000
    3.9148    2.8297   -0.0575 O   0  0  0  0  0  0  0  0  0  0  0  0
    4.3304   -1.7910    0.3585 O   0  0  0  0  0  0  0  0  0  0  0  0
    0.4520   -2.2493   -0.4130 O   0  5  0  0  0  0  0  0  0  0  0  0
    2.4210   -3.1153    0.0605 O   0  0  0  0  0  0  0  0  0  0  0  0
    2.0242    1.4925   -0.3177 N   0  0  0  0  0  0  0  0  0  0  0  0
    4.1649    0.5336    0.1599 N   0  0  0  0  0  0  0  0  0  0  0  0
    1.6585   -2.1669   -0.1568 N   0  3  0  0  0  0  0  0  0  0  0  0
    1.4530    0.2161   -0.3323 C   0  0  0  0  0  0  0  0  0  0  0  0
    2.2229   -0.8561   -0.1071 C   0  0  0  0  0  0  0  0  0  0  0  0
    3.3998    1.7060   -0.0710 C   0  0  0  0  0  0  0  0  0  0  0  0
    3.6680   -0.7747    0.1608 C   0  0  0  0  0  0  0  0  0  0  0  0
    0.0239    0.1186   -0.5934 C   0  0  0  0  0  0  0  0  0  0  0  0
   -2.2900    0.0530    0.3469 C   0  0  0  0  0  0  0  0  0  0  0  0
    1.1632    2.6541   -0.5679 C   0  0  0  0  0  0  0  0  0  0  0  0
   -5.0480   -0.1325    0.1592 C   0  0  0  0  0  0  0  0  0  0  0  0
   -0.8229    0.1507    0.4472 C   0  0  0  0  0  0  0  0  0  0  0  0
    5.5912    0.7068    0.4181 C   0  0  0  0  0  0  0  0  0  0  0  0
   -6.5326   -0.2317    0.0580 C   0  0  0  0  0  0  0  0  0  0  0  0
   -2.8572   -0.4888   -0.7949 C   0  0  0  0  0  0  0  0  0  0  0  0
   -3.0732    0.5039    1.3969 C   0  0  0  0  0  0  0  0  0  0  0  0
   -4.2457   -0.5823   -0.8894 C   0  0  0  0  0  0  0  0  0  0  0  0
   -4.4617    0.4105    1.3024 C   0  0  0  0  0  0  0  0  0  0  0  0
   -7.1565    1.0130   -0.5675 C   0  0  0  0  0  0  0  0  0  0  0  0
   -0.2866    0.0882   -1.6321 H   0  0  0  0  0  0  0  0  0  0  0  0
    0.6567    2.5435   -1.5320 H   0  0  0  0  0  0  0  0  0  0  0  0
    1.7469    3.5783   -0.6059 H   0  0  0  0  0  0  0  0  0  0  0  0
    0.4369    2.7544    0.2444 H   0  0  0  0  0  0  0  0  0  0  0  0
   -0.4327    0.2380    1.4603 H   0  0  0  0  0  0  0  0  0  0  0  0
    6.1062   -0.2405    0.5933 H   0  0  0  0  0  0  0  0  0  0  0  0
    5.7126    1.3518    1.2943 H   0  0  0  0  0  0  0  0  0  0  0  0
    6.0433    1.2105   -0.4423 H   0  0  0  0  0  0  0  0  0  0  0  0
   -6.8094   -1.1138   -0.5330 H   0  0  0  0  0  0  0  0  0  0  0  0
   -6.9656   -0.3950    1.0529 H   0  0  0  0  0  0  0  0  0  0  0  0
   -2.2693   -0.8674   -1.6252 H   0  0  0  0  0  0  0  0  0  0  0  0
   -2.6311    0.9310    2.2932 H   0  0  0  0  0  0  0  0  0  0  0  0
   -4.6908   -1.0095   -1.7842 H   0  0  0  0  0  0  0  0  0  0  0  0
   -5.0758    0.7664    2.1255 H   0  0  0  0  0  0  0  0  0  0  0  0
   -6.9358    1.9072    0.0252 H   0  0  0  0  0  0  0  0  0  0  0  0
   -8.2439    0.9025   -0.6245 H   0  0  0  0  0  0  0  0  0  0  0  0
   -6.7775    1.1790   -1.5816 H   0  0  0  0  0  0  0  0  0  0  0  0
  1 10  2  0  0  0  0
  2 11  2  0  0  0  0
  3  7  1  0  0  0  0
  4  7  2  0  0  0  0
  5  8  1  0  0  0  0
  5 10  1  0  0  0  0
  5 14  1  0  0  0  0
  6 10  1  0  0  0  0
  6 11  1  0  0  0  0
  6 17  1  0  0  0  0
  7  9  1  0  0  0  0
  8  9  2  0  0  0  0
  8 12  1  0  0  0  0
  9 11  1  0  0  0  0
 12 16  2  0  0  0  0
 12 24  1  0  0  0  0
 13 16  1  0  0  0  0
 13 19  2  0  0  0  0
 13 20  1  0  0  0  0
 14 25  1  0  0  0  0
 14 26  1  0  0  0  0
 14 27  1  0  0  0  0
 15 18  1  0  0  0  0
 15 21  2  0  0  0  0
 15 22  1  0  0  0  0
 16 28  1  0  0  0  0
 17 29  1  0  0  0  0
 17 30  1  0  0  0  0
 17 31  1  0  0  0  0
 18 23  1  0  0  0  0
 18 32  1  0  0  0  0
 18 33  1  0  0  0  0
 19 21  1  0  0  0  0
 19 34  1  0  0  0  0
 20 22  2  0  0  0  0
 20 35  1  0  0  0  0
 21 36  1  0  0  0  0
 22 37  1  0  0  0  0
 23 38  1  0  0  0  0
 23 39  1  0  0  0  0
 23 40  1  0  0  0  0
M  CHG  2   3  -1   7   1
M  END
> <PUBCHEM_COMPOUND_CID>
5350726

> <PUBCHEM_CONFORMER_RMSD>
0.6

> <PUBCHEM_CONFORMER_DIVERSEORDER>
2
4
3
1

> <PUBCHEM_MMFF94_PARTIAL_CHARGES>
28
1 -0.57
10 0.69
11 0.62
12 -0.15
13 0.03
14 0.3
15 -0.14
16 -0.18
17 0.3
18 0.14
19 -0.15
2 -0.57
20 -0.15
21 -0.15
22 -0.15
24 0.15
28 0.15
3 -0.52
34 0.15
35 0.15
36 0.15
37 0.15
4 -0.52
5 -0.47
6 -0.42
7 0.84
8 0.11
9 0.22

> <PUBCHEM_EFFECTIVE_ROTOR_COUNT>
4

> <PUBCHEM_PHARMACOPHORE_FEATURES>
8
1 1 acceptor
1 2 acceptor
1 23 hydrophobe
1 3 acceptor
1 3 anion
1 4 acceptor
6 13 15 19 20 21 22 rings
6 5 6 8 9 10 11 rings

> <PUBCHEM_HEAVY_ATOM_COUNT>
23

> <PUBCHEM_ATOM_DEF_STEREO_COUNT>
0

> <PUBCHEM_ATOM_UDEF_STEREO_COUNT>
0

> <PUBCHEM_BOND_DEF_STEREO_COUNT>
1

> <PUBCHEM_BOND_UDEF_STEREO_COUNT>
0

> <PUBCHEM_ISOTOPIC_ATOM_COUNT>
0

> <PUBCHEM_COMPONENT_COUNT>
1

> <PUBCHEM_CACTVS_TAUTO_COUNT>
1

> <PUBCHEM_CONFORMER_ID>
0051A54600000002

> <PUBCHEM_MMFF94_ENERGY>
83.0973

> <PUBCHEM_FEATURE_SELFOVERLAP>
40.718

> <PUBCHEM_SHAPE_FINGERPRINT>
10411042 1 17978228258517979958
10595046 47 18342738533840909473
10688039 33 17822289054886555268
10835480 77 18408318870593918653
12107183 9 17623017794148138955
12236239 1 17988924457771295031
12788726 201 17275111600745803507
12838862 33 18339907304105368944
13140716 1 18192705868858383784
13167372 99 18341898438164465841
13533116 47 18272650121572228051
13540713 5 17903063771384734812
13631057 29 17985259927445660695
13836976 161 18410298033945840598
14341114 328 17989208148587237459
14386348 63 17313108536189217555
15183329 4 18410853227726830413
15475509 35 16443888498201969784
19377110 9 17917163749290145907
200 152 18343580738051396857
20028762 73 18130223766267152630
20157964 124 18410856556088646829
20511986 3 18059841862519747813
20645477 70 18333730208418611123
20739085 24 18334020501538505484
21033648 29 17531231890305982613
21065198 48 18059580131333643379
21267235 1 18340774745322018142
22224240 67 18341325678410177896
23557571 272 16877939395952179359
23559900 14 18408884075056946081
26918003 58 18187087273623584561
29717793 49 17775007856132090909
300161 21 18131346419372851967
335352 9 18411704314340714252
33824 294 18408322177170155866
34797466 226 15051735334516121481
3633792 109 18340200792506052549
4073 2 17968662730509343259
42630746 31 18413390938585083246
4340502 62 18409735092698774899
4409770 3 15893377005565691527
474 4 18411985801052300656
5104073 3 18337107976985353483
5283173 99 18115581531724068829
59755656 215 18408606941680112012
67856867 119 18200590423206222241
8272917 22 18411420613426290478
9995097 60 18334288739478634109

> <PUBCHEM_SHAPE_MULTIPOLES>
434.91
14.37
2.38
0.92
16.27
0.27
0.15
-2.64
0.57
-3.83
-0.29
0.91
-0.1
-0.34

> <PUBCHEM_SHAPE_SELFOVERLAP>
930.238

> <PUBCHEM_SHAPE_VOLUME>
239.3

> <PUBCHEM_COORDINATE_TYPE>
2
5
10

$$$$
