3242882
  -OEChem-01171809513D

 59 63  0     0  0  0  0  0  0999 V2000
   -9.9675   -2.2309   -0.4410 Cl  0  0  0  0  0  0  0  0  0  0  0  0
    7.1681   -1.9550   -0.5570 O   0  0  0  0  0  0  0  0  0  0  0  0
    7.6675   -0.9455    1.5020 O   0  0  0  0  0  0  0  0  0  0  0  0
    3.5159    2.2686   -1.5761 O   0  0  0  0  0  0  0  0  0  0  0  0
    4.4369    0.2565   -0.8681 N   0  0  0  0  0  0  0  0  0  0  0  0
   -2.5408    0.6604   -0.1851 N   0  0  0  0  0  0  0  0  0  0  0  0
   -1.8021    1.7169    1.8385 N   0  0  0  0  0  0  0  0  0  0  0  0
   -3.6499    0.0471   -0.6905 N   0  0  0  0  0  0  0  0  0  0  0  0
    6.7682   -0.9400    0.3812 C   0  0  0  0  0  0  0  0  0  0  0  0
    6.8252    0.4368   -0.2912 C   0  0  0  0  0  0  0  0  0  0  0  0
    5.3452   -1.2417    0.8668 C   0  0  0  0  0  0  0  0  0  0  0  0
    5.7696    0.5738   -1.3862 C   0  0  0  0  0  0  0  0  0  0  0  0
    4.3155   -1.0697   -0.2493 C   0  0  0  0  0  0  0  0  0  0  0  0
    8.4653   -2.3602   -0.1234 C   0  0  0  0  0  0  0  0  0  0  0  0
    8.4120   -2.1547    1.3648 C   0  0  0  0  0  0  0  0  0  0  0  0
    3.3974    1.1736   -1.0203 C   0  0  0  0  0  0  0  0  0  0  0  0
    2.0564    0.7747   -0.4577 C   0  0  0  0  0  0  0  0  0  0  0  0
    1.0311    1.8690   -0.6989 C   0  0  0  0  0  0  0  0  0  0  0  0
   -0.3199    1.5167   -0.1718 C   0  0  0  0  0  0  0  0  0  0  0  0
   -1.3100    0.8778   -0.8337 C   0  0  0  0  0  0  0  0  0  0  0  0
   -0.6621    1.9190    1.2478 C   0  0  0  0  0  0  0  0  0  0  0  0
   -2.7631    1.0827    1.1224 C   0  0  0  0  0  0  0  0  0  0  0  0
   -1.2047    0.3594   -2.2443 C   0  0  0  0  0  0  0  0  0  0  0  0
    0.4019    2.6209    2.0655 C   0  0  0  0  0  0  0  0  0  0  0  0
   -4.0520    0.7229    1.4430 C   0  0  0  0  0  0  0  0  0  0  0  0
   -4.5437    0.0936    0.2950 C   0  0  0  0  0  0  0  0  0  0  0  0
   -5.8572   -0.4678    0.1170 C   0  0  0  0  0  0  0  0  0  0  0  0
   -6.5441   -0.9871    1.2121 C   0  0  0  0  0  0  0  0  0  0  0  0
   -6.4362   -0.4913   -1.1500 C   0  0  0  0  0  0  0  0  0  0  0  0
   -7.8163   -1.5326    1.0393 C   0  0  0  0  0  0  0  0  0  0  0  0
   -7.7084   -1.0366   -1.3226 C   0  0  0  0  0  0  0  0  0  0  0  0
   -8.3984   -1.5573   -0.2280 C   0  0  0  0  0  0  0  0  0  0  0  0
    6.6777    1.2186    0.4651 H   0  0  0  0  0  0  0  0  0  0  0  0
    7.8184    0.6056   -0.7247 H   0  0  0  0  0  0  0  0  0  0  0  0
    5.0969   -0.5769    1.7043 H   0  0  0  0  0  0  0  0  0  0  0  0
    5.2880   -2.2665    1.2537 H   0  0  0  0  0  0  0  0  0  0  0  0
    5.7966    1.5879   -1.7971 H   0  0  0  0  0  0  0  0  0  0  0  0
    5.9735   -0.1174   -2.2124 H   0  0  0  0  0  0  0  0  0  0  0  0
    4.4774   -1.8108   -1.0410 H   0  0  0  0  0  0  0  0  0  0  0  0
    3.3173   -1.2481    0.1533 H   0  0  0  0  0  0  0  0  0  0  0  0
    8.6648   -3.3950   -0.4123 H   0  0  0  0  0  0  0  0  0  0  0  0
    9.2034   -1.7030   -0.5956 H   0  0  0  0  0  0  0  0  0  0  0  0
    9.3979   -2.0571    1.8255 H   0  0  0  0  0  0  0  0  0  0  0  0
    7.8561   -2.9561    1.8635 H   0  0  0  0  0  0  0  0  0  0  0  0
    1.7329   -0.1492   -0.9515 H   0  0  0  0  0  0  0  0  0  0  0  0
    2.1678    0.5794    0.6134 H   0  0  0  0  0  0  0  0  0  0  0  0
    1.3767    2.8230   -0.2853 H   0  0  0  0  0  0  0  0  0  0  0  0
    0.9587    2.0734   -1.7753 H   0  0  0  0  0  0  0  0  0  0  0  0
   -1.4442   -0.7093   -2.2781 H   0  0  0  0  0  0  0  0  0  0  0  0
   -0.2038    0.4686   -2.6693 H   0  0  0  0  0  0  0  0  0  0  0  0
   -1.9020    0.8931   -2.8989 H   0  0  0  0  0  0  0  0  0  0  0  0
    0.0628    2.7367    3.1003 H   0  0  0  0  0  0  0  0  0  0  0  0
    1.3284    2.0452    2.0841 H   0  0  0  0  0  0  0  0  0  0  0  0
    0.5839    3.6192    1.6585 H   0  0  0  0  0  0  0  0  0  0  0  0
   -4.5455    0.9089    2.3868 H   0  0  0  0  0  0  0  0  0  0  0  0
   -6.1130   -0.9921    2.2100 H   0  0  0  0  0  0  0  0  0  0  0  0
   -5.9267   -0.0857   -2.0206 H   0  0  0  0  0  0  0  0  0  0  0  0
   -8.3415   -1.9370    1.9008 H   0  0  0  0  0  0  0  0  0  0  0  0
   -8.1505   -1.0477   -2.3156 H   0  0  0  0  0  0  0  0  0  0  0  0
  1 32  1  0  0  0  0
  2  9  1  0  0  0  0
  2 14  1  0  0  0  0
  3  9  1  0  0  0  0
  3 15  1  0  0  0  0
  4 16  2  0  0  0  0
  5 12  1  0  0  0  0
  5 13  1  0  0  0  0
  5 16  1  0  0  0  0
  6  8  1  0  0  0  0
  6 20  1  0  0  0  0
  6 22  1  0  0  0  0
  7 21  2  0  0  0  0
  7 22  1  0  0  0  0
  8 26  2  0  0  0  0
  9 10  1  0  0  0  0
  9 11  1  0  0  0  0
 10 12  1  0  0  0  0
 10 33  1  0  0  0  0
 10 34  1  0  0  0  0
 11 13  1  0  0  0  0
 11 35  1  0  0  0  0
 11 36  1  0  0  0  0
 12 37  1  0  0  0  0
 12 38  1  0  0  0  0
 13 39  1  0  0  0  0
 13 40  1  0  0  0  0
 14 15  1  0  0  0  0
 14 41  1  0  0  0  0
 14 42  1  0  0  0  0
 15 43  1  0  0  0  0
 15 44  1  0  0  0  0
 16 17  1  0  0  0  0
 17 18  1  0  0  0  0
 17 45  1  0  0  0  0
 17 46  1  0  0  0  0
 18 19  1  0  0  0  0
 18 47  1  0  0  0  0
 18 48  1  0  0  0  0
 19 20  2  0  0  0  0
 19 21  1  0  0  0  0
 20 23  1  0  0  0  0
 21 24  1  0  0  0  0
 22 25  2  0  0  0  0
 23 49  1  0  0  0  0
 23 50  1  0  0  0  0
 23 51  1  0  0  0  0
 24 52  1  0  0  0  0
 24 53  1  0  0  0  0
 24 54  1  0  0  0  0
 25 26  1  0  0  0  0
 25 55  1  0  0  0  0
 26 27  1  0  0  0  0
 27 28  2  0  0  0  0
 27 29  1  0  0  0  0
 28 30  1  0  0  0  0
 28 56  1  0  0  0  0
 29 31  2  0  0  0  0
 29 57  1  0  0  0  0
 30 32  2  0  0  0  0
 30 58  1  0  0  0  0
 31 32  1  0  0  0  0
 31 59  1  0  0  0  0
M  END
> <PUBCHEM_COMPOUND_CID>
3242882

> <PUBCHEM_CONFORMER_RMSD>
1

> <PUBCHEM_CONFORMER_DIVERSEORDER>
1
13
3
9
6
21
11
23
2
24
14
22
8
10
4
15
12
7
17
5
20
16
19
18

> <PUBCHEM_MMFF94_PARTIAL_CHARGES>
35
1 -0.18
12 0.3
13 0.3
14 0.28
15 0.28
16 0.57
17 0.06
18 0.14
19 -0.12
2 -0.56
20 -0.17
21 0.37
22 -0.03
23 0.14
24 0.06
25 -0.15
26 0.23
27 0.05
28 -0.15
29 -0.15
3 -0.56
30 -0.15
31 -0.15
32 0.18
4 -0.57
5 -0.66
55 0.15
56 0.15
57 0.15
58 0.15
59 0.15
6 0.6
7 -0.58
8 -0.71
9 0.56

> <PUBCHEM_EFFECTIVE_ROTOR_COUNT>
6.8

> <PUBCHEM_PHARMACOPHORE_FEATURES>
10
1 2 acceptor
1 3 acceptor
1 4 acceptor
1 7 acceptor
1 8 acceptor
5 2 3 9 14 15 rings
5 6 8 22 25 26 rings
6 27 28 29 30 31 32 rings
6 5 9 10 11 12 13 rings
6 6 7 19 20 21 22 rings

> <PUBCHEM_HEAVY_ATOM_COUNT>
32

> <PUBCHEM_ATOM_DEF_STEREO_COUNT>
0

> <PUBCHEM_ATOM_UDEF_STEREO_COUNT>
0

> <PUBCHEM_BOND_DEF_STEREO_COUNT>
0

> <PUBCHEM_BOND_UDEF_STEREO_COUNT>
0

> <PUBCHEM_ISOTOPIC_ATOM_COUNT>
0

> <PUBCHEM_COMPONENT_COUNT>
1

> <PUBCHEM_CACTVS_TAUTO_COUNT>
1

> <PUBCHEM_CONFORMER_ID>
00317B8200000001

> <PUBCHEM_MMFF94_ENERGY>
79.9328

> <PUBCHEM_FEATURE_SELFOVERLAP>
50.928

> <PUBCHEM_SHAPE_FINGERPRINT>
10 15 13183025120592312759
10190206 1 14923934614421623871
10625338 86 12247689249272515955
11386260 185 15791740736759697926
11411753 3 16126990486090752956
11973863 73 18342186531859288259
12013929 112 15140951843109777843
12035758 1 15913610566337183337
12120059 9 17418092062725595989
12218070 45 14763765534357748125
12539745 222 18340486678003349501
12539765 74 9511469926283190232
12838863 1 18260261911757838818
13383668 254 12895076177142846827
13383668 362 16199008704062956163
13540713 5 16198164309398757045
13668630 136 18113618971770519082
14117953 113 13045942404071155126
14849402 71 11671776079249908275
14931854 50 14996281414008499524
150020 25 16587744261241322595
15064981 194 7997100496830721334
15183329 4 14345794925095468424
15188451 53 18413388714113933112
15198563 99 15791721980574316967
15320294 125 18201434800591067191
15326923 82 18187361056878656044
15347590 135 16271929289763738338
15510800 12 18262253152373498490
15690457 1 18410854365038433206
15706992 2 11023827314275268759
16993427 108 18272647918179899168
1754908 1 16200153196514412799
1768 4 11743836971775032003
18393751 57 14836121052954360724
18603816 31 18270395109914777295
19302320 297 14117507754470002650
19841028 212 18334857251182432562
20028762 73 18335987468191290778
2026 5 18261390018650331659
20691028 202 11599134649307358794
21095123 293 9079124358240495287
21307412 95 16370736936595265449
21360443 89 18335133147993950458
21792934 111 16917352533001709297
22002106 203 18042395839289027162
22224240 67 14333414445741924021
23389318 12 18041008332722854174
23528940 14 18338513029447627418
23559900 14 15357996580973059364
23576562 1 12469224422445746703
24771293 8 13326850041835764129
3383291 50 18131635595089677599
3711267 37 9439404670034220575
397830 11 12175621811153611037
3986486 107 15574710270687521294
406291 66 18409730626054190954
4169191 19 9007068954936146339
439807 62 18335140912044191707
4403749 210 12031783670170251445
44880568 143 16732701631989578796
474113 269 18408322177106735543
4760202 170 12324540731852555238
5104073 3 16414362363605915035
5219985 9 18201722872885664681
54039377 194 18335985290410490670
5718773 13 18260831484149286180
57527295 17 16806158831822018648
59682541 35 15698002950880774407
6081469 158 17095241427778634775
6126387 218 17346878928336195049
6438161 24 18411697720948651657
9689198 14 10375870787973258248
9953998 17 14333406762176910429
9962374 69 18272081755437972567

> <PUBCHEM_SHAPE_MULTIPOLES>
622.88
30.92
2.5
1.74
5.16
0.02
-0.11
-32.27
-1.51
-1.78
-0.67
0
0.6
-2.3

> <PUBCHEM_SHAPE_SELFOVERLAP>
1342.794

> <PUBCHEM_SHAPE_VOLUME>
343.2

> <PUBCHEM_COORDINATE_TYPE>
2
5
10

$$$$
