245097
  -OEChem-01171810143D

 38 41  0     1  0  0  0  0  0999 V2000
   -2.7313   -3.0035    1.4807 F   0  0  0  0  0  0  0  0  0  0  0  0
   -1.0367   -4.2383    0.8804 F   0  0  0  0  0  0  0  0  0  0  0  0
   -2.9185   -4.3639   -0.2115 F   0  0  0  0  0  0  0  0  0  0  0  0
   -0.9932   -2.6547   -1.5544 O   0  0  0  0  0  0  0  0  0  0  0  0
    4.7315    2.1541   -0.2857 O   0  0  0  0  0  0  0  0  0  0  0  0
    2.9345   -2.0801    0.2710 O   0  0  0  0  0  0  0  0  0  0  0  0
   -1.9590   -1.1488   -0.0626 N   0  0  0  0  0  0  0  0  0  0  0  0
    3.3546    0.2428    0.0137 N   0  0  0  0  0  0  0  0  0  0  0  0
   -1.6393    0.0657   -0.7609 C   0  0  2  0  0  0  0  0  0  0  0  0
   -0.3079    0.6489   -0.3183 C   0  0  0  0  0  0  0  0  0  0  0  0
   -2.5965    1.1966   -0.4243 C   0  0  0  0  0  0  0  0  0  0  0  0
   -0.4883    1.9499    0.2039 C   0  0  0  0  0  0  0  0  0  0  0  0
   -1.8942    2.2863    0.1389 C   0  0  0  0  0  0  0  0  0  0  0  0
    0.9496    0.0720   -0.3935 C   0  0  0  0  0  0  0  0  0  0  0  0
    0.5942    2.6805    0.6660 C   0  0  0  0  0  0  0  0  0  0  0  0
    2.0400    0.8086    0.0727 C   0  0  0  0  0  0  0  0  0  0  0  0
   -3.9670    1.2487   -0.6212 C   0  0  0  0  0  0  0  0  0  0  0  0
   -2.5655    3.4366    0.5201 C   0  0  0  0  0  0  0  0  0  0  0  0
    1.8639    2.0996    0.5982 C   0  0  0  0  0  0  0  0  0  0  0  0
   -4.6431    2.4080   -0.2363 C   0  0  0  0  0  0  0  0  0  0  0  0
   -3.9494    3.4907    0.3297 C   0  0  0  0  0  0  0  0  0  0  0  0
   -1.6078   -2.4120   -0.5196 C   0  0  0  0  0  0  0  0  0  0  0  0
    4.5239    0.9609   -0.1367 C   0  0  0  0  0  0  0  0  0  0  0  0
    3.6459   -1.1038    0.0988 C   0  0  0  0  0  0  0  0  0  0  0  0
   -2.0712   -3.5001    0.4036 C   0  0  0  0  0  0  0  0  0  0  0  0
    5.6245   -0.0136   -0.1401 C   0  0  0  0  0  0  0  0  0  0  0  0
    5.1064   -1.2312   -0.0126 C   0  0  0  0  0  0  0  0  0  0  0  0
   -1.6224   -0.1006   -1.8445 H   0  0  0  0  0  0  0  0  0  0  0  0
    1.0614   -0.9116   -0.8335 H   0  0  0  0  0  0  0  0  0  0  0  0
   -2.4314   -1.0746    0.8345 H   0  0  0  0  0  0  0  0  0  0  0  0
    0.4735    3.6773    1.0770 H   0  0  0  0  0  0  0  0  0  0  0  0
   -4.5049    0.4155   -1.0600 H   0  0  0  0  0  0  0  0  0  0  0  0
   -2.0434    4.2824    0.9548 H   0  0  0  0  0  0  0  0  0  0  0  0
    2.6996    2.6715    0.9912 H   0  0  0  0  0  0  0  0  0  0  0  0
   -5.7187    2.4758   -0.3766 H   0  0  0  0  0  0  0  0  0  0  0  0
   -4.4973    4.3831    0.6209 H   0  0  0  0  0  0  0  0  0  0  0  0
    6.6658    0.2425   -0.2415 H   0  0  0  0  0  0  0  0  0  0  0  0
    5.6412   -2.1655    0.0182 H   0  0  0  0  0  0  0  0  0  0  0  0
  1 25  1  0  0  0  0
  2 25  1  0  0  0  0
  3 25  1  0  0  0  0
  4 22  2  0  0  0  0
  5 23  2  0  0  0  0
  6 24  2  0  0  0  0
  7  9  1  0  0  0  0
  7 22  1  0  0  0  0
  7 30  1  0  0  0  0
  8 16  1  0  0  0  0
  8 23  1  0  0  0  0
  8 24  1  0  0  0  0
  9 10  1  0  0  0  0
  9 11  1  0  0  0  0
  9 28  1  0  0  0  0
 10 12  2  0  0  0  0
 10 14  1  0  0  0  0
 11 13  1  0  0  0  0
 11 17  2  0  0  0  0
 12 13  1  0  0  0  0
 12 15  1  0  0  0  0
 13 18  2  0  0  0  0
 14 16  2  0  0  0  0
 14 29  1  0  0  0  0
 15 19  2  0  0  0  0
 15 31  1  0  0  0  0
 16 19  1  0  0  0  0
 17 20  1  0  0  0  0
 17 32  1  0  0  0  0
 18 21  1  0  0  0  0
 18 33  1  0  0  0  0
 19 34  1  0  0  0  0
 20 21  2  0  0  0  0
 20 35  1  0  0  0  0
 21 36  1  0  0  0  0
 22 25  1  0  0  0  0
 23 26  1  0  0  0  0
 24 27  1  0  0  0  0
 26 27  2  0  0  0  0
 26 37  1  0  0  0  0
 27 38  1  0  0  0  0
M  END
> <PUBCHEM_COMPOUND_CID>
245097

> <PUBCHEM_CONFORMER_RMSD>
0.8

> <PUBCHEM_CONFORMER_DIVERSEORDER>
1
6
4
5
2
3

> <PUBCHEM_MMFF94_PARTIAL_CHARGES>
35
1 -0.34
10 -0.14
11 -0.14
14 -0.15
15 -0.15
16 0.12
17 -0.15
18 -0.15
19 -0.15
2 -0.34
20 -0.15
21 -0.15
22 0.57
23 0.62
24 0.62
25 1.08
26 -0.14
27 -0.14
29 0.15
3 -0.34
30 0.37
31 0.15
32 0.15
33 0.15
34 0.15
35 0.15
36 0.15
37 0.15
38 0.15
4 -0.57
5 -0.57
6 -0.57
7 -0.73
8 -0.24
9 0.59

> <PUBCHEM_EFFECTIVE_ROTOR_COUNT>
4.4

> <PUBCHEM_PHARMACOPHORE_FEATURES>
8
1 4 acceptor
1 5 acceptor
1 6 acceptor
1 7 donor
5 8 23 24 26 27 rings
5 9 10 11 12 13 rings
6 10 12 14 15 16 19 rings
6 11 13 17 18 20 21 rings

> <PUBCHEM_HEAVY_ATOM_COUNT>
27

> <PUBCHEM_ATOM_DEF_STEREO_COUNT>
0

> <PUBCHEM_ATOM_UDEF_STEREO_COUNT>
1

> <PUBCHEM_BOND_DEF_STEREO_COUNT>
0

> <PUBCHEM_BOND_UDEF_STEREO_COUNT>
0

> <PUBCHEM_ISOTOPIC_ATOM_COUNT>
0

> <PUBCHEM_COMPONENT_COUNT>
1

> <PUBCHEM_CACTVS_TAUTO_COUNT>
2

> <PUBCHEM_CONFORMER_ID>
0003BD6900000001

> <PUBCHEM_MMFF94_ENERGY>
75.605

> <PUBCHEM_FEATURE_SELFOVERLAP>
40.76

> <PUBCHEM_SHAPE_FINGERPRINT>
10190108 129 17325801534475069737
10411042 1 17979353388971289191
10616163 171 18412544327806884478
10906281 52 17988093196568304972
1100329 8 18193551164971057658
11135609 187 18265315249655205229
11227688 84 17405420487135626374
11578080 2 16843583110400255809
12549972 3 17845355786756106616
12553582 1 17908415106586919870
12643181 29 18338521812475983910
12788726 201 18264194963154580259
13140716 1 18197782317542357057
13785724 45 17835258005359147055
138480 1 16969703283186028495
14178342 30 18266158691116694208
14251757 5 18411136960879957496
14363568 33 16604087685365091530
14790565 3 18195248819150404825
14866123 147 18410853248616254091
15042514 8 18338238275418410031
15420108 30 15180952836163232192
15927050 60 18339923689194860127
16719943 64 18339640019178072538
17859628 97 18122059810519574809
19591789 44 18266736870744344521
19930381 70 17617377277479797362
21033648 29 18265034852436256104
21033650 10 17416145888226689872
21133410 171 17330774488361480046
21267235 1 18270686350966363700
21478907 32 18194962074812798175
22849339 104 18267888149618338166
23366157 5 17400372143974176349
23558518 356 18116152349687895360
23559900 14 18342451539905583352
3091708 16 9126818982103337985
335352 9 18268709416580571548
3383291 50 18411693262525445347
3411729 13 17695351374411642937
3759504 43 18336828598079361189
4058900 60 18048608014479769645
4073 2 18411416212245315866
5104073 3 18341610374264857528
5309563 4 17689999354890989886
5385378 56 17764594218566588913
59025328 239 16694103504230494663
6138700 20 17838054801983036934
9709674 26 18343023259833712982

> <PUBCHEM_SHAPE_MULTIPOLES>
506.26
9.8
5.31
0.87
9.69
6.53
-0.01
-4.93
0.51
-5.66
-1.22
-0.35
0.39
0.02

> <PUBCHEM_SHAPE_SELFOVERLAP>
1139.824

> <PUBCHEM_SHAPE_VOLUME>
267.3

> <PUBCHEM_COORDINATE_TYPE>
2
5
10

$$$$
