285027
  -OEChem-01171810173D

 29 32  0     0  0  0  0  0  0999 V2000
    4.7641   -1.4442   -0.0006 Cl  0  0  0  0  0  0  0  0  0  0  0  0
   -0.2862    1.6477    0.0004 N   0  0  0  0  0  0  0  0  0  0  0  0
   -2.5515    1.8893   -0.0008 N   0  0  0  0  0  0  0  0  0  0  0  0
   -0.4111    3.0837    0.0000 C   0  0  0  0  0  0  0  0  0  0  0  0
   -1.5274    1.0722   -0.0003 C   0  0  0  0  0  0  0  0  0  0  0  0
    0.9072    0.9318    0.0003 C   0  0  0  0  0  0  0  0  0  0  0  0
   -1.6637   -0.3955   -0.0003 C   0  0  0  0  0  0  0  0  0  0  0  0
    0.8524   -0.4906    0.0000 C   0  0  0  0  0  0  0  0  0  0  0  0
   -0.4786   -1.1664   -0.0001 C   0  0  0  0  0  0  0  0  0  0  0  0
   -1.9388    3.2508    0.0002 C   0  0  0  0  0  0  0  0  0  0  0  0
    2.1573    1.5769    0.0005 C   0  0  0  0  0  0  0  0  0  0  0  0
    2.0696   -1.1998   -0.0003 C   0  0  0  0  0  0  0  0  0  0  0  0
   -2.9358   -0.9804   -0.0001 C   0  0  0  0  0  0  0  0  0  0  0  0
   -0.6392   -2.5637    0.0003 C   0  0  0  0  0  0  0  0  0  0  0  0
    3.3437    0.8478    0.0003 C   0  0  0  0  0  0  0  0  0  0  0  0
    3.2996   -0.5387   -0.0001 C   0  0  0  0  0  0  0  0  0  0  0  0
   -3.0532   -2.3656    0.0001 C   0  0  0  0  0  0  0  0  0  0  0  0
   -1.9084   -3.1551    0.0005 C   0  0  0  0  0  0  0  0  0  0  0  0
    0.0285    3.5366   -0.8950 H   0  0  0  0  0  0  0  0  0  0  0  0
    0.0289    3.5374    0.8945 H   0  0  0  0  0  0  0  0  0  0  0  0
   -2.2720    3.7992    0.8877 H   0  0  0  0  0  0  0  0  0  0  0  0
   -2.2720    3.8006   -0.8865 H   0  0  0  0  0  0  0  0  0  0  0  0
    2.2244    2.6622    0.0007 H   0  0  0  0  0  0  0  0  0  0  0  0
    2.0803   -2.2865   -0.0007 H   0  0  0  0  0  0  0  0  0  0  0  0
   -3.8388   -0.3769   -0.0003 H   0  0  0  0  0  0  0  0  0  0  0  0
    0.2135   -3.2364    0.0006 H   0  0  0  0  0  0  0  0  0  0  0  0
    4.2926    1.3775    0.0003 H   0  0  0  0  0  0  0  0  0  0  0  0
   -4.0350   -2.8296    0.0002 H   0  0  0  0  0  0  0  0  0  0  0  0
   -1.9980   -4.2380    0.0008 H   0  0  0  0  0  0  0  0  0  0  0  0
  1 16  1  0  0  0  0
  2  4  1  0  0  0  0
  2  5  1  0  0  0  0
  2  6  1  0  0  0  0
  3  5  2  0  0  0  0
  3 10  1  0  0  0  0
  4 10  1  0  0  0  0
  4 19  1  0  0  0  0
  4 20  1  0  0  0  0
  5  7  1  0  0  0  0
  6  8  2  0  0  0  0
  6 11  1  0  0  0  0
  7  9  1  0  0  0  0
  7 13  2  0  0  0  0
  8  9  1  0  0  0  0
  8 12  1  0  0  0  0
  9 14  2  0  0  0  0
 10 21  1  0  0  0  0
 10 22  1  0  0  0  0
 11 15  2  0  0  0  0
 11 23  1  0  0  0  0
 12 16  2  0  0  0  0
 12 24  1  0  0  0  0
 13 17  1  0  0  0  0
 13 25  1  0  0  0  0
 14 18  1  0  0  0  0
 14 26  1  0  0  0  0
 15 16  1  0  0  0  0
 15 27  1  0  0  0  0
 17 18  2  0  0  0  0
 17 28  1  0  0  0  0
 18 29  1  0  0  0  0
M  END
> <PUBCHEM_COMPOUND_CID>
285027

> <PUBCHEM_CONFORMER_RMSD>
0.6

> <PUBCHEM_CONFORMER_DIVERSEORDER>
1

> <PUBCHEM_MMFF94_PARTIAL_CHARGES>
23
1 -0.18
10 0.25
11 -0.15
12 -0.15
13 -0.15
14 -0.15
15 -0.15
16 0.18
17 -0.15
18 -0.15
2 -0.52
23 0.15
24 0.15
25 0.15
26 0.15
27 0.15
28 0.15
29 0.15
3 -0.7
4 0.37
5 0.41
6 0.1
7 0.09

> <PUBCHEM_EFFECTIVE_ROTOR_COUNT>
0.4

> <PUBCHEM_PHARMACOPHORE_FEATURES>
5
3 2 3 5 cation
5 2 3 4 5 10 rings
6 2 5 6 7 8 9 rings
6 6 8 11 12 15 16 rings
6 7 9 13 14 17 18 rings

> <PUBCHEM_HEAVY_ATOM_COUNT>
18

> <PUBCHEM_ATOM_DEF_STEREO_COUNT>
0

> <PUBCHEM_ATOM_UDEF_STEREO_COUNT>
0

> <PUBCHEM_BOND_DEF_STEREO_COUNT>
0

> <PUBCHEM_BOND_UDEF_STEREO_COUNT>
0

> <PUBCHEM_ISOTOPIC_ATOM_COUNT>
0

> <PUBCHEM_COMPONENT_COUNT>
1

> <PUBCHEM_CACTVS_TAUTO_COUNT>
1

> <PUBCHEM_CONFORMER_ID>
0004596300000001

> <PUBCHEM_MMFF94_ENERGY>
63.1135

> <PUBCHEM_FEATURE_SELFOVERLAP>
25.513

> <PUBCHEM_SHAPE_FINGERPRINT>
10319926 262 18197190618069673154
10411042 1 18266459991188241250
10493431 412 18053388699479464681
10616163 171 18411140204176956174
10693767 8 16976437830908879999
10967382 1 18338797801924265223
1100329 8 18411702049843754097
11578080 2 17316443440629158300
116883 192 18412830200487201894
12553582 1 18194406829450333719
12730499 353 17542503834849658677
13140716 1 18411705378506244473
13583140 156 14189586212398692246
138480 1 16176788213525067553
14178342 30 18263906792750733498
14790565 3 18267595615307301985
15042514 8 18409172073587975179
15196674 1 18410574023822046022
15309172 13 18051420564954446216
15442244 35 18408884014922167826
16752209 62 18337379457457056066
16945 1 18338516464275666788
17804303 29 18341334409978496006
193761 8 18050286964513860067
19591789 44 17618228303822129438
20510252 161 18342738507327450536
20645477 70 17183609439676213975
21029758 11 18267858566099789559
21267235 1 18265905833027320786
21478907 32 18410853287197080527
21501502 16 18409453596204802420
221490 88 17471011848932864731
23184049 29 18410572924706018182
2334 1 18410856585599659813
23402539 116 18343574149287014391
23419403 2 17107854080390569012
23463225 33 18194686088340016230
23557571 272 18272379680798829180
23558518 356 18333736818863818720
23559900 14 18055351345943548926
238 59 16671307969348890173
257057 1 18195522816656910327
2748010 2 18411416219838335213
3091708 16 9204214700445807865
335352 9 18410575063388923799
34934 24 18123743420477773318
350125 39 18338241466004533329
352729 6 18267022764946828261
54173680 148 18410575080621325722
7364860 26 17402613442418288297
81228 2 18335138742948674344
8809292 202 18410857633714098362
9709674 26 18271526399540871766

> <PUBCHEM_SHAPE_MULTIPOLES>
362.34
5.92
3.95
0.61
5.84
1.24
0
-2.78
0
-3.12
0
0.02
-0.02
0

> <PUBCHEM_SHAPE_SELFOVERLAP>
808.833

> <PUBCHEM_SHAPE_VOLUME>
194.6

> <PUBCHEM_COORDINATE_TYPE>
2
5
10

$$$$
