4766173
  -OEChem-01171809213D

 43 45  0     0  0  0  0  0  0999 V2000
    3.3053    0.4755   -0.4836 O   0  0  0  0  0  0  0  0  0  0  0  0
   -2.0620   -0.9056    0.1939 O   0  0  0  0  0  0  0  0  0  0  0  0
    8.3205   -1.5906    0.4976 O   0  0  0  0  0  0  0  0  0  0  0  0
   -8.3317   -2.1333    0.0346 O   0  5  0  0  0  0  0  0  0  0  0  0
   -7.4854   -1.4809   -1.8830 O   0  0  0  0  0  0  0  0  0  0  0  0
   -3.4483    0.9553    0.2815 N   0  0  0  0  0  0  0  0  0  0  0  0
   -4.5795    0.2216    0.5128 N   0  0  0  0  0  0  0  0  0  0  0  0
   -5.0223   -0.1317    1.7234 N   0  0  0  0  0  0  0  0  0  0  0  0
   -7.4390   -1.5272   -0.6217 N   0  3  0  0  0  0  0  0  0  0  0  0
    1.3168    1.6088    0.1624 C   0  0  0  0  0  0  0  0  0  0  0  0
    2.6723    1.1586    0.5914 C   0  0  0  0  0  0  0  0  0  0  0  0
   -1.0543    1.1975   -0.0526 C   0  0  0  0  0  0  0  0  0  0  0  0
    0.2135    0.7759    0.3489 C   0  0  0  0  0  0  0  0  0  0  0  0
    1.1524    2.8632   -0.4252 C   0  0  0  0  0  0  0  0  0  0  0  0
   -1.2187    2.4516   -0.6408 C   0  0  0  0  0  0  0  0  0  0  0  0
   -0.1153    3.2845   -0.8269 C   0  0  0  0  0  0  0  0  0  0  0  0
   -2.2048    0.3294    0.1415 C   0  0  0  0  0  0  0  0  0  0  0  0
    4.5516   -0.0386   -0.2393 C   0  0  0  0  0  0  0  0  0  0  0  0
    5.2254   -0.7182   -1.2480 C   0  0  0  0  0  0  0  0  0  0  0  0
    5.1305    0.1247    1.0142 C   0  0  0  0  0  0  0  0  0  0  0  0
   -5.3491   -0.2056   -0.5207 C   0  0  0  0  0  0  0  0  0  0  0  0
    7.0822   -1.0808    0.2551 C   0  0  0  0  0  0  0  0  0  0  0  0
    6.4949   -1.2409   -1.0001 C   0  0  0  0  0  0  0  0  0  0  0  0
    6.3998   -0.3982    1.2623 C   0  0  0  0  0  0  0  0  0  0  0  0
   -6.3848   -0.8980    0.0578 C   0  0  0  0  0  0  0  0  0  0  0  0
   -6.1316   -0.8197    1.4405 C   0  0  0  0  0  0  0  0  0  0  0  0
    8.9618   -2.2774   -0.5761 C   0  0  0  0  0  0  0  0  0  0  0  0
    2.5531    0.4978    1.4605 H   0  0  0  0  0  0  0  0  0  0  0  0
    3.2566    2.0393    0.8900 H   0  0  0  0  0  0  0  0  0  0  0  0
    0.3489   -0.2000    0.8096 H   0  0  0  0  0  0  0  0  0  0  0  0
    2.0043    3.5201   -0.5796 H   0  0  0  0  0  0  0  0  0  0  0  0
   -2.1829    2.8061   -0.9933 H   0  0  0  0  0  0  0  0  0  0  0  0
   -0.2417    4.2583   -1.2911 H   0  0  0  0  0  0  0  0  0  0  0  0
   -3.5803    1.9608    0.3017 H   0  0  0  0  0  0  0  0  0  0  0  0
    4.7707   -0.8443   -2.2266 H   0  0  0  0  0  0  0  0  0  0  0  0
    4.6636    0.6455    1.8424 H   0  0  0  0  0  0  0  0  0  0  0  0
   -5.1063    0.0104   -1.5534 H   0  0  0  0  0  0  0  0  0  0  0  0
    6.9683   -1.7595   -1.8267 H   0  0  0  0  0  0  0  0  0  0  0  0
    6.8535   -0.2703    2.2414 H   0  0  0  0  0  0  0  0  0  0  0  0
   -6.7052   -1.2329    2.2584 H   0  0  0  0  0  0  0  0  0  0  0  0
    9.9357   -2.6158   -0.2076 H   0  0  0  0  0  0  0  0  0  0  0  0
    8.4035   -3.1721   -0.8720 H   0  0  0  0  0  0  0  0  0  0  0  0
    9.1547   -1.6098   -1.4227 H   0  0  0  0  0  0  0  0  0  0  0  0
  1 11  1  0  0  0  0
  1 18  1  0  0  0  0
  2 17  2  0  0  0  0
  3 22  1  0  0  0  0
  3 27  1  0  0  0  0
  4  9  1  0  0  0  0
  5  9  2  0  0  0  0
  6  7  1  0  0  0  0
  6 17  1  0  0  0  0
  6 34  1  0  0  0  0
  7  8  1  0  0  0  0
  7 21  1  0  0  0  0
  8 26  2  0  0  0  0
  9 25  1  0  0  0  0
 10 11  1  0  0  0  0
 10 13  2  0  0  0  0
 10 14  1  0  0  0  0
 11 28  1  0  0  0  0
 11 29  1  0  0  0  0
 12 13  1  0  0  0  0
 12 15  2  0  0  0  0
 12 17  1  0  0  0  0
 13 30  1  0  0  0  0
 14 16  2  0  0  0  0
 14 31  1  0  0  0  0
 15 16  1  0  0  0  0
 15 32  1  0  0  0  0
 16 33  1  0  0  0  0
 18 19  2  0  0  0  0
 18 20  1  0  0  0  0
 19 23  1  0  0  0  0
 19 35  1  0  0  0  0
 20 24  2  0  0  0  0
 20 36  1  0  0  0  0
 21 25  2  0  0  0  0
 21 37  1  0  0  0  0
 22 23  2  0  0  0  0
 22 24  1  0  0  0  0
 23 38  1  0  0  0  0
 24 39  1  0  0  0  0
 25 26  1  0  0  0  0
 26 40  1  0  0  0  0
 27 41  1  0  0  0  0
 27 42  1  0  0  0  0
 27 43  1  0  0  0  0
M  CHG  2   4  -1   9   1
M  END
> <PUBCHEM_COMPOUND_CID>
4766173

> <PUBCHEM_CONFORMER_RMSD>
1

> <PUBCHEM_CONFORMER_DIVERSEORDER>
2
106
126
173
28
144
155
160
61
165
218
49
108
45
145
15
140
171
184
154
204
70
141
191
152
67
78
137
113
118
42
95
179
193
55
223
157
96
30
50
176
80
153
164
88
43
202
127
135
159
8
224
220
23
129
209
91
217
66
21
41
222
192
38
207
206
68
139
97
208
109
52
219
174
74
98
27
124
167
187
73
221
26
104
39
148
146
79
57
177
16
172
110
33
128
20
133
117
188
183
166
84
64
36
111
114
170
58
161
10
107
200
14
65
5
34
196
24
194
180
40
149
212
83
175
198
138
75
44
156
81
205
203
101
25
77
123
143
17
122
22
197
35
103
181
102
201
112
134
210
4
18
32
86
94
216
214
71
121
150
185
120
215
51
182
92
63
168
31
136
99
56
162
54
132
13
190
116
125
199
3
163
169
76
7
105
119
195
29
72
213
48
85
178
69
115
37
89
1
131
11
147
87
90
186
62
12
19
142
130
6
100
151
211
47
158
82
93
60
46
9
59
189
53

> <PUBCHEM_MMFF94_PARTIAL_CHARGES>
38
1 -0.36
10 -0.14
11 0.42
12 0.09
13 -0.15
14 -0.15
15 -0.15
16 -0.15
17 0.54
18 0.08
19 -0.15
2 -0.57
20 -0.15
21 -0.3
22 0.08
23 -0.15
24 -0.15
25 0.08
26 0.14
27 0.28
3 -0.36
30 0.15
31 0.15
32 0.15
33 0.15
34 0.37
35 0.15
36 0.15
37 0.15
38 0.15
39 0.15
4 -0.52
40 0.15
5 -0.52
6 -0.57
7 0.71
8 -0.71
9 0.96

> <PUBCHEM_EFFECTIVE_ROTOR_COUNT>
8

> <PUBCHEM_PHARMACOPHORE_FEATURES>
11
1 1 acceptor
1 2 acceptor
1 3 acceptor
1 4 acceptor
1 4 anion
1 5 acceptor
1 6 donor
1 8 acceptor
5 7 8 21 25 26 rings
6 10 12 13 14 15 16 rings
6 18 19 20 22 23 24 rings

> <PUBCHEM_HEAVY_ATOM_COUNT>
27

> <PUBCHEM_ATOM_DEF_STEREO_COUNT>
0

> <PUBCHEM_ATOM_UDEF_STEREO_COUNT>
0

> <PUBCHEM_BOND_DEF_STEREO_COUNT>
0

> <PUBCHEM_BOND_UDEF_STEREO_COUNT>
0

> <PUBCHEM_ISOTOPIC_ATOM_COUNT>
0

> <PUBCHEM_COMPONENT_COUNT>
1

> <PUBCHEM_CACTVS_TAUTO_COUNT>
2

> <PUBCHEM_CONFORMER_ID>
0048B9DD00000002

> <PUBCHEM_MMFF94_ENERGY>
80.7412

> <PUBCHEM_FEATURE_SELFOVERLAP>
55.907

> <PUBCHEM_SHAPE_FINGERPRINT>
10 15 13326857747054286293
10411042 1 18408886239146223117
10533779 47 13829866686290225046
10917259 69 18263637357027114317
11273773 42 11819270036440096055
11297750 10 18334848425030966580
11408170 108 18131074796978084175
11963148 33 18334289843159375674
12539745 222 17846502474209891632
12645989 146 18335137648676032149
12760667 363 18335141981438541393
13533116 47 18201157779701377785
13631057 29 18261393287768731728
13668630 136 18335979861571574691
13673619 4 18342176648860536600
13685833 64 18413389843379050248
13862211 1 18408323293592517033
14216079 64 18411418410160912271
14251764 18 17917993914090103760
14931854 50 17095521773278848882
15183329 4 15357691976858643188
15198563 99 17240475871436546837
15690457 1 18272929435932585750
15706992 2 8934717846674399103
1768 124 17846781806103384038
190975 80 18202280316985956824
20028762 73 18201721786121691623
2026 5 18410855439002439887
21033648 29 13398372165701201537
21267235 1 18333735710319352696
21304304 249 18411701006050448975
21307412 95 17822015341416460163
21365058 113 17386290995137035277
21585481 104 14274004477633150062
21682296 61 18409171021869451281
23389318 12 18186810197263220772
23522609 53 18049760448510548324
23559900 14 17750797847561797121
23576562 1 14924802258156557863
25269216 80 13551479215819584089
3004659 81 17530967990825849312
3383291 50 18411702101404753195
3627633 1 18336264522713665972
3711267 37 7925635552778422095
406291 66 18341611560018559495
4107672 100 14996288046018117555
4339292 15 18334851681147952114
4340502 62 14979966877787343229
437815 12 18334295383561055417
4516262 110 9006789657460025169
5219985 9 18408890628876826812
54039377 194 18335987498012851862
543368 44 8070035459015449947
5470011 282 16660372476403023242
5718773 13 18410292514469707798
5758199 1 9511464424819616533
5937810 71 13046213954196155399
59682541 35 17989200452823501354
59682541 52 14851599969355291736
6138700 20 18334576837041538483
636775 8 18260558788576657274
9689198 14 11169910568003510257
9962374 69 18342169012445120180
9980921 221 16951107497261929117

> <PUBCHEM_SHAPE_MULTIPOLES>
506.38
26.88
2.65
1.21
2.35
1.74
0.02
-28.92
-1.59
-0.19
-0.81
-0.54
-0.3
0.1

> <PUBCHEM_SHAPE_SELFOVERLAP>
1095.471

> <PUBCHEM_SHAPE_VOLUME>
279.1

> <PUBCHEM_COORDINATE_TYPE>
2
5
10

$$$$
