1756351
  -OEChem-01171809593D

 61 64  0     1  0  0  0  0  0999 V2000
    5.9280    1.0814   -0.2389 O   0  0  0  0  0  0  0  0  0  0  0  0
    1.4186    2.7834   -0.3286 O   0  0  0  0  0  0  0  0  0  0  0  0
   -0.7071    3.5780   -0.3484 O   0  0  0  0  0  0  0  0  0  0  0  0
   -4.9564    1.5167   -1.5092 O   0  0  0  0  0  0  0  0  0  0  0  0
   -7.8037    0.1322    1.6157 O   0  0  0  0  0  0  0  0  0  0  0  0
   -5.8093    1.1210    2.0114 O   0  0  0  0  0  0  0  0  0  0  0  0
   -4.5394   -0.2417   -0.0512 N   0  0  0  0  0  0  0  0  0  0  0  0
    5.3833   -1.0670    0.2064 C   0  0  0  0  0  0  0  0  0  0  0  0
    5.6487   -2.5029    0.4858 C   0  0  0  0  0  0  0  0  0  0  0  0
    7.0926   -2.8811    0.0886 C   0  0  0  0  0  0  0  0  0  0  0  0
    8.1263   -1.8276    0.5428 C   0  0  0  0  0  0  0  0  0  0  0  0
    6.4007   -0.1664   -0.0153 C   0  0  0  0  0  0  0  0  0  0  0  0
    7.8535   -0.4343   -0.0608 C   0  0  0  0  0  0  0  0  0  0  0  0
    4.1798   -0.3215    0.1226 C   0  0  0  0  0  0  0  0  0  0  0  0
    4.5675    0.9884   -0.1521 C   0  0  0  0  0  0  0  0  0  0  0  0
    2.8034   -0.6039    0.2498 C   0  0  0  0  0  0  0  0  0  0  0  0
    1.8512    0.4248    0.0935 C   0  0  0  0  0  0  0  0  0  0  0  0
    2.3179    1.7112   -0.1753 C   0  0  0  0  0  0  0  0  0  0  0  0
    3.6738    2.0407   -0.3095 C   0  0  0  0  0  0  0  0  0  0  0  0
    0.3924    0.2048    0.2114 C   0  0  0  0  0  0  0  0  0  0  0  0
   -0.4519    1.2521    0.0969 C   0  0  0  0  0  0  0  0  0  0  0  0
   -6.1421   -2.0435    0.5078 C   0  0  0  0  0  0  0  0  0  0  0  0
   -5.6235   -3.0342   -0.5593 C   0  0  0  0  0  0  0  0  0  0  0  0
   -1.9485    1.1748    0.2616 C   0  0  0  0  0  0  0  0  0  0  0  0
   -5.9173   -0.5444    0.2592 C   0  0  1  0  0  0  0  0  0  0  0  0
   -2.6619    0.8836   -1.0506 C   0  0  0  0  0  0  0  0  0  0  0  0
    0.0498    2.6229   -0.2043 C   0  0  0  0  0  0  0  0  0  0  0  0
   -0.0684   -1.2140    0.4410 C   0  0  0  0  0  0  0  0  0  0  0  0
   -4.1735    0.7763   -0.9202 C   0  0  0  0  0  0  0  0  0  0  0  0
   -6.2905   -2.7220   -1.9043 C   0  0  0  0  0  0  0  0  0  0  0  0
   -4.1062   -3.0195   -0.7297 C   0  0  0  0  0  0  0  0  0  0  0  0
   -6.4880    0.3316    1.3633 C   0  0  0  0  0  0  0  0  0  0  0  0
    5.5080   -2.6868    1.5578 H   0  0  0  0  0  0  0  0  0  0  0  0
    4.9401   -3.1401   -0.0546 H   0  0  0  0  0  0  0  0  0  0  0  0
    7.1532   -2.9861   -1.0025 H   0  0  0  0  0  0  0  0  0  0  0  0
    7.3432   -3.8578    0.5178 H   0  0  0  0  0  0  0  0  0  0  0  0
    8.0992   -1.7597    1.6383 H   0  0  0  0  0  0  0  0  0  0  0  0
    9.1366   -2.1521    0.2688 H   0  0  0  0  0  0  0  0  0  0  0  0
    8.4138    0.3290    0.4887 H   0  0  0  0  0  0  0  0  0  0  0  0
    8.1903   -0.4139   -1.1034 H   0  0  0  0  0  0  0  0  0  0  0  0
    2.5076   -1.6254    0.4691 H   0  0  0  0  0  0  0  0  0  0  0  0
    4.0068    3.0499   -0.5198 H   0  0  0  0  0  0  0  0  0  0  0  0
   -5.6755   -2.3083    1.4670 H   0  0  0  0  0  0  0  0  0  0  0  0
   -7.2160   -2.2244    0.6499 H   0  0  0  0  0  0  0  0  0  0  0  0
   -5.9231   -4.0418   -0.2447 H   0  0  0  0  0  0  0  0  0  0  0  0
   -6.5002   -0.2594   -0.6268 H   0  0  0  0  0  0  0  0  0  0  0  0
   -2.1946    0.4303    1.0263 H   0  0  0  0  0  0  0  0  0  0  0  0
   -2.3414    2.1063    0.6901 H   0  0  0  0  0  0  0  0  0  0  0  0
   -2.4504    1.6748   -1.7806 H   0  0  0  0  0  0  0  0  0  0  0  0
   -2.3006   -0.0545   -1.4898 H   0  0  0  0  0  0  0  0  0  0  0  0
    0.2735   -1.5767    1.4165 H   0  0  0  0  0  0  0  0  0  0  0  0
    0.3170   -1.8773   -0.3415 H   0  0  0  0  0  0  0  0  0  0  0  0
   -1.1547   -1.3301    0.4196 H   0  0  0  0  0  0  0  0  0  0  0  0
   -3.8223   -0.7359    0.4690 H   0  0  0  0  0  0  0  0  0  0  0  0
   -6.0393   -3.4953   -2.6387 H   0  0  0  0  0  0  0  0  0  0  0  0
   -5.9652   -1.7617   -2.3170 H   0  0  0  0  0  0  0  0  0  0  0  0
   -7.3810   -2.7024   -1.8056 H   0  0  0  0  0  0  0  0  0  0  0  0
   -3.7472   -2.1931   -1.3476 H   0  0  0  0  0  0  0  0  0  0  0  0
   -3.5937   -3.0044    0.2374 H   0  0  0  0  0  0  0  0  0  0  0  0
   -3.7910   -3.9354   -1.2442 H   0  0  0  0  0  0  0  0  0  0  0  0
   -8.1260    0.6970    2.3500 H   0  0  0  0  0  0  0  0  0  0  0  0
  1 12  1  0  0  0  0
  1 15  1  0  0  0  0
  2 18  1  0  0  0  0
  2 27  1  0  0  0  0
  3 27  2  0  0  0  0
  4 29  2  0  0  0  0
  5 32  1  0  0  0  0
  5 61  1  0  0  0  0
  6 32  2  0  0  0  0
  7 25  1  0  0  0  0
  7 29  1  0  0  0  0
  7 54  1  0  0  0  0
  8  9  1  0  0  0  0
  8 12  2  0  0  0  0
  8 14  1  0  0  0  0
  9 10  1  0  0  0  0
  9 33  1  0  0  0  0
  9 34  1  0  0  0  0
 10 11  1  0  0  0  0
 10 35  1  0  0  0  0
 10 36  1  0  0  0  0
 11 13  1  0  0  0  0
 11 37  1  0  0  0  0
 11 38  1  0  0  0  0
 12 13  1  0  0  0  0
 13 39  1  0  0  0  0
 13 40  1  0  0  0  0
 14 15  2  0  0  0  0
 14 16  1  0  0  0  0
 15 19  1  0  0  0  0
 16 17  2  0  0  0  0
 16 41  1  0  0  0  0
 17 18  1  0  0  0  0
 17 20  1  0  0  0  0
 18 19  2  0  0  0  0
 19 42  1  0  0  0  0
 20 21  2  0  0  0  0
 20 28  1  0  0  0  0
 21 24  1  0  0  0  0
 21 27  1  0  0  0  0
 22 23  1  0  0  0  0
 22 25  1  0  0  0  0
 22 43  1  0  0  0  0
 22 44  1  0  0  0  0
 23 30  1  0  0  0  0
 23 31  1  0  0  0  0
 23 45  1  0  0  0  0
 24 26  1  0  0  0  0
 24 47  1  0  0  0  0
 24 48  1  0  0  0  0
 25 32  1  0  0  0  0
 25 46  1  0  0  0  0
 26 29  1  0  0  0  0
 26 49  1  0  0  0  0
 26 50  1  0  0  0  0
 28 51  1  0  0  0  0
 28 52  1  0  0  0  0
 28 53  1  0  0  0  0
 30 55  1  0  0  0  0
 30 56  1  0  0  0  0
 30 57  1  0  0  0  0
 31 58  1  0  0  0  0
 31 59  1  0  0  0  0
 31 60  1  0  0  0  0
M  END
> <PUBCHEM_COMPOUND_CID>
1756351

> <PUBCHEM_CONFORMER_RMSD>
1

> <PUBCHEM_CONFORMER_DIVERSEORDER>
4
21
16
72
52
86
23
58
50
81
68
82
11
51
88
54
69
22
29
36
33
83
17
79
24
32
12
56
7
38
77
10
44
90
85
37
45
59
67
42
87
65
28
3
14
2
60
64
6
84
70
41
1
89
48
80
75
46
31
5
25
73
49
91
71
76
57
55
40
15
34
66
74
8
20
53
62
30
18
26
63
35
47
78
9
27
19
39
43
13
61

> <PUBCHEM_MMFF94_PARTIAL_CHARGES>
29
1 -0.28
12 -0.04
13 0.18
15 0.14
16 -0.15
17 0.03
18 0.08
19 -0.15
2 -0.23
20 -0.17
21 -0.12
24 0.14
25 0.36
26 0.06
27 0.71
28 0.14
29 0.57
3 -0.57
32 0.66
4 -0.57
41 0.15
42 0.15
5 -0.65
54 0.37
6 -0.57
61 0.5
7 -0.73
8 -0.18
9 0.18

> <PUBCHEM_EFFECTIVE_ROTOR_COUNT>
8.8

> <PUBCHEM_PHARMACOPHORE_FEATURES>
12
1 1 acceptor
1 3 acceptor
1 4 acceptor
1 5 acceptor
1 6 acceptor
1 7 donor
3 23 30 31 hydrophobe
3 5 6 32 anion
5 1 8 12 14 15 rings
6 14 15 16 17 18 19 rings
6 2 17 18 20 21 27 rings
6 8 9 10 11 12 13 rings

> <PUBCHEM_HEAVY_ATOM_COUNT>
32

> <PUBCHEM_ATOM_DEF_STEREO_COUNT>
1

> <PUBCHEM_ATOM_UDEF_STEREO_COUNT>
0

> <PUBCHEM_BOND_DEF_STEREO_COUNT>
0

> <PUBCHEM_BOND_UDEF_STEREO_COUNT>
0

> <PUBCHEM_ISOTOPIC_ATOM_COUNT>
0

> <PUBCHEM_COMPONENT_COUNT>
1

> <PUBCHEM_CACTVS_TAUTO_COUNT>
2

> <PUBCHEM_CONFORMER_ID>
001ACCBF00000004

> <PUBCHEM_MMFF94_ENERGY>
72.5548

> <PUBCHEM_FEATURE_SELFOVERLAP>
61.18

> <PUBCHEM_SHAPE_FINGERPRINT>
10 15 12247671673669851700
10299344 5 18412830196144722731
11135926 11 18410286974447829519
11963148 33 18337381657230255446
11991303 11 14707219854300170731
12082328 90 16298385725771494407
12107183 9 18342185466712978593
12166972 35 17748831817211973636
12422481 6 17346602975579599791
12895837 130 11097840888571696495
13248334 5 17977946009650915389
13685833 64 18335140869606202192
13690498 29 17967525758208440653
13782708 43 17894622664933793948
14040222 275 18262822704255292428
14178184 131 18201150044154308103
14856354 85 18130793382494126413
15183329 4 18334849549905709146
15320294 125 17989490758063166511
15352257 5 18412262848055483318
16067689 68 17844814689707238690
17780758 139 18060421318401688073
19246450 95 18127426566548580425
20028762 73 18413106152516329982
21130935 74 18342176721231038651
21150785 3 12396304768046239329
21267235 1 18336550422301983476
21792961 116 18114175277457370277
23522609 53 18122938492473947797
23559900 14 18335695058032548672
23576562 1 8501783974573997994
3383291 50 18187365411511355962
3504750 166 18343019948329758673
397830 11 16342847888486557291
437795 83 8286201652285957007
439807 62 18336543906245992511
465052 167 18342457037299685516
5104073 3 17917146203694854017
54039377 194 18260835895012289827
5718773 13 18410288116998450118
636775 8 18338805508029758606
9962374 69 18333447648033551616
999808 66 18041003938449168139

> <PUBCHEM_SHAPE_MULTIPOLES>
618.35
24.13
3.55
1.14
4.14
0.7
-0.07
17.34
-3.46
-1.01
0.84
-2.76
0.09
-2.14

> <PUBCHEM_SHAPE_SELFOVERLAP>
1326.617

> <PUBCHEM_SHAPE_VOLUME>
342.2

> <PUBCHEM_COORDINATE_TYPE>
2
5
10

$$$$
