16746405
  -OEChem-01171809563D

 53 57  0     1  0  0  0  0  0999 V2000
    1.5226    1.3988   -2.5051 Br  0  0  0  0  0  0  0  0  0  0  0  0
   -2.5686   -1.5200    1.9048 O   0  0  0  0  0  0  0  0  0  0  0  0
   -1.2845    0.0589    0.7044 N   0  0  0  0  0  0  0  0  0  0  0  0
   -0.9091   -2.1972    0.2379 C   0  0  2  0  0  0  0  0  0  0  0  0
   -0.6282   -1.3394   -1.0131 C   0  0  1  0  0  0  0  0  0  0  0  0
   -0.3466    0.0473   -0.4224 C   0  0  2  0  0  0  0  0  0  0  0  0
   -1.4735   -3.5496   -0.1925 C   0  0  1  0  0  0  0  0  0  0  0  0
   -1.7369   -1.2260    1.0615 C   0  0  0  0  0  0  0  0  0  0  0  0
   -0.4138   -4.2642   -1.0783 C   0  0  0  0  0  0  0  0  0  0  0  0
    0.3269   -2.0186   -1.9382 C   0  0  0  0  0  0  0  0  0  0  0  0
    1.0601    0.2301    0.0417 C   0  0  0  0  0  0  0  0  0  0  0  0
    0.4038   -3.3584   -1.9684 C   0  0  0  0  0  0  0  0  0  0  0  0
   -1.8495   -4.4459    0.9865 C   0  0  0  0  0  0  0  0  0  0  0  0
   -1.7573    1.2953    1.2929 C   0  0  0  0  0  0  0  0  0  0  0  0
    2.0456    0.8172   -0.7525 C   0  0  0  0  0  0  0  0  0  0  0  0
    1.3710   -0.2137    1.3237 C   0  0  0  0  0  0  0  0  0  0  0  0
   -2.9586    1.8081    0.5481 C   0  0  0  0  0  0  0  0  0  0  0  0
    3.3572    0.9673   -0.2732 C   0  0  0  0  0  0  0  0  0  0  0  0
    2.6688   -0.0725    1.8161 C   0  0  0  0  0  0  0  0  0  0  0  0
    3.6733    0.5157    1.0304 C   0  0  0  0  0  0  0  0  0  0  0  0
   -2.7917    2.6735   -0.5330 C   0  0  0  0  0  0  0  0  0  0  0  0
   -4.2399    1.4188    0.9384 C   0  0  0  0  0  0  0  0  0  0  0  0
    4.3617    1.5557   -1.0586 C   0  0  0  0  0  0  0  0  0  0  0  0
    4.9848    0.6658    1.5100 C   0  0  0  0  0  0  0  0  0  0  0  0
   -3.9060    3.1493   -1.2241 C   0  0  0  0  0  0  0  0  0  0  0  0
   -5.3542    1.8947    0.2474 C   0  0  0  0  0  0  0  0  0  0  0  0
    5.6595    1.6966   -0.5660 C   0  0  0  0  0  0  0  0  0  0  0  0
    5.9705    1.2524    0.7158 C   0  0  0  0  0  0  0  0  0  0  0  0
   -5.1873    2.7599   -0.8339 C   0  0  0  0  0  0  0  0  0  0  0  0
    0.0085   -2.3969    0.8057 H   0  0  0  0  0  0  0  0  0  0  0  0
   -1.5699   -1.2376   -1.5793 H   0  0  0  0  0  0  0  0  0  0  0  0
   -0.6799    0.8288   -1.1072 H   0  0  0  0  0  0  0  0  0  0  0  0
   -2.3809   -3.3886   -0.7903 H   0  0  0  0  0  0  0  0  0  0  0  0
   -0.9199   -5.0119   -1.7010 H   0  0  0  0  0  0  0  0  0  0  0  0
    0.2923   -4.8120   -0.4408 H   0  0  0  0  0  0  0  0  0  0  0  0
    0.9082   -1.4485   -2.6506 H   0  0  0  0  0  0  0  0  0  0  0  0
    1.0833   -3.8333   -2.6704 H   0  0  0  0  0  0  0  0  0  0  0  0
   -1.0072   -4.5744    1.6746 H   0  0  0  0  0  0  0  0  0  0  0  0
   -2.6888   -4.0299    1.5509 H   0  0  0  0  0  0  0  0  0  0  0  0
   -2.1539   -5.4377    0.6351 H   0  0  0  0  0  0  0  0  0  0  0  0
   -0.9471    2.0330    1.3008 H   0  0  0  0  0  0  0  0  0  0  0  0
   -2.0280    1.1030    2.3380 H   0  0  0  0  0  0  0  0  0  0  0  0
    0.6553   -0.6590    2.0050 H   0  0  0  0  0  0  0  0  0  0  0  0
    2.8894   -0.4222    2.8227 H   0  0  0  0  0  0  0  0  0  0  0  0
   -1.7999    2.9903   -0.8443 H   0  0  0  0  0  0  0  0  0  0  0  0
   -4.3853    0.7468    1.7798 H   0  0  0  0  0  0  0  0  0  0  0  0
    4.1828    1.9216   -2.0649 H   0  0  0  0  0  0  0  0  0  0  0  0
    5.2504    0.3260    2.5089 H   0  0  0  0  0  0  0  0  0  0  0  0
   -3.7761    3.8241   -2.0651 H   0  0  0  0  0  0  0  0  0  0  0  0
   -6.3520    1.5919    0.5514 H   0  0  0  0  0  0  0  0  0  0  0  0
    6.4278    2.1532   -1.1833 H   0  0  0  0  0  0  0  0  0  0  0  0
    6.9809    1.3624    1.0985 H   0  0  0  0  0  0  0  0  0  0  0  0
   -6.0549    3.1307   -1.3717 H   0  0  0  0  0  0  0  0  0  0  0  0
  1 15  1  0  0  0  0
  2  8  2  0  0  0  0
  3  6  1  0  0  0  0
  3  8  1  0  0  0  0
  3 14  1  0  0  0  0
  4  5  1  0  0  0  0
  4  7  1  0  0  0  0
  4  8  1  0  0  0  0
  4 30  1  0  0  0  0
  5  6  1  0  0  0  0
  5 10  1  0  0  0  0
  5 31  1  0  0  0  0
  6 11  1  0  0  0  0
  6 32  1  0  0  0  0
  7  9  1  0  0  0  0
  7 13  1  0  0  0  0
  7 33  1  0  0  0  0
  9 12  1  0  0  0  0
  9 34  1  0  0  0  0
  9 35  1  0  0  0  0
 10 12  2  0  0  0  0
 10 36  1  0  0  0  0
 11 15  2  0  0  0  0
 11 16  1  0  0  0  0
 12 37  1  0  0  0  0
 13 38  1  0  0  0  0
 13 39  1  0  0  0  0
 13 40  1  0  0  0  0
 14 17  1  0  0  0  0
 14 41  1  0  0  0  0
 14 42  1  0  0  0  0
 15 18  1  0  0  0  0
 16 19  2  0  0  0  0
 16 43  1  0  0  0  0
 17 21  2  0  0  0  0
 17 22  1  0  0  0  0
 18 20  1  0  0  0  0
 18 23  2  0  0  0  0
 19 20  1  0  0  0  0
 19 44  1  0  0  0  0
 20 24  2  0  0  0  0
 21 25  1  0  0  0  0
 21 45  1  0  0  0  0
 22 26  2  0  0  0  0
 22 46  1  0  0  0  0
 23 27  1  0  0  0  0
 23 47  1  0  0  0  0
 24 28  1  0  0  0  0
 24 48  1  0  0  0  0
 25 29  2  0  0  0  0
 25 49  1  0  0  0  0
 26 29  1  0  0  0  0
 26 50  1  0  0  0  0
 27 28  2  0  0  0  0
 27 51  1  0  0  0  0
 28 52  1  0  0  0  0
 29 53  1  0  0  0  0
M  END
> <PUBCHEM_COMPOUND_CID>
16746405

> <PUBCHEM_CONFORMER_RMSD>
0.8

> <PUBCHEM_CONFORMER_DIVERSEORDER>
1
4
5
6
3
2

> <PUBCHEM_MMFF94_PARTIAL_CHARGES>
38
1 -0.11
10 -0.29
11 -0.14
12 -0.29
14 0.44
15 0.11
16 -0.15
17 -0.14
19 -0.15
2 -0.57
21 -0.15
22 -0.15
23 -0.15
24 -0.15
25 -0.15
26 -0.15
27 -0.15
28 -0.15
29 -0.15
3 -0.66
36 0.15
37 0.15
4 0.06
43 0.15
44 0.15
45 0.15
46 0.15
47 0.15
48 0.15
49 0.15
5 0.14
50 0.15
51 0.15
52 0.15
53 0.15
6 0.44
8 0.57
9 0.14

> <PUBCHEM_EFFECTIVE_ROTOR_COUNT>
3.8

> <PUBCHEM_PHARMACOPHORE_FEATURES>
7
1 1 hydrophobe
1 2 acceptor
5 3 4 5 6 8 rings
6 11 15 16 18 19 20 rings
6 17 21 22 25 26 29 rings
6 18 20 23 24 27 28 rings
6 4 5 7 9 10 12 rings

> <PUBCHEM_HEAVY_ATOM_COUNT>
29

> <PUBCHEM_ATOM_DEF_STEREO_COUNT>
4

> <PUBCHEM_ATOM_UDEF_STEREO_COUNT>
0

> <PUBCHEM_BOND_DEF_STEREO_COUNT>
0

> <PUBCHEM_BOND_UDEF_STEREO_COUNT>
0

> <PUBCHEM_ISOTOPIC_ATOM_COUNT>
0

> <PUBCHEM_COMPONENT_COUNT>
1

> <PUBCHEM_CACTVS_TAUTO_COUNT>
2

> <PUBCHEM_CONFORMER_ID>
00FF87A500000001

> <PUBCHEM_MMFF94_ENERGY>
93.8646

> <PUBCHEM_FEATURE_SELFOVERLAP>
35.622

> <PUBCHEM_SHAPE_FINGERPRINT>
10074138 170 18263912397065746379
105312 117 18342176669717850116
10721379 63 17554053134724715821
10764073 3 15868829459271455829
11115154 58 17545294829084008327
11763715 3 17612889500733407078
11991303 11 18410855473050390222
12160290 23 18055657215564166127
12597179 24 18343022159847357263
12633257 1 14996293521669422280
12788726 201 18192975226925821939
13004483 165 17836365221793677079
13257819 37 18342176674176068485
133893 2 17696486087121190459
13583140 156 17632009879792766464
13911987 19 18341894069803274857
14202776 33 18048054144466806708
14294032 229 18340777017987004131
15131766 46 14925375112261866644
15163728 17 18341056194613243177
15439362 3 18196371416574796446
17980427 23 18040156227795331829
1813 80 17407398508459445318
20197701 30 18340480063241348205
20511986 3 17821998839994431192
20554085 129 17916285182868561905
20600515 1 17269217328782899355
21033648 29 18130499808130956232
22182313 1 18121529932373807243
23419403 2 16972213494123247350
23559900 14 17902242109337978109
23598288 3 18192152805144191606
238918 7 17970903358548966237
249057 3 18341048524603128920
3759504 43 18343017809008394096
4015057 19 15913046564775826960
4058900 60 18197221356027133249
437815 12 7853568011685237881
4409770 3 18339077219960210015
44249763 50 18199177581288737528
44802255 64 18341062903752729246
4938544 92 18269264820392738352
59444896 2 17907817848466802495
6669772 16 18201438013200093734
9981440 41 18336270037925284801

> <PUBCHEM_SHAPE_MULTIPOLES>
591.9
10.29
4.88
1.99
5.84
6.24
0.49
-12.84
-1.96
-5.66
1.65
0.72
0.35
0.77

> <PUBCHEM_SHAPE_SELFOVERLAP>
1296.744

> <PUBCHEM_SHAPE_VOLUME>
327.3

> <PUBCHEM_COORDINATE_TYPE>
2
5
10

$$$$
