236063
  -OEChem-01171810123D

 28 29  0     0  0  0  0  0  0999 V2000
    6.3361   -0.1386   -0.0853 Cl  0  0  0  0  0  0  0  0  0  0  0  0
   -0.4493    0.9302    0.5897 S   0  0  0  0  0  0  0  0  0  0  0  0
    0.4703   -0.0526   -0.3419 O   0  0  0  0  0  0  0  0  0  0  0  0
   -0.4059    0.4997    1.9717 O   0  0  0  0  0  0  0  0  0  0  0  0
   -0.2608    2.3067    0.1808 O   0  0  0  0  0  0  0  0  0  0  0  0
   -1.0898   -2.1359    0.7641 O   0  5  0  0  0  0  0  0  0  0  0  0
   -3.0216   -2.9965    0.1596 O   0  0  0  0  0  0  0  0  0  0  0  0
   -2.9690    1.4031   -0.4134 N   0  0  0  0  0  0  0  0  0  0  0  0
   -3.9920   -0.5646   -0.5308 N   0  0  0  0  0  0  0  0  0  0  0  0
   -2.2604   -1.9991    0.3085 N   0  3  0  0  0  0  0  0  0  0  0  0
   -2.0913    0.4780    0.0374 C   0  0  0  0  0  0  0  0  0  0  0  0
   -2.7216   -0.7221   -0.0360 C   0  0  0  0  0  0  0  0  0  0  0  0
   -4.1093    0.7267   -0.7472 C   0  0  0  0  0  0  0  0  0  0  0  0
   -2.7764    2.8289   -0.5344 C   0  0  0  0  0  0  0  0  0  0  0  0
    1.8300   -0.0736   -0.2815 C   0  0  0  0  0  0  0  0  0  0  0  0
    2.5019    0.7687    0.6045 C   0  0  0  0  0  0  0  0  0  0  0  0
    2.5518   -0.9364   -1.1063 C   0  0  0  0  0  0  0  0  0  0  0  0
    3.8952    0.7483    0.6654 C   0  0  0  0  0  0  0  0  0  0  0  0
    3.9451   -0.9568   -1.0453 C   0  0  0  0  0  0  0  0  0  0  0  0
    4.6169   -0.1143   -0.1596 C   0  0  0  0  0  0  0  0  0  0  0  0
   -4.9875    1.2200   -1.1414 H   0  0  0  0  0  0  0  0  0  0  0  0
   -2.5000    3.2416    0.4384 H   0  0  0  0  0  0  0  0  0  0  0  0
   -2.0344    3.0257   -1.3113 H   0  0  0  0  0  0  0  0  0  0  0  0
   -3.7231    3.2854   -0.8401 H   0  0  0  0  0  0  0  0  0  0  0  0
    2.0000    1.4596    1.2721 H   0  0  0  0  0  0  0  0  0  0  0  0
    2.0335   -1.5947   -1.7981 H   0  0  0  0  0  0  0  0  0  0  0  0
    4.4063    1.4099    1.3604 H   0  0  0  0  0  0  0  0  0  0  0  0
    4.4943   -1.6342   -1.6943 H   0  0  0  0  0  0  0  0  0  0  0  0
  1 20  1  0  0  0  0
  2  3  1  0  0  0  0
  2  4  2  0  0  0  0
  2  5  2  0  0  0  0
  2 11  1  0  0  0  0
  3 15  1  0  0  0  0
  6 10  1  0  0  0  0
  7 10  2  0  0  0  0
  8 11  1  0  0  0  0
  8 13  1  0  0  0  0
  8 14  1  0  0  0  0
  9 12  1  0  0  0  0
  9 13  2  0  0  0  0
 10 12  1  0  0  0  0
 11 12  2  0  0  0  0
 13 21  1  0  0  0  0
 14 22  1  0  0  0  0
 14 23  1  0  0  0  0
 14 24  1  0  0  0  0
 15 16  2  0  0  0  0
 15 17  1  0  0  0  0
 16 18  1  0  0  0  0
 16 25  1  0  0  0  0
 17 19  2  0  0  0  0
 17 26  1  0  0  0  0
 18 20  2  0  0  0  0
 18 27  1  0  0  0  0
 19 20  1  0  0  0  0
 19 28  1  0  0  0  0
M  CHG  2   6  -1  10   1
M  END
> <PUBCHEM_COMPOUND_CID>
236063

> <PUBCHEM_CONFORMER_RMSD>
0.6

> <PUBCHEM_CONFORMER_DIVERSEORDER>
1
15
13
6
20
19
21
11
9
16
5
12
18
14
4
8
22
10
17
2
7
3

> <PUBCHEM_MMFF94_PARTIAL_CHARGES>
25
1 -0.18
10 0.96
11 -0.21
12 0.31
13 0.04
14 0.26
15 0.08
16 -0.15
17 -0.15
18 -0.15
19 -0.15
2 1.55
20 0.18
21 0.15
25 0.15
26 0.15
27 0.15
28 0.15
3 -0.27
4 -0.65
5 -0.65
6 -0.52
7 -0.52
8 0.05
9 -0.57

> <PUBCHEM_EFFECTIVE_ROTOR_COUNT>
4

> <PUBCHEM_PHARMACOPHORE_FEATURES>
8
1 4 acceptor
1 5 acceptor
1 6 acceptor
1 6 anion
1 7 acceptor
3 8 9 13 cation
5 8 9 11 12 13 rings
6 15 16 17 18 19 20 rings

> <PUBCHEM_HEAVY_ATOM_COUNT>
20

> <PUBCHEM_ATOM_DEF_STEREO_COUNT>
0

> <PUBCHEM_ATOM_UDEF_STEREO_COUNT>
0

> <PUBCHEM_BOND_DEF_STEREO_COUNT>
0

> <PUBCHEM_BOND_UDEF_STEREO_COUNT>
0

> <PUBCHEM_ISOTOPIC_ATOM_COUNT>
0

> <PUBCHEM_COMPONENT_COUNT>
1

> <PUBCHEM_CACTVS_TAUTO_COUNT>
1

> <PUBCHEM_CONFORMER_ID>
00039A1F00000001

> <PUBCHEM_MMFF94_ENERGY>
41.8964

> <PUBCHEM_FEATURE_SELFOVERLAP>
40.693

> <PUBCHEM_SHAPE_FINGERPRINT>
10 15 18058995282249270024
10366900 7 17846494816667681002
11315181 36 17775286054360029888
11370993 70 18410289177407128886
11615757 297 15554445206504602306
12173636 292 18191580853124285509
12236239 1 17167859755798538720
12500047 106 18336543815908922988
12788726 201 18058445396294471129
14386348 63 18201721768951949198
15375358 24 18343863307870286790
15961568 22 18042400404296138468
17834072 14 18341895212221467972
17870717 6 18341060648299033646
18186145 218 18270680857407552665
19141452 34 18129950095641169927
19433438 15 17385734594802426854
19489759 90 18408600340784921596
200 152 16988841653383316960
20279233 1 18343306959381826166
20645476 183 17458061569268475811
20645477 56 18336266747669306949
20645477 70 17274545313502696430
20871999 31 18340199705172899669
21065201 7 18408600358038708986
21079973 296 18341893013134921900
21339142 51 18412543214830164309
21682296 61 16915676783092307422
21728266 224 18261097596075822506
221490 88 18270120244369858576
23402539 116 18335415747444639516
23526113 38 17989198248566249283
23557571 272 18342739589933846804
23558518 356 17700713773707291904
23559900 14 18413385428458449584
26918003 58 18202563982110963354
4214541 1 18410011022656246780
4921388 177 18113905987033762091
5104073 3 18130788919880915346
5283173 99 18410570648389747240
8809292 202 18411138060465457851
9709674 26 18272375230785670126

> <PUBCHEM_SHAPE_MULTIPOLES>
373.02
10.42
2.33
1.04
11.36
0.44
-0.19
0.54
2
-3.2
-0.08
0.16
-0.03
1.08

> <PUBCHEM_SHAPE_SELFOVERLAP>
779.2

> <PUBCHEM_SHAPE_VOLUME>
213.5

> <PUBCHEM_COORDINATE_TYPE>
2
5
10

$$$$
