44142133
  -OEChem-01171810103D

 35 38  0     0  0  0  0  0  0999 V2000
    3.4877    2.3327    1.3804 S   0  0  0  0  0  0  0  0  0  0  0  0
    0.8357   -1.2387   -1.6036 S   0  0  0  0  0  0  0  0  0  0  0  0
   -4.6869    0.9242    0.1873 F   0  0  0  0  0  0  0  0  0  0  0  0
   -3.3790   -0.5878    1.0422 F   0  0  0  0  0  0  0  0  0  0  0  0
   -3.5783    1.3426    2.0104 F   0  0  0  0  0  0  0  0  0  0  0  0
    4.6281    0.0565    0.5946 N   0  0  0  0  0  0  0  0  0  0  0  0
    3.3546   -1.5036   -0.7556 N   0  0  0  0  0  0  0  0  0  0  0  0
   -1.2268   -2.7611   -0.5148 N   0  0  0  0  0  0  0  0  0  0  0  0
    0.3399   -2.3260    0.9202 N   0  0  0  0  0  0  0  0  0  0  0  0
   -1.6202   -3.3465    0.6250 N   0  0  0  0  0  0  0  0  0  0  0  0
   -0.6579   -3.0774    1.4989 N   0  0  0  0  0  0  0  0  0  0  0  0
    1.3722    1.5782    0.1350 C   0  0  0  0  0  0  0  0  0  0  0  0
    2.3265    0.5301   -0.0573 C   0  0  0  0  0  0  0  0  0  0  0  0
    0.0163    1.6773   -0.3456 C   0  0  0  0  0  0  0  0  0  0  0  0
    3.5245    0.8293    0.5784 C   0  0  0  0  0  0  0  0  0  0  0  0
   -1.0355    1.1820    0.4252 C   0  0  0  0  0  0  0  0  0  0  0  0
    1.8718    2.6138    0.8945 C   0  0  0  0  0  0  0  0  0  0  0  0
    2.2771   -0.6901   -0.7393 C   0  0  0  0  0  0  0  0  0  0  0  0
   -2.3471    1.2797   -0.0395 C   0  0  0  0  0  0  0  0  0  0  0  0
   -0.2435    2.2703   -1.5813 C   0  0  0  0  0  0  0  0  0  0  0  0
   -2.6069    1.8728   -1.2751 C   0  0  0  0  0  0  0  0  0  0  0  0
   -1.5550    2.3677   -2.0460 C   0  0  0  0  0  0  0  0  0  0  0  0
   -3.4720    0.7503    0.7842 C   0  0  0  0  0  0  0  0  0  0  0  0
    4.4518   -1.0847   -0.0948 C   0  0  0  0  0  0  0  0  0  0  0  0
   -0.0324   -2.1420   -0.3256 C   0  0  0  0  0  0  0  0  0  0  0  0
   -2.0448   -2.8497   -1.6979 C   0  0  0  0  0  0  0  0  0  0  0  0
   -0.8406    0.7184    1.3902 H   0  0  0  0  0  0  0  0  0  0  0  0
    1.3753    3.5272    1.1946 H   0  0  0  0  0  0  0  0  0  0  0  0
    0.5649    2.6608   -2.1951 H   0  0  0  0  0  0  0  0  0  0  0  0
   -3.6210    1.9582   -1.6555 H   0  0  0  0  0  0  0  0  0  0  0  0
   -1.7571    2.8288   -3.0084 H   0  0  0  0  0  0  0  0  0  0  0  0
    5.3030   -1.7559   -0.1230 H   0  0  0  0  0  0  0  0  0  0  0  0
   -1.4667   -3.3404   -2.4846 H   0  0  0  0  0  0  0  0  0  0  0  0
   -2.9416   -3.4353   -1.4792 H   0  0  0  0  0  0  0  0  0  0  0  0
   -2.3300   -1.8384   -1.9984 H   0  0  0  0  0  0  0  0  0  0  0  0
  1 15  1  0  0  0  0
  1 17  1  0  0  0  0
  2 18  1  0  0  0  0
  2 25  1  0  0  0  0
  3 23  1  0  0  0  0
  4 23  1  0  0  0  0
  5 23  1  0  0  0  0
  6 15  1  0  0  0  0
  6 24  2  0  0  0  0
  7 18  2  0  0  0  0
  7 24  1  0  0  0  0
  8 10  1  0  0  0  0
  8 25  1  0  0  0  0
  8 26  1  0  0  0  0
  9 11  1  0  0  0  0
  9 25  2  0  0  0  0
 10 11  2  0  0  0  0
 12 13  1  0  0  0  0
 12 14  1  0  0  0  0
 12 17  2  0  0  0  0
 13 15  2  0  0  0  0
 13 18  1  0  0  0  0
 14 16  2  0  0  0  0
 14 20  1  0  0  0  0
 16 19  1  0  0  0  0
 16 27  1  0  0  0  0
 17 28  1  0  0  0  0
 19 21  2  0  0  0  0
 19 23  1  0  0  0  0
 20 22  2  0  0  0  0
 20 29  1  0  0  0  0
 21 22  1  0  0  0  0
 21 30  1  0  0  0  0
 22 31  1  0  0  0  0
 24 32  1  0  0  0  0
 26 33  1  0  0  0  0
 26 34  1  0  0  0  0
 26 35  1  0  0  0  0
M  END
> <PUBCHEM_COMPOUND_CID>
44142133

> <PUBCHEM_CONFORMER_RMSD>
0.8

> <PUBCHEM_CONFORMER_DIVERSEORDER>
2
20
16
22
24
28
4
19
26
3
18
23
1
17
21
25
14
27
5
15
13
6
7
8
9
10
11
12

> <PUBCHEM_MMFF94_PARTIAL_CHARGES>
30
1 -0.08
10 -0.42
12 -0.05
14 0.05
15 0.3
16 -0.15
17 -0.11
18 0.41
19 -0.14
2 -0.16
20 -0.15
21 -0.15
22 -0.15
23 1.16
24 0.47
25 0.24
26 0.26
27 0.15
28 0.15
29 0.15
3 -0.34
30 0.15
31 0.15
32 0.15
4 -0.34
5 -0.34
6 -0.57
7 -0.62
8 0.31
9 -0.34

> <PUBCHEM_EFFECTIVE_ROTOR_COUNT>
4

> <PUBCHEM_PHARMACOPHORE_FEATURES>
7
1 7 acceptor
3 6 7 24 cation
3 8 9 25 cation
5 1 12 13 15 17 rings
5 8 9 10 11 25 rings
6 14 16 19 20 21 22 rings
6 6 7 13 15 18 24 rings

> <PUBCHEM_HEAVY_ATOM_COUNT>
26

> <PUBCHEM_ATOM_DEF_STEREO_COUNT>
0

> <PUBCHEM_ATOM_UDEF_STEREO_COUNT>
0

> <PUBCHEM_BOND_DEF_STEREO_COUNT>
0

> <PUBCHEM_BOND_UDEF_STEREO_COUNT>
0

> <PUBCHEM_ISOTOPIC_ATOM_COUNT>
0

> <PUBCHEM_COMPONENT_COUNT>
1

> <PUBCHEM_CACTVS_TAUTO_COUNT>
1

> <PUBCHEM_CONFORMER_ID>
02A18E3500000002

> <PUBCHEM_MMFF94_ENERGY>
51.9585

> <PUBCHEM_FEATURE_SELFOVERLAP>
35.603

> <PUBCHEM_SHAPE_FINGERPRINT>
10064457 181 18270698518418673049
104564 63 17835809964179222692
11370993 70 18272653445966612161
11578080 2 16843865680910521306
12035758 1 18341611495530227336
12156800 1 11261473872075369147
12422481 6 18124340400243507019
12633257 1 18340759395409258080
13140716 1 18199737193978171112
13402501 40 18337116674156821226
13583140 156 17168963652715135180
14223421 5 18124021588836100708
15209289 33 18200316515597688720
15324884 4 18187635860953881764
17357779 13 17981025720539774742
19591789 44 18264767662546242770
20691752 17 18260258681134790583
20905425 154 17754740420626324443
21033648 29 18265032688052086464
21197605 99 18199754816128993423
21236236 1 18124871511667503416
21756936 100 16986306347443591272
23419403 2 17054757491464689748
23558518 356 18194957667590478207
238 59 17905014020711229157
3052486 1 18115314504230851366
3298306 158 18045770200489681709
3383291 50 17910392789252362854
350125 39 17837477923973381784
3524813 1 18337112258935676605
4340502 62 18201726154704493217
469060 322 17677038127492198607
5282274 181 18339937024608877953
6438718 38 18272931673726734830
70251023 43 16978418055492302535
81228 2 18118955030190373790

> <PUBCHEM_SHAPE_MULTIPOLES>
491.06
7.02
4.05
1.67
2.08
2.43
0.22
-1.53
-2.07
-1.44
0.07
-0.99
-0.24
0.95

> <PUBCHEM_SHAPE_SELFOVERLAP>
1064.755

> <PUBCHEM_SHAPE_VOLUME>
274.5

> <PUBCHEM_COORDINATE_TYPE>
2
5
10

$$$$
