6861088
  -OEChem-01171809523D

 47 50  0     0  0  0  0  0  0999 V2000
   -8.3936    1.8015   -1.0215 Cl  0  0  0  0  0  0  0  0  0  0  0  0
    3.9476   -1.0484   -0.1582 S   0  0  0  0  0  0  0  0  0  0  0  0
    0.8410    2.3519    0.4103 O   0  0  0  0  0  0  0  0  0  0  0  0
   -1.4430   -4.3281   -0.4737 O   0  0  0  0  0  0  0  0  0  0  0  0
    0.5654   -3.7806    0.5229 O   0  0  0  0  0  0  0  0  0  0  0  0
    1.6263    0.1139    0.1677 N   0  0  0  0  0  0  0  0  0  0  0  0
    1.0723   -1.1594    0.1331 N   0  0  0  0  0  0  0  0  0  0  0  0
   -2.9446    0.1956    0.6483 N   0  0  0  0  0  0  0  0  0  0  0  0
    3.5937    1.4968    0.0639 N   0  0  0  0  0  0  0  0  0  0  0  0
   -0.5776    0.3991    0.4166 C   0  0  0  0  0  0  0  0  0  0  0  0
   -0.2157   -1.0110    0.2764 C   0  0  0  0  0  0  0  0  0  0  0  0
   -1.7866    0.9311    0.5814 C   0  0  0  0  0  0  0  0  0  0  0  0
    0.6937    1.1470    0.3388 C   0  0  0  0  0  0  0  0  0  0  0  0
   -1.1962   -2.1330    0.2969 C   0  0  0  0  0  0  0  0  0  0  0  0
    2.9713    0.3414    0.0449 C   0  0  0  0  0  0  0  0  0  0  0  0
   -1.9658    2.4237    0.7086 C   0  0  0  0  0  0  0  0  0  0  0  0
    5.3464   -0.0428   -0.2313 C   0  0  0  0  0  0  0  0  0  0  0  0
    4.9569    1.2929   -0.0934 C   0  0  0  0  0  0  0  0  0  0  0  0
   -4.2279    0.5743    0.2558 C   0  0  0  0  0  0  0  0  0  0  0  0
   -0.5617   -3.4894    0.1460 C   0  0  0  0  0  0  0  0  0  0  0  0
    6.6914   -0.4096   -0.3989 C   0  0  0  0  0  0  0  0  0  0  0  0
    5.9508    2.2950   -0.1246 C   0  0  0  0  0  0  0  0  0  0  0  0
   -5.3562    0.0498    0.9035 C   0  0  0  0  0  0  0  0  0  0  0  0
   -4.4125    1.4860   -0.7946 C   0  0  0  0  0  0  0  0  0  0  0  0
    7.6549    0.6016   -0.4262 C   0  0  0  0  0  0  0  0  0  0  0  0
    7.2918    1.9370   -0.2910 C   0  0  0  0  0  0  0  0  0  0  0  0
   -6.6399    0.4279    0.5100 C   0  0  0  0  0  0  0  0  0  0  0  0
   -5.6962    1.8644   -1.1881 C   0  0  0  0  0  0  0  0  0  0  0  0
   -6.8100    1.3354   -0.5357 C   0  0  0  0  0  0  0  0  0  0  0  0
   -0.9760   -5.6640   -0.6879 C   0  0  0  0  0  0  0  0  0  0  0  0
   -1.9114   -1.9821   -0.5182 H   0  0  0  0  0  0  0  0  0  0  0  0
   -1.7050   -2.1608    1.2641 H   0  0  0  0  0  0  0  0  0  0  0  0
   -2.8982   -0.6709    1.1650 H   0  0  0  0  0  0  0  0  0  0  0  0
   -1.8306    2.9258   -0.2548 H   0  0  0  0  0  0  0  0  0  0  0  0
   -1.2538    2.8443    1.4272 H   0  0  0  0  0  0  0  0  0  0  0  0
   -2.9408    2.7081    1.1188 H   0  0  0  0  0  0  0  0  0  0  0  0
    6.9824   -1.4501   -0.5050 H   0  0  0  0  0  0  0  0  0  0  0  0
    5.6782    3.3414   -0.0199 H   0  0  0  0  0  0  0  0  0  0  0  0
   -5.2399   -0.6582    1.7208 H   0  0  0  0  0  0  0  0  0  0  0  0
   -3.5739    1.8850   -1.3582 H   0  0  0  0  0  0  0  0  0  0  0  0
    8.7018    0.3393   -0.5549 H   0  0  0  0  0  0  0  0  0  0  0  0
    8.0551    2.7099   -0.3147 H   0  0  0  0  0  0  0  0  0  0  0  0
   -7.4985    0.0076    1.0273 H   0  0  0  0  0  0  0  0  0  0  0  0
   -5.8142    2.5646   -2.0111 H   0  0  0  0  0  0  0  0  0  0  0  0
   -1.7696   -6.2255   -1.1881 H   0  0  0  0  0  0  0  0  0  0  0  0
   -0.7544   -6.1456    0.2693 H   0  0  0  0  0  0  0  0  0  0  0  0
   -0.0912   -5.6570   -1.3316 H   0  0  0  0  0  0  0  0  0  0  0  0
  1 29  1  0  0  0  0
  2 15  1  0  0  0  0
  2 17  1  0  0  0  0
  3 13  2  0  0  0  0
  4 20  1  0  0  0  0
  4 30  1  0  0  0  0
  5 20  2  0  0  0  0
  6  7  1  0  0  0  0
  6 13  1  0  0  0  0
  6 15  1  0  0  0  0
  7 11  2  0  0  0  0
  8 12  1  0  0  0  0
  8 19  1  0  0  0  0
  8 33  1  0  0  0  0
  9 15  2  0  0  0  0
  9 18  1  0  0  0  0
 10 11  1  0  0  0  0
 10 12  2  0  0  0  0
 10 13  1  0  0  0  0
 11 14  1  0  0  0  0
 12 16  1  0  0  0  0
 14 20  1  0  0  0  0
 14 31  1  0  0  0  0
 14 32  1  0  0  0  0
 16 34  1  0  0  0  0
 16 35  1  0  0  0  0
 16 36  1  0  0  0  0
 17 18  1  0  0  0  0
 17 21  2  0  0  0  0
 18 22  2  0  0  0  0
 19 23  2  0  0  0  0
 19 24  1  0  0  0  0
 21 25  1  0  0  0  0
 21 37  1  0  0  0  0
 22 26  1  0  0  0  0
 22 38  1  0  0  0  0
 23 27  1  0  0  0  0
 23 39  1  0  0  0  0
 24 28  2  0  0  0  0
 24 40  1  0  0  0  0
 25 26  2  0  0  0  0
 25 41  1  0  0  0  0
 26 42  1  0  0  0  0
 27 29  2  0  0  0  0
 27 43  1  0  0  0  0
 28 29  1  0  0  0  0
 28 44  1  0  0  0  0
 30 45  1  0  0  0  0
 30 46  1  0  0  0  0
 30 47  1  0  0  0  0
M  END
> <PUBCHEM_COMPOUND_CID>
6861088

> <PUBCHEM_CONFORMER_RMSD>
0.8

> <PUBCHEM_CONFORMER_DIVERSEORDER>
5
43
21
52
41
35
30
55
11
50
1
47
44
34
24
4
54
56
3
12
20
19
16
39
53
51
25
38
32
17
28
15
2
26
29
31
22
23
46
18
42
7
27
48
8
10
37
36
49
33
6
13
45
40
14
9

> <PUBCHEM_MMFF94_PARTIAL_CHARGES>
39
1 -0.18
10 0.03
11 0.37
12 -0.04
13 0.62
14 0.12
15 0.44
16 0.14
17 0.04
18 0.23
19 0.1
2 -0.08
20 0.66
21 -0.15
22 -0.15
23 -0.15
24 -0.15
25 -0.15
26 -0.15
27 -0.15
28 -0.15
29 0.18
3 -0.57
30 0.28
33 0.4
37 0.15
38 0.15
39 0.15
4 -0.43
40 0.15
41 0.15
42 0.15
43 0.15
44 0.15
5 -0.57
6 -0.06
7 -0.51
8 -0.6
9 -0.57

> <PUBCHEM_EFFECTIVE_ROTOR_COUNT>
6.2

> <PUBCHEM_PHARMACOPHORE_FEATURES>
9
1 3 acceptor
1 5 acceptor
1 7 acceptor
1 8 cation
1 8 donor
5 2 9 15 17 18 rings
5 6 7 10 11 13 rings
6 17 18 21 22 25 26 rings
6 19 23 24 27 28 29 rings

> <PUBCHEM_HEAVY_ATOM_COUNT>
30

> <PUBCHEM_ATOM_DEF_STEREO_COUNT>
0

> <PUBCHEM_ATOM_UDEF_STEREO_COUNT>
0

> <PUBCHEM_BOND_DEF_STEREO_COUNT>
1

> <PUBCHEM_BOND_UDEF_STEREO_COUNT>
0

> <PUBCHEM_ISOTOPIC_ATOM_COUNT>
0

> <PUBCHEM_COMPONENT_COUNT>
1

> <PUBCHEM_CACTVS_TAUTO_COUNT>
7

> <PUBCHEM_CONFORMER_ID>
0068B12000000005

> <PUBCHEM_MMFF94_ENERGY>
97.1556

> <PUBCHEM_FEATURE_SELFOVERLAP>
45.75

> <PUBCHEM_SHAPE_FINGERPRINT>
10050765 1 18051693540871411880
102385 1 17764304337821499473
10369192 42 18259982657146935805
10411042 1 17619631727457953666
11062273 19 17906730302417173558
11135609 187 18410572851660406665
11135926 11 18339646642777103505
11297750 10 17554325104923431507
11578080 2 16915365839748509578
11719270 70 18339070485266756907
11991303 11 18334297616564306631
12597179 24 18202008728533845398
12838862 33 18338785776385491568
13150687 139 18409733928388215054
13540713 4 17699842123327585248
13540713 5 17698163955246152225
13911987 19 18411696574319386801
13968360 50 18336543811894004559
14117953 113 18335426751435955404
14251764 18 11819281061267982912
14790565 3 18340211786604641056
15064981 194 18194421080616474316
15131766 46 16735537423672179324
15183329 4 17346597469421235957
15849732 13 18040719177353185700
15927050 60 18411416236966431186
18681886 176 18334853952600550785
19427546 20 18194125350853707350
20505436 4 18040428910931958754
20554085 129 18201421576787422714
21033648 29 18337379534777575937
21236236 1 18269839872714803518
21521721 280 18412548699777669377
23516275 137 16701483190106069775
23559900 14 18129378358142574048
23576562 1 18116714204440669453
249057 3 18409733976408113732
25019877 29 18411141324799028351
283562 15 18129388102801084441
3103668 31 18193831781498011679
3178227 256 18337968852199333289
335352 9 18411423887335971772
3633792 109 18341335487593755496
38695281 34 18410573964204577091
4017518 198 18341338825348172334
4258327 124 17969238891882653748
4408954 64 15868889211263161667
5486654 2 18413388735082374049
563151 97 18270123384107464601
59755656 520 18408879663508523590
6058803 2 17482836667514664313
6669772 16 18272094859341793975
6898599 12 18194407912409710428

> <PUBCHEM_SHAPE_MULTIPOLES>
585.57
20.64
4.55
0.87
0.05
9.91
0.07
-18.31
5.53
-1.4
0.85
-0.98
-0.13
0.68

> <PUBCHEM_SHAPE_SELFOVERLAP>
1261.367

> <PUBCHEM_SHAPE_VOLUME>
324.5

> <PUBCHEM_COORDINATE_TYPE>
2
5
10

$$$$
