54678158
  -OEChem-01171809153D

 50 52  0     0  0  0  0  0  0999 V2000
   -1.4379   -1.6700    0.3624 O   0  0  0  0  0  0  0  0  0  0  0  0
    1.1163    2.1787   -0.8309 O   0  0  0  0  0  0  0  0  0  0  0  0
   -1.5259    2.1260    0.5193 O   0  0  0  0  0  0  0  0  0  0  0  0
    2.2288    0.1584   -0.5918 N   0  0  0  0  0  0  0  0  0  0  0  0
   -2.3819    0.7382   -1.1475 N   0  0  0  0  0  0  0  0  0  0  0  0
   -6.6778   -0.2314    1.2627 N   0  0  0  0  0  0  0  0  0  0  0  0
    3.5239    0.7561   -0.9129 C   0  0  0  0  0  0  0  0  0  0  0  0
    4.3679    0.9698    0.3379 C   0  0  0  0  0  0  0  0  0  0  0  0
    5.7236    1.5878   -0.0044 C   0  0  0  0  0  0  0  0  0  0  0  0
    2.1663   -1.2386   -0.2987 C   0  0  0  0  0  0  0  0  0  0  0  0
    0.9268   -1.8187    0.0132 C   0  0  0  0  0  0  0  0  0  0  0  0
    1.0950    0.9711   -0.5817 C   0  0  0  0  0  0  0  0  0  0  0  0
    6.5848    1.7667    1.2456 C   0  0  0  0  0  0  0  0  0  0  0  0
   -0.2205    0.3305   -0.2485 C   0  0  0  0  0  0  0  0  0  0  0  0
   -0.2868   -0.9837    0.0341 C   0  0  0  0  0  0  0  0  0  0  0  0
    3.3169   -2.0496   -0.3141 C   0  0  0  0  0  0  0  0  0  0  0  0
    0.8682   -3.1960    0.3023 C   0  0  0  0  0  0  0  0  0  0  0  0
    7.9209    2.4120    0.9138 C   0  0  0  0  0  0  0  0  0  0  0  0
   -1.4366    1.1688   -0.2397 C   0  0  0  0  0  0  0  0  0  0  0  0
    3.2413   -3.4122   -0.0253 C   0  0  0  0  0  0  0  0  0  0  0  0
    2.0166   -3.9859    0.2832 C   0  0  0  0  0  0  0  0  0  0  0  0
   -3.6575    1.3948   -1.3248 C   0  0  0  0  0  0  0  0  0  0  0  0
   -4.7126    0.8262   -0.4206 C   0  0  0  0  0  0  0  0  0  0  0  0
   -5.2866   -0.4075   -0.7067 C   0  0  0  0  0  0  0  0  0  0  0  0
   -5.1200    1.5318    0.7062 C   0  0  0  0  0  0  0  0  0  0  0  0
   -6.2562   -0.8879    0.1587 C   0  0  0  0  0  0  0  0  0  0  0  0
   -6.0970    0.9646    1.5084 C   0  0  0  0  0  0  0  0  0  0  0  0
    4.0379    0.1463   -1.6648 H   0  0  0  0  0  0  0  0  0  0  0  0
    3.3641    1.7276   -1.3964 H   0  0  0  0  0  0  0  0  0  0  0  0
    3.8296    1.6362    1.0246 H   0  0  0  0  0  0  0  0  0  0  0  0
    4.5260    0.0380    0.8896 H   0  0  0  0  0  0  0  0  0  0  0  0
    6.2501    0.9457   -0.7210 H   0  0  0  0  0  0  0  0  0  0  0  0
    5.5719    2.5592   -0.4906 H   0  0  0  0  0  0  0  0  0  0  0  0
    6.0567    2.3912    1.9756 H   0  0  0  0  0  0  0  0  0  0  0  0
    6.7621    0.7938    1.7185 H   0  0  0  0  0  0  0  0  0  0  0  0
    4.3010   -1.6663   -0.5634 H   0  0  0  0  0  0  0  0  0  0  0  0
   -0.0738   -3.6811    0.5480 H   0  0  0  0  0  0  0  0  0  0  0  0
    8.4888    1.7972    0.2083 H   0  0  0  0  0  0  0  0  0  0  0  0
    7.7789    3.4025    0.4700 H   0  0  0  0  0  0  0  0  0  0  0  0
    8.5209    2.5295    1.8216 H   0  0  0  0  0  0  0  0  0  0  0  0
    4.1392   -4.0227   -0.0457 H   0  0  0  0  0  0  0  0  0  0  0  0
    1.9516   -5.0463    0.5080 H   0  0  0  0  0  0  0  0  0  0  0  0
   -2.1911   -0.0735   -1.7285 H   0  0  0  0  0  0  0  0  0  0  0  0
   -3.5342    2.4705   -1.1530 H   0  0  0  0  0  0  0  0  0  0  0  0
   -3.9537    1.2687   -2.3725 H   0  0  0  0  0  0  0  0  0  0  0  0
   -2.1833   -1.0472    0.3754 H   0  0  0  0  0  0  0  0  0  0  0  0
   -4.9915   -0.9840   -1.5768 H   0  0  0  0  0  0  0  0  0  0  0  0
   -4.6932    2.4958    0.9613 H   0  0  0  0  0  0  0  0  0  0  0  0
   -6.7345   -1.8453   -0.0197 H   0  0  0  0  0  0  0  0  0  0  0  0
   -6.4492    1.4743    2.3992 H   0  0  0  0  0  0  0  0  0  0  0  0
  1 15  1  0  0  0  0
  1 46  1  0  0  0  0
  2 12  2  0  0  0  0
  3 19  2  0  0  0  0
  4  7  1  0  0  0  0
  4 10  1  0  0  0  0
  4 12  1  0  0  0  0
  5 19  1  0  0  0  0
  5 22  1  0  0  0  0
  5 43  1  0  0  0  0
  6 26  2  0  0  0  0
  6 27  1  0  0  0  0
  7  8  1  0  0  0  0
  7 28  1  0  0  0  0
  7 29  1  0  0  0  0
  8  9  1  0  0  0  0
  8 30  1  0  0  0  0
  8 31  1  0  0  0  0
  9 13  1  0  0  0  0
  9 32  1  0  0  0  0
  9 33  1  0  0  0  0
 10 11  1  0  0  0  0
 10 16  2  0  0  0  0
 11 15  1  0  0  0  0
 11 17  2  0  0  0  0
 12 14  1  0  0  0  0
 13 18  1  0  0  0  0
 13 34  1  0  0  0  0
 13 35  1  0  0  0  0
 14 15  2  0  0  0  0
 14 19  1  0  0  0  0
 16 20  1  0  0  0  0
 16 36  1  0  0  0  0
 17 21  1  0  0  0  0
 17 37  1  0  0  0  0
 18 38  1  0  0  0  0
 18 39  1  0  0  0  0
 18 40  1  0  0  0  0
 20 21  2  0  0  0  0
 20 41  1  0  0  0  0
 21 42  1  0  0  0  0
 22 23  1  0  0  0  0
 22 44  1  0  0  0  0
 22 45  1  0  0  0  0
 23 24  2  0  0  0  0
 23 25  1  0  0  0  0
 24 26  1  0  0  0  0
 24 47  1  0  0  0  0
 25 27  2  0  0  0  0
 25 48  1  0  0  0  0
 26 49  1  0  0  0  0
 27 50  1  0  0  0  0
M  END
> <PUBCHEM_COMPOUND_CID>
54678158

> <PUBCHEM_CONFORMER_RMSD>
1

> <PUBCHEM_CONFORMER_DIVERSEORDER>
1
35
30
22
4
18
36
14
17
37
26
41
40
25
31
33
29
32
7
16
20
45
13
44
10
46
23
5
19
39
27
42
24
8
43
12
38
34
6
2
9
28
3
11
21
15

> <PUBCHEM_MMFF94_PARTIAL_CHARGES>
33
1 -0.53
10 0.12
11 0.03
12 0.62
14 0.03
15 0.05
16 -0.15
17 -0.15
19 0.62
2 -0.57
20 -0.15
21 -0.15
22 0.44
23 -0.14
24 -0.15
25 -0.15
26 0.16
27 0.16
3 -0.57
36 0.15
37 0.15
4 -0.48
41 0.15
42 0.15
43 0.37
46 0.45
47 0.15
48 0.15
49 0.15
5 -0.73
50 0.15
6 -0.62
7 0.3

> <PUBCHEM_EFFECTIVE_ROTOR_COUNT>
8

> <PUBCHEM_PHARMACOPHORE_FEATURES>
10
1 1 donor
1 14 anion
1 18 hydrophobe
1 2 acceptor
1 3 acceptor
1 5 donor
1 6 acceptor
6 10 11 16 17 20 21 rings
6 4 10 11 12 14 15 rings
6 6 23 24 25 26 27 rings

> <PUBCHEM_HEAVY_ATOM_COUNT>
27

> <PUBCHEM_ATOM_DEF_STEREO_COUNT>
0

> <PUBCHEM_ATOM_UDEF_STEREO_COUNT>
0

> <PUBCHEM_BOND_DEF_STEREO_COUNT>
0

> <PUBCHEM_BOND_UDEF_STEREO_COUNT>
0

> <PUBCHEM_ISOTOPIC_ATOM_COUNT>
0

> <PUBCHEM_COMPONENT_COUNT>
1

> <PUBCHEM_CACTVS_TAUTO_COUNT>
7

> <PUBCHEM_CONFORMER_ID>
0342528E00000001

> <PUBCHEM_MMFF94_ENERGY>
65.5104

> <PUBCHEM_FEATURE_SELFOVERLAP>
50.77

> <PUBCHEM_SHAPE_FINGERPRINT>
10 15 17967813899001027688
10835480 77 18262791875102127661
10906281 52 18189065333744099350
11136131 41 18260258625443660922
12596602 18 17846505811900016401
12730499 353 18409173186353698390
12788726 201 17059783213138762521
13073987 5 18339930325145646481
13140716 1 18266462203043306997
13540713 4 17970618585000143629
13631057 29 18127965507259977855
146900 427 18201719539716093321
14765038 42 18202010927989071483
14790565 3 18192439786042564476
14849402 71 18200030792867609832
14863182 85 18260558800907509486
15064981 113 12901534759678737379
16126227 98 18268427013822768656
16992610 120 18337121181018211268
16994733 274 16558745754565998080
17913733 40 18411141341809955322
18603816 31 13768202856425625704
19377110 9 18272365339338635969
20554085 129 18129358515577893160
21033648 29 17386285390383476911
21521721 280 18342739645905208048
21623969 137 18260552216648576745
221490 88 18116718413608572927
22149856 69 18190763993700213849
22224240 67 18412259579949121000
22393880 68 17387411225797348399
23559900 14 17976248046043284631
23576562 1 10087339137045939913
3178227 256 18337397135600819745
4093350 32 17275388682139833686
4258327 124 17970077845309553556
4340502 62 18411138039491781460
5104073 3 18190461563114024089
5385378 56 18411136922984978738
5758199 1 18342740745116330680
7399639 24 18115018602617210692

> <PUBCHEM_SHAPE_MULTIPOLES>
523.1
17.02
3.71
1.09
2.2
3.9
0.1
-12.16
6.55
-5.55
0.52
0.7
-0.46
0.86

> <PUBCHEM_SHAPE_SELFOVERLAP>
1114.781

> <PUBCHEM_SHAPE_VOLUME>
287.8

> <PUBCHEM_COORDINATE_TYPE>
2
5
10

$$$$
