7285210
  -OEChem-01171809273D

 46 48  0     0  0  0  0  0  0999 V2000
    0.1815    2.0559    1.2158 S   0  0  0  0  0  0  0  0  0  0  0  0
   -0.2688   -0.6591    2.6344 O   0  0  0  0  0  0  0  0  0  0  0  0
    3.8855   -0.0317    0.9726 O   0  0  0  0  0  0  0  0  0  0  0  0
    4.0670    0.3887   -1.7691 O   0  0  0  0  0  0  0  0  0  0  0  0
   -1.6022   -0.0425    0.8943 N   0  0  0  0  0  0  0  0  0  0  0  0
   -2.1641    1.9240   -0.0449 N   0  0  0  0  0  0  0  0  0  0  0  0
   -2.7688   -0.2605    0.1613 C   0  0  0  0  0  0  0  0  0  0  0  0
   -3.0820    0.9769   -0.4018 C   0  0  0  0  0  0  0  0  0  0  0  0
   -1.3031    1.2944    0.7196 C   0  0  0  0  0  0  0  0  0  0  0  0
   -3.5692   -1.3912   -0.0640 C   0  0  0  0  0  0  0  0  0  0  0  0
   -0.8989   -0.9992    1.6435 C   0  0  0  0  0  0  0  0  0  0  0  0
   -4.2215    1.1099   -1.2152 C   0  0  0  0  0  0  0  0  0  0  0  0
   -4.6996   -1.2422   -0.8756 C   0  0  0  0  0  0  0  0  0  0  0  0
   -5.0225   -0.0122   -1.4432 C   0  0  0  0  0  0  0  0  0  0  0  0
   -0.9544   -2.3964    1.1925 C   0  0  0  0  0  0  0  0  0  0  0  0
    1.0473   -1.9727   -0.2248 C   0  0  0  0  0  0  0  0  0  0  0  0
   -0.0312   -2.8154    0.3214 C   0  0  0  0  0  0  0  0  0  0  0  0
    0.0246    3.6721    0.4081 C   0  0  0  0  0  0  0  0  0  0  0  0
    1.9629   -1.3971    0.6410 C   0  0  0  0  0  0  0  0  0  0  0  0
    2.9836   -0.5993    0.1240 C   0  0  0  0  0  0  0  0  0  0  0  0
    1.1243   -1.7724   -1.5935 C   0  0  0  0  0  0  0  0  0  0  0  0
    3.0746   -0.3881   -1.2518 C   0  0  0  0  0  0  0  0  0  0  0  0
    2.1449   -0.9746   -2.1106 C   0  0  0  0  0  0  0  0  0  0  0  0
    1.2358    4.5358    0.7048 C   0  0  0  0  0  0  0  0  0  0  0  0
    5.0600   -0.7848    1.2685 C   0  0  0  0  0  0  0  0  0  0  0  0
    3.7943    1.7818   -1.9073 C   0  0  0  0  0  0  0  0  0  0  0  0
   -3.3698   -2.3585    0.3764 H   0  0  0  0  0  0  0  0  0  0  0  0
   -4.4786    2.0662   -1.6602 H   0  0  0  0  0  0  0  0  0  0  0  0
   -5.3393   -2.1015   -1.0609 H   0  0  0  0  0  0  0  0  0  0  0  0
   -5.9066    0.0776   -2.0685 H   0  0  0  0  0  0  0  0  0  0  0  0
   -1.6911   -3.0645    1.6193 H   0  0  0  0  0  0  0  0  0  0  0  0
   -0.0518   -3.8445   -0.0264 H   0  0  0  0  0  0  0  0  0  0  0  0
   -0.0648    3.5331   -0.6744 H   0  0  0  0  0  0  0  0  0  0  0  0
   -0.8780    4.1765    0.7685 H   0  0  0  0  0  0  0  0  0  0  0  0
    1.9292   -1.5799    1.7116 H   0  0  0  0  0  0  0  0  0  0  0  0
    0.4049   -2.2229   -2.2720 H   0  0  0  0  0  0  0  0  0  0  0  0
    2.2099   -0.8144   -3.1834 H   0  0  0  0  0  0  0  0  0  0  0  0
    1.3445    4.7203    1.7790 H   0  0  0  0  0  0  0  0  0  0  0  0
    2.1584    4.0756    0.3353 H   0  0  0  0  0  0  0  0  0  0  0  0
    1.1307    5.5077    0.2113 H   0  0  0  0  0  0  0  0  0  0  0  0
    5.6317   -0.9818    0.3562 H   0  0  0  0  0  0  0  0  0  0  0  0
    4.7973   -1.7276    1.7587 H   0  0  0  0  0  0  0  0  0  0  0  0
    5.6809   -0.1972    1.9502 H   0  0  0  0  0  0  0  0  0  0  0  0
    2.9388    1.9424   -2.5712 H   0  0  0  0  0  0  0  0  0  0  0  0
    4.6733    2.2613   -2.3464 H   0  0  0  0  0  0  0  0  0  0  0  0
    3.6007    2.2337   -0.9295 H   0  0  0  0  0  0  0  0  0  0  0  0
  1  9  1  0  0  0  0
  1 18  1  0  0  0  0
  2 11  2  0  0  0  0
  3 20  1  0  0  0  0
  3 25  1  0  0  0  0
  4 22  1  0  0  0  0
  4 26  1  0  0  0  0
  5  7  1  0  0  0  0
  5  9  1  0  0  0  0
  5 11  1  0  0  0  0
  6  8  1  0  0  0  0
  6  9  2  0  0  0  0
  7  8  1  0  0  0  0
  7 10  2  0  0  0  0
  8 12  2  0  0  0  0
 10 13  1  0  0  0  0
 10 27  1  0  0  0  0
 11 15  1  0  0  0  0
 12 14  1  0  0  0  0
 12 28  1  0  0  0  0
 13 14  2  0  0  0  0
 13 29  1  0  0  0  0
 14 30  1  0  0  0  0
 15 17  2  0  0  0  0
 15 31  1  0  0  0  0
 16 17  1  0  0  0  0
 16 19  2  0  0  0  0
 16 21  1  0  0  0  0
 17 32  1  0  0  0  0
 18 24  1  0  0  0  0
 18 33  1  0  0  0  0
 18 34  1  0  0  0  0
 19 20  1  0  0  0  0
 19 35  1  0  0  0  0
 20 22  2  0  0  0  0
 21 23  2  0  0  0  0
 21 36  1  0  0  0  0
 22 23  1  0  0  0  0
 23 37  1  0  0  0  0
 24 38  1  0  0  0  0
 24 39  1  0  0  0  0
 24 40  1  0  0  0  0
 25 41  1  0  0  0  0
 25 42  1  0  0  0  0
 25 43  1  0  0  0  0
 26 44  1  0  0  0  0
 26 45  1  0  0  0  0
 26 46  1  0  0  0  0
M  END
> <PUBCHEM_COMPOUND_CID>
7285210

> <PUBCHEM_CONFORMER_RMSD>
0.8

> <PUBCHEM_CONFORMER_DIVERSEORDER>
1
69
125
67
14
137
68
129
21
23
57
72
124
82
37
76
65
15
95
62
141
91
79
89
25
77
58
18
122
3
74
133
128
85
4
28
107
22
66
42
134
55
17
9
98
35
24
54
81
16
111
131
118
33
94
8
139
32
47
60
87
36
7
136
39
101
71
45
63
12
140
29
123
20
110
34
93
46
138
31
113
11
105
83
41
130
119
51
50
92
84
135
27
26
38
56
117
108
127
43
19
102
13
78
64
30
5
142
106
115
100
103
132
96
90
6
112
48
109
114
49
61
44
52
40
126
2
97
86
59
53
99
73
116
10
80
75
121
104
70
88
120

> <PUBCHEM_MMFF94_PARTIAL_CHARGES>
34
1 -0.29
10 -0.15
11 0.56
12 -0.15
13 -0.15
14 -0.15
15 -0.14
16 0.03
17 -0.18
18 0.23
19 -0.15
2 -0.57
20 0.08
21 -0.15
22 0.08
23 -0.15
25 0.28
26 0.28
27 0.15
28 0.15
29 0.15
3 -0.36
30 0.15
31 0.15
32 0.15
35 0.15
36 0.15
37 0.15
4 -0.36
5 0.29
6 -0.57
7 -0.15
8 0.23
9 0.24

> <PUBCHEM_EFFECTIVE_ROTOR_COUNT>
7

> <PUBCHEM_PHARMACOPHORE_FEATURES>
7
1 2 acceptor
1 24 hydrophobe
1 3 acceptor
1 4 acceptor
5 5 6 7 8 9 rings
6 16 19 20 21 22 23 rings
6 7 8 10 12 13 14 rings

> <PUBCHEM_HEAVY_ATOM_COUNT>
26

> <PUBCHEM_ATOM_DEF_STEREO_COUNT>
0

> <PUBCHEM_ATOM_UDEF_STEREO_COUNT>
0

> <PUBCHEM_BOND_DEF_STEREO_COUNT>
1

> <PUBCHEM_BOND_UDEF_STEREO_COUNT>
0

> <PUBCHEM_ISOTOPIC_ATOM_COUNT>
0

> <PUBCHEM_COMPONENT_COUNT>
1

> <PUBCHEM_CACTVS_TAUTO_COUNT>
1

> <PUBCHEM_CONFORMER_ID>
006F29DA00000001

> <PUBCHEM_MMFF94_ENERGY>
100.6819

> <PUBCHEM_FEATURE_SELFOVERLAP>
35.63

> <PUBCHEM_SHAPE_FINGERPRINT>
10064457 181 8069726516847487044
10498660 4 18341338807423646694
11370993 70 17749112209592934519
11640471 11 17095818684194356590
11961588 58 17896319301522273566
12166972 35 17968089798793254830
12553582 1 18341629095731771113
12788726 201 18193574288980267472
13149001 5 18337673147621294251
13583140 156 16660944273419076472
14790565 3 17478889386354012561
15420108 30 16606305872849069170
15475509 8 17701264625534587757
15664445 248 18271799086835191897
17349148 13 18187931621133853450
17492 54 18338523052613210869
1813 80 14189575251847634563
192875 21 18187365372750686516
20715895 44 17679289785614044061
20775438 99 17627210588088028183
21033648 29 13407067094341228047
22182313 1 17830739012610367651
22950370 63 12319736981442832063
23557571 272 18058441006842636169
23559900 14 18336548209993497130
238 59 18198630032159065997
3298306 158 17907577282874211864
474 4 17458626649357026603
57724786 102 14779845809802983271
6328613 192 16515980207249915214
6669772 16 17975398419865306153
9981440 41 18041005080599564170

> <PUBCHEM_SHAPE_MULTIPOLES>
511.35
8.54
3.77
1.99
1.57
4.45
0.19
-0.85
3.81
-0.98
-0.86
-1.14
-0.29
-0.08

> <PUBCHEM_SHAPE_SELFOVERLAP>
1089.602

> <PUBCHEM_SHAPE_VOLUME>
287.7

> <PUBCHEM_COORDINATE_TYPE>
2
5
10

$$$$
