2087459
  -OEChem-01171809173D

 42 44  0     0  0  0  0  0  0999 V2000
    3.5957    1.8502    0.4202 S   0  0  0  0  0  0  0  0  0  0  0  0
    0.9081    3.0099    1.2634 S   0  0  0  0  0  0  0  0  0  0  0  0
   -2.3940   -0.2477    1.8447 S   0  0  0  0  0  0  0  0  0  0  0  0
    2.5885   -1.4626    0.5489 O   0  0  0  0  0  0  0  0  0  0  0  0
    3.7935   -3.1008   -0.5407 O   0  0  0  0  0  0  0  0  0  0  0  0
    0.3157   -0.7501    1.9214 O   0  0  0  0  0  0  0  0  0  0  0  0
    1.2510    1.6133   -0.8777 N   0  0  0  0  0  0  0  0  0  0  0  0
   -0.9653   -1.8100    0.2525 N   0  0  0  0  0  0  0  0  0  0  0  0
   -3.7526   -3.1276   -2.1307 N   0  0  0  0  0  0  0  0  0  0  0  0
    5.1260   -0.1269   -0.8336 C   0  0  0  0  0  0  0  0  0  0  0  0
    4.8936   -1.1077    0.3177 C   0  0  0  0  0  0  0  0  0  0  0  0
    3.9755    0.8552   -1.0523 C   0  0  0  0  0  0  0  0  0  0  0  0
    3.7253   -2.0293    0.0454 C   0  0  0  0  0  0  0  0  0  0  0  0
    1.8668    2.1095    0.1698 C   0  0  0  0  0  0  0  0  0  0  0  0
   -0.4722    2.7292    0.2689 C   0  0  0  0  0  0  0  0  0  0  0  0
   -0.0915    1.9603   -0.8350 C   0  0  0  0  0  0  0  0  0  0  0  0
    1.3868   -2.2159    0.3565 C   0  0  0  0  0  0  0  0  0  0  0  0
   -1.7965    3.1586    0.4524 C   0  0  0  0  0  0  0  0  0  0  0  0
   -1.0730    1.6100   -1.7875 C   0  0  0  0  0  0  0  0  0  0  0  0
   -2.7480    2.7982   -0.5049 C   0  0  0  0  0  0  0  0  0  0  0  0
   -2.3933    2.0340   -1.6110 C   0  0  0  0  0  0  0  0  0  0  0  0
    0.1927   -1.4933    0.9536 C   0  0  0  0  0  0  0  0  0  0  0  0
   -2.2481   -1.3278    0.5240 C   0  0  0  0  0  0  0  0  0  0  0  0
   -3.4598   -1.5632   -0.0876 C   0  0  0  0  0  0  0  0  0  0  0  0
   -4.5220   -0.8472    0.5362 C   0  0  0  0  0  0  0  0  0  0  0  0
   -4.0817   -0.0919    1.6008 C   0  0  0  0  0  0  0  0  0  0  0  0
   -3.6214   -2.4265   -1.2152 C   0  0  0  0  0  0  0  0  0  0  0  0
    5.2847   -0.6880   -1.7631 H   0  0  0  0  0  0  0  0  0  0  0  0
    6.0521    0.4296   -0.6437 H   0  0  0  0  0  0  0  0  0  0  0  0
    5.7797   -1.7441    0.4345 H   0  0  0  0  0  0  0  0  0  0  0  0
    4.7639   -0.6148    1.2865 H   0  0  0  0  0  0  0  0  0  0  0  0
    3.1084    0.2816   -1.3914 H   0  0  0  0  0  0  0  0  0  0  0  0
    4.2355    1.5431   -1.8643 H   0  0  0  0  0  0  0  0  0  0  0  0
    1.4757   -3.1861    0.8585 H   0  0  0  0  0  0  0  0  0  0  0  0
    1.2373   -2.3683   -0.7185 H   0  0  0  0  0  0  0  0  0  0  0  0
   -2.0811    3.7542    1.3143 H   0  0  0  0  0  0  0  0  0  0  0  0
   -0.8072    1.0113   -2.6540 H   0  0  0  0  0  0  0  0  0  0  0  0
   -3.7792    3.1183   -0.3807 H   0  0  0  0  0  0  0  0  0  0  0  0
   -3.1476    1.7608   -2.3438 H   0  0  0  0  0  0  0  0  0  0  0  0
   -0.9046   -2.4541   -0.5321 H   0  0  0  0  0  0  0  0  0  0  0  0
   -5.5590   -0.8781    0.2256 H   0  0  0  0  0  0  0  0  0  0  0  0
   -4.6699    0.5450    2.2462 H   0  0  0  0  0  0  0  0  0  0  0  0
  1 12  1  0  0  0  0
  1 14  1  0  0  0  0
  2 14  1  0  0  0  0
  2 15  1  0  0  0  0
  3 23  1  0  0  0  0
  3 26  1  0  0  0  0
  4 13  1  0  0  0  0
  4 17  1  0  0  0  0
  5 13  2  0  0  0  0
  6 22  2  0  0  0  0
  7 14  2  0  0  0  0
  7 16  1  0  0  0  0
  8 22  1  0  0  0  0
  8 23  1  0  0  0  0
  8 40  1  0  0  0  0
  9 27  3  0  0  0  0
 10 11  1  0  0  0  0
 10 12  1  0  0  0  0
 10 28  1  0  0  0  0
 10 29  1  0  0  0  0
 11 13  1  0  0  0  0
 11 30  1  0  0  0  0
 11 31  1  0  0  0  0
 12 32  1  0  0  0  0
 12 33  1  0  0  0  0
 15 16  1  0  0  0  0
 15 18  2  0  0  0  0
 16 19  2  0  0  0  0
 17 22  1  0  0  0  0
 17 34  1  0  0  0  0
 17 35  1  0  0  0  0
 18 20  1  0  0  0  0
 18 36  1  0  0  0  0
 19 21  1  0  0  0  0
 19 37  1  0  0  0  0
 20 21  2  0  0  0  0
 20 38  1  0  0  0  0
 21 39  1  0  0  0  0
 23 24  2  0  0  0  0
 24 25  1  0  0  0  0
 24 27  1  0  0  0  0
 25 26  2  0  0  0  0
 25 41  1  0  0  0  0
 26 42  1  0  0  0  0
M  END
> <PUBCHEM_COMPOUND_CID>
2087459

> <PUBCHEM_CONFORMER_RMSD>
1.6

> <PUBCHEM_CONFORMER_DIVERSEORDER>
1
15
48
56
2
16
6
36
25
52
68
71
22
73
54
44
5
39
14
45
41
31
65
20
38
9
12
55
62
43
8
19
27
66
3
4
37
34
63
57
10
13
50
67
72
51
18
23
32
40
17
21
33
64
26
42
60
29
58
11
61
69
49
30
70
28
7
53
74
24
59
47
46
35

> <PUBCHEM_MMFF94_PARTIAL_CHARGES>
33
1 -0.29
11 0.06
12 0.23
13 0.66
14 0.43
15 0.04
16 0.23
17 0.34
18 -0.15
19 -0.15
2 -0.08
20 -0.15
21 -0.15
22 0.57
23 0.1
24 0.02
25 -0.15
26 -0.11
27 0.54
3 -0.08
36 0.15
37 0.15
38 0.15
39 0.15
4 -0.43
40 0.37
41 0.15
42 0.15
5 -0.57
6 -0.57
7 -0.57
8 -0.49
9 -0.56

> <PUBCHEM_EFFECTIVE_ROTOR_COUNT>
10

> <PUBCHEM_PHARMACOPHORE_FEATURES>
9
1 5 acceptor
1 6 acceptor
1 7 acceptor
1 8 donor
1 9 acceptor
4 1 10 11 12 hydrophobe
5 2 7 14 15 16 rings
5 3 23 24 25 26 rings
6 15 16 18 19 20 21 rings

> <PUBCHEM_HEAVY_ATOM_COUNT>
27

> <PUBCHEM_ATOM_DEF_STEREO_COUNT>
0

> <PUBCHEM_ATOM_UDEF_STEREO_COUNT>
0

> <PUBCHEM_BOND_DEF_STEREO_COUNT>
0

> <PUBCHEM_BOND_UDEF_STEREO_COUNT>
0

> <PUBCHEM_ISOTOPIC_ATOM_COUNT>
0

> <PUBCHEM_COMPONENT_COUNT>
1

> <PUBCHEM_CACTVS_TAUTO_COUNT>
3

> <PUBCHEM_CONFORMER_ID>
001FDA2300000001

> <PUBCHEM_MMFF94_ENERGY>
41.3166

> <PUBCHEM_FEATURE_SELFOVERLAP>
45.743

> <PUBCHEM_SHAPE_FINGERPRINT>
104564 63 18259705614122994793
1100329 8 18048316639460692384
11578080 2 17916845989585875384
12422481 6 17974039204904035977
12596599 1 17917168176662910095
12633257 1 17773621436452399881
13583140 156 14836135342157274542
14251751 93 17968662601222590992
14790565 3 17545322982014455432
17357779 13 18114180864761013529
17492 54 17536580821576331613
20764821 26 18336815408287133394
20905425 154 18408888446779680757
23566358 2 18335423422424460404
3014063 31 18409168835382866536
3052486 1 18042112190414318288
338550 245 18114476577702536436
463206 1 18266462198706031159
57527358 35 16054098573222451808

> <PUBCHEM_SHAPE_MULTIPOLES>
534.64
9.13
4.44
1.68
5.14
0.73
-0.15
-5.53
-1.18
-0.68
-0.75
-1.42
-0.06
-0.39

> <PUBCHEM_SHAPE_SELFOVERLAP>
1098.352

> <PUBCHEM_SHAPE_VOLUME>
306.5

> <PUBCHEM_COORDINATE_TYPE>
2
5
10

$$$$
