341502
  -OEChem-01171810153D

 37 40  0     1  0  0  0  0  0999 V2000
    0.8838    0.2257    2.2727 O   0  0  0  0  0  0  0  0  0  0  0  0
    2.9015    2.6215   -0.0357 O   0  0  0  0  0  0  0  0  0  0  0  0
    1.7855   -2.8709   -0.3371 O   0  0  0  0  0  0  0  0  0  0  0  0
    3.1007    1.0085   -1.6844 O   0  0  0  0  0  0  0  0  0  0  0  0
    3.6816   -1.5768   -0.6360 O   0  0  0  0  0  0  0  0  0  0  0  0
    0.7744    1.2200    1.1908 C   0  0  2  0  0  0  0  0  0  0  0  0
    0.6780   -0.9769    1.4465 C   0  0  1  0  0  0  0  0  0  0  0  0
   -0.6086    0.8248    0.7553 C   0  0  0  0  0  0  0  0  0  0  0  0
   -0.6700   -0.5739    0.9181 C   0  0  0  0  0  0  0  0  0  0  0  0
    1.8047    0.6292    0.2636 C   0  0  0  0  0  0  0  0  0  0  0  0
    1.7464   -0.7056    0.4193 C   0  0  0  0  0  0  0  0  0  0  0  0
   -1.6651    1.5407    0.2425 C   0  0  0  0  0  0  0  0  0  0  0  0
   -1.7896   -1.2941    0.5723 C   0  0  0  0  0  0  0  0  0  0  0  0
   -2.8287    0.8334   -0.1087 C   0  0  0  0  0  0  0  0  0  0  0  0
   -2.8911   -0.5881    0.0565 C   0  0  0  0  0  0  0  0  0  0  0  0
    2.6657    1.4070   -0.6055 C   0  0  0  0  0  0  0  0  0  0  0  0
    2.5287   -1.7337   -0.2388 C   0  0  0  0  0  0  0  0  0  0  0  0
   -3.9425    1.5082   -0.6300 C   0  0  0  0  0  0  0  0  0  0  0  0
   -4.0642   -1.2652   -0.3077 C   0  0  0  0  0  0  0  0  0  0  0  0
   -5.0984    0.8112   -0.9832 C   0  0  0  0  0  0  0  0  0  0  0  0
   -5.1591   -0.5701   -0.8227 C   0  0  0  0  0  0  0  0  0  0  0  0
    3.7411    3.5105   -0.7797 C   0  0  0  0  0  0  0  0  0  0  0  0
    2.4251   -3.9851   -0.9681 C   0  0  0  0  0  0  0  0  0  0  0  0
    0.9152    2.2228    1.5935 H   0  0  0  0  0  0  0  0  0  0  0  0
    0.7447   -1.8718    2.0653 H   0  0  0  0  0  0  0  0  0  0  0  0
   -1.5913    2.6160    0.1146 H   0  0  0  0  0  0  0  0  0  0  0  0
   -1.8101   -2.3724    0.6946 H   0  0  0  0  0  0  0  0  0  0  0  0
   -3.9217    2.5876   -0.7669 H   0  0  0  0  0  0  0  0  0  0  0  0
   -4.1384   -2.3449   -0.1937 H   0  0  0  0  0  0  0  0  0  0  0  0
   -5.9527    1.3483   -1.3852 H   0  0  0  0  0  0  0  0  0  0  0  0
   -6.0608   -1.1090   -1.0996 H   0  0  0  0  0  0  0  0  0  0  0  0
    3.8448    4.4376   -0.2097 H   0  0  0  0  0  0  0  0  0  0  0  0
    3.2841    3.7407   -1.7467 H   0  0  0  0  0  0  0  0  0  0  0  0
    4.7324    3.0682   -0.9163 H   0  0  0  0  0  0  0  0  0  0  0  0
    2.6904   -3.7339   -1.9994 H   0  0  0  0  0  0  0  0  0  0  0  0
    1.7201   -4.8205   -0.9796 H   0  0  0  0  0  0  0  0  0  0  0  0
    3.3132   -4.2812   -0.4018 H   0  0  0  0  0  0  0  0  0  0  0  0
  1  6  1  0  0  0  0
  1  7  1  0  0  0  0
  2 16  1  0  0  0  0
  2 22  1  0  0  0  0
  3 17  1  0  0  0  0
  3 23  1  0  0  0  0
  4 16  2  0  0  0  0
  5 17  2  0  0  0  0
  6  8  1  0  0  0  0
  6 10  1  0  0  0  0
  6 24  1  0  0  0  0
  7  9  1  0  0  0  0
  7 11  1  0  0  0  0
  7 25  1  0  0  0  0
  8  9  1  0  0  0  0
  8 12  2  0  0  0  0
  9 13  2  0  0  0  0
 10 11  2  0  0  0  0
 10 16  1  0  0  0  0
 11 17  1  0  0  0  0
 12 14  1  0  0  0  0
 12 26  1  0  0  0  0
 13 15  1  0  0  0  0
 13 27  1  0  0  0  0
 14 15  1  0  0  0  0
 14 18  2  0  0  0  0
 15 19  2  0  0  0  0
 18 20  1  0  0  0  0
 18 28  1  0  0  0  0
 19 21  1  0  0  0  0
 19 29  1  0  0  0  0
 20 21  2  0  0  0  0
 20 30  1  0  0  0  0
 21 31  1  0  0  0  0
 22 32  1  0  0  0  0
 22 33  1  0  0  0  0
 22 34  1  0  0  0  0
 23 35  1  0  0  0  0
 23 36  1  0  0  0  0
 23 37  1  0  0  0  0
M  END
> <PUBCHEM_COMPOUND_CID>
341502

> <PUBCHEM_CONFORMER_RMSD>
0.8

> <PUBCHEM_CONFORMER_DIVERSEORDER>
1
2
5
4
3

> <PUBCHEM_MMFF94_PARTIAL_CHARGES>
27
1 -0.56
10 -0.12
11 -0.12
12 -0.15
13 -0.15
16 0.71
17 0.71
18 -0.15
19 -0.15
2 -0.43
20 -0.15
21 -0.15
22 0.28
23 0.28
26 0.15
27 0.15
28 0.15
29 0.15
3 -0.43
30 0.15
31 0.15
4 -0.57
5 -0.57
6 0.56
7 0.56
8 -0.14
9 -0.14

> <PUBCHEM_EFFECTIVE_ROTOR_COUNT>
4.2

> <PUBCHEM_PHARMACOPHORE_FEATURES>
6
1 1 acceptor
1 4 acceptor
1 5 acceptor
6 14 15 18 19 20 21 rings
6 8 9 12 13 14 15 rings
7 1 6 7 8 9 10 11 rings

> <PUBCHEM_HEAVY_ATOM_COUNT>
23

> <PUBCHEM_ATOM_DEF_STEREO_COUNT>
0

> <PUBCHEM_ATOM_UDEF_STEREO_COUNT>
2

> <PUBCHEM_BOND_DEF_STEREO_COUNT>
0

> <PUBCHEM_BOND_UDEF_STEREO_COUNT>
0

> <PUBCHEM_ISOTOPIC_ATOM_COUNT>
0

> <PUBCHEM_COMPONENT_COUNT>
1

> <PUBCHEM_CACTVS_TAUTO_COUNT>
1

> <PUBCHEM_CONFORMER_ID>
000535FE00000001

> <PUBCHEM_MMFF94_ENERGY>
98.5914

> <PUBCHEM_FEATURE_SELFOVERLAP>
30.501

> <PUBCHEM_SHAPE_FINGERPRINT>
10498660 4 17967521381721200829
10756046 5 18337394833656182149
11370993 70 18337111292884455484
11796584 16 15768911590086182445
12670546 177 18334292059303406175
12714826 92 12750148457577905544
12730499 353 18337680840013190443
12788726 201 17203064988765464153
12892183 10 9943509839658120173
13150687 139 18265897054757545212
14250199 8 18336270054688298513
15163728 17 16661795317173406478
15502722 9 18411141346205103558
16945 1 18339657641586910056
17980427 23 17974249318787860368
17980427 26 17097470228712070834
18186145 218 17676764293335711489
18681886 176 18341043091105697714
20600515 1 17615936964560642928
20645477 70 18410288112555783147
21033648 29 13985756599373617365
21452121 199 18198049296946447842
21756936 100 8211556890277022998
22149856 69 18341901835831549211
22182313 1 17823439234100447722
22393880 68 18340779242263274550
23114952 82 18335701611360903517
23559900 14 18341321219522013515
238 59 18338531814768552622
2748010 2 17328019279561091033
4017518 198 18201446930891916134
4280585 95 18051131389697804038
4371632 12 14183950404143656680
46194498 28 18335699412648884751
463206 1 17917418796927655767
474 4 16877942793029080677
5281201 14 18335981965810014439
633830 44 18188198815902986895
6669772 16 17344893330395088536
7364860 26 18411416207138121192
960060 61 18272641355933990565
9709674 26 18409167688753588851
9981440 41 17971473159449763968

> <PUBCHEM_SHAPE_MULTIPOLES>
443.98
8.63
3.42
1.33
8.57
1.15
0.33
-1.64
-4.35
-5.18
-1.4
-0.51
-0.03
0.14

> <PUBCHEM_SHAPE_SELFOVERLAP>
1004.214

> <PUBCHEM_SHAPE_VOLUME>
238.6

> <PUBCHEM_COORDINATE_TYPE>
2
5
10

$$$$
