638439
  -OEChem-01171809273D

 23 23  0     0  0  0  0  0  0999 V2000
   -2.6301    1.6245    0.5451 O   0  0  0  0  0  0  0  0  0  0  0  0
   -3.9452   -0.7472   -0.0638 O   0  0  0  0  0  0  0  0  0  0  0  0
    4.5290    1.2990   -0.2847 O   0  5  0  0  0  0  0  0  0  0  0  0
    4.2370   -0.8085    0.2842 O   0  0  0  0  0  0  0  0  0  0  0  0
    3.8177    0.3118   -0.0439 N   0  3  0  0  0  0  0  0  0  0  0  0
    0.2030   -0.6366    0.0715 C   0  0  0  0  0  0  0  0  0  0  0  0
   -1.9244    0.4877    0.2888 C   0  0  0  0  0  0  0  0  0  0  0  0
   -0.5305    0.5208    0.3327 C   0  0  0  0  0  0  0  0  0  0  0  0
   -2.5845   -0.7027   -0.0163 C   0  0  0  0  0  0  0  0  0  0  0  0
   -0.4572   -1.8269   -0.2335 C   0  0  0  0  0  0  0  0  0  0  0  0
   -1.8510   -1.8600   -0.2774 C   0  0  0  0  0  0  0  0  0  0  0  0
    1.6563   -0.6028    0.1181 C   0  0  0  0  0  0  0  0  0  0  0  0
    2.4130    0.4771   -0.1533 C   0  0  0  0  0  0  0  0  0  0  0  0
   -2.9332    2.4637   -0.5675 C   0  0  0  0  0  0  0  0  0  0  0  0
   -0.0419    1.4585    0.5870 H   0  0  0  0  0  0  0  0  0  0  0  0
    0.0978   -2.7385   -0.4417 H   0  0  0  0  0  0  0  0  0  0  0  0
   -2.3526   -2.7937   -0.5171 H   0  0  0  0  0  0  0  0  0  0  0  0
    2.0917   -1.5632    0.3867 H   0  0  0  0  0  0  0  0  0  0  0  0
    2.1028    1.4694   -0.4447 H   0  0  0  0  0  0  0  0  0  0  0  0
   -3.5404    1.9258   -1.3024 H   0  0  0  0  0  0  0  0  0  0  0  0
   -2.0127    2.8281   -1.0347 H   0  0  0  0  0  0  0  0  0  0  0  0
   -3.5042    3.3223   -0.2035 H   0  0  0  0  0  0  0  0  0  0  0  0
   -4.2249   -1.6507   -0.2907 H   0  0  0  0  0  0  0  0  0  0  0  0
  1  7  1  0  0  0  0
  1 14  1  0  0  0  0
  2  9  1  0  0  0  0
  2 23  1  0  0  0  0
  3  5  1  0  0  0  0
  4  5  2  0  0  0  0
  5 13  1  0  0  0  0
  6  8  2  0  0  0  0
  6 10  1  0  0  0  0
  6 12  1  0  0  0  0
  7  8  1  0  0  0  0
  7  9  2  0  0  0  0
  8 15  1  0  0  0  0
  9 11  1  0  0  0  0
 10 11  2  0  0  0  0
 10 16  1  0  0  0  0
 11 17  1  0  0  0  0
 12 13  2  0  0  0  0
 12 18  1  0  0  0  0
 13 19  1  0  0  0  0
 14 20  1  0  0  0  0
 14 21  1  0  0  0  0
 14 22  1  0  0  0  0
M  CHG  2   3  -1   5   1
M  END
> <PUBCHEM_COMPOUND_CID>
638439

> <PUBCHEM_CONFORMER_RMSD>
0.6

> <PUBCHEM_CONFORMER_DIVERSEORDER>
4
2
3
1

> <PUBCHEM_MMFF94_PARTIAL_CHARGES>
20
1 -0.36
10 -0.15
11 -0.15
12 -0.18
13 0.05
14 0.28
15 0.15
16 0.15
17 0.15
18 0.15
19 0.15
2 -0.53
23 0.45
3 -0.52
4 -0.52
5 0.84
6 0.03
7 0.08
8 -0.15
9 0.08

> <PUBCHEM_EFFECTIVE_ROTOR_COUNT>
3

> <PUBCHEM_PHARMACOPHORE_FEATURES>
6
1 1 acceptor
1 2 donor
1 3 acceptor
1 3 anion
1 4 acceptor
6 6 7 8 9 10 11 rings

> <PUBCHEM_HEAVY_ATOM_COUNT>
14

> <PUBCHEM_ATOM_DEF_STEREO_COUNT>
0

> <PUBCHEM_ATOM_UDEF_STEREO_COUNT>
0

> <PUBCHEM_BOND_DEF_STEREO_COUNT>
1

> <PUBCHEM_BOND_UDEF_STEREO_COUNT>
0

> <PUBCHEM_ISOTOPIC_ATOM_COUNT>
0

> <PUBCHEM_COMPONENT_COUNT>
1

> <PUBCHEM_CACTVS_TAUTO_COUNT>
6

> <PUBCHEM_CONFORMER_ID>
0009BDE700000004

> <PUBCHEM_MMFF94_ENERGY>
50.1585

> <PUBCHEM_FEATURE_SELFOVERLAP>
30.525

> <PUBCHEM_SHAPE_FINGERPRINT>
10608611 8 18342455958899013944
12932764 1 17417804080483073338
13024252 1 11602811415747256795
14144814 61 18409167723134036506
14325111 11 18411702067265716034
14614273 12 18410857616776692567
14897335 6 18339357440320777287
15042514 8 18268151040298614103
15219456 202 17988652834874828134
15442244 35 18336826399498866322
15669948 3 18271238430310027582
15775835 57 18335704896974007080
16945 1 18341319081098103667
1741750 31 18270683039377585185
17802600 8 18341045306633757872
17834072 32 18336828576473006613
18186145 218 18058179336260814038
20510252 161 18272093785804924873
20645477 56 18341899592845601280
20645477 70 16916801656322332238
21524375 3 18339077077888282875
2306618 200 18202291298747678883
23402539 116 18342450482984685855
23557571 272 18202014239155902516
23559900 14 18059575733893968738
2748010 2 18197509419863275919
305870 269 18188772721448049067
3071541 12 17693382135747128871
4175511 318 17917710227194569694
474 4 17387136584134977724
559249 180 18265609897581448898
573450 72 18335969914179430242
6333449 129 18342174445140971017
6430166 295 18337668608020145248

> <PUBCHEM_SHAPE_MULTIPOLES>
259.66
7.39
2.08
0.66
7.73
0.55
-0.01
2.29
-0.3
-1.82
-0.31
-0.14
0.07
-0.14

> <PUBCHEM_SHAPE_SELFOVERLAP>
541.176

> <PUBCHEM_SHAPE_VOLUME>
148.4

> <PUBCHEM_COORDINATE_TYPE>
2
5
10

$$$$
