12005637
  -OEChem-01171809343D

 53 54  0     1  0  0  0  0  0999 V2000
    5.2562    0.4519   -0.5648 Cl  0  0  0  0  0  0  0  0  0  0  0  0
   -0.6919   -1.0843   -1.7873 S   0  0  0  0  0  0  0  0  0  0  0  0
   -2.2093   -1.5824    1.3513 O   0  0  0  0  0  0  0  0  0  0  0  0
   -0.9287   -0.7697   -3.1842 O   0  0  0  0  0  0  0  0  0  0  0  0
   -0.9041   -2.4402   -1.3153 O   0  0  0  0  0  0  0  0  0  0  0  0
   -3.5865   -2.6561   -0.1476 O   0  0  0  0  0  0  0  0  0  0  0  0
    2.9869   -2.5067    1.6060 O   0  5  0  0  0  0  0  0  0  0  0  0
    4.8111   -1.3493    1.2165 O   0  0  0  0  0  0  0  0  0  0  0  0
   -1.5749    0.0127   -0.7935 N   0  0  2  0  0  0  0  0  0  0  0  0
    3.6209   -1.6426    0.9568 N   0  3  0  0  0  0  0  0  0  0  0  0
   -2.9934   -0.3157   -0.4908 C   0  0  0  0  0  0  0  0  0  0  0  0
   -1.3793    1.4667   -1.0188 C   0  0  0  0  0  0  0  0  0  0  0  0
   -3.5544    0.7840    0.4078 C   0  0  0  0  0  0  0  0  0  0  0  0
   -3.7522   -0.4066   -1.8129 C   0  0  0  0  0  0  0  0  0  0  0  0
   -2.9855   -1.6570    0.2285 C   0  0  0  0  0  0  0  0  0  0  0  0
   -0.8101    2.1584    0.1880 C   0  0  0  0  0  0  0  0  0  0  0  0
    0.9905   -0.6612   -1.4310 C   0  0  0  0  0  0  0  0  0  0  0  0
   -0.5568    3.5250    0.1670 C   0  0  0  0  0  0  0  0  0  0  0  0
   -0.5416    1.4047    1.3249 C   0  0  0  0  0  0  0  0  0  0  0  0
    1.6413   -1.3052   -0.3950 C   0  0  0  0  0  0  0  0  0  0  0  0
    1.6166    0.3051   -2.1959 C   0  0  0  0  0  0  0  0  0  0  0  0
   -0.0282    4.1465    1.2984 C   0  0  0  0  0  0  0  0  0  0  0  0
   -0.8387    4.3482   -1.0471 C   0  0  0  0  0  0  0  0  0  0  0  0
   -0.0132    2.0262    2.4563 C   0  0  0  0  0  0  0  0  0  0  0  0
    2.9661   -0.9708   -0.1139 C   0  0  0  0  0  0  0  0  0  0  0  0
   -2.1156   -2.7851    2.1214 C   0  0  0  0  0  0  0  0  0  0  0  0
    2.9415    0.6394   -1.9150 C   0  0  0  0  0  0  0  0  0  0  0  0
    0.2436    3.3969    2.4430 C   0  0  0  0  0  0  0  0  0  0  0  0
    3.6162    0.0016   -0.8740 C   0  0  0  0  0  0  0  0  0  0  0  0
   -1.2266   -2.5346    3.3209 C   0  0  0  0  0  0  0  0  0  0  0  0
   -0.6632    1.6060   -1.8331 H   0  0  0  0  0  0  0  0  0  0  0  0
   -2.2736    1.9672   -1.3977 H   0  0  0  0  0  0  0  0  0  0  0  0
   -3.0234    0.9050    1.3538 H   0  0  0  0  0  0  0  0  0  0  0  0
   -4.5665    0.4822    0.7156 H   0  0  0  0  0  0  0  0  0  0  0  0
   -3.7029    1.7596   -0.0615 H   0  0  0  0  0  0  0  0  0  0  0  0
   -4.8262   -0.5277   -1.6250 H   0  0  0  0  0  0  0  0  0  0  0  0
   -3.6315    0.4879   -2.4326 H   0  0  0  0  0  0  0  0  0  0  0  0
   -3.4527   -1.2706   -2.4158 H   0  0  0  0  0  0  0  0  0  0  0  0
   -0.6776    0.3336    1.3842 H   0  0  0  0  0  0  0  0  0  0  0  0
    1.1107   -2.0506    0.1903 H   0  0  0  0  0  0  0  0  0  0  0  0
    1.1166    0.8072   -3.0179 H   0  0  0  0  0  0  0  0  0  0  0  0
    0.1785    5.2134    1.3052 H   0  0  0  0  0  0  0  0  0  0  0  0
   -1.9075    4.3332   -1.2833 H   0  0  0  0  0  0  0  0  0  0  0  0
   -0.5550    5.3962   -0.9004 H   0  0  0  0  0  0  0  0  0  0  0  0
   -0.2690    3.9795   -1.9062 H   0  0  0  0  0  0  0  0  0  0  0  0
    0.2081    1.4410    3.3443 H   0  0  0  0  0  0  0  0  0  0  0  0
   -3.1152   -3.0823    2.4570 H   0  0  0  0  0  0  0  0  0  0  0  0
   -1.6867   -3.5816    1.5033 H   0  0  0  0  0  0  0  0  0  0  0  0
    3.4339    1.3980   -2.5182 H   0  0  0  0  0  0  0  0  0  0  0  0
    0.6575    3.8801    3.3232 H   0  0  0  0  0  0  0  0  0  0  0  0
   -1.6314   -1.7258    3.9381 H   0  0  0  0  0  0  0  0  0  0  0  0
   -0.2282   -2.2191    2.9999 H   0  0  0  0  0  0  0  0  0  0  0  0
   -1.1330   -3.4352    3.9340 H   0  0  0  0  0  0  0  0  0  0  0  0
  1 29  1  0  0  0  0
  2  4  2  0  0  0  0
  2  5  2  0  0  0  0
  2  9  1  0  0  0  0
  2 17  1  0  0  0  0
  3 15  1  0  0  0  0
  3 26  1  0  0  0  0
  6 15  2  0  0  0  0
  7 10  1  0  0  0  0
  8 10  2  0  0  0  0
  9 11  1  0  0  0  0
  9 12  1  0  0  0  0
 10 25  1  0  0  0  0
 11 13  1  0  0  0  0
 11 14  1  0  0  0  0
 11 15  1  0  0  0  0
 12 16  1  0  0  0  0
 12 31  1  0  0  0  0
 12 32  1  0  0  0  0
 13 33  1  0  0  0  0
 13 34  1  0  0  0  0
 13 35  1  0  0  0  0
 14 36  1  0  0  0  0
 14 37  1  0  0  0  0
 14 38  1  0  0  0  0
 16 18  1  0  0  0  0
 16 19  2  0  0  0  0
 17 20  2  0  0  0  0
 17 21  1  0  0  0  0
 18 22  2  0  0  0  0
 18 23  1  0  0  0  0
 19 24  1  0  0  0  0
 19 39  1  0  0  0  0
 20 25  1  0  0  0  0
 20 40  1  0  0  0  0
 21 27  2  0  0  0  0
 21 41  1  0  0  0  0
 22 28  1  0  0  0  0
 22 42  1  0  0  0  0
 23 43  1  0  0  0  0
 23 44  1  0  0  0  0
 23 45  1  0  0  0  0
 24 28  2  0  0  0  0
 24 46  1  0  0  0  0
 25 29  2  0  0  0  0
 26 30  1  0  0  0  0
 26 47  1  0  0  0  0
 26 48  1  0  0  0  0
 27 29  1  0  0  0  0
 27 49  1  0  0  0  0
 28 50  1  0  0  0  0
 30 51  1  0  0  0  0
 30 52  1  0  0  0  0
 30 53  1  0  0  0  0
M  CHG  2   7  -1  10   1
M  END
> <PUBCHEM_COMPOUND_CID>
12005637

> <PUBCHEM_CONFORMER_RMSD>
1

> <PUBCHEM_CONFORMER_DIVERSEORDER>
1
58
45
26
75
19
57
74
40
53
64
20
48
67
70
8
37
72
61
16
32
56
62
73
63
49
17
27
44
69
25
65
14
54
6
29
33
42
60
35
59
66
11
23
24
22
51
34
47
41
52
43
12
18
71
50
46
31
15
36
7
39
55
38
21
30
2
68
3
5
4
10
76
13
9
28

> <PUBCHEM_MMFF94_PARTIAL_CHARGES>
34
1 -0.18
10 0.91
11 0.42
12 0.5
15 0.66
16 -0.14
17 -0.01
18 -0.14
19 -0.15
2 1.45
20 -0.15
21 -0.15
22 -0.15
23 0.14
24 -0.15
25 0.13
26 0.28
27 -0.15
28 -0.15
29 0.18
3 -0.43
39 0.15
4 -0.65
40 0.15
41 0.15
42 0.15
46 0.15
49 0.15
5 -0.65
50 0.15
6 -0.57
7 -0.52
8 -0.52
9 -0.85

> <PUBCHEM_EFFECTIVE_ROTOR_COUNT>
9

> <PUBCHEM_PHARMACOPHORE_FEATURES>
9
1 4 acceptor
1 5 acceptor
1 6 acceptor
1 7 acceptor
1 7 anion
1 8 acceptor
3 11 13 14 hydrophobe
6 16 18 19 22 24 28 rings
6 17 20 21 25 27 29 rings

> <PUBCHEM_HEAVY_ATOM_COUNT>
30

> <PUBCHEM_ATOM_DEF_STEREO_COUNT>
0

> <PUBCHEM_ATOM_UDEF_STEREO_COUNT>
0

> <PUBCHEM_BOND_DEF_STEREO_COUNT>
0

> <PUBCHEM_BOND_UDEF_STEREO_COUNT>
0

> <PUBCHEM_ISOTOPIC_ATOM_COUNT>
0

> <PUBCHEM_COMPONENT_COUNT>
1

> <PUBCHEM_CACTVS_TAUTO_COUNT>
1

> <PUBCHEM_CONFORMER_ID>
00B7310500000001

> <PUBCHEM_MMFF94_ENERGY>
96.2246

> <PUBCHEM_FEATURE_SELFOVERLAP>
45.775

> <PUBCHEM_SHAPE_FINGERPRINT>
10708813 3 17322948949987397298
11244481 83 18120085345466184337
11578080 2 17973132270703217661
12156800 1 16473673064937703901
12160290 23 18054247439540862549
12539773 59 17184419315345922674
12788726 201 18338808792492699561
133893 2 17625238081396636541
14713325 29 17409984246485768380
14955137 171 17270635629888667581
20600515 1 17703515501032998998
21033648 29 16486982782231192835
22956985 138 17833535074774601314
23419403 2 17905064885908571577
23558518 356 17264700114309459157
23559900 14 17389943693028618767
3493558 16 15973254377818883195
35225 105 17693694461136115786
392239 28 18337115691363801608
4616759 239 18188190045859766754
469060 322 17917994979384554506
56638632 33 17968359226428768826
57527306 92 17263905497667003948
5845 1 8318991287653730669
81228 2 17911269155325883837
9981440 41 16911412786161620382

> <PUBCHEM_SHAPE_MULTIPOLES>
577.93
6.68
4.69
2.95
6.69
5.04
0.94
-4.53
-0.41
-1.8
2.72
-0.62
-0.83
-0.03

> <PUBCHEM_SHAPE_SELFOVERLAP>
1200.121

> <PUBCHEM_SHAPE_VOLUME>
332.3

> <PUBCHEM_COORDINATE_TYPE>
2
5
10

$$$$
