2404972
  -OEChem-01171809383D

 30 30  0     0  0  0  0  0  0999 V2000
   -4.8505    1.1364    0.3885 Cl  0  0  0  0  0  0  0  0  0  0  0  0
    3.8907   -0.2688   -1.1582 S   0  0  0  0  0  0  0  0  0  0  0  0
   -2.9751   -0.9526   -1.3879 O   0  0  0  0  0  0  0  0  0  0  0  0
   -1.8282   -0.2972    0.5591 N   0  0  0  0  0  0  0  0  0  0  0  0
    4.9970    0.5618    1.3371 N   0  0  0  0  0  0  0  0  0  0  0  0
    0.0730    0.8682   -0.3803 C   0  0  0  0  0  0  0  0  0  0  0  0
   -0.4877   -0.2900    0.1582 C   0  0  0  0  0  0  0  0  0  0  0  0
   -0.7324    2.1170   -0.5407 C   0  0  0  0  0  0  0  0  0  0  0  0
    0.2874   -1.4414    0.2957 C   0  0  0  0  0  0  0  0  0  0  0  0
    1.4090    0.8750   -0.7812 C   0  0  0  0  0  0  0  0  0  0  0  0
    1.6234   -1.4346   -0.1050 C   0  0  0  0  0  0  0  0  0  0  0  0
    2.1843   -0.2765   -0.6435 C   0  0  0  0  0  0  0  0  0  0  0  0
   -0.2860   -2.6973    0.8676 C   0  0  0  0  0  0  0  0  0  0  0  0
   -0.6577    3.0144    0.6904 C   0  0  0  0  0  0  0  0  0  0  0  0
   -2.9542   -0.6246   -0.2044 C   0  0  0  0  0  0  0  0  0  0  0  0
   -4.2391   -0.5140    0.5819 C   0  0  0  0  0  0  0  0  0  0  0  0
    4.5460    0.2242    0.3229 C   0  0  0  0  0  0  0  0  0  0  0  0
   -0.3663    2.6793   -1.4098 H   0  0  0  0  0  0  0  0  0  0  0  0
   -1.7783    1.8948   -0.7767 H   0  0  0  0  0  0  0  0  0  0  0  0
    1.8432    1.7809   -1.1993 H   0  0  0  0  0  0  0  0  0  0  0  0
    2.2262   -2.3341    0.0013 H   0  0  0  0  0  0  0  0  0  0  0  0
   -1.9832    0.0217    1.5128 H   0  0  0  0  0  0  0  0  0  0  0  0
   -1.0596   -3.0995    0.2052 H   0  0  0  0  0  0  0  0  0  0  0  0
    0.4763   -3.4742    0.9929 H   0  0  0  0  0  0  0  0  0  0  0  0
   -0.7177   -2.5092    1.8563 H   0  0  0  0  0  0  0  0  0  0  0  0
   -1.0541    2.5078    1.5766 H   0  0  0  0  0  0  0  0  0  0  0  0
   -1.2441    3.9247    0.5297 H   0  0  0  0  0  0  0  0  0  0  0  0
    0.3751    3.3094    0.9050 H   0  0  0  0  0  0  0  0  0  0  0  0
   -4.0816   -0.7154    1.6449 H   0  0  0  0  0  0  0  0  0  0  0  0
   -4.9770   -1.2194    0.1900 H   0  0  0  0  0  0  0  0  0  0  0  0
  1 16  1  0  0  0  0
  2 12  1  0  0  0  0
  2 17  1  0  0  0  0
  3 15  2  0  0  0  0
  4  7  1  0  0  0  0
  4 15  1  0  0  0  0
  4 22  1  0  0  0  0
  5 17  3  0  0  0  0
  6  7  2  0  0  0  0
  6  8  1  0  0  0  0
  6 10  1  0  0  0  0
  7  9  1  0  0  0  0
  8 14  1  0  0  0  0
  8 18  1  0  0  0  0
  8 19  1  0  0  0  0
  9 11  2  0  0  0  0
  9 13  1  0  0  0  0
 10 12  2  0  0  0  0
 10 20  1  0  0  0  0
 11 12  1  0  0  0  0
 11 21  1  0  0  0  0
 13 23  1  0  0  0  0
 13 24  1  0  0  0  0
 13 25  1  0  0  0  0
 14 26  1  0  0  0  0
 14 27  1  0  0  0  0
 14 28  1  0  0  0  0
 15 16  1  0  0  0  0
 16 29  1  0  0  0  0
 16 30  1  0  0  0  0
M  END
> <PUBCHEM_COMPOUND_CID>
2404972

> <PUBCHEM_CONFORMER_RMSD>
0.6

> <PUBCHEM_CONFORMER_DIVERSEORDER>
1
49
39
17
12
48
37
45
30
47
34
40
20
44
43
36
16
18
26
2
42
19
28
5
25
23
24
29
41
27
38
15
31
35
13
33
32
8
11
10
22
46
14
9
6
4
21
3
7

> <PUBCHEM_MMFF94_PARTIAL_CHARGES>
19
1 -0.29
10 -0.15
11 -0.15
12 0.1
13 0.14
15 0.57
16 0.35
17 0.59
2 -0.14
20 0.15
21 0.15
22 0.37
3 -0.57
4 -0.55
5 -0.56
6 -0.14
7 0.12
8 0.14
9 -0.14

> <PUBCHEM_EFFECTIVE_ROTOR_COUNT>
5

> <PUBCHEM_PHARMACOPHORE_FEATURES>
5
1 14 hydrophobe
1 3 acceptor
1 4 donor
1 5 acceptor
6 6 7 9 10 11 12 rings

> <PUBCHEM_HEAVY_ATOM_COUNT>
17

> <PUBCHEM_ATOM_DEF_STEREO_COUNT>
0

> <PUBCHEM_ATOM_UDEF_STEREO_COUNT>
0

> <PUBCHEM_BOND_DEF_STEREO_COUNT>
0

> <PUBCHEM_BOND_UDEF_STEREO_COUNT>
0

> <PUBCHEM_ISOTOPIC_ATOM_COUNT>
0

> <PUBCHEM_COMPONENT_COUNT>
1

> <PUBCHEM_CACTVS_TAUTO_COUNT>
2

> <PUBCHEM_CONFORMER_ID>
0024B26C00000001

> <PUBCHEM_MMFF94_ENERGY>
57.3204

> <PUBCHEM_FEATURE_SELFOVERLAP>
25.372

> <PUBCHEM_SHAPE_FINGERPRINT>
10906281 52 18267041577362917148
10922049 32 11097854098951959041
11132069 177 18343305872528149444
11401426 45 18411980273513864655
11646440 116 18342189877322482617
12592029 89 15574711370378321938
13132413 78 18411989040006735773
13140716 1 18191028017839548674
13583140 156 16009611198970363604
14178342 30 18119811314005758188
15048467 5 16558753416291606027
16945 1 18262533558245620126
17349148 13 17967816029140834582
17846911 113 18408323302467203722
19784866 9 17967816024682148675
20510252 161 18412262801216726224
20600515 1 18335139851414454244
2334 1 17759535747639120638
23402539 116 18412541024554897790
23557571 272 18200889382931348796
23559900 14 18337965571165955398
25 1 18187087243690928831
2748010 2 17976557322585661718
34934 24 18341890745645338773
350125 39 18192435156573974378
353137 74 18260831440898952527
4072396 5 18040990718012264850
43471831 8 18187928305456108866
53655031 270 18334017168105371596
81228 2 18267890322877141844

> <PUBCHEM_SHAPE_MULTIPOLES>
339.74
8.47
2.41
1.09
0.86
0.63
-0.05
0.94
1.21
-0.96
0.59
0.53
0
0.03

> <PUBCHEM_SHAPE_SELFOVERLAP>
672.612

> <PUBCHEM_SHAPE_VOLUME>
203.4

> <PUBCHEM_COORDINATE_TYPE>
2
5
10

$$$$
