2055896
  -OEChem-01171809443D

 45 47  0     0  0  0  0  0  0999 V2000
    2.6978    1.7832    0.1519 S   0  0  0  0  0  0  0  0  0  0  0  0
    3.8512   -3.0054   -0.1549 O   0  0  0  0  0  0  0  0  0  0  0  0
    1.6102   -2.6933   -0.1200 O   0  0  0  0  0  0  0  0  0  0  0  0
    0.0146    2.3474    0.1358 O   0  0  0  0  0  0  0  0  0  0  0  0
    0.6774    0.0867    0.0601 N   0  0  0  0  0  0  0  0  0  0  0  0
    5.7112   -0.6772   -0.0230 C   0  0  0  0  0  0  0  0  0  0  0  0
    6.5005    0.6421   -0.2990 C   0  0  0  0  0  0  0  0  0  0  0  0
    4.3077   -0.2005    0.0145 C   0  0  0  0  0  0  0  0  0  0  0  0
    5.5754    1.8226    0.1327 C   0  0  0  0  0  0  0  0  0  0  0  0
    4.2498    1.1632    0.1003 C   0  0  0  0  0  0  0  0  0  0  0  0
    3.0277   -0.7897   -0.0127 C   0  0  0  0  0  0  0  0  0  0  0  0
   -5.7682   -0.3770   -0.0400 C   0  0  0  0  0  0  0  0  0  0  0  0
    2.0430    0.1835    0.0555 C   0  0  0  0  0  0  0  0  0  0  0  0
   -4.3307    0.0195   -0.0043 C   0  0  0  0  0  0  0  0  0  0  0  0
   -6.0870   -1.7979    0.5325 C   0  0  0  0  0  0  0  0  0  0  0  0
   -6.6482    0.6107    0.7872 C   0  0  0  0  0  0  0  0  0  0  0  0
   -6.3164   -0.3852   -1.5006 C   0  0  0  0  0  0  0  0  0  0  0  0
    2.7449   -2.1977   -0.0976 C   0  0  0  0  0  0  0  0  0  0  0  0
   -3.9391    1.2672   -0.4897 C   0  0  0  0  0  0  0  0  0  0  0  0
   -3.3780   -0.8570    0.5153 C   0  0  0  0  0  0  0  0  0  0  0  0
   -1.6740    0.7533    0.0630 C   0  0  0  0  0  0  0  0  0  0  0  0
   -0.2410    1.1488    0.0992 C   0  0  0  0  0  0  0  0  0  0  0  0
   -2.5950    1.6384   -0.4556 C   0  0  0  0  0  0  0  0  0  0  0  0
   -2.0339   -0.4857    0.5493 C   0  0  0  0  0  0  0  0  0  0  0  0
    6.0004   -1.1005    0.9445 H   0  0  0  0  0  0  0  0  0  0  0  0
    5.8976   -1.4092   -0.8135 H   0  0  0  0  0  0  0  0  0  0  0  0
    7.4674    0.6628    0.2133 H   0  0  0  0  0  0  0  0  0  0  0  0
    6.6974    0.7201   -1.3766 H   0  0  0  0  0  0  0  0  0  0  0  0
    5.6588    2.6648   -0.5593 H   0  0  0  0  0  0  0  0  0  0  0  0
    5.8218    2.1520    1.1472 H   0  0  0  0  0  0  0  0  0  0  0  0
   -7.1601   -2.0167    0.4710 H   0  0  0  0  0  0  0  0  0  0  0  0
   -5.5677   -2.5831   -0.0292 H   0  0  0  0  0  0  0  0  0  0  0  0
   -5.8040   -1.8784    1.5885 H   0  0  0  0  0  0  0  0  0  0  0  0
   -6.6078    1.6293    0.3858 H   0  0  0  0  0  0  0  0  0  0  0  0
   -7.7007    0.3042    0.7855 H   0  0  0  0  0  0  0  0  0  0  0  0
   -6.3114    0.6525    1.8298 H   0  0  0  0  0  0  0  0  0  0  0  0
   -7.3647   -0.7040   -1.5314 H   0  0  0  0  0  0  0  0  0  0  0  0
   -6.2670    0.6072   -1.9619 H   0  0  0  0  0  0  0  0  0  0  0  0
   -5.7372   -1.0714   -2.1298 H   0  0  0  0  0  0  0  0  0  0  0  0
    0.3325   -0.8639   -0.0298 H   0  0  0  0  0  0  0  0  0  0  0  0
   -4.6596    1.9685   -0.9007 H   0  0  0  0  0  0  0  0  0  0  0  0
   -3.6287   -1.8340    0.9137 H   0  0  0  0  0  0  0  0  0  0  0  0
   -2.3073    2.6110   -0.8434 H   0  0  0  0  0  0  0  0  0  0  0  0
   -1.3332   -1.1811    0.9991 H   0  0  0  0  0  0  0  0  0  0  0  0
    3.6047   -3.9532   -0.2115 H   0  0  0  0  0  0  0  0  0  0  0  0
  1 10  1  0  0  0  0
  1 13  1  0  0  0  0
  2 18  1  0  0  0  0
  2 45  1  0  0  0  0
  3 18  2  0  0  0  0
  4 22  2  0  0  0  0
  5 13  1  0  0  0  0
  5 22  1  0  0  0  0
  5 40  1  0  0  0  0
  6  7  1  0  0  0  0
  6  8  1  0  0  0  0
  6 25  1  0  0  0  0
  6 26  1  0  0  0  0
  7  9  1  0  0  0  0
  7 27  1  0  0  0  0
  7 28  1  0  0  0  0
  8 10  2  0  0  0  0
  8 11  1  0  0  0  0
  9 10  1  0  0  0  0
  9 29  1  0  0  0  0
  9 30  1  0  0  0  0
 11 13  2  0  0  0  0
 11 18  1  0  0  0  0
 12 14  1  0  0  0  0
 12 15  1  0  0  0  0
 12 16  1  0  0  0  0
 12 17  1  0  0  0  0
 14 19  2  0  0  0  0
 14 20  1  0  0  0  0
 15 31  1  0  0  0  0
 15 32  1  0  0  0  0
 15 33  1  0  0  0  0
 16 34  1  0  0  0  0
 16 35  1  0  0  0  0
 16 36  1  0  0  0  0
 17 37  1  0  0  0  0
 17 38  1  0  0  0  0
 17 39  1  0  0  0  0
 19 23  1  0  0  0  0
 19 41  1  0  0  0  0
 20 24  2  0  0  0  0
 20 42  1  0  0  0  0
 21 22  1  0  0  0  0
 21 23  2  0  0  0  0
 21 24  1  0  0  0  0
 23 43  1  0  0  0  0
 24 44  1  0  0  0  0
M  END
> <PUBCHEM_COMPOUND_CID>
2055896

> <PUBCHEM_CONFORMER_RMSD>
0.8

> <PUBCHEM_CONFORMER_DIVERSEORDER>
1
3
5
4
2
6

> <PUBCHEM_MMFF94_PARTIAL_CHARGES>
26
1 -0.08
10 -0.14
11 -0.09
12 0.14
13 0.1
14 -0.14
18 0.81
19 -0.15
2 -0.65
20 -0.15
21 0.09
22 0.54
23 -0.15
24 -0.15
3 -0.57
4 -0.57
40 0.37
41 0.15
42 0.15
43 0.15
44 0.15
45 0.5
5 -0.49
6 0.18
8 -0.18
9 0.18

> <PUBCHEM_EFFECTIVE_ROTOR_COUNT>
5.6

> <PUBCHEM_PHARMACOPHORE_FEATURES>
9
1 2 acceptor
1 3 acceptor
1 4 acceptor
1 5 donor
3 2 3 18 anion
4 12 15 16 17 hydrophobe
5 1 8 10 11 13 rings
5 6 7 8 9 10 rings
6 14 19 20 21 23 24 rings

> <PUBCHEM_HEAVY_ATOM_COUNT>
24

> <PUBCHEM_ATOM_DEF_STEREO_COUNT>
0

> <PUBCHEM_ATOM_UDEF_STEREO_COUNT>
0

> <PUBCHEM_BOND_DEF_STEREO_COUNT>
0

> <PUBCHEM_BOND_UDEF_STEREO_COUNT>
0

> <PUBCHEM_ISOTOPIC_ATOM_COUNT>
0

> <PUBCHEM_COMPONENT_COUNT>
1

> <PUBCHEM_CACTVS_TAUTO_COUNT>
4

> <PUBCHEM_CONFORMER_ID>
001F5ED800000001

> <PUBCHEM_MMFF94_ENERGY>
86.9245

> <PUBCHEM_FEATURE_SELFOVERLAP>
45.91

> <PUBCHEM_SHAPE_FINGERPRINT>
10 15 18335975485232411912
10299344 5 18060139851693086909
10411042 1 17979074887146084446
10447042 23 18409722950382994254
10595046 47 18342738503175044169
10835480 77 18335693910870157533
10968037 39 18261111898364059293
11315181 36 18342178899560341761
11421498 54 16702030725527002698
11524674 6 16845575348719842783
11719270 70 18410567376036014114
11963148 33 18335413612535618514
12107183 9 17623016694378230249
12166972 35 18041001756353178532
12236239 1 17632859737165678009
12516196 113 18272932743152388361
12596602 18 16845569859360974987
12730499 353 18411983576897499370
12788726 201 17131841919588907995
12838862 33 18339907308363185592
13073987 5 18340491071601536025
13288520 33 18409730677778258773
13402501 40 18335140916249507858
13533116 47 18273214170794443762
13668630 136 17418097632585807733
13685833 64 18336269024465665027
13836976 161 18334581269885540548
14251764 18 18131918165946907185
14617045 38 18411704291705392966
14840074 17 17989202655519024549
15183329 4 18408880729367060585
15196674 1 18338517426285187003
15348495 7 11095869506423232877
15483637 11 18121780800871124451
15537594 2 17988637506162740767
15927050 60 17550106309078225332
16993438 75 18043818803717266467
17492 89 18124595289098127086
17844677 252 18412269406412606337
17857418 61 18412261731722065207
18608769 82 18262522619180617643
18681886 176 18408884075379063008
200 152 18201718448657548809
20028762 73 18201436944402603094
20645477 70 18410854313751968270
21033650 10 16227176877269020876
21065198 48 18130230354535234409
21197605 99 18339928237317338998
21236236 1 18411419471799056401
21267235 1 18341337721435288996
21315763 178 18272932722146595549
21344244 181 17489322875759764118
21521721 280 18200877391609589728
21623969 137 18336836363448804259
220451 1 17989205949975256719
22224240 67 18341888637064478872
23402539 116 11025798721148596697
23516275 137 17488207961783808471
23522609 53 18056507086619032969
23557571 272 17531242833629536308
23559900 14 18336260266764189001
239999 70 18273221876635789902
255183 451 17985555447049890614
3004659 81 18186237329565693840
314194 84 18272366490801347103
33824 294 18410011022956849178
34797466 226 18060427940946385660
3545911 37 18408604764316464800
4073 2 18187653530702012419
4325135 7 18260268564213286932
4340502 62 18412824699003139806
46194498 28 17821729463681877724
5104073 3 18269270166914710120
5283173 99 18041552529942329877
5486654 2 18339929307238228404
59755656 215 18408606959371865814
9709674 26 18334582312792570475

> <PUBCHEM_SHAPE_MULTIPOLES>
475.17
17.88
2.4
0.8
8.6
1.15
-0.11
1.2
-0.78
-2.11
-0.03
0.96
0
0.43

> <PUBCHEM_SHAPE_SELFOVERLAP>
1018.345

> <PUBCHEM_SHAPE_VOLUME>
267

> <PUBCHEM_COORDINATE_TYPE>
2
5
10

$$$$
