2249530
  -OEChem-01171809233D

 33 34  0     0  0  0  0  0  0999 V2000
    6.2524   -0.4794   -0.2020 O   0  0  0  0  0  0  0  0  0  0  0  0
    0.4972    2.1060    0.3446 O   0  0  0  0  0  0  0  0  0  0  0  0
   -2.5416   -0.7146   -0.1319 N   0  0  0  0  0  0  0  0  0  0  0  0
   -4.3360    0.8245    0.1629 N   0  0  0  0  0  0  0  0  0  0  0  0
    2.2436    0.5650    0.0570 C   0  0  0  0  0  0  0  0  0  0  0  0
    2.6559   -0.7150    0.4269 C   0  0  0  0  0  0  0  0  0  0  0  0
    3.1785    1.4944   -0.3994 C   0  0  0  0  0  0  0  0  0  0  0  0
    4.9381   -0.1367   -0.1159 C   0  0  0  0  0  0  0  0  0  0  0  0
    4.0033   -1.0659    0.3405 C   0  0  0  0  0  0  0  0  0  0  0  0
    4.5258    1.1434   -0.4858 C   0  0  0  0  0  0  0  0  0  0  0  0
    0.8385    0.9300    0.1467 C   0  0  0  0  0  0  0  0  0  0  0  0
   -0.1977   -0.1405   -0.0366 C   0  0  0  0  0  0  0  0  0  0  0  0
   -3.9180   -0.4457   -0.0747 C   0  0  0  0  0  0  0  0  0  0  0  0
   -1.5031    0.1477    0.0215 C   0  0  0  0  0  0  0  0  0  0  0  0
   -4.7937   -1.5101   -0.2670 C   0  0  0  0  0  0  0  0  0  0  0  0
   -6.1604   -1.2596   -0.2134 C   0  0  0  0  0  0  0  0  0  0  0  0
   -6.6158    0.0319    0.0282 C   0  0  0  0  0  0  0  0  0  0  0  0
   -5.6716    1.0296    0.2080 C   0  0  0  0  0  0  0  0  0  0  0  0
    6.6049   -1.8051    0.1905 C   0  0  0  0  0  0  0  0  0  0  0  0
    1.9670   -1.4566    0.8201 H   0  0  0  0  0  0  0  0  0  0  0  0
    2.8760    2.4953   -0.6963 H   0  0  0  0  0  0  0  0  0  0  0  0
    4.2565   -2.0738    0.6510 H   0  0  0  0  0  0  0  0  0  0  0  0
    5.2494    1.8710   -0.8433 H   0  0  0  0  0  0  0  0  0  0  0  0
    0.1139   -1.1542   -0.2604 H   0  0  0  0  0  0  0  0  0  0  0  0
   -1.8227    1.1654    0.2220 H   0  0  0  0  0  0  0  0  0  0  0  0
   -2.2861   -1.6799   -0.3145 H   0  0  0  0  0  0  0  0  0  0  0  0
   -4.4356   -2.5175   -0.4555 H   0  0  0  0  0  0  0  0  0  0  0  0
   -6.8694   -2.0690   -0.3596 H   0  0  0  0  0  0  0  0  0  0  0  0
   -7.6766    0.2503    0.0742 H   0  0  0  0  0  0  0  0  0  0  0  0
   -5.9750    2.0536    0.3993 H   0  0  0  0  0  0  0  0  0  0  0  0
    6.1321   -2.5546   -0.4531 H   0  0  0  0  0  0  0  0  0  0  0  0
    6.3974   -1.9789    1.2518 H   0  0  0  0  0  0  0  0  0  0  0  0
    7.6869   -1.9050    0.0559 H   0  0  0  0  0  0  0  0  0  0  0  0
  1  8  1  0  0  0  0
  1 19  1  0  0  0  0
  2 11  2  0  0  0  0
  3 13  1  0  0  0  0
  3 14  1  0  0  0  0
  3 26  1  0  0  0  0
  4 13  1  0  0  0  0
  4 18  2  0  0  0  0
  5  6  2  0  0  0  0
  5  7  1  0  0  0  0
  5 11  1  0  0  0  0
  6  9  1  0  0  0  0
  6 20  1  0  0  0  0
  7 10  2  0  0  0  0
  7 21  1  0  0  0  0
  8  9  2  0  0  0  0
  8 10  1  0  0  0  0
  9 22  1  0  0  0  0
 10 23  1  0  0  0  0
 11 12  1  0  0  0  0
 12 14  2  0  0  0  0
 12 24  1  0  0  0  0
 13 15  2  0  0  0  0
 14 25  1  0  0  0  0
 15 16  1  0  0  0  0
 15 27  1  0  0  0  0
 16 17  2  0  0  0  0
 16 28  1  0  0  0  0
 17 18  1  0  0  0  0
 17 29  1  0  0  0  0
 18 30  1  0  0  0  0
 19 31  1  0  0  0  0
 19 32  1  0  0  0  0
 19 33  1  0  0  0  0
M  END
> <PUBCHEM_COMPOUND_CID>
2249530

> <PUBCHEM_CONFORMER_RMSD>
0.8

> <PUBCHEM_CONFORMER_DIVERSEORDER>
1
40
45
37
35
8
33
23
30
3
32
4
41
24
2
22
14
19
46
29
5
15
36
28
26
38
17
6
16
31
44
11
20
25
7
27
34
13
21
18
47
12
43
42
10
9
39

> <PUBCHEM_MMFF94_PARTIAL_CHARGES>
30
1 -0.36
10 -0.15
11 0.47
12 -0.14
13 0.41
14 -0.05
15 -0.15
16 -0.15
17 -0.15
18 0.16
19 0.28
2 -0.57
20 0.15
21 0.15
22 0.15
23 0.15
24 0.15
25 0.15
26 0.4
27 0.15
28 0.15
29 0.15
3 -0.6
30 0.15
4 -0.62
5 0.09
6 -0.15
7 -0.15
8 0.08
9 -0.15

> <PUBCHEM_EFFECTIVE_ROTOR_COUNT>
5

> <PUBCHEM_PHARMACOPHORE_FEATURES>
7
1 1 acceptor
1 2 acceptor
1 3 cation
1 3 donor
1 4 acceptor
6 4 13 15 16 17 18 rings
6 5 6 7 8 9 10 rings

> <PUBCHEM_HEAVY_ATOM_COUNT>
19

> <PUBCHEM_ATOM_DEF_STEREO_COUNT>
0

> <PUBCHEM_ATOM_UDEF_STEREO_COUNT>
0

> <PUBCHEM_BOND_DEF_STEREO_COUNT>
1

> <PUBCHEM_BOND_UDEF_STEREO_COUNT>
0

> <PUBCHEM_ISOTOPIC_ATOM_COUNT>
0

> <PUBCHEM_COMPONENT_COUNT>
1

> <PUBCHEM_CACTVS_TAUTO_COUNT>
4

> <PUBCHEM_CONFORMER_ID>
0022533A00000001

> <PUBCHEM_MMFF94_ENERGY>
68.3624

> <PUBCHEM_FEATURE_SELFOVERLAP>
35.522

> <PUBCHEM_SHAPE_FINGERPRINT>
10 15 12607393387551658150
10299344 5 18407762533982765351
11315181 36 18131354124776406801
11524674 6 16988842796077156095
11719270 70 17988925548419260390
12107183 9 17761491392325227401
12166972 35 18408326609260368373
12236239 1 18342740727677725737
12516196 113 18201999936592943048
12616971 3 16558742455588262189
13167823 11 18411134783896268239
13288520 33 18411981365126530789
13533116 47 18412544315069350858
13668630 136 18343305859580360014
13685833 64 18410576192780764490
13862211 1 18342457053756991271
14251752 14 18335699408090283173
14251764 18 18341895211836437133
15183329 4 18333728005585633131
17834072 33 18410856594305567497
17844677 252 18409736179241202221
18006028 8 18060699481447202824
19489759 90 16702305642251851211
20612939 158 18041285451706304436
20645477 70 18408040697808878474
21267235 1 18410579478419903978
22224240 67 15195277630422021638
23035841 295 18409166597494045251
23081809 10 18342459283177301437
23402539 116 18202842171717365037
23522609 53 18192180180992358933
23536379 177 18410293614276819273
23559900 14 18268141136462050465
28498 318 18409727331544885911
29717793 49 18341900688505152780
3004659 81 18260828198567831194
328311 84 18113625586094177187
351380 3 18413666920003385535
4073 2 17895480344107011426
4214541 1 18411418423694582669
42788 4 18410012152306271205
4463277 17 18411699898091168048
465052 167 18272091612841740358
5104073 3 18201442531879891489
5385378 56 16988017007242268559
559249 180 18343017792430152095
59755656 520 17530964705218365259
9965369 4 18341613694416377881

> <PUBCHEM_SHAPE_MULTIPOLES>
369.31
18.94
1.66
0.66
7.68
0.09
0
-6.24
0.66
-0.85
-0.02
-0.09
0.01
-0.73

> <PUBCHEM_SHAPE_SELFOVERLAP>
784.051

> <PUBCHEM_SHAPE_VOLUME>
204.8

> <PUBCHEM_COORDINATE_TYPE>
2
5
10

$$$$
