2387558
  -OEChem-01171809373D

 45 46  0     0  0  0  0  0  0999 V2000
   -2.2077   -1.4076   -2.6982 Cl  0  0  0  0  0  0  0  0  0  0  0  0
    1.8786   -3.5330    0.0939 Cl  0  0  0  0  0  0  0  0  0  0  0  0
    5.5216   -1.6417    1.0386 F   0  0  0  0  0  0  0  0  0  0  0  0
   -3.6075   -1.4175   -0.0348 O   0  0  0  0  0  0  0  0  0  0  0  0
   -2.2453    1.8853   -0.2157 O   0  0  0  0  0  0  0  0  0  0  0  0
   -3.4654    2.7475    1.5424 O   0  0  0  0  0  0  0  0  0  0  0  0
    0.0330    1.5591   -1.6288 O   0  0  0  0  0  0  0  0  0  0  0  0
    1.2672    2.8692   -0.1554 N   0  0  0  0  0  0  0  0  0  0  0  0
   -5.0985    0.2595    0.8002 C   0  0  0  0  0  0  0  0  0  0  0  0
   -4.5178    1.3238   -0.1253 C   0  0  0  0  0  0  0  0  0  0  0  0
   -4.0653   -0.7983    1.1593 C   0  0  0  0  0  0  0  0  0  0  0  0
    2.5439    2.7594   -0.8230 C   0  0  0  0  0  0  0  0  0  0  0  0
   -3.3788    2.0776    0.5226 C   0  0  0  0  0  0  0  0  0  0  0  0
    3.3383    1.5861   -0.3266 C   0  0  0  0  0  0  0  0  0  0  0  0
   -1.0714    2.5402    0.2759 C   0  0  0  0  0  0  0  0  0  0  0  0
   -2.3263   -1.9050   -0.0270 C   0  0  0  0  0  0  0  0  0  0  0  0
    0.1149    2.2549   -0.6202 C   0  0  0  0  0  0  0  0  0  0  0  0
    4.2101    1.7394    0.7514 C   0  0  0  0  0  0  0  0  0  0  0  0
    3.2041    0.3421   -0.9434 C   0  0  0  0  0  0  0  0  0  0  0  0
   -1.5650   -1.9573   -1.1946 C   0  0  0  0  0  0  0  0  0  0  0  0
   -1.7874   -2.3566    1.1778 C   0  0  0  0  0  0  0  0  0  0  0  0
    4.9476    0.6491    1.2127 C   0  0  0  0  0  0  0  0  0  0  0  0
    3.9416   -0.7482   -0.4823 C   0  0  0  0  0  0  0  0  0  0  0  0
    4.8134   -0.5947    0.5957 C   0  0  0  0  0  0  0  0  0  0  0  0
   -0.2649   -2.4608   -1.1575 C   0  0  0  0  0  0  0  0  0  0  0  0
   -0.4873   -2.8602    1.2150 C   0  0  0  0  0  0  0  0  0  0  0  0
    0.2740   -2.9123    0.0472 C   0  0  0  0  0  0  0  0  0  0  0  0
   -5.4805    0.7211    1.7179 H   0  0  0  0  0  0  0  0  0  0  0  0
   -5.9447   -0.2147    0.2892 H   0  0  0  0  0  0  0  0  0  0  0  0
   -5.2878    2.0597   -0.3842 H   0  0  0  0  0  0  0  0  0  0  0  0
   -4.1899    0.8810   -1.0727 H   0  0  0  0  0  0  0  0  0  0  0  0
   -3.2543   -0.3191    1.7220 H   0  0  0  0  0  0  0  0  0  0  0  0
   -4.5361   -1.5569    1.7952 H   0  0  0  0  0  0  0  0  0  0  0  0
    2.3839    2.6813   -1.9049 H   0  0  0  0  0  0  0  0  0  0  0  0
    3.0885    3.6943   -0.6487 H   0  0  0  0  0  0  0  0  0  0  0  0
   -0.8444    2.1723    1.2832 H   0  0  0  0  0  0  0  0  0  0  0  0
   -1.2394    3.6230    0.2991 H   0  0  0  0  0  0  0  0  0  0  0  0
    1.2281    3.4106    0.7036 H   0  0  0  0  0  0  0  0  0  0  0  0
    4.3220    2.7029    1.2417 H   0  0  0  0  0  0  0  0  0  0  0  0
    2.5355    0.2093   -1.7895 H   0  0  0  0  0  0  0  0  0  0  0  0
   -2.3524   -2.3667    2.1049 H   0  0  0  0  0  0  0  0  0  0  0  0
    5.6260    0.7679    2.0523 H   0  0  0  0  0  0  0  0  0  0  0  0
    3.8613   -1.7073   -0.9823 H   0  0  0  0  0  0  0  0  0  0  0  0
    0.3307   -2.5008   -2.0672 H   0  0  0  0  0  0  0  0  0  0  0  0
   -0.0820   -3.2150    2.1592 H   0  0  0  0  0  0  0  0  0  0  0  0
  1 20  1  0  0  0  0
  2 27  1  0  0  0  0
  3 24  1  0  0  0  0
  4 11  1  0  0  0  0
  4 16  1  0  0  0  0
  5 13  1  0  0  0  0
  5 15  1  0  0  0  0
  6 13  2  0  0  0  0
  7 17  2  0  0  0  0
  8 12  1  0  0  0  0
  8 17  1  0  0  0  0
  8 38  1  0  0  0  0
  9 10  1  0  0  0  0
  9 11  1  0  0  0  0
  9 28  1  0  0  0  0
  9 29  1  0  0  0  0
 10 13  1  0  0  0  0
 10 30  1  0  0  0  0
 10 31  1  0  0  0  0
 11 32  1  0  0  0  0
 11 33  1  0  0  0  0
 12 14  1  0  0  0  0
 12 34  1  0  0  0  0
 12 35  1  0  0  0  0
 14 18  2  0  0  0  0
 14 19  1  0  0  0  0
 15 17  1  0  0  0  0
 15 36  1  0  0  0  0
 15 37  1  0  0  0  0
 16 20  2  0  0  0  0
 16 21  1  0  0  0  0
 18 22  1  0  0  0  0
 18 39  1  0  0  0  0
 19 23  2  0  0  0  0
 19 40  1  0  0  0  0
 20 25  1  0  0  0  0
 21 26  2  0  0  0  0
 21 41  1  0  0  0  0
 22 24  2  0  0  0  0
 22 42  1  0  0  0  0
 23 24  1  0  0  0  0
 23 43  1  0  0  0  0
 25 27  2  0  0  0  0
 25 44  1  0  0  0  0
 26 27  1  0  0  0  0
 26 45  1  0  0  0  0
M  END
> <PUBCHEM_COMPOUND_CID>
2387558

> <PUBCHEM_CONFORMER_RMSD>
1.4

> <PUBCHEM_CONFORMER_DIVERSEORDER>
1
29
28
14
32
13
93
72
84
51
4
30
24
12
62
23
10
99
15
8
68
86
52
53
45
26
60
61
66
44
50
65
97
83
96
7
58
63
5
38
74
3
69
59
37
90
91
71
33
54
92
67
36
46
87
21
6
35
16
64
41
48
39
81
17
31
76
79
95
57
77
18
25
82
94
20
70
88
85
80
73
9
2
22
11
98
27
75
42
55
19
43
34
49
47
89
78
56
40

> <PUBCHEM_MMFF94_PARTIAL_CHARGES>
34
1 -0.18
10 0.06
11 0.28
12 0.44
13 0.66
14 -0.14
15 0.34
16 0.08
17 0.57
18 -0.15
19 -0.15
2 -0.18
20 0.18
21 -0.15
22 -0.15
23 -0.15
24 0.19
25 -0.15
26 -0.15
27 0.18
3 -0.19
38 0.37
39 0.15
4 -0.36
40 0.15
41 0.15
42 0.15
43 0.15
44 0.15
45 0.15
5 -0.43
6 -0.57
7 -0.57
8 -0.73

> <PUBCHEM_EFFECTIVE_ROTOR_COUNT>
11

> <PUBCHEM_PHARMACOPHORE_FEATURES>
6
1 4 acceptor
1 6 acceptor
1 7 acceptor
1 8 donor
6 14 18 19 22 23 24 rings
6 16 20 21 25 26 27 rings

> <PUBCHEM_HEAVY_ATOM_COUNT>
27

> <PUBCHEM_ATOM_DEF_STEREO_COUNT>
0

> <PUBCHEM_ATOM_UDEF_STEREO_COUNT>
0

> <PUBCHEM_BOND_DEF_STEREO_COUNT>
0

> <PUBCHEM_BOND_UDEF_STEREO_COUNT>
0

> <PUBCHEM_ISOTOPIC_ATOM_COUNT>
0

> <PUBCHEM_COMPONENT_COUNT>
1

> <PUBCHEM_CACTVS_TAUTO_COUNT>
2

> <PUBCHEM_CONFORMER_ID>
00246E6600000001

> <PUBCHEM_MMFF94_ENERGY>
52.9828

> <PUBCHEM_FEATURE_SELFOVERLAP>
30.447

> <PUBCHEM_SHAPE_FINGERPRINT>
10708813 3 18340497659569600161
10816530 23 16773504560273258052
12422481 6 18264763268947680290
12553582 1 17979921836804161212
12788726 201 18126298651141324136
12925494 130 18122347883178547329
12978246 48 18411143549396849481
13122387 1 17400355647099530006
13140716 1 18411134728109218172
13402501 40 18338521841981137174
13642711 20 15912745237927959242
14251751 93 18411699894059834593
238918 7 18271807865769489726
3298306 158 18336261228868511909
338550 245 18335144202168709404
3680242 22 18335147457421285945
392239 28 18261692440725559091
6287921 2 17481991133955156483
6438754 60 16836268206029148895

> <PUBCHEM_SHAPE_MULTIPOLES>
523.65
10.32
4.66
1.58
5.18
0.61
0.67
-2.57
-3.77
-0.37
-0.27
-0.71
0.47
-1.09

> <PUBCHEM_SHAPE_SELFOVERLAP>
1075.901

> <PUBCHEM_SHAPE_VOLUME>
302.2

> <PUBCHEM_COORDINATE_TYPE>
2
5
10

$$$$
