2275069
  -OEChem-01171809303D

 34 36  0     0  0  0  0  0  0999 V2000
    2.1991    2.4976    0.8351 Cl  0  0  0  0  0  0  0  0  0  0  0  0
    7.2405    1.0785   -0.3970 Cl  0  0  0  0  0  0  0  0  0  0  0  0
   -5.4875   -0.3029   -0.8420 O   0  0  0  0  0  0  0  0  0  0  0  0
   -1.9331    2.2984    0.5959 O   0  0  0  0  0  0  0  0  0  0  0  0
    1.6129   -2.6384   -0.4442 O   0  0  0  0  0  0  0  0  0  0  0  0
   -3.4219    0.5685   -0.0590 N   0  0  0  0  0  0  0  0  0  0  0  0
    1.5470   -0.3961    0.1688 N   0  0  0  0  0  0  0  0  0  0  0  0
   -2.6297   -0.6117    0.1179 C   0  0  0  0  0  0  0  0  0  0  0  0
   -0.4763   -1.7070    0.1141 C   0  0  0  0  0  0  0  0  0  0  0  0
   -1.2472   -0.5574   -0.0587 C   0  0  0  0  0  0  0  0  0  0  0  0
   -3.2415   -1.8157    0.4675 C   0  0  0  0  0  0  0  0  0  0  0  0
   -1.0880   -2.9108    0.4637 C   0  0  0  0  0  0  0  0  0  0  0  0
   -4.7330    0.5895   -0.4903 C   0  0  0  0  0  0  0  0  0  0  0  0
   -2.9910    1.8586    0.1759 C   0  0  0  0  0  0  0  0  0  0  0  0
    0.9651   -1.6509   -0.0698 C   0  0  0  0  0  0  0  0  0  0  0  0
   -2.4705   -2.9652    0.6404 C   0  0  0  0  0  0  0  0  0  0  0  0
    2.9070   -0.0165    0.0411 C   0  0  0  0  0  0  0  0  0  0  0  0
   -5.1487    1.9994   -0.5204 C   0  0  0  0  0  0  0  0  0  0  0  0
   -4.1187    2.7479   -0.1385 C   0  0  0  0  0  0  0  0  0  0  0  0
    3.3100    1.2785    0.3205 C   0  0  0  0  0  0  0  0  0  0  0  0
    3.8121   -0.9815   -0.3706 C   0  0  0  0  0  0  0  0  0  0  0  0
    4.6559    1.6190    0.1848 C   0  0  0  0  0  0  0  0  0  0  0  0
    5.1579   -0.6410   -0.5065 C   0  0  0  0  0  0  0  0  0  0  0  0
    5.5798    0.6593   -0.2287 C   0  0  0  0  0  0  0  0  0  0  0  0
   -0.7953    0.3667   -0.4040 H   0  0  0  0  0  0  0  0  0  0  0  0
   -4.3107   -1.8883    0.6406 H   0  0  0  0  0  0  0  0  0  0  0  0
   -0.5033   -3.8156    0.6081 H   0  0  0  0  0  0  0  0  0  0  0  0
   -2.9457   -3.9011    0.9199 H   0  0  0  0  0  0  0  0  0  0  0  0
    0.9574    0.3544    0.5182 H   0  0  0  0  0  0  0  0  0  0  0  0
   -6.1263    2.3408   -0.8167 H   0  0  0  0  0  0  0  0  0  0  0  0
   -4.0909    3.8213   -0.0541 H   0  0  0  0  0  0  0  0  0  0  0  0
    3.5876   -2.0084   -0.6083 H   0  0  0  0  0  0  0  0  0  0  0  0
    4.9871    2.6326    0.4008 H   0  0  0  0  0  0  0  0  0  0  0  0
    5.8683   -1.3979   -0.8296 H   0  0  0  0  0  0  0  0  0  0  0  0
  1 20  1  0  0  0  0
  2 24  1  0  0  0  0
  3 13  2  0  0  0  0
  4 14  2  0  0  0  0
  5 15  2  0  0  0  0
  6  8  1  0  0  0  0
  6 13  1  0  0  0  0
  6 14  1  0  0  0  0
  7 15  1  0  0  0  0
  7 17  1  0  0  0  0
  7 29  1  0  0  0  0
  8 10  1  0  0  0  0
  8 11  2  0  0  0  0
  9 10  2  0  0  0  0
  9 12  1  0  0  0  0
  9 15  1  0  0  0  0
 10 25  1  0  0  0  0
 11 16  1  0  0  0  0
 11 26  1  0  0  0  0
 12 16  2  0  0  0  0
 12 27  1  0  0  0  0
 13 18  1  0  0  0  0
 14 19  1  0  0  0  0
 16 28  1  0  0  0  0
 17 20  2  0  0  0  0
 17 21  1  0  0  0  0
 18 19  2  0  0  0  0
 18 30  1  0  0  0  0
 19 31  1  0  0  0  0
 20 22  1  0  0  0  0
 21 23  2  0  0  0  0
 21 32  1  0  0  0  0
 22 24  2  0  0  0  0
 22 33  1  0  0  0  0
 23 24  1  0  0  0  0
 23 34  1  0  0  0  0
M  END
> <PUBCHEM_COMPOUND_CID>
2275069

> <PUBCHEM_CONFORMER_RMSD>
0.8

> <PUBCHEM_CONFORMER_DIVERSEORDER>
1
3
21
9
8
10
6
4
5
11
23
12
15
2
16
20
17
22
7
18
14
13
19

> <PUBCHEM_MMFF94_PARTIAL_CHARGES>
34
1 -0.18
10 -0.15
11 -0.15
12 -0.15
13 0.62
14 0.62
15 0.54
16 -0.15
17 0.12
18 -0.14
19 -0.14
2 -0.18
20 0.18
21 -0.15
22 -0.15
23 -0.15
24 0.18
25 0.15
26 0.15
27 0.15
28 0.15
29 0.37
3 -0.57
30 0.15
31 0.15
32 0.15
33 0.15
34 0.15
4 -0.57
5 -0.57
6 -0.24
7 -0.55
8 0.12
9 0.09

> <PUBCHEM_EFFECTIVE_ROTOR_COUNT>
4.2

> <PUBCHEM_PHARMACOPHORE_FEATURES>
7
1 3 acceptor
1 4 acceptor
1 5 acceptor
1 7 donor
5 6 13 14 18 19 rings
6 17 20 21 22 23 24 rings
6 8 9 10 11 12 16 rings

> <PUBCHEM_HEAVY_ATOM_COUNT>
24

> <PUBCHEM_ATOM_DEF_STEREO_COUNT>
0

> <PUBCHEM_ATOM_UDEF_STEREO_COUNT>
0

> <PUBCHEM_BOND_DEF_STEREO_COUNT>
0

> <PUBCHEM_BOND_UDEF_STEREO_COUNT>
0

> <PUBCHEM_ISOTOPIC_ATOM_COUNT>
0

> <PUBCHEM_COMPONENT_COUNT>
1

> <PUBCHEM_CACTVS_TAUTO_COUNT>
2

> <PUBCHEM_CONFORMER_ID>
0022B6FD00000001

> <PUBCHEM_MMFF94_ENERGY>
76.6783

> <PUBCHEM_FEATURE_SELFOVERLAP>
35.522

> <PUBCHEM_SHAPE_FINGERPRINT>
10411042 1 17760089910264521643
108634 29 18271535217039970180
12107183 9 18116703020672923722
12403259 415 18200876296308097880
12596602 18 16081376301197905888
12769317 202 18194950864679143317
13402501 40 18412543206287851948
14251764 38 18338519741320409428
14251764 75 17909556051981082537
14466204 15 18410852175274778858
14739800 52 18336808867299933602
14767858 380 18339907274377669535
14790565 3 17766565643189498001
14931854 50 18271241625507350165
15183329 4 18411423878540425430
15196674 1 18411699863673400912
17844677 252 18190752014819887012
18608769 82 18337396036711398379
21033648 29 18129934702456795448
21279426 13 18341341003017377630
21421861 104 17677317318142296346
221357 26 18202280311957883344
23227448 37 18412824711613800231
23559900 14 18342171210993979472
2838139 119 18412538808277751166
335352 9 18410575042679160222
350125 39 18338242677163854587
3545911 37 18410013247122011524
4073 2 18113904901203647346
4214541 1 18409168852726142570
445580 37 18263095434800044244
474 4 18266173929639223331
508706 21 18338228362053830633
5104073 3 18040435473510189746
5969126 39 18197493137859197447
59755656 215 18412267208143088550
59755656 520 18187640306091759630
6327066 14 18261670381446238549
6328613 192 18260554463518301420
7288768 16 17967816016287795859
7808743 9 18334856121236632096
9981440 41 18334296461598048859

> <PUBCHEM_SHAPE_MULTIPOLES>
470.08
14.37
3.47
0.77
12.55
0.55
-0.02
-7.92
3
-3.05
-0.55
-0.07
-0.05
1

> <PUBCHEM_SHAPE_SELFOVERLAP>
1017.853

> <PUBCHEM_SHAPE_VOLUME>
258.3

> <PUBCHEM_COORDINATE_TYPE>
2
5
10

$$$$
