5336094
  -OEChem-01171810123D

 51 53  0     0  0  0  0  0  0999 V2000
    1.7913    0.8447    0.9807 S   0  0  0  0  0  0  0  0  0  0  0  0
   -1.2035    0.3380   -1.4839 O   0  0  0  0  0  0  0  0  0  0  0  0
   -0.8695    1.9454    1.9583 O   0  0  0  0  0  0  0  0  0  0  0  0
    3.1535   -3.3796   -0.0409 O   0  0  0  0  0  0  0  0  0  0  0  0
   -3.2088   -0.7423   -1.1375 O   0  0  0  0  0  0  0  0  0  0  0  0
    3.8818   -0.7453    0.4692 N   0  0  0  0  0  0  0  0  0  0  0  0
    1.6107   -1.6634    0.4542 C   0  0  0  0  0  0  0  0  0  0  0  0
    2.5332   -0.6505    0.5985 C   0  0  0  0  0  0  0  0  0  0  0  0
    0.2639    0.1158    0.9462 C   0  0  0  0  0  0  0  0  0  0  0  0
    0.2772   -1.2057    0.6601 C   0  0  0  0  0  0  0  0  0  0  0  0
   -0.9059    0.9583    1.2222 C   0  0  0  0  0  0  0  0  0  0  0  0
   -2.2209    0.6208    0.5845 C   0  0  0  0  0  0  0  0  0  0  0  0
    4.8439    0.2557    0.1712 C   0  0  0  0  0  0  0  0  0  0  0  0
    1.9707   -3.0214    0.1321 C   0  0  0  0  0  0  0  0  0  0  0  0
   -3.3813    0.9179    1.2000 C   0  0  0  0  0  0  0  0  0  0  0  0
   -4.7316    0.6426    0.6863 C   0  0  0  0  0  0  0  0  0  0  0  0
    6.0931    0.2126    0.7799 C   0  0  0  0  0  0  0  0  0  0  0  0
    4.5267    1.2690   -0.7261 C   0  0  0  0  0  0  0  0  0  0  0  0
    0.8969   -4.0951   -0.0137 C   0  0  0  0  0  0  0  0  0  0  0  0
   -2.3015   -0.0148   -0.7614 C   0  0  0  0  0  0  0  0  0  0  0  0
   -5.3652    1.5888   -0.1055 C   0  0  0  0  0  0  0  0  0  0  0  0
   -5.3491   -0.5584    1.0021 C   0  0  0  0  0  0  0  0  0  0  0  0
    7.0377    1.1962    0.4875 C   0  0  0  0  0  0  0  0  0  0  0  0
    5.4716    2.2526   -1.0186 C   0  0  0  0  0  0  0  0  0  0  0  0
    6.7271    2.2162   -0.4117 C   0  0  0  0  0  0  0  0  0  0  0  0
   -6.6460    1.3280   -0.5926 C   0  0  0  0  0  0  0  0  0  0  0  0
   -6.6298   -0.8191    0.5149 C   0  0  0  0  0  0  0  0  0  0  0  0
   -7.2783    0.1241   -0.2825 C   0  0  0  0  0  0  0  0  0  0  0  0
   -1.1295   -0.2084   -2.8048 C   0  0  0  0  0  0  0  0  0  0  0  0
    0.1414    0.2771   -3.4687 C   0  0  0  0  0  0  0  0  0  0  0  0
   -0.6039   -1.8326    0.6110 H   0  0  0  0  0  0  0  0  0  0  0  0
    4.3112   -1.6631    0.5655 H   0  0  0  0  0  0  0  0  0  0  0  0
   -3.3745    1.3895    2.1805 H   0  0  0  0  0  0  0  0  0  0  0  0
    6.3445   -0.5773    1.4826 H   0  0  0  0  0  0  0  0  0  0  0  0
    3.5761    1.3014   -1.2503 H   0  0  0  0  0  0  0  0  0  0  0  0
    0.3555   -4.2080    0.9292 H   0  0  0  0  0  0  0  0  0  0  0  0
    0.2092   -3.8239   -0.8192 H   0  0  0  0  0  0  0  0  0  0  0  0
    1.3650   -5.0521   -0.2632 H   0  0  0  0  0  0  0  0  0  0  0  0
   -4.8833    2.5306   -0.3544 H   0  0  0  0  0  0  0  0  0  0  0  0
   -4.8548   -1.3013    1.6226 H   0  0  0  0  0  0  0  0  0  0  0  0
    8.0154    1.1678    0.9597 H   0  0  0  0  0  0  0  0  0  0  0  0
    5.2339    3.0410   -1.7268 H   0  0  0  0  0  0  0  0  0  0  0  0
    7.4635    2.9808   -0.6413 H   0  0  0  0  0  0  0  0  0  0  0  0
   -7.1509    2.0622   -1.2136 H   0  0  0  0  0  0  0  0  0  0  0  0
   -7.1223   -1.7566    0.7561 H   0  0  0  0  0  0  0  0  0  0  0  0
   -8.2754   -0.0791   -0.6619 H   0  0  0  0  0  0  0  0  0  0  0  0
   -1.9994    0.1194   -3.3847 H   0  0  0  0  0  0  0  0  0  0  0  0
   -1.1218   -1.3026   -2.7465 H   0  0  0  0  0  0  0  0  0  0  0  0
    1.0191   -0.0285   -2.8893 H   0  0  0  0  0  0  0  0  0  0  0  0
    0.1578    1.3709   -3.5161 H   0  0  0  0  0  0  0  0  0  0  0  0
    0.2308   -0.1225   -4.4826 H   0  0  0  0  0  0  0  0  0  0  0  0
  1  8  1  0  0  0  0
  1  9  1  0  0  0  0
  2 20  1  0  0  0  0
  2 29  1  0  0  0  0
  3 11  2  0  0  0  0
  4 14  2  0  0  0  0
  5 20  2  0  0  0  0
  6  8  1  0  0  0  0
  6 13  1  0  0  0  0
  6 32  1  0  0  0  0
  7  8  2  0  0  0  0
  7 10  1  0  0  0  0
  7 14  1  0  0  0  0
  9 10  2  0  0  0  0
  9 11  1  0  0  0  0
 10 31  1  0  0  0  0
 11 12  1  0  0  0  0
 12 15  2  0  0  0  0
 12 20  1  0  0  0  0
 13 17  2  0  0  0  0
 13 18  1  0  0  0  0
 14 19  1  0  0  0  0
 15 16  1  0  0  0  0
 15 33  1  0  0  0  0
 16 21  2  0  0  0  0
 16 22  1  0  0  0  0
 17 23  1  0  0  0  0
 17 34  1  0  0  0  0
 18 24  2  0  0  0  0
 18 35  1  0  0  0  0
 19 36  1  0  0  0  0
 19 37  1  0  0  0  0
 19 38  1  0  0  0  0
 21 26  1  0  0  0  0
 21 39  1  0  0  0  0
 22 27  2  0  0  0  0
 22 40  1  0  0  0  0
 23 25  2  0  0  0  0
 23 41  1  0  0  0  0
 24 25  1  0  0  0  0
 24 42  1  0  0  0  0
 25 43  1  0  0  0  0
 26 28  2  0  0  0  0
 26 44  1  0  0  0  0
 27 28  1  0  0  0  0
 27 45  1  0  0  0  0
 28 46  1  0  0  0  0
 29 30  1  0  0  0  0
 29 47  1  0  0  0  0
 29 48  1  0  0  0  0
 30 49  1  0  0  0  0
 30 50  1  0  0  0  0
 30 51  1  0  0  0  0
M  END
> <PUBCHEM_COMPOUND_CID>
5336094

> <PUBCHEM_CONFORMER_RMSD>
1

> <PUBCHEM_CONFORMER_DIVERSEORDER>
1
117
49
27
53
98
99
90
19
29
50
23
118
89
55
102
32
67
109
87
133
30
78
73
150
63
110
69
46
155
18
85
134
80
20
141
135
14
125
143
100
113
84
97
74
38
79
145
104
56
81
17
5
34
70
123
136
119
139
24
111
91
131
11
149
47
44
116
57
59
138
36
6
22
92
4
75
25
71
86
51
61
9
115
42
15
83
77
45
37
101
147
68
64
142
48
151
26
12
132
124
72
153
10
82
35
137
107
58
52
127
130
13
43
96
114
39
128
3
8
140
103
60
28
95
54
112
21
146
152
93
16
2
106
33
129
40
94
126
66
122
148
120
7
41
76
108
88
105
62
144
31
65
154
121

> <PUBCHEM_MMFF94_PARTIAL_CHARGES>
42
1 -0.08
10 -0.15
11 0.64
12 0.03
13 0.1
14 0.6
15 -0.18
16 0.03
17 -0.15
18 -0.15
19 0.06
2 -0.43
20 0.71
21 -0.15
22 -0.15
23 -0.15
24 -0.15
25 -0.15
26 -0.15
27 -0.15
28 -0.15
29 0.28
3 -0.57
31 0.15
32 0.4
33 0.15
34 0.15
35 0.15
39 0.15
4 -0.57
40 0.15
41 0.15
42 0.15
43 0.15
44 0.15
45 0.15
46 0.15
5 -0.57
6 -0.58
7 -0.09
8 0.12
9 -0.05

> <PUBCHEM_EFFECTIVE_ROTOR_COUNT>
9

> <PUBCHEM_PHARMACOPHORE_FEATURES>
9
1 12 anion
1 3 acceptor
1 4 acceptor
1 5 acceptor
1 6 cation
1 6 donor
5 1 7 8 9 10 rings
6 13 17 18 23 24 25 rings
6 16 21 22 26 27 28 rings

> <PUBCHEM_HEAVY_ATOM_COUNT>
30

> <PUBCHEM_ATOM_DEF_STEREO_COUNT>
0

> <PUBCHEM_ATOM_UDEF_STEREO_COUNT>
0

> <PUBCHEM_BOND_DEF_STEREO_COUNT>
1

> <PUBCHEM_BOND_UDEF_STEREO_COUNT>
0

> <PUBCHEM_ISOTOPIC_ATOM_COUNT>
0

> <PUBCHEM_COMPONENT_COUNT>
1

> <PUBCHEM_CACTVS_TAUTO_COUNT>
9

> <PUBCHEM_CONFORMER_ID>
00516C1E00000001

> <PUBCHEM_MMFF94_ENERGY>
95.1117

> <PUBCHEM_FEATURE_SELFOVERLAP>
45.671

> <PUBCHEM_SHAPE_FINGERPRINT>
10165383 225 18408323315473398908
10369192 42 18333730251906484740
10673678 19 18334583485672303876
10835480 77 18261951848175944489
11135609 187 18410855507900842880
11578080 2 18117271459330759525
11646440 116 14779269695943454693
11719270 70 18411132520369538458
12107183 9 7925909275042939353
12236239 1 18201721721401464577
12422481 6 17313392270012615212
12788726 201 17346320332698643699
12977781 61 17459776785822701626
13540713 5 17771637753865883944
13968360 50 18409448068634978194
14767858 380 18272933833973776960
14840074 17 17561080293984552405
15131766 46 17389393920462591084
15183329 4 15985388884500452780
15537594 2 17846491530912496559
15840311 113 18044945567713868533
15849732 13 17489586787903141185
16090146 7 15769227161885381558
17349148 13 12829214355916187842
19315958 150 18334860468835604251
19319366 153 18272364248665447030
20554085 129 18130775786224176930
22224240 67 18040995163255950010
23522609 53 17702405991117543233
23559900 14 18409442605858376153
23569917 315 18340776966390556650
24771293 8 17313108557453227053
249057 3 16415194620503645120
27425 322 17845649378363053380
4073 2 18261397720259371251
4325135 7 18113898277424742201
4340502 62 18410015429118788086
6058803 2 17698734601258436569
7399639 24 17822284626864735694

> <PUBCHEM_SHAPE_MULTIPOLES>
592.78
17.81
2.83
1.89
3.95
3.43
-1.91
-9.88
1.26
-3.47
-0.05
0.58
-0.51
-0.53

> <PUBCHEM_SHAPE_SELFOVERLAP>
1268.115

> <PUBCHEM_SHAPE_VOLUME>
327.6

> <PUBCHEM_COORDINATE_TYPE>
2
5
10

$$$$
