659499
  -OEChem-01171809153D

 26 28  0     0  0  0  0  0  0999 V2000
   -4.6881    2.5825   -0.4163 Br  0  0  0  0  0  0  0  0  0  0  0  0
   -1.4878   -2.9070    0.4159 Cl  0  0  0  0  0  0  0  0  0  0  0  0
    0.3628    1.0189    0.3915 O   0  0  0  0  0  0  0  0  0  0  0  0
    0.6794   -1.0722   -0.4232 N   0  0  0  0  0  0  0  0  0  0  0  0
    5.5942   -0.4843   -0.3542 N   0  0  0  0  0  0  0  0  0  0  0  0
    1.8972   -0.4666   -0.2289 C   0  0  0  0  0  0  0  0  0  0  0  0
    1.7074    0.8139    0.2695 C   0  0  0  0  0  0  0  0  0  0  0  0
   -0.1803   -0.1529   -0.0423 C   0  0  0  0  0  0  0  0  0  0  0  0
   -1.6158   -0.2064   -0.0142 C   0  0  0  0  0  0  0  0  0  0  0  0
    3.2055   -0.9223   -0.4457 C   0  0  0  0  0  0  0  0  0  0  0  0
    2.7295    1.7027    0.5789 C   0  0  0  0  0  0  0  0  0  0  0  0
    4.2643   -0.0532   -0.1450 C   0  0  0  0  0  0  0  0  0  0  0  0
    4.0284    1.2326    0.3570 C   0  0  0  0  0  0  0  0  0  0  0  0
   -2.3333    0.9818   -0.1936 C   0  0  0  0  0  0  0  0  0  0  0  0
   -2.3128   -1.4040    0.1869 C   0  0  0  0  0  0  0  0  0  0  0  0
   -3.7281    0.9732   -0.1725 C   0  0  0  0  0  0  0  0  0  0  0  0
   -3.7074   -1.4126    0.2080 C   0  0  0  0  0  0  0  0  0  0  0  0
   -4.4150   -0.2242    0.0282 C   0  0  0  0  0  0  0  0  0  0  0  0
    3.3864   -1.9193   -0.8351 H   0  0  0  0  0  0  0  0  0  0  0  0
    2.5362    2.6951    0.9667 H   0  0  0  0  0  0  0  0  0  0  0  0
    4.8649    1.8910    0.5834 H   0  0  0  0  0  0  0  0  0  0  0  0
   -1.8144    1.9239   -0.3620 H   0  0  0  0  0  0  0  0  0  0  0  0
   -4.2586   -2.3367    0.3633 H   0  0  0  0  0  0  0  0  0  0  0  0
   -5.5016   -0.2482    0.0474 H   0  0  0  0  0  0  0  0  0  0  0  0
    5.7741   -1.4120   -0.7146 H   0  0  0  0  0  0  0  0  0  0  0  0
    6.3658    0.1331   -0.1392 H   0  0  0  0  0  0  0  0  0  0  0  0
  1 16  1  0  0  0  0
  2 15  1  0  0  0  0
  3  7  1  0  0  0  0
  3  8  1  0  0  0  0
  4  6  1  0  0  0  0
  4  8  2  0  0  0  0
  5 12  1  0  0  0  0
  5 25  1  0  0  0  0
  5 26  1  0  0  0  0
  6  7  2  0  0  0  0
  6 10  1  0  0  0  0
  7 11  1  0  0  0  0
  8  9  1  0  0  0  0
  9 14  1  0  0  0  0
  9 15  2  0  0  0  0
 10 12  2  0  0  0  0
 10 19  1  0  0  0  0
 11 13  2  0  0  0  0
 11 20  1  0  0  0  0
 12 13  1  0  0  0  0
 13 21  1  0  0  0  0
 14 16  2  0  0  0  0
 14 22  1  0  0  0  0
 15 17  1  0  0  0  0
 16 18  1  0  0  0  0
 17 18  2  0  0  0  0
 17 23  1  0  0  0  0
 18 24  1  0  0  0  0
M  END
> <PUBCHEM_COMPOUND_CID>
659499

> <PUBCHEM_CONFORMER_RMSD>
0.6

> <PUBCHEM_CONFORMER_DIVERSEORDER>
1
6
4
2
3
5

> <PUBCHEM_MMFF94_PARTIAL_CHARGES>
26
1 -0.11
10 -0.15
11 -0.15
12 0.1
13 -0.15
14 -0.15
15 0.18
16 0.11
17 -0.15
18 -0.15
19 0.15
2 -0.18
20 0.15
21 0.15
22 0.15
23 0.15
24 0.15
25 0.4
26 0.4
3 -0.28
4 -0.57
5 -0.9
6 0.23
7 0.14
8 0.43
9 0.05

> <PUBCHEM_EFFECTIVE_ROTOR_COUNT>
1

> <PUBCHEM_PHARMACOPHORE_FEATURES>
6
1 1 hydrophobe
1 5 cation
1 5 donor
5 3 4 6 7 8 rings
6 6 7 10 11 12 13 rings
6 9 14 15 16 17 18 rings

> <PUBCHEM_HEAVY_ATOM_COUNT>
18

> <PUBCHEM_ATOM_DEF_STEREO_COUNT>
0

> <PUBCHEM_ATOM_UDEF_STEREO_COUNT>
0

> <PUBCHEM_BOND_DEF_STEREO_COUNT>
0

> <PUBCHEM_BOND_UDEF_STEREO_COUNT>
0

> <PUBCHEM_ISOTOPIC_ATOM_COUNT>
0

> <PUBCHEM_COMPONENT_COUNT>
1

> <PUBCHEM_CACTVS_TAUTO_COUNT>
1

> <PUBCHEM_CONFORMER_ID>
000A102B00000001

> <PUBCHEM_MMFF94_ENERGY>
50.7494

> <PUBCHEM_FEATURE_SELFOVERLAP>
30.564

> <PUBCHEM_SHAPE_FINGERPRINT>
10014705 185 18408601453239688021
10608611 8 18340766030796334305
10646746 165 18408884040101043436
11405975 8 18408320008190338816
11471102 20 18202282524446081548
12173636 292 18408600366702288935
12236239 1 16805323301309564743
12390115 104 18269007418544197929
12403259 226 18055348291625124475
12403259 415 18343299292480451361
12500047 106 18409164411339789279
12507560 40 18341891943624963072
13544592 145 18268440052757663774
13675066 3 18130784611780608584
13760787 19 18186239533147654322
15042514 8 18118691148260317475
15196674 1 18412544335922019664
15219456 202 18342176695397716579
15242439 84 18342176652748834532
15375358 24 18343584044590860358
17804303 29 18410859901129627148
17844677 252 18336554901140814732
18186145 218 18335696126708797821
200 152 17346598581833186819
20279233 1 18343309183895460014
20510252 161 18413390956186952353
20645477 56 18335140848163241605
20645477 70 17561091289137585142
21033648 29 18412254043615184977
21065198 57 18410574032659842074
21065201 7 18334007319792776562
21267235 1 18411146865175100147
21279426 13 18268434525324696814
21421861 104 17605545545107889234
21709351 56 18341607126973883540
221490 88 18267309927003655378
23175994 123 17561090219326731369
23402539 116 18412820274822938725
23402655 69 18130501938355366421
23557571 272 18411427214833423877
23559900 14 18270962337132950182
3004659 81 18261398798496836414
335352 9 18339642239913307854
3545911 37 18411983533721310693
4214541 1 18411138034817174673
474 4 16372142228794499516
495365 180 17489008427717253864
5104073 3 18411699902259314888
542803 24 17240486905386396276
559249 180 18336261250279960234
59124914 9 18196091041279142569
633830 44 17748826354013111192
69090 78 18341891930866850111
77779 3 18410293639883151040
8809292 202 18337957899357650634
90127 26 18261399974357617448
9709674 26 18341899631384691294

> <PUBCHEM_SHAPE_MULTIPOLES>
362.41
10.47
2.41
0.71
4.06
0.39
0
-3.49
0.84
-2.62
-0.18
0.07
-0.04
0.96

> <PUBCHEM_SHAPE_SELFOVERLAP>
785.45

> <PUBCHEM_SHAPE_VOLUME>
204.9

> <PUBCHEM_COORDINATE_TYPE>
2
5
10

$$$$
