2127869
  -OEChem-01171809373D

 57 62  0     0  0  0  0  0  0999 V2000
    3.2657   -0.0259   -0.0522 O   0  0  0  0  0  0  0  0  0  0  0  0
    1.0200   -2.6630    0.2754 O   0  0  0  0  0  0  0  0  0  0  0  0
   -5.8236    0.0133    0.0897 N   0  0  0  0  0  0  0  0  0  0  0  0
   -6.8974   -0.2928   -1.7865 N   0  0  0  0  0  0  0  0  0  0  0  0
   -5.5457   -0.4147   -2.0332 N   0  0  0  0  0  0  0  0  0  0  0  0
    0.6670   -0.3913   -0.2195 N   0  0  0  0  0  0  0  0  0  0  0  0
   -7.5730    1.6729    2.1667 C   0  0  0  0  0  0  0  0  0  0  0  0
   -6.0571    1.6256    1.9595 C   0  0  0  0  0  0  0  0  0  0  0  0
   -8.4055    1.5558    0.8867 C   0  0  0  0  0  0  0  0  0  0  0  0
   -5.5401    0.2710    1.4825 C   0  0  0  0  0  0  0  0  0  0  0  0
   -8.3325    0.1829    0.2203 C   0  0  0  0  0  0  0  0  0  0  0  0
   -7.0547   -0.0333   -0.5032 C   0  0  0  0  0  0  0  0  0  0  0  0
   -4.9175   -0.2270   -0.8952 C   0  0  0  0  0  0  0  0  0  0  0  0
   -3.4849   -0.2687   -0.7219 C   0  0  0  0  0  0  0  0  0  0  0  0
    5.0465   -1.3386    0.3968 C   0  0  0  0  0  0  0  0  0  0  0  0
    4.6244   -0.0507    0.0816 C   0  0  0  0  0  0  0  0  0  0  0  0
   -2.7310    0.8949   -0.8679 C   0  0  0  0  0  0  0  0  0  0  0  0
   -2.8568   -1.4737   -0.4087 C   0  0  0  0  0  0  0  0  0  0  0  0
    3.8698   -2.1312    0.4553 C   0  0  0  0  0  0  0  0  0  0  0  0
    5.4996    1.0437   -0.0690 C   0  0  0  0  0  0  0  0  0  0  0  0
    2.8827   -1.2778    0.1795 C   0  0  0  0  0  0  0  0  0  0  0  0
    6.8802    0.7916    0.1158 C   0  0  0  0  0  0  0  0  0  0  0  0
   -0.7175   -0.3510   -0.3872 C   0  0  0  0  0  0  0  0  0  0  0  0
   -1.3468    0.8538   -0.7007 C   0  0  0  0  0  0  0  0  0  0  0  0
   -1.4725   -1.5149   -0.2413 C   0  0  0  0  0  0  0  0  0  0  0  0
    6.4205   -1.5725    0.5767 C   0  0  0  0  0  0  0  0  0  0  0  0
    7.3199   -0.5045    0.4339 C   0  0  0  0  0  0  0  0  0  0  0  0
    1.4176   -1.5178    0.0923 C   0  0  0  0  0  0  0  0  0  0  0  0
    3.7892   -3.5736    0.7574 C   0  0  0  0  0  0  0  0  0  0  0  0
    5.0316    2.3313   -0.3877 C   0  0  0  0  0  0  0  0  0  0  0  0
    7.7729    1.8648   -0.0279 C   0  0  0  0  0  0  0  0  0  0  0  0
    5.9425    3.3766   -0.5237 C   0  0  0  0  0  0  0  0  0  0  0  0
    7.3067    3.1446   -0.3446 C   0  0  0  0  0  0  0  0  0  0  0  0
   -5.7509    2.4187    1.2662 H   0  0  0  0  0  0  0  0  0  0  0  0
   -5.5839    1.8487    2.9238 H   0  0  0  0  0  0  0  0  0  0  0  0
   -7.8742    0.8928    2.8767 H   0  0  0  0  0  0  0  0  0  0  0  0
   -7.8179    2.6318    2.6407 H   0  0  0  0  0  0  0  0  0  0  0  0
   -8.1161    2.3444    0.1809 H   0  0  0  0  0  0  0  0  0  0  0  0
   -9.4525    1.7446    1.1560 H   0  0  0  0  0  0  0  0  0  0  0  0
   -4.4585    0.2304    1.6413 H   0  0  0  0  0  0  0  0  0  0  0  0
   -5.9803   -0.5497    2.0609 H   0  0  0  0  0  0  0  0  0  0  0  0
   -9.1542    0.1031   -0.5020 H   0  0  0  0  0  0  0  0  0  0  0  0
   -8.4862   -0.6136    0.9577 H   0  0  0  0  0  0  0  0  0  0  0  0
   -3.2072    1.8418   -1.1112 H   0  0  0  0  0  0  0  0  0  0  0  0
   -3.4335   -2.3884   -0.2918 H   0  0  0  0  0  0  0  0  0  0  0  0
    6.7948   -2.5619    0.8235 H   0  0  0  0  0  0  0  0  0  0  0  0
   -0.7706    1.7683   -0.8169 H   0  0  0  0  0  0  0  0  0  0  0  0
   -1.0748   -2.4891   -0.0005 H   0  0  0  0  0  0  0  0  0  0  0  0
    8.3811   -0.7019    0.5767 H   0  0  0  0  0  0  0  0  0  0  0  0
    1.1605    0.4900   -0.3435 H   0  0  0  0  0  0  0  0  0  0  0  0
    3.3529   -4.1217   -0.0842 H   0  0  0  0  0  0  0  0  0  0  0  0
    4.7755   -4.0052    0.9539 H   0  0  0  0  0  0  0  0  0  0  0  0
    3.1718   -3.7499    1.6444 H   0  0  0  0  0  0  0  0  0  0  0  0
    3.9719    2.5262   -0.5297 H   0  0  0  0  0  0  0  0  0  0  0  0
    8.8424    1.7156    0.1055 H   0  0  0  0  0  0  0  0  0  0  0  0
    5.5906    4.3744   -0.7695 H   0  0  0  0  0  0  0  0  0  0  0  0
    8.0123    3.9639   -0.4519 H   0  0  0  0  0  0  0  0  0  0  0  0
  1 16  1  0  0  0  0
  1 21  1  0  0  0  0
  2 28  2  0  0  0  0
  3 10  1  0  0  0  0
  3 12  1  0  0  0  0
  3 13  1  0  0  0  0
  4  5  1  0  0  0  0
  4 12  2  0  0  0  0
  5 13  2  0  0  0  0
  6 23  1  0  0  0  0
  6 28  1  0  0  0  0
  6 50  1  0  0  0  0
  7  8  1  0  0  0  0
  7  9  1  0  0  0  0
  7 36  1  0  0  0  0
  7 37  1  0  0  0  0
  8 10  1  0  0  0  0
  8 34  1  0  0  0  0
  8 35  1  0  0  0  0
  9 11  1  0  0  0  0
  9 38  1  0  0  0  0
  9 39  1  0  0  0  0
 10 40  1  0  0  0  0
 10 41  1  0  0  0  0
 11 12  1  0  0  0  0
 11 42  1  0  0  0  0
 11 43  1  0  0  0  0
 13 14  1  0  0  0  0
 14 17  2  0  0  0  0
 14 18  1  0  0  0  0
 15 16  2  0  0  0  0
 15 19  1  0  0  0  0
 15 26  1  0  0  0  0
 16 20  1  0  0  0  0
 17 24  1  0  0  0  0
 17 44  1  0  0  0  0
 18 25  2  0  0  0  0
 18 45  1  0  0  0  0
 19 21  2  0  0  0  0
 19 29  1  0  0  0  0
 20 22  1  0  0  0  0
 20 30  2  0  0  0  0
 21 28  1  0  0  0  0
 22 27  1  0  0  0  0
 22 31  2  0  0  0  0
 23 24  2  0  0  0  0
 23 25  1  0  0  0  0
 24 47  1  0  0  0  0
 25 48  1  0  0  0  0
 26 27  2  0  0  0  0
 26 46  1  0  0  0  0
 27 49  1  0  0  0  0
 29 51  1  0  0  0  0
 29 52  1  0  0  0  0
 29 53  1  0  0  0  0
 30 32  1  0  0  0  0
 30 54  1  0  0  0  0
 31 33  1  0  0  0  0
 31 55  1  0  0  0  0
 32 33  2  0  0  0  0
 32 56  1  0  0  0  0
 33 57  1  0  0  0  0
M  END
> <PUBCHEM_COMPOUND_CID>
2127869

> <PUBCHEM_CONFORMER_RMSD>
0.8

> <PUBCHEM_CONFORMER_DIVERSEORDER>
1
9
16
8
13
4
14
18
7
17
3
15
10
5
11
6
12
2

> <PUBCHEM_MMFF94_PARTIAL_CHARGES>
38
1 -0.28
10 0.26
11 0.18
12 0.01
13 0.13
14 0.05
16 0.14
17 -0.15
18 -0.15
19 -0.18
2 -0.57
21 0.05
23 0.12
24 -0.15
25 -0.15
26 -0.15
27 -0.15
28 0.71
29 0.18
3 0.05
30 -0.15
31 -0.15
32 -0.15
33 -0.15
4 -0.34
44 0.15
45 0.15
46 0.15
47 0.15
48 0.15
49 0.15
5 -0.34
50 0.37
54 0.15
55 0.15
56 0.15
57 0.15
6 -0.55

> <PUBCHEM_EFFECTIVE_ROTOR_COUNT>
5

> <PUBCHEM_PHARMACOPHORE_FEATURES>
11
1 1 acceptor
1 2 acceptor
1 6 donor
3 3 4 12 cation
3 3 5 13 cation
5 1 15 16 19 21 rings
5 3 4 5 12 13 rings
6 14 17 18 23 24 25 rings
6 15 16 20 22 26 27 rings
6 20 22 30 31 32 33 rings
7 3 7 8 9 10 11 12 rings

> <PUBCHEM_HEAVY_ATOM_COUNT>
33

> <PUBCHEM_ATOM_DEF_STEREO_COUNT>
0

> <PUBCHEM_ATOM_UDEF_STEREO_COUNT>
0

> <PUBCHEM_BOND_DEF_STEREO_COUNT>
0

> <PUBCHEM_BOND_UDEF_STEREO_COUNT>
0

> <PUBCHEM_ISOTOPIC_ATOM_COUNT>
0

> <PUBCHEM_COMPONENT_COUNT>
1

> <PUBCHEM_CACTVS_TAUTO_COUNT>
3

> <PUBCHEM_CONFORMER_ID>
002077FD00000001

> <PUBCHEM_MMFF94_ENERGY>
79.3422

> <PUBCHEM_FEATURE_SELFOVERLAP>
58.477

> <PUBCHEM_SHAPE_FINGERPRINT>
10 15 17530962501208707582
10299344 5 18201998820128110759
10411042 1 17975404721875598586
10906281 52 18202570574938984767
11315181 36 18342173376659504551
11456790 92 18114172005077322120
11578821 258 18270401586741770969
12539765 74 18059862744086889103
13627175 23 18342742918111170360
14251764 18 18131067130523964833
14394314 77 18337673138979365780
14461889 52 16081090367865456635
14849402 71 18341614849963742273
14856354 85 17203602727582344943
15064981 194 18194413414199571382
15183329 4 17489591185764718009
15198563 99 13901920977029415043
15276724 80 18410007702630975885
15328684 2 17846218791851878795
15400415 2 18335414729553948430
15419008 47 16805597066767700509
15419008 91 16950548987687318405
15461852 350 16128362776356630245
15483637 11 18045772395994482996
1577012 14 18059856151844299547
15840311 113 18408608054467070934
16728433 281 15840728274739205033
16992752 21 17632005477799968151
1754908 1 16443066101626621065
19302320 297 17895751924655919788
19303781 99 14997714181835960427
20157964 124 18335697248497147910
21521721 280 18334857220753853122
21792934 111 17675925378975643797
21792964 463 18059030379488065561
21814621 53 16661193733794075543
23081809 10 17989198231761205639
23522609 53 18059586775574483225
24204213 310 18060148600242348801
24771293 8 18408887364516773837
255183 451 17985551049299018966
2747138 104 17240489087150921405
3092352 35 18131067138893074951
3383291 50 16153716427391464305
34797466 226 18343302553009391406
3711267 37 18130797728727444889
394071 54 18260831501192005652
397830 11 17386015030154270163
4073 2 18260548965253644483
4169191 19 18411134736772882597
4339292 15 15068628232357145251
44555599 121 18343867714248588041
445580 37 16773802476722173593
48014 12 17417541207532339137
5109719 28 18187362134577499448
5758199 1 18412544310305255227
58083652 198 18262226734519660341
5911458 16 18202289099730094025
59682541 35 17821736048383109107
6057620 51 18343294891104453927
6328613 192 18342740736758127945

> <PUBCHEM_SHAPE_MULTIPOLES>
647.46
29.14
3.06
1.31
19.41
0.33
-0.2
16.6
-4.8
-7.39
-0.45
3.55
0.34
-3.57

> <PUBCHEM_SHAPE_SELFOVERLAP>
1457.916

> <PUBCHEM_SHAPE_VOLUME>
340.3

> <PUBCHEM_COORDINATE_TYPE>
2
5
10

$$$$
