2397406
  -OEChem-01171810123D

 47 49  0     0  0  0  0  0  0999 V2000
    3.2503    0.5727   -0.0350 O   0  0  0  0  0  0  0  0  0  0  0  0
    0.9283   -0.6124   -0.0439 O   0  0  0  0  0  0  0  0  0  0  0  0
    4.7118    2.3683   -0.0115 O   0  0  0  0  0  0  0  0  0  0  0  0
    4.2824   -1.5265    1.1073 O   0  0  0  0  0  0  0  0  0  0  0  0
   -5.6423   -0.2561   -0.0053 N   0  0  0  0  0  0  0  0  0  0  0  0
   -0.2830    1.4085   -0.0013 N   0  0  0  0  0  0  0  0  0  0  0  0
    6.4240   -2.0699    0.4469 N   0  0  0  0  0  0  0  0  0  0  0  0
   -8.4125   -1.0537   -0.1452 C   0  0  0  0  0  0  0  0  0  0  0  0
   -7.3089   -1.9070   -0.7584 C   0  0  0  0  0  0  0  0  0  0  0  0
   -7.8709   -0.2692    1.0434 C   0  0  0  0  0  0  0  0  0  0  0  0
   -6.0999   -1.0594   -1.1481 C   0  0  0  0  0  0  0  0  0  0  0  0
   -6.6563    0.5730    0.6561 C   0  0  0  0  0  0  0  0  0  0  0  0
   -4.3049    0.1593   -0.0033 C   0  0  0  0  0  0  0  0  0  0  0  0
   -3.9719    1.5273    0.0236 C   0  0  0  0  0  0  0  0  0  0  0  0
   -3.2553   -0.7794   -0.0289 C   0  0  0  0  0  0  0  0  0  0  0  0
   -2.6397    1.9409    0.0247 C   0  0  0  0  0  0  0  0  0  0  0  0
   -1.9232   -0.3657   -0.0277 C   0  0  0  0  0  0  0  0  0  0  0  0
   -1.6154    0.9945   -0.0010 C   0  0  0  0  0  0  0  0  0  0  0  0
    0.8705    0.6134   -0.0247 C   0  0  0  0  0  0  0  0  0  0  0  0
    2.1368    1.4417   -0.0163 C   0  0  0  0  0  0  0  0  0  0  0  0
    5.5199    0.1405   -0.0519 C   0  0  0  0  0  0  0  0  0  0  0  0
    4.4776    1.1703   -0.0302 C   0  0  0  0  0  0  0  0  0  0  0  0
    5.3357   -1.2165    0.5558 C   0  0  0  0  0  0  0  0  0  0  0  0
    6.6842    0.4444   -0.6466 C   0  0  0  0  0  0  0  0  0  0  0  0
    7.7617   -0.5135   -0.7101 C   0  0  0  0  0  0  0  0  0  0  0  0
    7.6010   -1.7254   -0.1684 C   0  0  0  0  0  0  0  0  0  0  0  0
   -8.8091   -0.3617   -0.8978 H   0  0  0  0  0  0  0  0  0  0  0  0
   -9.2421   -1.6928    0.1769 H   0  0  0  0  0  0  0  0  0  0  0  0
   -6.9997   -2.6729   -0.0358 H   0  0  0  0  0  0  0  0  0  0  0  0
   -7.6920   -2.4324   -1.6402 H   0  0  0  0  0  0  0  0  0  0  0  0
   -8.6551    0.3784    1.4510 H   0  0  0  0  0  0  0  0  0  0  0  0
   -7.5879   -0.9705    1.8387 H   0  0  0  0  0  0  0  0  0  0  0  0
   -6.3613   -0.3899   -1.9772 H   0  0  0  0  0  0  0  0  0  0  0  0
   -5.3164   -1.7326   -1.5142 H   0  0  0  0  0  0  0  0  0  0  0  0
   -6.2547    1.0247    1.5716 H   0  0  0  0  0  0  0  0  0  0  0  0
   -6.9679    1.3847   -0.0131 H   0  0  0  0  0  0  0  0  0  0  0  0
   -4.7429    2.2938    0.0296 H   0  0  0  0  0  0  0  0  0  0  0  0
   -3.4725   -1.8453   -0.0366 H   0  0  0  0  0  0  0  0  0  0  0  0
   -2.4140    3.0043    0.0424 H   0  0  0  0  0  0  0  0  0  0  0  0
   -1.1862   -1.1563   -0.0458 H   0  0  0  0  0  0  0  0  0  0  0  0
   -0.1411    2.4163    0.0171 H   0  0  0  0  0  0  0  0  0  0  0  0
    2.1509    2.0539    0.8924 H   0  0  0  0  0  0  0  0  0  0  0  0
    2.1433    2.0832   -0.9048 H   0  0  0  0  0  0  0  0  0  0  0  0
    6.8674    1.4105   -1.1064 H   0  0  0  0  0  0  0  0  0  0  0  0
    6.3558   -3.0035    0.8412 H   0  0  0  0  0  0  0  0  0  0  0  0
    8.6859   -0.2295   -1.1991 H   0  0  0  0  0  0  0  0  0  0  0  0
    8.3726   -2.4845   -0.1853 H   0  0  0  0  0  0  0  0  0  0  0  0
  1 20  1  0  0  0  0
  1 22  1  0  0  0  0
  2 19  2  0  0  0  0
  3 22  2  0  0  0  0
  4 23  2  0  0  0  0
  5 11  1  0  0  0  0
  5 12  1  0  0  0  0
  5 13  1  0  0  0  0
  6 18  1  0  0  0  0
  6 19  1  0  0  0  0
  6 41  1  0  0  0  0
  7 23  1  0  0  0  0
  7 26  1  0  0  0  0
  7 45  1  0  0  0  0
  8  9  1  0  0  0  0
  8 10  1  0  0  0  0
  8 27  1  0  0  0  0
  8 28  1  0  0  0  0
  9 11  1  0  0  0  0
  9 29  1  0  0  0  0
  9 30  1  0  0  0  0
 10 12  1  0  0  0  0
 10 31  1  0  0  0  0
 10 32  1  0  0  0  0
 11 33  1  0  0  0  0
 11 34  1  0  0  0  0
 12 35  1  0  0  0  0
 12 36  1  0  0  0  0
 13 14  2  0  0  0  0
 13 15  1  0  0  0  0
 14 16  1  0  0  0  0
 14 37  1  0  0  0  0
 15 17  2  0  0  0  0
 15 38  1  0  0  0  0
 16 18  2  0  0  0  0
 16 39  1  0  0  0  0
 17 18  1  0  0  0  0
 17 40  1  0  0  0  0
 19 20  1  0  0  0  0
 20 42  1  0  0  0  0
 20 43  1  0  0  0  0
 21 22  1  0  0  0  0
 21 23  1  0  0  0  0
 21 24  2  0  0  0  0
 24 25  1  0  0  0  0
 24 44  1  0  0  0  0
 25 26  2  0  0  0  0
 25 46  1  0  0  0  0
 26 47  1  0  0  0  0
M  END
> <PUBCHEM_COMPOUND_CID>
2397406

> <PUBCHEM_CONFORMER_RMSD>
1

> <PUBCHEM_CONFORMER_DIVERSEORDER>
1
27
61
35
51
65
30
56
64
49
52
22
9
70
24
29
58
14
39
31
36
63
71
69
66
8
73
44
16
20
41
57
40
25
33
23
48
47
50
2
19
68
28
67
15
54
59
10
75
37
45
46
38
43
4
62
42
21
32
6
53
60
12
11
7
18
26
5
55
3
17
13
72
74
34

> <PUBCHEM_MMFF94_PARTIAL_CHARGES>
32
1 -0.43
11 0.37
12 0.37
13 0.1
14 -0.15
15 -0.15
16 -0.15
17 -0.15
18 0.12
19 0.57
2 -0.57
20 0.34
21 0.03
22 0.71
23 0.62
24 -0.15
25 -0.15
26 -0.04
3 -0.57
37 0.15
38 0.15
39 0.15
4 -0.57
40 0.15
41 0.37
44 0.15
45 0.37
46 0.15
47 0.15
5 -0.84
6 -0.55
7 -0.54

> <PUBCHEM_EFFECTIVE_ROTOR_COUNT>
8.2

> <PUBCHEM_PHARMACOPHORE_FEATURES>
10
1 2 acceptor
1 21 anion
1 3 acceptor
1 4 acceptor
1 5 cation
1 6 donor
1 7 donor
6 13 14 15 16 17 18 rings
6 5 8 9 10 11 12 rings
6 7 21 23 24 25 26 rings

> <PUBCHEM_HEAVY_ATOM_COUNT>
26

> <PUBCHEM_ATOM_DEF_STEREO_COUNT>
0

> <PUBCHEM_ATOM_UDEF_STEREO_COUNT>
0

> <PUBCHEM_BOND_DEF_STEREO_COUNT>
0

> <PUBCHEM_BOND_UDEF_STEREO_COUNT>
0

> <PUBCHEM_ISOTOPIC_ATOM_COUNT>
0

> <PUBCHEM_COMPONENT_COUNT>
1

> <PUBCHEM_CACTVS_TAUTO_COUNT>
6

> <PUBCHEM_CONFORMER_ID>
002494DE00000001

> <PUBCHEM_MMFF94_ENERGY>
76.0907

> <PUBCHEM_FEATURE_SELFOVERLAP>
50.746

> <PUBCHEM_SHAPE_FINGERPRINT>
10 15 12463570685925278862
10299344 5 18413673508509318523
11135926 11 18060696174770882567
11386260 185 16660648509033737532
11524674 6 16415478277138840623
11719270 70 17632861923188202326
12166972 35 18409731776515063160
12592606 108 18341895203426110423
13248334 5 17978790435156170605
13533116 47 18409728495534231680
13668630 136 18202285775862750156
13685833 64 18409449176504035320
13885169 127 18411982430152352265
14178184 131 18128537261981518527
14251764 18 18411421708616472942
15183329 4 18333447642562418595
15198563 99 16805594825005515573
15352257 5 18411700993418734815
15419008 47 15410895132634391914
15690457 1 18343299279653376791
15716309 27 18272089422672098189
15849732 13 16225768531939220527
1818759 1 18412552010991881887
19301679 30 17345202108431088934
2026 5 18265895762046774230
21130935 74 18201437016904720363
21150785 3 15574717992922525130
21267235 1 18410014329491018185
21315759 40 18343027696150034961
21315763 28 18413672426599962265
21360443 126 16877950472900059290
22224240 67 12463572876517284501
22956985 138 17414452584917630742
23035841 295 18202284719216470445
232437 2 18413109447314817678
23522609 53 18126032505446861873
23559900 14 18262235645959985129
23576562 1 13696453121596114603
3004659 81 18333167263456567448
33532 11 18410011026893276154
397830 11 14332830682186893567
4073 2 17968946417541540642
4325135 7 18341895186072044742
44389302 135 18129094538483516978
445580 126 9655577392708389734
465052 167 18272089362848420580
5283156 175 18409730664692741053
5937810 71 14273726323415259607
636775 72 8646498418880238911

> <PUBCHEM_SHAPE_MULTIPOLES>
496.65
28.14
2
0.83
1.68
0.09
-0.01
-13.81
0.88
-1.13
0.01
0.4
-0.2
-1.34

> <PUBCHEM_SHAPE_SELFOVERLAP>
1055.53

> <PUBCHEM_SHAPE_VOLUME>
273

> <PUBCHEM_COORDINATE_TYPE>
2
5
10

$$$$
