4891818
  -OEChem-01171809203D

 56 60  0     1  0  0  0  0  0999 V2000
   -3.2782    4.4744   -0.0366 Cl  0  0  0  0  0  0  0  0  0  0  0  0
    3.5837    2.0855   -0.1040 O   0  0  0  0  0  0  0  0  0  0  0  0
    5.4366   -2.0784   -1.2176 O   0  0  0  0  0  0  0  0  0  0  0  0
   -1.7131   -0.5195    1.4467 N   0  0  1  0  0  0  0  0  0  0  0  0
    1.3891    0.5169    1.1903 N   0  0  0  0  0  0  0  0  0  0  0  0
    1.3384   -1.7118    1.2122 N   0  0  0  0  0  0  0  0  0  0  0  0
    3.4350   -2.0506   -0.0312 N   0  0  0  0  0  0  0  0  0  0  0  0
    4.5308    0.0119   -0.6727 N   0  0  0  0  0  0  0  0  0  0  0  0
   -2.9575   -0.3989    2.2162 C   0  0  0  0  0  0  0  0  0  0  0  0
   -0.5530   -0.5469    2.3367 C   0  0  0  0  0  0  0  0  0  0  0  0
   -1.7472   -1.7323    0.6104 C   0  0  0  0  0  0  0  0  0  0  0  0
   -4.1360   -0.1620    1.2663 C   0  0  0  0  0  0  0  0  0  0  0  0
    0.7409   -0.6127    1.5696 C   0  0  0  0  0  0  0  0  0  0  0  0
   -2.9946   -1.8403   -0.2364 C   0  0  0  0  0  0  0  0  0  0  0  0
   -4.1531   -1.1215    0.1048 C   0  0  0  0  0  0  0  0  0  0  0  0
    2.5082    0.1027    0.5266 C   0  0  0  0  0  0  0  0  0  0  0  0
    2.4524   -1.2641    0.5542 C   0  0  0  0  0  0  0  0  0  0  0  0
    0.9822    1.8813    1.4349 C   0  0  0  0  0  0  0  0  0  0  0  0
   -3.0210   -2.7118   -1.3336 C   0  0  0  0  0  0  0  0  0  0  0  0
   -5.3078   -1.2557   -0.6771 C   0  0  0  0  0  0  0  0  0  0  0  0
    3.5508    0.8580   -0.0887 C   0  0  0  0  0  0  0  0  0  0  0  0
    0.1137    2.4031    0.3223 C   0  0  0  0  0  0  0  0  0  0  0  0
    4.5326   -1.4297   -0.6786 C   0  0  0  0  0  0  0  0  0  0  0  0
   -4.1783   -2.8460   -2.1002 C   0  0  0  0  0  0  0  0  0  0  0  0
   -5.3197   -2.1170   -1.7737 C   0  0  0  0  0  0  0  0  0  0  0  0
    3.3311   -3.5035    0.0240 C   0  0  0  0  0  0  0  0  0  0  0  0
    5.6520    0.6701   -1.3354 C   0  0  0  0  0  0  0  0  0  0  0  0
   -1.0404    3.1110    0.6292 C   0  0  0  0  0  0  0  0  0  0  0  0
    0.4790    2.1703   -0.9967 C   0  0  0  0  0  0  0  0  0  0  0  0
   -1.8446    3.5955   -0.4025 C   0  0  0  0  0  0  0  0  0  0  0  0
   -0.3252    2.6547   -2.0284 C   0  0  0  0  0  0  0  0  0  0  0  0
   -1.4869    3.3673   -1.7312 C   0  0  0  0  0  0  0  0  0  0  0  0
   -2.9042    0.4514    2.9073 H   0  0  0  0  0  0  0  0  0  0  0  0
   -3.1316   -1.2992    2.8210 H   0  0  0  0  0  0  0  0  0  0  0  0
   -0.5983   -1.4281    2.9928 H   0  0  0  0  0  0  0  0  0  0  0  0
   -0.5654    0.3109    3.0155 H   0  0  0  0  0  0  0  0  0  0  0  0
   -1.6788   -2.6397    1.2255 H   0  0  0  0  0  0  0  0  0  0  0  0
   -0.9035   -1.7210   -0.0888 H   0  0  0  0  0  0  0  0  0  0  0  0
   -4.0813    0.8578    0.8641 H   0  0  0  0  0  0  0  0  0  0  0  0
   -5.0701   -0.2483    1.8341 H   0  0  0  0  0  0  0  0  0  0  0  0
    1.8740    2.5078    1.5351 H   0  0  0  0  0  0  0  0  0  0  0  0
    0.4827    1.9390    2.4052 H   0  0  0  0  0  0  0  0  0  0  0  0
   -2.1392   -3.2909   -1.5961 H   0  0  0  0  0  0  0  0  0  0  0  0
   -6.2033   -0.6890   -0.4351 H   0  0  0  0  0  0  0  0  0  0  0  0
   -4.1898   -3.5200   -2.9518 H   0  0  0  0  0  0  0  0  0  0  0  0
   -6.2193   -2.2194   -2.3735 H   0  0  0  0  0  0  0  0  0  0  0  0
    3.3183   -3.8194    1.0717 H   0  0  0  0  0  0  0  0  0  0  0  0
    2.4025   -3.8124   -0.4659 H   0  0  0  0  0  0  0  0  0  0  0  0
    4.1728   -3.9856   -0.4795 H   0  0  0  0  0  0  0  0  0  0  0  0
    5.5885    1.7597   -1.2952 H   0  0  0  0  0  0  0  0  0  0  0  0
    6.5807    0.3444   -0.8560 H   0  0  0  0  0  0  0  0  0  0  0  0
    5.6768    0.3482   -2.3814 H   0  0  0  0  0  0  0  0  0  0  0  0
   -1.3173    3.2869    1.6658 H   0  0  0  0  0  0  0  0  0  0  0  0
    1.3651    1.6270   -1.2896 H   0  0  0  0  0  0  0  0  0  0  0  0
   -0.0474    2.4772   -3.0633 H   0  0  0  0  0  0  0  0  0  0  0  0
   -2.1040    3.7384   -2.5455 H   0  0  0  0  0  0  0  0  0  0  0  0
  1 30  1  0  0  0  0
  2 21  2  0  0  0  0
  3 23  2  0  0  0  0
  4  9  1  0  0  0  0
  4 10  1  0  0  0  0
  4 11  1  0  0  0  0
  5 13  1  0  0  0  0
  5 16  1  0  0  0  0
  5 18  1  0  0  0  0
  6 13  2  0  0  0  0
  6 17  1  0  0  0  0
  7 17  1  0  0  0  0
  7 23  1  0  0  0  0
  7 26  1  0  0  0  0
  8 21  1  0  0  0  0
  8 23  1  0  0  0  0
  8 27  1  0  0  0  0
  9 12  1  0  0  0  0
  9 33  1  0  0  0  0
  9 34  1  0  0  0  0
 10 13  1  0  0  0  0
 10 35  1  0  0  0  0
 10 36  1  0  0  0  0
 11 14  1  0  0  0  0
 11 37  1  0  0  0  0
 11 38  1  0  0  0  0
 12 15  1  0  0  0  0
 12 39  1  0  0  0  0
 12 40  1  0  0  0  0
 14 15  1  0  0  0  0
 14 19  2  0  0  0  0
 15 20  2  0  0  0  0
 16 17  2  0  0  0  0
 16 21  1  0  0  0  0
 18 22  1  0  0  0  0
 18 41  1  0  0  0  0
 18 42  1  0  0  0  0
 19 24  1  0  0  0  0
 19 43  1  0  0  0  0
 20 25  1  0  0  0  0
 20 44  1  0  0  0  0
 22 28  2  0  0  0  0
 22 29  1  0  0  0  0
 24 25  2  0  0  0  0
 24 45  1  0  0  0  0
 25 46  1  0  0  0  0
 26 47  1  0  0  0  0
 26 48  1  0  0  0  0
 26 49  1  0  0  0  0
 27 50  1  0  0  0  0
 27 51  1  0  0  0  0
 27 52  1  0  0  0  0
 28 30  1  0  0  0  0
 28 53  1  0  0  0  0
 29 31  2  0  0  0  0
 29 54  1  0  0  0  0
 30 32  2  0  0  0  0
 31 32  1  0  0  0  0
 31 55  1  0  0  0  0
 32 56  1  0  0  0  0
M  END
> <PUBCHEM_COMPOUND_CID>
4891818

> <PUBCHEM_CONFORMER_RMSD>
0.8

> <PUBCHEM_CONFORMER_DIVERSEORDER>
1
204
231
28
224
219
59
79
201
216
80
239
57
235
226
165
227
94
246
220
151
223
209
183
29
99
97
181
211
229
137
98
69
221
245
70
138
186
210
102
9
89
156
108
177
193
217
234
60
218
58
85
202
78
243
107
77
244
242
38
68
65
106
136
104
232
182
109
33
208
175
225
81
90
180
154
101
240
26
110
149
162
174
166
134
222
205
12
161
130
233
88
157
195
87
192
83
103
32
67
45
159
84
241
62
199
105
176
164
15
184
37
93
25
63
86
126
206
160
171
61
51
194
96
236
66
248
228
230
207
179
64
203
14
187
146
152
82
100
49
163
237
53
173
196
189
8
131
23
200
142
197
95
188
198
238
7
128
6
191
54
71
144
212
13
30
115
113
147
247
42
27
129
215
46
10
132
24
213
111
16
112
18
20
140
139
141
72
214
11
172
48
116
52
114
120
43
119
118
50
117
47
150
4
5
158
124
2
56
155
185
3
55
123
190
125
127
170
167
135
121
143
168
153
122
36
133
31
34
92
35
91
22
19
44
145
41
21
148
169
17
178
40
39
75
73
76
74

> <PUBCHEM_MMFF94_PARTIAL_CHARGES>
40
1 -0.18
10 0.45
11 0.41
12 0.14
13 0.01
14 -0.14
15 -0.14
16 -0.24
17 0.29
18 0.4
19 -0.15
2 -0.57
20 -0.15
21 0.71
22 -0.14
23 0.69
24 -0.15
25 -0.15
26 0.3
27 0.3
28 -0.15
29 -0.15
3 -0.57
30 0.18
31 -0.15
32 -0.15
4 -0.81
43 0.15
44 0.15
45 0.15
46 0.15
5 0.05
53 0.15
54 0.15
55 0.15
56 0.15
6 -0.57
7 -0.42
8 -0.42
9 0.27

> <PUBCHEM_EFFECTIVE_ROTOR_COUNT>
4.8

> <PUBCHEM_PHARMACOPHORE_FEATURES>
9
1 2 acceptor
1 3 acceptor
1 4 cation
3 5 6 13 cation
5 5 6 13 16 17 rings
6 14 15 19 20 24 25 rings
6 22 28 29 30 31 32 rings
6 4 9 11 12 14 15 rings
6 7 8 16 17 21 23 rings

> <PUBCHEM_HEAVY_ATOM_COUNT>
32

> <PUBCHEM_ATOM_DEF_STEREO_COUNT>
0

> <PUBCHEM_ATOM_UDEF_STEREO_COUNT>
0

> <PUBCHEM_BOND_DEF_STEREO_COUNT>
0

> <PUBCHEM_BOND_UDEF_STEREO_COUNT>
0

> <PUBCHEM_ISOTOPIC_ATOM_COUNT>
0

> <PUBCHEM_COMPONENT_COUNT>
1

> <PUBCHEM_CACTVS_TAUTO_COUNT>
1

> <PUBCHEM_CONFORMER_ID>
004AA4AA00000001

> <PUBCHEM_MMFF94_ENERGY>
75.6105

> <PUBCHEM_FEATURE_SELFOVERLAP>
45.815

> <PUBCHEM_SHAPE_FINGERPRINT>
11115154 58 18341604976281834157
11513181 2 18339932519172438687
11552529 35 18201442428300100545
11578080 2 17987214695377943696
11621639 254 18121237608721788188
12160290 23 18044076970132632697
12166972 35 17986383611249378207
12355185 1 17836963296433283892
12422481 6 17831897601492649921
12633046 712 17130988655695500402
12788726 201 18334286552807114675
13911987 19 17750246961659664218
13947920 24 16660359328822283276
14537116 161 17829565645278871671
14681490 219 18336540620738188981
14910302 57 18131058329772245163
15210252 30 17604139436664947917
15276724 80 18262811648666866641
15324884 4 17758136065458694040
17357779 13 18187367657235724209
20764821 26 17623011188177759767
21344244 181 17409083600338830967
21641784 216 18041292001710688468
23559900 14 17203037599643167747
238 59 17323228686140363849
244849 19 17416377949350829752
26353 1 18261668268137549917
35225 105 17756687664577920413
3737641 26 18412261757085758894
4353968 344 18409452471709108318
437795 70 18189874519000357541
46194498 28 17462573032896692571
463206 1 18194402418777585063
5081480 168 17386563699884914069
5171179 24 18343016735525890912

> <PUBCHEM_SHAPE_MULTIPOLES>
623.77
10.71
5.08
2.03
4.01
4.1
0.14
-8.06
-5.22
-3.29
-2.07
-1.34
-0.25
-1.1

> <PUBCHEM_SHAPE_SELFOVERLAP>
1363.487

> <PUBCHEM_SHAPE_VOLUME>
340.3

> <PUBCHEM_COORDINATE_TYPE>
2
5
10

$$$$
