6622623
  -OEChem-01171809243D

 35 37  0     0  0  0  0  0  0999 V2000
    0.2926   -1.4066   -0.1259 O   0  0  0  0  0  0  0  0  0  0  0  0
    3.9497    0.7728    0.1011 N   0  0  0  0  0  0  0  0  0  0  0  0
   -0.6450    0.7214   -0.1022 N   0  0  0  0  0  0  0  0  0  0  0  0
    3.3969    2.0158    0.1342 N   0  0  0  0  0  0  0  0  0  0  0  0
    2.9575   -0.2096    0.0124 C   0  0  0  0  0  0  0  0  0  0  0  0
    1.7484    0.4405   -0.0104 C   0  0  0  0  0  0  0  0  0  0  0  0
   -4.7400   -0.1334   -0.2191 C   0  0  0  0  0  0  0  0  0  0  0  0
   -2.0321    0.4316   -0.1418 C   0  0  0  0  0  0  0  0  0  0  0  0
   -6.1995   -0.4382   -0.2608 C   0  0  0  0  0  0  0  0  0  0  0  0
    0.4541   -0.1667   -0.0951 C   0  0  0  0  0  0  0  0  0  0  0  0
    2.0824    1.8009    0.0668 C   0  0  0  0  0  0  0  0  0  0  0  0
    3.3640   -1.5727   -0.0324 C   0  0  0  0  0  0  0  0  0  0  0  0
   -4.3050    1.1912   -0.1799 C   0  0  0  0  0  0  0  0  0  0  0  0
   -3.8102   -1.1733   -0.2194 C   0  0  0  0  0  0  0  0  0  0  0  0
   -2.9399    1.4761   -0.1410 C   0  0  0  0  0  0  0  0  0  0  0  0
   -2.4454   -0.8884   -0.1804 C   0  0  0  0  0  0  0  0  0  0  0  0
    5.3095    0.4450    0.1457 C   0  0  0  0  0  0  0  0  0  0  0  0
    4.6746   -1.8769    0.0111 C   0  0  0  0  0  0  0  0  0  0  0  0
    5.6888   -0.8419    0.1033 C   0  0  0  0  0  0  0  0  0  0  0  0
   -6.8015   -0.5876    1.1340 C   0  0  0  0  0  0  0  0  0  0  0  0
   -6.3736   -1.3583   -0.8328 H   0  0  0  0  0  0  0  0  0  0  0  0
   -6.7318    0.3527   -0.8040 H   0  0  0  0  0  0  0  0  0  0  0  0
   -0.4404    1.7166   -0.0721 H   0  0  0  0  0  0  0  0  0  0  0  0
    1.4354    2.6663    0.0787 H   0  0  0  0  0  0  0  0  0  0  0  0
    2.6292   -2.3664   -0.1018 H   0  0  0  0  0  0  0  0  0  0  0  0
   -5.0193    2.0102   -0.1775 H   0  0  0  0  0  0  0  0  0  0  0  0
   -4.1382   -2.2093   -0.2480 H   0  0  0  0  0  0  0  0  0  0  0  0
   -2.6117    2.5112   -0.1102 H   0  0  0  0  0  0  0  0  0  0  0  0
   -1.7966   -1.7503   -0.1830 H   0  0  0  0  0  0  0  0  0  0  0  0
    6.0164    1.2627    0.2144 H   0  0  0  0  0  0  0  0  0  0  0  0
    5.0071   -2.9087   -0.0220 H   0  0  0  0  0  0  0  0  0  0  0  0
    6.7322   -1.1311    0.1358 H   0  0  0  0  0  0  0  0  0  0  0  0
   -6.3208   -1.4011    1.6877 H   0  0  0  0  0  0  0  0  0  0  0  0
   -7.8707   -0.8103    1.0620 H   0  0  0  0  0  0  0  0  0  0  0  0
   -6.6837    0.3322    1.7167 H   0  0  0  0  0  0  0  0  0  0  0  0
  1 10  2  0  0  0  0
  2  4  1  0  0  0  0
  2  5  1  0  0  0  0
  2 17  1  0  0  0  0
  3  8  1  0  0  0  0
  3 10  1  0  0  0  0
  3 23  1  0  0  0  0
  4 11  2  0  0  0  0
  5  6  2  0  0  0  0
  5 12  1  0  0  0  0
  6 10  1  0  0  0  0
  6 11  1  0  0  0  0
  7  9  1  0  0  0  0
  7 13  2  0  0  0  0
  7 14  1  0  0  0  0
  8 15  2  0  0  0  0
  8 16  1  0  0  0  0
  9 20  1  0  0  0  0
  9 21  1  0  0  0  0
  9 22  1  0  0  0  0
 11 24  1  0  0  0  0
 12 18  2  0  0  0  0
 12 25  1  0  0  0  0
 13 15  1  0  0  0  0
 13 26  1  0  0  0  0
 14 16  2  0  0  0  0
 14 27  1  0  0  0  0
 15 28  1  0  0  0  0
 16 29  1  0  0  0  0
 17 19  2  0  0  0  0
 17 30  1  0  0  0  0
 18 19  1  0  0  0  0
 18 31  1  0  0  0  0
 19 32  1  0  0  0  0
 20 33  1  0  0  0  0
 20 34  1  0  0  0  0
 20 35  1  0  0  0  0
M  END
> <PUBCHEM_COMPOUND_CID>
6622623

> <PUBCHEM_CONFORMER_RMSD>
0.6

> <PUBCHEM_CONFORMER_DIVERSEORDER>
1
12
9
3
10
5
11
4
14
2
7
8
6
13
15

> <PUBCHEM_MMFF94_PARTIAL_CHARGES>
29
1 -0.57
10 0.72
11 0.14
12 -0.11
13 -0.15
14 -0.15
15 -0.15
16 -0.15
17 -0.18
18 -0.15
19 -0.15
2 0.6
23 0.37
24 0.15
25 0.15
26 0.15
27 0.15
28 0.15
29 0.15
3 -0.55
30 0.15
31 0.15
32 0.15
4 -0.71
5 -0.2
6 -0.09
7 -0.14
8 0.12
9 0.14

> <PUBCHEM_EFFECTIVE_ROTOR_COUNT>
4

> <PUBCHEM_PHARMACOPHORE_FEATURES>
7
1 1 acceptor
1 20 hydrophobe
1 3 donor
1 4 acceptor
5 2 4 5 6 11 rings
6 2 5 12 17 18 19 rings
6 7 8 13 14 15 16 rings

> <PUBCHEM_HEAVY_ATOM_COUNT>
20

> <PUBCHEM_ATOM_DEF_STEREO_COUNT>
0

> <PUBCHEM_ATOM_UDEF_STEREO_COUNT>
0

> <PUBCHEM_BOND_DEF_STEREO_COUNT>
0

> <PUBCHEM_BOND_UDEF_STEREO_COUNT>
0

> <PUBCHEM_ISOTOPIC_ATOM_COUNT>
0

> <PUBCHEM_COMPONENT_COUNT>
1

> <PUBCHEM_CACTVS_TAUTO_COUNT>
2

> <PUBCHEM_CONFORMER_ID>
00650D9F00000001

> <PUBCHEM_MMFF94_ENERGY>
51.1513

> <PUBCHEM_FEATURE_SELFOVERLAP>
35.63

> <PUBCHEM_SHAPE_FINGERPRINT>
10366900 7 15574432111642321269
10595046 47 18341611559453862125
11578080 2 16986575714643165914
12107183 9 17691970358184279857
12166972 35 18409733975617284105
12236239 1 17775566450772311439
12403259 415 18261664926711327797
12616971 3 17989201568950444061
12916748 109 18333733511253600129
13073987 5 18340204094470921856
13167372 99 18130794421623374865
13167823 11 18411978061532023071
13533116 47 18343019986651882338
13685833 64 18335141981411966131
14170010 4 18410853283286916864
1420 363 18113622291964874859
14251764 18 18408884040670619272
14341114 176 18410577288197664101
14350574 20 18261111867740047639
15196674 1 18411135809839512084
17834072 33 18412260644842170830
17844677 252 18409735045090293749
1813 80 17167864140907570084
18222031 100 16443066101483787061
19433438 28 18259983773595747949
19489759 90 16443061691222377789
200 152 18130784551244884505
20645477 70 18340768152805675230
21150785 3 16443073811008326342
21267235 1 18411143519316182494
21279426 13 18192991526099240046
220451 1 17989207066070830391
221357 26 18409726248807153084
23402539 116 18201993331344627069
23522609 53 18195557889471606597
23536379 177 18341894074065625803
23559900 14 18337385041115007561
239999 70 18343867693670465990
3004659 81 18334013866024568246
34797466 226 17846787329890086788
350125 39 18412263917602287317
351380 180 18411416215374393887
3545911 37 18410855473018351444
4073 2 18041564744797430946
4214541 1 18411135801492326509
46194498 28 17676206888106293252
465052 167 18413109433712614622
5104073 3 18340483374503125473
542803 24 16845573119093498153
59755656 215 18260265222444225079
7495541 125 17417523730692621611
77779 3 18410854369227743093
9709674 26 18262801890147852723
9996256 80 18413108377340563535

> <PUBCHEM_SHAPE_MULTIPOLES>
390.78
15.86
1.77
0.69
9.19
0.2
-0.07
-3.57
-1.97
-1.37
0
0.52
-0.05
0.29

> <PUBCHEM_SHAPE_SELFOVERLAP>
852.78

> <PUBCHEM_SHAPE_VOLUME>
212.4

> <PUBCHEM_COORDINATE_TYPE>
2
5
10

$$$$
