650829
  -OEChem-01171809153D

 45 47  0     0  0  0  0  0  0999 V2000
   -4.0218    0.4665   -2.3618 Cl  0  0  0  0  0  0  0  0  0  0  0  0
    3.3697    2.1509   -0.7559 S   0  0  0  0  0  0  0  0  0  0  0  0
    3.0471   -0.7322   -1.9552 O   0  0  0  0  0  0  0  0  0  0  0  0
    3.1833   -1.3848    0.2704 N   0  0  0  0  0  0  0  0  0  0  0  0
   -1.4650    1.7559   -0.1491 N   0  0  0  0  0  0  0  0  0  0  0  0
   -1.1341    1.9181   -1.4438 N   0  0  0  0  0  0  0  0  0  0  0  0
    0.1923    2.0159   -1.5129 N   0  0  0  0  0  0  0  0  0  0  0  0
   -0.2854    1.6076    1.9743 N   0  0  0  0  0  0  0  0  0  0  0  0
    2.1248    1.8089    1.6301 N   0  0  0  0  0  0  0  0  0  0  0  0
    2.3952   -2.5992    0.1584 C   0  0  0  0  0  0  0  0  0  0  0  0
    2.3414   -3.2810    1.5284 C   0  0  0  0  0  0  0  0  0  0  0  0
    0.9854   -2.2224   -0.3029 C   0  0  0  0  0  0  0  0  0  0  0  0
    3.0592   -3.5259   -0.8641 C   0  0  0  0  0  0  0  0  0  0  0  0
    3.4403   -0.5545   -0.8034 C   0  0  0  0  0  0  0  0  0  0  0  0
   -2.8447    1.6190    0.2438 C   0  0  0  0  0  0  0  0  0  0  0  0
    4.2973    0.6323   -0.4310 C   0  0  0  0  0  0  0  0  0  0  0  0
   -0.3589    1.7459    0.6433 C   0  0  0  0  0  0  0  0  0  0  0  0
    0.6879    1.9128   -0.2436 C   0  0  0  0  0  0  0  0  0  0  0  0
   -3.2754    0.1772    0.2435 C   0  0  0  0  0  0  0  0  0  0  0  0
    1.9452    1.9389    0.3086 C   0  0  0  0  0  0  0  0  0  0  0  0
   -3.8150   -0.4146   -0.8922 C   0  0  0  0  0  0  0  0  0  0  0  0
   -3.1177   -0.5509    1.4170 C   0  0  0  0  0  0  0  0  0  0  0  0
   -4.2025   -1.7541   -0.8541 C   0  0  0  0  0  0  0  0  0  0  0  0
   -3.5052   -1.8904    1.4549 C   0  0  0  0  0  0  0  0  0  0  0  0
    1.0041    1.6522    2.3777 C   0  0  0  0  0  0  0  0  0  0  0  0
   -4.0477   -2.4919    0.3195 C   0  0  0  0  0  0  0  0  0  0  0  0
    1.8884   -2.6238    2.2801 H   0  0  0  0  0  0  0  0  0  0  0  0
    1.7524   -4.2040    1.4912 H   0  0  0  0  0  0  0  0  0  0  0  0
    3.3464   -3.5372    1.8836 H   0  0  0  0  0  0  0  0  0  0  0  0
    0.9585   -1.7999   -1.3116 H   0  0  0  0  0  0  0  0  0  0  0  0
    0.5323   -1.4865    0.3718 H   0  0  0  0  0  0  0  0  0  0  0  0
    0.3335   -3.1038   -0.3125 H   0  0  0  0  0  0  0  0  0  0  0  0
    4.1119   -3.7026   -0.6136 H   0  0  0  0  0  0  0  0  0  0  0  0
    2.5568   -4.5003   -0.8841 H   0  0  0  0  0  0  0  0  0  0  0  0
    3.0253   -3.1375   -1.8861 H   0  0  0  0  0  0  0  0  0  0  0  0
    3.5492   -1.1368    1.1852 H   0  0  0  0  0  0  0  0  0  0  0  0
   -3.4600    2.2523   -0.4039 H   0  0  0  0  0  0  0  0  0  0  0  0
   -2.9500    2.0498    1.2479 H   0  0  0  0  0  0  0  0  0  0  0  0
    5.1984    0.6148   -1.0517 H   0  0  0  0  0  0  0  0  0  0  0  0
    4.6120    0.6057    0.6162 H   0  0  0  0  0  0  0  0  0  0  0  0
   -2.6991   -0.0969    2.3107 H   0  0  0  0  0  0  0  0  0  0  0  0
   -4.6266   -2.2378   -1.7304 H   0  0  0  0  0  0  0  0  0  0  0  0
   -3.3847   -2.4650    2.3686 H   0  0  0  0  0  0  0  0  0  0  0  0
    1.1660    1.5469    3.4452 H   0  0  0  0  0  0  0  0  0  0  0  0
   -4.3492   -3.5349    0.3492 H   0  0  0  0  0  0  0  0  0  0  0  0
  1 21  1  0  0  0  0
  2 16  1  0  0  0  0
  2 20  1  0  0  0  0
  3 14  2  0  0  0  0
  4 10  1  0  0  0  0
  4 14  1  0  0  0  0
  4 36  1  0  0  0  0
  5  6  1  0  0  0  0
  5 15  1  0  0  0  0
  5 17  1  0  0  0  0
  6  7  2  0  0  0  0
  7 18  1  0  0  0  0
  8 17  1  0  0  0  0
  8 25  2  0  0  0  0
  9 20  2  0  0  0  0
  9 25  1  0  0  0  0
 10 11  1  0  0  0  0
 10 12  1  0  0  0  0
 10 13  1  0  0  0  0
 11 27  1  0  0  0  0
 11 28  1  0  0  0  0
 11 29  1  0  0  0  0
 12 30  1  0  0  0  0
 12 31  1  0  0  0  0
 12 32  1  0  0  0  0
 13 33  1  0  0  0  0
 13 34  1  0  0  0  0
 13 35  1  0  0  0  0
 14 16  1  0  0  0  0
 15 19  1  0  0  0  0
 15 37  1  0  0  0  0
 15 38  1  0  0  0  0
 16 39  1  0  0  0  0
 16 40  1  0  0  0  0
 17 18  2  0  0  0  0
 18 20  1  0  0  0  0
 19 21  1  0  0  0  0
 19 22  2  0  0  0  0
 21 23  2  0  0  0  0
 22 24  1  0  0  0  0
 22 41  1  0  0  0  0
 23 26  1  0  0  0  0
 23 42  1  0  0  0  0
 24 26  2  0  0  0  0
 24 43  1  0  0  0  0
 25 44  1  0  0  0  0
 26 45  1  0  0  0  0
M  END
> <PUBCHEM_COMPOUND_CID>
650829

> <PUBCHEM_CONFORMER_RMSD>
1

> <PUBCHEM_CONFORMER_DIVERSEORDER>
2
227
170
131
147
277
96
200
144
278
113
25
70
151
133
280
222
22
173
262
122
251
101
197
234
111
32
225
54
24
193
59
121
219
276
51
172
105
60
184
266
124
202
19
206
5
268
216
233
145
123
201
18
257
245
282
36
14
239
287
215
154
271
84
136
185
231
255
64
253
7
17
189
52
158
292
254
291
23
95
213
269
75
159
194
107
235
114
140
199
164
220
183
72
236
137
186
204
146
156
286
273
94
270
126
289
288
263
16
221
118
179
166
195
48
252
67
112
3
175
139
10
80
83
76
71
41
188
259
120
87
243
21
162
163
207
246
182
275
191
192
104
250
258
1
89
74
115
45
290
143
279
88
223
165
62
53
90
174
58
98
93
116
99
100
73
57
39
180
240
177
210
42
283
228
43
161
50
11
281
91
130
138
129
256
92
150
190
46
30
15
81
260
85
148
6
109
68
149
142
141
285
249
27
169
152
208
267
26
224
244
86
38
63
237
77
211
198
196
61
97
69
187
248
274
65
160
33
8
265
209
203
218
119
31
153
66
134
127
181
272
44
37
171
230
82
20
13
128
49
264
106
176
241
212
40
284
4
47
9
35
78
226
135
217
56
247
157
34
29
155
205
110
132
103
168
12
108
125
79
214
117
178
28
242
167
238
102
229
232
261
55

> <PUBCHEM_MMFF94_PARTIAL_CHARGES>
29
1 -0.18
10 0.3
14 0.57
15 0.4
16 0.29
17 0.11
18 0.23
19 -0.14
2 -0.33
20 0.41
21 0.18
22 -0.15
23 -0.15
24 -0.15
25 0.47
26 -0.15
3 -0.57
36 0.37
4 -0.73
41 0.15
42 0.15
43 0.15
44 0.15
45 0.15
5 0.31
6 -0.42
7 -0.23
8 -0.57
9 -0.62

> <PUBCHEM_EFFECTIVE_ROTOR_COUNT>
7

> <PUBCHEM_PHARMACOPHORE_FEATURES>
8
1 3 acceptor
1 4 donor
1 9 acceptor
3 8 9 25 cation
4 10 11 12 13 hydrophobe
5 5 6 7 17 18 rings
6 19 21 22 23 24 26 rings
6 8 9 17 18 20 25 rings

> <PUBCHEM_HEAVY_ATOM_COUNT>
26

> <PUBCHEM_ATOM_DEF_STEREO_COUNT>
0

> <PUBCHEM_ATOM_UDEF_STEREO_COUNT>
0

> <PUBCHEM_BOND_DEF_STEREO_COUNT>
0

> <PUBCHEM_BOND_UDEF_STEREO_COUNT>
0

> <PUBCHEM_ISOTOPIC_ATOM_COUNT>
0

> <PUBCHEM_COMPONENT_COUNT>
1

> <PUBCHEM_CACTVS_TAUTO_COUNT>
2

> <PUBCHEM_CONFORMER_ID>
0009EE4D00000002

> <PUBCHEM_MMFF94_ENERGY>
56.2388

> <PUBCHEM_FEATURE_SELFOVERLAP>
40.725

> <PUBCHEM_SHAPE_FINGERPRINT>
12156800 1 14064545145877887138
12506688 2 18270965643951566152
12539773 59 14741786962131403279
12596599 1 17772772484452332894
12788726 201 17486218820404479041
13122387 1 18411986857805010423
13383661 66 17768850707097558142
13402501 40 18191314985779283411
13533116 47 18272646866624989627
13583140 156 17775280612399706321
14251757 17 18040712558998362711
14787075 74 18058740233468157924
17093844 170 18263641942996072936
20764821 26 17684666697816215043
20775530 9 18194125105635026138
235170 7 17822291339856057661
23559900 14 18338226159021054925
3052486 1 17758112979661363226
312425 83 16950845808218323511
35225 105 15040130186684545915
3737641 26 18269293333894632810
3797600 57 18131075918095722020
392239 28 17774709897487707946
4280585 95 17971458616764306970
46194498 28 17532936232455830389
463206 1 18117848698471159954
6433294 58 18409731742244644750

> <PUBCHEM_SHAPE_MULTIPOLES>
505.03
8.68
4.06
1.98
4.06
2.79
0.21
3.85
-2.39
-2.78
0.41
0.52
-0.47
0.76

> <PUBCHEM_SHAPE_SELFOVERLAP>
1056.028

> <PUBCHEM_SHAPE_VOLUME>
289.5

> <PUBCHEM_COORDINATE_TYPE>
2
5
10

$$$$
