1392207
  -OEChem-01171809523D

 49 52  0     0  0  0  0  0  0999 V2000
   -2.2831   -1.4895   -2.0485 O   0  0  0  0  0  0  0  0  0  0  0  0
   -1.0835    2.6632   -1.3406 O   0  0  0  0  0  0  0  0  0  0  0  0
    3.8317    3.5349   -0.1267 O   0  0  0  0  0  0  0  0  0  0  0  0
   -0.4895    0.3744   -0.9552 N   0  0  0  0  0  0  0  0  0  0  0  0
    4.1675    1.3445    0.4871 N   0  0  0  0  0  0  0  0  0  0  0  0
    0.6597    0.3015   -1.8020 C   0  0  0  0  0  0  0  0  0  0  0  0
    1.8783    0.6731   -1.0078 C   0  0  0  0  0  0  0  0  0  0  0  0
    2.6366   -0.3754   -0.2930 C   0  0  0  0  0  0  0  0  0  0  0  0
    3.7729   -0.0033    0.4421 C   0  0  0  0  0  0  0  0  0  0  0  0
   -0.8935   -0.8268   -0.2088 C   0  0  0  0  0  0  0  0  0  0  0  0
    2.2914    1.9491   -0.9373 C   0  0  0  0  0  0  0  0  0  0  0  0
   -1.2641    1.5709   -0.8040 C   0  0  0  0  0  0  0  0  0  0  0  0
    2.2758   -1.7306   -0.3124 C   0  0  0  0  0  0  0  0  0  0  0  0
    3.4923    2.3540   -0.1616 C   0  0  0  0  0  0  0  0  0  0  0  0
    4.5289   -0.9525    1.1379 C   0  0  0  0  0  0  0  0  0  0  0  0
   -1.7649   -1.6835   -0.8028 C   0  0  0  0  0  0  0  0  0  0  0  0
   -0.3544   -0.9846    1.0299 C   0  0  0  0  0  0  0  0  0  0  0  0
   -2.4126    1.5085    0.1202 C   0  0  0  0  0  0  0  0  0  0  0  0
    3.0297   -2.6812    0.3824 C   0  0  0  0  0  0  0  0  0  0  0  0
    4.1541   -2.2929    1.1062 C   0  0  0  0  0  0  0  0  0  0  0  0
   -2.1378   -2.8185   -0.0828 C   0  0  0  0  0  0  0  0  0  0  0  0
   -0.7272   -2.1197    1.7498 C   0  0  0  0  0  0  0  0  0  0  0  0
   -1.6189   -3.0366    1.1933 C   0  0  0  0  0  0  0  0  0  0  0  0
   -2.2265    1.8267    1.4546 C   0  0  0  0  0  0  0  0  0  0  0  0
   -3.6529    1.1342   -0.3683 C   0  0  0  0  0  0  0  0  0  0  0  0
   -3.3134    1.7690    2.3270 C   0  0  0  0  0  0  0  0  0  0  0  0
   -4.7397    1.0766    0.5042 C   0  0  0  0  0  0  0  0  0  0  0  0
   -4.5700    1.3939    1.8518 C   0  0  0  0  0  0  0  0  0  0  0  0
   -3.1866   -2.4795   -2.5351 C   0  0  0  0  0  0  0  0  0  0  0  0
    0.7303   -0.6722   -2.2967 H   0  0  0  0  0  0  0  0  0  0  0  0
    0.5239    1.0241   -2.6179 H   0  0  0  0  0  0  0  0  0  0  0  0
    1.7620    2.7452   -1.4510 H   0  0  0  0  0  0  0  0  0  0  0  0
    1.4417   -2.1051   -0.8952 H   0  0  0  0  0  0  0  0  0  0  0  0
    4.9942    1.5824    1.0278 H   0  0  0  0  0  0  0  0  0  0  0  0
    5.4081   -0.6577    1.7049 H   0  0  0  0  0  0  0  0  0  0  0  0
    0.3162   -0.2613    1.4805 H   0  0  0  0  0  0  0  0  0  0  0  0
    2.7423   -3.7284    0.3487 H   0  0  0  0  0  0  0  0  0  0  0  0
    4.7385   -3.0344    1.6427 H   0  0  0  0  0  0  0  0  0  0  0  0
   -2.8248   -3.5738   -0.4480 H   0  0  0  0  0  0  0  0  0  0  0  0
   -0.3280   -2.2859    2.7461 H   0  0  0  0  0  0  0  0  0  0  0  0
   -1.9096   -3.9192    1.7556 H   0  0  0  0  0  0  0  0  0  0  0  0
   -1.2516    2.1225    1.8317 H   0  0  0  0  0  0  0  0  0  0  0  0
   -3.7960    0.8929   -1.4176 H   0  0  0  0  0  0  0  0  0  0  0  0
   -3.1812    2.0164    3.3762 H   0  0  0  0  0  0  0  0  0  0  0  0
   -5.7184    0.7858    0.1338 H   0  0  0  0  0  0  0  0  0  0  0  0
   -5.4163    1.3492    2.5310 H   0  0  0  0  0  0  0  0  0  0  0  0
   -4.0938   -2.5339   -1.9235 H   0  0  0  0  0  0  0  0  0  0  0  0
   -2.6978   -3.4533   -2.6472 H   0  0  0  0  0  0  0  0  0  0  0  0
   -3.4988   -2.1649   -3.5365 H   0  0  0  0  0  0  0  0  0  0  0  0
  1 16  1  0  0  0  0
  1 29  1  0  0  0  0
  2 12  2  0  0  0  0
  3 14  2  0  0  0  0
  4  6  1  0  0  0  0
  4 10  1  0  0  0  0
  4 12  1  0  0  0  0
  5  9  1  0  0  0  0
  5 14  1  0  0  0  0
  5 34  1  0  0  0  0
  6  7  1  0  0  0  0
  6 30  1  0  0  0  0
  6 31  1  0  0  0  0
  7  8  1  0  0  0  0
  7 11  2  0  0  0  0
  8  9  1  0  0  0  0
  8 13  2  0  0  0  0
  9 15  2  0  0  0  0
 10 16  1  0  0  0  0
 10 17  2  0  0  0  0
 11 14  1  0  0  0  0
 11 32  1  0  0  0  0
 12 18  1  0  0  0  0
 13 19  1  0  0  0  0
 13 33  1  0  0  0  0
 15 20  1  0  0  0  0
 15 35  1  0  0  0  0
 16 21  2  0  0  0  0
 17 22  1  0  0  0  0
 17 36  1  0  0  0  0
 18 24  2  0  0  0  0
 18 25  1  0  0  0  0
 19 20  2  0  0  0  0
 19 37  1  0  0  0  0
 20 38  1  0  0  0  0
 21 23  1  0  0  0  0
 21 39  1  0  0  0  0
 22 23  2  0  0  0  0
 22 40  1  0  0  0  0
 23 41  1  0  0  0  0
 24 26  1  0  0  0  0
 24 42  1  0  0  0  0
 25 27  2  0  0  0  0
 25 43  1  0  0  0  0
 26 28  2  0  0  0  0
 26 44  1  0  0  0  0
 27 28  1  0  0  0  0
 27 45  1  0  0  0  0
 28 46  1  0  0  0  0
 29 47  1  0  0  0  0
 29 48  1  0  0  0  0
 29 49  1  0  0  0  0
M  END
> <PUBCHEM_COMPOUND_CID>
1392207

> <PUBCHEM_CONFORMER_RMSD>
0.8

> <PUBCHEM_CONFORMER_DIVERSEORDER>
4
23
84
34
26
97
111
21
45
68
33
93
27
94
75
115
44
88
87
53
6
17
112
113
42
114
31
95
107
85
56
41
108
43
71
32
96
99
60
48
30
105
9
82
29
110
67
72
92
22
109
39
13
25
91
40
106
81
65
90
14
59
103
47
58
77
66
80
5
98
18
55
76
69
16
73
50
70
104
8
74
101
7
63
79
2
89
28
61
36
100
64
10
57
49
20
54
11
3
86
62
35
24
1
15
78
12
51
102
19
83
52
46
38
37

> <PUBCHEM_MMFF94_PARTIAL_CHARGES>
44
1 -0.36
10 0.12
11 -0.14
12 0.54
13 -0.15
14 0.62
15 -0.15
16 0.08
17 -0.15
18 0.09
19 -0.15
2 -0.57
20 -0.15
21 -0.15
22 -0.15
23 -0.15
24 -0.15
25 -0.15
26 -0.15
27 -0.15
28 -0.15
29 0.28
3 -0.57
32 0.15
33 0.15
34 0.37
35 0.15
36 0.15
37 0.15
38 0.15
39 0.15
4 -0.48
40 0.15
41 0.15
42 0.15
43 0.15
44 0.15
45 0.15
46 0.15
5 -0.55
6 0.44
7 -0.17
8 0.03
9 0.12

> <PUBCHEM_EFFECTIVE_ROTOR_COUNT>
6

> <PUBCHEM_PHARMACOPHORE_FEATURES>
8
1 1 acceptor
1 2 acceptor
1 3 acceptor
1 5 donor
6 10 16 17 21 22 23 rings
6 18 24 25 26 27 28 rings
6 5 7 8 9 11 14 rings
6 8 9 13 15 19 20 rings

> <PUBCHEM_HEAVY_ATOM_COUNT>
29

> <PUBCHEM_ATOM_DEF_STEREO_COUNT>
0

> <PUBCHEM_ATOM_UDEF_STEREO_COUNT>
0

> <PUBCHEM_BOND_DEF_STEREO_COUNT>
0

> <PUBCHEM_BOND_UDEF_STEREO_COUNT>
0

> <PUBCHEM_ISOTOPIC_ATOM_COUNT>
0

> <PUBCHEM_COMPONENT_COUNT>
1

> <PUBCHEM_CACTVS_TAUTO_COUNT>
2

> <PUBCHEM_CONFORMER_ID>
00153E4F00000004

> <PUBCHEM_MMFF94_ENERGY>
128.5839

> <PUBCHEM_FEATURE_SELFOVERLAP>
40.623

> <PUBCHEM_SHAPE_FINGERPRINT>
10076449 9 17905064564504319374
10498660 4 11887083545728053602
11115154 58 17699552956550458871
11578080 2 16627192560828772061
12422481 6 18197806352775704827
12553582 1 18187360975010280174
12633257 1 18260819385511218034
12788726 201 17916019251795408535
12930653 34 18193282021013810576
13140716 1 18333737935286387826
13583140 156 18262250996283682609
14178342 30 17898584317208823610
14955137 171 18048046168316950522
17818456 19 17988924410057260402
17980427 23 18269818905396380890
20028762 73 18339362964256141415
20197701 30 18337106749099239027
21033648 29 18190727649165247976
21033650 10 15769505235211012481
21330990 113 13695875818035622209
23227448 37 18409448081002681251
23559900 14 17489319537947162852
25147074 1 18412261770339951972
392239 28 18269852951538716545
469060 322 16153990278495665235
57527295 17 17838310224083828023
57527585 103 16879076432456604202
6287921 2 17485098388370285567
7097593 13 18408604743163472724
9709674 26 18335974338006593142

> <PUBCHEM_SHAPE_MULTIPOLES>
569.24
8.75
3.89
1.97
2.5
0.43
0.2
-2.53
-3.06
0.59
0.02
-1.89
0.47
-2.42

> <PUBCHEM_SHAPE_SELFOVERLAP>
1260.068

> <PUBCHEM_SHAPE_VOLUME>
301.1

> <PUBCHEM_COORDINATE_TYPE>
2
5
10

$$$$
