4086569
  -OEChem-01171809333D

 55 56  0     1  0  0  0  0  0999 V2000
   -4.3823   -0.3277   -2.9858 Cl  0  0  0  0  0  0  0  0  0  0  0  0
   -0.2105    1.5316   -1.2632 O   0  0  0  0  0  0  0  0  0  0  0  0
   -1.4964    2.8896    1.3517 O   0  0  0  0  0  0  0  0  0  0  0  0
   -1.7583   -0.6039   -1.8997 O   0  0  0  0  0  0  0  0  0  0  0  0
    1.5602    0.8535    0.0789 N   0  0  0  0  0  0  0  0  0  0  0  0
   -2.0300    0.2914    0.2212 N   0  0  0  0  0  0  0  0  0  0  0  0
    2.6032    1.5988   -0.5902 C   0  0  0  0  0  0  0  0  0  0  0  0
    3.2015    0.7916   -1.7472 C   0  0  0  0  0  0  0  0  0  0  0  0
    3.6874    2.0385    0.3993 C   0  0  0  0  0  0  0  0  0  0  0  0
    4.0637   -0.3742   -1.2627 C   0  0  0  0  0  0  0  0  0  0  0  0
    4.5488    0.8708    0.8802 C   0  0  0  0  0  0  0  0  0  0  0  0
    5.1419    0.0898   -0.2885 C   0  0  0  0  0  0  0  0  0  0  0  0
   -0.6591    0.0451    0.5956 C   0  0  2  0  0  0  0  0  0  0  0  0
    0.2297    0.8822   -0.3165 C   0  0  0  0  0  0  0  0  0  0  0  0
   -0.3069   -1.4228    0.5299 C   0  0  0  0  0  0  0  0  0  0  0  0
   -2.8672    0.9227    1.2486 C   0  0  0  0  0  0  0  0  0  0  0  0
   -0.5255   -2.2628    1.6219 C   0  0  0  0  0  0  0  0  0  0  0  0
    0.2447   -1.9351   -0.6446 C   0  0  0  0  0  0  0  0  0  0  0  0
   -2.4897   -0.0743   -1.0593 C   0  0  0  0  0  0  0  0  0  0  0  0
   -2.8283    2.4366    1.1469 C   0  0  0  0  0  0  0  0  0  0  0  0
   -0.1928   -3.6150    1.5392 C   0  0  0  0  0  0  0  0  0  0  0  0
   -1.1138   -1.7374    2.8902 C   0  0  0  0  0  0  0  0  0  0  0  0
    0.5772   -3.2873   -0.7271 C   0  0  0  0  0  0  0  0  0  0  0  0
   -3.9468    0.2197   -1.3546 C   0  0  0  0  0  0  0  0  0  0  0  0
    0.3585   -4.1271    0.3647 C   0  0  0  0  0  0  0  0  0  0  0  0
   -1.4092    4.3057    1.2711 C   0  0  0  0  0  0  0  0  0  0  0  0
    2.1380    2.4998   -1.0093 H   0  0  0  0  0  0  0  0  0  0  0  0
    3.8229    1.4567   -2.3605 H   0  0  0  0  0  0  0  0  0  0  0  0
    2.4085    0.4090   -2.4008 H   0  0  0  0  0  0  0  0  0  0  0  0
    3.2335    2.5357    1.2651 H   0  0  0  0  0  0  0  0  0  0  0  0
    4.3363    2.7775   -0.0879 H   0  0  0  0  0  0  0  0  0  0  0  0
    4.5328   -0.8648   -2.1230 H   0  0  0  0  0  0  0  0  0  0  0  0
    3.4310   -1.1262   -0.7762 H   0  0  0  0  0  0  0  0  0  0  0  0
    5.3589    1.2524    1.5123 H   0  0  0  0  0  0  0  0  0  0  0  0
    3.9539    0.1968    1.5077 H   0  0  0  0  0  0  0  0  0  0  0  0
    5.8643    0.7221   -0.8194 H   0  0  0  0  0  0  0  0  0  0  0  0
    5.6951   -0.7771    0.0899 H   0  0  0  0  0  0  0  0  0  0  0  0
    1.8252    0.2542    0.8549 H   0  0  0  0  0  0  0  0  0  0  0  0
   -0.4654    0.4378    1.6000 H   0  0  0  0  0  0  0  0  0  0  0  0
   -3.8997    0.5786    1.1549 H   0  0  0  0  0  0  0  0  0  0  0  0
   -2.5199    0.6138    2.2383 H   0  0  0  0  0  0  0  0  0  0  0  0
    0.4678   -1.3223   -1.5121 H   0  0  0  0  0  0  0  0  0  0  0  0
   -3.1743    2.7700    0.1627 H   0  0  0  0  0  0  0  0  0  0  0  0
   -3.4823    2.8694    1.9125 H   0  0  0  0  0  0  0  0  0  0  0  0
   -0.3572   -4.2837    2.3800 H   0  0  0  0  0  0  0  0  0  0  0  0
   -1.0617   -2.4886    3.6873 H   0  0  0  0  0  0  0  0  0  0  0  0
   -2.1719   -1.5023    2.7515 H   0  0  0  0  0  0  0  0  0  0  0  0
   -0.5701   -0.8663    3.2660 H   0  0  0  0  0  0  0  0  0  0  0  0
    1.0141   -3.6848   -1.6385 H   0  0  0  0  0  0  0  0  0  0  0  0
   -4.1416    1.2921   -1.3012 H   0  0  0  0  0  0  0  0  0  0  0  0
   -4.5902   -0.3223   -0.6583 H   0  0  0  0  0  0  0  0  0  0  0  0
    0.6193   -5.1794    0.3008 H   0  0  0  0  0  0  0  0  0  0  0  0
   -2.0296    4.7732    2.0418 H   0  0  0  0  0  0  0  0  0  0  0  0
   -0.3683    4.5955    1.4372 H   0  0  0  0  0  0  0  0  0  0  0  0
   -1.7135    4.6527    0.2790 H   0  0  0  0  0  0  0  0  0  0  0  0
  1 24  1  0  0  0  0
  2 14  2  0  0  0  0
  3 20  1  0  0  0  0
  3 26  1  0  0  0  0
  4 19  2  0  0  0  0
  5  7  1  0  0  0  0
  5 14  1  0  0  0  0
  5 38  1  0  0  0  0
  6 13  1  0  0  0  0
  6 16  1  0  0  0  0
  6 19  1  0  0  0  0
  7  8  1  0  0  0  0
  7  9  1  0  0  0  0
  7 27  1  0  0  0  0
  8 10  1  0  0  0  0
  8 28  1  0  0  0  0
  8 29  1  0  0  0  0
  9 11  1  0  0  0  0
  9 30  1  0  0  0  0
  9 31  1  0  0  0  0
 10 12  1  0  0  0  0
 10 32  1  0  0  0  0
 10 33  1  0  0  0  0
 11 12  1  0  0  0  0
 11 34  1  0  0  0  0
 11 35  1  0  0  0  0
 12 36  1  0  0  0  0
 12 37  1  0  0  0  0
 13 14  1  0  0  0  0
 13 15  1  0  0  0  0
 13 39  1  0  0  0  0
 15 17  1  0  0  0  0
 15 18  2  0  0  0  0
 16 20  1  0  0  0  0
 16 40  1  0  0  0  0
 16 41  1  0  0  0  0
 17 21  2  0  0  0  0
 17 22  1  0  0  0  0
 18 23  1  0  0  0  0
 18 42  1  0  0  0  0
 19 24  1  0  0  0  0
 20 43  1  0  0  0  0
 20 44  1  0  0  0  0
 21 25  1  0  0  0  0
 21 45  1  0  0  0  0
 22 46  1  0  0  0  0
 22 47  1  0  0  0  0
 22 48  1  0  0  0  0
 23 25  2  0  0  0  0
 23 49  1  0  0  0  0
 24 50  1  0  0  0  0
 24 51  1  0  0  0  0
 25 52  1  0  0  0  0
 26 53  1  0  0  0  0
 26 54  1  0  0  0  0
 26 55  1  0  0  0  0
M  END
> <PUBCHEM_COMPOUND_CID>
4086569

> <PUBCHEM_CONFORMER_RMSD>
1

> <PUBCHEM_CONFORMER_DIVERSEORDER>
8
135
108
150
100
34
76
70
129
75
78
145
18
37
30
127
107
115
88
90
136
21
49
91
59
114
24
25
132
104
133
138
29
142
134
64
50
109
141
69
67
97
144
43
57
53
52
148
101
94
42
122
61
58
14
119
155
112
118
117
98
125
140
71
72
3
143
102
84
36
1
139
105
11
46
95
22
92
121
28
147
116
87
7
5
45
31
63
6
82
16
110
77
35
2
65
55
137
124
151
111
47
48
93
19
20
123
54
17
56
9
51
41
152
103
40
131
33
62
130
89
12
146
153
85
83
68
15
10
38
149
154
60
128
4
39
73
120
80
113
26
44
79
13
96
106
66
23
27
99
126
86
74
32
81

> <PUBCHEM_MMFF94_PARTIAL_CHARGES>
26
1 -0.29
13 0.5
14 0.57
15 -0.14
16 0.3
17 -0.14
18 -0.15
19 0.57
2 -0.57
20 0.28
21 -0.15
22 0.14
23 -0.15
24 0.35
25 -0.15
26 0.28
3 -0.56
38 0.37
4 -0.57
42 0.15
45 0.15
49 0.15
5 -0.73
52 0.15
6 -0.66
7 0.3

> <PUBCHEM_EFFECTIVE_ROTOR_COUNT>
11.2

> <PUBCHEM_PHARMACOPHORE_FEATURES>
6
1 2 acceptor
1 3 acceptor
1 4 acceptor
1 5 donor
6 15 17 18 21 23 25 rings
6 7 8 9 10 11 12 rings

> <PUBCHEM_HEAVY_ATOM_COUNT>
26

> <PUBCHEM_ATOM_DEF_STEREO_COUNT>
0

> <PUBCHEM_ATOM_UDEF_STEREO_COUNT>
1

> <PUBCHEM_BOND_DEF_STEREO_COUNT>
0

> <PUBCHEM_BOND_UDEF_STEREO_COUNT>
0

> <PUBCHEM_ISOTOPIC_ATOM_COUNT>
0

> <PUBCHEM_COMPONENT_COUNT>
1

> <PUBCHEM_CACTVS_TAUTO_COUNT>
2

> <PUBCHEM_CONFORMER_ID>
003E5B2900000008

> <PUBCHEM_MMFF94_ENERGY>
64.7727

> <PUBCHEM_FEATURE_SELFOVERLAP>
30.453

> <PUBCHEM_SHAPE_FINGERPRINT>
10366900 7 17987798652538901488
10721379 63 17682928061047711191
11421498 54 18340752785750098853
11582403 64 16697566690674211179
12035759 4 18200861877965806693
12160290 23 17971208155361422402
12173636 292 18338253625236159984
12553582 1 17329732310266897258
12592029 89 17604132762348676599
12788726 201 17757013442163595954
13140716 1 18193849364866306440
13149001 5 17906434877549923589
133893 2 17753878424921629307
14943834 7 17981877554404575317
15081414 286 15100726918213208545
15163728 17 17168701917143750007
15420108 30 17408804324159256360
17980427 23 16901861225651738361
20197701 30 18115286986444113967
20642791 35 17260204198563126150
22907989 373 17974875043714118278
23419403 2 17473541834078258083
23559900 14 18125995208140299496
23728640 28 18338238283950790538
266924 1 18199174102074323725
298252 57 17096905019141822629
3027735 51 18189885444569489629
3380486 145 17619073171138914666
3493558 16 16533627204786299232
352729 6 18263943174869869894
44802255 64 17313101977985387502
81228 2 17683530902246115482

> <PUBCHEM_SHAPE_MULTIPOLES>
509.37
7.33
4.55
2.35
6.37
1.51
0.29
-4.07
3.8
-1.13
-2.82
-2.41
0.44
-0.59

> <PUBCHEM_SHAPE_SELFOVERLAP>
1036.398

> <PUBCHEM_SHAPE_VOLUME>
295

> <PUBCHEM_COORDINATE_TYPE>
2
5
10

$$$$
