5757916
  -OEChem-01171809583D

 52 53  0     1  0  0  0  0  0999 V2000
   -5.7240    1.5409    2.2413 Cl  0  0  0  0  0  0  0  0  0  0  0  0
   -3.1755    1.9019   -3.1497 Cl  0  0  0  0  0  0  0  0  0  0  0  0
    0.3218   -4.2740   -0.0111 O   0  0  0  0  0  0  0  0  0  0  0  0
    0.6723   -2.7509   -1.7062 O   0  0  0  0  0  0  0  0  0  0  0  0
    5.3048    0.7561    1.7670 O   0  0  0  0  0  0  0  0  0  0  0  0
   -3.8272    1.2466   -0.1916 N   0  0  0  0  0  0  0  0  0  0  0  0
    2.0708   -1.1266   -0.0653 N   0  0  0  0  0  0  0  0  0  0  0  0
    0.5342   -1.9410    1.6573 C   0  0  0  0  0  0  0  0  0  0  0  0
    1.5125   -2.3193    0.5391 C   0  0  1  0  0  0  0  0  0  0  0  0
   -0.6190   -1.0982    1.1682 C   0  0  0  0  0  0  0  0  0  0  0  0
   -2.7499    0.4591    0.2649 C   0  0  0  0  0  0  0  0  0  0  0  0
   -4.0469    2.5737    0.3480 C   0  0  0  0  0  0  0  0  0  0  0  0
   -4.7206    0.7444   -1.2166 C   0  0  0  0  0  0  0  0  0  0  0  0
   -1.7904   -1.7103    0.7224 C   0  0  0  0  0  0  0  0  0  0  0  0
   -0.5130    0.2926    1.1623 C   0  0  0  0  0  0  0  0  0  0  0  0
   -2.8558   -0.9316    0.2708 C   0  0  0  0  0  0  0  0  0  0  0  0
   -1.5784    1.0714    0.7106 C   0  0  0  0  0  0  0  0  0  0  0  0
    0.7994   -3.1084   -0.5423 C   0  0  0  0  0  0  0  0  0  0  0  0
   -4.2883    2.5194    1.8484 C   0  0  0  0  0  0  0  0  0  0  0  0
   -3.9634    0.4423   -2.5002 C   0  0  0  0  0  0  0  0  0  0  0  0
    3.1178   -0.4450    0.4569 C   0  0  0  0  0  0  0  0  0  0  0  0
    3.6813    0.6737   -0.0066 C   0  0  0  0  0  0  0  0  0  0  0  0
    4.8426    1.2534    0.7462 C   0  0  0  0  0  0  0  0  0  0  0  0
    3.2154    1.3446   -1.2034 C   0  0  0  0  0  0  0  0  0  0  0  0
   -0.3816   -5.1246   -0.9219 C   0  0  0  0  0  0  0  0  0  0  0  0
    5.4299    2.5009    0.1825 C   0  0  0  0  0  0  0  0  0  0  0  0
    3.8069    2.4653   -1.6380 C   0  0  0  0  0  0  0  0  0  0  0  0
    4.9246    3.0437   -0.9327 C   0  0  0  0  0  0  0  0  0  0  0  0
    1.0632   -1.3965    2.4509 H   0  0  0  0  0  0  0  0  0  0  0  0
    0.1383   -2.8427    2.1424 H   0  0  0  0  0  0  0  0  0  0  0  0
    2.3189   -2.9541    0.9274 H   0  0  0  0  0  0  0  0  0  0  0  0
   -4.9141    3.0499   -0.1272 H   0  0  0  0  0  0  0  0  0  0  0  0
   -3.2050    3.2371    0.1192 H   0  0  0  0  0  0  0  0  0  0  0  0
   -5.5090    1.4747   -1.4399 H   0  0  0  0  0  0  0  0  0  0  0  0
   -5.2568   -0.1464   -0.8702 H   0  0  0  0  0  0  0  0  0  0  0  0
   -1.8969   -2.7911    0.7365 H   0  0  0  0  0  0  0  0  0  0  0  0
    0.3914    0.7844    1.5098 H   0  0  0  0  0  0  0  0  0  0  0  0
   -3.7562   -1.4479   -0.0468 H   0  0  0  0  0  0  0  0  0  0  0  0
   -1.4462    2.1486    0.7067 H   0  0  0  0  0  0  0  0  0  0  0  0
    1.6069   -0.7446   -0.8818 H   0  0  0  0  0  0  0  0  0  0  0  0
   -4.4744    3.5283    2.2299 H   0  0  0  0  0  0  0  0  0  0  0  0
   -3.4473    2.1069    2.4107 H   0  0  0  0  0  0  0  0  0  0  0  0
   -4.6598    0.0866   -3.2660 H   0  0  0  0  0  0  0  0  0  0  0  0
   -3.1908   -0.3209   -2.3802 H   0  0  0  0  0  0  0  0  0  0  0  0
    3.4993   -0.9186    1.3568 H   0  0  0  0  0  0  0  0  0  0  0  0
    2.3786    0.9485   -1.7678 H   0  0  0  0  0  0  0  0  0  0  0  0
   -0.7216   -6.0053   -0.3707 H   0  0  0  0  0  0  0  0  0  0  0  0
    0.2846   -5.4490   -1.7269 H   0  0  0  0  0  0  0  0  0  0  0  0
   -1.2554   -4.6060   -1.3280 H   0  0  0  0  0  0  0  0  0  0  0  0
    6.2702    2.9480    0.7007 H   0  0  0  0  0  0  0  0  0  0  0  0
    3.4574    2.9665   -2.5340 H   0  0  0  0  0  0  0  0  0  0  0  0
    5.3548    3.9525   -1.3407 H   0  0  0  0  0  0  0  0  0  0  0  0
  1 19  1  0  0  0  0
  2 20  1  0  0  0  0
  3 18  1  0  0  0  0
  3 25  1  0  0  0  0
  4 18  2  0  0  0  0
  5 23  2  0  0  0  0
  6 11  1  0  0  0  0
  6 12  1  0  0  0  0
  6 13  1  0  0  0  0
  7  9  1  0  0  0  0
  7 21  1  0  0  0  0
  7 40  1  0  0  0  0
  8  9  1  0  0  0  0
  8 10  1  0  0  0  0
  8 29  1  0  0  0  0
  8 30  1  0  0  0  0
  9 18  1  0  0  0  0
  9 31  1  0  0  0  0
 10 14  2  0  0  0  0
 10 15  1  0  0  0  0
 11 16  2  0  0  0  0
 11 17  1  0  0  0  0
 12 19  1  0  0  0  0
 12 32  1  0  0  0  0
 12 33  1  0  0  0  0
 13 20  1  0  0  0  0
 13 34  1  0  0  0  0
 13 35  1  0  0  0  0
 14 16  1  0  0  0  0
 14 36  1  0  0  0  0
 15 17  2  0  0  0  0
 15 37  1  0  0  0  0
 16 38  1  0  0  0  0
 17 39  1  0  0  0  0
 19 41  1  0  0  0  0
 19 42  1  0  0  0  0
 20 43  1  0  0  0  0
 20 44  1  0  0  0  0
 21 22  2  0  0  0  0
 21 45  1  0  0  0  0
 22 23  1  0  0  0  0
 22 24  1  0  0  0  0
 23 26  1  0  0  0  0
 24 27  2  0  0  0  0
 24 46  1  0  0  0  0
 25 47  1  0  0  0  0
 25 48  1  0  0  0  0
 25 49  1  0  0  0  0
 26 28  2  0  0  0  0
 26 50  1  0  0  0  0
 27 28  1  0  0  0  0
 27 51  1  0  0  0  0
 28 52  1  0  0  0  0
M  END
> <PUBCHEM_COMPOUND_CID>
5757916

> <PUBCHEM_CONFORMER_RMSD>
1

> <PUBCHEM_CONFORMER_DIVERSEORDER>
1
41
39
53
149
291
206
131
295
72
179
292
306
104
78
280
83
42
228
98
22
86
273
172
167
129
62
73
274
100
212
171
183
101
278
108
67
226
168
195
119
282
286
250
230
289
285
199
196
223
38
63
217
124
311
187
113
297
109
208
133
236
303
263
145
186
307
103
237
209
4
251
34
71
94
50
112
293
166
44
200
8
220
268
248
15
257
182
267
59
258
89
207
276
16
219
18
198
261
61
271
193
262
37
35
49
138
148
245
211
164
60
178
201
281
163
147
75
290
310
279
146
6
120
14
287
134
74
255
90
110
275
242
143
57
283
128
298
2
159
115
33
270
105
160
51
296
192
157
265
232
135
180
36
189
194
92
65
155
9
95
256
80
24
161
222
294
107
197
173
122
284
85
235
176
27
309
152
10
225
254
308
76
305
43
118
141
132
234
13
227
139
82
70
253
177
240
54
162
169
165
88
272
156
205
247
30
238
99
126
213
191
66
299
84
114
127
154
31
188
56
130
40
140
151
231
203
77
48
221
17
304
300
241
185
301
244
142
302
158
117
233
25
249
93
47
11
210
229
20
68
252
64
96
190
121
243
150
144
218
153
288
111
269
81
45
224
204
259
23
246
170
175
215
58
137
87
19
214
277
125
106
69
116
52
91
29
239
174
266
202
102
184
97
7
216
79
28
26
12
264
21
260
46
136
55
5
123
181
3
32

> <PUBCHEM_MMFF94_PARTIAL_CHARGES>
38
1 -0.29
10 -0.14
11 0.1
12 0.37
13 0.37
14 -0.15
15 -0.15
16 -0.15
17 -0.15
18 0.66
19 0.29
2 -0.29
20 0.29
21 -0.05
22 0.01
23 0.54
24 -0.15
25 0.28
26 -0.14
27 -0.15
28 -0.15
3 -0.43
36 0.15
37 0.15
38 0.15
39 0.15
4 -0.57
40 0.4
45 0.15
46 0.15
5 -0.57
50 0.15
51 0.15
52 0.15
6 -0.84
7 -0.87
8 0.14
9 0.43

> <PUBCHEM_EFFECTIVE_ROTOR_COUNT>
11

> <PUBCHEM_PHARMACOPHORE_FEATURES>
7
1 4 acceptor
1 5 acceptor
1 6 cation
1 7 cation
1 7 donor
6 10 11 14 15 16 17 rings
6 22 23 24 26 27 28 rings

> <PUBCHEM_HEAVY_ATOM_COUNT>
28

> <PUBCHEM_ATOM_DEF_STEREO_COUNT>
0

> <PUBCHEM_ATOM_UDEF_STEREO_COUNT>
1

> <PUBCHEM_BOND_DEF_STEREO_COUNT>
1

> <PUBCHEM_BOND_UDEF_STEREO_COUNT>
0

> <PUBCHEM_ISOTOPIC_ATOM_COUNT>
0

> <PUBCHEM_COMPONENT_COUNT>
1

> <PUBCHEM_CACTVS_TAUTO_COUNT>
3

> <PUBCHEM_CONFORMER_ID>
0057DBDC00000001

> <PUBCHEM_MMFF94_ENERGY>
76.6652

> <PUBCHEM_FEATURE_SELFOVERLAP>
35.521

> <PUBCHEM_SHAPE_FINGERPRINT>
10369192 42 18338536225436390333
10937287 8 18412547612939959454
11045515 52 17257085399350375582
11049842 53 15262858897516121425
11135609 187 18410284823054309805
11135609 201 18272937149967838561
12107183 9 18335126597899500082
12422481 6 17749104461461714020
12596602 18 13551479180542460452
12788726 201 17904476651784060690
13103583 49 11963664478609234140
13583140 156 16951684680304205323
14251764 75 18341623615311414136
14294032 229 18125740107855861226
15163728 17 18341909492724048086
17980427 23 17981866576373578970
19309040 13 18130520638732780413
20511986 3 17897709076421840176
20715895 44 18115294592826127940
21033648 144 18187643587525381862
23559900 14 18196092144774624634
2838139 119 18411413991030013400
314194 84 10159688119019033984
376196 1 18187636964564583251
474 4 18333734589390735400
6034566 193 18267041585662864049
9981440 41 18410856563998509443

> <PUBCHEM_SHAPE_MULTIPOLES>
552.4
11.96
5.01
2.31
3.87
6.49
1.15
-15.08
-1.61
1.76
1.56
-2.85
-1.2
-1.15

> <PUBCHEM_SHAPE_SELFOVERLAP>
1127.753

> <PUBCHEM_SHAPE_VOLUME>
319.4

> <PUBCHEM_COORDINATE_TYPE>
2
5
10

$$$$
