17578557
  -OEChem-01171810003D

 38 40  0     0  0  0  0  0  0999 V2000
    3.9952   -1.2090    2.6027 O   0  0  0  0  0  0  0  0  0  0  0  0
   -4.2765   -0.4939    0.0583 O   0  0  0  0  0  0  0  0  0  0  0  0
    1.4893   -2.5047   -1.7319 O   0  0  0  0  0  0  0  0  0  0  0  0
   -6.4344    1.0213   -0.4573 O   0  0  0  0  0  0  0  0  0  0  0  0
    4.2062    0.8422    1.4500 N   0  0  0  0  0  0  0  0  0  0  0  0
   -6.0734    2.3729    1.3700 N   0  0  0  0  0  0  0  0  0  0  0  0
    2.7201    0.4959   -0.2705 C   0  0  0  0  0  0  0  0  0  0  0  0
    2.7408   -0.6872    0.5828 C   0  0  0  0  0  0  0  0  0  0  0  0
    3.6272    1.3930    0.3012 C   0  0  0  0  0  0  0  0  0  0  0  0
    3.7150   -0.4434    1.6989 C   0  0  0  0  0  0  0  0  0  0  0  0
    2.0262    0.8297   -1.4182 C   0  0  0  0  0  0  0  0  0  0  0  0
    2.0444   -1.8180    0.4533 C   0  0  0  0  0  0  0  0  0  0  0  0
    3.8755    2.6391   -0.2398 C   0  0  0  0  0  0  0  0  0  0  0  0
    1.0862   -2.0025   -0.6826 C   0  0  0  0  0  0  0  0  0  0  0  0
   -0.3160   -1.6091   -0.4887 C   0  0  0  0  0  0  0  0  0  0  0  0
    2.2624    2.0875   -1.9831 C   0  0  0  0  0  0  0  0  0  0  0  0
    3.1781    2.9834   -1.3995 C   0  0  0  0  0  0  0  0  0  0  0  0
   -0.7284   -1.0773    0.7331 C   0  0  0  0  0  0  0  0  0  0  0  0
   -1.2347   -1.7668   -1.5264 C   0  0  0  0  0  0  0  0  0  0  0  0
   -2.9781   -0.8608   -0.1206 C   0  0  0  0  0  0  0  0  0  0  0  0
   -2.0594   -0.7031    0.9172 C   0  0  0  0  0  0  0  0  0  0  0  0
   -2.5658   -1.3927   -1.3423 C   0  0  0  0  0  0  0  0  0  0  0  0
   -4.5289    0.5803    0.9629 C   0  0  0  0  0  0  0  0  0  0  0  0
   -5.7711    1.3230    0.5306 C   0  0  0  0  0  0  0  0  0  0  0  0
    4.8919    1.3257    2.0180 H   0  0  0  0  0  0  0  0  0  0  0  0
    1.3217    0.1762   -1.9112 H   0  0  0  0  0  0  0  0  0  0  0  0
    2.1404   -2.6459    1.1471 H   0  0  0  0  0  0  0  0  0  0  0  0
    4.5808    3.3280    0.2105 H   0  0  0  0  0  0  0  0  0  0  0  0
    1.7338    2.3787   -2.8873 H   0  0  0  0  0  0  0  0  0  0  0  0
    3.3431    3.9543   -1.8593 H   0  0  0  0  0  0  0  0  0  0  0  0
   -0.0543   -0.9460    1.5737 H   0  0  0  0  0  0  0  0  0  0  0  0
   -0.9351   -2.1777   -2.4869 H   0  0  0  0  0  0  0  0  0  0  0  0
   -2.3463   -0.3196    1.8920 H   0  0  0  0  0  0  0  0  0  0  0  0
   -3.2770   -1.5168   -2.1545 H   0  0  0  0  0  0  0  0  0  0  0  0
   -4.6881    0.1784    1.9697 H   0  0  0  0  0  0  0  0  0  0  0  0
   -3.7118    1.3135    0.9673 H   0  0  0  0  0  0  0  0  0  0  0  0
   -5.5074    2.5996    2.1815 H   0  0  0  0  0  0  0  0  0  0  0  0
   -6.8834    2.9600    1.2004 H   0  0  0  0  0  0  0  0  0  0  0  0
  1 10  2  0  0  0  0
  2 20  1  0  0  0  0
  2 23  1  0  0  0  0
  3 14  2  0  0  0  0
  4 24  2  0  0  0  0
  5  9  1  0  0  0  0
  5 10  1  0  0  0  0
  5 25  1  0  0  0  0
  6 24  1  0  0  0  0
  6 37  1  0  0  0  0
  6 38  1  0  0  0  0
  7  8  1  0  0  0  0
  7  9  1  0  0  0  0
  7 11  2  0  0  0  0
  8 10  1  0  0  0  0
  8 12  2  0  0  0  0
  9 13  2  0  0  0  0
 11 16  1  0  0  0  0
 11 26  1  0  0  0  0
 12 14  1  0  0  0  0
 12 27  1  0  0  0  0
 13 17  1  0  0  0  0
 13 28  1  0  0  0  0
 14 15  1  0  0  0  0
 15 18  2  0  0  0  0
 15 19  1  0  0  0  0
 16 17  2  0  0  0  0
 16 29  1  0  0  0  0
 17 30  1  0  0  0  0
 18 21  1  0  0  0  0
 18 31  1  0  0  0  0
 19 22  2  0  0  0  0
 19 32  1  0  0  0  0
 20 21  2  0  0  0  0
 20 22  1  0  0  0  0
 21 33  1  0  0  0  0
 22 34  1  0  0  0  0
 23 24  1  0  0  0  0
 23 35  1  0  0  0  0
 23 36  1  0  0  0  0
M  END
> <PUBCHEM_COMPOUND_CID>
17578557

> <PUBCHEM_CONFORMER_RMSD>
0.8

> <PUBCHEM_CONFORMER_DIVERSEORDER>
1
47
23
39
33
52
36
49
45
22
59
24
44
14
54
41
29
7
61
51
26
56
3
32
28
53
55
12
20
46
38
42
58
25
2
35
48
21
27
19
8
57
4
9
50
43
10
15
30
34
31
60
18
16
13
40
37
17
11
5
6

> <PUBCHEM_MMFF94_PARTIAL_CHARGES>
36
1 -0.57
10 0.62
11 -0.15
12 -0.14
13 -0.15
14 0.47
15 0.09
16 -0.15
17 -0.15
18 -0.15
19 -0.15
2 -0.36
20 0.08
21 -0.15
22 -0.15
23 0.34
24 0.57
25 0.37
26 0.15
27 0.15
28 0.15
29 0.15
3 -0.57
30 0.15
31 0.15
32 0.15
33 0.15
34 0.15
37 0.37
38 0.37
4 -0.57
5 -0.55
6 -0.8
7 0.03
8 -0.01
9 0.12

> <PUBCHEM_EFFECTIVE_ROTOR_COUNT>
5.2

> <PUBCHEM_PHARMACOPHORE_FEATURES>
9
1 1 acceptor
1 2 acceptor
1 3 acceptor
1 4 acceptor
1 5 donor
1 6 donor
5 5 7 8 9 10 rings
6 15 18 19 20 21 22 rings
6 7 9 11 13 16 17 rings

> <PUBCHEM_HEAVY_ATOM_COUNT>
24

> <PUBCHEM_ATOM_DEF_STEREO_COUNT>
0

> <PUBCHEM_ATOM_UDEF_STEREO_COUNT>
0

> <PUBCHEM_BOND_DEF_STEREO_COUNT>
1

> <PUBCHEM_BOND_UDEF_STEREO_COUNT>
0

> <PUBCHEM_ISOTOPIC_ATOM_COUNT>
0

> <PUBCHEM_COMPONENT_COUNT>
1

> <PUBCHEM_CACTVS_TAUTO_COUNT>
10

> <PUBCHEM_CONFORMER_ID>
010C3A3D00000001

> <PUBCHEM_MMFF94_ENERGY>
90.0639

> <PUBCHEM_FEATURE_SELFOVERLAP>
45.768

> <PUBCHEM_SHAPE_FINGERPRINT>
10382601 240 17678162992702065468
10498660 4 17489594501521454107
10674148 151 18263096551945781020
10763959 59 18268721514833316679
10928967 22 7997684273566585249
11582403 64 14475803439428243626
11640471 11 18049436243462183902
12403259 118 18411132576167085739
12403259 327 17458068161563350891
12422481 6 18188482476564994349
12633257 1 17385719244167233003
12788726 201 17835516407296881047
13965767 371 18336538413135645836
14251764 38 18263366880933913485
14251764 75 18045800128054883613
14950920 106 17675926499845725801
15324115 91 11743830348734676762
15342168 16 18411421734850663143
15475509 8 18410302398339352358
16992787 43 17894354376799048258
17810953 82 18340212899359873101
17980427 23 18268971207447675794
19377110 9 18264495151773232947
20567600 234 18187652418869614413
20567600 9 17986694609124159013
20715895 44 18265045839484117657
20775438 99 9942656519645977645
21475661 188 18041837299522576661
21503847 285 18335145288869164814
21864079 5 18267873958824696076
235170 7 14692572117772357801
23557571 272 16055191517623893830
23559900 14 18269007388210869399
23596394 208 13398634939588230845
238 59 13398639367805118748
341906 21 17917993918659345153
3472631 163 17489015075978643920
34797466 226 15267052658672276457
38570 142 17751940244321843340
4409770 3 16609987033616394462
474 4 18408325492805826043
5104073 3 17894919550912526891
513532 50 16917352489529510812
57724786 102 18114746035661244940
5951187 136 17346600793810644320
633830 44 18409167752893313846
960060 61 12031792457034307571

> <PUBCHEM_SHAPE_MULTIPOLES>
460.47
11.96
3.02
1.89
19.63
1.28
-0.16
9.43
-4.87
-1.48
0.95
-1.39
-0.24
-2.62

> <PUBCHEM_SHAPE_SELFOVERLAP>
1011.463

> <PUBCHEM_SHAPE_VOLUME>
248.6

> <PUBCHEM_COORDINATE_TYPE>
2
5
10

$$$$
