5392060
  -OEChem-01171809533D

 33 35  0     0  0  0  0  0  0999 V2000
    4.1513    1.4295    0.5744 S   0  0  0  0  0  0  0  0  0  0  0  0
   -0.6415    1.6620   -0.1454 O   0  0  0  0  0  0  0  0  0  0  0  0
   -3.5316   -1.7596    0.0766 N   0  0  0  0  0  0  0  0  0  0  0  0
   -2.1932   -1.5333    0.0846 N   0  0  0  0  0  0  0  0  0  0  0  0
    0.3148   -0.4244    0.0481 N   0  0  0  0  0  0  0  0  0  0  0  0
    1.5615    0.0984    0.0076 N   0  0  0  0  0  0  0  0  0  0  0  0
   -5.5085    1.3273    0.1174 C   0  0  0  0  0  0  0  0  0  0  0  0
   -4.0136    1.7150   -0.1889 C   0  0  0  0  0  0  0  0  0  0  0  0
   -5.6459   -0.2262   -0.0736 C   0  0  0  0  0  0  0  0  0  0  0  0
   -3.3389    0.4134   -0.0792 C   0  0  0  0  0  0  0  0  0  0  0  0
   -4.2318   -0.6123   -0.0206 C   0  0  0  0  0  0  0  0  0  0  0  0
   -2.0893   -0.1947   -0.0119 C   0  0  0  0  0  0  0  0  0  0  0  0
   -0.7973    0.4265   -0.0347 C   0  0  0  0  0  0  0  0  0  0  0  0
    2.5708   -0.7178    0.0866 C   0  0  0  0  0  0  0  0  0  0  0  0
    3.9405   -0.1397    0.0032 C   0  0  0  0  0  0  0  0  0  0  0  0
    2.4508   -2.2191    0.2598 C   0  0  0  0  0  0  0  0  0  0  0  0
    5.0359   -0.7388   -0.4821 C   0  0  0  0  0  0  0  0  0  0  0  0
    6.1535    0.1402   -0.3891 C   0  0  0  0  0  0  0  0  0  0  0  0
    5.8126    1.3534    0.1671 C   0  0  0  0  0  0  0  0  0  0  0  0
   -5.7315    1.5772    1.1632 H   0  0  0  0  0  0  0  0  0  0  0  0
   -6.2135    1.8830   -0.5089 H   0  0  0  0  0  0  0  0  0  0  0  0
   -3.6444    2.4520    0.5293 H   0  0  0  0  0  0  0  0  0  0  0  0
   -3.9258    2.1168   -1.2033 H   0  0  0  0  0  0  0  0  0  0  0  0
   -6.0843   -0.4556   -1.0494 H   0  0  0  0  0  0  0  0  0  0  0  0
   -6.2502   -0.6717    0.7205 H   0  0  0  0  0  0  0  0  0  0  0  0
   -3.8639   -2.7142    0.1410 H   0  0  0  0  0  0  0  0  0  0  0  0
    0.2047   -1.4297    0.1160 H   0  0  0  0  0  0  0  0  0  0  0  0
    3.4136   -2.6862    0.4793 H   0  0  0  0  0  0  0  0  0  0  0  0
    1.7830   -2.4455    1.0964 H   0  0  0  0  0  0  0  0  0  0  0  0
    2.0460   -2.6574   -0.6570 H   0  0  0  0  0  0  0  0  0  0  0  0
    5.0847   -1.7366   -0.8976 H   0  0  0  0  0  0  0  0  0  0  0  0
    7.1560   -0.1040   -0.7158 H   0  0  0  0  0  0  0  0  0  0  0  0
    6.4597    2.1990    0.3530 H   0  0  0  0  0  0  0  0  0  0  0  0
  1 15  1  0  0  0  0
  1 19  1  0  0  0  0
  2 13  2  0  0  0  0
  3  4  1  0  0  0  0
  3 11  1  0  0  0  0
  3 26  1  0  0  0  0
  4 12  2  0  0  0  0
  5  6  1  0  0  0  0
  5 13  1  0  0  0  0
  5 27  1  0  0  0  0
  6 14  2  0  0  0  0
  7  8  1  0  0  0  0
  7  9  1  0  0  0  0
  7 20  1  0  0  0  0
  7 21  1  0  0  0  0
  8 10  1  0  0  0  0
  8 22  1  0  0  0  0
  8 23  1  0  0  0  0
  9 11  1  0  0  0  0
  9 24  1  0  0  0  0
  9 25  1  0  0  0  0
 10 11  2  0  0  0  0
 10 12  1  0  0  0  0
 12 13  1  0  0  0  0
 14 15  1  0  0  0  0
 14 16  1  0  0  0  0
 15 17  2  0  0  0  0
 16 28  1  0  0  0  0
 16 29  1  0  0  0  0
 16 30  1  0  0  0  0
 17 18  1  0  0  0  0
 17 31  1  0  0  0  0
 18 19  2  0  0  0  0
 18 32  1  0  0  0  0
 19 33  1  0  0  0  0
M  END
> <PUBCHEM_COMPOUND_CID>
5392060

> <PUBCHEM_CONFORMER_RMSD>
0.6

> <PUBCHEM_CONFORMER_DIVERSEORDER>
1
7
19
10
11
20
5
6
17
9
4
8
12
18
3
2
15
16
13
14

> <PUBCHEM_MMFF94_PARTIAL_CHARGES>
23
1 -0.08
10 -0.18
11 -0.33
12 0.2
13 0.72
14 0.47
15 -0.05
16 0.06
17 -0.15
18 -0.15
19 -0.11
2 -0.57
26 0.27
27 0.37
3 0.3
31 0.15
32 0.15
33 0.15
4 -0.71
5 -0.37
6 -0.51
8 0.18
9 0.18

> <PUBCHEM_EFFECTIVE_ROTOR_COUNT>
4.6

> <PUBCHEM_PHARMACOPHORE_FEATURES>
8
1 2 acceptor
1 3 donor
1 4 acceptor
1 5 donor
1 6 acceptor
5 1 15 17 18 19 rings
5 3 4 10 11 12 rings
5 7 8 9 10 11 rings

> <PUBCHEM_HEAVY_ATOM_COUNT>
19

> <PUBCHEM_ATOM_DEF_STEREO_COUNT>
0

> <PUBCHEM_ATOM_UDEF_STEREO_COUNT>
0

> <PUBCHEM_BOND_DEF_STEREO_COUNT>
1

> <PUBCHEM_BOND_UDEF_STEREO_COUNT>
0

> <PUBCHEM_ISOTOPIC_ATOM_COUNT>
0

> <PUBCHEM_COMPONENT_COUNT>
1

> <PUBCHEM_CACTVS_TAUTO_COUNT>
5

> <PUBCHEM_CONFORMER_ID>
005246BC00000001

> <PUBCHEM_MMFF94_ENERGY>
56.1724

> <PUBCHEM_FEATURE_SELFOVERLAP>
40.84

> <PUBCHEM_SHAPE_FINGERPRINT>
10366900 7 14549019874959518526
10968037 39 18409730673124264167
11315181 36 17775288274151240345
11578080 2 14044367067947248049
11595378 159 16806153376707072764
12107183 9 17619068330636860912
12236239 1 17822009795991012834
12516196 113 18060416932343643801
12788726 201 17560521673178636401
13073987 5 18261957349854659299
14251764 18 18343586240147102793
14341114 176 18412831282855909472
14528608 73 18413106182342905748
14933364 13 18413111662563179628
15048467 5 18410855447470379609
15196674 1 18410011022487688506
15242433 33 18409166584588128675
17834072 33 18202843266295650470
17834076 25 17894349981971370474
17844677 252 18342183271214699664
18222031 100 13758352263338182538
200 152 18059856160054393672
20281389 69 18187643578861996845
20621476 66 18200882760477153513
20645477 56 18333730196071727509
20645477 70 18130509622268292934
20681677 155 18260547822955250459
21150785 3 17346589803331705253
21267235 1 18409455816871641027
220451 1 17385723595480988810
221357 26 18130792235806832560
23035841 295 18334576828525346330
23402539 116 18334009510521626310
23402655 69 18342455941798265998
23557571 272 18410296869920396524
23559900 14 18342449383156683353
23622692 118 17985257719811085935
239999 70 18272374157634631254
29717793 49 17131840837547383516
300161 21 18261105257996486039
3004659 81 18335985260356301042
34797466 226 17846506958340052604
34934 24 18409726253197072339
3545911 37 18409731750654718108
4073 2 18114186380095582250
4214541 1 18411136935395198177
42788 4 18412263939055719500
4463277 17 18411700984596568137
5104073 3 18261675870145307459
5283173 99 18337951190761483729
542803 24 17632578240645383833
59755656 215 18339648850290398334
59755656 520 17385441033777728570
77779 3 18411981356009211890

> <PUBCHEM_SHAPE_MULTIPOLES>
369.07
15.83
1.83
0.65
4.29
0.2
-0.01
-3.57
0.68
-0.07
-0.14
0.24
-0.03
0.35

> <PUBCHEM_SHAPE_SELFOVERLAP>
787.114

> <PUBCHEM_SHAPE_VOLUME>
208

> <PUBCHEM_COORDINATE_TYPE>
2
5
10

$$$$
