16547660
  -OEChem-01171810073D

 38 40  0     0  0  0  0  0  0999 V2000
    2.4301    2.0326   -0.2972 O   0  0  0  0  0  0  0  0  0  0  0  0
    4.8753    0.5511    0.0731 O   0  0  0  0  0  0  0  0  0  0  0  0
   -0.2733   -3.1491    0.6112 O   0  0  0  0  0  0  0  0  0  0  0  0
   -1.1033   -1.4836   -0.7357 N   0  0  0  0  0  0  0  0  0  0  0  0
   -3.3852   -1.6104    0.2083 C   0  0  0  0  0  0  0  0  0  0  0  0
   -2.4150   -2.0744   -0.8754 C   0  0  0  0  0  0  0  0  0  0  0  0
    2.4562    0.6735   -0.1230 C   0  0  0  0  0  0  0  0  0  0  0  0
    1.1909   -1.3759    0.0402 C   0  0  0  0  0  0  0  0  0  0  0  0
    3.6403   -0.0430    0.0674 C   0  0  0  0  0  0  0  0  0  0  0  0
   -3.6208   -0.1202    0.1884 C   0  0  0  0  0  0  0  0  0  0  0  0
    1.2319    0.0052   -0.1518 C   0  0  0  0  0  0  0  0  0  0  0  0
    3.6637    2.6437    0.0907 C   0  0  0  0  0  0  0  0  0  0  0  0
    4.8357    1.8693   -0.4803 C   0  0  0  0  0  0  0  0  0  0  0  0
   -0.0844   -2.0743    0.0206 C   0  0  0  0  0  0  0  0  0  0  0  0
    2.3712   -2.0877    0.2576 C   0  0  0  0  0  0  0  0  0  0  0  0
    3.5971   -1.4221    0.2729 C   0  0  0  0  0  0  0  0  0  0  0  0
   -2.8048    0.7250    0.9405 C   0  0  0  0  0  0  0  0  0  0  0  0
   -4.6545    0.4124   -0.5818 C   0  0  0  0  0  0  0  0  0  0  0  0
   -3.0226    2.1026    0.9222 C   0  0  0  0  0  0  0  0  0  0  0  0
   -4.8723    1.7901   -0.6000 C   0  0  0  0  0  0  0  0  0  0  0  0
   -4.0563    2.6352    0.1520 C   0  0  0  0  0  0  0  0  0  0  0  0
   -4.3433   -2.1310    0.0851 H   0  0  0  0  0  0  0  0  0  0  0  0
   -3.0121   -1.9032    1.1984 H   0  0  0  0  0  0  0  0  0  0  0  0
   -2.3234   -3.1656   -0.8461 H   0  0  0  0  0  0  0  0  0  0  0  0
   -2.7851   -1.7977   -1.8689 H   0  0  0  0  0  0  0  0  0  0  0  0
    0.3309    0.5978   -0.2825 H   0  0  0  0  0  0  0  0  0  0  0  0
    3.7036    2.6878    1.1862 H   0  0  0  0  0  0  0  0  0  0  0  0
    3.6624    3.6687   -0.2928 H   0  0  0  0  0  0  0  0  0  0  0  0
    4.7733    1.7890   -1.5726 H   0  0  0  0  0  0  0  0  0  0  0  0
    5.7781    2.3649   -0.2273 H   0  0  0  0  0  0  0  0  0  0  0  0
   -0.9279   -0.6404   -1.2712 H   0  0  0  0  0  0  0  0  0  0  0  0
    2.3561   -3.1639    0.4097 H   0  0  0  0  0  0  0  0  0  0  0  0
    4.5124   -1.9853    0.4335 H   0  0  0  0  0  0  0  0  0  0  0  0
   -1.9974    0.3237    1.5471 H   0  0  0  0  0  0  0  0  0  0  0  0
   -5.2957   -0.2355   -1.1735 H   0  0  0  0  0  0  0  0  0  0  0  0
   -2.3871    2.7606    1.5079 H   0  0  0  0  0  0  0  0  0  0  0  0
   -5.6768    2.2049   -1.2002 H   0  0  0  0  0  0  0  0  0  0  0  0
   -4.2257    3.7079    0.1377 H   0  0  0  0  0  0  0  0  0  0  0  0
  1  7  1  0  0  0  0
  1 12  1  0  0  0  0
  2  9  1  0  0  0  0
  2 13  1  0  0  0  0
  3 14  2  0  0  0  0
  4  6  1  0  0  0  0
  4 14  1  0  0  0  0
  4 31  1  0  0  0  0
  5  6  1  0  0  0  0
  5 10  1  0  0  0  0
  5 22  1  0  0  0  0
  5 23  1  0  0  0  0
  6 24  1  0  0  0  0
  6 25  1  0  0  0  0
  7  9  2  0  0  0  0
  7 11  1  0  0  0  0
  8 11  2  0  0  0  0
  8 14  1  0  0  0  0
  8 15  1  0  0  0  0
  9 16  1  0  0  0  0
 10 17  2  0  0  0  0
 10 18  1  0  0  0  0
 11 26  1  0  0  0  0
 12 13  1  0  0  0  0
 12 27  1  0  0  0  0
 12 28  1  0  0  0  0
 13 29  1  0  0  0  0
 13 30  1  0  0  0  0
 15 16  2  0  0  0  0
 15 32  1  0  0  0  0
 16 33  1  0  0  0  0
 17 19  1  0  0  0  0
 17 34  1  0  0  0  0
 18 20  2  0  0  0  0
 18 35  1  0  0  0  0
 19 21  2  0  0  0  0
 19 36  1  0  0  0  0
 20 21  1  0  0  0  0
 20 37  1  0  0  0  0
 21 38  1  0  0  0  0
M  END
> <PUBCHEM_COMPOUND_CID>
16547660

> <PUBCHEM_CONFORMER_RMSD>
0.8

> <PUBCHEM_CONFORMER_DIVERSEORDER>
1
5
19
14
22
7
17
26
12
15
25
23
3
21
9
8
18
11
24
2
10
16
20
13
4
6

> <PUBCHEM_MMFF94_PARTIAL_CHARGES>
30
1 -0.36
10 -0.14
11 -0.15
12 0.28
13 0.28
14 0.54
15 -0.15
16 -0.15
17 -0.15
18 -0.15
19 -0.15
2 -0.36
20 -0.15
21 -0.15
26 0.15
3 -0.57
31 0.37
32 0.15
33 0.15
34 0.15
35 0.15
36 0.15
37 0.15
38 0.15
4 -0.73
5 0.14
6 0.3
7 0.08
8 0.09
9 0.08

> <PUBCHEM_EFFECTIVE_ROTOR_COUNT>
5.8

> <PUBCHEM_PHARMACOPHORE_FEATURES>
7
1 1 acceptor
1 2 acceptor
1 3 acceptor
1 4 donor
6 1 2 7 9 12 13 rings
6 10 17 18 19 20 21 rings
6 7 8 9 11 15 16 rings

> <PUBCHEM_HEAVY_ATOM_COUNT>
21

> <PUBCHEM_ATOM_DEF_STEREO_COUNT>
0

> <PUBCHEM_ATOM_UDEF_STEREO_COUNT>
0

> <PUBCHEM_BOND_DEF_STEREO_COUNT>
0

> <PUBCHEM_BOND_UDEF_STEREO_COUNT>
0

> <PUBCHEM_ISOTOPIC_ATOM_COUNT>
0

> <PUBCHEM_COMPONENT_COUNT>
1

> <PUBCHEM_CACTVS_TAUTO_COUNT>
2

> <PUBCHEM_CONFORMER_ID>
00FC7F4C00000001

> <PUBCHEM_MMFF94_ENERGY>
58.7303

> <PUBCHEM_FEATURE_SELFOVERLAP>
35.564

> <PUBCHEM_SHAPE_FINGERPRINT>
10498660 4 18413108376997600725
10670039 82 18264781020158434036
11370993 70 18410009923128788233
12107183 9 18121212082786492562
12788726 201 18046896354059195003
13583140 156 17968669202850907283
14251764 38 18340489971852648113
14251764 75 18269850743746937905
14466204 15 18191859020817779650
14739800 52 18126544933915375296
14767858 380 18200010916807516093
14790565 3 18118129306381974436
14848178 96 18410007728152651536
14931854 50 18272367564385429133
15196674 1 18410575071989310031
17349148 13 11743834755518971798
17492 89 18411420609411846211
17834072 32 18412267194741280137
20715895 44 17907573632653059865
20739085 24 17967813825954454822
21279426 13 18341060649032113782
21503847 285 18334857182526363098
21734292 116 18341048639460204113
21864079 5 18410291423632767931
22749437 52 18412265004366098369
23227448 37 18412262839876537775
235170 7 14979952545360169673
23559900 14 18129660786232739170
245318 6 17968674828852214660
2838139 119 17898555490000672605
335352 9 18409729535396053726
474 4 18335980883204176467
5048184 11 18410577296687670681
5081480 168 17270640925509510246
5104073 3 18260264152970761514
6328613 192 18335147505673754548
633830 44 18410851027743765390
7288768 16 17967812798972143371
9981440 41 18335419084550196827

> <PUBCHEM_SHAPE_MULTIPOLES>
409.58
11.1
3.49
0.82
0.38
0.02
0.02
-7.47
-0.8
0.06
0.13
0.46
-0.02
-0.72

> <PUBCHEM_SHAPE_SELFOVERLAP>
883.962

> <PUBCHEM_SHAPE_VOLUME>
222.9

> <PUBCHEM_COORDINATE_TYPE>
2
5
10

$$$$
