3005039
  -OEChem-01171810163D

 36 37  0     0  0  0  0  0  0999 V2000
   -1.7273    3.3302   -0.2037 S   0  0  0  0  0  0  0  0  0  0  0  0
   -1.2952    0.5914   -0.0277 N   0  0  0  0  0  0  0  0  0  0  0  0
    0.5379    2.0141   -0.1699 N   0  0  0  0  0  0  0  0  0  0  0  0
    1.3264    0.9168   -0.1045 N   0  0  0  0  0  0  0  0  0  0  0  0
    4.6592    0.0903    0.5582 N   0  0  0  0  0  0  0  0  0  0  0  0
   -2.5821   -0.0008    0.0149 C   0  0  0  0  0  0  0  0  0  0  0  0
   -5.0955   -1.1570    0.0981 C   0  0  0  0  0  0  0  0  0  0  0  0
   -2.7663   -1.2567   -0.5365 C   0  0  0  0  0  0  0  0  0  0  0  0
   -3.6247    0.6910    0.6066 C   0  0  0  0  0  0  0  0  0  0  0  0
   -4.0330   -1.8394   -0.4947 C   0  0  0  0  0  0  0  0  0  0  0  0
   -4.8913    0.1082    0.6486 C   0  0  0  0  0  0  0  0  0  0  0  0
   -6.4497   -1.7804    0.1431 C   0  0  0  0  0  0  0  0  0  0  0  0
    2.6154    1.0843   -0.1320 C   0  0  0  0  0  0  0  0  0  0  0  0
    3.4746   -0.1272   -0.0209 C   0  0  0  0  0  0  0  0  0  0  0  0
   -0.8488    1.9059   -0.1198 C   0  0  0  0  0  0  0  0  0  0  0  0
    3.0042   -1.3179   -0.5014 C   0  0  0  0  0  0  0  0  0  0  0  0
    3.3041    2.4277   -0.2697 C   0  0  0  0  0  0  0  0  0  0  0  0
    3.8466   -2.4167   -0.3734 C   0  0  0  0  0  0  0  0  0  0  0  0
    5.0949   -2.2634    0.2198 C   0  0  0  0  0  0  0  0  0  0  0  0
    5.4507   -1.0005    0.6650 C   0  0  0  0  0  0  0  0  0  0  0  0
   -1.9455   -1.7957   -1.0014 H   0  0  0  0  0  0  0  0  0  0  0  0
   -3.5006    1.6442    1.1042 H   0  0  0  0  0  0  0  0  0  0  0  0
   -4.1800   -2.8248   -0.9290 H   0  0  0  0  0  0  0  0  0  0  0  0
   -5.7087    0.6441    1.1240 H   0  0  0  0  0  0  0  0  0  0  0  0
   -0.5567   -0.0838   -0.2179 H   0  0  0  0  0  0  0  0  0  0  0  0
   -7.0206   -1.5030   -0.7486 H   0  0  0  0  0  0  0  0  0  0  0  0
   -6.3808   -2.8725    0.1900 H   0  0  0  0  0  0  0  0  0  0  0  0
   -7.0045   -1.4563    1.0302 H   0  0  0  0  0  0  0  0  0  0  0  0
    2.0341   -1.4325   -0.9706 H   0  0  0  0  0  0  0  0  0  0  0  0
    4.3846    2.3311   -0.4000 H   0  0  0  0  0  0  0  0  0  0  0  0
    3.1120    3.0278    0.6244 H   0  0  0  0  0  0  0  0  0  0  0  0
    2.9192    2.9495   -1.1511 H   0  0  0  0  0  0  0  0  0  0  0  0
    0.9737    2.9263   -0.2361 H   0  0  0  0  0  0  0  0  0  0  0  0
    3.5320   -3.3904   -0.7370 H   0  0  0  0  0  0  0  0  0  0  0  0
    5.7682   -3.1058    0.3295 H   0  0  0  0  0  0  0  0  0  0  0  0
    6.4136   -0.8279    1.1346 H   0  0  0  0  0  0  0  0  0  0  0  0
  1 15  2  0  0  0  0
  2  6  1  0  0  0  0
  2 15  1  0  0  0  0
  2 25  1  0  0  0  0
  3  4  1  0  0  0  0
  3 15  1  0  0  0  0
  3 33  1  0  0  0  0
  4 13  2  0  0  0  0
  5 14  1  0  0  0  0
  5 20  2  0  0  0  0
  6  8  2  0  0  0  0
  6  9  1  0  0  0  0
  7 10  2  0  0  0  0
  7 11  1  0  0  0  0
  7 12  1  0  0  0  0
  8 10  1  0  0  0  0
  8 21  1  0  0  0  0
  9 11  2  0  0  0  0
  9 22  1  0  0  0  0
 10 23  1  0  0  0  0
 11 24  1  0  0  0  0
 12 26  1  0  0  0  0
 12 27  1  0  0  0  0
 12 28  1  0  0  0  0
 13 14  1  0  0  0  0
 13 17  1  0  0  0  0
 14 16  2  0  0  0  0
 16 18  1  0  0  0  0
 16 29  1  0  0  0  0
 17 30  1  0  0  0  0
 17 31  1  0  0  0  0
 17 32  1  0  0  0  0
 18 19  2  0  0  0  0
 18 34  1  0  0  0  0
 19 20  1  0  0  0  0
 19 35  1  0  0  0  0
 20 36  1  0  0  0  0
M  END
> <PUBCHEM_COMPOUND_CID>
3005039

> <PUBCHEM_CONFORMER_RMSD>
0.8

> <PUBCHEM_CONFORMER_DIVERSEORDER>
1
30
32
44
36
46
7
33
42
26
50
62
18
49
61
25
41
45
15
52
16
59
27
47
13
56
4
23
35
17
12
54
28
63
53
48
11
20
19
5
55
34
31
22
40
24
21
9
38
51
8
58
6
43
10
57
37
3
2
14
60
29
39

> <PUBCHEM_MMFF94_PARTIAL_CHARGES>
30
1 -0.38
10 -0.15
11 -0.15
12 0.14
13 0.3
14 0.4
15 0.5
16 -0.15
17 0.06
18 -0.15
19 -0.15
2 -0.55
20 0.16
21 0.15
22 0.15
23 0.15
24 0.15
25 0.37
29 0.15
3 -0.37
33 0.37
34 0.15
35 0.15
36 0.15
4 -0.51
5 -0.62
6 0.12
7 -0.14
8 -0.15
9 -0.15

> <PUBCHEM_EFFECTIVE_ROTOR_COUNT>
5

> <PUBCHEM_PHARMACOPHORE_FEATURES>
7
1 1 acceptor
1 2 donor
1 3 donor
1 4 acceptor
1 5 acceptor
6 5 14 16 18 19 20 rings
6 6 7 8 9 10 11 rings

> <PUBCHEM_HEAVY_ATOM_COUNT>
20

> <PUBCHEM_ATOM_DEF_STEREO_COUNT>
0

> <PUBCHEM_ATOM_UDEF_STEREO_COUNT>
0

> <PUBCHEM_BOND_DEF_STEREO_COUNT>
0

> <PUBCHEM_BOND_UDEF_STEREO_COUNT>
1

> <PUBCHEM_ISOTOPIC_ATOM_COUNT>
0

> <PUBCHEM_COMPONENT_COUNT>
1

> <PUBCHEM_CACTVS_TAUTO_COUNT>
3

> <PUBCHEM_CONFORMER_ID>
002DDA6F00000001

> <PUBCHEM_MMFF94_ENERGY>
72.1284

> <PUBCHEM_FEATURE_SELFOVERLAP>
35.566

> <PUBCHEM_SHAPE_FINGERPRINT>
11809386 21 17968933064018809850
12107183 9 18197790912130931369
12596602 18 17060340746774679794
12760667 363 18412821370276826541
13073987 5 18341336690696178033
13167823 11 18412263947714381819
13533116 47 18341895255208012449
13551218 46 18413392042660950431
13911852 28 18411697703848254623
13955234 65 18268991071603517552
1420 369 18410013217273700178
14251751 18 18411417272189666896
14866123 147 18267026047109282617
15042514 8 18338518530609383357
15196674 1 18411700980296059791
15250474 111 18057596766834150767
15352361 1 18410573980919975758
15885798 251 18409732867641867589
16120349 21 18127141774996467961
17492 89 18338797806535867054
17857418 61 18342736334269125271
1813 80 17821731645466955797
19141452 34 18342460305437546433
193927 3 18186811265739282496
1979834 28 17632585937164059942
20028762 73 18342173362789016574
20281475 54 18412547621477354381
20403669 9 18411704270225652182
20645477 70 18260828232679773048
21267235 1 18410863165320901679
21478907 32 18410011022751543053
21673915 165 18413106135061615018
23559900 14 18410845547539633528
23622692 118 18408604734536757876
2838139 119 9439403510402762234
3004659 81 18113897182313576468
314194 84 18268151044798328825
3421961 26 18340485680879710608
351380 3 18334293162777997082
4214541 1 18339643334792780105
46194498 28 17241884487934477965
463206 1 18265613358723800127
5104073 3 18272942652158548233
559249 180 18410571765502717691
59682541 35 18342165705715844410
7164475 11 18334861601789741884
7808743 9 9799394616890333558
7970288 3 18408884074893980771
79837 15 17695919825643320449
9709674 26 18334018302219480496

> <PUBCHEM_SHAPE_MULTIPOLES>
395.52
14.55
3.28
0.74
2.9
1.64
-0.02
-11.24
-2.11
-0.6
0.43
0.02
-0.07
-0.36

> <PUBCHEM_SHAPE_SELFOVERLAP>
822.622

> <PUBCHEM_SHAPE_VOLUME>
225.8

> <PUBCHEM_COORDINATE_TYPE>
2
5
10

$$$$
