4831254
  -OEChem-01171809263D

 55 58  0     1  0  0  0  0  0999 V2000
    4.9786   -0.6832    1.5999 S   0  0  0  0  0  0  0  0  0  0  0  0
   -0.1792   -4.9045   -1.8439 F   0  0  0  0  0  0  0  0  0  0  0  0
    0.1666   -2.8729   -2.5198 F   0  0  0  0  0  0  0  0  0  0  0  0
    1.7988   -4.0208   -1.6554 F   0  0  0  0  0  0  0  0  0  0  0  0
   -1.0016    2.1809    2.0691 O   0  0  0  0  0  0  0  0  0  0  0  0
   -7.3859    0.7999   -1.7332 O   0  5  0  0  0  0  0  0  0  0  0  0
   -7.5034    2.2812   -0.1173 O   0  0  0  0  0  0  0  0  0  0  0  0
    3.0355    1.0042    0.5086 N   0  0  0  0  0  0  0  0  0  0  0  0
    2.4629   -0.4894    2.2692 N   0  0  0  0  0  0  0  0  0  0  0  0
   -1.4058    0.7086    0.2763 N   0  0  0  0  0  0  0  0  0  0  0  0
   -6.8536    1.4592   -0.8077 N   0  3  0  0  0  0  0  0  0  0  0  0
    1.0329   -0.3094    2.0987 C   0  0  1  0  0  0  0  0  0  0  0  0
    0.7542    0.8850    1.2357 C   0  0  0  0  0  0  0  0  0  0  0  0
    1.7030    1.4896    0.4897 C   0  0  0  0  0  0  0  0  0  0  0  0
    0.3935   -1.5880    1.5844 C   0  0  0  0  0  0  0  0  0  0  0  0
    3.4413    0.0002    1.4291 C   0  0  0  0  0  0  0  0  0  0  0  0
   -0.6501    1.3401    1.2499 C   0  0  0  0  0  0  0  0  0  0  0  0
    0.7144   -2.0623    0.3147 C   0  0  0  0  0  0  0  0  0  0  0  0
    1.4210    2.7300   -0.3364 C   0  0  0  0  0  0  0  0  0  0  0  0
    4.0050    1.5309   -0.4152 C   0  0  0  0  0  0  0  0  0  0  0  0
   -0.5100   -2.2814    2.3863 C   0  0  0  0  0  0  0  0  0  0  0  0
    0.1281   -3.2370   -0.1561 C   0  0  0  0  0  0  0  0  0  0  0  0
   -1.0966   -3.4560    1.9151 C   0  0  0  0  0  0  0  0  0  0  0  0
   -0.7776   -3.9338    0.6438 C   0  0  0  0  0  0  0  0  0  0  0  0
    4.7606    2.6320   -0.0493 C   0  0  0  0  0  0  0  0  0  0  0  0
    4.1597    0.9258   -1.6509 C   0  0  0  0  0  0  0  0  0  0  0  0
    0.4688   -3.7478   -1.5155 C   0  0  0  0  0  0  0  0  0  0  0  0
   -2.7824    0.8978    0.0027 C   0  0  0  0  0  0  0  0  0  0  0  0
    5.6995    3.1429   -0.9458 C   0  0  0  0  0  0  0  0  0  0  0  0
    5.0983    1.4369   -2.5474 C   0  0  0  0  0  0  0  0  0  0  0  0
    5.8686    2.5453   -2.1948 C   0  0  0  0  0  0  0  0  0  0  0  0
   -3.3754    0.1732   -1.0172 C   0  0  0  0  0  0  0  0  0  0  0  0
   -3.5047    1.8034    0.7612 C   0  0  0  0  0  0  0  0  0  0  0  0
   -4.7312    0.3601   -1.2870 C   0  0  0  0  0  0  0  0  0  0  0  0
   -4.8604    1.9905    0.4913 C   0  0  0  0  0  0  0  0  0  0  0  0
   -5.4736    1.2689   -0.5329 C   0  0  0  0  0  0  0  0  0  0  0  0
    0.6605   -0.0987    3.1098 H   0  0  0  0  0  0  0  0  0  0  0  0
    2.7578   -1.1658    2.9675 H   0  0  0  0  0  0  0  0  0  0  0  0
    1.4196   -1.5303   -0.3184 H   0  0  0  0  0  0  0  0  0  0  0  0
    1.6128    2.5419   -1.3978 H   0  0  0  0  0  0  0  0  0  0  0  0
    2.0400    3.5683   -0.0012 H   0  0  0  0  0  0  0  0  0  0  0  0
    0.3829    3.0672   -0.2646 H   0  0  0  0  0  0  0  0  0  0  0  0
   -0.7686   -1.9209    3.3781 H   0  0  0  0  0  0  0  0  0  0  0  0
   -1.8020   -3.9983    2.5379 H   0  0  0  0  0  0  0  0  0  0  0  0
   -0.9378    0.0407   -0.3321 H   0  0  0  0  0  0  0  0  0  0  0  0
   -1.2452   -4.8503    0.2945 H   0  0  0  0  0  0  0  0  0  0  0  0
    4.6355    3.1035    0.9214 H   0  0  0  0  0  0  0  0  0  0  0  0
    3.5629    0.0630   -1.9336 H   0  0  0  0  0  0  0  0  0  0  0  0
    6.2988    4.0060   -0.6711 H   0  0  0  0  0  0  0  0  0  0  0  0
    5.2294    0.9719   -3.5201 H   0  0  0  0  0  0  0  0  0  0  0  0
    6.5994    2.9431   -2.8928 H   0  0  0  0  0  0  0  0  0  0  0  0
   -2.8055   -0.5374   -1.6095 H   0  0  0  0  0  0  0  0  0  0  0  0
   -3.1011    2.3972    1.5681 H   0  0  0  0  0  0  0  0  0  0  0  0
   -5.1755   -0.2196   -2.0921 H   0  0  0  0  0  0  0  0  0  0  0  0
   -5.4085    2.7065    1.0986 H   0  0  0  0  0  0  0  0  0  0  0  0
  1 16  2  0  0  0  0
  2 27  1  0  0  0  0
  3 27  1  0  0  0  0
  4 27  1  0  0  0  0
  5 17  2  0  0  0  0
  6 11  1  0  0  0  0
  7 11  2  0  0  0  0
  8 14  1  0  0  0  0
  8 16  1  0  0  0  0
  8 20  1  0  0  0  0
  9 12  1  0  0  0  0
  9 16  1  0  0  0  0
  9 38  1  0  0  0  0
 10 17  1  0  0  0  0
 10 28  1  0  0  0  0
 10 45  1  0  0  0  0
 11 36  1  0  0  0  0
 12 13  1  0  0  0  0
 12 15  1  0  0  0  0
 12 37  1  0  0  0  0
 13 14  2  0  0  0  0
 13 17  1  0  0  0  0
 14 19  1  0  0  0  0
 15 18  2  0  0  0  0
 15 21  1  0  0  0  0
 18 22  1  0  0  0  0
 18 39  1  0  0  0  0
 19 40  1  0  0  0  0
 19 41  1  0  0  0  0
 19 42  1  0  0  0  0
 20 25  2  0  0  0  0
 20 26  1  0  0  0  0
 21 23  2  0  0  0  0
 21 43  1  0  0  0  0
 22 24  2  0  0  0  0
 22 27  1  0  0  0  0
 23 24  1  0  0  0  0
 23 44  1  0  0  0  0
 24 46  1  0  0  0  0
 25 29  1  0  0  0  0
 25 47  1  0  0  0  0
 26 30  2  0  0  0  0
 26 48  1  0  0  0  0
 28 32  2  0  0  0  0
 28 33  1  0  0  0  0
 29 31  2  0  0  0  0
 29 49  1  0  0  0  0
 30 31  1  0  0  0  0
 30 50  1  0  0  0  0
 31 51  1  0  0  0  0
 32 34  1  0  0  0  0
 32 52  1  0  0  0  0
 33 35  2  0  0  0  0
 33 53  1  0  0  0  0
 34 36  2  0  0  0  0
 34 54  1  0  0  0  0
 35 36  1  0  0  0  0
 35 55  1  0  0  0  0
M  CHG  2   6  -1  11   1
M  END
> <PUBCHEM_COMPOUND_CID>
4831254

> <PUBCHEM_CONFORMER_RMSD>
1

> <PUBCHEM_CONFORMER_DIVERSEORDER>
1
15
11
14
3
6
16
2
7
13
12
4
9
10
8
5

> <PUBCHEM_MMFF94_PARTIAL_CHARGES>
51
1 -0.38
10 -0.55
11 0.91
12 0.58
13 -0.12
14 -0.03
15 -0.14
16 0.5
17 0.62
18 -0.15
19 0.14
2 -0.34
20 0.12
21 -0.15
22 -0.14
23 -0.15
24 -0.15
25 -0.15
26 -0.15
27 1.16
28 0.12
29 -0.15
3 -0.34
30 -0.15
31 -0.15
32 -0.15
33 -0.15
34 -0.15
35 -0.15
36 0.13
38 0.37
39 0.15
4 -0.34
43 0.15
44 0.15
45 0.37
46 0.15
47 0.15
48 0.15
49 0.15
5 -0.57
50 0.15
51 0.15
52 0.15
53 0.15
54 0.15
55 0.15
6 -0.52
7 -0.52
8 -0.29
9 -0.73

> <PUBCHEM_EFFECTIVE_ROTOR_COUNT>
7.6

> <PUBCHEM_PHARMACOPHORE_FEATURES>
11
1 1 acceptor
1 10 donor
1 5 acceptor
1 6 acceptor
1 6 anion
1 7 acceptor
1 9 donor
6 15 18 21 22 23 24 rings
6 20 25 26 29 30 31 rings
6 28 32 33 34 35 36 rings
6 8 9 12 13 14 16 rings

> <PUBCHEM_HEAVY_ATOM_COUNT>
36

> <PUBCHEM_ATOM_DEF_STEREO_COUNT>
0

> <PUBCHEM_ATOM_UDEF_STEREO_COUNT>
1

> <PUBCHEM_BOND_DEF_STEREO_COUNT>
0

> <PUBCHEM_BOND_UDEF_STEREO_COUNT>
0

> <PUBCHEM_ISOTOPIC_ATOM_COUNT>
0

> <PUBCHEM_COMPONENT_COUNT>
1

> <PUBCHEM_CACTVS_TAUTO_COUNT>
4

> <PUBCHEM_CONFORMER_ID>
0049B81600000001

> <PUBCHEM_MMFF94_ENERGY>
130.7088

> <PUBCHEM_FEATURE_SELFOVERLAP>
55.904

> <PUBCHEM_SHAPE_FINGERPRINT>
105312 117 18188783854182498420
10673678 19 18113618954675663133
11421498 54 17916293958024960921
11991303 11 18187651361358457631
12597179 24 18336559277601479415
12608794 3 17387662056308938290
12788726 201 17976530929759017834
13150687 139 18335428958938134996
13540713 5 17678443372424952914
13782708 43 14117507758522584165
144659 39 18041574618926926074
14747281 78 17243028843036638197
14863182 85 18057583409438043003
15131766 46 15142389038325769268
15219462 58 17390515447917737074
15264996 19 18116993497721731999
15276724 80 17756443907708915512
15484559 13 18335135362841106073
15664445 248 17974853869535839513
16090146 7 18340494387368984914
17980427 23 13479428213796786737
17980427 26 16081630254235194360
19319366 153 17676194793425776384
20578428 11 18263085423399926069
20771845 140 17702358703406281251
21344244 181 17988372566773254759
249057 3 18186800263045770824
27425 322 16660363718331678465
4058900 60 18261399897285660889
437795 70 17557133210376040655
4409770 3 18125736818116484410
46194498 28 18191020110899864845
57359948 33 18046896097104527389

> <PUBCHEM_SHAPE_MULTIPOLES>
685.36
13.74
5.32
2.5
13.84
6.69
-0.53
-18.81
-7.12
-0.31
-2.05
-1.56
1.45
-1.33

> <PUBCHEM_SHAPE_SELFOVERLAP>
1492.181

> <PUBCHEM_SHAPE_VOLUME>
378.8

> <PUBCHEM_COORDINATE_TYPE>
2
5
10

$$$$
