7422381
  -OEChem-01171810023D

 42 44  0     0  0  0  0  0  0999 V2000
   -5.0257    2.5963   -0.0828 F   0  0  0  0  0  0  0  0  0  0  0  0
   -6.7069    1.6634   -1.1126 F   0  0  0  0  0  0  0  0  0  0  0  0
   -6.6743    1.7511    1.0646 F   0  0  0  0  0  0  0  0  0  0  0  0
   -5.8186   -0.8204    0.0560 O   0  0  0  0  0  0  0  0  0  0  0  0
    4.8219    0.3789   -0.0157 N   0  0  0  0  0  0  0  0  0  0  0  0
    2.5117    0.7260    0.5275 N   0  0  0  0  0  0  0  0  0  0  0  0
    1.2174    0.3084    0.5191 N   0  0  0  0  0  0  0  0  0  0  0  0
   -3.7961    0.3875   -0.0171 N   0  0  0  0  0  0  0  0  0  0  0  0
    7.5360    1.3514    0.1136 C   0  0  0  0  0  0  0  0  0  0  0  0
    7.2265   -0.1404    0.0976 C   0  0  0  0  0  0  0  0  0  0  0  0
    6.4514    2.1213   -0.6304 C   0  0  0  0  0  0  0  0  0  0  0  0
    5.8378   -0.4339    0.6632 C   0  0  0  0  0  0  0  0  0  0  0  0
    5.0662    1.8276   -0.0584 C   0  0  0  0  0  0  0  0  0  0  0  0
    3.4893   -0.0509   -0.0240 C   0  0  0  0  0  0  0  0  0  0  0  0
    3.1792   -1.2815   -0.6031 C   0  0  0  0  0  0  0  0  0  0  0  0
    1.8623   -1.7063   -0.6115 C   0  0  0  0  0  0  0  0  0  0  0  0
    0.9137   -0.8819   -0.0405 C   0  0  0  0  0  0  0  0  0  0  0  0
   -0.4813   -1.2446   -0.0052 C   0  0  0  0  0  0  0  0  0  0  0  0
   -1.4661   -0.2534   -0.0281 C   0  0  0  0  0  0  0  0  0  0  0  0
   -0.8558   -2.5897    0.0521 C   0  0  0  0  0  0  0  0  0  0  0  0
   -2.8155   -0.6047    0.0058 C   0  0  0  0  0  0  0  0  0  0  0  0
   -2.2051   -2.9410    0.0861 C   0  0  0  0  0  0  0  0  0  0  0  0
   -3.1851   -1.9485    0.0630 C   0  0  0  0  0  0  0  0  0  0  0  0
   -5.1873    0.2300    0.0102 C   0  0  0  0  0  0  0  0  0  0  0  0
   -5.8955    1.5555   -0.0297 C   0  0  0  0  0  0  0  0  0  0  0  0
    7.6001    1.7067    1.1491 H   0  0  0  0  0  0  0  0  0  0  0  0
    8.5100    1.5350   -0.3533 H   0  0  0  0  0  0  0  0  0  0  0  0
    7.2838   -0.5097   -0.9343 H   0  0  0  0  0  0  0  0  0  0  0  0
    7.9828   -0.6832    0.6753 H   0  0  0  0  0  0  0  0  0  0  0  0
    6.6538    3.1967   -0.5759 H   0  0  0  0  0  0  0  0  0  0  0  0
    6.4742    1.8426   -1.6915 H   0  0  0  0  0  0  0  0  0  0  0  0
    5.6409   -1.5060    0.5502 H   0  0  0  0  0  0  0  0  0  0  0  0
    5.8154   -0.2145    1.7380 H   0  0  0  0  0  0  0  0  0  0  0  0
    4.9770    2.2459    0.9520 H   0  0  0  0  0  0  0  0  0  0  0  0
    4.3235    2.3280   -0.6924 H   0  0  0  0  0  0  0  0  0  0  0  0
    3.9444   -1.9009   -1.0615 H   0  0  0  0  0  0  0  0  0  0  0  0
    1.6219   -2.6513   -1.0865 H   0  0  0  0  0  0  0  0  0  0  0  0
   -1.1976    0.7999   -0.0836 H   0  0  0  0  0  0  0  0  0  0  0  0
   -0.1259   -3.3937    0.0971 H   0  0  0  0  0  0  0  0  0  0  0  0
   -2.4921   -3.9874    0.1365 H   0  0  0  0  0  0  0  0  0  0  0  0
   -4.2076   -2.2978    0.0936 H   0  0  0  0  0  0  0  0  0  0  0  0
   -3.4471    1.3428   -0.0580 H   0  0  0  0  0  0  0  0  0  0  0  0
  1 25  1  0  0  0  0
  2 25  1  0  0  0  0
  3 25  1  0  0  0  0
  4 24  2  0  0  0  0
  5 12  1  0  0  0  0
  5 13  1  0  0  0  0
  5 14  1  0  0  0  0
  6  7  1  0  0  0  0
  6 14  2  0  0  0  0
  7 17  2  0  0  0  0
  8 21  1  0  0  0  0
  8 24  1  0  0  0  0
  8 42  1  0  0  0  0
  9 10  1  0  0  0  0
  9 11  1  0  0  0  0
  9 26  1  0  0  0  0
  9 27  1  0  0  0  0
 10 12  1  0  0  0  0
 10 28  1  0  0  0  0
 10 29  1  0  0  0  0
 11 13  1  0  0  0  0
 11 30  1  0  0  0  0
 11 31  1  0  0  0  0
 12 32  1  0  0  0  0
 12 33  1  0  0  0  0
 13 34  1  0  0  0  0
 13 35  1  0  0  0  0
 14 15  1  0  0  0  0
 15 16  2  0  0  0  0
 15 36  1  0  0  0  0
 16 17  1  0  0  0  0
 16 37  1  0  0  0  0
 17 18  1  0  0  0  0
 18 19  2  0  0  0  0
 18 20  1  0  0  0  0
 19 21  1  0  0  0  0
 19 38  1  0  0  0  0
 20 22  2  0  0  0  0
 20 39  1  0  0  0  0
 21 23  2  0  0  0  0
 22 23  1  0  0  0  0
 22 40  1  0  0  0  0
 23 41  1  0  0  0  0
 24 25  1  0  0  0  0
M  END
> <PUBCHEM_COMPOUND_CID>
7422381

> <PUBCHEM_CONFORMER_RMSD>
0.8

> <PUBCHEM_CONFORMER_DIVERSEORDER>
1
6
34
13
20
28
10
7
33
21
35
11
2
5
29
14
17
8
24
26
15
27
18
22
19
25
31
23
9
3
4
30
12
16
32

> <PUBCHEM_MMFF94_PARTIAL_CHARGES>
28
1 -0.34
12 0.37
13 0.37
14 0.41
15 -0.15
16 -0.15
17 0.31
19 -0.15
2 -0.34
20 -0.15
21 0.12
22 -0.15
23 -0.15
24 0.57
25 1.08
3 -0.34
36 0.15
37 0.15
38 0.15
39 0.15
4 -0.57
40 0.15
41 0.15
42 0.37
5 -0.84
6 -0.31
7 -0.31
8 -0.55

> <PUBCHEM_EFFECTIVE_ROTOR_COUNT>
6.2

> <PUBCHEM_PHARMACOPHORE_FEATURES>
7
1 4 acceptor
1 7 acceptor
1 8 donor
3 5 6 14 cation
6 18 19 20 21 22 23 rings
6 5 9 10 11 12 13 rings
6 6 7 14 15 16 17 rings

> <PUBCHEM_HEAVY_ATOM_COUNT>
25

> <PUBCHEM_ATOM_DEF_STEREO_COUNT>
0

> <PUBCHEM_ATOM_UDEF_STEREO_COUNT>
0

> <PUBCHEM_BOND_DEF_STEREO_COUNT>
0

> <PUBCHEM_BOND_UDEF_STEREO_COUNT>
0

> <PUBCHEM_ISOTOPIC_ATOM_COUNT>
0

> <PUBCHEM_COMPONENT_COUNT>
1

> <PUBCHEM_CACTVS_TAUTO_COUNT>
2

> <PUBCHEM_CONFORMER_ID>
007141AD00000001

> <PUBCHEM_MMFF94_ENERGY>
73.5845

> <PUBCHEM_FEATURE_SELFOVERLAP>
35.522

> <PUBCHEM_SHAPE_FINGERPRINT>
10 15 18187652409862922745
10050765 1 18410575076127165078
100830 39 18409166632222788865
10411042 1 17833833055986623507
10554248 39 18337942407764217870
10835480 77 18272367616315160296
10883706 163 18259702281139287509
10906281 52 18059871544495522115
11719270 70 18060417998355759710
12107183 9 18262789658925220882
12236239 1 18261672684134095810
12616971 3 16153713158357219510
12788726 201 17845654746275303144
13167372 99 18408040719621123716
13248334 5 17906734701091971135
13785724 45 17760924048616137162
14178184 131 7853268953176591649
14251764 18 18333730247231663270
14257110 125 18409728457053014577
14933364 13 18335703875357190512
15183329 4 18342737407731543568
15461852 350 18202280351250821695
15519825 34 16299246751309155425
15604295 49 18198056088245395184
15778101 99 18410295834506100170
15927050 60 18409446998772312322
16989713 51 17416678254018522079
17780758 139 11963384129752913631
17980427 23 18187929542227245334
18608769 82 18340209708589750971
19611394 137 17897458396360044795
20281389 69 18335420188124292816
20621476 66 18409731772467080296
20715895 44 18411984663540205276
21033650 10 14189308023742038715
21054139 6 11671790368785086324
21150785 3 13830130603113542048
21298829 104 18271531909673124385
21421861 104 17895461524314869930
21424621 283 18186802487005718106
220451 1 17168139066608033458
22224240 67 15285356240743823640
22288116 15 17560507504619486743
23559900 14 18059287781436617936
2838139 119 18343014523252872372
2916195 48 18410012135184632147
3009799 131 16988842791786982226
335352 9 18412261753049403796
3411729 13 18336263453624940138
3545911 37 18343585165582677266
4073 2 18041283279022688570
445580 204 17703515402449529937
465052 167 10665228146864536490
5104073 3 18041552654917939730
5470011 282 13038897854525361704
59682541 52 16916516852429332686
5969126 39 18126841832183669991
59755656 520 18333725832026784775
6327066 14 18409162182916271381
6328613 192 18408886273895812296
636775 72 18341891939473083544
636775 8 8286208288421847576
7226269 152 18272934920816553481
7808743 9 18408881854316026851

> <PUBCHEM_SHAPE_MULTIPOLES>
466.87
20.67
2.68
0.74
5.8
0.17
0.02
-15.75
-0.19
-2.66
0.17
-0.05
-0.09
-0.09

> <PUBCHEM_SHAPE_SELFOVERLAP>
1001.106

> <PUBCHEM_SHAPE_VOLUME>
257.6

> <PUBCHEM_COORDINATE_TYPE>
2
5
10

$$$$
