7584226
  -OEChem-01171809523D

 47 50  0     0  0  0  0  0  0999 V2000
    3.4474   -1.5559    0.4175 S   0  0  0  0  0  0  0  0  0  0  0  0
    1.1934    2.4756   -0.0322 O   0  0  0  0  0  0  0  0  0  0  0  0
   -3.5272   -2.5747    0.6804 O   0  0  0  0  0  0  0  0  0  0  0  0
   -2.1453   -1.7456   -0.9716 O   0  0  0  0  0  0  0  0  0  0  0  0
    1.4656    0.1523    0.4288 N   0  0  0  0  0  0  0  0  0  0  0  0
    0.6580   -0.9074    0.8212 N   0  0  0  0  0  0  0  0  0  0  0  0
   -2.9130    1.4274    1.0045 N   0  0  0  0  0  0  0  0  0  0  0  0
    3.6566    0.9456   -0.1751 N   0  0  0  0  0  0  0  0  0  0  0  0
   -0.5926    0.9996    0.6440 C   0  0  0  0  0  0  0  0  0  0  0  0
   -0.5490   -0.4298    0.9507 C   0  0  0  0  0  0  0  0  0  0  0  0
   -1.6405    1.8200    0.6687 C   0  0  0  0  0  0  0  0  0  0  0  0
    0.7916    1.3741    0.2902 C   0  0  0  0  0  0  0  0  0  0  0  0
   -1.7342   -1.2347    1.3606 C   0  0  0  0  0  0  0  0  0  0  0  0
    2.8085    0.0153    0.1965 C   0  0  0  0  0  0  0  0  0  0  0  0
   -1.4906    3.2795    0.3174 C   0  0  0  0  0  0  0  0  0  0  0  0
    5.0098   -0.9711   -0.0184 C   0  0  0  0  0  0  0  0  0  0  0  0
    4.9236    0.3952   -0.3026 C   0  0  0  0  0  0  0  0  0  0  0  0
   -3.9160    0.9490    0.1621 C   0  0  0  0  0  0  0  0  0  0  0  0
   -2.4642   -1.8627    0.2039 C   0  0  0  0  0  0  0  0  0  0  0  0
    6.2241   -1.6710   -0.1029 C   0  0  0  0  0  0  0  0  0  0  0  0
    6.0959    1.0828   -0.6846 C   0  0  0  0  0  0  0  0  0  0  0  0
   -5.1702    0.5895    0.6781 C   0  0  0  0  0  0  0  0  0  0  0  0
   -3.6881    0.8187   -1.2161 C   0  0  0  0  0  0  0  0  0  0  0  0
    7.3692   -0.9667   -0.4832 C   0  0  0  0  0  0  0  0  0  0  0  0
    7.3082    0.3923   -0.7708 C   0  0  0  0  0  0  0  0  0  0  0  0
   -6.1732    0.1104   -0.1644 C   0  0  0  0  0  0  0  0  0  0  0  0
   -4.6913    0.3397   -2.0587 C   0  0  0  0  0  0  0  0  0  0  0  0
   -5.9338   -0.0144   -1.5328 C   0  0  0  0  0  0  0  0  0  0  0  0
   -4.3225   -3.2331   -0.3110 C   0  0  0  0  0  0  0  0  0  0  0  0
   -2.4116   -0.6763    2.0059 H   0  0  0  0  0  0  0  0  0  0  0  0
   -1.3490   -2.0629    1.9709 H   0  0  0  0  0  0  0  0  0  0  0  0
   -3.2475    1.8069    1.8854 H   0  0  0  0  0  0  0  0  0  0  0  0
   -1.1518    3.4032   -0.7166 H   0  0  0  0  0  0  0  0  0  0  0  0
   -0.7955    3.7803    0.9993 H   0  0  0  0  0  0  0  0  0  0  0  0
   -2.4478    3.8076    0.4018 H   0  0  0  0  0  0  0  0  0  0  0  0
    6.2793   -2.7321    0.1201 H   0  0  0  0  0  0  0  0  0  0  0  0
    6.0596    2.1446   -0.9116 H   0  0  0  0  0  0  0  0  0  0  0  0
   -5.3712    0.6788    1.7431 H   0  0  0  0  0  0  0  0  0  0  0  0
   -2.7343    1.0877   -1.6628 H   0  0  0  0  0  0  0  0  0  0  0  0
    8.3193   -1.4896   -0.5548 H   0  0  0  0  0  0  0  0  0  0  0  0
    8.2092    0.9236   -1.0650 H   0  0  0  0  0  0  0  0  0  0  0  0
   -7.1401   -0.1670    0.2451 H   0  0  0  0  0  0  0  0  0  0  0  0
   -4.5050    0.2417   -3.1242 H   0  0  0  0  0  0  0  0  0  0  0  0
   -6.7143   -0.3886   -2.1888 H   0  0  0  0  0  0  0  0  0  0  0  0
   -5.3192   -3.3954    0.1082 H   0  0  0  0  0  0  0  0  0  0  0  0
   -3.8757   -4.2043   -0.5416 H   0  0  0  0  0  0  0  0  0  0  0  0
   -4.4239   -2.6395   -1.2233 H   0  0  0  0  0  0  0  0  0  0  0  0
  1 14  1  0  0  0  0
  1 16  1  0  0  0  0
  2 12  2  0  0  0  0
  3 19  1  0  0  0  0
  3 29  1  0  0  0  0
  4 19  2  0  0  0  0
  5  6  1  0  0  0  0
  5 12  1  0  0  0  0
  5 14  1  0  0  0  0
  6 10  2  0  0  0  0
  7 11  1  0  0  0  0
  7 18  1  0  0  0  0
  7 32  1  0  0  0  0
  8 14  2  0  0  0  0
  8 17  1  0  0  0  0
  9 10  1  0  0  0  0
  9 11  2  0  0  0  0
  9 12  1  0  0  0  0
 10 13  1  0  0  0  0
 11 15  1  0  0  0  0
 13 19  1  0  0  0  0
 13 30  1  0  0  0  0
 13 31  1  0  0  0  0
 15 33  1  0  0  0  0
 15 34  1  0  0  0  0
 15 35  1  0  0  0  0
 16 17  1  0  0  0  0
 16 20  2  0  0  0  0
 17 21  2  0  0  0  0
 18 22  2  0  0  0  0
 18 23  1  0  0  0  0
 20 24  1  0  0  0  0
 20 36  1  0  0  0  0
 21 25  1  0  0  0  0
 21 37  1  0  0  0  0
 22 26  1  0  0  0  0
 22 38  1  0  0  0  0
 23 27  2  0  0  0  0
 23 39  1  0  0  0  0
 24 25  2  0  0  0  0
 24 40  1  0  0  0  0
 25 41  1  0  0  0  0
 26 28  2  0  0  0  0
 26 42  1  0  0  0  0
 27 28  1  0  0  0  0
 27 43  1  0  0  0  0
 28 44  1  0  0  0  0
 29 45  1  0  0  0  0
 29 46  1  0  0  0  0
 29 47  1  0  0  0  0
M  END
> <PUBCHEM_COMPOUND_CID>
7584226

> <PUBCHEM_CONFORMER_RMSD>
0.8

> <PUBCHEM_CONFORMER_DIVERSEORDER>
3
50
10
46
22
38
34
54
32
41
48
35
33
45
8
19
24
56
25
42
1
55
17
53
4
57
7
52
13
40
26
20
11
9
43
15
18
21
23
36
30
16
47
12
6
5
31
27
2
37
14
44
39
49
51
28
29

> <PUBCHEM_MMFF94_PARTIAL_CHARGES>
39
1 -0.08
10 0.37
11 -0.04
12 0.62
13 0.12
14 0.44
15 0.14
16 0.04
17 0.23
18 0.1
19 0.66
2 -0.57
20 -0.15
21 -0.15
22 -0.15
23 -0.15
24 -0.15
25 -0.15
26 -0.15
27 -0.15
28 -0.15
29 0.28
3 -0.43
32 0.4
36 0.15
37 0.15
38 0.15
39 0.15
4 -0.57
40 0.15
41 0.15
42 0.15
43 0.15
44 0.15
5 -0.06
6 -0.51
7 -0.6
8 -0.57
9 0.03

> <PUBCHEM_EFFECTIVE_ROTOR_COUNT>
6.2

> <PUBCHEM_PHARMACOPHORE_FEATURES>
9
1 2 acceptor
1 4 acceptor
1 6 acceptor
1 7 cation
1 7 donor
5 1 8 14 16 17 rings
5 5 6 9 10 12 rings
6 16 17 20 21 24 25 rings
6 18 22 23 26 27 28 rings

> <PUBCHEM_HEAVY_ATOM_COUNT>
29

> <PUBCHEM_ATOM_DEF_STEREO_COUNT>
0

> <PUBCHEM_ATOM_UDEF_STEREO_COUNT>
0

> <PUBCHEM_BOND_DEF_STEREO_COUNT>
1

> <PUBCHEM_BOND_UDEF_STEREO_COUNT>
0

> <PUBCHEM_ISOTOPIC_ATOM_COUNT>
0

> <PUBCHEM_COMPONENT_COUNT>
1

> <PUBCHEM_CACTVS_TAUTO_COUNT>
7

> <PUBCHEM_CONFORMER_ID>
0073B9E200000003

> <PUBCHEM_MMFF94_ENERGY>
96.902

> <PUBCHEM_FEATURE_SELFOVERLAP>
45.743

> <PUBCHEM_SHAPE_FINGERPRINT>
10076449 9 18335426798653974547
10165383 225 18040429963789282877
10835480 77 18336545032028707028
11135926 11 18336826403214104538
11315181 36 18411986879574564048
11524674 6 16343982498591929159
12236239 1 18272371936414053856
12390115 104 7997699730520438970
12516196 113 17561361769161600080
12788726 201 18270391677359662225
13540713 4 18121491616938879025
13690498 29 18191019200399193439
13782708 43 17131826565059855062
13911987 19 18261381214557341591
14068700 675 17203602696552592665
14251752 14 17895188888037468570
14674994 50 15984526931866945559
14767858 380 18410011022767094620
14931854 50 18263346067505676717
15082195 135 18189342428266261668
15183329 4 18408600349195728974
15250474 111 18263638481812264546
15849732 13 17385729092817458223
16087824 20 18338520721602003777
19958102 18 18262802861153554654
20511986 3 18113892793585117218
20775438 99 16475946116956972071
21267235 1 18411421739541048371
23198884 109 18342174462378726157
23402539 116 18272087158939808457
23559900 14 18340200907610891952
23576562 1 17896033399278560045
3004659 81 18260264153497930698
335352 9 18411698790854528709
34797466 226 17346884451590531104
4015057 19 18412263973389838176
4073 2 17968386736248518986
4098825 35 17968096468608472918
484989 97 18191581059952939999
504579 68 18261688021535929820
5081480 168 15357979026834702492
57527306 92 15213011640597467087
58260988 521 17822875138488277467
59755656 215 18337676321998186918
59755656 520 16443066114184417435
70251023 43 17621867018039403775
7237137 82 18262241122190720711
999808 66 18114758100598776699

> <PUBCHEM_SHAPE_MULTIPOLES>
563.12
17.83
2.71
1.21
21.71
0.36
0.34
3.53
6.71
-2.18
-0.32
-1.49
0
-0.35

> <PUBCHEM_SHAPE_SELFOVERLAP>
1224.676

> <PUBCHEM_SHAPE_VOLUME>
308.2

> <PUBCHEM_COORDINATE_TYPE>
2
5
10

$$$$
