3245634
  -OEChem-01171809183D

 45 47  0     0  0  0  0  0  0999 V2000
   -1.9749   -2.2542    1.6107 S   0  0  0  0  0  0  0  0  0  0  0  0
    0.7520    2.1107    2.4742 S   0  0  0  0  0  0  0  0  0  0  0  0
   -4.0818    2.3523   -1.9884 F   0  0  0  0  0  0  0  0  0  0  0  0
   -4.2227    0.2575   -2.5324 F   0  0  0  0  0  0  0  0  0  0  0  0
   -5.3699    1.0205   -0.8500 F   0  0  0  0  0  0  0  0  0  0  0  0
   -1.9034   -2.0385    3.0455 O   0  0  0  0  0  0  0  0  0  0  0  0
   -3.0551   -3.0420    1.0425 O   0  0  0  0  0  0  0  0  0  0  0  0
    3.0436   -3.3214    0.0830 O   0  0  0  0  0  0  0  0  0  0  0  0
    3.9648    1.3169   -1.3534 O   0  0  0  0  0  0  0  0  0  0  0  0
   -0.9991    0.1404    1.1844 N   0  0  0  0  0  0  0  0  0  0  0  0
   -3.0339   -0.4476    0.0349 N   0  0  0  0  0  0  0  0  0  0  0  0
    2.0628   -1.6157   -1.2000 N   0  0  0  0  0  0  0  0  0  0  0  0
    2.8301    0.5912   -1.6952 N   0  0  0  0  0  0  0  0  0  0  0  0
   -0.4501   -2.9571    1.0660 C   0  0  0  0  0  0  0  0  0  0  0  0
   -0.4028   -3.0653   -0.4524 C   0  0  0  0  0  0  0  0  0  0  0  0
    0.8973   -3.6946   -0.9487 C   0  0  0  0  0  0  0  0  0  0  0  0
   -2.0066   -0.6583    0.8503 C   0  0  0  0  0  0  0  0  0  0  0  0
    2.1418   -2.8785   -0.6203 C   0  0  0  0  0  0  0  0  0  0  0  0
   -1.0544    1.3487    0.5864 C   0  0  0  0  0  0  0  0  0  0  0  0
   -3.0266    0.7787   -0.5277 C   0  0  0  0  0  0  0  0  0  0  0  0
   -2.0536    1.7271   -0.2866 C   0  0  0  0  0  0  0  0  0  0  0  0
    0.0230    2.2394    0.9274 C   0  0  0  0  0  0  0  0  0  0  0  0
   -4.1499    1.0960   -1.4569 C   0  0  0  0  0  0  0  0  0  0  0  0
    3.0010   -0.5809   -1.1013 C   0  0  0  0  0  0  0  0  0  0  0  0
    0.6013    3.2394    0.1712 C   0  0  0  0  0  0  0  0  0  0  0  0
    4.1906   -0.6764   -0.3804 C   0  0  0  0  0  0  0  0  0  0  0  0
    1.6510    3.9038    0.8690 C   0  0  0  0  0  0  0  0  0  0  0  0
    4.7673    0.5514   -0.5703 C   0  0  0  0  0  0  0  0  0  0  0  0
    1.8386    3.3894    2.1330 C   0  0  0  0  0  0  0  0  0  0  0  0
    6.0197    1.1672   -0.1146 C   0  0  0  0  0  0  0  0  0  0  0  0
    0.3604   -2.3353    1.4582 H   0  0  0  0  0  0  0  0  0  0  0  0
   -0.3736   -3.9470    1.5280 H   0  0  0  0  0  0  0  0  0  0  0  0
   -1.2350   -3.6896   -0.8005 H   0  0  0  0  0  0  0  0  0  0  0  0
   -0.5504   -2.0849   -0.9154 H   0  0  0  0  0  0  0  0  0  0  0  0
    0.8540   -3.8195   -2.0374 H   0  0  0  0  0  0  0  0  0  0  0  0
    1.0203   -4.6949   -0.5171 H   0  0  0  0  0  0  0  0  0  0  0  0
   -2.0811    2.7059   -0.7495 H   0  0  0  0  0  0  0  0  0  0  0  0
    1.2620   -1.3857   -1.7818 H   0  0  0  0  0  0  0  0  0  0  0  0
    0.3000    3.4887   -0.8387 H   0  0  0  0  0  0  0  0  0  0  0  0
    4.6076   -1.4842    0.2006 H   0  0  0  0  0  0  0  0  0  0  0  0
    2.2402    4.7159    0.4635 H   0  0  0  0  0  0  0  0  0  0  0  0
    2.5626    3.7026    2.8720 H   0  0  0  0  0  0  0  0  0  0  0  0
    5.8136    2.0622    0.4805 H   0  0  0  0  0  0  0  0  0  0  0  0
    6.5983    0.4746    0.5046 H   0  0  0  0  0  0  0  0  0  0  0  0
    6.6395    1.4568   -0.9688 H   0  0  0  0  0  0  0  0  0  0  0  0
  1  6  2  0  0  0  0
  1  7  2  0  0  0  0
  1 14  1  0  0  0  0
  1 17  1  0  0  0  0
  2 22  1  0  0  0  0
  2 29  1  0  0  0  0
  3 23  1  0  0  0  0
  4 23  1  0  0  0  0
  5 23  1  0  0  0  0
  8 18  2  0  0  0  0
  9 13  1  0  0  0  0
  9 28  1  0  0  0  0
 10 17  2  0  0  0  0
 10 19  1  0  0  0  0
 11 17  1  0  0  0  0
 11 20  2  0  0  0  0
 12 18  1  0  0  0  0
 12 24  1  0  0  0  0
 12 38  1  0  0  0  0
 13 24  2  0  0  0  0
 14 15  1  0  0  0  0
 14 31  1  0  0  0  0
 14 32  1  0  0  0  0
 15 16  1  0  0  0  0
 15 33  1  0  0  0  0
 15 34  1  0  0  0  0
 16 18  1  0  0  0  0
 16 35  1  0  0  0  0
 16 36  1  0  0  0  0
 19 21  2  0  0  0  0
 19 22  1  0  0  0  0
 20 21  1  0  0  0  0
 20 23  1  0  0  0  0
 21 37  1  0  0  0  0
 22 25  2  0  0  0  0
 24 26  1  0  0  0  0
 25 27  1  0  0  0  0
 25 39  1  0  0  0  0
 26 28  2  0  0  0  0
 26 40  1  0  0  0  0
 27 29  2  0  0  0  0
 27 41  1  0  0  0  0
 28 30  1  0  0  0  0
 29 42  1  0  0  0  0
 30 43  1  0  0  0  0
 30 44  1  0  0  0  0
 30 45  1  0  0  0  0
M  END
> <PUBCHEM_COMPOUND_CID>
3245634

> <PUBCHEM_CONFORMER_RMSD>
1

> <PUBCHEM_CONFORMER_DIVERSEORDER>
1
44
231
425
321
330
273
40
38
149
287
309
133
32
132
120
235
100
269
437
39
196
285
319
122
199
70
212
84
242
20
386
59
262
300
88
2
414
281
363
419
90
30
177
194
428
296
75
87
249
60
398
107
168
376
418
179
233
379
382
220
283
258
327
443
169
359
259
158
346
298
424
438
399
237
188
268
153
61
71
265
191
161
266
354
257
127
336
356
350
23
204
403
167
385
226
416
331
290
216
103
73
4
254
219
394
77
57
62
3
372
349
135
152
124
151
97
247
148
66
442
118
251
82
352
333
278
121
47
277
320
143
24
102
332
294
432
368
11
409
164
263
365
54
52
129
146
214
324
22
160
89
364
286
396
162
115
322
95
34
344
380
301
58
316
334
245
305
292
407
239
106
440
297
225
291
9
270
293
430
108
67
362
80
317
276
360
206
86
200
182
28
303
138
371
295
271
5
104
211
33
314
280
65
45
274
401
434
185
187
348
183
355
26
217
63
96
427
234
218
111
165
389
412
400
92
171
343
49
6
413
232
228
311
197
201
154
147
250
275
142
404
210
173
391
351
328
347
163
315
101
318
155
375
310
51
53
408
186
411
447
189
345
423
417
50
48
128
157
445
125
338
279
130
193
306
288
312
224
123
420
91
390
85
241
222
117
335
19
393
31
339
136
192
406
166
79
176
64
74
370
357
342
325
98
78
190
36
388
93
367
384
150
260
113
246
134
112
421
302
213
202
227
308
230
261
341
255
83
141
21
180
439
145
144
56
402
397
323
181
15
209
272
139
381
223
429
229
435
329
358
37
373
340
17
29
422
208
282
178
126
72
110
236
195
426
221
284
361
159
431
374
10
99
69
170
326
264
174
105
18
304
446
313
337
289
137
7
441
94
436
392
172
68
14
16
387
25
395
114
13
184
405
383
27
353
240
41
215
444
81
46
267
244
8
205
366
175
253
256
377
119
433
12
410
109
76
116
198
203
55
299
140
415
42
378
238
207
243
131
307
248
252
35
156
43
369

> <PUBCHEM_MMFF94_PARTIAL_CHARGES>
35
1 1.2
10 -0.62
11 -0.62
12 -0.49
13 -0.41
14 0.11
16 0.06
17 0.61
18 0.57
19 0.36
2 -0.08
20 0.17
21 -0.15
22 -0.01
23 1.16
24 0.35
25 -0.15
26 -0.15
27 -0.15
28 -0.04
29 -0.11
3 -0.34
30 0.18
37 0.15
38 0.37
39 0.15
4 -0.34
40 0.15
41 0.15
42 0.15
5 -0.34
6 -0.65
7 -0.65
8 -0.57
9 -0.02

> <PUBCHEM_EFFECTIVE_ROTOR_COUNT>
9

> <PUBCHEM_PHARMACOPHORE_FEATURES>
9
1 11 acceptor
1 12 donor
1 6 acceptor
1 7 acceptor
1 8 acceptor
3 10 11 17 cation
5 2 22 25 27 29 rings
5 9 13 24 26 28 rings
6 10 11 17 19 20 21 rings

> <PUBCHEM_HEAVY_ATOM_COUNT>
30

> <PUBCHEM_ATOM_DEF_STEREO_COUNT>
0

> <PUBCHEM_ATOM_UDEF_STEREO_COUNT>
0

> <PUBCHEM_BOND_DEF_STEREO_COUNT>
0

> <PUBCHEM_BOND_UDEF_STEREO_COUNT>
0

> <PUBCHEM_ISOTOPIC_ATOM_COUNT>
0

> <PUBCHEM_COMPONENT_COUNT>
1

> <PUBCHEM_CACTVS_TAUTO_COUNT>
3

> <PUBCHEM_CONFORMER_ID>
0031864200000001

> <PUBCHEM_MMFF94_ENERGY>
39.3542

> <PUBCHEM_FEATURE_SELFOVERLAP>
45.694

> <PUBCHEM_SHAPE_FINGERPRINT>
10032420 55 18043254750262438130
10290309 65 18269007547698977358
10675989 125 17831293904715200124
107951 10 17749105621134149667
11135609 187 18412542081270469905
11370993 70 18187647968371042046
12156800 1 17768207484115371962
13122387 1 18269857439673902098
13140716 1 17694241245207811298
13402501 40 18338526359790886539
13911987 19 18341626948865249900
144659 39 17822018592136893672
14725015 67 18046630276376417874
15420108 30 15603141077471130992
17492 54 18130776846263642039
192875 21 17976538312928975942
20715895 44 17970341521028484253
20764821 26 18125724736320629212
2132832 1 17689140219792555018
22182313 1 18122619715510319905
23558518 356 17621044161964871352
23559900 14 18337105778173652328
238 59 18272925059344905151
3298306 158 18409441505365273543
463206 1 18271237218949701055
508706 21 18123178276033323630
6669772 16 18055891402787287717
70251023 43 17556591941132582111
9981440 41 18334295379113491018

> <PUBCHEM_SHAPE_MULTIPOLES>
559.86
8.81
5.32
2.21
3.51
1.17
-0.61
-2.03
5
1.4
-1.58
-1.75
-0.48
2.97

> <PUBCHEM_SHAPE_SELFOVERLAP>
1175.43

> <PUBCHEM_SHAPE_VOLUME>
318.1

> <PUBCHEM_COORDINATE_TYPE>
2
5
10

$$$$
