26471808
  -OEChem-01171810103D

 36 39  0     0  0  0  0  0  0999 V2000
    3.2556    2.5268   -1.1916 S   0  0  0  0  0  0  0  0  0  0  0  0
    0.4196   -1.1270    1.5097 S   0  0  0  0  0  0  0  0  0  0  0  0
   -4.5185    1.5505    0.4759 O   0  0  0  0  0  0  0  0  0  0  0  0
    4.4304    0.4409   -0.0223 N   0  0  0  0  0  0  0  0  0  0  0  0
    3.0700   -1.1666    1.1792 N   0  0  0  0  0  0  0  0  0  0  0  0
   -1.2345   -2.9296    0.1786 N   0  0  0  0  0  0  0  0  0  0  0  0
    0.5319   -2.4107   -0.9675 N   0  0  0  0  0  0  0  0  0  0  0  0
   -1.3382   -3.6244   -0.9629 N   0  0  0  0  0  0  0  0  0  0  0  0
   -0.2553   -3.3029   -1.6600 N   0  0  0  0  0  0  0  0  0  0  0  0
    1.0172    1.6197   -0.3185 C   0  0  0  0  0  0  0  0  0  0  0  0
    2.0105    0.6963    0.1364 C   0  0  0  0  0  0  0  0  0  0  0  0
   -0.4100    1.5996   -0.1128 C   0  0  0  0  0  0  0  0  0  0  0  0
    3.2765    1.0871   -0.2798 C   0  0  0  0  0  0  0  0  0  0  0  0
    1.5559    2.6564   -1.0491 C   0  0  0  0  0  0  0  0  0  0  0  0
    1.9441   -0.4790    0.8919 C   0  0  0  0  0  0  0  0  0  0  0  0
   -1.2376    0.9469   -1.0265 C   0  0  0  0  0  0  0  0  0  0  0  0
   -0.9630    2.2356    0.9986 C   0  0  0  0  0  0  0  0  0  0  0  0
   -2.6183    0.9306   -0.8289 C   0  0  0  0  0  0  0  0  0  0  0  0
   -2.3437    2.2192    1.1963 C   0  0  0  0  0  0  0  0  0  0  0  0
   -3.1713    1.5668    0.2826 C   0  0  0  0  0  0  0  0  0  0  0  0
    4.2311   -0.6698    0.7095 C   0  0  0  0  0  0  0  0  0  0  0  0
   -0.0927   -2.1935    0.1670 C   0  0  0  0  0  0  0  0  0  0  0  0
   -2.2544   -3.0375    1.1910 C   0  0  0  0  0  0  0  0  0  0  0  0
   -5.3055    0.8648   -0.4968 C   0  0  0  0  0  0  0  0  0  0  0  0
    1.0435    3.4903   -1.5105 H   0  0  0  0  0  0  0  0  0  0  0  0
   -0.8218    0.4466   -1.8982 H   0  0  0  0  0  0  0  0  0  0  0  0
   -0.3321    2.7485    1.7209 H   0  0  0  0  0  0  0  0  0  0  0  0
   -3.2020    0.4045   -1.5764 H   0  0  0  0  0  0  0  0  0  0  0  0
   -2.7687    2.7159    2.0641 H   0  0  0  0  0  0  0  0  0  0  0  0
    5.1203   -1.2404    0.9538 H   0  0  0  0  0  0  0  0  0  0  0  0
   -2.6875   -2.0475    1.3537 H   0  0  0  0  0  0  0  0  0  0  0  0
   -3.0317   -3.7287    0.8546 H   0  0  0  0  0  0  0  0  0  0  0  0
   -1.7957   -3.4163    2.1075 H   0  0  0  0  0  0  0  0  0  0  0  0
   -6.3518    0.9520   -0.1860 H   0  0  0  0  0  0  0  0  0  0  0  0
   -5.0684   -0.2042   -0.5248 H   0  0  0  0  0  0  0  0  0  0  0  0
   -5.2247    1.3339   -1.4832 H   0  0  0  0  0  0  0  0  0  0  0  0
  1 13  1  0  0  0  0
  1 14  1  0  0  0  0
  2 15  1  0  0  0  0
  2 22  1  0  0  0  0
  3 20  1  0  0  0  0
  3 24  1  0  0  0  0
  4 13  1  0  0  0  0
  4 21  2  0  0  0  0
  5 15  2  0  0  0  0
  5 21  1  0  0  0  0
  6  8  1  0  0  0  0
  6 22  1  0  0  0  0
  6 23  1  0  0  0  0
  7  9  1  0  0  0  0
  7 22  2  0  0  0  0
  8  9  2  0  0  0  0
 10 11  1  0  0  0  0
 10 12  1  0  0  0  0
 10 14  2  0  0  0  0
 11 13  2  0  0  0  0
 11 15  1  0  0  0  0
 12 16  2  0  0  0  0
 12 17  1  0  0  0  0
 14 25  1  0  0  0  0
 16 18  1  0  0  0  0
 16 26  1  0  0  0  0
 17 19  2  0  0  0  0
 17 27  1  0  0  0  0
 18 20  2  0  0  0  0
 18 28  1  0  0  0  0
 19 20  1  0  0  0  0
 19 29  1  0  0  0  0
 21 30  1  0  0  0  0
 23 31  1  0  0  0  0
 23 32  1  0  0  0  0
 23 33  1  0  0  0  0
 24 34  1  0  0  0  0
 24 35  1  0  0  0  0
 24 36  1  0  0  0  0
M  END
> <PUBCHEM_COMPOUND_CID>
26471808

> <PUBCHEM_CONFORMER_RMSD>
0.8

> <PUBCHEM_CONFORMER_DIVERSEORDER>
1
13
3
12
11
7
4
10
2
9
14
6
8
5

> <PUBCHEM_MMFF94_PARTIAL_CHARGES>
28
1 -0.08
10 -0.05
12 0.05
13 0.3
14 -0.11
15 0.41
16 -0.15
17 -0.15
18 -0.15
19 -0.15
2 -0.16
20 0.08
21 0.47
22 0.24
23 0.26
24 0.28
25 0.15
26 0.15
27 0.15
28 0.15
29 0.15
3 -0.36
30 0.15
4 -0.57
5 -0.62
6 0.31
7 -0.34
8 -0.42

> <PUBCHEM_EFFECTIVE_ROTOR_COUNT>
4

> <PUBCHEM_PHARMACOPHORE_FEATURES>
8
1 3 acceptor
1 5 acceptor
3 4 5 21 cation
3 6 7 22 cation
5 1 10 11 13 14 rings
5 6 7 8 9 22 rings
6 12 16 17 18 19 20 rings
6 4 5 11 13 15 21 rings

> <PUBCHEM_HEAVY_ATOM_COUNT>
24

> <PUBCHEM_ATOM_DEF_STEREO_COUNT>
0

> <PUBCHEM_ATOM_UDEF_STEREO_COUNT>
0

> <PUBCHEM_BOND_DEF_STEREO_COUNT>
0

> <PUBCHEM_BOND_UDEF_STEREO_COUNT>
0

> <PUBCHEM_ISOTOPIC_ATOM_COUNT>
0

> <PUBCHEM_COMPONENT_COUNT>
1

> <PUBCHEM_CACTVS_TAUTO_COUNT>
1

> <PUBCHEM_CONFORMER_ID>
0193ED8000000001

> <PUBCHEM_MMFF94_ENERGY>
63.7248

> <PUBCHEM_FEATURE_SELFOVERLAP>
40.678

> <PUBCHEM_SHAPE_FINGERPRINT>
104564 63 18048323541362081239
10759866 29 18042414705866255284
1100329 8 18334853944157912912
11421498 54 17916025655749948281
11578080 2 17772181170640514808
12156800 1 17902550208400719807
12236239 1 18342738477152519944
12422481 6 18119843367483683411
12715332 25 18410289199182327280
12788726 201 18052544557900739918
13140716 1 18262509399281550632
13836976 161 18335138670266715005
14081887 123 17840013371557839008
14178342 30 17836922300495273464
14863182 85 18270405966768434253
15210252 30 16887209661953995397
16752209 62 18197495331958990999
16945 1 17895480215880575216
17138139 8 17984672736759481631
17492 54 18260254248881359759
17980427 26 16371275744712283784
18681886 176 18410849932890971816
20028762 73 18272642416427604455
20645477 70 18261109604894228013
20691752 17 18049459044831667717
20739085 24 17904212433869491392
20775438 99 16259498499543292255
21041028 32 17902796593283735346
21197605 99 18263937682356265691
21236236 1 18118123813240134788
21421861 104 17979929207226822481
229495 10 16444730680552803082
23419403 2 13844217764889620029
23558518 356 17900544789465077132
23598288 3 18267304429103047398
25147074 1 18041838558349108980
2748010 2 15815919684496264440
3060560 45 18335139731102408124
352729 6 18340781402383923513
465052 167 17968385558868258489
6287921 2 17840875070819833939
6438718 38 18268717275695723514
7164475 11 18194123151745958108
8272917 22 18194125114625802781

> <PUBCHEM_SHAPE_MULTIPOLES>
465.85
7.24
4.33
1.37
1.85
3.53
-0.03
-3.53
0.19
1.74
-0.93
0.06
0.4
-1.21

> <PUBCHEM_SHAPE_SELFOVERLAP>
1002.743

> <PUBCHEM_SHAPE_VOLUME>
259.1

> <PUBCHEM_COORDINATE_TYPE>
2
5
10

$$$$
