4381127
  -OEChem-01171809333D

 51 53  0     1  0  0  0  0  0999 V2000
    0.8329   -2.1094    4.5384 Cl  0  0  0  0  0  0  0  0  0  0  0  0
    0.7766    3.7482   -2.3534 Cl  0  0  0  0  0  0  0  0  0  0  0  0
   -0.0530   -0.4940   -2.2336 O   0  0  0  0  0  0  0  0  0  0  0  0
    1.3239    0.3912    3.2927 O   0  0  0  0  0  0  0  0  0  0  0  0
   -1.6145   -0.5613   -0.5151 N   0  0  0  0  0  0  0  0  0  0  0  0
    0.6262   -0.0516    1.0722 N   0  0  0  0  0  0  0  0  0  0  0  0
    4.3472   -0.2984   -0.6132 N   0  0  0  0  0  0  0  0  0  0  0  0
   -2.7860   -0.2673   -1.3101 C   0  0  0  0  0  0  0  0  0  0  0  0
   -3.3949   -1.5490   -1.8886 C   0  0  0  0  0  0  0  0  0  0  0  0
   -3.8192    0.5213   -0.4984 C   0  0  0  0  0  0  0  0  0  0  0  0
   -4.0818   -2.4029   -0.8229 C   0  0  0  0  0  0  0  0  0  0  0  0
   -4.5054   -0.3361    0.5652 C   0  0  0  0  0  0  0  0  0  0  0  0
   -5.1131   -1.5996   -0.0362 C   0  0  0  0  0  0  0  0  0  0  0  0
   -0.3355   -0.6508   -1.0474 C   0  0  0  0  0  0  0  0  0  0  0  0
    0.7010   -1.0211    0.0069 C   0  0  1  0  0  0  0  0  0  0  0  0
    2.0909   -1.1085   -0.5793 C   0  0  0  0  0  0  0  0  0  0  0  0
    0.2897    1.3307    0.7334 C   0  0  0  0  0  0  0  0  0  0  0  0
    0.8654   -0.3777    2.4445 C   0  0  0  0  0  0  0  0  0  0  0  0
    2.3690   -2.0271   -1.5686 C   0  0  0  0  0  0  0  0  0  0  0  0
    3.0844   -0.2727   -0.1309 C   0  0  0  0  0  0  0  0  0  0  0  0
    0.6606    1.7874   -0.4954 C   0  0  0  0  0  0  0  0  0  0  0  0
   -0.3731    2.0648    1.6706 C   0  0  0  0  0  0  0  0  0  0  0  0
    0.5491   -1.8178    2.8095 C   0  0  0  0  0  0  0  0  0  0  0  0
    3.6570   -2.0838   -2.0899 C   0  0  0  0  0  0  0  0  0  0  0  0
    0.3379    3.1054   -0.8184 C   0  0  0  0  0  0  0  0  0  0  0  0
   -0.6960    3.3828    1.3476 C   0  0  0  0  0  0  0  0  0  0  0  0
    4.6011   -1.2057   -1.5827 C   0  0  0  0  0  0  0  0  0  0  0  0
   -0.3403    3.9031    0.1032 C   0  0  0  0  0  0  0  0  0  0  0  0
   -2.4579    0.3615   -2.1473 H   0  0  0  0  0  0  0  0  0  0  0  0
   -2.6262   -2.1473   -2.3922 H   0  0  0  0  0  0  0  0  0  0  0  0
   -4.1351   -1.2776   -2.6522 H   0  0  0  0  0  0  0  0  0  0  0  0
   -3.3463    1.3863   -0.0183 H   0  0  0  0  0  0  0  0  0  0  0  0
   -4.5834    0.9148   -1.1807 H   0  0  0  0  0  0  0  0  0  0  0  0
   -4.5706   -3.2602   -1.2996 H   0  0  0  0  0  0  0  0  0  0  0  0
   -3.3312   -2.8091   -0.1341 H   0  0  0  0  0  0  0  0  0  0  0  0
   -3.7884   -0.6097    1.3481 H   0  0  0  0  0  0  0  0  0  0  0  0
   -5.2922    0.2506    1.0531 H   0  0  0  0  0  0  0  0  0  0  0  0
   -5.9427   -1.3245   -0.6990 H   0  0  0  0  0  0  0  0  0  0  0  0
   -5.5351   -2.2215    0.7612 H   0  0  0  0  0  0  0  0  0  0  0  0
   -1.7435   -0.7808    0.4683 H   0  0  0  0  0  0  0  0  0  0  0  0
    0.4310   -2.0175    0.3697 H   0  0  0  0  0  0  0  0  0  0  0  0
    1.6113   -2.7105   -1.9399 H   0  0  0  0  0  0  0  0  0  0  0  0
    2.9664    0.4618    0.6555 H   0  0  0  0  0  0  0  0  0  0  0  0
    1.2513    1.2512   -1.2225 H   0  0  0  0  0  0  0  0  0  0  0  0
   -0.6993    1.6771    2.6289 H   0  0  0  0  0  0  0  0  0  0  0  0
    1.2116   -2.5002    2.2730 H   0  0  0  0  0  0  0  0  0  0  0  0
   -0.4976   -2.0422    2.5884 H   0  0  0  0  0  0  0  0  0  0  0  0
    3.9141   -2.7945   -2.8669 H   0  0  0  0  0  0  0  0  0  0  0  0
   -1.2330    4.0010    2.0611 H   0  0  0  0  0  0  0  0  0  0  0  0
    5.6201   -1.2102   -1.9552 H   0  0  0  0  0  0  0  0  0  0  0  0
   -0.6004    4.9312   -0.1354 H   0  0  0  0  0  0  0  0  0  0  0  0
  1 23  1  0  0  0  0
  2 25  1  0  0  0  0
  3 14  2  0  0  0  0
  4 18  2  0  0  0  0
  5  8  1  0  0  0  0
  5 14  1  0  0  0  0
  5 40  1  0  0  0  0
  6 15  1  0  0  0  0
  6 17  1  0  0  0  0
  6 18  1  0  0  0  0
  7 20  1  0  0  0  0
  7 27  2  0  0  0  0
  8  9  1  0  0  0  0
  8 10  1  0  0  0  0
  8 29  1  0  0  0  0
  9 11  1  0  0  0  0
  9 30  1  0  0  0  0
  9 31  1  0  0  0  0
 10 12  1  0  0  0  0
 10 32  1  0  0  0  0
 10 33  1  0  0  0  0
 11 13  1  0  0  0  0
 11 34  1  0  0  0  0
 11 35  1  0  0  0  0
 12 13  1  0  0  0  0
 12 36  1  0  0  0  0
 12 37  1  0  0  0  0
 13 38  1  0  0  0  0
 13 39  1  0  0  0  0
 14 15  1  0  0  0  0
 15 16  1  0  0  0  0
 15 41  1  0  0  0  0
 16 19  1  0  0  0  0
 16 20  2  0  0  0  0
 17 21  2  0  0  0  0
 17 22  1  0  0  0  0
 18 23  1  0  0  0  0
 19 24  2  0  0  0  0
 19 42  1  0  0  0  0
 20 43  1  0  0  0  0
 21 25  1  0  0  0  0
 21 44  1  0  0  0  0
 22 26  2  0  0  0  0
 22 45  1  0  0  0  0
 23 46  1  0  0  0  0
 23 47  1  0  0  0  0
 24 27  1  0  0  0  0
 24 48  1  0  0  0  0
 25 28  2  0  0  0  0
 26 28  1  0  0  0  0
 26 49  1  0  0  0  0
 27 50  1  0  0  0  0
 28 51  1  0  0  0  0
M  END
> <PUBCHEM_COMPOUND_CID>
4381127

> <PUBCHEM_CONFORMER_RMSD>
1

> <PUBCHEM_CONFORMER_DIVERSEORDER>
1
40
50
104
112
51
73
108
86
58
62
72
95
85
113
97
10
19
89
92
68
21
119
90
31
18
81
38
110
102
101
41
111
28
69
79
94
117
65
71
109
100
64
120
22
36
12
88
87
24
114
4
75
66
98
118
7
103
70
44
25
74
116
59
67
55
77
63
115
37
8
99
20
93
33
60
16
56
82
46
29
27
53
35
34
80
42
3
76
84
23
105
13
14
52
57
49
2
26
9
106
11
43
32
39
107
47
6
83
61
54
30
48
45
96
17
91
5
15
78

> <PUBCHEM_MMFF94_PARTIAL_CHARGES>
32
1 -0.29
14 0.57
15 0.5
16 -0.14
17 0.12
18 0.57
19 -0.15
2 -0.18
20 0.16
21 -0.15
22 -0.15
23 0.35
24 -0.15
25 0.18
26 -0.15
27 0.16
28 -0.15
3 -0.57
4 -0.57
40 0.37
42 0.15
43 0.15
44 0.15
45 0.15
48 0.15
49 0.15
5 -0.73
50 0.15
51 0.15
6 -0.48
7 -0.62
8 0.3

> <PUBCHEM_EFFECTIVE_ROTOR_COUNT>
9.2

> <PUBCHEM_PHARMACOPHORE_FEATURES>
7
1 3 acceptor
1 4 acceptor
1 5 donor
1 7 acceptor
6 17 21 22 25 26 28 rings
6 7 16 19 20 24 27 rings
6 8 9 10 11 12 13 rings

> <PUBCHEM_HEAVY_ATOM_COUNT>
28

> <PUBCHEM_ATOM_DEF_STEREO_COUNT>
0

> <PUBCHEM_ATOM_UDEF_STEREO_COUNT>
1

> <PUBCHEM_BOND_DEF_STEREO_COUNT>
0

> <PUBCHEM_BOND_UDEF_STEREO_COUNT>
0

> <PUBCHEM_ISOTOPIC_ATOM_COUNT>
0

> <PUBCHEM_COMPONENT_COUNT>
1

> <PUBCHEM_CACTVS_TAUTO_COUNT>
2

> <PUBCHEM_CONFORMER_ID>
0042D9C700000001

> <PUBCHEM_MMFF94_ENERGY>
98.8938

> <PUBCHEM_FEATURE_SELFOVERLAP>
35.522

> <PUBCHEM_SHAPE_FINGERPRINT>
11045515 52 18336274461214124548
11421498 54 17676771959662482969
11578080 2 17274244046899934976
12160290 23 17764560163533086989
12422481 6 17843368948128243608
12788726 201 18268999687212512498
13009979 54 17703248281395550587
13149001 5 17606138391922248050
14955137 171 18055622073798898272
15238133 3 17827331338534776373
17357779 13 17916006980963061109
17980427 23 12607397797971491939
1813 80 18411421712943089246
20197701 30 7925628869391571253
20600515 1 18263064634967136970
20602899 9 16805906012650621458
21033648 29 17488726901691578555
23419403 2 17390829838643043401
23559900 14 18200305641600689623
3552219 110 17274002249316634426
469060 322 18199767877023819926
6669772 16 17460588367332630728

> <PUBCHEM_SHAPE_MULTIPOLES>
553.28
7.05
4.1
3.51
4.72
5.1
-3.54
-5.83
5.37
-0.23
-0.9
-1.85
-2.54
-0.62

> <PUBCHEM_SHAPE_SELFOVERLAP>
1160.835

> <PUBCHEM_SHAPE_VOLUME>
311.2

> <PUBCHEM_COORDINATE_TYPE>
2
5
10

$$$$
