902188
  -OEChem-01171809403D

 30 31  0     0  0  0  0  0  0999 V2000
   -2.9036    2.2346   -0.7912 S   0  0  0  0  0  0  0  0  0  0  0  0
   -0.1869   -1.3303   -0.0691 O   0  0  0  0  0  0  0  0  0  0  0  0
    1.9753    0.5723    1.8996 O   0  0  0  0  0  0  0  0  0  0  0  0
   -1.9797   -2.6628    0.2708 O   0  0  0  0  0  0  0  0  0  0  0  0
   -4.9860   -0.8028   -0.0526 N   0  0  0  0  0  0  0  0  0  0  0  0
    1.8027    0.0175   -0.4329 C   0  0  0  0  0  0  0  0  0  0  0  0
    0.3313   -0.0514   -0.3667 C   0  0  0  0  0  0  0  0  0  0  0  0
    2.5689    0.3253    0.6970 C   0  0  0  0  0  0  0  0  0  0  0  0
   -0.4790    0.9923   -0.5850 C   0  0  0  0  0  0  0  0  0  0  0  0
    2.4449   -0.2301   -1.6510 C   0  0  0  0  0  0  0  0  0  0  0  0
   -1.9123    0.8233   -0.5043 C   0  0  0  0  0  0  0  0  0  0  0  0
    3.9599    0.3844    0.6093 C   0  0  0  0  0  0  0  0  0  0  0  0
    3.8357   -0.1708   -1.7385 C   0  0  0  0  0  0  0  0  0  0  0  0
   -2.4369   -0.3848   -0.2193 C   0  0  0  0  0  0  0  0  0  0  0  0
    4.5932    0.1365   -0.6084 C   0  0  0  0  0  0  0  0  0  0  0  0
   -1.5336   -1.5481    0.0138 C   0  0  0  0  0  0  0  0  0  0  0  0
    1.7644   -0.5458    2.7585 C   0  0  0  0  0  0  0  0  0  0  0  0
   -3.0147    2.8557    0.8972 C   0  0  0  0  0  0  0  0  0  0  0  0
   -3.8435   -0.6150   -0.1272 C   0  0  0  0  0  0  0  0  0  0  0  0
   -0.0707    1.9707   -0.8206 H   0  0  0  0  0  0  0  0  0  0  0  0
    1.8702   -0.4720   -2.5423 H   0  0  0  0  0  0  0  0  0  0  0  0
    4.5568    0.6241    1.4852 H   0  0  0  0  0  0  0  0  0  0  0  0
    4.3291   -0.3640   -2.6866 H   0  0  0  0  0  0  0  0  0  0  0  0
    5.6762    0.1828   -0.6766 H   0  0  0  0  0  0  0  0  0  0  0  0
    1.1734   -0.2117    3.6156 H   0  0  0  0  0  0  0  0  0  0  0  0
    2.7239   -0.9254    3.1237 H   0  0  0  0  0  0  0  0  0  0  0  0
    1.2187   -1.3456    2.2498 H   0  0  0  0  0  0  0  0  0  0  0  0
   -3.4932    2.1221    1.5520 H   0  0  0  0  0  0  0  0  0  0  0  0
   -3.6159    3.7688    0.9062 H   0  0  0  0  0  0  0  0  0  0  0  0
   -2.0214    3.0932    1.2884 H   0  0  0  0  0  0  0  0  0  0  0  0
  1 11  1  0  0  0  0
  1 18  1  0  0  0  0
  2  7  1  0  0  0  0
  2 16  1  0  0  0  0
  3  8  1  0  0  0  0
  3 17  1  0  0  0  0
  4 16  2  0  0  0  0
  5 19  3  0  0  0  0
  6  7  1  0  0  0  0
  6  8  1  0  0  0  0
  6 10  2  0  0  0  0
  7  9  2  0  0  0  0
  8 12  2  0  0  0  0
  9 11  1  0  0  0  0
  9 20  1  0  0  0  0
 10 13  1  0  0  0  0
 10 21  1  0  0  0  0
 11 14  2  0  0  0  0
 12 15  1  0  0  0  0
 12 22  1  0  0  0  0
 13 15  2  0  0  0  0
 13 23  1  0  0  0  0
 14 16  1  0  0  0  0
 14 19  1  0  0  0  0
 15 24  1  0  0  0  0
 17 25  1  0  0  0  0
 17 26  1  0  0  0  0
 17 27  1  0  0  0  0
 18 28  1  0  0  0  0
 18 29  1  0  0  0  0
 18 30  1  0  0  0  0
M  END
> <PUBCHEM_COMPOUND_CID>
902188

> <PUBCHEM_CONFORMER_RMSD>
0.6

> <PUBCHEM_CONFORMER_DIVERSEORDER>
1
8
10
18
12
5
15
17
14
3
6
11
7
9
2
4
13
16

> <PUBCHEM_MMFF94_PARTIAL_CHARGES>
24
1 -0.33
10 -0.15
11 0.1
12 -0.15
13 -0.15
14 0.08
15 -0.15
16 0.71
17 0.28
18 0.23
19 0.49
2 -0.23
20 0.15
21 0.15
22 0.15
23 0.15
24 0.15
3 -0.36
4 -0.57
5 -0.56
6 0.03
7 0.05
8 0.08
9 -0.15

> <PUBCHEM_EFFECTIVE_ROTOR_COUNT>
3

> <PUBCHEM_PHARMACOPHORE_FEATURES>
6
1 18 hydrophobe
1 3 acceptor
1 4 acceptor
1 5 acceptor
6 2 7 9 11 14 16 rings
6 6 8 10 12 13 15 rings

> <PUBCHEM_HEAVY_ATOM_COUNT>
19

> <PUBCHEM_ATOM_DEF_STEREO_COUNT>
0

> <PUBCHEM_ATOM_UDEF_STEREO_COUNT>
0

> <PUBCHEM_BOND_DEF_STEREO_COUNT>
0

> <PUBCHEM_BOND_UDEF_STEREO_COUNT>
0

> <PUBCHEM_ISOTOPIC_ATOM_COUNT>
0

> <PUBCHEM_COMPONENT_COUNT>
1

> <PUBCHEM_CACTVS_TAUTO_COUNT>
1

> <PUBCHEM_CONFORMER_ID>
000DC42C00000001

> <PUBCHEM_MMFF94_ENERGY>
67.5569

> <PUBCHEM_FEATURE_SELFOVERLAP>
30.446

> <PUBCHEM_SHAPE_FINGERPRINT>
10366900 7 17988640830430478255
10498660 4 18337105657766712901
12236239 1 17385439938602655054
12592029 89 15213288751201439778
12788726 201 18186517696831154681
13134695 92 15913326884358829384
13140716 1 18120380010667288315
13538477 17 17749950075976175246
13760787 19 16805321141236810291
13965767 371 17680705917598829652
15279307 12 17313098674670227138
16752209 62 18261382348122700535
16945 1 18335979848285726839
18186145 218 15697988639622437284
19049666 15 17988647337416558446
19422 9 17676482813795034378
200 152 15936405662941920853
20510252 161 18413669097973823817
20645477 70 14996271518588141258
21618674 53 17822871813402867740
21639500 275 15697422434342157912
23048698 100 16660360393873782942
23175994 123 17203059538414735992
23402539 116 18411975893222320623
23493267 7 18340765957850312760
23526113 38 17488178184700730188
23557571 272 18343590642124967812
23559900 14 18270970029872831222
23598291 2 17241323551977793868
23598294 1 18261667091300842465
474 4 16807026556939014060
6049 1 17632571639270483609
77492 1 17385439938613185038
81228 2 18410014372915133077
8272917 22 16009301020447541419

> <PUBCHEM_SHAPE_MULTIPOLES>
372.27
8.41
2.05
1.69
0.48
0.33
1.01
0.86
-1.14
-3.26
0.29
1.92
0.02
-0.3

> <PUBCHEM_SHAPE_SELFOVERLAP>
782.078

> <PUBCHEM_SHAPE_VOLUME>
211.5

> <PUBCHEM_COORDINATE_TYPE>
2
5
10

$$$$
