2745307
  -OEChem-01171809553D

 45 47  0     0  0  0  0  0  0999 V2000
    0.9935    3.1246   -0.0629 S   0  0  0  0  0  0  0  0  0  0  0  0
   -3.6026    2.3025   -0.0395 O   0  0  0  0  0  0  0  0  0  0  0  0
   -4.9642   -1.9559    0.0486 O   0  0  0  0  0  0  0  0  0  0  0  0
   -6.7217   -0.4829    0.0229 O   0  0  0  0  0  0  0  0  0  0  0  0
   -0.1607    0.8120   -0.0159 N   0  0  0  0  0  0  0  0  0  0  0  0
   -4.8104    1.6156   -0.0235 N   0  0  0  0  0  0  0  0  0  0  0  0
    6.0642   -1.2810    0.0162 C   0  0  0  0  0  0  0  0  0  0  0  0
    4.7067   -0.5588    0.0034 C   0  0  0  0  0  0  0  0  0  0  0  0
    6.4022   -1.7766   -1.4065 C   0  0  0  0  0  0  0  0  0  0  0  0
    6.0002   -2.4907    0.9736 C   0  0  0  0  0  0  0  0  0  0  0  0
    7.2404   -0.3929    0.4816 C   0  0  0  0  0  0  0  0  0  0  0  0
    3.5977   -1.2626   -0.3940 C   0  0  0  0  0  0  0  0  0  0  0  0
    4.6662    0.7572    0.3907 C   0  0  0  0  0  0  0  0  0  0  0  0
    2.2850    0.7306   -0.0180 C   0  0  0  0  0  0  0  0  0  0  0  0
    2.3665   -0.6071   -0.4049 C   0  0  0  0  0  0  0  0  0  0  0  0
    3.4349    1.4126    0.3797 C   0  0  0  0  0  0  0  0  0  0  0  0
    1.0116    1.4083   -0.0289 C   0  0  0  0  0  0  0  0  0  0  0  0
   -1.1522    1.7736   -0.0339 C   0  0  0  0  0  0  0  0  0  0  0  0
   -0.7210    3.0834   -0.0602 C   0  0  0  0  0  0  0  0  0  0  0  0
   -2.5812    1.4099   -0.0245 C   0  0  0  0  0  0  0  0  0  0  0  0
   -3.0797    0.1354    0.0014 C   0  0  0  0  0  0  0  0  0  0  0  0
   -4.4727    0.3232    0.0008 C   0  0  0  0  0  0  0  0  0  0  0  0
   -5.4940   -0.6832    0.0242 C   0  0  0  0  0  0  0  0  0  0  0  0
   -5.8906   -3.0478    0.0726 C   0  0  0  0  0  0  0  0  0  0  0  0
   -5.1182   -4.3495    0.0970 C   0  0  0  0  0  0  0  0  0  0  0  0
    7.3868   -2.2583   -1.4328 H   0  0  0  0  0  0  0  0  0  0  0  0
    5.6792   -2.5120   -1.7760 H   0  0  0  0  0  0  0  0  0  0  0  0
    6.4198   -0.9446   -2.1205 H   0  0  0  0  0  0  0  0  0  0  0  0
    5.2695   -3.2406    0.6516 H   0  0  0  0  0  0  0  0  0  0  0  0
    6.9704   -2.9980    1.0335 H   0  0  0  0  0  0  0  0  0  0  0  0
    5.7255   -2.1773    1.9878 H   0  0  0  0  0  0  0  0  0  0  0  0
    8.1813   -0.9573    0.4706 H   0  0  0  0  0  0  0  0  0  0  0  0
    7.3876    0.4716   -0.1765 H   0  0  0  0  0  0  0  0  0  0  0  0
    7.1034   -0.0349    1.5088 H   0  0  0  0  0  0  0  0  0  0  0  0
    3.6374   -2.3025   -0.6995 H   0  0  0  0  0  0  0  0  0  0  0  0
    5.5248    1.3319    0.7135 H   0  0  0  0  0  0  0  0  0  0  0  0
    1.4847   -1.1589   -0.7217 H   0  0  0  0  0  0  0  0  0  0  0  0
    3.4361    2.4445    0.7177 H   0  0  0  0  0  0  0  0  0  0  0  0
   -1.3023    3.9949   -0.0775 H   0  0  0  0  0  0  0  0  0  0  0  0
   -2.5213   -0.7899    0.0185 H   0  0  0  0  0  0  0  0  0  0  0  0
   -6.5186   -2.9717    0.9670 H   0  0  0  0  0  0  0  0  0  0  0  0
   -6.5228   -3.0077   -0.8211 H   0  0  0  0  0  0  0  0  0  0  0  0
   -5.7969   -5.2068    0.1158 H   0  0  0  0  0  0  0  0  0  0  0  0
   -4.4709   -4.4299   -0.7826 H   0  0  0  0  0  0  0  0  0  0  0  0
   -4.4668   -4.3945    0.9760 H   0  0  0  0  0  0  0  0  0  0  0  0
  1 17  1  0  0  0  0
  1 19  1  0  0  0  0
  2  6  1  0  0  0  0
  2 20  1  0  0  0  0
  3 23  1  0  0  0  0
  3 24  1  0  0  0  0
  4 23  2  0  0  0  0
  5 17  2  0  0  0  0
  5 18  1  0  0  0  0
  6 22  2  0  0  0  0
  7  8  1  0  0  0  0
  7  9  1  0  0  0  0
  7 10  1  0  0  0  0
  7 11  1  0  0  0  0
  8 12  2  0  0  0  0
  8 13  1  0  0  0  0
  9 26  1  0  0  0  0
  9 27  1  0  0  0  0
  9 28  1  0  0  0  0
 10 29  1  0  0  0  0
 10 30  1  0  0  0  0
 10 31  1  0  0  0  0
 11 32  1  0  0  0  0
 11 33  1  0  0  0  0
 11 34  1  0  0  0  0
 12 15  1  0  0  0  0
 12 35  1  0  0  0  0
 13 16  2  0  0  0  0
 13 36  1  0  0  0  0
 14 15  2  0  0  0  0
 14 16  1  0  0  0  0
 14 17  1  0  0  0  0
 15 37  1  0  0  0  0
 16 38  1  0  0  0  0
 18 19  2  0  0  0  0
 18 20  1  0  0  0  0
 19 39  1  0  0  0  0
 20 21  2  0  0  0  0
 21 22  1  0  0  0  0
 21 40  1  0  0  0  0
 22 23  1  0  0  0  0
 24 25  1  0  0  0  0
 24 41  1  0  0  0  0
 24 42  1  0  0  0  0
 25 43  1  0  0  0  0
 25 44  1  0  0  0  0
 25 45  1  0  0  0  0
M  END
> <PUBCHEM_COMPOUND_CID>
2745307

> <PUBCHEM_CONFORMER_RMSD>
0.8

> <PUBCHEM_CONFORMER_DIVERSEORDER>
1
18
14
11
17
4
5
15
8
12
3
7
2
16
10
9
6
13
19

> <PUBCHEM_MMFF94_PARTIAL_CHARGES>
27
1 -0.08
12 -0.15
13 -0.15
14 0.05
15 -0.15
16 -0.15
17 0.33
18 0.23
19 -0.11
2 -0.02
20 0.14
21 -0.15
22 0.2
23 0.81
24 0.28
3 -0.43
35 0.15
36 0.15
37 0.15
38 0.15
39 0.15
4 -0.57
40 0.15
5 -0.57
6 -0.41
7 0.14
8 -0.14

> <PUBCHEM_EFFECTIVE_ROTOR_COUNT>
6

> <PUBCHEM_PHARMACOPHORE_FEATURES>
7
1 4 acceptor
1 5 acceptor
1 6 acceptor
4 7 9 10 11 hydrophobe
5 1 5 17 18 19 rings
5 2 6 20 21 22 rings
6 8 12 13 14 15 16 rings

> <PUBCHEM_HEAVY_ATOM_COUNT>
25

> <PUBCHEM_ATOM_DEF_STEREO_COUNT>
0

> <PUBCHEM_ATOM_UDEF_STEREO_COUNT>
0

> <PUBCHEM_BOND_DEF_STEREO_COUNT>
0

> <PUBCHEM_BOND_UDEF_STEREO_COUNT>
0

> <PUBCHEM_ISOTOPIC_ATOM_COUNT>
0

> <PUBCHEM_COMPONENT_COUNT>
1

> <PUBCHEM_CACTVS_TAUTO_COUNT>
1

> <PUBCHEM_CONFORMER_ID>
0029E3DB00000001

> <PUBCHEM_MMFF94_ENERGY>
54.6423

> <PUBCHEM_FEATURE_SELFOVERLAP>
35.525

> <PUBCHEM_SHAPE_FINGERPRINT>
10050765 1 18410293627189251093
10391435 84 18338785805880121683
10622 236 17197121269772678687
10939801 23 18341327911983419894
11135609 99 18412825811378850150
11197282 1 18411703183699341343
11524674 6 17275100618340516903
11578080 2 16557036066030997866
117089 54 18119255214694590067
11761917 116 18194689391344421510
11796584 16 18338514127724098888
11963148 33 18122056774141675046
12107183 9 18341625793930556057
12166972 35 17894354380049829604
12633257 1 15410889691174791521
13402501 40 18412827966956573198
1361 4 18266178511879087935
13685833 64 18412827966930095472
13690498 29 18040433279129872341
13740256 8 18410856555434973813
13782708 43 18131064922710542018
13862211 1 18335701598955978000
13944108 23 8500728469323898775
14178184 131 18201434826556601287
14211702 104 18341619230271006926
14251751 18 18340488971383471107
14251764 30 18409444786725555952
14420673 8 18412267225170067527
14429380 30 18336829800754775283
14461889 52 18411693310592310738
14556957 393 15647626557410384350
15352361 1 18410575102259965317
15510800 12 18202291299048833663
15728490 51 18411697717028354206
17138139 8 17967529073738505706
17492 89 18194401319819409895
17627616 140 17895463731754363739
17780758 139 17989210318031188057
18222031 100 17821730507886398732
20028762 73 18412544301974290142
20398071 356 18337398244250923795
20567600 70 18410855473023730194
21033650 10 16805878486274209189
21049683 271 18413390960883833528
21054139 6 18040997324109946042
21267235 1 18411705365500217812
21424621 283 10592044661082673108
21585482 111 10663561295437392859
21623969 137 17703791392837152526
229767 8 17901396898456491531
23424784 1240 18272944799004574495
23522609 53 18048912665601617836
23559900 14 18410846664336723121
23569914 152 12182610199558420746
25122255 55 18411707594730643259
270888 7 9439136342426247115
2748736 6 9511466584750615419
3004659 81 18113336401361246884
316301 35 18339357564853632683
335352 9 18409728423094852877
4073 2 18411984632847680400
439807 62 18334297604391333419
465052 167 18201720622738974468
5104073 3 18202845452360684489
5385378 56 10735884950309998692
54583773 228 18336553811490071092
559249 180 18410572852171946885
5718773 13 18339640139827709319
59682541 35 18130212814969907714
59682541 52 13335012752083868056
636775 8 18271255911713165766
6431902 208 18341044198870033327
6700243 42 17910984365209668740
7970288 3 18409445873342193658
8863177 126 18340768233898091010

> <PUBCHEM_SHAPE_MULTIPOLES>
490.77
19.57
4.07
0.76
0.46
2.02
0.07
18.52
-0.65
-5.15
-0.12
0.97
0.25
0.41

> <PUBCHEM_SHAPE_SELFOVERLAP>
1042.911

> <PUBCHEM_SHAPE_VOLUME>
279.5

> <PUBCHEM_COORDINATE_TYPE>
2
5
10

$$$$
