436058
  -OEChem-01171810153D

 35 35  0     0  0  0  0  0  0999 V2000
    1.0228   -0.4162    1.6547 O   0  0  0  0  0  0  0  0  0  0  0  0
    3.5973    0.2108    0.2477 N   0  0  0  0  0  0  0  0  0  0  0  0
   -0.8829   -0.2699    0.3082 C   0  0  0  0  0  0  0  0  0  0  0  0
    2.9238   -0.9181   -0.3884 C   0  0  0  0  0  0  0  0  0  0  0  0
   -1.4173    0.9953    0.1433 C   0  0  0  0  0  0  0  0  0  0  0  0
    1.4739   -0.6293   -0.6657 C   0  0  0  0  0  0  0  0  0  0  0  0
    0.5718   -0.4456    0.5134 C   0  0  0  0  0  0  0  0  0  0  0  0
   -3.6097    0.0033   -0.0726 C   0  0  0  0  0  0  0  0  0  0  0  0
   -2.7921    1.1332   -0.0486 C   0  0  0  0  0  0  0  0  0  0  0  0
   -1.6780   -1.4025    0.2871 C   0  0  0  0  0  0  0  0  0  0  0  0
   -3.0525   -1.2645    0.0953 C   0  0  0  0  0  0  0  0  0  0  0  0
   -0.5644    2.2217    0.1647 C   0  0  0  0  0  0  0  0  0  0  0  0
    3.5391    1.3935   -0.6117 C   0  0  0  0  0  0  0  0  0  0  0  0
    4.9872   -0.1277    0.5551 C   0  0  0  0  0  0  0  0  0  0  0  0
   -5.0795    0.1502   -0.2775 C   0  0  0  0  0  0  0  0  0  0  0  0
    0.9608   -0.6340   -1.9050 C   0  0  0  0  0  0  0  0  0  0  0  0
    2.9706   -1.7955    0.2706 H   0  0  0  0  0  0  0  0  0  0  0  0
    3.4421   -1.2064   -1.3136 H   0  0  0  0  0  0  0  0  0  0  0  0
   -3.2306    2.1192   -0.1834 H   0  0  0  0  0  0  0  0  0  0  0  0
   -1.2522   -2.3933    0.4173 H   0  0  0  0  0  0  0  0  0  0  0  0
   -3.6786   -2.1527    0.0768 H   0  0  0  0  0  0  0  0  0  0  0  0
   -1.1698    3.1334    0.2185 H   0  0  0  0  0  0  0  0  0  0  0  0
    0.0931    2.2293    1.0401 H   0  0  0  0  0  0  0  0  0  0  0  0
    0.0405    2.2801   -0.7452 H   0  0  0  0  0  0  0  0  0  0  0  0
    2.5169    1.7645   -0.7341 H   0  0  0  0  0  0  0  0  0  0  0  0
    3.9680    1.2085   -1.6036 H   0  0  0  0  0  0  0  0  0  0  0  0
    4.0961    2.2207   -0.1555 H   0  0  0  0  0  0  0  0  0  0  0  0
    5.4783    0.7005    1.0781 H   0  0  0  0  0  0  0  0  0  0  0  0
    5.5669   -0.3591   -0.3459 H   0  0  0  0  0  0  0  0  0  0  0  0
    5.0333   -0.9921    1.2269 H   0  0  0  0  0  0  0  0  0  0  0  0
   -5.3104    0.1599   -1.3474 H   0  0  0  0  0  0  0  0  0  0  0  0
   -5.6300   -0.6724    0.1916 H   0  0  0  0  0  0  0  0  0  0  0  0
   -5.4485    1.0789    0.1709 H   0  0  0  0  0  0  0  0  0  0  0  0
    1.6058   -0.8076   -2.7617 H   0  0  0  0  0  0  0  0  0  0  0  0
   -0.0839   -0.4655   -2.1350 H   0  0  0  0  0  0  0  0  0  0  0  0
  1  7  2  0  0  0  0
  2  4  1  0  0  0  0
  2 13  1  0  0  0  0
  2 14  1  0  0  0  0
  3  5  2  0  0  0  0
  3  7  1  0  0  0  0
  3 10  1  0  0  0  0
  4  6  1  0  0  0  0
  4 17  1  0  0  0  0
  4 18  1  0  0  0  0
  5  9  1  0  0  0  0
  5 12  1  0  0  0  0
  6  7  1  0  0  0  0
  6 16  2  0  0  0  0
  8  9  2  0  0  0  0
  8 11  1  0  0  0  0
  8 15  1  0  0  0  0
  9 19  1  0  0  0  0
 10 11  2  0  0  0  0
 10 20  1  0  0  0  0
 11 21  1  0  0  0  0
 12 22  1  0  0  0  0
 12 23  1  0  0  0  0
 12 24  1  0  0  0  0
 13 25  1  0  0  0  0
 13 26  1  0  0  0  0
 13 27  1  0  0  0  0
 14 28  1  0  0  0  0
 14 29  1  0  0  0  0
 14 30  1  0  0  0  0
 15 31  1  0  0  0  0
 15 32  1  0  0  0  0
 15 33  1  0  0  0  0
 16 34  1  0  0  0  0
 16 35  1  0  0  0  0
M  END
> <PUBCHEM_COMPOUND_CID>
436058

> <PUBCHEM_CONFORMER_RMSD>
0.6

> <PUBCHEM_CONFORMER_DIVERSEORDER>
2
36
69
59
27
50
46
68
67
23
51
55
22
62
54
24
6
28
44
9
29
7
48
66
56
38
35
45
39
53
26
60
12
63
57
65
49
33
19
25
18
52
40
5
20
61
11
34
15
14
58
47
41
31
21
8
17
4
42
37
43
30
13
64
32
10
3
1
16

> <PUBCHEM_MMFF94_PARTIAL_CHARGES>
21
1 -0.57
10 -0.15
11 -0.15
12 0.14
13 0.27
14 0.27
15 0.14
16 -0.3
19 0.15
2 -0.81
20 0.15
21 0.15
3 0.09
34 0.15
35 0.15
4 0.41
5 -0.14
6 -0.12
7 0.47
8 -0.14
9 -0.15

> <PUBCHEM_EFFECTIVE_ROTOR_COUNT>
4

> <PUBCHEM_PHARMACOPHORE_FEATURES>
4
1 1 acceptor
1 16 hydrophobe
1 2 cation
6 3 5 8 9 10 11 rings

> <PUBCHEM_HEAVY_ATOM_COUNT>
16

> <PUBCHEM_ATOM_DEF_STEREO_COUNT>
0

> <PUBCHEM_ATOM_UDEF_STEREO_COUNT>
0

> <PUBCHEM_BOND_DEF_STEREO_COUNT>
0

> <PUBCHEM_BOND_UDEF_STEREO_COUNT>
0

> <PUBCHEM_ISOTOPIC_ATOM_COUNT>
0

> <PUBCHEM_COMPONENT_COUNT>
1

> <PUBCHEM_CACTVS_TAUTO_COUNT>
1

> <PUBCHEM_CONFORMER_ID>
0006A75A00000002

> <PUBCHEM_MMFF94_ENERGY>
50.4134

> <PUBCHEM_FEATURE_SELFOVERLAP>
20.297

> <PUBCHEM_SHAPE_FINGERPRINT>
11132069 177 18413389838825535468
11401426 45 18186799184244166055
12162725 195 18335425668776862556
12236239 1 17530962475370410107
13214271 11 18201435895939140767
13675066 3 17095528395991824483
14115302 16 17604158107246186879
14911166 2 18409441489082157871
15219456 202 17988368065700217390
15375358 24 18272655636447223751
15375462 478 18410571795324928364
15375462 6 18342461409201995734
16945 1 18189919576484101799
17802600 8 18409444782916320584
17862501 102 18113611262473008698
17959699 21 18040714766537940661
18175812 5 17988638640002275954
18186145 218 18128833966299323830
192875 21 16950572072872984676
19422 9 12463303483330634326
200 152 18410570690953824190
20279233 1 18130794451250295695
20344682 1 17846497023822065197
20510252 161 18270683043936342153
20645476 183 17458343048793543283
20645477 70 17346323626807158542
20871999 31 18340760550877189239
21267235 1 18335711532656320322
21501502 16 17701830885936674659
22213442 358 18270400619644887927
23227448 37 17557696156424643300
23402539 116 18412536626408205391
23557571 272 18201447930284828516
23559900 14 18340206289558191878
265663 24 18334292067925099474
2748010 2 18192145126375532683
296302 2 18041284360636495892
351380 180 18410008840992078488
474 4 17459197424798786324
537710 114 18411706512214469773
57426455 114 11674883320162430549
69090 78 18408885131086189615
7364860 26 18190739735160878042
77492 1 17530966860605891763
81228 2 18124057666350546577
9709674 26 18341058414821626654

> <PUBCHEM_SHAPE_MULTIPOLES>
318.42
8.47
1.56
1.09
1.5
0.63
-0.21
0.33
0.07
-0.3
-0.05
0.59
-0.21
0.03

> <PUBCHEM_SHAPE_SELFOVERLAP>
653.432

> <PUBCHEM_SHAPE_VOLUME>
186.8

> <PUBCHEM_COORDINATE_TYPE>
2
5
10

$$$$
