1801772
  -OEChem-01171809593D

 46 48  0     0  0  0  0  0  0999 V2000
    3.9117    0.7183   -2.4236 Cl  0  0  0  0  0  0  0  0  0  0  0  0
   -1.5516    1.3285    1.0089 O   0  0  0  0  0  0  0  0  0  0  0  0
    2.9002   -0.3899    0.8367 O   0  0  0  0  0  0  0  0  0  0  0  0
   -3.6469    2.1936    1.1276 O   0  0  0  0  0  0  0  0  0  0  0  0
   -7.5191    0.6148   -2.2188 O   0  0  0  0  0  0  0  0  0  0  0  0
   -7.7373   -0.0046   -0.0443 O   0  0  0  0  0  0  0  0  0  0  0  0
   -1.2158   -0.9841    0.3321 C   0  0  0  0  0  0  0  0  0  0  0  0
   -2.6775   -1.1311    0.1738 C   0  0  0  0  0  0  0  0  0  0  0  0
   -3.4845   -0.0888    0.4656 C   0  0  0  0  0  0  0  0  0  0  0  0
   -0.7034    0.2427    0.7432 C   0  0  0  0  0  0  0  0  0  0  0  0
   -4.9906   -0.1225    0.4091 C   0  0  0  0  0  0  0  0  0  0  0  0
    0.6648    0.4665    0.9172 C   0  0  0  0  0  0  0  0  0  0  0  0
    1.5599   -0.5695    0.6780 C   0  0  0  0  0  0  0  0  0  0  0  0
   -0.2939   -2.0175    0.1022 C   0  0  0  0  0  0  0  0  0  0  0  0
   -2.9276    1.2273    0.8928 C   0  0  0  0  0  0  0  0  0  0  0  0
   -3.1785   -2.4620   -0.3298 C   0  0  0  0  0  0  0  0  0  0  0  0
    1.0807   -1.8117    0.2721 C   0  0  0  0  0  0  0  0  0  0  0  0
   -5.5183    0.2734   -0.9576 C   0  0  0  0  0  0  0  0  0  0  0  0
    1.1673    1.8034    1.3573 C   0  0  0  0  0  0  0  0  0  0  0  0
    3.7617   -1.1695    0.0090 C   0  0  0  0  0  0  0  0  0  0  0  0
   -7.0273    0.2821   -0.9999 C   0  0  0  0  0  0  0  0  0  0  0  0
    5.0391   -0.4150   -0.2163 C   0  0  0  0  0  0  0  0  0  0  0  0
    5.1875    0.4569   -1.2910 C   0  0  0  0  0  0  0  0  0  0  0  0
    6.0834   -0.6086    0.6838 C   0  0  0  0  0  0  0  0  0  0  0  0
    6.3903    1.1412   -1.4672 C   0  0  0  0  0  0  0  0  0  0  0  0
    7.2861    0.0756    0.5073 C   0  0  0  0  0  0  0  0  0  0  0  0
    7.4396    0.9503   -0.5682 C   0  0  0  0  0  0  0  0  0  0  0  0
   -5.4167    0.5298    1.1828 H   0  0  0  0  0  0  0  0  0  0  0  0
   -5.3630   -1.1173    0.6836 H   0  0  0  0  0  0  0  0  0  0  0  0
   -0.6184   -3.0082   -0.2056 H   0  0  0  0  0  0  0  0  0  0  0  0
   -4.2543   -2.4811   -0.5195 H   0  0  0  0  0  0  0  0  0  0  0  0
   -2.7025   -2.7188   -1.2830 H   0  0  0  0  0  0  0  0  0  0  0  0
   -2.9671   -3.2530    0.3979 H   0  0  0  0  0  0  0  0  0  0  0  0
    1.7339   -2.6635    0.1067 H   0  0  0  0  0  0  0  0  0  0  0  0
   -5.1738    1.2800   -1.2216 H   0  0  0  0  0  0  0  0  0  0  0  0
   -5.1655   -0.4287   -1.7214 H   0  0  0  0  0  0  0  0  0  0  0  0
    2.2541    1.9007    1.2728 H   0  0  0  0  0  0  0  0  0  0  0  0
    0.7364    2.5981    0.7386 H   0  0  0  0  0  0  0  0  0  0  0  0
    0.8964    1.9796    2.4034 H   0  0  0  0  0  0  0  0  0  0  0  0
    3.9794   -2.1147    0.5240 H   0  0  0  0  0  0  0  0  0  0  0  0
    3.3113   -1.4352   -0.9550 H   0  0  0  0  0  0  0  0  0  0  0  0
    5.9775   -1.2846    1.5280 H   0  0  0  0  0  0  0  0  0  0  0  0
    6.5259    1.8266   -2.3001 H   0  0  0  0  0  0  0  0  0  0  0  0
    8.1028   -0.0722    1.2077 H   0  0  0  0  0  0  0  0  0  0  0  0
    8.3760    1.4831   -0.7053 H   0  0  0  0  0  0  0  0  0  0  0  0
   -8.4999    0.6037   -2.2335 H   0  0  0  0  0  0  0  0  0  0  0  0
  1 23  1  0  0  0  0
  2 10  1  0  0  0  0
  2 15  1  0  0  0  0
  3 13  1  0  0  0  0
  3 20  1  0  0  0  0
  4 15  2  0  0  0  0
  5 21  1  0  0  0  0
  5 46  1  0  0  0  0
  6 21  2  0  0  0  0
  7  8  1  0  0  0  0
  7 10  2  0  0  0  0
  7 14  1  0  0  0  0
  8  9  2  0  0  0  0
  8 16  1  0  0  0  0
  9 11  1  0  0  0  0
  9 15  1  0  0  0  0
 10 12  1  0  0  0  0
 11 18  1  0  0  0  0
 11 28  1  0  0  0  0
 11 29  1  0  0  0  0
 12 13  2  0  0  0  0
 12 19  1  0  0  0  0
 13 17  1  0  0  0  0
 14 17  2  0  0  0  0
 14 30  1  0  0  0  0
 16 31  1  0  0  0  0
 16 32  1  0  0  0  0
 16 33  1  0  0  0  0
 17 34  1  0  0  0  0
 18 21  1  0  0  0  0
 18 35  1  0  0  0  0
 18 36  1  0  0  0  0
 19 37  1  0  0  0  0
 19 38  1  0  0  0  0
 19 39  1  0  0  0  0
 20 22  1  0  0  0  0
 20 40  1  0  0  0  0
 20 41  1  0  0  0  0
 22 23  1  0  0  0  0
 22 24  2  0  0  0  0
 23 25  2  0  0  0  0
 24 26  1  0  0  0  0
 24 42  1  0  0  0  0
 25 27  1  0  0  0  0
 25 43  1  0  0  0  0
 26 27  2  0  0  0  0
 26 44  1  0  0  0  0
 27 45  1  0  0  0  0
M  END
> <PUBCHEM_COMPOUND_CID>
1801772

> <PUBCHEM_CONFORMER_RMSD>
0.8

> <PUBCHEM_CONFORMER_DIVERSEORDER>
1
149
169
159
17
208
182
187
223
127
209
137
192
37
104
93
170
178
71
57
120
54
129
122
82
186
184
145
190
34
158
171
211
147
126
53
207
111
217
59
194
133
185
179
226
172
189
157
31
216
45
47
155
69
15
225
74
84
99
204
218
79
114
51
199
116
195
143
161
221
168
68
95
2
130
123
41
215
183
220
80
102
97
213
52
131
100
136
5
205
12
151
148
191
176
227
124
21
113
89
139
118
75
86
83
81
156
164
201
212
222
103
144
198
18
30
117
175
109
200
146
107
65
188
166
9
94
63
62
167
173
119
43
32
106
70
165
196
4
128
88
142
49
150
224
206
11
85
56
90
105
92
177
219
193
7
110
132
55
98
112
13
125
87
19
64
121
154
163
23
39
50
26
42
135
162
210
138
174
6
203
25
44
140
38
10
16
8
197
101
29
46
67
40
66
180
153
27
14
3
181
160
72
22
20
61
76
35
33
214
48
28
36
96
115
60
152
108
24
91
78
77
58
73
202
141
134

> <PUBCHEM_MMFF94_PARTIAL_CHARGES>
34
1 -0.18
10 0.08
11 0.14
12 -0.14
13 0.08
14 -0.15
15 0.71
16 0.14
17 -0.15
18 0.06
19 0.14
2 -0.23
20 0.42
21 0.66
22 -0.14
23 0.18
24 -0.15
25 -0.15
26 -0.15
27 -0.15
3 -0.36
30 0.15
34 0.15
4 -0.57
42 0.15
43 0.15
44 0.15
45 0.15
46 0.5
5 -0.65
6 -0.57
7 0.03
8 -0.17
9 -0.12

> <PUBCHEM_EFFECTIVE_ROTOR_COUNT>
6

> <PUBCHEM_PHARMACOPHORE_FEATURES>
8
1 3 acceptor
1 4 acceptor
1 5 acceptor
1 6 acceptor
3 5 6 21 anion
6 2 7 8 9 10 15 rings
6 22 23 24 25 26 27 rings
6 7 10 12 13 14 17 rings

> <PUBCHEM_HEAVY_ATOM_COUNT>
27

> <PUBCHEM_ATOM_DEF_STEREO_COUNT>
0

> <PUBCHEM_ATOM_UDEF_STEREO_COUNT>
0

> <PUBCHEM_BOND_DEF_STEREO_COUNT>
0

> <PUBCHEM_BOND_UDEF_STEREO_COUNT>
0

> <PUBCHEM_ISOTOPIC_ATOM_COUNT>
0

> <PUBCHEM_COMPONENT_COUNT>
1

> <PUBCHEM_CACTVS_TAUTO_COUNT>
1

> <PUBCHEM_CONFORMER_ID>
001B7E2C00000001

> <PUBCHEM_MMFF94_ENERGY>
83.1142

> <PUBCHEM_FEATURE_SELFOVERLAP>
40.682

> <PUBCHEM_SHAPE_FINGERPRINT>
10076449 9 18342741862641426963
10299344 5 11024108750839743456
10906281 52 18271537386199233179
11607047 74 15551596484000223265
12011746 2 18272083894864539523
12236239 1 18187086183176878770
12516196 113 15339120135071204610
13540713 4 17912634997965226195
13668630 136 14764630815368688220
13685833 64 14620795998362714372
13885169 127 14189582918849554659
13914758 101 16805319976778147900
14123256 10 18343864411492154891
14767858 380 18343018878555458157
14790565 3 17266403287485223224
14931854 50 18272087158849643967
15048467 5 17894348882217396502
15131766 46 17025168568894229444
15183329 4 18343305872544149120
15348495 7 13912900777606341660
15352257 5 14549016585019604717
17134984 74 15267061441680073790
18335252 114 17676198083180379364
19319366 153 18261390018560810562
20157964 124 17894351051835348570
2026 5 16271101298232777910
20511986 3 18261669385535675222
20715895 44 18113622292070486974
21033648 29 14490759026553277556
21150785 3 17203326719312952764
21267235 1 17988640827153551115
22122407 14 16805334279035581516
22224240 67 13334736838541114105
23559900 14 18130217280602103153
23569943 247 15481012020557994574
23576562 1 18266173019053559141
24771750 20 18050859015155257620
2838139 119 16950560008573373703
3009799 131 18131068242440524570
3103668 31 17913480513839170655
335352 9 18272928337385854275
34797466 226 16702301269911918496
4093350 32 15357966829196348296
4325135 7 18411420609816936798
465052 167 11095885969317714498
484989 97 18199178676615965983
5104073 3 10881989184610011453
59682541 35 11097863990250722277
59755656 215 18060698377514065599
6058803 2 17767968628299314395
999808 66 13110959855811483341

> <PUBCHEM_SHAPE_MULTIPOLES>
528.17
20.82
1.81
1.54
1.82
0.46
-0.64
-6.19
-8.63
0.56
0.09
0.03
-0.79
-1

> <PUBCHEM_SHAPE_SELFOVERLAP>
1131.508

> <PUBCHEM_SHAPE_VOLUME>
292.8

> <PUBCHEM_COORDINATE_TYPE>
2
5
10

$$$$
