3734285
  -OEChem-01171809283D

 49 51  0     0  0  0  0  0  0999 V2000
   -9.3862    0.9379    0.7288 Cl  0  0  0  0  0  0  0  0  0  0  0  0
   -1.7809   -2.2502   -0.8481 S   0  0  0  0  0  0  0  0  0  0  0  0
    3.8166    2.7275   -0.5507 O   0  0  0  0  0  0  0  0  0  0  0  0
    7.4873   -1.3146    0.5575 N   0  0  0  0  0  0  0  0  0  0  0  0
    4.5745    0.8422    0.5684 N   0  0  0  0  0  0  0  0  0  0  0  0
   -2.7220    0.0263   -0.0641 N   0  0  0  0  0  0  0  0  0  0  0  0
    6.8332    0.8654   -0.4216 C   0  0  0  0  0  0  0  0  0  0  0  0
    6.9507   -0.6481   -0.6228 C   0  0  0  0  0  0  0  0  0  0  0  0
    5.9327    1.2795    0.7407 C   0  0  0  0  0  0  0  0  0  0  0  0
    7.5180   -2.7651    0.3617 C   0  0  0  0  0  0  0  0  0  0  0  0
    8.8288   -0.8158    0.8661 C   0  0  0  0  0  0  0  0  0  0  0  0
    3.6129    1.6144   -0.0733 C   0  0  0  0  0  0  0  0  0  0  0  0
    2.2483    1.0317   -0.1467 C   0  0  0  0  0  0  0  0  0  0  0  0
   -0.2855   -0.0498   -0.2821 C   0  0  0  0  0  0  0  0  0  0  0  0
    1.1648    1.8815   -0.2291 C   0  0  0  0  0  0  0  0  0  0  0  0
    2.1082   -0.3405   -0.1298 C   0  0  0  0  0  0  0  0  0  0  0  0
   -0.1165    1.3346   -0.2975 C   0  0  0  0  0  0  0  0  0  0  0  0
    0.8268   -0.8874   -0.1982 C   0  0  0  0  0  0  0  0  0  0  0  0
   -1.6104   -0.6158   -0.3515 C   0  0  0  0  0  0  0  0  0  0  0  0
   -3.7921   -0.8278   -0.2468 C   0  0  0  0  0  0  0  0  0  0  0  0
   -5.1414   -0.4016   -0.0106 C   0  0  0  0  0  0  0  0  0  0  0  0
   -3.4803   -2.1030   -0.6692 C   0  0  0  0  0  0  0  0  0  0  0  0
   -6.1018   -1.3229    0.4094 C   0  0  0  0  0  0  0  0  0  0  0  0
   -5.4960    0.9347   -0.2016 C   0  0  0  0  0  0  0  0  0  0  0  0
   -7.4141   -0.9088    0.6377 C   0  0  0  0  0  0  0  0  0  0  0  0
   -6.8083    1.3488    0.0268 C   0  0  0  0  0  0  0  0  0  0  0  0
   -7.7673    0.4271    0.4466 C   0  0  0  0  0  0  0  0  0  0  0  0
    6.4211    1.2879   -1.3480 H   0  0  0  0  0  0  0  0  0  0  0  0
    7.8181    1.3313   -0.3083 H   0  0  0  0  0  0  0  0  0  0  0  0
    7.5772   -0.8410   -1.5038 H   0  0  0  0  0  0  0  0  0  0  0  0
    5.9559   -1.0489   -0.8548 H   0  0  0  0  0  0  0  0  0  0  0  0
    5.9433    2.3715    0.8319 H   0  0  0  0  0  0  0  0  0  0  0  0
    6.2932    0.8713    1.6902 H   0  0  0  0  0  0  0  0  0  0  0  0
    4.3273   -0.0420    0.9989 H   0  0  0  0  0  0  0  0  0  0  0  0
    8.1677   -3.0564   -0.4716 H   0  0  0  0  0  0  0  0  0  0  0  0
    6.5105   -3.1482    0.1646 H   0  0  0  0  0  0  0  0  0  0  0  0
    7.8715   -3.2691    1.2682 H   0  0  0  0  0  0  0  0  0  0  0  0
    9.5062   -0.8798    0.0067 H   0  0  0  0  0  0  0  0  0  0  0  0
    9.2717   -1.3980    1.6834 H   0  0  0  0  0  0  0  0  0  0  0  0
    8.8094    0.2158    1.2302 H   0  0  0  0  0  0  0  0  0  0  0  0
    1.2792    2.9613   -0.2375 H   0  0  0  0  0  0  0  0  0  0  0  0
    2.9484   -1.0261   -0.0959 H   0  0  0  0  0  0  0  0  0  0  0  0
   -0.9679    2.0077   -0.3640 H   0  0  0  0  0  0  0  0  0  0  0  0
    0.7642   -1.9707   -0.1624 H   0  0  0  0  0  0  0  0  0  0  0  0
   -4.1263   -2.9405   -0.8933 H   0  0  0  0  0  0  0  0  0  0  0  0
   -5.8617   -2.3681    0.5862 H   0  0  0  0  0  0  0  0  0  0  0  0
   -4.7675    1.6708   -0.5331 H   0  0  0  0  0  0  0  0  0  0  0  0
   -8.1504   -1.6370    0.9683 H   0  0  0  0  0  0  0  0  0  0  0  0
   -7.0696    2.3926   -0.1274 H   0  0  0  0  0  0  0  0  0  0  0  0
  1 27  1  0  0  0  0
  2 19  1  0  0  0  0
  2 22  1  0  0  0  0
  3 12  2  0  0  0  0
  4  8  1  0  0  0  0
  4 10  1  0  0  0  0
  4 11  1  0  0  0  0
  5  9  1  0  0  0  0
  5 12  1  0  0  0  0
  5 34  1  0  0  0  0
  6 19  2  0  0  0  0
  6 20  1  0  0  0  0
  7  8  1  0  0  0  0
  7  9  1  0  0  0  0
  7 28  1  0  0  0  0
  7 29  1  0  0  0  0
  8 30  1  0  0  0  0
  8 31  1  0  0  0  0
  9 32  1  0  0  0  0
  9 33  1  0  0  0  0
 10 35  1  0  0  0  0
 10 36  1  0  0  0  0
 10 37  1  0  0  0  0
 11 38  1  0  0  0  0
 11 39  1  0  0  0  0
 11 40  1  0  0  0  0
 12 13  1  0  0  0  0
 13 15  2  0  0  0  0
 13 16  1  0  0  0  0
 14 17  2  0  0  0  0
 14 18  1  0  0  0  0
 14 19  1  0  0  0  0
 15 17  1  0  0  0  0
 15 41  1  0  0  0  0
 16 18  2  0  0  0  0
 16 42  1  0  0  0  0
 17 43  1  0  0  0  0
 18 44  1  0  0  0  0
 20 21  1  0  0  0  0
 20 22  2  0  0  0  0
 21 23  2  0  0  0  0
 21 24  1  0  0  0  0
 22 45  1  0  0  0  0
 23 25  1  0  0  0  0
 23 46  1  0  0  0  0
 24 26  2  0  0  0  0
 24 47  1  0  0  0  0
 25 27  2  0  0  0  0
 25 48  1  0  0  0  0
 26 27  1  0  0  0  0
 26 49  1  0  0  0  0
M  END
> <PUBCHEM_COMPOUND_CID>
3734285

> <PUBCHEM_CONFORMER_RMSD>
1

> <PUBCHEM_CONFORMER_DIVERSEORDER>
1
9
15
21
7
24
18
3
22
5
10
8
25
12
20
14
16
23
13
17
19
11
4
26
6
27
2
28

> <PUBCHEM_MMFF94_PARTIAL_CHARGES>
36
1 -0.18
10 0.27
11 0.27
12 0.54
13 0.09
14 0.05
15 -0.15
16 -0.15
17 -0.15
18 -0.15
19 0.33
2 -0.08
20 0.17
21 0.05
22 -0.11
23 -0.15
24 -0.15
25 -0.15
26 -0.15
27 0.18
3 -0.57
34 0.37
4 -0.81
41 0.15
42 0.15
43 0.15
44 0.15
45 0.15
46 0.15
47 0.15
48 0.15
49 0.15
5 -0.73
6 -0.57
8 0.27
9 0.3

> <PUBCHEM_EFFECTIVE_ROTOR_COUNT>
8

> <PUBCHEM_PHARMACOPHORE_FEATURES>
7
1 3 acceptor
1 4 cation
1 5 donor
1 6 acceptor
5 2 6 19 20 22 rings
6 13 14 15 16 17 18 rings
6 21 23 24 25 26 27 rings

> <PUBCHEM_HEAVY_ATOM_COUNT>
27

> <PUBCHEM_ATOM_DEF_STEREO_COUNT>
0

> <PUBCHEM_ATOM_UDEF_STEREO_COUNT>
0

> <PUBCHEM_BOND_DEF_STEREO_COUNT>
0

> <PUBCHEM_BOND_UDEF_STEREO_COUNT>
0

> <PUBCHEM_ISOTOPIC_ATOM_COUNT>
0

> <PUBCHEM_COMPONENT_COUNT>
1

> <PUBCHEM_CACTVS_TAUTO_COUNT>
2

> <PUBCHEM_CONFORMER_ID>
0038FB0D00000001

> <PUBCHEM_MMFF94_ENERGY>
64.5866

> <PUBCHEM_FEATURE_SELFOVERLAP>
35.522

> <PUBCHEM_SHAPE_FINGERPRINT>
10 15 18187368757807525025
10076449 9 12179847200036872613
10299344 5 18113056043281306774
10533779 47 18340499888927211267
10580692 12 18413389825887749664
10666366 153 17988653960868273636
10674148 151 18260827112226091912
10917259 128 16414364347179219195
11135926 11 18410844456607293991
11476731 38 9295285062921358889
11719270 70 17917715703906035582
12107183 9 18413388752341065588
12144603 126 18409171043866553580
12373685 5 15913322485948270165
12592606 108 18410289241784204335
13914758 101 18272091586618197520
14216079 64 18409448064598115998
14251764 18 18408039632730504431
14251764 46 17775286057969097346
14344974 204 17753344346209098811
14347424 109 18201715189690111400
14428016 86 18342740707358098865
14444916 359 17167861963254169403
14856354 85 16008752433423992115
15064986 96 18201446865212710391
15131766 46 15336838777636065136
15419008 145 18337105674930933345
15461852 350 17346593115342113447
1577012 14 18270961374933571756
15840311 113 18041562541664097405
1754911 235 8718829799427975554
18335252 98 11891328747106295072
19841028 212 18261388894392261010
20105231 36 16298386863890186947
21130935 74 18269551805248156274
21150785 3 10737284645295491536
21267235 1 18260829298084954516
21315763 28 18338517542866391557
21403212 168 18131633374205995887
21591340 7 18059851784142342527
21774942 28 16773250500257765361
21781055 127 17417818284277843907
21792934 111 18201712955848279080
23559900 14 17987509471773306896
246663 6 16515685541504991192
24893992 56 17917710245540334491
249057 3 18343864428877824086
28498 318 18409165498267000764
335352 9 18412826910288928924
3552219 110 12685090354931944823
3633792 109 17417823798656856463
4073 2 18042409199723762130
4093350 32 16702308910432300894
439807 62 18261111847447203770
444769 64 18341608222485839095
445580 167 8286199439886897154
5381727 24 18202563995798037055
59755656 520 17676765474388980075
6299153 45 18341899562886286560

> <PUBCHEM_SHAPE_MULTIPOLES>
540.55
29.06
2.37
0.83
4.31
0.4
-0.03
2.7
-8.43
2.3
0.22
0.2
0.1
-1

> <PUBCHEM_SHAPE_SELFOVERLAP>
1134.701

> <PUBCHEM_SHAPE_VOLUME>
308.5

> <PUBCHEM_COORDINATE_TYPE>
2
5
10

$$$$
