803124
  -OEChem-01171809403D

 34 36  0     0  0  0  0  0  0999 V2000
   -1.9068   -0.9404    0.8809 O   0  0  0  0  0  0  0  0  0  0  0  0
    0.8156   -0.6582    2.0852 O   0  0  0  0  0  0  0  0  0  0  0  0
    0.7238   -1.7131    0.0150 N   0  0  0  0  0  0  0  0  0  0  0  0
    1.1674   -1.8293   -1.2751 N   0  0  0  0  0  0  0  0  0  0  0  0
   -0.3117   -2.6634    0.3857 C   0  0  0  0  0  0  0  0  0  0  0  0
    2.2549    0.1419    0.4387 C   0  0  0  0  0  0  0  0  0  0  0  0
    2.6948    0.0150   -0.8696 C   0  0  0  0  0  0  0  0  0  0  0  0
    1.2054   -0.7715    0.9250 C   0  0  0  0  0  0  0  0  0  0  0  0
   -1.6987   -2.1141    0.1062 C   0  0  0  0  0  0  0  0  0  0  0  0
    2.0887   -1.0213   -1.6888 C   0  0  0  0  0  0  0  0  0  0  0  0
    2.8118    1.1235    1.2613 C   0  0  0  0  0  0  0  0  0  0  0  0
    3.6840    0.8485   -1.3870 C   0  0  0  0  0  0  0  0  0  0  0  0
    3.8049    1.9658    0.7548 C   0  0  0  0  0  0  0  0  0  0  0  0
    4.2396    1.8286   -0.5657 C   0  0  0  0  0  0  0  0  0  0  0  0
   -2.7464    0.0063    0.3550 C   0  0  0  0  0  0  0  0  0  0  0  0
   -3.7891   -0.3847   -0.4769 C   0  0  0  0  0  0  0  0  0  0  0  0
   -2.5460    1.3479    0.6583 C   0  0  0  0  0  0  0  0  0  0  0  0
   -4.6432    0.5791   -1.0127 C   0  0  0  0  0  0  0  0  0  0  0  0
   -3.4002    2.3118    0.1226 C   0  0  0  0  0  0  0  0  0  0  0  0
   -4.4489    1.9274   -0.7129 C   0  0  0  0  0  0  0  0  0  0  0  0
   -0.2130   -2.8752    1.4567 H   0  0  0  0  0  0  0  0  0  0  0  0
   -0.1492   -3.6008   -0.1583 H   0  0  0  0  0  0  0  0  0  0  0  0
   -2.4502   -2.8624    0.3820 H   0  0  0  0  0  0  0  0  0  0  0  0
   -1.7682   -1.9102   -0.9706 H   0  0  0  0  0  0  0  0  0  0  0  0
    2.4384   -1.1234   -2.7295 H   0  0  0  0  0  0  0  0  0  0  0  0
    2.4895    1.2490    2.2910 H   0  0  0  0  0  0  0  0  0  0  0  0
    4.0267    0.7470   -2.4124 H   0  0  0  0  0  0  0  0  0  0  0  0
    4.2411    2.7310    1.3907 H   0  0  0  0  0  0  0  0  0  0  0  0
    5.0119    2.4870   -0.9527 H   0  0  0  0  0  0  0  0  0  0  0  0
   -3.9931   -1.4249   -0.7112 H   0  0  0  0  0  0  0  0  0  0  0  0
   -1.7295    1.6511    1.3076 H   0  0  0  0  0  0  0  0  0  0  0  0
   -5.4641    0.2798   -1.6580 H   0  0  0  0  0  0  0  0  0  0  0  0
   -3.2487    3.3616    0.3560 H   0  0  0  0  0  0  0  0  0  0  0  0
   -5.1149    2.6777   -1.1286 H   0  0  0  0  0  0  0  0  0  0  0  0
  1  9  1  0  0  0  0
  1 15  1  0  0  0  0
  2  8  2  0  0  0  0
  3  4  1  0  0  0  0
  3  5  1  0  0  0  0
  3  8  1  0  0  0  0
  4 10  2  0  0  0  0
  5  9  1  0  0  0  0
  5 21  1  0  0  0  0
  5 22  1  0  0  0  0
  6  7  1  0  0  0  0
  6  8  1  0  0  0  0
  6 11  2  0  0  0  0
  7 10  1  0  0  0  0
  7 12  2  0  0  0  0
  9 23  1  0  0  0  0
  9 24  1  0  0  0  0
 10 25  1  0  0  0  0
 11 13  1  0  0  0  0
 11 26  1  0  0  0  0
 12 14  1  0  0  0  0
 12 27  1  0  0  0  0
 13 14  2  0  0  0  0
 13 28  1  0  0  0  0
 14 29  1  0  0  0  0
 15 16  2  0  0  0  0
 15 17  1  0  0  0  0
 16 18  1  0  0  0  0
 16 30  1  0  0  0  0
 17 19  2  0  0  0  0
 17 31  1  0  0  0  0
 18 20  2  0  0  0  0
 18 32  1  0  0  0  0
 19 20  1  0  0  0  0
 19 33  1  0  0  0  0
 20 34  1  0  0  0  0
M  END
> <PUBCHEM_COMPOUND_CID>
803124

> <PUBCHEM_CONFORMER_RMSD>
0.6

> <PUBCHEM_CONFORMER_DIVERSEORDER>
1
15
62
18
56
66
53
47
60
50
26
35
36
43
54
44
64
57
32
59
12
61
16
21
55
33
2
10
38
49
22
23
40
9
39
48
42
28
29
63
34
4
6
19
11
3
37
27
14
13
65
8
58
52
41
5
24
17
25
30
51
7
31
20
46
45

> <PUBCHEM_MMFF94_PARTIAL_CHARGES>
30
1 -0.36
10 0.3
11 -0.15
12 -0.15
13 -0.15
14 -0.15
15 0.08
16 -0.15
17 -0.15
18 -0.15
19 -0.15
2 -0.57
20 -0.15
25 0.06
26 0.15
27 0.15
28 0.15
29 0.15
3 -0.3
30 0.15
31 0.15
32 0.15
33 0.15
34 0.15
4 -0.51
5 0.3
6 0.09
7 0.09
8 0.54
9 0.28

> <PUBCHEM_EFFECTIVE_ROTOR_COUNT>
4

> <PUBCHEM_PHARMACOPHORE_FEATURES>
6
1 1 acceptor
1 2 acceptor
1 4 acceptor
6 15 16 17 18 19 20 rings
6 3 4 6 7 8 10 rings
6 6 7 11 12 13 14 rings

> <PUBCHEM_HEAVY_ATOM_COUNT>
20

> <PUBCHEM_ATOM_DEF_STEREO_COUNT>
0

> <PUBCHEM_ATOM_UDEF_STEREO_COUNT>
0

> <PUBCHEM_BOND_DEF_STEREO_COUNT>
0

> <PUBCHEM_BOND_UDEF_STEREO_COUNT>
0

> <PUBCHEM_ISOTOPIC_ATOM_COUNT>
0

> <PUBCHEM_COMPONENT_COUNT>
1

> <PUBCHEM_CACTVS_TAUTO_COUNT>
1

> <PUBCHEM_CONFORMER_ID>
000C413400000001

> <PUBCHEM_MMFF94_ENERGY>
60.2291

> <PUBCHEM_FEATURE_SELFOVERLAP>
30.474

> <PUBCHEM_SHAPE_FINGERPRINT>
10498660 4 18410854348222580349
10618630 7 10519984863747491035
10646746 165 18409168835361644044
10928967 22 11527941270881628469
11370993 144 12974146498174271684
11370993 70 18411980273529916357
11640471 11 17748819743742087739
12363563 72 10159694694571551509
12506688 2 7853587798372398868
12553582 1 9007052483045340257
12633257 1 13190343482444722525
12670546 177 17632295713496715927
12788726 201 17100044266373071538
13103583 49 11314300616595672085
13134695 92 17540525830209946115
13533116 47 8141212348508655701
13828863 39 13769365062117613614
13965767 371 17604703361760087373
14739800 52 18047736385722768176
14848178 96 18337672997377047317
14957384 54 17968090975561709036
15163728 17 18189635963072568532
15239191 94 11887666282521954493
1798214 55 18334577923573383645
18186145 218 17846233192929689578
20715895 44 17391326556692387877
20775530 9 11742745096251501628
21713013 43 15913035548068635405
21756936 100 16372722736816449700
21864079 5 18265055730609125705
22749437 52 18408605855280564069
23114952 82 17916881126702793278
235170 7 17131833179177901725
23557571 272 18193849351459632679
23559900 14 18054215541325130935
238 59 17274820276702129326
26353 1 16334385123644645519
2838139 119 18339918346397903692
341906 21 18186801425990455732
4028521 119 18342459270112940893
469060 322 17898029038536700099
474 4 17530965791116765569
5262128 65 17273144496580314925
56633871 153 8286206080524242477
5895379 119 17699284365440991920
6328613 192 18187092771788534548
633830 44 18199469857901689517
7097593 13 7925040656857148353
7808743 9 18261961863411970476
7970288 3 11455891368950870357
9981440 41 18334288799265447683

> <PUBCHEM_SHAPE_MULTIPOLES>
389.89
9.09
2.68
1.47
4.06
0.42
0
-7.14
-2.44
0.55
0.07
-0.96
0.13
0.62

> <PUBCHEM_SHAPE_SELFOVERLAP>
849.504

> <PUBCHEM_SHAPE_VOLUME>
210.8

> <PUBCHEM_COORDINATE_TYPE>
2
5
10

$$$$
