1088351
  -OEChem-01171809583D

 38 40  0     0  0  0  0  0  0999 V2000
   -4.1522   -1.8709    0.0944 O   0  0  0  0  0  0  0  0  0  0  0  0
   -5.1877    0.8119   -0.1095 O   0  0  0  0  0  0  0  0  0  0  0  0
    1.0851    2.0767   -0.1813 O   0  0  0  0  0  0  0  0  0  0  0  0
    0.2869   -0.1180   -0.0674 N   0  0  0  0  0  0  0  0  0  0  0  0
   -3.3443   -0.7674    0.0073 C   0  0  0  0  0  0  0  0  0  0  0  0
   -3.8461    0.5335   -0.0805 C   0  0  0  0  0  0  0  0  0  0  0  0
   -1.0917    0.0975   -0.0673 C   0  0  0  0  0  0  0  0  0  0  0  0
    2.6483    0.3352   -0.1550 C   0  0  0  0  0  0  0  0  0  0  0  0
   -5.4953   -1.5225    0.4415 C   0  0  0  0  0  0  0  0  0  0  0  0
   -5.9678   -0.3516   -0.3983 C   0  0  0  0  0  0  0  0  0  0  0  0
   -1.9666   -0.9870   -0.0014 C   0  0  0  0  0  0  0  0  0  0  0  0
    3.3442    0.1102    1.0224 C   0  0  0  0  0  0  0  0  0  0  0  0
   -2.9703    1.6182   -0.1328 C   0  0  0  0  0  0  0  0  0  0  0  0
   -1.5926    1.3983   -0.1275 C   0  0  0  0  0  0  0  0  0  0  0  0
    1.2738    0.8656   -0.1232 C   0  0  0  0  0  0  0  0  0  0  0  0
    5.2321   -0.6642   -0.2712 C   0  0  0  0  0  0  0  0  0  0  0  0
    4.6440   -0.3927    0.9640 C   0  0  0  0  0  0  0  0  0  0  0  0
    3.2204    0.0696   -1.3901 C   0  0  0  0  0  0  0  0  0  0  0  0
    4.5204   -0.4330   -1.4483 C   0  0  0  0  0  0  0  0  0  0  0  0
    2.7381    0.3925    2.3583 C   0  0  0  0  0  0  0  0  0  0  0  0
    6.6215   -1.2019   -0.3341 C   0  0  0  0  0  0  0  0  0  0  0  0
   -5.5316   -1.2919    1.5134 H   0  0  0  0  0  0  0  0  0  0  0  0
   -6.1243   -2.3994    0.2592 H   0  0  0  0  0  0  0  0  0  0  0  0
   -5.8916   -0.5670   -1.4713 H   0  0  0  0  0  0  0  0  0  0  0  0
   -7.0122   -0.1171   -0.1701 H   0  0  0  0  0  0  0  0  0  0  0  0
   -1.5811   -2.0025    0.0545 H   0  0  0  0  0  0  0  0  0  0  0  0
   -3.3539    2.6335   -0.1884 H   0  0  0  0  0  0  0  0  0  0  0  0
   -0.9985    2.2977   -0.1764 H   0  0  0  0  0  0  0  0  0  0  0  0
    0.5880   -1.0895   -0.0271 H   0  0  0  0  0  0  0  0  0  0  0  0
    5.2025   -0.5770    1.8788 H   0  0  0  0  0  0  0  0  0  0  0  0
    2.6735    0.2462   -2.3122 H   0  0  0  0  0  0  0  0  0  0  0  0
    4.9665   -0.6422   -2.4170 H   0  0  0  0  0  0  0  0  0  0  0  0
    3.4477    0.2143    3.1737 H   0  0  0  0  0  0  0  0  0  0  0  0
    2.4259    1.4398    2.4265 H   0  0  0  0  0  0  0  0  0  0  0  0
    1.8726   -0.2555    2.5308 H   0  0  0  0  0  0  0  0  0  0  0  0
    7.1159   -0.9165   -1.2690 H   0  0  0  0  0  0  0  0  0  0  0  0
    7.2335   -0.8081    0.4845 H   0  0  0  0  0  0  0  0  0  0  0  0
    6.6049   -2.2943   -0.2670 H   0  0  0  0  0  0  0  0  0  0  0  0
  1  5  1  0  0  0  0
  1  9  1  0  0  0  0
  2  6  1  0  0  0  0
  2 10  1  0  0  0  0
  3 15  2  0  0  0  0
  4  7  1  0  0  0  0
  4 15  1  0  0  0  0
  4 29  1  0  0  0  0
  5  6  2  0  0  0  0
  5 11  1  0  0  0  0
  6 13  1  0  0  0  0
  7 11  2  0  0  0  0
  7 14  1  0  0  0  0
  8 12  2  0  0  0  0
  8 15  1  0  0  0  0
  8 18  1  0  0  0  0
  9 10  1  0  0  0  0
  9 22  1  0  0  0  0
  9 23  1  0  0  0  0
 10 24  1  0  0  0  0
 10 25  1  0  0  0  0
 11 26  1  0  0  0  0
 12 17  1  0  0  0  0
 12 20  1  0  0  0  0
 13 14  2  0  0  0  0
 13 27  1  0  0  0  0
 14 28  1  0  0  0  0
 16 17  2  0  0  0  0
 16 19  1  0  0  0  0
 16 21  1  0  0  0  0
 17 30  1  0  0  0  0
 18 19  2  0  0  0  0
 18 31  1  0  0  0  0
 19 32  1  0  0  0  0
 20 33  1  0  0  0  0
 20 34  1  0  0  0  0
 20 35  1  0  0  0  0
 21 36  1  0  0  0  0
 21 37  1  0  0  0  0
 21 38  1  0  0  0  0
M  END
> <PUBCHEM_COMPOUND_CID>
1088351

> <PUBCHEM_CONFORMER_RMSD>
0.6

> <PUBCHEM_CONFORMER_DIVERSEORDER>
1
6
12
10
8
7
2
5
9
11
4
3

> <PUBCHEM_MMFF94_PARTIAL_CHARGES>
28
1 -0.36
10 0.28
11 -0.15
12 -0.14
13 -0.15
14 -0.15
15 0.54
16 -0.14
17 -0.15
18 -0.15
19 -0.15
2 -0.36
20 0.14
21 0.14
26 0.15
27 0.15
28 0.15
29 0.37
3 -0.57
30 0.15
31 0.15
32 0.15
4 -0.55
5 0.08
6 0.08
7 0.12
8 0.09
9 0.28

> <PUBCHEM_EFFECTIVE_ROTOR_COUNT>
3.8

> <PUBCHEM_PHARMACOPHORE_FEATURES>
7
1 1 acceptor
1 2 acceptor
1 3 acceptor
1 4 donor
6 1 2 5 6 9 10 rings
6 5 6 7 11 13 14 rings
6 8 12 16 17 18 19 rings

> <PUBCHEM_HEAVY_ATOM_COUNT>
21

> <PUBCHEM_ATOM_DEF_STEREO_COUNT>
0

> <PUBCHEM_ATOM_UDEF_STEREO_COUNT>
0

> <PUBCHEM_BOND_DEF_STEREO_COUNT>
0

> <PUBCHEM_BOND_UDEF_STEREO_COUNT>
0

> <PUBCHEM_ISOTOPIC_ATOM_COUNT>
0

> <PUBCHEM_COMPONENT_COUNT>
1

> <PUBCHEM_CACTVS_TAUTO_COUNT>
2

> <PUBCHEM_CONFORMER_ID>
00109B5F00000001

> <PUBCHEM_MMFF94_ENERGY>
74.4627

> <PUBCHEM_FEATURE_SELFOVERLAP>
35.564

> <PUBCHEM_SHAPE_FINGERPRINT>
10 15 17846203480989520946
10688039 33 16988847155315766368
10693767 8 16806157741338157050
11128504 68 17167867490733978228
11315181 36 18411423907708599201
11524674 6 17131833170704207063
11545043 162 18202562865023918825
12107183 9 16448384245869947761
12236239 1 17675925386932263268
12516196 113 18343582949817376384
12616971 3 14620787219354947376
12788726 201 17822567192789760105
13288520 33 18409168805502646933
13402501 40 18201725033138111830
13533116 47 14189584001086140694
13668630 136 17748829613519262210
13675066 3 17917989507749050673
13685833 64 18273217499773970930
13836976 161 16226049985921012930
13862211 1 18411698824966607175
14251752 14 17385997343668940405
14294032 229 17970906653770518957
14341114 176 17346596391906320448
14386348 63 18131915948878606222
14528608 73 15936411160489613958
15183329 4 17167856448710709487
15348495 7 17417808500057207787
15475509 35 18199174111181950890
15788980 27 17489866042275686749
15880784 105 16988555857843800855
17804303 29 18410575106507479365
17834072 33 17530965786842812780
17844677 252 18343306971871511560
18222031 100 18187642522331638717
18681886 176 18259984907609356976
18927931 339 18410294722953557119
19141452 34 17632293514484204951
19489759 90 18272370854556600657
200 152 16443062785568756109
20374829 77 18409450297516776029
21033648 29 17274807022364761985
21033650 10 17753071422405687492
21065201 7 18411975832501960416
21150785 3 13767930148130604603
21267235 1 18334018324316835051
21623969 137 17203612571230818038
21641784 216 14201682979820662190
220451 1 17022618668016294131
221357 26 14706921839668218062
22224240 67 16343694436106388542
22646028 1 18040150734247037317
2297311 6 18412268315474647221
23175994 123 17561082510129694321
23402539 116 18412821387572857341
23522609 53 18118999994314792101
23557571 272 18272374118289121381
23559900 14 18338232786202753657
239999 70 18343584058245655018
26918003 58 16845853494595608182
29717793 49 17822015289924312142
3004659 81 18040435499384929252
335352 9 18408039607593918117
351380 3 18040151829416296635
4214541 1 18410293588475646261
4340502 62 14836132082719994677
465052 167 18337117863931613439
5104073 3 18340211898785377257
542803 24 16660362571654232469
559249 180 18334856095968098567
59755656 215 18412544280161648935
7495541 125 18060137657007243600
960060 61 16877661270801993540

> <PUBCHEM_SHAPE_MULTIPOLES>
409.58
15.24
1.51
1.21
1
0.14
-0.46
-6.36
0.98
1.3
0.02
-1.83
0.07
0.67

> <PUBCHEM_SHAPE_SELFOVERLAP>
894.024

> <PUBCHEM_SHAPE_VOLUME>
222.3

> <PUBCHEM_COORDINATE_TYPE>
2
5
10

$$$$
