2462422
  -OEChem-01171809373D

 51 53  0     0  0  0  0  0  0999 V2000
   -5.9267    1.4165    2.3570 Cl  0  0  0  0  0  0  0  0  0  0  0  0
    3.6317   -2.2531   -1.8784 O   0  0  0  0  0  0  0  0  0  0  0  0
   -5.3452   -1.1801    0.7592 O   0  0  0  0  0  0  0  0  0  0  0  0
    4.5104   -1.1839   -0.0288 N   0  0  0  0  0  0  0  0  0  0  0  0
   -3.3622   -0.4151   -0.2461 N   0  0  0  0  0  0  0  0  0  0  0  0
    1.8540   -0.7510    2.2996 N   0  0  0  0  0  0  0  0  0  0  0  0
    6.1164    0.1950   -1.3078 C   0  0  0  0  0  0  0  0  0  0  0  0
    5.8654   -1.0918   -0.5257 C   0  0  0  0  0  0  0  0  0  0  0  0
    5.9171    1.4380   -0.4758 C   0  0  0  0  0  0  0  0  0  0  0  0
    4.6639    2.0284   -0.4248 C   0  0  0  0  0  0  0  0  0  0  0  0
    6.9906    1.9681    0.2232 C   0  0  0  0  0  0  0  0  0  0  0  0
   -0.2691   -2.4063   -0.2507 C   0  0  0  0  0  0  0  0  0  0  0  0
   -2.4635   -1.4583   -0.0196 C   0  0  0  0  0  0  0  0  0  0  0  0
   -1.1514   -1.3621   -0.4831 C   0  0  0  0  0  0  0  0  0  0  0  0
    3.4858   -1.7670   -0.7580 C   0  0  0  0  0  0  0  0  0  0  0  0
    1.1149   -2.3059   -0.7394 C   0  0  0  0  0  0  0  0  0  0  0  0
    2.1483   -1.7688   -0.0619 C   0  0  0  0  0  0  0  0  0  0  0  0
    4.4795    3.1773    0.3442 C   0  0  0  0  0  0  0  0  0  0  0  0
    6.8061    3.1171    0.9921 C   0  0  0  0  0  0  0  0  0  0  0  0
   -0.6675   -3.5442    0.4342 C   0  0  0  0  0  0  0  0  0  0  0  0
   -2.8775   -2.5972    0.6709 C   0  0  0  0  0  0  0  0  0  0  0  0
    5.5505    3.7217    1.0528 C   0  0  0  0  0  0  0  0  0  0  0  0
   -1.9796   -3.6402    0.8978 C   0  0  0  0  0  0  0  0  0  0  0  0
   -5.4164    0.9028   -0.2740 C   0  0  0  0  0  0  0  0  0  0  0  0
   -4.7061   -0.3351    0.1416 C   0  0  0  0  0  0  0  0  0  0  0  0
   -5.9898    1.7397    0.6616 C   0  0  0  0  0  0  0  0  0  0  0  0
   -5.4723    1.1699   -1.6284 C   0  0  0  0  0  0  0  0  0  0  0  0
   -6.6465    2.8908    0.2267 C   0  0  0  0  0  0  0  0  0  0  0  0
   -6.1287    2.3212   -2.0633 C   0  0  0  0  0  0  0  0  0  0  0  0
   -6.7159    3.1816   -1.1357 C   0  0  0  0  0  0  0  0  0  0  0  0
    1.9838   -1.2081    1.2408 C   0  0  0  0  0  0  0  0  0  0  0  0
    5.4570    0.2368   -2.1847 H   0  0  0  0  0  0  0  0  0  0  0  0
    7.1388    0.1834   -1.7066 H   0  0  0  0  0  0  0  0  0  0  0  0
    6.0713   -1.9570   -1.1652 H   0  0  0  0  0  0  0  0  0  0  0  0
    6.5288   -1.1525    0.3441 H   0  0  0  0  0  0  0  0  0  0  0  0
    4.3348   -0.7956    0.8920 H   0  0  0  0  0  0  0  0  0  0  0  0
    3.8229    1.6149   -0.9741 H   0  0  0  0  0  0  0  0  0  0  0  0
    7.9715    1.5032    0.1840 H   0  0  0  0  0  0  0  0  0  0  0  0
   -0.8273   -0.4746   -1.0223 H   0  0  0  0  0  0  0  0  0  0  0  0
    1.2475   -2.7242   -1.7347 H   0  0  0  0  0  0  0  0  0  0  0  0
    3.5019    3.6481    0.3912 H   0  0  0  0  0  0  0  0  0  0  0  0
    7.6400    3.5407    1.5443 H   0  0  0  0  0  0  0  0  0  0  0  0
    0.0223   -4.3639    0.6171 H   0  0  0  0  0  0  0  0  0  0  0  0
   -3.8742   -2.7470    1.0609 H   0  0  0  0  0  0  0  0  0  0  0  0
   -2.9817    0.3811   -0.7537 H   0  0  0  0  0  0  0  0  0  0  0  0
    5.4069    4.6163    1.6517 H   0  0  0  0  0  0  0  0  0  0  0  0
   -2.3007   -4.5277    1.4354 H   0  0  0  0  0  0  0  0  0  0  0  0
   -5.0256    0.5050   -2.3621 H   0  0  0  0  0  0  0  0  0  0  0  0
   -7.1094    3.5719    0.9365 H   0  0  0  0  0  0  0  0  0  0  0  0
   -6.1842    2.5469   -3.1242 H   0  0  0  0  0  0  0  0  0  0  0  0
   -7.2275    4.0778   -1.4745 H   0  0  0  0  0  0  0  0  0  0  0  0
  1 26  1  0  0  0  0
  2 15  2  0  0  0  0
  3 25  2  0  0  0  0
  4  8  1  0  0  0  0
  4 15  1  0  0  0  0
  4 36  1  0  0  0  0
  5 13  1  0  0  0  0
  5 25  1  0  0  0  0
  5 45  1  0  0  0  0
  6 31  3  0  0  0  0
  7  8  1  0  0  0  0
  7  9  1  0  0  0  0
  7 32  1  0  0  0  0
  7 33  1  0  0  0  0
  8 34  1  0  0  0  0
  8 35  1  0  0  0  0
  9 10  2  0  0  0  0
  9 11  1  0  0  0  0
 10 18  1  0  0  0  0
 10 37  1  0  0  0  0
 11 19  2  0  0  0  0
 11 38  1  0  0  0  0
 12 14  2  0  0  0  0
 12 16  1  0  0  0  0
 12 20  1  0  0  0  0
 13 14  1  0  0  0  0
 13 21  2  0  0  0  0
 14 39  1  0  0  0  0
 15 17  1  0  0  0  0
 16 17  2  0  0  0  0
 16 40  1  0  0  0  0
 17 31  1  0  0  0  0
 18 22  2  0  0  0  0
 18 41  1  0  0  0  0
 19 22  1  0  0  0  0
 19 42  1  0  0  0  0
 20 23  2  0  0  0  0
 20 43  1  0  0  0  0
 21 23  1  0  0  0  0
 21 44  1  0  0  0  0
 22 46  1  0  0  0  0
 23 47  1  0  0  0  0
 24 25  1  0  0  0  0
 24 26  1  0  0  0  0
 24 27  2  0  0  0  0
 26 28  2  0  0  0  0
 27 29  1  0  0  0  0
 27 48  1  0  0  0  0
 28 30  1  0  0  0  0
 28 49  1  0  0  0  0
 29 30  2  0  0  0  0
 29 50  1  0  0  0  0
 30 51  1  0  0  0  0
M  END
> <PUBCHEM_COMPOUND_CID>
2462422

> <PUBCHEM_CONFORMER_RMSD>
1.2

> <PUBCHEM_CONFORMER_DIVERSEORDER>
1
319
333
492
255
192
76
449
208
241
167
113
119
281
12
223
254
300
485
291
228
347
146
413
435
134
151
107
311
67
96
184
243
9
116
469
154
320
41
2
348
395
114
7
353
170
173
355
318
217
266
37
169
297
250
213
160
204
273
44
35
69
138
148
314
285
305
131
25
488
405
128
36
288
277
89
75
15
65
363
179
215
201
102
24
158
452
219
74
10
13
490
289
46
39
62
155
242
177
272
98
11
95
19
64
3
52
90
55
5
18
157
80
83
283
86
91
4
72
23
58
22
14
8
141
30
29
20
17

> <PUBCHEM_MMFF94_PARTIAL_CHARGES>
47
1 -0.18
10 -0.15
11 -0.15
12 0.03
13 0.12
14 -0.15
15 0.62
16 -0.18
17 0.08
18 -0.15
19 -0.15
2 -0.57
20 -0.15
21 -0.15
22 -0.15
23 -0.15
24 0.09
25 0.54
26 0.18
27 -0.15
28 -0.15
29 -0.15
3 -0.57
30 -0.15
31 0.49
36 0.37
37 0.15
38 0.15
39 0.15
4 -0.73
40 0.15
41 0.15
42 0.15
43 0.15
44 0.15
45 0.37
46 0.15
47 0.15
48 0.15
49 0.15
5 -0.55
50 0.15
51 0.15
6 -0.56
7 0.14
8 0.3
9 -0.14

> <PUBCHEM_EFFECTIVE_ROTOR_COUNT>
9

> <PUBCHEM_PHARMACOPHORE_FEATURES>
8
1 2 acceptor
1 3 acceptor
1 4 donor
1 5 donor
1 6 acceptor
6 12 13 14 20 21 23 rings
6 24 26 27 28 29 30 rings
6 9 10 11 18 19 22 rings

> <PUBCHEM_HEAVY_ATOM_COUNT>
31

> <PUBCHEM_ATOM_DEF_STEREO_COUNT>
0

> <PUBCHEM_ATOM_UDEF_STEREO_COUNT>
0

> <PUBCHEM_BOND_DEF_STEREO_COUNT>
1

> <PUBCHEM_BOND_UDEF_STEREO_COUNT>
0

> <PUBCHEM_ISOTOPIC_ATOM_COUNT>
0

> <PUBCHEM_COMPONENT_COUNT>
1

> <PUBCHEM_CACTVS_TAUTO_COUNT>
4

> <PUBCHEM_CONFORMER_ID>
002592D600000001

> <PUBCHEM_MMFF94_ENERGY>
87.826

> <PUBCHEM_FEATURE_SELFOVERLAP>
40.597

> <PUBCHEM_SHAPE_FINGERPRINT>
10055352 69 18411989040708284513
10554248 39 17774442664053325758
10673678 19 18202571704631337110
10675989 125 18339926987745470282
11007060 377 18334579075141720563
11828042 226 18343860031686576481
12539747 72 18040436611401950275
12925494 130 18410854399656459024
13944108 23 18051973623772089081
14556957 393 16702032936891588241
15082195 135 17917433073493145666
16989378 47 13470406703494808492
17686467 74 18335146445138800355
19438510 23 18259702315302931082
20058555 10 18411419522673830893
20691028 202 18334858303407365189
20715895 44 18271807956527876282
21033648 29 18113902654112688799
21814621 53 18113909255931565202
23191077 185 18338505438995528090
23569914 2 17907535368246276108
241686 156 18264491856800620164
2748736 6 18411128139070093461
2838139 119 18411980282120162950
3862424 121 12031210909925859485
3918712 181 18263353699795183797
393628 194 18200880569922675761
4144715 1 18189907572694984474
4169191 19 18343304768658809441
5104073 3 18040431140131079882
5718773 13 9223229633056259742
57366028 249 18340201990976586421
60123966 16 17988372485976258062

> <PUBCHEM_SHAPE_MULTIPOLES>
613.15
22.61
5.23
1.64
0.01
0.78
0.22
27.59
-1.66
0.99
0.61
-1.44
0.51
3.49

> <PUBCHEM_SHAPE_SELFOVERLAP>
1311.395

> <PUBCHEM_SHAPE_VOLUME>
336.7

> <PUBCHEM_COORDINATE_TYPE>
2
5
10

$$$$
