42601261
  -OEChem-01171810103D

 38 40  0     1  0  0  0  0  0999 V2000
    3.9457    1.9692   -0.0420 F   0  0  0  0  0  0  0  0  0  0  0  0
    3.0738    1.0478   -1.8012 F   0  0  0  0  0  0  0  0  0  0  0  0
    1.8026    2.1015   -0.3862 F   0  0  0  0  0  0  0  0  0  0  0  0
    0.0250    0.6629   -1.0037 O   0  0  0  0  0  0  0  0  0  0  0  0
   -0.5420   -2.4853   -1.5703 O   0  0  0  0  0  0  0  0  0  0  0  0
   -1.4826    1.8580    0.7537 O   0  0  0  0  0  0  0  0  0  0  0  0
    0.7056   -0.5699   -1.0259 N   0  0  0  0  0  0  0  0  0  0  0  0
   -1.1868   -0.0110   -1.4249 C   0  0  1  0  0  0  0  0  0  0  0  0
   -0.3486   -1.3029   -1.4175 C   0  0  0  0  0  0  0  0  0  0  0  0
   -2.3492   -0.0569   -0.3958 C   0  0  0  0  0  0  0  0  0  0  0  0
   -1.6412    0.4718   -2.7773 C   0  0  0  0  0  0  0  0  0  0  0  0
    1.5894   -0.8675   -0.0016 C   0  0  0  0  0  0  0  0  0  0  0  0
   -2.4257    0.8827    0.6325 C   0  0  0  0  0  0  0  0  0  0  0  0
   -3.3224   -1.0499   -0.5068 C   0  0  0  0  0  0  0  0  0  0  0  0
    2.6487   -0.0117    0.3005 C   0  0  0  0  0  0  0  0  0  0  0  0
    1.4096   -2.0406    0.7316 C   0  0  0  0  0  0  0  0  0  0  0  0
   -3.4756    0.8291    1.5494 C   0  0  0  0  0  0  0  0  0  0  0  0
   -4.3722   -1.1034    0.4103 C   0  0  0  0  0  0  0  0  0  0  0  0
    3.5281   -0.3291    1.3359 C   0  0  0  0  0  0  0  0  0  0  0  0
   -4.4487   -0.1641    1.4384 C   0  0  0  0  0  0  0  0  0  0  0  0
    2.8658    1.2513   -0.4678 C   0  0  0  0  0  0  0  0  0  0  0  0
    2.2889   -2.3577    1.7668 C   0  0  0  0  0  0  0  0  0  0  0  0
    3.3481   -1.5021    2.0689 C   0  0  0  0  0  0  0  0  0  0  0  0
   -1.6362    2.7778    1.8330 C   0  0  0  0  0  0  0  0  0  0  0  0
   -0.8079    0.5136   -3.4883 H   0  0  0  0  0  0  0  0  0  0  0  0
   -2.0654    1.4804   -2.7173 H   0  0  0  0  0  0  0  0  0  0  0  0
   -2.4007   -0.1877   -3.2113 H   0  0  0  0  0  0  0  0  0  0  0  0
   -3.2804   -1.7862   -1.3046 H   0  0  0  0  0  0  0  0  0  0  0  0
    0.5941   -2.7318    0.5471 H   0  0  0  0  0  0  0  0  0  0  0  0
   -3.5999    1.5241    2.3726 H   0  0  0  0  0  0  0  0  0  0  0  0
   -5.1306   -1.8759    0.3230 H   0  0  0  0  0  0  0  0  0  0  0  0
    4.3599    0.3226    1.5889 H   0  0  0  0  0  0  0  0  0  0  0  0
   -5.2668   -0.2068    2.1517 H   0  0  0  0  0  0  0  0  0  0  0  0
    2.1473   -3.2692    2.3404 H   0  0  0  0  0  0  0  0  0  0  0  0
    4.0321   -1.7490    2.8757 H   0  0  0  0  0  0  0  0  0  0  0  0
   -0.7992    3.4817    1.7768 H   0  0  0  0  0  0  0  0  0  0  0  0
   -1.5642    2.2761    2.8040 H   0  0  0  0  0  0  0  0  0  0  0  0
   -2.5542    3.3670    1.7339 H   0  0  0  0  0  0  0  0  0  0  0  0
  1 21  1  0  0  0  0
  2 21  1  0  0  0  0
  3 21  1  0  0  0  0
  4  7  1  0  0  0  0
  4  8  1  0  0  0  0
  5  9  2  0  0  0  0
  6 13  1  0  0  0  0
  6 24  1  0  0  0  0
  7  9  1  0  0  0  0
  7 12  1  0  0  0  0
  8  9  1  0  0  0  0
  8 10  1  0  0  0  0
  8 11  1  0  0  0  0
 10 13  1  0  0  0  0
 10 14  2  0  0  0  0
 11 25  1  0  0  0  0
 11 26  1  0  0  0  0
 11 27  1  0  0  0  0
 12 15  1  0  0  0  0
 12 16  2  0  0  0  0
 13 17  2  0  0  0  0
 14 18  1  0  0  0  0
 14 28  1  0  0  0  0
 15 19  2  0  0  0  0
 15 21  1  0  0  0  0
 16 22  1  0  0  0  0
 16 29  1  0  0  0  0
 17 20  1  0  0  0  0
 17 30  1  0  0  0  0
 18 20  2  0  0  0  0
 18 31  1  0  0  0  0
 19 23  1  0  0  0  0
 19 32  1  0  0  0  0
 20 33  1  0  0  0  0
 22 23  2  0  0  0  0
 22 34  1  0  0  0  0
 23 35  1  0  0  0  0
 24 36  1  0  0  0  0
 24 37  1  0  0  0  0
 24 38  1  0  0  0  0
M  END
> <PUBCHEM_COMPOUND_CID>
42601261

> <PUBCHEM_CONFORMER_RMSD>
0.8

> <PUBCHEM_CONFORMER_DIVERSEORDER>
1
11
25
15
5
16
26
13
12
17
14
23
21
22
18
27
10
3
8
19
24
4
6
2
9
7
20

> <PUBCHEM_MMFF94_PARTIAL_CHARGES>
31
1 -0.34
10 -0.11
12 0.12
13 0.08
14 -0.15
15 -0.14
16 -0.15
17 -0.15
18 -0.15
19 -0.15
2 -0.34
20 -0.15
21 1.16
22 -0.15
23 -0.15
24 0.28
28 0.15
29 0.15
3 -0.34
30 0.15
31 0.15
32 0.15
33 0.15
34 0.15
35 0.15
4 -0.29
5 -0.57
6 -0.36
7 -0.14
8 0.42
9 0.58

> <PUBCHEM_EFFECTIVE_ROTOR_COUNT>
4.6

> <PUBCHEM_PHARMACOPHORE_FEATURES>
5
1 5 acceptor
1 6 acceptor
4 4 7 8 9 rings
6 10 13 14 17 18 20 rings
6 12 15 16 19 22 23 rings

> <PUBCHEM_HEAVY_ATOM_COUNT>
24

> <PUBCHEM_ATOM_DEF_STEREO_COUNT>
1

> <PUBCHEM_ATOM_UDEF_STEREO_COUNT>
0

> <PUBCHEM_BOND_DEF_STEREO_COUNT>
0

> <PUBCHEM_BOND_UDEF_STEREO_COUNT>
0

> <PUBCHEM_ISOTOPIC_ATOM_COUNT>
0

> <PUBCHEM_COMPONENT_COUNT>
1

> <PUBCHEM_CACTVS_TAUTO_COUNT>
1

> <PUBCHEM_CONFORMER_ID>
028A0B2D00000001

> <PUBCHEM_MMFF94_ENERGY>
84.3186

> <PUBCHEM_FEATURE_SELFOVERLAP>
25.373

> <PUBCHEM_SHAPE_FINGERPRINT>
10366900 7 16805326587054459162
10369192 42 13899626463902756922
10498660 4 17775570823286779081
105312 117 13180730538963262610
11578080 2 17677337100049758589
12202030 40 16153983526564053650
12363563 72 15502384400239290907
12633257 1 18044098943089970593
128993 33 16630249095574013921
13224815 77 17418088793880689597
13544653 18 16660363692778178119
13583140 156 18113611331123985109
13965767 371 17984705515253928952
14223421 5 18336551512558856591
14289901 80 17603867827417630149
14341114 328 18341058483957205011
14386348 128 16630250203744128377
14787075 74 17689162630957954407
14955137 171 18336825283008160986
16945 1 18041286581482695735
18981168 100 16414906431675106525
20197701 30 13338165210323458158
20600515 1 15977438384845366023
20715895 44 17906448828131786801
21756936 100 18059291075898027528
229495 10 18041826402826296621
23419403 2 14636828136590444311
23557571 272 15049726561242416845
23559900 14 17841730516905105575
2637199 183 18200894944913698150
3286 77 17458059326963101658
3797600 57 18339653337718572986
392239 28 18050298260077149041
469060 322 17245250152597518191
484985 159 16524110845769535138
59755656 520 18117282665184770932
6442390 28 16056879169557320319
7097593 13 17976260140676335523
7288768 16 17689713486389673536
81228 2 16414044556661973919
8988823 20 18186521021151451267

> <PUBCHEM_SHAPE_MULTIPOLES>
449.5
7.42
2.47
2.25
1.22
0.38
0.49
-0.39
-3.56
-1.1
-0.69
0.52
0.08
-1.81

> <PUBCHEM_SHAPE_SELFOVERLAP>
986.051

> <PUBCHEM_SHAPE_VOLUME>
244.6

> <PUBCHEM_COORDINATE_TYPE>
2
5
10

$$$$
