1348232
  -OEChem-01171810183D

 51 53  0     0  0  0  0  0  0999 V2000
   -3.8096   -0.8962   -1.2484 S   0  0  0  0  0  0  0  0  0  0  0  0
   -2.0364   -0.8353    2.1349 O   0  0  0  0  0  0  0  0  0  0  0  0
   -1.7262   -2.0588   -2.3514 O   0  0  0  0  0  0  0  0  0  0  0  0
    3.0145    0.6198   -0.2945 O   0  0  0  0  0  0  0  0  0  0  0  0
   -9.6310    1.7818   -0.6424 O   0  0  0  0  0  0  0  0  0  0  0  0
   10.5743    0.6608    0.1364 O   0  0  0  0  0  0  0  0  0  0  0  0
    9.7049    2.6939   -0.3901 O   0  0  0  0  0  0  0  0  0  0  0  0
   -1.6178   -1.5655   -0.0577 N   0  0  0  0  0  0  0  0  0  0  0  0
    4.5393   -1.0985    0.1941 N   0  0  0  0  0  0  0  0  0  0  0  0
   -0.2969   -2.0877    0.1617 C   0  0  0  0  0  0  0  0  0  0  0  0
    0.7891   -1.0362   -0.0395 C   0  0  0  0  0  0  0  0  0  0  0  0
    2.1953   -1.5975    0.1739 C   0  0  0  0  0  0  0  0  0  0  0  0
   -2.3700   -0.9816    0.9670 C   0  0  0  0  0  0  0  0  0  0  0  0
   -3.6803   -0.5435    0.4283 C   0  0  0  0  0  0  0  0  0  0  0  0
   -2.2030   -1.6093   -1.3197 C   0  0  0  0  0  0  0  0  0  0  0  0
    3.2790   -0.5435   -0.0093 C   0  0  0  0  0  0  0  0  0  0  0  0
   -4.6191    0.0464    1.1697 C   0  0  0  0  0  0  0  0  0  0  0  0
   -5.9377    0.5030    0.6923 C   0  0  0  0  0  0  0  0  0  0  0  0
    5.7925   -0.4459    0.1146 C   0  0  0  0  0  0  0  0  0  0  0  0
   -6.0782    1.8005    0.2295 C   0  0  0  0  0  0  0  0  0  0  0  0
   -7.0079   -0.3754    0.7176 C   0  0  0  0  0  0  0  0  0  0  0  0
    5.8361    0.9026   -0.1983 C   0  0  0  0  0  0  0  0  0  0  0  0
    6.9490   -1.1701    0.3513 C   0  0  0  0  0  0  0  0  0  0  0  0
    7.0716    1.5454   -0.2768 C   0  0  0  0  0  0  0  0  0  0  0  0
    8.1846   -0.5274    0.2730 C   0  0  0  0  0  0  0  0  0  0  0  0
    8.2458    0.8304   -0.0411 C   0  0  0  0  0  0  0  0  0  0  0  0
   -7.3256    2.2322   -0.2213 C   0  0  0  0  0  0  0  0  0  0  0  0
   -8.2553    0.0565    0.2666 C   0  0  0  0  0  0  0  0  0  0  0  0
   -8.4141    1.3602   -0.2028 C   0  0  0  0  0  0  0  0  0  0  0  0
    9.5340    1.5001   -0.1217 C   0  0  0  0  0  0  0  0  0  0  0  0
  -10.7010    0.8388   -0.5959 C   0  0  0  0  0  0  0  0  0  0  0  0
   -0.1271   -2.9261   -0.5239 H   0  0  0  0  0  0  0  0  0  0  0  0
   -0.2400   -2.4784    1.1845 H   0  0  0  0  0  0  0  0  0  0  0  0
    0.7121   -0.6170   -1.0512 H   0  0  0  0  0  0  0  0  0  0  0  0
    0.6189   -0.1978    0.6483 H   0  0  0  0  0  0  0  0  0  0  0  0
    2.3824   -2.4112   -0.5368 H   0  0  0  0  0  0  0  0  0  0  0  0
    2.2821   -2.0061    1.1878 H   0  0  0  0  0  0  0  0  0  0  0  0
   -4.4456    0.2310    2.2277 H   0  0  0  0  0  0  0  0  0  0  0  0
    4.5820   -2.0884    0.4276 H   0  0  0  0  0  0  0  0  0  0  0  0
   -5.2378    2.4892    0.2108 H   0  0  0  0  0  0  0  0  0  0  0  0
   -6.8957   -1.3931    1.0822 H   0  0  0  0  0  0  0  0  0  0  0  0
    4.9742    1.5231   -0.3937 H   0  0  0  0  0  0  0  0  0  0  0  0
    6.9119   -2.2278    0.5965 H   0  0  0  0  0  0  0  0  0  0  0  0
    7.0993    2.6039   -0.5226 H   0  0  0  0  0  0  0  0  0  0  0  0
    9.0736   -1.1219    0.4639 H   0  0  0  0  0  0  0  0  0  0  0  0
   -7.4433    3.2491   -0.5858 H   0  0  0  0  0  0  0  0  0  0  0  0
   -9.0576   -0.6722    0.3088 H   0  0  0  0  0  0  0  0  0  0  0  0
  -10.5099   -0.0191   -1.2494 H   0  0  0  0  0  0  0  0  0  0  0  0
  -11.5929    1.3427   -0.9826 H   0  0  0  0  0  0  0  0  0  0  0  0
  -10.9257    0.5356    0.4323 H   0  0  0  0  0  0  0  0  0  0  0  0
   11.4381    1.1223    0.0800 H   0  0  0  0  0  0  0  0  0  0  0  0
  1 14  1  0  0  0  0
  1 15  1  0  0  0  0
  2 13  2  0  0  0  0
  3 15  2  0  0  0  0
  4 16  2  0  0  0  0
  5 29  1  0  0  0  0
  5 31  1  0  0  0  0
  6 30  1  0  0  0  0
  6 51  1  0  0  0  0
  7 30  2  0  0  0  0
  8 10  1  0  0  0  0
  8 13  1  0  0  0  0
  8 15  1  0  0  0  0
  9 16  1  0  0  0  0
  9 19  1  0  0  0  0
  9 39  1  0  0  0  0
 10 11  1  0  0  0  0
 10 32  1  0  0  0  0
 10 33  1  0  0  0  0
 11 12  1  0  0  0  0
 11 34  1  0  0  0  0
 11 35  1  0  0  0  0
 12 16  1  0  0  0  0
 12 36  1  0  0  0  0
 12 37  1  0  0  0  0
 13 14  1  0  0  0  0
 14 17  2  0  0  0  0
 17 18  1  0  0  0  0
 17 38  1  0  0  0  0
 18 20  2  0  0  0  0
 18 21  1  0  0  0  0
 19 22  2  0  0  0  0
 19 23  1  0  0  0  0
 20 27  1  0  0  0  0
 20 40  1  0  0  0  0
 21 28  2  0  0  0  0
 21 41  1  0  0  0  0
 22 24  1  0  0  0  0
 22 42  1  0  0  0  0
 23 25  2  0  0  0  0
 23 43  1  0  0  0  0
 24 26  2  0  0  0  0
 24 44  1  0  0  0  0
 25 26  1  0  0  0  0
 25 45  1  0  0  0  0
 26 30  1  0  0  0  0
 27 29  2  0  0  0  0
 27 46  1  0  0  0  0
 28 29  1  0  0  0  0
 28 47  1  0  0  0  0
 31 48  1  0  0  0  0
 31 49  1  0  0  0  0
 31 50  1  0  0  0  0
M  END
> <PUBCHEM_COMPOUND_CID>
1348232

> <PUBCHEM_CONFORMER_RMSD>
1

> <PUBCHEM_CONFORMER_DIVERSEORDER>
1
35
4
14
50
61
40
17
19
57
49
11
25
27
12
29
52
28
33
18
58
2
43
5
6
53
37
20
16
32
47
8
26
59
23
51
42
21
38
55
31
24
41
7
30
39
15
60
36
54
34
48
46
45
44
3
13
9
56
10
22

> <PUBCHEM_MMFF94_PARTIAL_CHARGES>
41
1 -0.24
10 0.3
12 0.06
13 0.62
14 0.12
15 0.77
16 0.57
17 -0.18
18 0.03
19 0.12
2 -0.57
20 -0.15
21 -0.15
22 -0.15
23 -0.15
24 -0.15
25 -0.15
26 0.09
27 -0.15
28 -0.15
29 0.08
3 -0.57
30 0.63
31 0.28
38 0.15
39 0.37
4 -0.57
40 0.15
41 0.15
42 0.15
43 0.15
44 0.15
45 0.15
46 0.15
47 0.15
5 -0.36
51 0.5
6 -0.65
7 -0.57
8 -0.42
9 -0.55

> <PUBCHEM_EFFECTIVE_ROTOR_COUNT>
9.4

> <PUBCHEM_PHARMACOPHORE_FEATURES>
10
1 2 acceptor
1 4 acceptor
1 5 acceptor
1 6 acceptor
1 7 acceptor
1 9 donor
3 6 7 30 anion
5 1 8 13 14 15 rings
6 18 20 21 27 28 29 rings
6 19 22 23 24 25 26 rings

> <PUBCHEM_HEAVY_ATOM_COUNT>
31

> <PUBCHEM_ATOM_DEF_STEREO_COUNT>
0

> <PUBCHEM_ATOM_UDEF_STEREO_COUNT>
0

> <PUBCHEM_BOND_DEF_STEREO_COUNT>
1

> <PUBCHEM_BOND_UDEF_STEREO_COUNT>
0

> <PUBCHEM_ISOTOPIC_ATOM_COUNT>
0

> <PUBCHEM_COMPONENT_COUNT>
1

> <PUBCHEM_CACTVS_TAUTO_COUNT>
3

> <PUBCHEM_CONFORMER_ID>
0014928800000001

> <PUBCHEM_MMFF94_ENERGY>
83.8657

> <PUBCHEM_FEATURE_SELFOVERLAP>
50.806

> <PUBCHEM_SHAPE_FINGERPRINT>
10 15 18040998431704989043
10076449 9 13183019618850268747
10429389 143 18335701603762946933
10533779 47 16009316383999156337
10625338 86 17095235913119618389
10904742 90 18409166601842221363
10930396 42 16443062803597945117
11135609 99 8574419929050260896
11672396 167 8718244829979613577
13383668 90 13326853310881181977
13530399 1 18189622804079887772
13668630 136 10447931650950771010
14118638 360 16128385826211789458
14150022 121 16371001859437872461
14251920 17 18335420167704517073
14344974 52 17346590915437902499
15198563 99 15267065788350248483
15274700 256 18262238941239261419
15347590 135 15357972352703768048
15461852 350 17418372536310340047
155225 1 18410292502128404265
1577012 14 18343014506611625462
15840311 113 18260833675094550798
15890870 6 18413388730723817297
16087824 20 18408323290221099132
16989713 51 17345182497527111615
17899979 19 18413111654253249257
1818759 1 8718829791017440720
18643901 69 12247678266903372889
2026 5 10447662275166549596
20505436 4 18411693283715886598
20609170 92 17346605175220540815
20771845 65 8718536225339559267
21267235 1 9151172047761663122
21895431 317 12535082876070263132
23576562 1 16199570519717860433
249057 3 16917063382174193595
306946 40 17095514064814827093
3103668 31 15840120399348876455
3178227 256 13912327889256813954
335352 9 17418372497882195123
3711267 37 18339092548640831072
395649 100 18334293215473418339
44280117 145 18043818791000928931
44389302 135 12612746922383838792
4461854 278 13479136800308523536
4516262 110 18411415085793311639
4760202 170 17846212311400915376
5470011 282 11023816280525560354
5719381 82 9799692593105106116
57828716 72 18113891643241102333
6058803 2 14493613393062474875
6201320 82 17915756275644457289
636775 72 18260831467196945901
636775 8 11959728279122932937
6673363 416 18131913755100598505
6691757 9 16845583045159194831
9937071 3 11025792103210914736
9953998 17 16950285126466706307
9962374 69 13623823772869048563

> <PUBCHEM_SHAPE_MULTIPOLES>
596.64
39.96
2.2
1.14
25.27
0.53
-0.15
30.03
-1.93
0.5
-0.47
-1.5
-0.52
-0.44

> <PUBCHEM_SHAPE_SELFOVERLAP>
1266.663

> <PUBCHEM_SHAPE_VOLUME>
333.7

> <PUBCHEM_COORDINATE_TYPE>
2
5
10

$$$$
