2361547
  -OEChem-01171810123D

 51 53  0     0  0  0  0  0  0999 V2000
    6.8147    4.2045   -0.3111 Cl  0  0  0  0  0  0  0  0  0  0  0  0
   -3.7138   -0.7162   -1.3580 S   0  0  0  0  0  0  0  0  0  0  0  0
   -1.9106   -0.9167    2.0040 O   0  0  0  0  0  0  0  0  0  0  0  0
    2.9757    1.2292   -0.2433 O   0  0  0  0  0  0  0  0  0  0  0  0
   -1.5564   -1.5630   -2.5978 O   0  0  0  0  0  0  0  0  0  0  0  0
   -9.7257    1.3827   -0.4204 O   0  0  0  0  0  0  0  0  0  0  0  0
    8.3433   -2.2022   -0.1806 O   0  0  0  0  0  0  0  0  0  0  0  0
    6.3368   -2.4468    0.8591 O   0  0  0  0  0  0  0  0  0  0  0  0
   -1.4607   -1.3415   -0.2616 N   0  0  0  0  0  0  0  0  0  0  0  0
    4.6408   -0.4044    0.0310 N   0  0  0  0  0  0  0  0  0  0  0  0
    0.8954   -0.6224   -0.1850 C   0  0  0  0  0  0  0  0  0  0  0  0
   -0.0991   -1.7761   -0.1097 C   0  0  0  0  0  0  0  0  0  0  0  0
    2.3450   -1.0880   -0.0440 C   0  0  0  0  0  0  0  0  0  0  0  0
   -2.2453   -0.9486    0.8277 C   0  0  0  0  0  0  0  0  0  0  0  0
    3.3372    0.0658   -0.1012 C   0  0  0  0  0  0  0  0  0  0  0  0
   -2.0555   -1.2813   -1.5184 C   0  0  0  0  0  0  0  0  0  0  0  0
   -3.5933   -0.5580    0.3487 C   0  0  0  0  0  0  0  0  0  0  0  0
   -4.5678   -0.1405    1.1580 C   0  0  0  0  0  0  0  0  0  0  0  0
    5.8358    0.3538    0.0280 C   0  0  0  0  0  0  0  0  0  0  0  0
   -5.9249    0.2604    0.7421 C   0  0  0  0  0  0  0  0  0  0  0  0
    7.0635   -0.2734    0.1716 C   0  0  0  0  0  0  0  0  0  0  0  0
    5.7439    1.7291   -0.1213 C   0  0  0  0  0  0  0  0  0  0  0  0
   -6.1759    1.5881    0.4396 C   0  0  0  0  0  0  0  0  0  0  0  0
   -6.9198   -0.6996    0.6636 C   0  0  0  0  0  0  0  0  0  0  0  0
    8.2285    0.4933    0.1657 C   0  0  0  0  0  0  0  0  0  0  0  0
    6.9090    2.4960   -0.1271 C   0  0  0  0  0  0  0  0  0  0  0  0
   -7.4596    1.9670    0.0469 C   0  0  0  0  0  0  0  0  0  0  0  0
   -8.2035   -0.3205    0.2708 C   0  0  0  0  0  0  0  0  0  0  0  0
    8.1513    1.8781    0.0164 C   0  0  0  0  0  0  0  0  0  0  0  0
   -8.4734    1.0127   -0.0375 C   0  0  0  0  0  0  0  0  0  0  0  0
    7.1793   -1.7178    0.3295 C   0  0  0  0  0  0  0  0  0  0  0  0
  -10.7149    0.3564   -0.4856 C   0  0  0  0  0  0  0  0  0  0  0  0
    0.7724   -0.0925   -1.1385 H   0  0  0  0  0  0  0  0  0  0  0  0
    0.6660    0.1105    0.5993 H   0  0  0  0  0  0  0  0  0  0  0  0
    0.1299   -2.5093   -0.8920 H   0  0  0  0  0  0  0  0  0  0  0  0
    0.0017   -2.2807    0.8582 H   0  0  0  0  0  0  0  0  0  0  0  0
    2.5890   -1.7924   -0.8482 H   0  0  0  0  0  0  0  0  0  0  0  0
    2.4770   -1.6070    0.9130 H   0  0  0  0  0  0  0  0  0  0  0  0
    4.7539   -1.4088    0.1396 H   0  0  0  0  0  0  0  0  0  0  0  0
   -4.3971   -0.0707    2.2302 H   0  0  0  0  0  0  0  0  0  0  0  0
    4.8192    2.2734   -0.2373 H   0  0  0  0  0  0  0  0  0  0  0  0
   -5.3945    2.3408    0.5023 H   0  0  0  0  0  0  0  0  0  0  0  0
   -6.7209   -1.7410    0.9024 H   0  0  0  0  0  0  0  0  0  0  0  0
    9.2109    0.0446    0.2889 H   0  0  0  0  0  0  0  0  0  0  0  0
   -7.6639    3.0072   -0.1919 H   0  0  0  0  0  0  0  0  0  0  0  0
   -8.9434   -1.1124    0.2265 H   0  0  0  0  0  0  0  0  0  0  0  0
    9.0672    2.4636    0.0167 H   0  0  0  0  0  0  0  0  0  0  0  0
    8.4135   -3.1745   -0.0708 H   0  0  0  0  0  0  0  0  0  0  0  0
  -10.4627   -0.3983   -1.2383 H   0  0  0  0  0  0  0  0  0  0  0  0
  -11.6494    0.8281   -0.8067 H   0  0  0  0  0  0  0  0  0  0  0  0
  -10.9018   -0.0855    0.4990 H   0  0  0  0  0  0  0  0  0  0  0  0
  1 26  1  0  0  0  0
  2 16  1  0  0  0  0
  2 17  1  0  0  0  0
  3 14  2  0  0  0  0
  4 15  2  0  0  0  0
  5 16  2  0  0  0  0
  6 30  1  0  0  0  0
  6 32  1  0  0  0  0
  7 31  1  0  0  0  0
  7 48  1  0  0  0  0
  8 31  2  0  0  0  0
  9 12  1  0  0  0  0
  9 14  1  0  0  0  0
  9 16  1  0  0  0  0
 10 15  1  0  0  0  0
 10 19  1  0  0  0  0
 10 39  1  0  0  0  0
 11 12  1  0  0  0  0
 11 13  1  0  0  0  0
 11 33  1  0  0  0  0
 11 34  1  0  0  0  0
 12 35  1  0  0  0  0
 12 36  1  0  0  0  0
 13 15  1  0  0  0  0
 13 37  1  0  0  0  0
 13 38  1  0  0  0  0
 14 17  1  0  0  0  0
 17 18  2  0  0  0  0
 18 20  1  0  0  0  0
 18 40  1  0  0  0  0
 19 21  2  0  0  0  0
 19 22  1  0  0  0  0
 20 23  2  0  0  0  0
 20 24  1  0  0  0  0
 21 25  1  0  0  0  0
 21 31  1  0  0  0  0
 22 26  2  0  0  0  0
 22 41  1  0  0  0  0
 23 27  1  0  0  0  0
 23 42  1  0  0  0  0
 24 28  2  0  0  0  0
 24 43  1  0  0  0  0
 25 29  2  0  0  0  0
 25 44  1  0  0  0  0
 26 29  1  0  0  0  0
 27 30  2  0  0  0  0
 27 45  1  0  0  0  0
 28 30  1  0  0  0  0
 28 46  1  0  0  0  0
 29 47  1  0  0  0  0
 32 49  1  0  0  0  0
 32 50  1  0  0  0  0
 32 51  1  0  0  0  0
M  END
> <PUBCHEM_COMPOUND_CID>
2361547

> <PUBCHEM_CONFORMER_RMSD>
1

> <PUBCHEM_CONFORMER_DIVERSEORDER>
1
56
79
55
95
158
113
27
60
148
161
97
144
107
3
10
118
16
59
133
121
57
54
153
38
73
6
154
91
123
44
78
53
99
63
66
103
88
130
85
84
7
61
42
137
11
152
71
131
102
2
15
115
49
37
159
36
143
139
80
75
146
94
101
5
136
87
70
96
151
126
77
20
62
31
4
106
33
109
114
82
28
13
9
105
117
22
156
68
41
8
45
76
74
116
128
149
92
150
124
98
72
147
67
40
69
86
134
52
160
23
30
141
90
48
155
43
89
81
145
125
35
18
51
157
135
26
12
25
100
65
46
111
19
142
14
108
32
17
140
122
29
110
24
120
119
112
21
104
39
50
138
64
47
83
93
34
129
162
58
132
127

> <PUBCHEM_MMFF94_PARTIAL_CHARGES>
41
1 -0.18
10 -0.55
12 0.3
13 0.06
14 0.62
15 0.57
16 0.77
17 0.12
18 -0.18
19 0.12
2 -0.24
20 0.03
21 0.09
22 -0.15
23 -0.15
24 -0.15
25 -0.15
26 0.18
27 -0.15
28 -0.15
29 -0.15
3 -0.57
30 0.08
31 0.63
32 0.28
39 0.37
4 -0.57
40 0.15
41 0.15
42 0.15
43 0.15
44 0.15
45 0.15
46 0.15
47 0.15
48 0.5
5 -0.57
6 -0.36
7 -0.65
8 -0.57
9 -0.42

> <PUBCHEM_EFFECTIVE_ROTOR_COUNT>
9.4

> <PUBCHEM_PHARMACOPHORE_FEATURES>
10
1 10 donor
1 3 acceptor
1 4 acceptor
1 6 acceptor
1 7 acceptor
1 8 acceptor
3 7 8 31 anion
5 2 9 14 16 17 rings
6 19 21 22 25 26 29 rings
6 20 23 24 27 28 30 rings

> <PUBCHEM_HEAVY_ATOM_COUNT>
32

> <PUBCHEM_ATOM_DEF_STEREO_COUNT>
0

> <PUBCHEM_ATOM_UDEF_STEREO_COUNT>
0

> <PUBCHEM_BOND_DEF_STEREO_COUNT>
1

> <PUBCHEM_BOND_UDEF_STEREO_COUNT>
0

> <PUBCHEM_ISOTOPIC_ATOM_COUNT>
0

> <PUBCHEM_COMPONENT_COUNT>
1

> <PUBCHEM_CACTVS_TAUTO_COUNT>
3

> <PUBCHEM_CONFORMER_ID>
002408CB00000001

> <PUBCHEM_MMFF94_ENERGY>
88.0138

> <PUBCHEM_FEATURE_SELFOVERLAP>
50.806

> <PUBCHEM_SHAPE_FINGERPRINT>
10 15 18408041810442453679
10076449 9 15051733089097408715
10904742 90 18411136935416758483
11181472 205 18200884984905721992
12013929 2 18260269612417694962
12522641 24 17822568310198708658
12539745 222 10737279144471651031
12664476 115 17675925396508557246
14118638 360 15769508537998697011
14347424 109 18407476661919399392
15131766 46 18124312972545606220
15183329 4 16630532842905097530
15276724 80 18410006650738768716
15289351 153 18336824191210625328
15301273 46 17385725781091951379
15461852 350 17703788159133038559
1577012 14 18201716293048092638
15840311 113 18334860524264023388
16120349 18 18410572881898841602
16758388 162 18335130969938596608
16989713 51 17059205033654024287
1818759 1 7925918083836409305
2026 5 10735338492815092932
20505436 4 18341887502561045527
20691028 202 18265897041751427392
21591340 7 18341891896749523135
21781055 127 16588882156786231079
21792934 111 17676487241648075133
23576562 1 17488170677562367289
249057 3 16415474978155355689
306946 40 17313374610225627885
395649 100 18336825395115673551
4874694 18 16128657458236275302
5219985 9 12973888121896137287
54039377 194 9223224157975296601
6058803 2 15694372191856653411
636775 72 18335140848691385757
9953998 17 17530966904399564123
9962374 69 13912614904657213507

> <PUBCHEM_SHAPE_MULTIPOLES>
619.09
36.61
2.78
1.16
19.81
2.16
0.34
17.02
-1.28
-6.94
0.26
1.32
-0.54
-0.93

> <PUBCHEM_SHAPE_SELFOVERLAP>
1306.836

> <PUBCHEM_SHAPE_VOLUME>
349.5

> <PUBCHEM_COORDINATE_TYPE>
2
5
10

$$$$
