6262747
  -OEChem-01171809383D

 40 41  0     1  0  0  0  0  0999 V2000
   -2.9960   -2.2222   -0.1857 F   0  0  0  0  0  0  0  0  0  0  0  0
    0.7710   -0.2912    2.2690 O   0  0  0  0  0  0  0  0  0  0  0  0
    1.9061    0.1789    0.3126 N   0  0  0  0  0  0  0  0  0  0  0  0
   -0.5363    0.7527   -2.2114 N   0  0  0  0  0  0  0  0  0  0  0  0
    4.2495    1.0046    0.1789 C   0  0  1  0  0  0  0  0  0  0  0  0
    3.2366    0.0655    0.8681 C   0  0  2  0  0  0  0  0  0  0  0  0
    4.5825    0.5416   -1.2479 C   0  0  0  0  0  0  0  0  0  0  0  0
    3.7120   -1.3911    0.8157 C   0  0  0  0  0  0  0  0  0  0  0  0
    5.0507   -0.9115   -1.2735 C   0  0  0  0  0  0  0  0  0  0  0  0
    4.0477   -1.8456   -0.6045 C   0  0  0  0  0  0  0  0  0  0  0  0
    3.7878    2.4632    0.1813 C   0  0  0  0  0  0  0  0  0  0  0  0
    0.7615   -0.0119    1.0710 C   0  0  0  0  0  0  0  0  0  0  0  0
   -0.5274    0.1565    0.3072 C   0  0  0  0  0  0  0  0  0  0  0  0
   -1.6686   -0.0400    0.9962 C   0  0  0  0  0  0  0  0  0  0  0  0
   -3.0292    0.0692    0.4475 C   0  0  0  0  0  0  0  0  0  0  0  0
   -0.5347    0.4856   -1.0821 C   0  0  0  0  0  0  0  0  0  0  0  0
   -3.6308   -1.0427   -0.1223 C   0  0  0  0  0  0  0  0  0  0  0  0
   -3.6880    1.2880    0.5111 C   0  0  0  0  0  0  0  0  0  0  0  0
   -4.9211   -0.9334   -0.6408 C   0  0  0  0  0  0  0  0  0  0  0  0
   -4.9784    1.3974   -0.0072 C   0  0  0  0  0  0  0  0  0  0  0  0
   -5.5949    0.2866   -0.5832 C   0  0  0  0  0  0  0  0  0  0  0  0
    5.1807    0.9618    0.7616 H   0  0  0  0  0  0  0  0  0  0  0  0
    3.1720    0.3553    1.9251 H   0  0  0  0  0  0  0  0  0  0  0  0
    5.3698    1.1779   -1.6703 H   0  0  0  0  0  0  0  0  0  0  0  0
    3.7077    0.6534   -1.9001 H   0  0  0  0  0  0  0  0  0  0  0  0
    2.9552   -2.0613    1.2408 H   0  0  0  0  0  0  0  0  0  0  0  0
    4.6096   -1.4948    1.4389 H   0  0  0  0  0  0  0  0  0  0  0  0
    6.0177   -0.9902   -0.7615 H   0  0  0  0  0  0  0  0  0  0  0  0
    5.2136   -1.2274   -2.3102 H   0  0  0  0  0  0  0  0  0  0  0  0
    3.1312   -1.8894   -1.2055 H   0  0  0  0  0  0  0  0  0  0  0  0
    4.4561   -2.8623   -0.5765 H   0  0  0  0  0  0  0  0  0  0  0  0
    4.5761    3.1158   -0.2090 H   0  0  0  0  0  0  0  0  0  0  0  0
    2.8980    2.6100   -0.4396 H   0  0  0  0  0  0  0  0  0  0  0  0
    3.5534    2.7945    1.1984 H   0  0  0  0  0  0  0  0  0  0  0  0
    1.8329    0.3546   -0.6837 H   0  0  0  0  0  0  0  0  0  0  0  0
   -1.6540   -0.2983    2.0527 H   0  0  0  0  0  0  0  0  0  0  0  0
   -3.2190    2.1609    0.9577 H   0  0  0  0  0  0  0  0  0  0  0  0
   -5.4010   -1.7982   -1.0894 H   0  0  0  0  0  0  0  0  0  0  0  0
   -5.5031    2.3472    0.0377 H   0  0  0  0  0  0  0  0  0  0  0  0
   -6.5995    0.3717   -0.9870 H   0  0  0  0  0  0  0  0  0  0  0  0
  1 17  1  0  0  0  0
  2 12  2  0  0  0  0
  3  6  1  0  0  0  0
  3 12  1  0  0  0  0
  3 35  1  0  0  0  0
  4 16  3  0  0  0  0
  5  6  1  0  0  0  0
  5  7  1  0  0  0  0
  5 11  1  0  0  0  0
  5 22  1  0  0  0  0
  6  8  1  0  0  0  0
  6 23  1  0  0  0  0
  7  9  1  0  0  0  0
  7 24  1  0  0  0  0
  7 25  1  0  0  0  0
  8 10  1  0  0  0  0
  8 26  1  0  0  0  0
  8 27  1  0  0  0  0
  9 10  1  0  0  0  0
  9 28  1  0  0  0  0
  9 29  1  0  0  0  0
 10 30  1  0  0  0  0
 10 31  1  0  0  0  0
 11 32  1  0  0  0  0
 11 33  1  0  0  0  0
 11 34  1  0  0  0  0
 12 13  1  0  0  0  0
 13 14  2  0  0  0  0
 13 16  1  0  0  0  0
 14 15  1  0  0  0  0
 14 36  1  0  0  0  0
 15 17  1  0  0  0  0
 15 18  2  0  0  0  0
 17 19  2  0  0  0  0
 18 20  1  0  0  0  0
 18 37  1  0  0  0  0
 19 21  1  0  0  0  0
 19 38  1  0  0  0  0
 20 21  2  0  0  0  0
 20 39  1  0  0  0  0
 21 40  1  0  0  0  0
M  END
> <PUBCHEM_COMPOUND_CID>
6262747

> <PUBCHEM_CONFORMER_RMSD>
0.8

> <PUBCHEM_CONFORMER_DIVERSEORDER>
1
110
35
79
56
112
50
37
17
51
4
104
73
67
78
69
18
48
53
103
3
94
11
108
9
46
106
33
98
52
84
80
83
60
62
22
66
43
82
100
107
91
47
12
10
81
109
71
87
55
27
34
36
45
28
96
61
49
90
111
23
26
105
76
41
32
89
70
97
93
68
86
74
29
58
54
6
44
42
63
77
95
38
57
7
16
85
99
15
92
39
13
24
8
88
21
101
5
30
31
2
75
14
20
65
59
64
40
102
25
19
72

> <PUBCHEM_MMFF94_PARTIAL_CHARGES>
21
1 -0.19
12 0.62
13 0.08
14 -0.18
15 0.03
16 0.49
17 0.19
18 -0.15
19 -0.15
2 -0.57
20 -0.15
21 -0.15
3 -0.73
35 0.37
36 0.15
37 0.15
38 0.15
39 0.15
4 -0.56
40 0.15
6 0.3

> <PUBCHEM_EFFECTIVE_ROTOR_COUNT>
5.2

> <PUBCHEM_PHARMACOPHORE_FEATURES>
5
1 2 acceptor
1 3 donor
1 4 acceptor
6 15 17 18 19 20 21 rings
6 5 6 7 8 9 10 rings

> <PUBCHEM_HEAVY_ATOM_COUNT>
21

> <PUBCHEM_ATOM_DEF_STEREO_COUNT>
0

> <PUBCHEM_ATOM_UDEF_STEREO_COUNT>
2

> <PUBCHEM_BOND_DEF_STEREO_COUNT>
1

> <PUBCHEM_BOND_UDEF_STEREO_COUNT>
0

> <PUBCHEM_ISOTOPIC_ATOM_COUNT>
0

> <PUBCHEM_COMPONENT_COUNT>
1

> <PUBCHEM_CACTVS_TAUTO_COUNT>
2

> <PUBCHEM_CONFORMER_ID>
005F8FDB00000001

> <PUBCHEM_MMFF94_ENERGY>
38.9678

> <PUBCHEM_FEATURE_SELFOVERLAP>
25.371

> <PUBCHEM_SHAPE_FINGERPRINT>
10498660 4 16298398976135680938
10670039 82 15719675334481950070
11543360 7 18341051907992938088
11796584 16 17917994962109941391
12107183 9 17765437539103660849
12236239 1 18113051624271701225
12592029 89 15985386668445053967
12969540 114 16443061720570016451
13167823 11 18343864424377277727
13583140 156 17702660106629889833
13862211 1 14979953657883085661
13914758 101 13398636018458621867
14528608 73 18333731333763209742
14573314 32 18343021086237142207
14840074 17 17458349619813658687
15183329 4 18343022151494611017
15788980 27 17632578245024786093
15848702 151 18408040727630868228
16752209 62 15913057469344220346
17349148 13 13901908933687401177
17834072 33 18411416224180664785
17844677 252 18343026592259056937
17862501 102 11815895665308341323
17870717 6 18060424608056681199
18222031 100 14836404739538184552
200 152 14333123079565845347
20369508 70 16415473849022036290
20645477 70 18131073714761798134
21682296 61 15266798593512178804
23559900 14 18201715167302216600
29717793 49 18060137622014463453
300161 21 18409161125684409808
3004659 81 18201720622470143706
34797466 226 18272093850234988117
465052 167 16773799233410058791
5374978 207 14996278120085003572
542803 24 17748547026351217569
633830 44 17603870004913334250
960060 61 18409737248761424822
9981440 41 16961552071304413701

> <PUBCHEM_SHAPE_MULTIPOLES>
409.07
13.12
1.76
1.46
3.53
0.06
0.08
-0.36
3.12
-0.96
0.1
-0.75
0.01
-0.01

> <PUBCHEM_SHAPE_SELFOVERLAP>
853.597

> <PUBCHEM_SHAPE_VOLUME>
231

> <PUBCHEM_COORDINATE_TYPE>
2
5
10

$$$$
