4961648
  -OEChem-01171809353D

 33 35  0     1  0  0  0  0  0999 V2000
    2.0285   -3.1166   -1.7550 Cl  0  0  0  0  0  0  0  0  0  0  0  0
    3.3915    1.9579    0.8948 S   0  0  0  0  0  0  0  0  0  0  0  0
   -3.1644    0.8608    0.3619 O   0  0  0  0  0  0  0  0  0  0  0  0
    3.1388   -1.6920    1.0270 O   0  0  0  0  0  0  0  0  0  0  0  0
    0.9950   -0.9652    0.5689 N   0  0  0  0  0  0  0  0  0  0  0  0
   -0.2525   -1.2714    0.1095 N   0  0  0  0  0  0  0  0  0  0  0  0
    1.0904    0.3945    1.0991 C   0  0  2  0  0  0  0  0  0  0  0  0
   -0.3552    0.8649    1.1255 C   0  0  0  0  0  0  0  0  0  0  0  0
   -1.0249   -0.2605    0.3757 C   0  0  0  0  0  0  0  0  0  0  0  0
    1.9829    1.2541    0.2243 C   0  0  0  0  0  0  0  0  0  0  0  0
   -2.4334   -0.2311    0.0081 C   0  0  0  0  0  0  0  0  0  0  0  0
    2.0137   -1.8997    0.5708 C   0  0  0  0  0  0  0  0  0  0  0  0
    1.8247    1.5751   -1.1048 C   0  0  0  0  0  0  0  0  0  0  0  0
   -3.2237   -1.1381   -0.6641 C   0  0  0  0  0  0  0  0  0  0  0  0
    2.8756    2.4113   -1.5806 C   0  0  0  0  0  0  0  0  0  0  0  0
   -4.4289    0.6486   -0.0877 C   0  0  0  0  0  0  0  0  0  0  0  0
    1.6671   -3.2368   -0.0370 C   0  0  0  0  0  0  0  0  0  0  0  0
    3.7958    2.6967   -0.5961 C   0  0  0  0  0  0  0  0  0  0  0  0
   -4.5172   -0.5669   -0.7256 C   0  0  0  0  0  0  0  0  0  0  0  0
   -5.4036    1.7142    0.1853 C   0  0  0  0  0  0  0  0  0  0  0  0
    1.4956    0.3334    2.1167 H   0  0  0  0  0  0  0  0  0  0  0  0
   -0.5367    1.8312    0.6473 H   0  0  0  0  0  0  0  0  0  0  0  0
   -0.7520    0.8853    2.1460 H   0  0  0  0  0  0  0  0  0  0  0  0
    0.9987    1.2303   -1.7138 H   0  0  0  0  0  0  0  0  0  0  0  0
   -2.9103   -2.0930   -1.0618 H   0  0  0  0  0  0  0  0  0  0  0  0
    2.9528    2.7843   -2.5936 H   0  0  0  0  0  0  0  0  0  0  0  0
    0.6248   -3.5271    0.1101 H   0  0  0  0  0  0  0  0  0  0  0  0
    2.3026   -4.0099    0.4049 H   0  0  0  0  0  0  0  0  0  0  0  0
    4.6861    3.3035   -0.6811 H   0  0  0  0  0  0  0  0  0  0  0  0
   -5.4016   -0.9907   -1.1794 H   0  0  0  0  0  0  0  0  0  0  0  0
   -5.0860    2.6534   -0.2779 H   0  0  0  0  0  0  0  0  0  0  0  0
   -6.3911    1.4576   -0.2109 H   0  0  0  0  0  0  0  0  0  0  0  0
   -5.5027    1.8778    1.2628 H   0  0  0  0  0  0  0  0  0  0  0  0
  1 17  1  0  0  0  0
  2 10  1  0  0  0  0
  2 18  1  0  0  0  0
  3 11  1  0  0  0  0
  3 16  1  0  0  0  0
  4 12  2  0  0  0  0
  5  6  1  0  0  0  0
  5  7  1  0  0  0  0
  5 12  1  0  0  0  0
  6  9  2  0  0  0  0
  7  8  1  0  0  0  0
  7 10  1  0  0  0  0
  7 21  1  0  0  0  0
  8  9  1  0  0  0  0
  8 22  1  0  0  0  0
  8 23  1  0  0  0  0
  9 11  1  0  0  0  0
 10 13  2  0  0  0  0
 11 14  2  0  0  0  0
 12 17  1  0  0  0  0
 13 15  1  0  0  0  0
 13 24  1  0  0  0  0
 14 19  1  0  0  0  0
 14 25  1  0  0  0  0
 15 18  2  0  0  0  0
 15 26  1  0  0  0  0
 16 19  2  0  0  0  0
 16 20  1  0  0  0  0
 17 27  1  0  0  0  0
 17 28  1  0  0  0  0
 18 29  1  0  0  0  0
 19 30  1  0  0  0  0
 20 31  1  0  0  0  0
 20 32  1  0  0  0  0
 20 33  1  0  0  0  0
M  END
> <PUBCHEM_COMPOUND_CID>
4961648

> <PUBCHEM_CONFORMER_RMSD>
0.6

> <PUBCHEM_CONFORMER_DIVERSEORDER>
1
18
97
74
83
85
84
5
58
65
55
82
79
76
90
88
92
96
25
48
95
59
66
21
20
52
78
57
40
71
22
93
23
54
94
70
86
42
60
15
80
73
72
45
26
77
89
67
75
64
62
81
61
91
27
50
43
68
24
56
69
63
17
19
4
14
11
46
87
6
2
53
9
44
49
47
41
37
39
33
31
3
8
35
7
32
16
38
13
10
51
30
34
29
28
36
12

> <PUBCHEM_MMFF94_PARTIAL_CHARGES>
25
1 -0.29
10 -0.14
11 0.05
12 0.57
13 -0.15
14 -0.15
15 -0.15
16 -0.04
17 0.35
18 -0.11
19 -0.15
2 -0.08
20 0.18
24 0.15
25 0.15
26 0.15
29 0.15
3 -0.28
30 0.15
4 -0.57
5 -0.3
6 -0.51
7 0.48
8 0.06
9 0.47

> <PUBCHEM_EFFECTIVE_ROTOR_COUNT>
4.6

> <PUBCHEM_PHARMACOPHORE_FEATURES>
6
1 3 acceptor
1 4 acceptor
1 6 acceptor
5 2 10 13 15 18 rings
5 3 11 14 16 19 rings
5 5 6 7 8 9 rings

> <PUBCHEM_HEAVY_ATOM_COUNT>
20

> <PUBCHEM_ATOM_DEF_STEREO_COUNT>
0

> <PUBCHEM_ATOM_UDEF_STEREO_COUNT>
1

> <PUBCHEM_BOND_DEF_STEREO_COUNT>
0

> <PUBCHEM_BOND_UDEF_STEREO_COUNT>
0

> <PUBCHEM_ISOTOPIC_ATOM_COUNT>
0

> <PUBCHEM_COMPONENT_COUNT>
1

> <PUBCHEM_CACTVS_TAUTO_COUNT>
1

> <PUBCHEM_CONFORMER_ID>
004BB57000000001

> <PUBCHEM_MMFF94_ENERGY>
27.2964

> <PUBCHEM_FEATURE_SELFOVERLAP>
30.448

> <PUBCHEM_SHAPE_FINGERPRINT>
10465860 228 18334011700617557929
11578080 2 16808742778013411752
11582403 64 16125525060692354720
116883 192 18124311601806888645
11725454 13 16771241868596830888
12173636 292 17831862721619834380
12293681 160 17988372584349192048
12422481 6 17971721477342356736
12617007 42 18126290739832631726
12633257 1 16588849308934497136
13836976 161 18412537738899855878
14004458 79 17398679999968766894
14181834 199 18408605833995378130
14863182 85 17846492617486897398
15163728 17 17679327370545842836
15342168 16 18040719212161329853
15502722 9 18409172120869376083
15664445 248 18052833446323858774
15806764 133 17825384086103763229
167882 2 18334866043428587972
17134986 127 18189904295507661260
17818456 19 17557145000261500497
1813 80 18051982419849507902
18186145 218 17749382634072245675
19784866 34 18340488992426115969
20567600 347 18269556207452432830
20612939 158 18335699421212457913
20645477 70 18341326717571093855
21503847 285 17968094154133023945
21524375 3 17970339545512371888
22393880 68 18201161043559440085
2255824 54 18335416825059827443
23114952 82 18409170969833796469
23366157 5 18261107435371189283
23419403 2 17763420034509966360
23559900 14 18058726893025611903
26353 1 17906755608532955982
298252 57 18045782548927093400
3060560 45 18335420235669724108
394222 165 18188481501596434104
4280585 95 18054516807490432982
46194498 28 18335136437057398559
474 4 18040430031670249201
5081480 168 18192151495147570845
5104073 3 18408602548788353433
5281201 14 18188487957148622181
60123966 16 18191569875324968925
6443956 14 18270117899338632120
7364860 26 18341892965874502962
81228 2 17618231602647202618
81539 233 18334292119163935686
8272917 22 18410013212751730151
84936 182 18342174500796620544
9841814 1 18042680598691307370
9981440 41 18263922322539956401

> <PUBCHEM_SHAPE_MULTIPOLES>
395.61
8.82
3.56
1.3
11.95
2.26
-0.33
-5.29
-1.27
-4.44
-1.13
-1.1
0.03
-0.78

> <PUBCHEM_SHAPE_SELFOVERLAP>
830.088

> <PUBCHEM_SHAPE_VOLUME>
227.6

> <PUBCHEM_COORDINATE_TYPE>
2
5
10

$$$$
