2997963
  -OEChem-01171809563D

 50 54  0     1  0  0  0  0  0999 V2000
   -0.1498   -5.4270    0.8877 Cl  0  0  0  0  0  0  0  0  0  0  0  0
    2.2214    1.8522    2.6342 S   0  0  0  0  0  0  0  0  0  0  0  0
    2.6774   -0.4265    0.9010 O   0  0  0  0  0  0  0  0  0  0  0  0
   -0.2280    1.3117    1.5649 O   0  0  0  0  0  0  0  0  0  0  0  0
    2.5019   -0.8242   -3.0866 O   0  0  0  0  0  0  0  0  0  0  0  0
   -3.6802    1.8881   -2.0777 O   0  0  0  0  0  0  0  0  0  0  0  0
   -5.6111    0.5689   -1.4953 O   0  0  0  0  0  0  0  0  0  0  0  0
    2.2899    0.5376   -1.1857 N   0  0  0  0  0  0  0  0  0  0  0  0
    0.1974    0.3018    3.5153 N   0  0  0  0  0  0  0  0  0  0  0  0
   -1.0703   -0.0710    3.1088 N   0  0  0  0  0  0  0  0  0  0  0  0
    4.0347    3.2854   -0.7734 C   0  0  0  0  0  0  0  0  0  0  0  0
    3.9121    2.6185    0.5973 C   0  0  0  0  0  0  0  0  0  0  0  0
    3.8095    2.3557   -1.9634 C   0  0  0  0  0  0  0  0  0  0  0  0
    2.5409    1.9796    0.8338 C   0  0  1  0  0  0  0  0  0  0  0  0
    2.4053    1.7566   -1.9990 C   0  0  0  0  0  0  0  0  0  0  0  0
    2.4905    0.5813    0.2134 C   0  0  0  0  0  0  0  0  0  0  0  0
    2.1617   -0.6714   -1.9135 C   0  0  0  0  0  0  0  0  0  0  0  0
    1.5906   -1.8461   -1.2203 C   0  0  0  0  0  0  0  0  0  0  0  0
    0.6289    1.0978    2.5835 C   0  0  0  0  0  0  0  0  0  0  0  0
    0.2163   -2.0655   -1.2491 C   0  0  0  0  0  0  0  0  0  0  0  0
    2.4305   -2.7268   -0.5442 C   0  0  0  0  0  0  0  0  0  0  0  0
   -1.2763    0.5421    1.9667 C   0  0  0  0  0  0  0  0  0  0  0  0
   -2.4139    0.5261    1.0938 C   0  0  0  0  0  0  0  0  0  0  0  0
   -3.5187    1.2277   -0.8987 C   0  0  0  0  0  0  0  0  0  0  0  0
   -2.4007    1.2743   -0.0912 C   0  0  0  0  0  0  0  0  0  0  0  0
   -4.6213    0.4745   -0.5662 C   0  0  0  0  0  0  0  0  0  0  0  0
   -3.5479   -0.2436    1.4279 C   0  0  0  0  0  0  0  0  0  0  0  0
   -0.3226   -3.1743   -0.5966 C   0  0  0  0  0  0  0  0  0  0  0  0
    1.8917   -3.8358    0.1083 C   0  0  0  0  0  0  0  0  0  0  0  0
   -4.6670   -0.2735    0.5923 C   0  0  0  0  0  0  0  0  0  0  0  0
    0.5150   -4.0597    0.0820 C   0  0  0  0  0  0  0  0  0  0  0  0
   -5.0080    1.4655   -2.4502 C   0  0  0  0  0  0  0  0  0  0  0  0
    5.0372    3.7224   -0.8582 H   0  0  0  0  0  0  0  0  0  0  0  0
    3.3289    4.1240   -0.8305 H   0  0  0  0  0  0  0  0  0  0  0  0
    4.7086    1.8704    0.7030 H   0  0  0  0  0  0  0  0  0  0  0  0
    4.1087    3.3983    1.3447 H   0  0  0  0  0  0  0  0  0  0  0  0
    3.9535    2.9499   -2.8743 H   0  0  0  0  0  0  0  0  0  0  0  0
    4.5697    1.5655   -1.9760 H   0  0  0  0  0  0  0  0  0  0  0  0
    1.7448    2.6137    0.4340 H   0  0  0  0  0  0  0  0  0  0  0  0
    1.6516    2.4801   -1.6712 H   0  0  0  0  0  0  0  0  0  0  0  0
    2.1554    1.5204   -3.0400 H   0  0  0  0  0  0  0  0  0  0  0  0
   -0.4445   -1.3804   -1.7735 H   0  0  0  0  0  0  0  0  0  0  0  0
    3.5061   -2.5702   -0.5281 H   0  0  0  0  0  0  0  0  0  0  0  0
   -1.5515    1.8800   -0.3913 H   0  0  0  0  0  0  0  0  0  0  0  0
   -3.5697   -0.8291    2.3448 H   0  0  0  0  0  0  0  0  0  0  0  0
   -1.3974   -3.3347   -0.6240 H   0  0  0  0  0  0  0  0  0  0  0  0
    2.5568   -4.5183    0.6310 H   0  0  0  0  0  0  0  0  0  0  0  0
   -5.5377   -0.8654    0.8506 H   0  0  0  0  0  0  0  0  0  0  0  0
   -4.9558    0.9604   -3.4216 H   0  0  0  0  0  0  0  0  0  0  0  0
   -5.6438    2.3529   -2.5487 H   0  0  0  0  0  0  0  0  0  0  0  0
  1 31  1  0  0  0  0
  2 14  1  0  0  0  0
  2 19  1  0  0  0  0
  3 16  2  0  0  0  0
  4 19  1  0  0  0  0
  4 22  1  0  0  0  0
  5 17  2  0  0  0  0
  6 24  1  0  0  0  0
  6 32  1  0  0  0  0
  7 26  1  0  0  0  0
  7 32  1  0  0  0  0
  8 15  1  0  0  0  0
  8 16  1  0  0  0  0
  8 17  1  0  0  0  0
  9 10  1  0  0  0  0
  9 19  2  0  0  0  0
 10 22  2  0  0  0  0
 11 12  1  0  0  0  0
 11 13  1  0  0  0  0
 11 33  1  0  0  0  0
 11 34  1  0  0  0  0
 12 14  1  0  0  0  0
 12 35  1  0  0  0  0
 12 36  1  0  0  0  0
 13 15  1  0  0  0  0
 13 37  1  0  0  0  0
 13 38  1  0  0  0  0
 14 16  1  0  0  0  0
 14 39  1  0  0  0  0
 15 40  1  0  0  0  0
 15 41  1  0  0  0  0
 17 18  1  0  0  0  0
 18 20  2  0  0  0  0
 18 21  1  0  0  0  0
 20 28  1  0  0  0  0
 20 42  1  0  0  0  0
 21 29  2  0  0  0  0
 21 43  1  0  0  0  0
 22 23  1  0  0  0  0
 23 25  2  0  0  0  0
 23 27  1  0  0  0  0
 24 25  1  0  0  0  0
 24 26  2  0  0  0  0
 25 44  1  0  0  0  0
 26 30  1  0  0  0  0
 27 30  2  0  0  0  0
 27 45  1  0  0  0  0
 28 31  2  0  0  0  0
 28 46  1  0  0  0  0
 29 31  1  0  0  0  0
 29 47  1  0  0  0  0
 30 48  1  0  0  0  0
 32 49  1  0  0  0  0
 32 50  1  0  0  0  0
M  END
> <PUBCHEM_COMPOUND_CID>
2997963

> <PUBCHEM_CONFORMER_RMSD>
1

> <PUBCHEM_CONFORMER_DIVERSEORDER>
1
149
256
208
337
169
250
175
47
241
301
116
65
191
245
283
194
320
132
163
178
211
31
324
134
329
332
45
289
238
182
41
96
242
316
199
288
77
98
286
259
5
282
67
219
186
139
293
338
328
192
303
154
224
10
66
304
227
222
17
63
107
193
210
152
155
21
313
264
323
196
158
205
217
204
95
42
106
317
52
160
262
239
138
6
327
291
34
311
180
310
128
201
12
133
151
50
25
23
75
333
319
56
166
99
70
221
228
43
74
235
61
44
274
325
102
91
216
109
114
326
195
176
294
113
101
168
265
68
85
184
299
36
105
35
29
15
165
331
306
198
3
277
57
267
51
234
100
212
121
209
129
33
230
38
269
143
220
71
24
215
103
278
206
14
119
271
64
37
19
197
53
300
276
185
8
314
11
183
170
124
161
273
223
174
321
248
16
243
72
188
48
226
111
167
336
84
261
257
13
94
83
312
279
159
246
82
148
244
4
78
177
203
284
110
136
58
179
334
150
181
93
171
141
30
144
318
88
258
55
60
135
90
89
247
157
275
298
268
322
2
214
173
207
130
22
340
146
40
46
249
49
131
307
62
254
297
145
59
142
86
26
54
309
225
140
20
27
118
87
190
73
280
18
266
81
232
263
187
292
330
305
237
295
125
285
156
162
76
213
189
335
233
97
202
153
281
287
218
92
7
240
252
69
251
302
80
127
32
308
137
164
315
115
120
339
200
231
272
290
104
236
126
108
260
172
112
117
147
122
255
9
253
39
270
28
296
229
123
79

> <PUBCHEM_MMFF94_PARTIAL_CHARGES>
36
1 -0.18
10 -0.34
14 0.29
15 0.3
16 0.57
17 0.54
18 0.09
19 0.53
2 -0.29
20 -0.15
21 -0.15
22 0.43
23 0.05
24 0.08
25 -0.15
26 0.08
27 -0.15
28 -0.15
29 -0.15
3 -0.57
30 -0.15
31 0.18
32 0.56
4 -0.28
42 0.15
43 0.15
44 0.15
45 0.15
46 0.15
47 0.15
48 0.15
5 -0.57
6 -0.36
7 -0.36
8 -0.42
9 -0.34

> <PUBCHEM_EFFECTIVE_ROTOR_COUNT>
6.8

> <PUBCHEM_PHARMACOPHORE_FEATURES>
9
1 3 acceptor
1 5 acceptor
1 6 acceptor
1 7 acceptor
5 4 9 10 19 22 rings
5 6 7 24 26 32 rings
6 18 20 21 28 29 31 rings
6 23 24 25 26 27 30 rings
7 8 11 12 13 14 15 16 rings

> <PUBCHEM_HEAVY_ATOM_COUNT>
32

> <PUBCHEM_ATOM_DEF_STEREO_COUNT>
0

> <PUBCHEM_ATOM_UDEF_STEREO_COUNT>
1

> <PUBCHEM_BOND_DEF_STEREO_COUNT>
0

> <PUBCHEM_BOND_UDEF_STEREO_COUNT>
0

> <PUBCHEM_ISOTOPIC_ATOM_COUNT>
0

> <PUBCHEM_COMPONENT_COUNT>
1

> <PUBCHEM_CACTVS_TAUTO_COUNT>
1

> <PUBCHEM_CONFORMER_ID>
002DBECB00000001

> <PUBCHEM_MMFF94_ENERGY>
84.1195

> <PUBCHEM_FEATURE_SELFOVERLAP>
45.83

> <PUBCHEM_SHAPE_FINGERPRINT>
10032420 55 17561370586540269688
10721379 63 18058721382840852537
11427363 43 17036978023265829507
11582403 64 17823412871755104440
11720765 8 17758381985931256445
12156800 1 17767941475030745874
12166972 35 18126842699175830279
13004483 165 16897093730042156042
133893 2 18195828291989908386
13617811 41 18267001995725202101
13911987 19 18196105540651162920
14114206 34 17769692760872770532
14114207 22 18051099568443169210
14468879 13 18041009470192809445
15324115 91 18341884182803571757
19026451 147 17202463551393773111
23559900 14 18043525015542928119
238 59 18263946365840939566
35225 105 17121932227108673026
437795 51 17487916698960764035
4409770 3 17198833192011898652
44802255 64 17682430240437562412
469060 322 17468788601887631835
513532 50 17460579339295160879
550186 7 16592284239320915828
5951187 136 17532078411396680045
6669772 16 17772160206978859506
86090 222 17555434478334279647

> <PUBCHEM_SHAPE_MULTIPOLES>
619.97
8.6
5.1
3.22
9.82
8.81
1.1
-8.2
-4.93
-3.54
-0.16
-0.13
-1.63
1.43

> <PUBCHEM_SHAPE_SELFOVERLAP>
1344.563

> <PUBCHEM_SHAPE_VOLUME>
341.6

> <PUBCHEM_COORDINATE_TYPE>
2
5
10

$$$$
