654478
  -OEChem-01171809153D

 18 18  0     0  0  0  0  0  0999 V2000
   -0.0399   -1.6737   -0.3990 S   0  0  0  0  0  0  0  0  0  0  0  0
    2.8243   -1.7467    0.4182 S   0  0  0  0  0  0  0  0  0  0  0  0
    4.0540   -0.1231    0.4649 S   0  0  0  0  0  0  0  0  0  0  0  0
   -4.9204   -0.0252    0.0044 O   0  0  0  0  0  0  0  0  0  0  0  0
   -3.2801    1.4881    0.4243 O   0  0  0  0  0  0  0  0  0  0  0  0
    1.5495    0.4538   -0.3452 N   0  0  0  0  0  0  0  0  0  0  0  0
    3.0444    2.2211   -0.2526 N   0  0  0  0  0  0  0  0  0  0  0  0
   -1.2040   -0.3267   -0.0281 C   0  0  0  0  0  0  0  0  0  0  0  0
   -2.6539   -0.7680   -0.1716 C   0  0  0  0  0  0  0  0  0  0  0  0
    1.4511   -0.8203   -0.1371 C   0  0  0  0  0  0  0  0  0  0  0  0
   -3.6235    0.3550    0.1115 C   0  0  0  0  0  0  0  0  0  0  0  0
    2.7985    0.9657   -0.0898 C   0  0  0  0  0  0  0  0  0  0  0  0
   -1.0199    0.0302    0.9917 H   0  0  0  0  0  0  0  0  0  0  0  0
   -1.0159    0.5086   -0.7120 H   0  0  0  0  0  0  0  0  0  0  0  0
   -2.8437   -1.1178   -1.1931 H   0  0  0  0  0  0  0  0  0  0  0  0
   -2.8719   -1.5802    0.5314 H   0  0  0  0  0  0  0  0  0  0  0  0
   -5.5360    0.7129    0.2006 H   0  0  0  0  0  0  0  0  0  0  0  0
    4.0250    2.4010   -0.0104 H   0  0  0  0  0  0  0  0  0  0  0  0
  1  8  1  0  0  0  0
  1 10  1  0  0  0  0
  2  3  1  0  0  0  0
  2 10  1  0  0  0  0
  3 12  1  0  0  0  0
  4 11  1  0  0  0  0
  4 17  1  0  0  0  0
  5 11  2  0  0  0  0
  6 10  2  0  0  0  0
  6 12  1  0  0  0  0
  7 12  2  0  0  0  0
  7 18  1  0  0  0  0
  8  9  1  0  0  0  0
  8 13  1  0  0  0  0
  8 14  1  0  0  0  0
  9 11  1  0  0  0  0
  9 15  1  0  0  0  0
  9 16  1  0  0  0  0
M  END
> <PUBCHEM_COMPOUND_CID>
654478

> <PUBCHEM_CONFORMER_RMSD>
0.6

> <PUBCHEM_CONFORMER_DIVERSEORDER>
1
37
64
65
26
74
54
73
76
51
60
59
75
11
77
69
55
72
57
42
56
58
20
43
52
5
3
8
18
36
13
71
47
16
7
68
6
70
31
19
4
30
63
10
44
61
24
66
53
40
67
15
48
33
2
49
9
12
45
34
17
25
39
41
38
32
35
14
50
29
62
46
22
27
21
28
23

> <PUBCHEM_MMFF94_PARTIAL_CHARGES>
14
1 -0.37
10 0.73
11 0.66
12 0.8
17 0.5
18 0.4
2 -0.14
3 -0.14
4 -0.65
5 -0.57
6 -0.66
7 -0.85
8 0.23
9 0.06

> <PUBCHEM_EFFECTIVE_ROTOR_COUNT>
4

> <PUBCHEM_PHARMACOPHORE_FEATURES>
7
1 4 acceptor
1 5 acceptor
1 6 acceptor
1 7 donor
3 4 5 11 anion
3 6 7 12 cation
5 2 3 6 10 12 rings

> <PUBCHEM_HEAVY_ATOM_COUNT>
12

> <PUBCHEM_ATOM_DEF_STEREO_COUNT>
0

> <PUBCHEM_ATOM_UDEF_STEREO_COUNT>
0

> <PUBCHEM_BOND_DEF_STEREO_COUNT>
0

> <PUBCHEM_BOND_UDEF_STEREO_COUNT>
0

> <PUBCHEM_ISOTOPIC_ATOM_COUNT>
0

> <PUBCHEM_COMPONENT_COUNT>
1

> <PUBCHEM_CACTVS_TAUTO_COUNT>
1

> <PUBCHEM_CONFORMER_ID>
0009FC8E00000001

> <PUBCHEM_MMFF94_ENERGY>
8.5072

> <PUBCHEM_FEATURE_SELFOVERLAP>
35.578

> <PUBCHEM_SHAPE_FINGERPRINT>
10465860 228 18270686363650539098
12162725 195 18341332210691522379
122479 349 18337111275430617250
12251169 10 18408038502811486974
12346645 6 18341894074166287806
12932764 1 17313374613207310871
13922767 16 18410570665442567650
14123255 52 18268148845669857512
14252887 29 13045942374464793674
14325111 11 18411419531205450823
14415576 193 18342461425996703966
14897335 6 18341891917612644166
15442244 35 18267303119211478810
15775835 57 18342177799204344223
170605 34 18410577288013262103
17802600 8 18410286991405821053
18186145 218 18411982429513756711
19107657 47 18187640280542982043
20233049 118 17846775209238806312
20645477 70 18410291376372602399
20671657 1 18336270136593292780
20871998 22 18122619454113809602
21524375 3 18343300379212607135
22485316 2 8574710191609212475
23380061 81 18334577953743409322
23402539 116 17775276179755332822
23557571 272 13686301249011077179
351380 180 18335416851013695193
449060 62 18411140263868180652
6333272 397 18410576193065711531
8199 26 18194686092872594284
94968 8 9151176463098455700

> <PUBCHEM_SHAPE_MULTIPOLES>
236.8
8.77
1.88
0.69
7.16
0.35
-0.02
2.2
-1.14
-1.4
0.08
-0.16
-0.06
-0.55

> <PUBCHEM_SHAPE_SELFOVERLAP>
435.872

> <PUBCHEM_SHAPE_VOLUME>
151.1

> <PUBCHEM_COORDINATE_TYPE>
2
5
10

$$$$
