1474464
  -OEChem-01171809273D

 30 31  0     0  0  0  0  0  0999 V2000
    5.2304    1.6141    1.9597 Cl  0  0  0  0  0  0  0  0  0  0  0  0
    6.1346    2.2350   -1.1366 Cl  0  0  0  0  0  0  0  0  0  0  0  0
   -6.3606    0.5116   -0.4988 F   0  0  0  0  0  0  0  0  0  0  0  0
   -5.6403    1.7128    1.1572 F   0  0  0  0  0  0  0  0  0  0  0  0
   -5.1709    2.2901   -0.8861 F   0  0  0  0  0  0  0  0  0  0  0  0
    0.6239   -1.1107   -0.1075 O   0  0  0  0  0  0  0  0  0  0  0  0
   -0.4446   -3.1076    0.3053 O   0  0  0  0  0  0  0  0  0  0  0  0
    3.1269   -0.4118    1.9821 O   0  0  0  0  0  0  0  0  0  0  0  0
    2.9339   -0.7838   -0.2950 N   0  0  0  0  0  0  0  0  0  0  0  0
    3.3226   -0.5127   -1.5764 N   0  0  0  0  0  0  0  0  0  0  0  0
   -1.7039   -1.0972    0.0631 C   0  0  0  0  0  0  0  0  0  0  0  0
   -4.0204    0.4002   -0.0151 C   0  0  0  0  0  0  0  0  0  0  0  0
    1.8897   -1.7750   -0.0919 C   0  0  0  0  0  0  0  0  0  0  0  0
   -2.8711   -1.6959   -0.3652 C   0  0  0  0  0  0  0  0  0  0  0  0
   -1.6567    0.2255    0.4536 C   0  0  0  0  0  0  0  0  0  0  0  0
   -4.0419   -0.9390   -0.4048 C   0  0  0  0  0  0  0  0  0  0  0  0
   -2.8277    0.9825    0.4141 C   0  0  0  0  0  0  0  0  0  0  0  0
   -0.4576   -1.9029    0.1056 C   0  0  0  0  0  0  0  0  0  0  0  0
    3.4787   -0.1670    0.8273 C   0  0  0  0  0  0  0  0  0  0  0  0
   -5.2724    1.2097   -0.0582 C   0  0  0  0  0  0  0  0  0  0  0  0
    4.5470    0.8425    0.5759 C   0  0  0  0  0  0  0  0  0  0  0  0
    4.9301    1.1110   -0.6716 C   0  0  0  0  0  0  0  0  0  0  0  0
    4.2503    0.3688   -1.7369 C   0  0  0  0  0  0  0  0  0  0  0  0
    2.0316   -2.2832    0.8684 H   0  0  0  0  0  0  0  0  0  0  0  0
    1.9374   -2.5079   -0.9057 H   0  0  0  0  0  0  0  0  0  0  0  0
   -2.8996   -2.7366   -0.6742 H   0  0  0  0  0  0  0  0  0  0  0  0
   -0.7448    0.6989    0.8050 H   0  0  0  0  0  0  0  0  0  0  0  0
   -4.9609   -1.4099   -0.7430 H   0  0  0  0  0  0  0  0  0  0  0  0
   -2.8018    2.0243    0.7225 H   0  0  0  0  0  0  0  0  0  0  0  0
    4.5724    0.5960   -2.7667 H   0  0  0  0  0  0  0  0  0  0  0  0
  1 21  1  0  0  0  0
  2 22  1  0  0  0  0
  3 20  1  0  0  0  0
  4 20  1  0  0  0  0
  5 20  1  0  0  0  0
  6 13  1  0  0  0  0
  6 18  1  0  0  0  0
  7 18  2  0  0  0  0
  8 19  2  0  0  0  0
  9 10  1  0  0  0  0
  9 13  1  0  0  0  0
  9 19  1  0  0  0  0
 10 23  2  0  0  0  0
 11 14  2  0  0  0  0
 11 15  1  0  0  0  0
 11 18  1  0  0  0  0
 12 16  2  0  0  0  0
 12 17  1  0  0  0  0
 12 20  1  0  0  0  0
 13 24  1  0  0  0  0
 13 25  1  0  0  0  0
 14 16  1  0  0  0  0
 14 26  1  0  0  0  0
 15 17  2  0  0  0  0
 15 27  1  0  0  0  0
 16 28  1  0  0  0  0
 17 29  1  0  0  0  0
 19 21  1  0  0  0  0
 21 22  2  0  0  0  0
 22 23  1  0  0  0  0
 23 30  1  0  0  0  0
M  END
> <PUBCHEM_COMPOUND_CID>
1474464

> <PUBCHEM_CONFORMER_RMSD>
0.8

> <PUBCHEM_CONFORMER_DIVERSEORDER>
1
19
17
28
18
21
16
3
24
33
12
23
34
22
26
4
15
6
29
35
30
14
27
32
7
5
13
11
2
10
8
31
25
9
20

> <PUBCHEM_MMFF94_PARTIAL_CHARGES>
28
1 -0.14
10 -0.51
11 0.09
12 -0.14
13 0.58
14 -0.15
15 -0.15
16 -0.15
17 -0.15
18 0.63
19 0.62
2 -0.14
20 1.16
21 0.15
22 0.15
23 0.38
26 0.15
27 0.15
28 0.15
29 0.15
3 -0.34
30 0.06
4 -0.34
5 -0.34
6 -0.43
7 -0.57
8 -0.57
9 -0.3

> <PUBCHEM_EFFECTIVE_ROTOR_COUNT>
5

> <PUBCHEM_PHARMACOPHORE_FEATURES>
5
1 10 acceptor
1 7 acceptor
1 8 acceptor
6 11 12 14 15 16 17 rings
6 9 10 19 21 22 23 rings

> <PUBCHEM_HEAVY_ATOM_COUNT>
23

> <PUBCHEM_ATOM_DEF_STEREO_COUNT>
0

> <PUBCHEM_ATOM_UDEF_STEREO_COUNT>
0

> <PUBCHEM_BOND_DEF_STEREO_COUNT>
0

> <PUBCHEM_BOND_UDEF_STEREO_COUNT>
0

> <PUBCHEM_ISOTOPIC_ATOM_COUNT>
0

> <PUBCHEM_COMPONENT_COUNT>
1

> <PUBCHEM_CACTVS_TAUTO_COUNT>
1

> <PUBCHEM_CONFORMER_ID>
00167FA000000001

> <PUBCHEM_MMFF94_ENERGY>
52.1651

> <PUBCHEM_FEATURE_SELFOVERLAP>
25.373

> <PUBCHEM_SHAPE_FINGERPRINT>
10 15 17894639166783766273
10378564 45 17918002646560385830
10498660 4 18272936033292054776
10670039 82 18268159677588181164
11069576 57 14189033124317891980
12236239 1 17967530211978613370
12390115 104 18272662246618384683
12403259 415 17988928924120804994
12422481 6 17023743390944109013
12596602 18 17313386755047987880
12633257 1 14562822091936201294
13402501 40 18059285565386766344
1420 369 8790884077292032638
14251751 18 9078850558454063204
14341114 328 17458622354447402250
14528608 73 18060134328080327231
14790565 3 17770228159339228785
15183329 4 14836412393681505009
15188451 53 11386367084220337545
15210252 30 18341336664852937168
15238133 3 18336539508779593720
15885798 251 8934997066503375691
1813 80 11527945655721165546
18222031 100 9295283950066185763
19377110 9 17386010610976197395
193927 3 9007052491661511847
221357 26 16702307840795247520
22289505 5 17418375796733596120
23559900 14 18059856100226324478
270888 7 18334579074793443764
2748736 6 18335130982212192221
2767999 5 18410006633073069685
2838139 119 18130776841720669749
312425 54 14057001598864033745
341906 21 18338792416314916066
3472631 163 18335988665922190076
34797466 226 17203890786221719181
3680242 22 18335136458247651608
38570 142 16589461724659029494
474 4 18187932737772641875
5104073 3 17894349999099025586
53794403 172 18196372739151449992
5924683 9 14635445956179851233
59682541 52 16199872769456786476
633830 44 18334010566736175006
67856867 119 18339071571619656787
7808743 9 18335703900979294758
7970288 3 10447936053018495268
960060 61 14405182872036366930
9981440 41 18335419092792368027

> <PUBCHEM_SHAPE_MULTIPOLES>
427.68
15.88
2.43
1.41
3.06
0.48
0.22
-12.72
-1.54
1.08
-0.01
-2.53
-0.46
-0.14

> <PUBCHEM_SHAPE_SELFOVERLAP>
899.874

> <PUBCHEM_SHAPE_VOLUME>
242.3

> <PUBCHEM_COORDINATE_TYPE>
2
5
10

$$$$
