5035506
  -OEChem-01171810113D

 49 51  0     0  0  0  0  0  0999 V2000
    5.5761   -2.5586    1.3794 Cl  0  0  0  0  0  0  0  0  0  0  0  0
    7.0007   -1.8263   -1.4885 Cl  0  0  0  0  0  0  0  0  0  0  0  0
   -3.4859   -0.4331   -1.7600 S   0  0  0  0  0  0  0  0  0  0  0  0
   -4.7505   -0.0073   -2.3193 O   0  0  0  0  0  0  0  0  0  0  0  0
   -2.4042   -0.8776   -2.6119 O   0  0  0  0  0  0  0  0  0  0  0  0
    1.2254    0.2523   -0.6223 O   0  0  0  0  0  0  0  0  0  0  0  0
    3.5394   -0.5608    2.0036 O   0  0  0  0  0  0  0  0  0  0  0  0
   -3.7780   -1.6274   -0.5656 N   0  0  0  0  0  0  0  0  0  0  0  0
    0.3361    2.0819    0.5608 N   0  0  0  0  0  0  0  0  0  0  0  0
    3.7418    0.8106    0.1467 N   0  0  0  0  0  0  0  0  0  0  0  0
    4.3600    1.0865   -1.0498 N   0  0  0  0  0  0  0  0  0  0  0  0
   -2.5808   -2.0485    0.2203 C   0  0  0  0  0  0  0  0  0  0  0  0
   -4.9638   -1.3792    0.3067 C   0  0  0  0  0  0  0  0  0  0  0  0
   -2.8952   -3.3310    0.9835 C   0  0  0  0  0  0  0  0  0  0  0  0
   -5.3117   -2.6517    1.0720 C   0  0  0  0  0  0  0  0  0  0  0  0
   -4.1192   -3.1582    1.8786 C   0  0  0  0  0  0  0  0  0  0  0  0
   -2.8764    0.8747   -0.7434 C   0  0  0  0  0  0  0  0  0  0  0  0
   -1.5168    0.9625   -0.4931 C   0  0  0  0  0  0  0  0  0  0  0  0
   -3.7683    1.7924   -0.2129 C   0  0  0  0  0  0  0  0  0  0  0  0
   -1.0358    1.9965    0.3102 C   0  0  0  0  0  0  0  0  0  0  0  0
   -1.9210    2.9284    0.8519 C   0  0  0  0  0  0  0  0  0  0  0  0
   -3.2873    2.8263    0.5903 C   0  0  0  0  0  0  0  0  0  0  0  0
   -1.4346    4.0466    1.7155 C   0  0  0  0  0  0  0  0  0  0  0  0
    1.3560    1.2359    0.0990 C   0  0  0  0  0  0  0  0  0  0  0  0
    2.7104    1.6914    0.6108 C   0  0  0  0  0  0  0  0  0  0  0  0
    4.0840   -0.3016    0.9296 C   0  0  0  0  0  0  0  0  0  0  0  0
    5.1611   -1.1925    0.4104 C   0  0  0  0  0  0  0  0  0  0  0  0
    5.2853    0.2831   -1.4520 C   0  0  0  0  0  0  0  0  0  0  0  0
    5.7533   -0.9153   -0.7505 C   0  0  0  0  0  0  0  0  0  0  0  0
   -2.2980   -1.2717    0.9378 H   0  0  0  0  0  0  0  0  0  0  0  0
   -1.7359   -2.2399   -0.4488 H   0  0  0  0  0  0  0  0  0  0  0  0
   -5.8298   -1.0954   -0.2993 H   0  0  0  0  0  0  0  0  0  0  0  0
   -4.7529   -0.5723    1.0159 H   0  0  0  0  0  0  0  0  0  0  0  0
   -3.0809   -4.1449    0.2714 H   0  0  0  0  0  0  0  0  0  0  0  0
   -2.0310   -3.6237    1.5902 H   0  0  0  0  0  0  0  0  0  0  0  0
   -6.1582   -2.4630    1.7415 H   0  0  0  0  0  0  0  0  0  0  0  0
   -5.6256   -3.4300    0.3651 H   0  0  0  0  0  0  0  0  0  0  0  0
   -4.3700   -4.1125    2.3547 H   0  0  0  0  0  0  0  0  0  0  0  0
   -3.8899   -2.4472    2.6817 H   0  0  0  0  0  0  0  0  0  0  0  0
   -0.8823    0.2123   -0.9372 H   0  0  0  0  0  0  0  0  0  0  0  0
   -4.8356    1.7291   -0.4014 H   0  0  0  0  0  0  0  0  0  0  0  0
   -3.9913    3.5430    1.0049 H   0  0  0  0  0  0  0  0  0  0  0  0
    0.6343    2.8535    1.1517 H   0  0  0  0  0  0  0  0  0  0  0  0
   -0.7397    4.6868    1.1619 H   0  0  0  0  0  0  0  0  0  0  0  0
   -2.2581    4.6841    2.0561 H   0  0  0  0  0  0  0  0  0  0  0  0
   -0.9394    3.6550    2.6103 H   0  0  0  0  0  0  0  0  0  0  0  0
    2.6873    1.7145    1.7059 H   0  0  0  0  0  0  0  0  0  0  0  0
    2.9129    2.7050    0.2467 H   0  0  0  0  0  0  0  0  0  0  0  0
    5.7797    0.5062   -2.4120 H   0  0  0  0  0  0  0  0  0  0  0  0
  1 27  1  0  0  0  0
  2 29  1  0  0  0  0
  3  4  2  0  0  0  0
  3  5  2  0  0  0  0
  3  8  1  0  0  0  0
  3 17  1  0  0  0  0
  6 24  2  0  0  0  0
  7 26  2  0  0  0  0
  8 12  1  0  0  0  0
  8 13  1  0  0  0  0
  9 20  1  0  0  0  0
  9 24  1  0  0  0  0
  9 43  1  0  0  0  0
 10 11  1  0  0  0  0
 10 25  1  0  0  0  0
 10 26  1  0  0  0  0
 11 28  2  0  0  0  0
 12 14  1  0  0  0  0
 12 30  1  0  0  0  0
 12 31  1  0  0  0  0
 13 15  1  0  0  0  0
 13 32  1  0  0  0  0
 13 33  1  0  0  0  0
 14 16  1  0  0  0  0
 14 34  1  0  0  0  0
 14 35  1  0  0  0  0
 15 16  1  0  0  0  0
 15 36  1  0  0  0  0
 15 37  1  0  0  0  0
 16 38  1  0  0  0  0
 16 39  1  0  0  0  0
 17 18  2  0  0  0  0
 17 19  1  0  0  0  0
 18 20  1  0  0  0  0
 18 40  1  0  0  0  0
 19 22  2  0  0  0  0
 19 41  1  0  0  0  0
 20 21  2  0  0  0  0
 21 22  1  0  0  0  0
 21 23  1  0  0  0  0
 22 42  1  0  0  0  0
 23 44  1  0  0  0  0
 23 45  1  0  0  0  0
 23 46  1  0  0  0  0
 24 25  1  0  0  0  0
 25 47  1  0  0  0  0
 25 48  1  0  0  0  0
 26 27  1  0  0  0  0
 27 29  2  0  0  0  0
 28 29  1  0  0  0  0
 28 49  1  0  0  0  0
M  END
> <PUBCHEM_COMPOUND_CID>
5035506

> <PUBCHEM_CONFORMER_RMSD>
0.8

> <PUBCHEM_CONFORMER_DIVERSEORDER>
1
148
227
367
268
292
319
387
458
187
451
184
421
395
467
241
176
396
165
401
217
375
122
216
364
425
301
188
309
330
350
229
391
56
383
245
340
213
254
289
417
457
42
308
412
381
378
415
461
266
288
193
195
392
413
356
29
59
428
167
365
133
237
202
315
456
299
445
357
265
60
150
138
447
263
321
466
316
373
177
12
243
332
406
403
360
22
362
197
307
407
336
281
345
327
296
69
287
251
352
168
223
434
179
459
118
260
331
162
136
33
460
430
376
291
247
55
440
382
192
181
426
325
264
201
142
294
238
155
348
253
190
384
465
157
448
420
163
189
399
363
154
244
324
36
390
277
252
318
231
297
341
377
149
342
359
249
450
199
93
110
211
248
393
454
385
170
371
49
449
304
404
334
178
164
115
443
369
121
174
210
286
462
72
222
446
409
10
218
276
427
305
300
432
80
314
235
310
31
388
419
346
298
380
50
255
355
13
290
416
444
293
95
144
284
183
329
32
258
333
438
107
191
225
66
242
7
147
429
397
353
423
468
234
452
61
439
96
270
114
215
271
311
424
437
272
126
275
125
73
250
25
141
24
128
441
370
405
76
313
400
317
108
11
198
200
398
137
269
435
349
262
212
89
337
354
77
219
436
240
408
26
134
194
135
279
224
81
394
171
112
228
463
30
261
94
469
43
442
282
267
15
129
273
67
322
63
366
259
347
87
53
156
328
71
422
410
161
431
85
180
351
102
285
111
226
379
295
86
320
175
389
20
79
344
182
303
280
166
339
105
386
21
207
100
160
45
205
361
464
185
368
246
343
152
27
173
236
120
326
78
54
283
278
28
453
88
208
109
433
172
323
146
414
220
206
123
203
99
402
158
98
14
233
119
209
232
196
92
221
130
84
411
372
358
57
64
374
97
312
455
230
39
335
169
153
145
90
116
113
338
35
91
257
70
34
48
159
101
65
117
52
204
47
132
46
256
186
83
38
140
16
68
18
75
139
62
9
306
302
74
82
2
151
127
6
214
58
418
103
40
239
44
3
17
274
4
51
104
23
19
41
124
37
131
106
5
8
143

> <PUBCHEM_MMFF94_PARTIAL_CHARGES>
31
1 -0.14
10 -0.3
11 -0.51
12 0.36
13 0.36
17 -0.01
18 -0.15
19 -0.15
2 -0.14
20 0.12
21 -0.14
22 -0.15
23 0.14
24 0.57
25 0.36
26 0.62
27 0.15
28 0.38
29 0.15
3 1.45
4 -0.65
40 0.15
41 0.15
42 0.15
43 0.37
49 0.06
5 -0.65
6 -0.57
7 -0.57
8 -0.85
9 -0.55

> <PUBCHEM_EFFECTIVE_ROTOR_COUNT>
7.2

> <PUBCHEM_PHARMACOPHORE_FEATURES>
9
1 11 acceptor
1 4 acceptor
1 5 acceptor
1 6 acceptor
1 7 acceptor
1 9 donor
6 10 11 26 27 28 29 rings
6 17 18 19 20 21 22 rings
6 8 12 13 14 15 16 rings

> <PUBCHEM_HEAVY_ATOM_COUNT>
29

> <PUBCHEM_ATOM_DEF_STEREO_COUNT>
0

> <PUBCHEM_ATOM_UDEF_STEREO_COUNT>
0

> <PUBCHEM_BOND_DEF_STEREO_COUNT>
0

> <PUBCHEM_BOND_UDEF_STEREO_COUNT>
0

> <PUBCHEM_ISOTOPIC_ATOM_COUNT>
0

> <PUBCHEM_COMPONENT_COUNT>
1

> <PUBCHEM_CACTVS_TAUTO_COUNT>
2

> <PUBCHEM_CONFORMER_ID>
004CD5F200000001

> <PUBCHEM_MMFF94_ENERGY>
61.5093

> <PUBCHEM_FEATURE_SELFOVERLAP>
45.692

> <PUBCHEM_SHAPE_FINGERPRINT>
10169797 241 18273493495058442010
10928967 22 18272366529229771382
11315621 136 18260272975571896230
11545043 162 17489017159702498344
11991303 11 18262797342595566901
12422481 6 17346053228666765215
12760667 363 18341050800324080383
12788726 201 18408609187958778499
13009979 54 18412271635653828388
1361 87 18408884070150354087
14150023 24 17836372545161992353
14251740 79 18113056056108466267
14251757 5 18041285485987298602
14844126 61 17916567779179733317
14866123 147 18410859846313093073
15042514 8 18341900675562923681
15250474 111 18261949640436277546
15361156 5 18130788940986882548
15799311 1 18261690181124218394
17909252 39 18337677524493695242
18927931 339 18131348587899106061
23559900 14 18337379543441207288
329604 57 18334017228630825430
3383291 50 17917417715038183815
4058900 60 17904480697991620741
4073 2 18412824677723631800
437815 12 18266462190959966163
44249763 50 7925617866133985174
484985 159 18335424565255286427
497634 4 17967818253543413423
508706 21 18341620252689514430
5104073 3 18131067130397975760
513202 73 18130799944571353431
59755656 520 18187646843749291757
613672 6 18268126803633983208
633830 44 13335832978619815657
70634741 139 18188215402687136044
7970288 3 18268707401824749511
9896288 288 18054803780236194993

> <PUBCHEM_SHAPE_MULTIPOLES>
560.99
15.6
4.31
1.92
21.89
0.43
-0.59
-12
-2.5
-5.34
2.89
-0.55
-0.56
0.42

> <PUBCHEM_SHAPE_SELFOVERLAP>
1155.06

> <PUBCHEM_SHAPE_VOLUME>
323.5

> <PUBCHEM_COORDINATE_TYPE>
2
5
10

$$$$
