1475120
  -OEChem-01171810003D

 40 42  0     0  0  0  0  0  0999 V2000
    7.7575    2.8490   -0.1783 Br  0  0  0  0  0  0  0  0  0  0  0  0
   -4.3377    0.9357   -0.5421 O   0  0  0  0  0  0  0  0  0  0  0  0
   -7.7150   -0.0413    0.1130 O   0  0  0  0  0  0  0  0  0  0  0  0
   -6.6380    1.9826    0.3814 O   0  0  0  0  0  0  0  0  0  0  0  0
    1.8001   -0.4384    0.0102 N   0  0  0  0  0  0  0  0  0  0  0  0
    0.8148   -2.6188    0.2964 N   0  0  0  0  0  0  0  0  0  0  0  0
   -0.5518   -0.7181   -0.0755 C   0  0  0  0  0  0  0  0  0  0  0  0
    3.0109   -1.0089    0.1681 C   0  0  0  0  0  0  0  0  0  0  0  0
    0.7596   -1.2900    0.0850 C   0  0  0  0  0  0  0  0  0  0  0  0
    4.1317   -0.0976    0.0851 C   0  0  0  0  0  0  0  0  0  0  0  0
   -1.5895   -1.4779   -0.6244 C   0  0  0  0  0  0  0  0  0  0  0  0
   -0.7971    0.6019    0.3158 C   0  0  0  0  0  0  0  0  0  0  0  0
   -3.0987    0.3940   -0.3888 C   0  0  0  0  0  0  0  0  0  0  0  0
   -2.8598   -0.9230   -0.7808 C   0  0  0  0  0  0  0  0  0  0  0  0
   -2.0674    1.1565    0.1595 C   0  0  0  0  0  0  0  0  0  0  0  0
    3.2055   -2.3552    0.3905 C   0  0  0  0  0  0  0  0  0  0  0  0
    5.3633   -0.5481   -0.3897 C   0  0  0  0  0  0  0  0  0  0  0  0
    3.9804    1.2314    0.4808 C   0  0  0  0  0  0  0  0  0  0  0  0
    2.0585   -3.1204    0.4454 C   0  0  0  0  0  0  0  0  0  0  0  0
    6.4438    0.3305   -0.4691 C   0  0  0  0  0  0  0  0  0  0  0  0
    5.0609    2.1100    0.4013 C   0  0  0  0  0  0  0  0  0  0  0  0
    6.2926    1.6596   -0.0736 C   0  0  0  0  0  0  0  0  0  0  0  0
   -5.4501    0.0455   -0.4635 C   0  0  0  0  0  0  0  0  0  0  0  0
   -6.6425    0.8021    0.0598 C   0  0  0  0  0  0  0  0  0  0  0  0
   -8.9317    0.5390    0.5938 C   0  0  0  0  0  0  0  0  0  0  0  0
   -1.4318   -2.5022   -0.9543 H   0  0  0  0  0  0  0  0  0  0  0  0
   -0.0174    1.2199    0.7550 H   0  0  0  0  0  0  0  0  0  0  0  0
   -3.6278   -1.5400   -1.2381 H   0  0  0  0  0  0  0  0  0  0  0  0
   -2.2485    2.1824    0.4685 H   0  0  0  0  0  0  0  0  0  0  0  0
    4.1713   -2.8193    0.5419 H   0  0  0  0  0  0  0  0  0  0  0  0
    5.5184   -1.5677   -0.7320 H   0  0  0  0  0  0  0  0  0  0  0  0
    3.0373    1.6118    0.8659 H   0  0  0  0  0  0  0  0  0  0  0  0
    2.1084   -4.1896    0.6218 H   0  0  0  0  0  0  0  0  0  0  0  0
    7.3956   -0.0347   -0.8462 H   0  0  0  0  0  0  0  0  0  0  0  0
    4.9274    3.1419    0.7161 H   0  0  0  0  0  0  0  0  0  0  0  0
   -5.6810   -0.3297   -1.4658 H   0  0  0  0  0  0  0  0  0  0  0  0
   -5.2646   -0.7735    0.2423 H   0  0  0  0  0  0  0  0  0  0  0  0
   -9.2470    1.3557   -0.0626 H   0  0  0  0  0  0  0  0  0  0  0  0
   -8.8015    0.8956    1.6200 H   0  0  0  0  0  0  0  0  0  0  0  0
   -9.7037   -0.2350    0.5865 H   0  0  0  0  0  0  0  0  0  0  0  0
  1 22  1  0  0  0  0
  2 13  1  0  0  0  0
  2 23  1  0  0  0  0
  3 24  1  0  0  0  0
  3 25  1  0  0  0  0
  4 24  2  0  0  0  0
  5  8  2  0  0  0  0
  5  9  1  0  0  0  0
  6  9  2  0  0  0  0
  6 19  1  0  0  0  0
  7  9  1  0  0  0  0
  7 11  2  0  0  0  0
  7 12  1  0  0  0  0
  8 10  1  0  0  0  0
  8 16  1  0  0  0  0
 10 17  2  0  0  0  0
 10 18  1  0  0  0  0
 11 14  1  0  0  0  0
 11 26  1  0  0  0  0
 12 15  2  0  0  0  0
 12 27  1  0  0  0  0
 13 14  2  0  0  0  0
 13 15  1  0  0  0  0
 14 28  1  0  0  0  0
 15 29  1  0  0  0  0
 16 19  2  0  0  0  0
 16 30  1  0  0  0  0
 17 20  1  0  0  0  0
 17 31  1  0  0  0  0
 18 21  2  0  0  0  0
 18 32  1  0  0  0  0
 19 33  1  0  0  0  0
 20 22  2  0  0  0  0
 20 34  1  0  0  0  0
 21 22  1  0  0  0  0
 21 35  1  0  0  0  0
 23 24  1  0  0  0  0
 23 36  1  0  0  0  0
 23 37  1  0  0  0  0
 25 38  1  0  0  0  0
 25 39  1  0  0  0  0
 25 40  1  0  0  0  0
M  END
> <PUBCHEM_COMPOUND_CID>
1475120

> <PUBCHEM_CONFORMER_RMSD>
0.8

> <PUBCHEM_CONFORMER_DIVERSEORDER>
1
18
15
29
54
41
28
39
34
51
43
17
27
22
13
47
48
38
16
49
8
2
52
44
45
55
6
4
7
53
11
35
36
30
46
50
21
32
26
9
19
12
10
5
42
33
40
14
23
24
20
37
3
25
31

> <PUBCHEM_MMFF94_PARTIAL_CHARGES>
33
1 -0.11
11 -0.15
12 -0.15
13 0.08
14 -0.15
15 -0.15
16 -0.15
17 -0.15
18 -0.15
19 0.16
2 -0.36
20 -0.15
21 -0.15
22 0.11
23 0.34
24 0.66
25 0.28
26 0.15
27 0.15
28 0.15
29 0.15
3 -0.43
30 0.15
31 0.15
32 0.15
33 0.15
34 0.15
35 0.15
4 -0.57
5 -0.62
6 -0.62
8 0.31
9 0.62

> <PUBCHEM_EFFECTIVE_ROTOR_COUNT>
6

> <PUBCHEM_PHARMACOPHORE_FEATURES>
8
1 1 hydrophobe
1 2 acceptor
1 4 acceptor
1 5 acceptor
3 5 6 9 cation
6 10 17 18 20 21 22 rings
6 5 6 8 9 16 19 rings
6 7 11 12 13 14 15 rings

> <PUBCHEM_HEAVY_ATOM_COUNT>
25

> <PUBCHEM_ATOM_DEF_STEREO_COUNT>
0

> <PUBCHEM_ATOM_UDEF_STEREO_COUNT>
0

> <PUBCHEM_BOND_DEF_STEREO_COUNT>
0

> <PUBCHEM_BOND_UDEF_STEREO_COUNT>
0

> <PUBCHEM_ISOTOPIC_ATOM_COUNT>
0

> <PUBCHEM_COMPONENT_COUNT>
1

> <PUBCHEM_CACTVS_TAUTO_COUNT>
1

> <PUBCHEM_CONFORMER_ID>
0016823000000001

> <PUBCHEM_MMFF94_ENERGY>
76.8277

> <PUBCHEM_FEATURE_SELFOVERLAP>
40.604

> <PUBCHEM_SHAPE_FINGERPRINT>
10 15 17967250918386281833
10165383 225 18334576867781555804
10411042 1 17833548999829448658
106641 1 16443348697309915573
10835480 77 18188765051570219709
10981352 41 12324230660297324392
11273773 38 18189058762888203500
11638347 137 16443059478823662400
11724838 91 18040435516475348543
11796584 16 13398616269138601068
12236239 1 18272084989643473719
12730499 353 18334858290511984978
12788726 201 17346319237571738441
12838862 33 18338498833942078924
13533116 47 17604705556351726122
13899415 154 17418371381491222987
13914758 101 10159704595072685639
13955234 65 18115863001920658754
14216079 64 9295297135906012556
14461889 52 17821736048130226675
14849402 71 18342741832455622729
14931854 50 18060427928277930336
14933364 13 18413108351417525669
15064981 194 18126298668653320996
15183329 4 15985110716537777257
15188451 53 11386361543490999494
15461852 350 16916775272976964725
15475509 35 15864901012306769802
15685185 35 18265617769971912716
15840311 113 18409452474754115117
18335252 98 18334581248458514571
18608769 82 18336546113948703867
20157964 124 18410011018572243502
20505436 4 18343578564445258414
20642791 178 17970074550415120028
20642791 35 17703498991057738576
21033648 29 18266168612723139704
21049683 118 18115849954136509514
21049683 271 18341893022232097041
21267235 1 18268711601986260398
21298829 104 18410012169592480228
21304304 249 8862949385714359944
21521721 280 18409452458349887691
21585482 111 18263362499671931709
21781055 127 16916792816700069978
221357 26 17989489611227886960
22224240 67 17821728347164141651
23389318 12 18340756119003501751
23522609 53 17846228709189814713
23845131 108 18187085078927802754
255183 451 17699574641418369150
28498 318 10375874065423617353
3246875 12 18335139838265691507
335352 9 18410578367379369222
3472631 163 18343866640954650500
34797466 226 18130792226309329366
3545911 37 18334857203557971118
4073 2 18260832622432268835
4340502 62 17530683186785566347
444735 82 18260833661814432477
445580 126 18411689994540058272
46194498 28 17986959557404481406
474 4 18259985989967508918
5104073 3 17969778575776244673
5385378 56 18261386737880288818
54076057 127 18343310236315921915
5758199 1 18409449198052581883
59682541 35 17967820470464021041
59682541 52 17489320668246287340
6327066 14 18337391664719449596
6438161 24 9943807772501330660
6697151 62 17031591597364061455
7970288 3 10159710092604970588

> <PUBCHEM_SHAPE_MULTIPOLES>
492.86
23.07
2.79
0.75
27.04
0.94
-0.03
-19.03
0.68
-4.29
0.36
0.08
0.02
-0.61

> <PUBCHEM_SHAPE_SELFOVERLAP>
1057.352

> <PUBCHEM_SHAPE_VOLUME>
279.6

> <PUBCHEM_COORDINATE_TYPE>
2
5
10

$$$$
