5806576
  -OEChem-01171809313D

 39 41  0     0  0  0  0  0  0999 V2000
    6.0170    0.2745    0.5282 Cl  0  0  0  0  0  0  0  0  0  0  0  0
   -3.1430   -0.0591    0.7810 O   0  0  0  0  0  0  0  0  0  0  0  0
    0.4543   -2.8506   -1.3621 O   0  0  0  0  0  0  0  0  0  0  0  0
   -0.3718   -0.0434    0.7033 N   0  0  0  0  0  0  0  0  0  0  0  0
   -0.9607   -0.0467   -2.8957 N   0  0  0  0  0  0  0  0  0  0  0  0
   -0.2943    4.2118   -1.6325 N   0  0  0  0  0  0  0  0  0  0  0  0
   -0.6204   -1.1278   -0.1067 C   0  0  0  0  0  0  0  0  0  0  0  0
   -0.3073    1.2965    0.2163 C   0  0  0  0  0  0  0  0  0  0  0  0
    0.5711   -1.8418   -0.6726 C   0  0  0  0  0  0  0  0  0  0  0  0
   -1.8047   -1.6795   -0.4328 C   0  0  0  0  0  0  0  0  0  0  0  0
    1.9253   -1.3160   -0.3739 C   0  0  0  0  0  0  0  0  0  0  0  0
   -0.1705   -0.2565    2.0758 C   0  0  0  0  0  0  0  0  0  0  0  0
   -0.0314    2.3548    1.2071 C   0  0  0  0  0  0  0  0  0  0  0  0
   -3.0621   -1.1692    0.0158 C   0  0  0  0  0  0  0  0  0  0  0  0
    0.0801    0.7109    2.9699 C   0  0  0  0  0  0  0  0  0  0  0  0
    0.1512    2.0740    2.5073 C   0  0  0  0  0  0  0  0  0  0  0  0
    2.5883   -1.7738    0.7473 C   0  0  0  0  0  0  0  0  0  0  0  0
    2.4832   -0.3836   -1.2258 C   0  0  0  0  0  0  0  0  0  0  0  0
   -0.4725    1.7009   -1.0592 C   0  0  0  0  0  0  0  0  0  0  0  0
   -4.2971   -1.6915   -0.2457 C   0  0  0  0  0  0  0  0  0  0  0  0
    3.8618   -1.2786    1.0283 C   0  0  0  0  0  0  0  0  0  0  0  0
    3.7567    0.1115   -0.9449 C   0  0  0  0  0  0  0  0  0  0  0  0
    4.4459   -0.3361    0.1821 C   0  0  0  0  0  0  0  0  0  0  0  0
   -5.2180   -0.8388    0.4086 C   0  0  0  0  0  0  0  0  0  0  0  0
   -4.4664    0.1385    1.0184 C   0  0  0  0  0  0  0  0  0  0  0  0
   -0.7413    0.7358   -2.0672 C   0  0  0  0  0  0  0  0  0  0  0  0
   -0.3736    3.0841   -1.3705 C   0  0  0  0  0  0  0  0  0  0  0  0
   -1.8593   -2.5587   -1.0697 H   0  0  0  0  0  0  0  0  0  0  0  0
   -0.2363   -1.2947    2.3877 H   0  0  0  0  0  0  0  0  0  0  0  0
    0.0378    3.4028    0.9397 H   0  0  0  0  0  0  0  0  0  0  0  0
    0.2271    0.4967    4.0211 H   0  0  0  0  0  0  0  0  0  0  0  0
    0.3537    2.8553    3.2308 H   0  0  0  0  0  0  0  0  0  0  0  0
    2.1406   -2.5101    1.4083 H   0  0  0  0  0  0  0  0  0  0  0  0
    1.9704   -0.0444   -2.1189 H   0  0  0  0  0  0  0  0  0  0  0  0
   -4.5248   -2.5719   -0.8305 H   0  0  0  0  0  0  0  0  0  0  0  0
    4.3872   -1.6368    1.9099 H   0  0  0  0  0  0  0  0  0  0  0  0
    4.2014    0.8419   -1.6159 H   0  0  0  0  0  0  0  0  0  0  0  0
   -6.2946   -0.9255    0.4324 H   0  0  0  0  0  0  0  0  0  0  0  0
   -4.7085    0.9988    1.6250 H   0  0  0  0  0  0  0  0  0  0  0  0
  1 23  1  0  0  0  0
  2 14  1  0  0  0  0
  2 25  1  0  0  0  0
  3  9  2  0  0  0  0
  4  7  1  0  0  0  0
  4  8  1  0  0  0  0
  4 12  1  0  0  0  0
  5 26  3  0  0  0  0
  6 27  3  0  0  0  0
  7  9  1  0  0  0  0
  7 10  2  0  0  0  0
  8 13  1  0  0  0  0
  8 19  2  0  0  0  0
  9 11  1  0  0  0  0
 10 14  1  0  0  0  0
 10 28  1  0  0  0  0
 11 17  2  0  0  0  0
 11 18  1  0  0  0  0
 12 15  2  0  0  0  0
 12 29  1  0  0  0  0
 13 16  2  0  0  0  0
 13 30  1  0  0  0  0
 14 20  2  0  0  0  0
 15 16  1  0  0  0  0
 15 31  1  0  0  0  0
 16 32  1  0  0  0  0
 17 21  1  0  0  0  0
 17 33  1  0  0  0  0
 18 22  2  0  0  0  0
 18 34  1  0  0  0  0
 19 26  1  0  0  0  0
 19 27  1  0  0  0  0
 20 24  1  0  0  0  0
 20 35  1  0  0  0  0
 21 23  2  0  0  0  0
 21 36  1  0  0  0  0
 22 23  1  0  0  0  0
 22 37  1  0  0  0  0
 24 25  2  0  0  0  0
 24 38  1  0  0  0  0
 25 39  1  0  0  0  0
M  END
> <PUBCHEM_COMPOUND_CID>
5806576

> <PUBCHEM_CONFORMER_RMSD>
0.8

> <PUBCHEM_CONFORMER_DIVERSEORDER>
1
11
14
5
15
16
10
8
2
9
7
4
6
13
12
3

> <PUBCHEM_MMFF94_PARTIAL_CHARGES>
39
1 -0.18
10 -0.11
11 0.09
12 -0.05
13 -0.15
14 0.09
15 -0.15
16 -0.15
17 -0.15
18 -0.15
19 0.13
2 -0.28
20 -0.15
21 -0.15
22 -0.15
23 0.18
24 -0.15
25 -0.01
26 0.49
27 0.49
28 0.15
29 0.15
3 -0.57
30 0.15
31 0.15
32 0.15
33 0.15
34 0.15
35 0.15
36 0.15
37 0.15
38 0.15
39 0.15
4 -0.3
5 -0.56
6 -0.56
7 0.11
8 0.1
9 0.47

> <PUBCHEM_EFFECTIVE_ROTOR_COUNT>
4.2

> <PUBCHEM_PHARMACOPHORE_FEATURES>
8
1 2 acceptor
1 3 acceptor
1 4 cation
1 5 acceptor
1 6 acceptor
5 2 14 20 24 25 rings
6 11 17 18 21 22 23 rings
6 4 8 12 13 15 16 rings

> <PUBCHEM_HEAVY_ATOM_COUNT>
27

> <PUBCHEM_ATOM_DEF_STEREO_COUNT>
0

> <PUBCHEM_ATOM_UDEF_STEREO_COUNT>
0

> <PUBCHEM_BOND_DEF_STEREO_COUNT>
1

> <PUBCHEM_BOND_UDEF_STEREO_COUNT>
0

> <PUBCHEM_ISOTOPIC_ATOM_COUNT>
0

> <PUBCHEM_COMPONENT_COUNT>
1

> <PUBCHEM_CACTVS_TAUTO_COUNT>
1

> <PUBCHEM_CONFORMER_ID>
005899F000000001

> <PUBCHEM_MMFF94_ENERGY>
93.2512

> <PUBCHEM_FEATURE_SELFOVERLAP>
40.598

> <PUBCHEM_SHAPE_FINGERPRINT>
10162869 55 18273223007103920803
11582403 64 16015504258882948245
12011746 2 12823303402864373514
12403814 3 18334572421440624635
12788726 201 17821723906167860280
12969540 114 16199861757276495301
13132413 78 17846227631031365907
133893 2 17340926296003719120
14787075 74 17846778546011903890
14955137 171 17845112807677121563
15840311 113 18059310807030773697
15849732 13 15913324728037203111
1601671 61 18060706074121937891
16945 1 18059300855285281459
17876694 64 18197528201507588633
17980427 23 17846225462268365337
1813 80 18335995211246432079
18769570 83 18186806846619101897
20600515 1 18270132317148531278
20642791 178 18267600168124622531
20691752 17 18120628439759708242
21304303 64 18189058757854120796
21330990 113 18273215261810965683
229495 10 17985536750392177447
23419403 2 18198318788969787321
23559900 14 17488479485320481830
350125 39 17914629258808304910
469060 322 18336276669180709600
513532 50 16880456354494568359
5845 1 9142764863832637197
7495541 125 17823714142710940283

> <PUBCHEM_SHAPE_MULTIPOLES>
530.84
8.08
3.07
2.35
2.69
2.64
0.35
-3.83
1.72
-0.53
-1.19
-0.17
1.36
0

> <PUBCHEM_SHAPE_SELFOVERLAP>
1161.695

> <PUBCHEM_SHAPE_VOLUME>
284.8

> <PUBCHEM_COORDINATE_TYPE>
2
5
10

$$$$
