2302272
  -OEChem-01171810023D

 41 43  0     0  0  0  0  0  0999 V2000
   -0.0011   -1.7186   -0.0292 P   0  0  0  0  0  0  0  0  0  0  0  0
   -1.2417   -1.2898   -0.9908 O   0  0  0  0  0  0  0  0  0  0  0  0
    1.2399   -1.2908   -0.9906 O   0  0  0  0  0  0  0  0  0  0  0  0
   -0.0018   -3.2161    0.1772 O   0  0  0  0  0  0  0  0  0  0  0  0
    0.0051    4.7776   -1.0959 O   0  5  0  0  0  0  0  0  0  0  0  0
    0.0043    2.8848   -2.2078 O   0  0  0  0  0  0  0  0  0  0  0  0
   -0.0008   -0.7068    1.2803 N   0  0  0  0  0  0  0  0  0  0  0  0
    0.0036    3.5233   -1.1276 N   0  3  0  0  0  0  0  0  0  0  0  0
   -0.0002    0.7034    1.2901 C   0  0  0  0  0  0  0  0  0  0  0  0
    0.0010    1.4093    0.0870 C   0  0  0  0  0  0  0  0  0  0  0  0
   -0.0006    1.3921    2.5029 C   0  0  0  0  0  0  0  0  0  0  0  0
    0.0017    2.8041    0.0969 C   0  0  0  0  0  0  0  0  0  0  0  0
   -2.5584   -1.2920   -0.6155 C   0  0  0  0  0  0  0  0  0  0  0  0
    2.5567   -1.2943   -0.6150 C   0  0  0  0  0  0  0  0  0  0  0  0
    0.0001    2.7869    2.5128 C   0  0  0  0  0  0  0  0  0  0  0  0
    0.0013    3.4929    1.3097 C   0  0  0  0  0  0  0  0  0  0  0  0
   -3.0018   -2.2018    0.3384 C   0  0  0  0  0  0  0  0  0  0  0  0
    2.9990   -2.2046    0.3389 C   0  0  0  0  0  0  0  0  0  0  0  0
   -3.4409   -0.3845   -1.1915 C   0  0  0  0  0  0  0  0  0  0  0  0
    3.4400   -0.3873   -1.1907 C   0  0  0  0  0  0  0  0  0  0  0  0
   -4.3431   -2.2041    0.7208 C   0  0  0  0  0  0  0  0  0  0  0  0
    4.3403   -2.2082    0.7215 C   0  0  0  0  0  0  0  0  0  0  0  0
   -4.7824   -0.3868   -0.8091 C   0  0  0  0  0  0  0  0  0  0  0  0
    4.7814   -0.3909   -0.8081 C   0  0  0  0  0  0  0  0  0  0  0  0
   -5.2335   -1.2965    0.1471 C   0  0  0  0  0  0  0  0  0  0  0  0
    5.2316   -1.3013    0.1480 C   0  0  0  0  0  0  0  0  0  0  0  0
   -0.0024   -1.0938    2.2217 H   0  0  0  0  0  0  0  0  0  0  0  0
    0.0013    0.8839   -0.8607 H   0  0  0  0  0  0  0  0  0  0  0  0
   -0.0014    0.8554    3.4481 H   0  0  0  0  0  0  0  0  0  0  0  0
   -0.0002    3.3231    3.4574 H   0  0  0  0  0  0  0  0  0  0  0  0
    0.0019    4.5789    1.3561 H   0  0  0  0  0  0  0  0  0  0  0  0
   -2.3429   -2.9251    0.8033 H   0  0  0  0  0  0  0  0  0  0  0  0
    2.3395   -2.9272    0.8036 H   0  0  0  0  0  0  0  0  0  0  0  0
   -3.0931    0.3267   -1.9354 H   0  0  0  0  0  0  0  0  0  0  0  0
    3.0928    0.3242   -1.9345 H   0  0  0  0  0  0  0  0  0  0  0  0
   -4.6951   -2.9131    1.4645 H   0  0  0  0  0  0  0  0  0  0  0  0
    4.6916   -2.9176    1.4651 H   0  0  0  0  0  0  0  0  0  0  0  0
   -5.4754    0.3203   -1.2555 H   0  0  0  0  0  0  0  0  0  0  0  0
    5.4752    0.3156   -1.2543 H   0  0  0  0  0  0  0  0  0  0  0  0
   -6.2780   -1.2983    0.4448 H   0  0  0  0  0  0  0  0  0  0  0  0
    6.2760   -1.3041    0.4458 H   0  0  0  0  0  0  0  0  0  0  0  0
  1  2  1  0  0  0  0
  1  3  1  0  0  0  0
  1  4  2  0  0  0  0
  1  7  1  0  0  0  0
  2 13  1  0  0  0  0
  3 14  1  0  0  0  0
  5  8  1  0  0  0  0
  6  8  2  0  0  0  0
  7  9  1  0  0  0  0
  7 27  1  0  0  0  0
  8 12  1  0  0  0  0
  9 10  2  0  0  0  0
  9 11  1  0  0  0  0
 10 12  1  0  0  0  0
 10 28  1  0  0  0  0
 11 15  2  0  0  0  0
 11 29  1  0  0  0  0
 12 16  2  0  0  0  0
 13 17  2  0  0  0  0
 13 19  1  0  0  0  0
 14 18  2  0  0  0  0
 14 20  1  0  0  0  0
 15 16  1  0  0  0  0
 15 30  1  0  0  0  0
 16 31  1  0  0  0  0
 17 21  1  0  0  0  0
 17 32  1  0  0  0  0
 18 22  1  0  0  0  0
 18 33  1  0  0  0  0
 19 23  2  0  0  0  0
 19 34  1  0  0  0  0
 20 24  2  0  0  0  0
 20 35  1  0  0  0  0
 21 25  2  0  0  0  0
 21 36  1  0  0  0  0
 22 26  2  0  0  0  0
 22 37  1  0  0  0  0
 23 25  1  0  0  0  0
 23 38  1  0  0  0  0
 24 26  1  0  0  0  0
 24 39  1  0  0  0  0
 25 40  1  0  0  0  0
 26 41  1  0  0  0  0
M  CHG  2   5  -1   8   1
M  END
> <PUBCHEM_COMPOUND_CID>
2302272

> <PUBCHEM_CONFORMER_RMSD>
0.8

> <PUBCHEM_CONFORMER_DIVERSEORDER>
1
149
68
17
101
111
157
127
43
125
78
147
124
50
36
156
148
39
42
146
85
145
135
84
3
88
158
136
155
63
83
24
61
141
87
14
133
86
110
130
54
151
126
94
8
90
140
27
48
150
5
129
2
56
100
112
67
138
128
159
104
60
75
40
142
51
9
10
120
66
62
121
71
35
134
74
12
69
16
95
29
132
137
46
73
115
52
96
26
45
38
97
44
143
25
114
11
59
37
99
34
77
7
103
64
102
117
81
79
18
55
123
53
131
93
91
4
41
19
6
139
13
72
118
152
22
113
80
116
31
47
15
98
122
20
89
108
70
76
105
57
82
92
30
58
107
33
49
28
32
109
106
144
153
23
154
65
119
21

> <PUBCHEM_MMFF94_PARTIAL_CHARGES>
41
1 1.52
10 -0.15
11 -0.15
12 0.13
13 0.08
14 0.08
15 -0.15
16 -0.15
17 -0.15
18 -0.15
19 -0.15
2 -0.35
20 -0.15
21 -0.15
22 -0.15
23 -0.15
24 -0.15
25 -0.15
26 -0.15
27 0.4
28 0.15
29 0.15
3 -0.35
30 0.15
31 0.15
32 0.15
33 0.15
34 0.15
35 0.15
36 0.15
37 0.15
38 0.15
39 0.15
4 -0.7
40 0.15
41 0.15
5 -0.52
6 -0.52
7 -0.78
8 0.91
9 0.1

> <PUBCHEM_EFFECTIVE_ROTOR_COUNT>
7

> <PUBCHEM_PHARMACOPHORE_FEATURES>
7
1 4 acceptor
1 5 acceptor
1 5 anion
1 6 acceptor
6 13 17 19 21 23 25 rings
6 14 18 20 22 24 26 rings
6 9 10 11 12 15 16 rings

> <PUBCHEM_HEAVY_ATOM_COUNT>
26

> <PUBCHEM_ATOM_DEF_STEREO_COUNT>
0

> <PUBCHEM_ATOM_UDEF_STEREO_COUNT>
0

> <PUBCHEM_BOND_DEF_STEREO_COUNT>
0

> <PUBCHEM_BOND_UDEF_STEREO_COUNT>
0

> <PUBCHEM_ISOTOPIC_ATOM_COUNT>
0

> <PUBCHEM_COMPONENT_COUNT>
1

> <PUBCHEM_CACTVS_TAUTO_COUNT>
2

> <PUBCHEM_CONFORMER_ID>
0023214000000001

> <PUBCHEM_MMFF94_ENERGY>
74.2606

> <PUBCHEM_FEATURE_SELFOVERLAP>
35.604

> <PUBCHEM_SHAPE_FINGERPRINT>
10165383 225 17115257187027874347
11045515 52 18408042909474144118
11049842 53 17400917999842176392
11582403 64 15508841591252887212
12156800 1 17535149351504501112
12788726 201 18342181016625875162
13004483 165 18410005525282860566
13134695 92 17988640860848625145
14347329 18 17242988196088180725
14347332 77 17986963938508980662
14955137 171 17916600854623354823
17899979 19 18117847818589128372
17980427 26 16483004916259754432
1813 80 17846505841369142935
18769570 83 18338519630025357699
18785283 64 17903358443767298003
20600515 1 18342189872352567647
20642791 105 17976521833339596714
20642791 239 17973748027490207876
21285901 2 17988363646179279655
21304303 282 17614535074376530988
21304303 64 18335428996922888317
21641784 216 18338250266824793244
23419403 2 17773005671080424224
23558518 356 17693943990252450267
23559900 14 18189327035187784103
283562 15 18269274569425415242
3380486 77 18335717047711229470
3493558 16 17823977840290278407
469060 322 18336840679674373088
531348 171 16097988019261078628
59444896 2 17909875086024608857
59755656 520 17409095699520049376
6677587 24 15512754727461654908
6823239 73 17896027905988714973
7164475 11 18195809570592085238
7495541 125 18263369247233994475
81228 2 18126868000601076874
9981440 41 15435986224224754791

> <PUBCHEM_SHAPE_MULTIPOLES>
499.61
8.63
4.9
1.83
0.01
6.33
-0.47
-9.51
1.34
-0.01
0.04
0
1.83
0

> <PUBCHEM_SHAPE_SELFOVERLAP>
1064.416

> <PUBCHEM_SHAPE_VOLUME>
276.3

> <PUBCHEM_COORDINATE_TYPE>
2
5
10

$$$$
