6473228
  -OEChem-01171810023D

 37 39  0     0  0  0  0  0  0999 V2000
   -5.3373    1.7013   -0.9338 O   0  0  0  0  0  0  0  0  0  0  0  0
    0.4835   -2.6824   -0.4149 O   0  0  0  0  0  0  0  0  0  0  0  0
   -2.2469    0.4172    1.6240 O   0  0  0  0  0  0  0  0  0  0  0  0
   -2.3434   -1.5371    0.4212 N   0  0  0  0  0  0  0  0  0  0  0  0
    0.8384   -0.8632    0.8426 N   0  0  0  0  0  0  0  0  0  0  0  0
    1.7244   -2.1695   -0.8133 N   0  0  0  0  0  0  0  0  0  0  0  0
   -1.2742   -2.1869    1.1504 C   0  0  0  0  0  0  0  0  0  0  0  0
   -3.8357    0.2892   -0.1289 C   0  0  0  0  0  0  0  0  0  0  0  0
    3.0137   -0.2427   -0.0831 C   0  0  0  0  0  0  0  0  0  0  0  0
    0.0304   -1.8544    0.5626 C   0  0  0  0  0  0  0  0  0  0  0  0
    1.8627   -1.0991   -0.0264 C   0  0  0  0  0  0  0  0  0  0  0  0
   -4.3736    1.5247    0.0077 C   0  0  0  0  0  0  0  0  0  0  0  0
   -2.7624   -0.2448    0.7215 C   0  0  0  0  0  0  0  0  0  0  0  0
    5.2499    1.4216   -0.1930 C   0  0  0  0  0  0  0  0  0  0  0  0
    4.0420   -0.5151   -0.9852 C   0  0  0  0  0  0  0  0  0  0  0  0
    3.1033    0.8619    0.7640 C   0  0  0  0  0  0  0  0  0  0  0  0
   -4.4678   -0.3555   -1.1893 C   0  0  0  0  0  0  0  0  0  0  0  0
    5.1602    0.3170   -1.0401 C   0  0  0  0  0  0  0  0  0  0  0  0
    4.2215    1.6941    0.7090 C   0  0  0  0  0  0  0  0  0  0  0  0
   -4.1452    2.6595    0.9153 C   0  0  0  0  0  0  0  0  0  0  0  0
   -5.3883    0.5527   -1.6581 C   0  0  0  0  0  0  0  0  0  0  0  0
    6.4449    2.3115   -0.2523 C   0  0  0  0  0  0  0  0  0  0  0  0
   -1.4596   -3.2650    1.1110 H   0  0  0  0  0  0  0  0  0  0  0  0
   -1.3087   -1.8775    2.2002 H   0  0  0  0  0  0  0  0  0  0  0  0
   -2.7674   -2.0580   -0.3388 H   0  0  0  0  0  0  0  0  0  0  0  0
    4.0070   -1.3660   -1.6608 H   0  0  0  0  0  0  0  0  0  0  0  0
    2.3184    1.1011    1.4772 H   0  0  0  0  0  0  0  0  0  0  0  0
   -4.3105   -1.3441   -1.5951 H   0  0  0  0  0  0  0  0  0  0  0  0
    5.9543    0.0958   -1.7483 H   0  0  0  0  0  0  0  0  0  0  0  0
    4.2791    2.5528    1.3726 H   0  0  0  0  0  0  0  0  0  0  0  0
   -4.3185    2.3634    1.9545 H   0  0  0  0  0  0  0  0  0  0  0  0
   -3.1172    3.0240    0.8257 H   0  0  0  0  0  0  0  0  0  0  0  0
   -4.8165    3.4944    0.6897 H   0  0  0  0  0  0  0  0  0  0  0  0
   -6.1157    0.5357   -2.4565 H   0  0  0  0  0  0  0  0  0  0  0  0
    6.6550    2.7570    0.7261 H   0  0  0  0  0  0  0  0  0  0  0  0
    7.3395    1.7529   -0.5481 H   0  0  0  0  0  0  0  0  0  0  0  0
    6.2786    3.1160   -0.9755 H   0  0  0  0  0  0  0  0  0  0  0  0
  1 12  1  0  0  0  0
  1 21  1  0  0  0  0
  2  6  1  0  0  0  0
  2 10  1  0  0  0  0
  3 13  2  0  0  0  0
  4  7  1  0  0  0  0
  4 13  1  0  0  0  0
  4 25  1  0  0  0  0
  5 10  2  0  0  0  0
  5 11  1  0  0  0  0
  6 11  2  0  0  0  0
  7 10  1  0  0  0  0
  7 23  1  0  0  0  0
  7 24  1  0  0  0  0
  8 12  2  0  0  0  0
  8 13  1  0  0  0  0
  8 17  1  0  0  0  0
  9 11  1  0  0  0  0
  9 15  2  0  0  0  0
  9 16  1  0  0  0  0
 12 20  1  0  0  0  0
 14 18  2  0  0  0  0
 14 19  1  0  0  0  0
 14 22  1  0  0  0  0
 15 18  1  0  0  0  0
 15 26  1  0  0  0  0
 16 19  2  0  0  0  0
 16 27  1  0  0  0  0
 17 21  2  0  0  0  0
 17 28  1  0  0  0  0
 18 29  1  0  0  0  0
 19 30  1  0  0  0  0
 20 31  1  0  0  0  0
 20 32  1  0  0  0  0
 20 33  1  0  0  0  0
 21 34  1  0  0  0  0
 22 35  1  0  0  0  0
 22 36  1  0  0  0  0
 22 37  1  0  0  0  0
M  END
> <PUBCHEM_COMPOUND_CID>
6473228

> <PUBCHEM_CONFORMER_RMSD>
0.8

> <PUBCHEM_CONFORMER_DIVERSEORDER>
1
31
40
6
9
30
17
14
33
19
34
15
29
39
5
27
22
18
10
41
36
26
21
12
28
32
4
8
11
38
7
23
16
42
35
20
3
24
13
25
2
37

> <PUBCHEM_MMFF94_PARTIAL_CHARGES>
29
1 -0.28
10 0.3
11 0.46
12 -0.04
13 0.72
14 -0.14
15 -0.15
16 -0.15
17 -0.15
18 -0.15
19 -0.15
2 -0.02
20 0.18
21 -0.01
22 0.14
25 0.37
26 0.15
27 0.15
28 0.15
29 0.15
3 -0.57
30 0.15
34 0.15
4 -0.73
5 -0.57
6 -0.41
7 0.48
8 -0.09
9 0.05

> <PUBCHEM_EFFECTIVE_ROTOR_COUNT>
5

> <PUBCHEM_PHARMACOPHORE_FEATURES>
7
1 1 acceptor
1 3 acceptor
1 4 donor
3 5 6 11 cation
5 1 8 12 17 21 rings
5 2 5 6 10 11 rings
6 9 14 15 16 18 19 rings

> <PUBCHEM_HEAVY_ATOM_COUNT>
22

> <PUBCHEM_ATOM_DEF_STEREO_COUNT>
0

> <PUBCHEM_ATOM_UDEF_STEREO_COUNT>
0

> <PUBCHEM_BOND_DEF_STEREO_COUNT>
0

> <PUBCHEM_BOND_UDEF_STEREO_COUNT>
0

> <PUBCHEM_ISOTOPIC_ATOM_COUNT>
0

> <PUBCHEM_COMPONENT_COUNT>
1

> <PUBCHEM_CACTVS_TAUTO_COUNT>
2

> <PUBCHEM_CONFORMER_ID>
0062C60C00000001

> <PUBCHEM_MMFF94_ENERGY>
30.2947

> <PUBCHEM_FEATURE_SELFOVERLAP>
35.522

> <PUBCHEM_SHAPE_FINGERPRINT>
10498660 4 18410857676442095584
105312 117 18334015024943376582
10591671 39 18188776162175769471
10928967 22 11383827143456823117
11089746 13 18410007728727573506
11273773 42 18202007595274428137
11796584 16 11455627438967485594
11961588 58 18335409197345238979
12403259 415 18336279997543194922
12596602 18 14201407083436470196
12633257 1 14996285846335367846
12670546 177 17775564221863704519
13103583 49 11458423501384570151
13402501 40 18335417980258369428
14123255 352 18333450958361469350
1420 369 10592042461895659548
14211702 104 10374780043244983932
14251757 5 16342846801938842991
14251764 30 12751230463188041213
14251764 38 18337959016165445428
14347329 18 18410574011491513432
14347424 109 8574423262509742415
14420673 8 10015590532062113493
14480069 147 13613704919881910308
14528608 73 18272082794878268597
14848178 96 18408887317324536200
14931854 50 18272646823190767205
14950920 106 13334743452564026733
15003188 100 18342452702955334844
15188451 53 12540992823682744633
15238133 3 17095527340189635796
15475509 84 13190329146039562110
16994733 274 17168690923056731125
17780758 139 11458415843368236703
1813 80 11959724988671790443
18608769 82 18337396049770321715
193927 3 11600005457271699042
20403669 9 10375869684193218901
21033648 29 17749398048224639075
21401589 2 18113909255851690201
21968339 14 17918273126505246950
22393880 68 17917703617356101239
22765269 38 18113327605441902141
22950370 63 9583516538168142498
235170 7 16774081747911578789
23559900 14 18267584607142618290
270888 7 18260543403428757813
2748736 6 18335135419108646060
2838139 119 18411136922541814964
3089732 80 9583526416814794076
312425 54 11530485531849733397
312425 83 17630616613317748141
341906 21 18040716999836219898
351380 3 11600006561199659157
4028521 119 18413392046375435331
445580 182 12685080484764256037
5104073 3 17894915104899078947
5486654 36 9583248261768610775
56633871 153 8286197267082357865
5924683 9 12901843730951479305
6328613 192 18187937213872155276
633830 44 18194685861329378115
636775 8 8285665121499871952
7970288 3 10879986965172596501
8863177 126 8574715685347287188
9981440 41 18187086182433496763
999808 66 11170452653576059360

> <PUBCHEM_SHAPE_MULTIPOLES>
420.2
14.91
2.74
1.29
3.92
0.16
0.1
-12.51
4.89
-0.1
-0.41
-1.02
-0.03
0.44

> <PUBCHEM_SHAPE_SELFOVERLAP>
915.648

> <PUBCHEM_SHAPE_VOLUME>
230.4

> <PUBCHEM_COORDINATE_TYPE>
2
5
10

$$$$
