3960591
  -OEChem-01171809513D

 35 38  0     0  0  0  0  0  0999 V2000
    2.4916   -1.5703    1.4099 S   0  0  0  0  0  0  0  0  0  0  0  0
   -3.7066    1.7809    0.5562 O   0  0  0  0  0  0  0  0  0  0  0  0
   -5.1050   -0.5418   -0.4238 O   0  0  0  0  0  0  0  0  0  0  0  0
    4.6013   -0.1908    0.6855 N   0  0  0  0  0  0  0  0  0  0  0  0
    2.5633    0.6362   -0.1357 N   0  0  0  0  0  0  0  0  0  0  0  0
    1.1667    0.6084   -0.1545 N   0  0  0  0  0  0  0  0  0  0  0  0
    5.3434    0.8937    0.0722 C   0  0  0  0  0  0  0  0  0  0  0  0
    6.7955    0.7472   -0.3055 C   0  0  0  0  0  0  0  0  0  0  0  0
    5.7521    0.8555   -1.3786 C   0  0  0  0  0  0  0  0  0  0  0  0
    3.2389   -0.2274    0.5632 C   0  0  0  0  0  0  0  0  0  0  0  0
    1.2094   -1.8439    0.1774 C   0  0  0  0  0  0  0  0  0  0  0  0
    0.5297   -0.5180   -0.0430 C   0  0  0  0  0  0  0  0  0  0  0  0
   -0.9565   -0.5026   -0.1448 C   0  0  0  0  0  0  0  0  0  0  0  0
   -3.0622    0.6387    0.1584 C   0  0  0  0  0  0  0  0  0  0  0  0
   -1.6711    0.6237    0.2638 C   0  0  0  0  0  0  0  0  0  0  0  0
   -3.7393   -0.4830   -0.3269 C   0  0  0  0  0  0  0  0  0  0  0  0
   -1.6310   -1.6125   -0.6549 C   0  0  0  0  0  0  0  0  0  0  0  0
   -5.0581    1.8206    0.0900 C   0  0  0  0  0  0  0  0  0  0  0  0
   -5.7389    0.4888    0.3390 C   0  0  0  0  0  0  0  0  0  0  0  0
   -3.0230   -1.6035   -0.7479 C   0  0  0  0  0  0  0  0  0  0  0  0
    5.0640    1.8603    0.4816 H   0  0  0  0  0  0  0  0  0  0  0  0
    7.2700   -0.2155   -0.1606 H   0  0  0  0  0  0  0  0  0  0  0  0
    7.4463    1.5983   -0.1466 H   0  0  0  0  0  0  0  0  0  0  0  0
    5.6978    1.7796   -1.9405 H   0  0  0  0  0  0  0  0  0  0  0  0
    5.5271   -0.0348   -1.9531 H   0  0  0  0  0  0  0  0  0  0  0  0
    5.0744   -0.8964    1.2415 H   0  0  0  0  0  0  0  0  0  0  0  0
    0.5288   -2.6035    0.5669 H   0  0  0  0  0  0  0  0  0  0  0  0
    1.6446   -2.1937   -0.7635 H   0  0  0  0  0  0  0  0  0  0  0  0
   -1.1595    1.4963    0.6623 H   0  0  0  0  0  0  0  0  0  0  0  0
   -1.0996   -2.4919   -1.0071 H   0  0  0  0  0  0  0  0  0  0  0  0
   -5.0536    2.0792   -0.9762 H   0  0  0  0  0  0  0  0  0  0  0  0
   -5.5741    2.6186    0.6330 H   0  0  0  0  0  0  0  0  0  0  0  0
   -5.7062    0.2102    1.3996 H   0  0  0  0  0  0  0  0  0  0  0  0
   -6.7878    0.5344    0.0298 H   0  0  0  0  0  0  0  0  0  0  0  0
   -3.5409   -2.4732   -1.1432 H   0  0  0  0  0  0  0  0  0  0  0  0
  1 10  1  0  0  0  0
  1 11  1  0  0  0  0
  2 14  1  0  0  0  0
  2 18  1  0  0  0  0
  3 16  1  0  0  0  0
  3 19  1  0  0  0  0
  4  7  1  0  0  0  0
  4 10  1  0  0  0  0
  4 26  1  0  0  0  0
  5  6  1  0  0  0  0
  5 10  2  0  0  0  0
  6 12  2  0  0  0  0
  7  8  1  0  0  0  0
  7  9  1  0  0  0  0
  7 21  1  0  0  0  0
  8  9  1  0  0  0  0
  8 22  1  0  0  0  0
  8 23  1  0  0  0  0
  9 24  1  0  0  0  0
  9 25  1  0  0  0  0
 11 12  1  0  0  0  0
 11 27  1  0  0  0  0
 11 28  1  0  0  0  0
 12 13  1  0  0  0  0
 13 15  2  0  0  0  0
 13 17  1  0  0  0  0
 14 15  1  0  0  0  0
 14 16  2  0  0  0  0
 15 29  1  0  0  0  0
 16 20  1  0  0  0  0
 17 20  2  0  0  0  0
 17 30  1  0  0  0  0
 18 19  1  0  0  0  0
 18 31  1  0  0  0  0
 18 32  1  0  0  0  0
 19 33  1  0  0  0  0
 19 34  1  0  0  0  0
 20 35  1  0  0  0  0
M  END
> <PUBCHEM_COMPOUND_CID>
3960591

> <PUBCHEM_CONFORMER_RMSD>
0.8

> <PUBCHEM_CONFORMER_DIVERSEORDER>
1
10
7
4
6
8
11
5
2
3
9

> <PUBCHEM_MMFF94_PARTIAL_CHARGES>
29
1 -0.37
10 0.64
11 0.29
12 0.3
13 0.09
14 0.08
15 -0.15
16 0.08
17 -0.15
18 0.28
19 0.28
2 -0.36
20 -0.15
21 0.1
22 0.1
23 0.1
24 0.1
25 0.1
26 0.4
29 0.15
3 -0.36
30 0.15
35 0.15
4 -0.62
5 -0.45
6 -0.45
7 0.07
8 -0.2
9 -0.2

> <PUBCHEM_EFFECTIVE_ROTOR_COUNT>
4.8

> <PUBCHEM_PHARMACOPHORE_FEATURES>
8
1 2 acceptor
1 3 acceptor
1 4 donor
1 6 acceptor
3 4 5 10 cation
6 1 5 6 10 11 12 rings
6 13 14 15 16 17 20 rings
6 2 3 14 16 18 19 rings

> <PUBCHEM_HEAVY_ATOM_COUNT>
20

> <PUBCHEM_ATOM_DEF_STEREO_COUNT>
0

> <PUBCHEM_ATOM_UDEF_STEREO_COUNT>
0

> <PUBCHEM_BOND_DEF_STEREO_COUNT>
0

> <PUBCHEM_BOND_UDEF_STEREO_COUNT>
0

> <PUBCHEM_ISOTOPIC_ATOM_COUNT>
0

> <PUBCHEM_COMPONENT_COUNT>
1

> <PUBCHEM_CACTVS_TAUTO_COUNT>
2

> <PUBCHEM_CONFORMER_ID>
003C6F0F00000001

> <PUBCHEM_MMFF94_ENERGY>
71.0553

> <PUBCHEM_FEATURE_SELFOVERLAP>
40.638

> <PUBCHEM_SHAPE_FINGERPRINT>
10354089 29 18040718069525663152
10411042 1 17837768199406855239
106641 1 16733273434160506049
10670039 82 17774729658310808144
10730089 173 18343866614884484152
10912923 1 18114452418579860426
12107183 9 17615681839250263929
12236239 1 18335136483816897442
12390115 104 17774732948487657505
12403259 415 17418368125336527515
12555020 224 13542463172177471980
12596602 18 17676488320080524801
12616971 3 18114449099023879610
12788726 201 17632017425269935289
13631057 29 17896883355794831179
13668630 136 13254801243906786812
13760787 19 18412258441339643458
13897977 58 18412542111487396635
14251764 18 18410292511113653009
14251764 75 16445624790360942196
14341114 328 18114175328664460770
14528608 73 18410291432676084356
14573314 32 17489595549941841236
14790565 3 18261396680465945412
14840074 17 17603590750745842036
15048467 5 18335137587628786724
15183329 4 17774732978694625574
15196674 1 18340765949128678091
15788980 27 12823299000586094626
1601671 61 18412542107250594548
18222031 100 11024113153307887442
18681886 176 18059568144043029304
18785283 64 14418999395650029198
20281389 69 18409164403056037248
20374829 77 8502368932340412627
204376 136 17240199958890720466
20645477 56 18202001027931081527
20681677 155 18412542141362673018
21065198 48 18335695018860638139
21267235 1 18271527615169629591
22061861 79 15913334589466997764
22224240 67 16370727058112319304
2297311 6 17632300098763761417
23175994 123 15841553010885136522
23198884 109 16128661842669734235
23402539 116 17989200469006338477
23402655 69 18411978061853789322
23559900 14 17346594201135330792
25147074 1 18335967723482877986
293599 30 18411700993645211274
300161 21 18335695035718396396
3004659 81 18342179922005307214
3472631 163 18336554923427840284
34797466 226 17417534726167848588
34934 24 18408601431337297771
3545911 37 18131071536638223087
4073 2 18260553372617798050
4340502 62 15357694193779069848
474 4 17967535700740887844
5104073 3 18409442553511738339
542803 24 18334855021904274314
543368 44 18335980960334181244
59682541 35 18335430101641834417
59682541 52 16701743718326291060
59755656 215 18059581269642356334
59755656 520 17894629275184446650
6327066 14 18120650241784505181
633830 44 18270388525338820364
7062679 6 18410295800193899628

> <PUBCHEM_SHAPE_MULTIPOLES>
388.76
15.17
1.75
0.96
10.03
0.26
-0.01
-7.31
1.41
-0.83
-0.08
0.66
0.17
-1.55

> <PUBCHEM_SHAPE_SELFOVERLAP>
826.382

> <PUBCHEM_SHAPE_VOLUME>
218.1

> <PUBCHEM_COORDINATE_TYPE>
2
5
10

$$$$
