2086256
  -OEChem-01171809373D

 44 45  0     0  0  0  0  0  0999 V2000
    3.0543    2.0289    0.7431 S   0  0  0  0  0  0  0  0  0  0  0  0
    0.2277    2.6938    1.6167 S   0  0  0  0  0  0  0  0  0  0  0  0
    2.5033   -1.3708    0.3641 O   0  0  0  0  0  0  0  0  0  0  0  0
    3.9488   -2.6639   -0.8855 O   0  0  0  0  0  0  0  0  0  0  0  0
    0.0981   -1.1569    1.7152 O   0  0  0  0  0  0  0  0  0  0  0  0
   -2.6710   -1.2149    1.2054 O   0  0  0  0  0  0  0  0  0  0  0  0
    0.8150    1.6763   -0.6794 N   0  0  0  0  0  0  0  0  0  0  0  0
   -0.9778   -2.1160   -0.1217 N   0  0  0  0  0  0  0  0  0  0  0  0
   -3.1782   -2.3049   -0.7801 N   0  0  0  0  0  0  0  0  0  0  0  0
    4.8724    0.4695   -0.7010 C   0  0  0  0  0  0  0  0  0  0  0  0
    4.7442   -0.6884    0.2911 C   0  0  0  0  0  0  0  0  0  0  0  0
    3.6055    1.3141   -0.8341 C   0  0  0  0  0  0  0  0  0  0  0  0
    3.7198   -1.7058   -0.1602 C   0  0  0  0  0  0  0  0  0  0  0  0
    1.3136    2.0934    0.4516 C   0  0  0  0  0  0  0  0  0  0  0  0
   -1.0742    2.3811    0.5303 C   0  0  0  0  0  0  0  0  0  0  0  0
   -0.5628    1.8351   -0.6509 C   0  0  0  0  0  0  0  0  0  0  0  0
   -2.4490    2.6029    0.7102 C   0  0  0  0  0  0  0  0  0  0  0  0
   -1.4614    1.5003   -1.6872 C   0  0  0  0  0  0  0  0  0  0  0  0
    1.4208   -2.2391    0.0138 C   0  0  0  0  0  0  0  0  0  0  0  0
   -3.3165    2.2627   -0.3308 C   0  0  0  0  0  0  0  0  0  0  0  0
   -2.8312    1.7184   -1.5147 C   0  0  0  0  0  0  0  0  0  0  0  0
    0.1306   -1.7681    0.6507 C   0  0  0  0  0  0  0  0  0  0  0  0
   -4.6099   -2.1376   -0.6992 C   0  0  0  0  0  0  0  0  0  0  0  0
   -2.3110   -1.8212    0.1976 C   0  0  0  0  0  0  0  0  0  0  0  0
   -5.0110   -1.3889    0.5550 C   0  0  0  0  0  0  0  0  0  0  0  0
    5.1311    0.0735   -1.6911 H   0  0  0  0  0  0  0  0  0  0  0  0
    5.7088    1.1092   -0.3930 H   0  0  0  0  0  0  0  0  0  0  0  0
    4.5225   -0.3610    1.3119 H   0  0  0  0  0  0  0  0  0  0  0  0
    5.7050   -1.2137    0.3593 H   0  0  0  0  0  0  0  0  0  0  0  0
    3.7918    2.1396   -1.5298 H   0  0  0  0  0  0  0  0  0  0  0  0
    2.8354    0.6860   -1.2902 H   0  0  0  0  0  0  0  0  0  0  0  0
   -2.8352    3.0265    1.6322 H   0  0  0  0  0  0  0  0  0  0  0  0
   -1.0932    1.0724   -2.6153 H   0  0  0  0  0  0  0  0  0  0  0  0
    1.6257   -3.2514    0.3798 H   0  0  0  0  0  0  0  0  0  0  0  0
    1.3182   -2.2530   -1.0773 H   0  0  0  0  0  0  0  0  0  0  0  0
   -4.3846    2.4245   -0.2113 H   0  0  0  0  0  0  0  0  0  0  0  0
   -3.5214    1.4573   -2.3123 H   0  0  0  0  0  0  0  0  0  0  0  0
   -5.0615   -3.1340   -0.7212 H   0  0  0  0  0  0  0  0  0  0  0  0
   -4.9304   -1.5972   -1.5952 H   0  0  0  0  0  0  0  0  0  0  0  0
   -0.8203   -2.6303   -0.9841 H   0  0  0  0  0  0  0  0  0  0  0  0
   -2.7933   -2.7932   -1.5826 H   0  0  0  0  0  0  0  0  0  0  0  0
   -4.7790   -1.9350    1.4754 H   0  0  0  0  0  0  0  0  0  0  0  0
   -4.6455   -0.3582    0.5805 H   0  0  0  0  0  0  0  0  0  0  0  0
   -6.1052   -1.2972    0.5522 H   0  0  0  0  0  0  0  0  0  0  0  0
  1 12  1  0  0  0  0
  1 14  1  0  0  0  0
  2 14  1  0  0  0  0
  2 15  1  0  0  0  0
  3 13  1  0  0  0  0
  3 19  1  0  0  0  0
  4 13  2  0  0  0  0
  5 22  2  0  0  0  0
  6 24  2  0  0  0  0
  7 14  2  0  0  0  0
  7 16  1  0  0  0  0
  8 22  1  0  0  0  0
  8 24  1  0  0  0  0
  8 40  1  0  0  0  0
  9 23  1  0  0  0  0
  9 24  1  0  0  0  0
  9 41  1  0  0  0  0
 10 11  1  0  0  0  0
 10 12  1  0  0  0  0
 10 26  1  0  0  0  0
 10 27  1  0  0  0  0
 11 13  1  0  0  0  0
 11 28  1  0  0  0  0
 11 29  1  0  0  0  0
 12 30  1  0  0  0  0
 12 31  1  0  0  0  0
 15 16  1  0  0  0  0
 15 17  2  0  0  0  0
 16 18  2  0  0  0  0
 17 20  1  0  0  0  0
 17 32  1  0  0  0  0
 18 21  1  0  0  0  0
 18 33  1  0  0  0  0
 19 22  1  0  0  0  0
 19 34  1  0  0  0  0
 19 35  1  0  0  0  0
 20 21  2  0  0  0  0
 20 36  1  0  0  0  0
 21 37  1  0  0  0  0
 23 25  1  0  0  0  0
 23 38  1  0  0  0  0
 23 39  1  0  0  0  0
 25 42  1  0  0  0  0
 25 43  1  0  0  0  0
 25 44  1  0  0  0  0
M  END
> <PUBCHEM_COMPOUND_CID>
2086256

> <PUBCHEM_CONFORMER_RMSD>
1.2

> <PUBCHEM_CONFORMER_DIVERSEORDER>
1
92
39
165
91
205
157
3
34
49
18
218
98
66
71
80
146
258
83
177
214
229
156
245
151
100
17
104
64
261
2
117
20
150
53
106
207
139
225
101
116
13
172
173
178
59
8
252
79
107
42
114
262
212
132
72
145
209
241
16
226
168
122
29
141
25
67
183
131
195
256
159
110
28
126
176
198
9
62
90
75
70
251
74
15
242
6
166
89
255
35
56
204
164
189
43
65
108
96
244
246
237
10
257
163
190
206
95
216
221
78
32
130
40
133
57
136
51
63
194
152
46
227
233
184
24
232
118
26
85
88
259
140
77
12
188
76
182
231
171
109
54
137
238
260
197
247
50
61
169
22
36
11
180
263
186
44
253
21
175
115
236
155
124
142
19
5
201
81
199
105
248
112
7
213
123
45
179
48
264
87
4
148
14
30
68
181
170
52
208
93
230
240
222
125
119
97
82
23
153
143
215
55
196
86
174
129
73
187
37
193
58
99
31
27
161
228
47
250
211
239
135
158
167
138
84
185
102
103
149
162
220
243
254
234
154
38
111
160
210
134
69
121
113
203
217
41
94
200
192
219
202
127
144
235
60
223
249
120
33
224
191
147
128

> <PUBCHEM_MMFF94_PARTIAL_CHARGES>
29
1 -0.29
11 0.06
12 0.23
13 0.66
14 0.43
15 0.04
16 0.23
17 -0.15
18 -0.15
19 0.34
2 -0.08
20 -0.15
21 -0.15
22 0.57
23 0.3
24 0.69
3 -0.43
32 0.15
33 0.15
36 0.15
37 0.15
4 -0.57
40 0.37
41 0.37
5 -0.57
6 -0.57
7 -0.57
8 -0.49
9 -0.73

> <PUBCHEM_EFFECTIVE_ROTOR_COUNT>
12

> <PUBCHEM_PHARMACOPHORE_FEATURES>
9
1 4 acceptor
1 5 acceptor
1 6 acceptor
1 7 acceptor
1 8 donor
1 9 donor
4 1 10 11 12 hydrophobe
5 2 7 14 15 16 rings
6 15 16 17 18 20 21 rings

> <PUBCHEM_HEAVY_ATOM_COUNT>
25

> <PUBCHEM_ATOM_DEF_STEREO_COUNT>
0

> <PUBCHEM_ATOM_UDEF_STEREO_COUNT>
0

> <PUBCHEM_BOND_DEF_STEREO_COUNT>
0

> <PUBCHEM_BOND_UDEF_STEREO_COUNT>
0

> <PUBCHEM_ISOTOPIC_ATOM_COUNT>
0

> <PUBCHEM_COMPONENT_COUNT>
1

> <PUBCHEM_CACTVS_TAUTO_COUNT>
5

> <PUBCHEM_CONFORMER_ID>
001FD57000000001

> <PUBCHEM_MMFF94_ENERGY>
41.9723

> <PUBCHEM_FEATURE_SELFOVERLAP>
45.797

> <PUBCHEM_SHAPE_FINGERPRINT>
104564 63 18335136548563212289
1100329 8 18195526987033322569
12422481 6 18191898689494285737
13140716 1 18337380535920946680
13402501 40 18336823216252912186
14251751 93 18114179696556678993
14251757 17 18409441458331701336
17093844 170 18119523490893180716
17357779 13 18335131046625729495
17492 54 17899686870016434293
19591789 44 18409729543062575019
20691752 17 17240481386158248396
20905425 154 18411134783648088767
21279426 13 18409158905856237669
21285901 2 18115579499391466047
21623110 236 18335991891099938909
221357 26 18411697711852730751
23227448 37 18262799549464146404
23352939 185 18272092738033709083
23419403 2 17559937952626091488
23557571 272 18342745078965419654
23559900 14 18341604928673853416
23566358 2 18409443687314148782
3014063 31 18339358681466027566
3052486 1 18189036660579354994
338550 245 18260838102504362429
350125 39 18408888446727043549
463206 1 18124593347250871478
469060 322 17022911112091948743

> <PUBCHEM_SHAPE_MULTIPOLES>
483.77
9.02
4.21
1.35
2.08
0
0
-4.61
-1.55
-1.38
0.32
-0.39
0.54
0.57

> <PUBCHEM_SHAPE_SELFOVERLAP>
975.407

> <PUBCHEM_SHAPE_VOLUME>
282.8

> <PUBCHEM_COORDINATE_TYPE>
2
5
10

$$$$
