12004580
  -OEChem-01171809313D

 54 57  0     1  0  0  0  0  0999 V2000
    1.2340    2.9514   -0.0434 O   0  0  0  0  0  0  0  0  0  0  0  0
    2.5764    1.5414    1.6740 O   0  0  0  0  0  0  0  0  0  0  0  0
   -2.0547   -3.0246    0.0820 O   0  0  0  0  0  0  0  0  0  0  0  0
    2.6330    0.8203   -2.1398 O   0  0  0  0  0  0  0  0  0  0  0  0
   -1.1562   -0.7120    0.0723 C   0  0  1  0  0  0  0  0  0  0  0  0
    0.3442   -0.7550   -0.4754 C   0  0  1  0  0  0  0  0  0  0  0  0
    1.2285    0.4999   -0.1371 C   0  0  1  0  0  0  0  0  0  0  0  0
   -1.7723    0.6911   -0.2849 C   0  0  1  0  0  0  0  0  0  0  0  0
    0.4877    1.8089   -0.4497 C   0  0  1  0  0  0  0  0  0  0  0  0
    1.8923    0.3630    1.2584 C   0  0  1  0  0  0  0  0  0  0  0  0
   -3.2969    0.8645    0.0776 C   0  0  0  0  0  0  0  0  0  0  0  0
   -0.8926    1.8590    0.1972 C   0  0  0  0  0  0  0  0  0  0  0  0
    1.0973   -2.0967   -0.2132 C   0  0  0  0  0  0  0  0  0  0  0  0
   -1.9935   -1.8200   -0.6864 C   0  0  2  0  0  0  0  0  0  0  0  0
    2.9019   -0.7732    1.0528 C   0  0  1  0  0  0  0  0  0  0  0  0
    2.1314   -2.0907    0.9255 C   0  0  0  0  0  0  0  0  0  0  0  0
    2.4927    0.3933   -1.0052 C   0  0  0  0  0  0  0  0  0  0  0  0
   -4.0532   -0.4844   -0.0298 C   0  0  0  0  0  0  0  0  0  0  0  0
   -1.1975   -0.9745    1.5965 C   0  0  0  0  0  0  0  0  0  0  0  0
   -3.4263   -1.4123   -1.0609 C   0  0  0  0  0  0  0  0  0  0  0  0
    3.5311   -0.3763   -0.2562 C   0  0  0  0  0  0  0  0  0  0  0  0
   -3.9320    1.8518   -0.9384 C   0  0  0  0  0  0  0  0  0  0  0  0
   -3.5476    1.4595    1.4789 C   0  0  0  0  0  0  0  0  0  0  0  0
    4.7724   -0.5845   -0.6947 C   0  0  0  0  0  0  0  0  0  0  0  0
    0.2258   -0.7225   -1.5718 H   0  0  0  0  0  0  0  0  0  0  0  0
   -1.7275    0.7400   -1.3855 H   0  0  0  0  0  0  0  0  0  0  0  0
    0.3622    1.9009   -1.5364 H   0  0  0  0  0  0  0  0  0  0  0  0
    1.1902    0.1197    2.0550 H   0  0  0  0  0  0  0  0  0  0  0  0
   -1.3558    2.8181   -0.0635 H   0  0  0  0  0  0  0  0  0  0  0  0
   -0.7921    1.8759    1.2879 H   0  0  0  0  0  0  0  0  0  0  0  0
    1.6377   -2.3484   -1.1374 H   0  0  0  0  0  0  0  0  0  0  0  0
    0.4110   -2.9344   -0.0661 H   0  0  0  0  0  0  0  0  0  0  0  0
   -1.4897   -2.0898   -1.6226 H   0  0  0  0  0  0  0  0  0  0  0  0
    3.6411   -0.8119    1.8600 H   0  0  0  0  0  0  0  0  0  0  0  0
    1.6248   -2.2964    1.8756 H   0  0  0  0  0  0  0  0  0  0  0  0
    2.8324   -2.9205    0.7703 H   0  0  0  0  0  0  0  0  0  0  0  0
   -5.1043   -0.3115   -0.2946 H   0  0  0  0  0  0  0  0  0  0  0  0
   -4.0834   -0.9979    0.9378 H   0  0  0  0  0  0  0  0  0  0  0  0
   -0.8519   -0.1208    2.1806 H   0  0  0  0  0  0  0  0  0  0  0  0
   -2.2071   -1.1962    1.9505 H   0  0  0  0  0  0  0  0  0  0  0  0
   -0.5910   -1.8376    1.8817 H   0  0  0  0  0  0  0  0  0  0  0  0
   -4.0598   -2.3004   -1.1730 H   0  0  0  0  0  0  0  0  0  0  0  0
   -3.4167   -0.9096   -2.0356 H   0  0  0  0  0  0  0  0  0  0  0  0
   -3.4570    2.8373   -0.8972 H   0  0  0  0  0  0  0  0  0  0  0  0
   -3.8437    1.4828   -1.9661 H   0  0  0  0  0  0  0  0  0  0  0  0
   -4.9992    1.9984   -0.7339 H   0  0  0  0  0  0  0  0  0  0  0  0
   -3.1590    2.4798    1.5646 H   0  0  0  0  0  0  0  0  0  0  0  0
   -4.6222    1.5098    1.6920 H   0  0  0  0  0  0  0  0  0  0  0  0
   -3.0912    0.8628    2.2717 H   0  0  0  0  0  0  0  0  0  0  0  0
    0.7318    3.7420   -0.3042 H   0  0  0  0  0  0  0  0  0  0  0  0
    1.9062    2.2309    1.8170 H   0  0  0  0  0  0  0  0  0  0  0  0
   -2.4790   -3.7053   -0.4676 H   0  0  0  0  0  0  0  0  0  0  0  0
    5.4873   -1.1320   -0.0898 H   0  0  0  0  0  0  0  0  0  0  0  0
    5.1046   -0.2187   -1.6600 H   0  0  0  0  0  0  0  0  0  0  0  0
  1  9  1  0  0  0  0
  1 50  1  0  0  0  0
  2 10  1  0  0  0  0
  2 51  1  0  0  0  0
  3 14  1  0  0  0  0
  3 52  1  0  0  0  0
  4 17  2  0  0  0  0
  5  6  1  0  0  0  0
  5  8  1  0  0  0  0
  5 14  1  0  0  0  0
  5 19  1  0  0  0  0
  6  7  1  0  0  0  0
  6 13  1  0  0  0  0
  6 25  1  0  0  0  0
  7  9  1  0  0  0  0
  7 10  1  0  0  0  0
  7 17  1  0  0  0  0
  8 11  1  0  0  0  0
  8 12  1  0  0  0  0
  8 26  1  0  0  0  0
  9 12  1  0  0  0  0
  9 27  1  0  0  0  0
 10 15  1  0  0  0  0
 10 28  1  0  0  0  0
 11 18  1  0  0  0  0
 11 22  1  0  0  0  0
 11 23  1  0  0  0  0
 12 29  1  0  0  0  0
 12 30  1  0  0  0  0
 13 16  1  0  0  0  0
 13 31  1  0  0  0  0
 13 32  1  0  0  0  0
 14 20  1  0  0  0  0
 14 33  1  0  0  0  0
 15 16  1  0  0  0  0
 15 21  1  0  0  0  0
 15 34  1  0  0  0  0
 16 35  1  0  0  0  0
 16 36  1  0  0  0  0
 17 21  1  0  0  0  0
 18 20  1  0  0  0  0
 18 37  1  0  0  0  0
 18 38  1  0  0  0  0
 19 39  1  0  0  0  0
 19 40  1  0  0  0  0
 19 41  1  0  0  0  0
 20 42  1  0  0  0  0
 20 43  1  0  0  0  0
 21 24  2  0  0  0  0
 22 44  1  0  0  0  0
 22 45  1  0  0  0  0
 22 46  1  0  0  0  0
 23 47  1  0  0  0  0
 23 48  1  0  0  0  0
 23 49  1  0  0  0  0
 24 53  1  0  0  0  0
 24 54  1  0  0  0  0
M  END
> <PUBCHEM_COMPOUND_CID>
12004580

> <PUBCHEM_CONFORMER_RMSD>
0.6

> <PUBCHEM_CONFORMER_DIVERSEORDER>
1
2

> <PUBCHEM_MMFF94_PARTIAL_CHARGES>
17
1 -0.68
10 0.28
14 0.28
15 0.14
17 0.49
2 -0.68
21 -0.12
24 -0.3
3 -0.68
4 -0.57
50 0.4
51 0.4
52 0.4
53 0.15
54 0.15
7 0.06
9 0.28

> <PUBCHEM_EFFECTIVE_ROTOR_COUNT>
1.8

> <PUBCHEM_PHARMACOPHORE_FEATURES>
11
1 1 acceptor
1 1 donor
1 2 acceptor
1 2 donor
1 3 acceptor
1 3 donor
1 4 acceptor
3 11 22 23 hydrophobe
6 5 6 7 8 9 12 rings
6 5 8 11 14 18 20 rings
8 6 7 10 13 15 16 17 21 rings

> <PUBCHEM_HEAVY_ATOM_COUNT>
24

> <PUBCHEM_ATOM_DEF_STEREO_COUNT>
8

> <PUBCHEM_ATOM_UDEF_STEREO_COUNT>
0

> <PUBCHEM_BOND_DEF_STEREO_COUNT>
0

> <PUBCHEM_BOND_UDEF_STEREO_COUNT>
0

> <PUBCHEM_ISOTOPIC_ATOM_COUNT>
0

> <PUBCHEM_COMPONENT_COUNT>
1

> <PUBCHEM_CACTVS_TAUTO_COUNT>
1

> <PUBCHEM_CONFORMER_ID>
00B72CE400000001

> <PUBCHEM_MMFF94_ENERGY>
107.9098

> <PUBCHEM_FEATURE_SELFOVERLAP>
55.875

> <PUBCHEM_SHAPE_FINGERPRINT>
10062212 137 18335696122693463847
10646746 165 18272647965371836874
10863032 1 17988637545007337208
10948715 1 17386020471967582560
10967382 1 18266735775464400023
11132069 177 18337663140083789184
11578080 2 17416114212899924147
12011746 2 18341610352499402412
12236239 1 17895195476865317486
12403814 3 17676488311522186517
12553582 1 18408600344700145713
12633257 1 18057875866534996136
13140716 1 18340774848306248913
13221675 6 18408326570589078391
13224815 77 18334292102010414307
13538477 17 18334576836861995462
14115302 16 18409174281427752372
14178342 30 18265315360838700915
14223421 5 18055062422380061209
14713325 29 16088725609307308252
14790565 3 18196105338919588352
15309172 13 18338525131889000377
1601671 61 18342741767439535014
16752209 62 18410001153043005215
16945 1 18335976562614516319
17349148 13 18201140088951982007
17804303 29 18272932704513116976
1813 80 17314781902930074850
18186145 218 18131066009390022145
18981168 100 14562800105903830061
19862831 5 18410576201407518575
20600515 1 18130802122320660924
20691752 17 18114453547950537145
20739085 24 17761525515582457049
20905425 154 18125440808954704550
21267235 1 18410864265064794031
23184049 29 18196929092187136935
2334 1 18123189279671146133
23402539 116 18341326704506448020
23419403 2 16614405278904289625
23493267 7 17676214554184864777
23557571 272 17986941032819954747
23559900 14 18272373058296725892
2748010 2 18268427026000359845
335352 9 18339641135690039965
34934 24 18335979766322560932
350125 39 18411422813267216745
474 4 17822011995156933575
5104073 3 18411415094440950898
70251023 43 18051137183223544795
7364860 26 18197776807110028104
74978 22 18338517546660218429
7832392 63 18411412912708080097
9709674 26 18198333155682527455
9981440 41 17401201669488984456

> <PUBCHEM_SHAPE_MULTIPOLES>
470.43
7.28
2.62
1.4
0.42
0.2
0.15
-0.21
-0.86
0.9
0.02
-0.36
-0.2
-0.45

> <PUBCHEM_SHAPE_SELFOVERLAP>
1014.961

> <PUBCHEM_SHAPE_VOLUME>
255.6

> <PUBCHEM_COORDINATE_TYPE>
2
5
10

$$$$
