649849
  -OEChem-01171809153D

 36 37  0     0  0  0  0  0  0999 V2000
    1.9068    2.4579    0.0219 O   0  0  0  0  0  0  0  0  0  0  0  0
    5.3302   -0.8532   -0.1082 O   0  0  0  0  0  0  0  0  0  0  0  0
   -0.4202    1.5466    0.8880 O   0  0  0  0  0  0  0  0  0  0  0  0
   -0.9915   -0.4980   -0.1135 N   0  0  0  0  0  0  0  0  0  0  0  0
   -3.0692   -1.5112   -0.6123 N   0  0  0  0  0  0  0  0  0  0  0  0
    1.3153    0.1427    0.2353 C   0  0  0  0  0  0  0  0  0  0  0  0
    2.2710    1.1454    0.0703 C   0  0  0  0  0  0  0  0  0  0  0  0
    1.7089   -1.1945    0.2856 C   0  0  0  0  0  0  0  0  0  0  0  0
   -0.0980    0.4702    0.3618 C   0  0  0  0  0  0  0  0  0  0  0  0
    3.6203    0.8107   -0.0446 C   0  0  0  0  0  0  0  0  0  0  0  0
    4.0138   -0.5266    0.0057 C   0  0  0  0  0  0  0  0  0  0  0  0
    3.0580   -1.5291    0.1708 C   0  0  0  0  0  0  0  0  0  0  0  0
   -2.3924   -0.4612   -0.0975 C   0  0  0  0  0  0  0  0  0  0  0  0
   -5.1172   -0.3556   -0.0509 C   0  0  0  0  0  0  0  0  0  0  0  0
   -2.9948    0.6594    0.4494 C   0  0  0  0  0  0  0  0  0  0  0  0
   -4.3844    0.7055    0.4693 C   0  0  0  0  0  0  0  0  0  0  0  0
   -4.4182   -1.4307   -0.5755 C   0  0  0  0  0  0  0  0  0  0  0  0
   -6.6043   -0.3375   -0.0432 C   0  0  0  0  0  0  0  0  0  0  0  0
    1.6031    2.9987   -1.2621 C   0  0  0  0  0  0  0  0  0  0  0  0
    5.6626   -2.2394   -0.0501 C   0  0  0  0  0  0  0  0  0  0  0  0
    1.0046   -2.0048    0.4510 H   0  0  0  0  0  0  0  0  0  0  0  0
    4.3664    1.5911   -0.1722 H   0  0  0  0  0  0  0  0  0  0  0  0
    3.2957   -2.5861    0.2264 H   0  0  0  0  0  0  0  0  0  0  0  0
   -0.6232   -1.3313   -0.5630 H   0  0  0  0  0  0  0  0  0  0  0  0
   -2.5048    1.5201    0.8714 H   0  0  0  0  0  0  0  0  0  0  0  0
   -4.8870    1.5707    0.8934 H   0  0  0  0  0  0  0  0  0  0  0  0
   -4.9336   -2.2895   -0.9944 H   0  0  0  0  0  0  0  0  0  0  0  0
   -6.9814   -0.7618    0.8926 H   0  0  0  0  0  0  0  0  0  0  0  0
   -6.9862    0.6840   -0.1446 H   0  0  0  0  0  0  0  0  0  0  0  0
   -7.0113   -0.9168   -0.8790 H   0  0  0  0  0  0  0  0  0  0  0  0
    0.7911    2.4410   -1.7394 H   0  0  0  0  0  0  0  0  0  0  0  0
    2.4920    2.9856   -1.9007 H   0  0  0  0  0  0  0  0  0  0  0  0
    1.2834    4.0359   -1.1297 H   0  0  0  0  0  0  0  0  0  0  0  0
    6.7495   -2.3161   -0.1593 H   0  0  0  0  0  0  0  0  0  0  0  0
    5.2179   -2.7953   -0.8825 H   0  0  0  0  0  0  0  0  0  0  0  0
    5.4077   -2.6738    0.9225 H   0  0  0  0  0  0  0  0  0  0  0  0
  1  7  1  0  0  0  0
  1 19  1  0  0  0  0
  2 11  1  0  0  0  0
  2 20  1  0  0  0  0
  3  9  2  0  0  0  0
  4  9  1  0  0  0  0
  4 13  1  0  0  0  0
  4 24  1  0  0  0  0
  5 13  2  0  0  0  0
  5 17  1  0  0  0  0
  6  7  2  0  0  0  0
  6  8  1  0  0  0  0
  6  9  1  0  0  0  0
  7 10  1  0  0  0  0
  8 12  2  0  0  0  0
  8 21  1  0  0  0  0
 10 11  2  0  0  0  0
 10 22  1  0  0  0  0
 11 12  1  0  0  0  0
 12 23  1  0  0  0  0
 13 15  1  0  0  0  0
 14 16  1  0  0  0  0
 14 17  2  0  0  0  0
 14 18  1  0  0  0  0
 15 16  2  0  0  0  0
 15 25  1  0  0  0  0
 16 26  1  0  0  0  0
 17 27  1  0  0  0  0
 18 28  1  0  0  0  0
 18 29  1  0  0  0  0
 18 30  1  0  0  0  0
 19 31  1  0  0  0  0
 19 32  1  0  0  0  0
 19 33  1  0  0  0  0
 20 34  1  0  0  0  0
 20 35  1  0  0  0  0
 20 36  1  0  0  0  0
M  END
> <PUBCHEM_COMPOUND_CID>
649849

> <PUBCHEM_CONFORMER_RMSD>
0.8

> <PUBCHEM_CONFORMER_DIVERSEORDER>
3
6
2
5
4
1

> <PUBCHEM_MMFF94_PARTIAL_CHARGES>
27
1 -0.36
10 -0.15
11 0.08
12 -0.15
13 0.43
14 -0.14
15 -0.15
16 -0.15
17 0.16
18 0.14
19 0.28
2 -0.36
20 0.28
21 0.15
22 0.15
23 0.15
24 0.37
25 0.15
26 0.15
27 0.15
3 -0.57
4 -0.55
5 -0.62
6 0.09
7 0.08
8 -0.15
9 0.54

> <PUBCHEM_EFFECTIVE_ROTOR_COUNT>
5

> <PUBCHEM_PHARMACOPHORE_FEATURES>
6
1 1 acceptor
1 2 acceptor
1 3 acceptor
1 4 donor
6 5 13 14 15 16 17 rings
6 6 7 8 10 11 12 rings

> <PUBCHEM_HEAVY_ATOM_COUNT>
20

> <PUBCHEM_ATOM_DEF_STEREO_COUNT>
0

> <PUBCHEM_ATOM_UDEF_STEREO_COUNT>
0

> <PUBCHEM_BOND_DEF_STEREO_COUNT>
0

> <PUBCHEM_BOND_UDEF_STEREO_COUNT>
0

> <PUBCHEM_ISOTOPIC_ATOM_COUNT>
0

> <PUBCHEM_COMPONENT_COUNT>
1

> <PUBCHEM_CACTVS_TAUTO_COUNT>
3

> <PUBCHEM_CONFORMER_ID>
0009EA7900000003

> <PUBCHEM_MMFF94_ENERGY>
84.0537

> <PUBCHEM_FEATURE_SELFOVERLAP>
30.455

> <PUBCHEM_SHAPE_FINGERPRINT>
10366900 7 16950280698328887825
11471102 20 18335421296188899408
12107183 9 17766002692776381019
12166972 35 18343022198533945593
12236239 1 18273216387018576475
12553582 1 18262504914813590362
13167823 11 18341610451684726023
13862211 1 18336264536188469594
14170010 4 18408602595521692592
14341114 176 18410296934370896019
14576447 43 18409166580799557234
15188451 53 15051432965240518685
15196674 1 18342174492074271050
17492 89 18193557989716379751
17844677 252 18334301985373837953
1813 80 18337402539038358902
18186145 218 17749661987034353665
18222031 100 18408604730489301274
18681886 176 18272644679875089834
19784866 240 18271813401538904011
200 152 18272369763007225170
20612939 158 18261679254395023613
20645477 70 18410856572546056870
21267235 1 18341338820298317138
21478907 32 18119526527798984522
21641784 216 17532109210896998612
21709351 56 18408597059508899317
221357 26 18187078438707214053
221490 88 18191031294625555330
2255824 54 18334013938532577626
23402539 116 18339920420682010446
23557571 272 15410351986738514817
23558518 356 17392475906856415562
23559900 14 18338229470508619721
2916195 48 11747236683466806854
29717793 49 18131351903661038813
3004659 81 18410852170636900427
335352 9 18412544305936376783
4073 2 18115591585524791890
4214541 1 18413388718392933265
46194498 28 17603867844465800044
465052 167 18343025501205501495
474 4 17897726689496982965
5104073 3 18059578052822972475
5281201 14 18113613508556541693
542803 24 13695864822924657711
559249 180 18270679762602244843
633830 44 17895185671291430937
67856867 119 18198900490613331585
77779 3 18411699932867352019
8863177 126 17896616148699283219
9709674 26 18190744326433295243
9971528 1 18409163337967457760
9981440 41 17402043895380114856

> <PUBCHEM_SHAPE_MULTIPOLES>
384.02
13.3
2.32
0.78
8.54
1.25
0.07
-6.79
0.69
-2.67
0.57
0.11
0.23
-0.76

> <PUBCHEM_SHAPE_SELFOVERLAP>
819.561

> <PUBCHEM_SHAPE_VOLUME>
212.7

> <PUBCHEM_COORDINATE_TYPE>
2
5
10

$$$$
