3241898
  -OEChem-01171809173D

 56 59  0     1  0  0  0  0  0999 V2000
   -2.1046   -4.4338    1.9020 Cl  0  0  0  0  0  0  0  0  0  0  0  0
    0.9714   -0.2840   -0.6086 S   0  0  0  0  0  0  0  0  0  0  0  0
    6.1447    0.9134   -1.6029 O   0  0  0  0  0  0  0  0  0  0  0  0
    3.2515   -1.6968    1.4160 O   0  0  0  0  0  0  0  0  0  0  0  0
    4.1959    0.0765    0.2523 N   0  0  0  0  0  0  0  0  0  0  0  0
   -1.7535    0.1608   -0.3639 N   0  0  0  0  0  0  0  0  0  0  0  0
   -0.2081    2.0086   -0.3107 N   0  0  0  0  0  0  0  0  0  0  0  0
   -4.1796    0.5232   -0.1217 N   0  0  0  0  0  0  0  0  0  0  0  0
   -1.2270    4.1325   -0.0157 N   0  0  0  0  0  0  0  0  0  0  0  0
   -2.5892    4.5984    0.1545 N   0  0  0  0  0  0  0  0  0  0  0  0
    4.1096    1.3996   -0.3749 C   0  0  0  0  0  0  0  0  0  0  0  0
    5.5447   -0.4892    0.2779 C   0  0  0  0  0  0  0  0  0  0  0  0
    1.8265    0.1367    0.9383 C   0  0  2  0  0  0  0  0  0  0  0  0
    3.1510   -0.5826    0.8962 C   0  0  0  0  0  0  0  0  0  0  0  0
    4.8010    1.3856   -1.7323 C   0  0  0  0  0  0  0  0  0  0  0  0
    6.1720   -0.4278   -1.1075 C   0  0  0  0  0  0  0  0  0  0  0  0
    1.0034   -0.2957    2.1464 C   0  0  0  0  0  0  0  0  0  0  0  0
   -0.4697    0.7357   -0.4140 C   0  0  0  0  0  0  0  0  0  0  0  0
    1.7140   -0.0006    3.4629 C   0  0  0  0  0  0  0  0  0  0  0  0
   -2.8896    1.0011   -0.1744 C   0  0  0  0  0  0  0  0  0  0  0  0
   -2.6392    2.3185   -0.0608 C   0  0  0  0  0  0  0  0  0  0  0  0
   -1.9436   -1.2476   -0.5045 C   0  0  0  0  0  0  0  0  0  0  0  0
   -1.2752    2.8365   -0.1359 C   0  0  0  0  0  0  0  0  0  0  0  0
   -3.3880    3.5598    0.1289 C   0  0  0  0  0  0  0  0  0  0  0  0
   -1.9358   -2.0731    0.6225 C   0  0  0  0  0  0  0  0  0  0  0  0
   -2.1383   -1.8062   -1.7702 C   0  0  0  0  0  0  0  0  0  0  0  0
   -2.3154   -4.0030   -0.7804 C   0  0  0  0  0  0  0  0  0  0  0  0
   -2.1216   -3.4487    0.4848 C   0  0  0  0  0  0  0  0  0  0  0  0
   -2.3239   -3.1817   -1.9078 C   0  0  0  0  0  0  0  0  0  0  0  0
   -4.8667    3.6557    0.2745 C   0  0  0  0  0  0  0  0  0  0  0  0
   -2.5167   -5.4716   -0.9707 C   0  0  0  0  0  0  0  0  0  0  0  0
    4.6219    2.0938    0.3017 H   0  0  0  0  0  0  0  0  0  0  0  0
    3.0902    1.7554   -0.5119 H   0  0  0  0  0  0  0  0  0  0  0  0
    6.1232    0.1201    0.9823 H   0  0  0  0  0  0  0  0  0  0  0  0
    5.5350   -1.5183    0.6489 H   0  0  0  0  0  0  0  0  0  0  0  0
    1.9743    1.2155    1.0266 H   0  0  0  0  0  0  0  0  0  0  0  0
    4.2631    0.7524   -2.4479 H   0  0  0  0  0  0  0  0  0  0  0  0
    4.8398    2.3986   -2.1448 H   0  0  0  0  0  0  0  0  0  0  0  0
    7.2173   -0.7486   -1.0620 H   0  0  0  0  0  0  0  0  0  0  0  0
    5.6491   -1.0845   -1.8129 H   0  0  0  0  0  0  0  0  0  0  0  0
    0.7769   -1.3690    2.1137 H   0  0  0  0  0  0  0  0  0  0  0  0
    0.0434    0.2329    2.1689 H   0  0  0  0  0  0  0  0  0  0  0  0
    1.9742    1.0603    3.5371 H   0  0  0  0  0  0  0  0  0  0  0  0
    2.6270   -0.5880    3.5900 H   0  0  0  0  0  0  0  0  0  0  0  0
    1.0530   -0.2414    4.3022 H   0  0  0  0  0  0  0  0  0  0  0  0
   -1.7909   -1.6370    1.6086 H   0  0  0  0  0  0  0  0  0  0  0  0
   -2.1467   -1.1761   -2.6561 H   0  0  0  0  0  0  0  0  0  0  0  0
   -4.9618    1.1486    0.0068 H   0  0  0  0  0  0  0  0  0  0  0  0
   -4.3510   -0.4692   -0.2152 H   0  0  0  0  0  0  0  0  0  0  0  0
   -2.4733   -3.5957   -2.9015 H   0  0  0  0  0  0  0  0  0  0  0  0
   -5.1930    3.0792    1.1438 H   0  0  0  0  0  0  0  0  0  0  0  0
   -5.1612    4.6992    0.4185 H   0  0  0  0  0  0  0  0  0  0  0  0
   -5.3539    3.2780   -0.6281 H   0  0  0  0  0  0  0  0  0  0  0  0
   -3.4111   -5.8097   -0.4370 H   0  0  0  0  0  0  0  0  0  0  0  0
   -2.6538   -5.7314   -2.0262 H   0  0  0  0  0  0  0  0  0  0  0  0
   -1.6449   -6.0291   -0.6126 H   0  0  0  0  0  0  0  0  0  0  0  0
  1 28  1  0  0  0  0
  2 13  1  0  0  0  0
  2 18  1  0  0  0  0
  3 15  1  0  0  0  0
  3 16  1  0  0  0  0
  4 14  2  0  0  0  0
  5 11  1  0  0  0  0
  5 12  1  0  0  0  0
  5 14  1  0  0  0  0
  6 18  1  0  0  0  0
  6 20  1  0  0  0  0
  6 22  1  0  0  0  0
  7 18  2  0  0  0  0
  7 23  1  0  0  0  0
  8 20  1  0  0  0  0
  8 48  1  0  0  0  0
  8 49  1  0  0  0  0
  9 10  1  0  0  0  0
  9 23  2  0  0  0  0
 10 24  2  0  0  0  0
 11 15  1  0  0  0  0
 11 32  1  0  0  0  0
 11 33  1  0  0  0  0
 12 16  1  0  0  0  0
 12 34  1  0  0  0  0
 12 35  1  0  0  0  0
 13 14  1  0  0  0  0
 13 17  1  0  0  0  0
 13 36  1  0  0  0  0
 15 37  1  0  0  0  0
 15 38  1  0  0  0  0
 16 39  1  0  0  0  0
 16 40  1  0  0  0  0
 17 19  1  0  0  0  0
 17 41  1  0  0  0  0
 17 42  1  0  0  0  0
 19 43  1  0  0  0  0
 19 44  1  0  0  0  0
 19 45  1  0  0  0  0
 20 21  2  0  0  0  0
 21 23  1  0  0  0  0
 21 24  1  0  0  0  0
 22 25  2  0  0  0  0
 22 26  1  0  0  0  0
 24 30  1  0  0  0  0
 25 28  1  0  0  0  0
 25 46  1  0  0  0  0
 26 29  2  0  0  0  0
 26 47  1  0  0  0  0
 27 28  2  0  0  0  0
 27 29  1  0  0  0  0
 27 31  1  0  0  0  0
 29 50  1  0  0  0  0
 30 51  1  0  0  0  0
 30 52  1  0  0  0  0
 30 53  1  0  0  0  0
 31 54  1  0  0  0  0
 31 55  1  0  0  0  0
 31 56  1  0  0  0  0
M  END
> <PUBCHEM_COMPOUND_CID>
3241898

> <PUBCHEM_CONFORMER_RMSD>
1

> <PUBCHEM_CONFORMER_DIVERSEORDER>
10
26
9
56
27
71
20
15
35
47
52
36
30
72
54
13
7
39
28
21
22
70
76
37
3
61
19
38
48
66
17
62
4
14
59
1
65
69
51
73
45
53
41
63
29
75
57
23
18
8
74
55
34
42
58
50
44
77
31
5
6
67
40
11
16
32
43
49
64
2
33
60
46
12
24
25
68

> <PUBCHEM_MMFF94_PARTIAL_CHARGES>
34
1 -0.18
10 -0.45
11 0.3
12 0.3
13 0.29
14 0.57
15 0.28
16 0.28
18 0.64
2 -0.37
20 0.2
21 0.03
22 0.1
23 0.65
24 0.37
25 -0.15
26 -0.15
27 -0.14
28 0.18
29 -0.15
3 -0.56
30 0.06
31 0.14
4 -0.57
46 0.15
47 0.15
48 0.4
49 0.4
5 -0.66
50 0.15
6 -0.25
7 -0.66
8 -0.9
9 -0.45

> <PUBCHEM_EFFECTIVE_ROTOR_COUNT>
7.2

> <PUBCHEM_PHARMACOPHORE_FEATURES>
12
1 10 acceptor
1 19 hydrophobe
1 3 acceptor
1 4 acceptor
1 8 cation
1 8 donor
3 6 7 18 cation
3 7 9 23 cation
5 9 10 21 23 24 rings
6 22 25 26 27 28 29 rings
6 3 5 11 12 15 16 rings
6 6 7 18 20 21 23 rings

> <PUBCHEM_HEAVY_ATOM_COUNT>
31

> <PUBCHEM_ATOM_DEF_STEREO_COUNT>
0

> <PUBCHEM_ATOM_UDEF_STEREO_COUNT>
1

> <PUBCHEM_BOND_DEF_STEREO_COUNT>
0

> <PUBCHEM_BOND_UDEF_STEREO_COUNT>
0

> <PUBCHEM_ISOTOPIC_ATOM_COUNT>
0

> <PUBCHEM_COMPONENT_COUNT>
1

> <PUBCHEM_CACTVS_TAUTO_COUNT>
3

> <PUBCHEM_CONFORMER_ID>
003177AA0000000A

> <PUBCHEM_MMFF94_ENERGY>
116.0813

> <PUBCHEM_FEATURE_SELFOVERLAP>
61.174

> <PUBCHEM_SHAPE_FINGERPRINT>
10411042 1 18051976123474989983
10764073 3 13105684338833992026
107951 10 18268997487825377519
11049842 53 18052240809704096130
11607047 403 18045519512824915195
11621639 254 17613473299244463852
12160290 23 18118652540366081755
12166972 35 12174749842049648561
12553582 1 18192700374783290059
12714826 92 17917153904861274710
12788726 201 18336253626660294811
13690498 29 18270970171216608574
13757389 114 18341621412451802357
13911987 19 18263347128479280301
14114206 34 17897427596643493487
14251757 5 18411420622010852548
14363568 33 17326626198018105154
14790565 3 18266460914780192269
15131766 46 16227196845125777700
15230672 131 18123758557014163814
15297060 5 18056200167749489697
15842332 3 17969482867399279970
15876981 60 18263089979870098292
16991981 162 18340217344471832456
17909252 39 17905335370554419408
1813 80 17768825495391071390
18785283 64 17473541348567657763
19319366 153 17749955432101223880
20101258 96 18123195855292281211
20505436 4 17968949578421406848
21033650 10 17058655054338214952
21120745 212 18265061416707826525
21781055 127 17556016884098675288
23366157 5 17328305741132287141
23559900 14 17691675002491336647
23598288 3 18263658392683997543
249057 3 18121218680705474406
340366 18 18048594816540848966
3610482 184 18041582290424111364
4058900 60 17908153083411870809
44062 13 18343308059299701118
5265222 85 18125159334336845614
613672 6 17693910274679997215
621550 5 17701827811035555082
6700243 42 17769131078330198390
70251023 43 17546726414518483527

> <PUBCHEM_SHAPE_MULTIPOLES>
602.06
10.44
6.71
1.97
19.42
1.29
-1.31
-1.88
3.63
-13.38
0.38
1.34
1.39
-1.48

> <PUBCHEM_SHAPE_SELFOVERLAP>
1265.585

> <PUBCHEM_SHAPE_VOLUME>
343.7

> <PUBCHEM_COORDINATE_TYPE>
2
5
10

$$$$
