20920428
  -OEChem-01171810063D

 68 72  0     0  0  0  0  0  0999 V2000
    4.5256    0.6530   -2.0844 O   0  0  0  0  0  0  0  0  0  0  0  0
   -6.9009   -3.6695    0.1538 O   0  0  0  0  0  0  0  0  0  0  0  0
    0.7046    1.1772   -1.3611 N   0  0  0  0  0  0  0  0  0  0  0  0
    4.3926   -1.6356   -1.6799 N   0  0  0  0  0  0  0  0  0  0  0  0
    0.0856    3.2703   -0.2806 N   0  0  0  0  0  0  0  0  0  0  0  0
   -3.3049    0.5365    0.1703 N   0  0  0  0  0  0  0  0  0  0  0  0
   -2.1045    0.3786   -0.4230 N   0  0  0  0  0  0  0  0  0  0  0  0
   -0.8285    4.1398    0.4600 N   0  0  0  0  0  0  0  0  0  0  0  0
    2.5726   -0.5327   -2.7812 C   0  0  0  0  0  0  0  0  0  0  0  0
    2.1085    0.8053   -3.3528 C   0  0  0  0  0  0  0  0  0  0  0  0
    1.5580   -1.0930   -1.7865 C   0  0  0  0  0  0  0  0  0  0  0  0
    1.6576    1.8017   -2.2828 C   0  0  0  0  0  0  0  0  0  0  0  0
    1.1397   -0.0735   -0.7273 C   0  0  0  0  0  0  0  0  0  0  0  0
    3.9270   -0.4176   -2.1450 C   0  0  0  0  0  0  0  0  0  0  0  0
   -0.1970    1.9799   -0.6524 C   0  0  0  0  0  0  0  0  0  0  0  0
   -1.4810    1.5563   -0.2459 C   0  0  0  0  0  0  0  0  0  0  0  0
   -2.3523    2.4447    0.4830 C   0  0  0  0  0  0  0  0  0  0  0  0
   -3.5078    1.7633    0.7334 C   0  0  0  0  0  0  0  0  0  0  0  0
   -2.0680    3.7487    0.8594 C   0  0  0  0  0  0  0  0  0  0  0  0
    5.6811   -1.7995   -1.0465 C   0  0  0  0  0  0  0  0  0  0  0  0
   -4.7577    2.1329    1.4291 C   0  0  0  0  0  0  0  0  0  0  0  0
   -4.2119   -0.5244    0.1658 C   0  0  0  0  0  0  0  0  0  0  0  0
    5.6040   -1.6104    0.4409 C   0  0  0  0  0  0  0  0  0  0  0  0
   -2.9202    4.7059    1.6081 C   0  0  0  0  0  0  0  0  0  0  0  0
    5.7855   -0.3436    0.9831 C   0  0  0  0  0  0  0  0  0  0  0  0
   -5.5748   -0.2598    0.1742 C   0  0  0  0  0  0  0  0  0  0  0  0
   -3.7387   -1.8296    0.1530 C   0  0  0  0  0  0  0  0  0  0  0  0
    5.3503   -2.7038    1.2608 C   0  0  0  0  0  0  0  0  0  0  0  0
    5.7125   -0.1677    2.3650 C   0  0  0  0  0  0  0  0  0  0  0  0
   -6.4813   -1.3199    0.1698 C   0  0  0  0  0  0  0  0  0  0  0  0
   -4.6452   -2.8899    0.1487 C   0  0  0  0  0  0  0  0  0  0  0  0
    5.2773   -2.5278    2.6425 C   0  0  0  0  0  0  0  0  0  0  0  0
   -6.0165   -2.6350    0.1571 C   0  0  0  0  0  0  0  0  0  0  0  0
    5.4584   -1.2598    3.1947 C   0  0  0  0  0  0  0  0  0  0  0  0
    5.9074    1.1876    2.9561 C   0  0  0  0  0  0  0  0  0  0  0  0
   -6.3573   -4.9886    0.1407 C   0  0  0  0  0  0  0  0  0  0  0  0
    2.6789   -1.2412   -3.6139 H   0  0  0  0  0  0  0  0  0  0  0  0
    1.2566    0.6123   -4.0190 H   0  0  0  0  0  0  0  0  0  0  0  0
    2.8870    1.2629   -3.9750 H   0  0  0  0  0  0  0  0  0  0  0  0
    0.6604   -1.3842   -2.3495 H   0  0  0  0  0  0  0  0  0  0  0  0
    1.9030   -2.0035   -1.2866 H   0  0  0  0  0  0  0  0  0  0  0  0
    2.5126    2.1906   -1.7184 H   0  0  0  0  0  0  0  0  0  0  0  0
    1.1913    2.6561   -2.7895 H   0  0  0  0  0  0  0  0  0  0  0  0
    1.9781    0.1373   -0.0514 H   0  0  0  0  0  0  0  0  0  0  0  0
    0.3506   -0.5235   -0.1157 H   0  0  0  0  0  0  0  0  0  0  0  0
    3.8435   -2.4763   -1.8286 H   0  0  0  0  0  0  0  0  0  0  0  0
    6.0426   -2.8054   -1.2892 H   0  0  0  0  0  0  0  0  0  0  0  0
    6.3948   -1.0922   -1.4856 H   0  0  0  0  0  0  0  0  0  0  0  0
   -4.5636    2.8709    2.2110 H   0  0  0  0  0  0  0  0  0  0  0  0
   -5.2076    1.3159    1.9995 H   0  0  0  0  0  0  0  0  0  0  0  0
   -5.4803    2.5937    0.7488 H   0  0  0  0  0  0  0  0  0  0  0  0
   -2.4580    5.6992    1.6162 H   0  0  0  0  0  0  0  0  0  0  0  0
   -3.0311    4.3903    2.6492 H   0  0  0  0  0  0  0  0  0  0  0  0
   -3.9019    4.8120    1.1380 H   0  0  0  0  0  0  0  0  0  0  0  0
    5.9845    0.5080    0.3378 H   0  0  0  0  0  0  0  0  0  0  0  0
   -6.0118    0.7202    0.0422 H   0  0  0  0  0  0  0  0  0  0  0  0
   -2.6764   -2.0598    0.1581 H   0  0  0  0  0  0  0  0  0  0  0  0
    5.2053   -3.6954    0.8413 H   0  0  0  0  0  0  0  0  0  0  0  0
   -7.5486   -1.1166    0.1462 H   0  0  0  0  0  0  0  0  0  0  0  0
   -4.2163   -3.8861    0.1414 H   0  0  0  0  0  0  0  0  0  0  0  0
    5.0783   -3.3780    3.2884 H   0  0  0  0  0  0  0  0  0  0  0  0
    5.3972   -1.1357    4.2727 H   0  0  0  0  0  0  0  0  0  0  0  0
    6.6243    1.7729    2.3702 H   0  0  0  0  0  0  0  0  0  0  0  0
    6.3035    1.1233    3.9752 H   0  0  0  0  0  0  0  0  0  0  0  0
    4.9544    1.7252    2.9846 H   0  0  0  0  0  0  0  0  0  0  0  0
   -7.2014   -5.6860    0.1388 H   0  0  0  0  0  0  0  0  0  0  0  0
   -5.7838   -5.1785   -0.7730 H   0  0  0  0  0  0  0  0  0  0  0  0
   -5.7758   -5.1932    1.0460 H   0  0  0  0  0  0  0  0  0  0  0  0
  1 14  2  0  0  0  0
  2 33  1  0  0  0  0
  2 36  1  0  0  0  0
  3 12  1  0  0  0  0
  3 13  1  0  0  0  0
  3 15  1  0  0  0  0
  4 14  1  0  0  0  0
  4 20  1  0  0  0  0
  4 46  1  0  0  0  0
  5  8  1  0  0  0  0
  5 15  2  0  0  0  0
  6  7  1  0  0  0  0
  6 18  1  0  0  0  0
  6 22  1  0  0  0  0
  7 16  2  0  0  0  0
  8 19  2  0  0  0  0
  9 10  1  0  0  0  0
  9 11  1  0  0  0  0
  9 14  1  0  0  0  0
  9 37  1  0  0  0  0
 10 12  1  0  0  0  0
 10 38  1  0  0  0  0
 10 39  1  0  0  0  0
 11 13  1  0  0  0  0
 11 40  1  0  0  0  0
 11 41  1  0  0  0  0
 12 42  1  0  0  0  0
 12 43  1  0  0  0  0
 13 44  1  0  0  0  0
 13 45  1  0  0  0  0
 15 16  1  0  0  0  0
 16 17  1  0  0  0  0
 17 18  2  0  0  0  0
 17 19  1  0  0  0  0
 18 21  1  0  0  0  0
 19 24  1  0  0  0  0
 20 23  1  0  0  0  0
 20 47  1  0  0  0  0
 20 48  1  0  0  0  0
 21 49  1  0  0  0  0
 21 50  1  0  0  0  0
 21 51  1  0  0  0  0
 22 26  2  0  0  0  0
 22 27  1  0  0  0  0
 23 25  1  0  0  0  0
 23 28  2  0  0  0  0
 24 52  1  0  0  0  0
 24 53  1  0  0  0  0
 24 54  1  0  0  0  0
 25 29  2  0  0  0  0
 25 55  1  0  0  0  0
 26 30  1  0  0  0  0
 26 56  1  0  0  0  0
 27 31  2  0  0  0  0
 27 57  1  0  0  0  0
 28 32  1  0  0  0  0
 28 58  1  0  0  0  0
 29 34  1  0  0  0  0
 29 35  1  0  0  0  0
 30 33  2  0  0  0  0
 30 59  1  0  0  0  0
 31 33  1  0  0  0  0
 31 60  1  0  0  0  0
 32 34  2  0  0  0  0
 32 61  1  0  0  0  0
 34 62  1  0  0  0  0
 35 63  1  0  0  0  0
 35 64  1  0  0  0  0
 35 65  1  0  0  0  0
 36 66  1  0  0  0  0
 36 67  1  0  0  0  0
 36 68  1  0  0  0  0
M  END
> <PUBCHEM_COMPOUND_CID>
20920428

> <PUBCHEM_CONFORMER_RMSD>
1

> <PUBCHEM_CONFORMER_DIVERSEORDER>
8
111
362
124
250
232
368
235
227
94
100
246
65
284
228
244
102
387
355
292
359
135
184
66
209
160
196
259
212
390
71
47
215
195
128
138
150
28
275
274
332
281
377
334
93
236
161
114
148
174
392
291
379
382
4
207
241
310
89
283
46
396
61
188
179
171
108
363
98
142
302
315
234
343
159
211
344
309
366
324
395
388
210
87
268
258
57
277
216
384
378
103
74
158
200
381
77
300
42
294
36
130
141
13
369
311
154
247
358
202
110
391
352
133
5
350
92
99
180
404
329
9
397
178
304
356
190
203
295
29
223
267
152
349
48
287
63
260
229
380
307
403
49
318
320
201
83
112
282
147
59
181
376
335
328
156
58
338
372
214
298
199
208
296
365
326
364
224
120
95
164
21
67
198
104
55
127
400
151
322
185
347
126
101
90
243
360
86
299
286
252
367
341
353
26
189
169
231
162
145
237
333
342
129
155
240
327
205
7
306
193
69
331
317
278
271
249
119
251
72
383
263
60
398
389
191
206
319
173
204
3
297
280
354
1
53
176
197
30
285
289
116
374
361
233
269
375
323
183
301
293
34
217
242
88
172
290
219
131
314
213
167
194
272
339
19
136
182
134
54
37
325
84
144
288
253
23
357
220
121
346
96
170
157
345
175
221
109
132
97
91
113
56
340
165
276
140
118
177
73
254
385
316
303
81
163
166
255
337
143
106
153
386
261
75
308
321
262
117
15
238
17
80
373
44
312
245
51
348
122
11
265
149
394
50
279
192
10
313
264
123
186
226
18
6
305
76
393
52
371
125
22
14
32
168
222
27
399
248
70
24
2
225
273
25
139
370
45
257
41
20
40
115
79
266
146
78
31
351
85
82
402
64
39
107
38
68
270
256
218
33
105
62
401
187
230
239
35
137
43
330
16
336
12

> <PUBCHEM_MMFF94_PARTIAL_CHARGES>
42
1 -0.57
12 0.37
13 0.37
14 0.57
15 0.41
16 0.29
18 -0.33
19 0.17
2 -0.36
20 0.44
21 0.18
22 -0.02
23 -0.14
24 0.14
25 -0.15
26 -0.15
27 -0.15
28 -0.15
29 -0.14
3 -0.84
30 -0.15
31 -0.15
32 -0.15
33 0.08
34 -0.15
35 0.14
36 0.28
4 -0.73
46 0.37
5 -0.31
55 0.15
56 0.15
57 0.15
58 0.15
59 0.15
6 0.59
60 0.15
61 0.15
62 0.15
7 -0.71
8 -0.31
9 0.06

> <PUBCHEM_EFFECTIVE_ROTOR_COUNT>
8.2

> <PUBCHEM_PHARMACOPHORE_FEATURES>
11
1 1 acceptor
1 2 acceptor
1 4 donor
1 7 acceptor
1 8 acceptor
3 3 5 15 cation
5 6 7 16 17 18 rings
6 22 26 27 30 31 33 rings
6 23 25 28 29 32 34 rings
6 3 9 10 11 12 13 rings
6 5 8 15 16 17 19 rings

> <PUBCHEM_HEAVY_ATOM_COUNT>
36

> <PUBCHEM_ATOM_DEF_STEREO_COUNT>
0

> <PUBCHEM_ATOM_UDEF_STEREO_COUNT>
0

> <PUBCHEM_BOND_DEF_STEREO_COUNT>
0

> <PUBCHEM_BOND_UDEF_STEREO_COUNT>
0

> <PUBCHEM_ISOTOPIC_ATOM_COUNT>
0

> <PUBCHEM_COMPONENT_COUNT>
1

> <PUBCHEM_CACTVS_TAUTO_COUNT>
2

> <PUBCHEM_CONFORMER_ID>
013F386C00000008

> <PUBCHEM_MMFF94_ENERGY>
130.5216

> <PUBCHEM_FEATURE_SELFOVERLAP>
55.961

> <PUBCHEM_SHAPE_FINGERPRINT>
10079526 769 17458058274980989906
10319926 262 18056760932217775324
10622 236 18040719160067853679
11135926 11 15793454824243405526
11399510 152 18129078075620093234
11991303 11 14204204048165491620
1200032 147 10519441748111656039
12342043 65 17201665280182204694
131258 38 17831296473295515239
13383668 1 17980467181902920575
14068700 675 18114172047346317747
14950920 106 18121197802847856314
15131766 46 14476661010371638626
15320294 125 18116446838721221285
15324884 4 16986612861588962661
18470217 77 18201434719150543081
19304671 126 14057272164829834239
19315092 285 17894903019731603592
20156587 161 17895177901153385323
20156587 76 18195499663084596751
21033648 29 16988852644658360023
21458453 9 17346023580465576126
23559900 14 17554066346202511292
23569914 152 14130989926471835275
3504750 166 18118121372696001166
3882209 13 17341224319827876887
3886686 26 17835234554594182586
397830 11 17917989469141746538
4173938 306 18196078955336188861
4258327 124 12966840192654420769
4435113 14 17703508805405818954
4756261 7 18125988593753208704
50009960 94 18050834809400410015
50080093 196 17678459649497501899
5085150 59 18339077082721580687
5223283 242 12901545694116716854
6058803 2 18117872981927030869
636783 107 17973999850072028579
6697151 62 15502374526541877572
9555976 147 18196085552183662546
9961470 85 17908145370040730927

> <PUBCHEM_SHAPE_MULTIPOLES>
699.24
18.8
5.43
3
0.03
0.8
-0.43
-20.41
10.24
-10.65
2.31
7.84
0.29
-2.22

> <PUBCHEM_SHAPE_SELFOVERLAP>
1517.874

> <PUBCHEM_SHAPE_VOLUME>
380.6

> <PUBCHEM_COORDINATE_TYPE>
2
5
10

$$$$
