9653493
  -OEChem-01171809413D

 50 52  0     0  0  0  0  0  0999 V2000
   -1.5646   -1.2858    0.6716 O   0  0  0  0  0  0  0  0  0  0  0  0
   -3.6166    0.5880    0.7025 O   0  0  0  0  0  0  0  0  0  0  0  0
   -3.7583    0.4323   -1.6198 O   0  0  0  0  0  0  0  0  0  0  0  0
    7.3091   -2.9837    0.0226 O   0  0  0  0  0  0  0  0  0  0  0  0
    5.0462   -3.0351    0.2303 O   0  0  0  0  0  0  0  0  0  0  0  0
    3.9098    1.9972   -0.0876 N   0  0  0  0  0  0  0  0  0  0  0  0
    2.7041    1.4168    0.0690 N   0  0  0  0  0  0  0  0  0  0  0  0
   -1.2912    0.0421    0.5392 C   0  0  0  0  0  0  0  0  0  0  0  0
   -2.2877    0.9928    0.5507 C   0  0  0  0  0  0  0  0  0  0  0  0
    0.3237    1.8159    0.2508 C   0  0  0  0  0  0  0  0  0  0  0  0
    0.0314    0.4588    0.3874 C   0  0  0  0  0  0  0  0  0  0  0  0
   -2.0289    2.3396    0.4177 C   0  0  0  0  0  0  0  0  0  0  0  0
   -0.7065    2.7562    0.2660 C   0  0  0  0  0  0  0  0  0  0  0  0
    1.7023    2.2505    0.0908 C   0  0  0  0  0  0  0  0  0  0  0  0
   -1.1723   -2.1386   -0.4023 C   0  0  0  0  0  0  0  0  0  0  0  0
    5.0786    1.2214   -0.1292 C   0  0  0  0  0  0  0  0  0  0  0  0
   -5.6446   -0.0938   -0.2600 C   0  0  0  0  0  0  0  0  0  0  0  0
    5.0060   -0.1698   -0.0065 C   0  0  0  0  0  0  0  0  0  0  0  0
   -4.2710    0.3203   -0.4976 C   0  0  0  0  0  0  0  0  0  0  0  0
    6.1682   -0.9402   -0.0463 C   0  0  0  0  0  0  0  0  0  0  0  0
    6.3251    1.8342   -0.2920 C   0  0  0  0  0  0  0  0  0  0  0  0
    7.4087   -0.3234   -0.2089 C   0  0  0  0  0  0  0  0  0  0  0  0
    7.4872    1.0637   -0.3319 C   0  0  0  0  0  0  0  0  0  0  0  0
   -2.1175   -3.3195   -0.4646 C   0  0  0  0  0  0  0  0  0  0  0  0
   -6.6328    0.1953   -1.2012 C   0  0  0  0  0  0  0  0  0  0  0  0
   -5.9740   -0.7804    0.9087 C   0  0  0  0  0  0  0  0  0  0  0  0
   -7.9504   -0.2020   -0.9735 C   0  0  0  0  0  0  0  0  0  0  0  0
   -7.2916   -1.1778    1.1362 C   0  0  0  0  0  0  0  0  0  0  0  0
   -8.2797   -0.8885    0.1951 C   0  0  0  0  0  0  0  0  0  0  0  0
    6.0872   -2.3866    0.0828 C   0  0  0  0  0  0  0  0  0  0  0  0
    0.8252   -0.2841    0.3864 H   0  0  0  0  0  0  0  0  0  0  0  0
   -2.8304    3.0715    0.4302 H   0  0  0  0  0  0  0  0  0  0  0  0
   -0.4947    3.8171    0.1604 H   0  0  0  0  0  0  0  0  0  0  0  0
    1.8715    3.3387   -0.0140 H   0  0  0  0  0  0  0  0  0  0  0  0
   -1.2007   -1.6035   -1.3598 H   0  0  0  0  0  0  0  0  0  0  0  0
   -0.1502   -2.4894   -0.2234 H   0  0  0  0  0  0  0  0  0  0  0  0
    4.0465   -0.6653    0.1212 H   0  0  0  0  0  0  0  0  0  0  0  0
    6.4010    2.9144   -0.3888 H   0  0  0  0  0  0  0  0  0  0  0  0
    3.9972    3.0031   -0.1799 H   0  0  0  0  0  0  0  0  0  0  0  0
    8.3382   -0.8846   -0.2450 H   0  0  0  0  0  0  0  0  0  0  0  0
    8.4528    1.5445   -0.4585 H   0  0  0  0  0  0  0  0  0  0  0  0
   -3.1461   -2.9809   -0.6276 H   0  0  0  0  0  0  0  0  0  0  0  0
   -2.1102   -3.8699    0.4820 H   0  0  0  0  0  0  0  0  0  0  0  0
   -1.8383   -4.0020   -1.2721 H   0  0  0  0  0  0  0  0  0  0  0  0
   -6.3937    0.7319   -2.1157 H   0  0  0  0  0  0  0  0  0  0  0  0
   -5.2233   -1.0320    1.6533 H   0  0  0  0  0  0  0  0  0  0  0  0
   -8.7200    0.0235   -1.7058 H   0  0  0  0  0  0  0  0  0  0  0  0
   -7.5480   -1.7153    2.0445 H   0  0  0  0  0  0  0  0  0  0  0  0
   -9.3054   -1.1985    0.3720 H   0  0  0  0  0  0  0  0  0  0  0  0
    7.2436   -3.9586    0.1100 H   0  0  0  0  0  0  0  0  0  0  0  0
  1  8  1  0  0  0  0
  1 15  1  0  0  0  0
  2  9  1  0  0  0  0
  2 19  1  0  0  0  0
  3 19  2  0  0  0  0
  4 30  1  0  0  0  0
  4 50  1  0  0  0  0
  5 30  2  0  0  0  0
  6  7  1  0  0  0  0
  6 16  1  0  0  0  0
  6 39  1  0  0  0  0
  7 14  2  0  0  0  0
  8  9  2  0  0  0  0
  8 11  1  0  0  0  0
  9 12  1  0  0  0  0
 10 11  2  0  0  0  0
 10 13  1  0  0  0  0
 10 14  1  0  0  0  0
 11 31  1  0  0  0  0
 12 13  2  0  0  0  0
 12 32  1  0  0  0  0
 13 33  1  0  0  0  0
 14 34  1  0  0  0  0
 15 24  1  0  0  0  0
 15 35  1  0  0  0  0
 15 36  1  0  0  0  0
 16 18  1  0  0  0  0
 16 21  2  0  0  0  0
 17 19  1  0  0  0  0
 17 25  2  0  0  0  0
 17 26  1  0  0  0  0
 18 20  2  0  0  0  0
 18 37  1  0  0  0  0
 20 22  1  0  0  0  0
 20 30  1  0  0  0  0
 21 23  1  0  0  0  0
 21 38  1  0  0  0  0
 22 23  2  0  0  0  0
 22 40  1  0  0  0  0
 23 41  1  0  0  0  0
 24 42  1  0  0  0  0
 24 43  1  0  0  0  0
 24 44  1  0  0  0  0
 25 27  1  0  0  0  0
 25 45  1  0  0  0  0
 26 28  2  0  0  0  0
 26 46  1  0  0  0  0
 27 29  2  0  0  0  0
 27 47  1  0  0  0  0
 28 29  1  0  0  0  0
 28 48  1  0  0  0  0
 29 49  1  0  0  0  0
M  END
> <PUBCHEM_COMPOUND_CID>
9653493

> <PUBCHEM_CONFORMER_RMSD>
1

> <PUBCHEM_CONFORMER_DIVERSEORDER>
1
14
20
17
16
19
6
12
10
13
11
15
9
8
18
2
7
3
5
4

> <PUBCHEM_MMFF94_PARTIAL_CHARGES>
44
1 -0.36
10 0.09
11 -0.15
12 -0.15
13 -0.15
14 0.3
15 0.28
16 0.1
17 0.09
18 -0.15
19 0.63
2 -0.23
20 0.09
21 -0.15
22 -0.15
23 -0.15
25 -0.15
26 -0.15
27 -0.15
28 -0.15
29 -0.15
3 -0.57
30 0.63
31 0.15
32 0.15
33 0.15
34 0.06
37 0.15
38 0.15
39 0.4
4 -0.65
40 0.15
41 0.15
45 0.15
46 0.15
47 0.15
48 0.15
49 0.15
5 -0.57
50 0.5
6 -0.46
7 -0.49
8 0.08
9 0.08

> <PUBCHEM_EFFECTIVE_ROTOR_COUNT>
9

> <PUBCHEM_PHARMACOPHORE_FEATURES>
10
1 1 acceptor
1 3 acceptor
1 4 acceptor
1 5 acceptor
1 6 donor
1 7 acceptor
3 4 5 30 anion
6 16 18 20 21 22 23 rings
6 17 25 26 27 28 29 rings
6 8 9 10 11 12 13 rings

> <PUBCHEM_HEAVY_ATOM_COUNT>
30

> <PUBCHEM_ATOM_DEF_STEREO_COUNT>
0

> <PUBCHEM_ATOM_UDEF_STEREO_COUNT>
0

> <PUBCHEM_BOND_DEF_STEREO_COUNT>
1

> <PUBCHEM_BOND_UDEF_STEREO_COUNT>
0

> <PUBCHEM_ISOTOPIC_ATOM_COUNT>
0

> <PUBCHEM_COMPONENT_COUNT>
1

> <PUBCHEM_CACTVS_TAUTO_COUNT>
1

> <PUBCHEM_CONFORMER_ID>
00934CF500000001

> <PUBCHEM_MMFF94_ENERGY>
106.5648

> <PUBCHEM_FEATURE_SELFOVERLAP>
50.806

> <PUBCHEM_SHAPE_FINGERPRINT>
10066227 49 18408040684612792266
12082328 90 18335416851415167925
12539765 74 12540966366383631737
13533116 47 18342454851029703176
13553644 42 18041835091941470179
14251764 18 18060424628972614824
150020 25 18040152903279719107
15183329 4 18413103978623756220
15198563 99 17822003169295359285
15439362 3 17690559690006289941
15849732 13 17822291322834444061
16067689 302 18410863165806718203
16628084 112 18336540508705444990
17134984 74 17967531264625390146
19301676 85 18408605833890844802
19315958 150 18339360898165771784
19841028 212 18334292038129627122
20721686 56 18408610248826431779
21150785 3 16805321115002847669
21267235 1 18410015463779375793
22224240 67 10952054459410912805
23522609 53 18056791834355750032
23559900 14 18198898304828769888
23569943 247 18272929389199940843
335352 9 18340769346743163133
3383291 50 18411697686062218027
437795 51 18040152920248878139
439807 62 18411982446883614232
4403749 210 10375864183279674909
444769 64 18272653489343552695
44880568 143 17095520669235468668
5470011 282 18113339738756623292
59682541 35 11815894583182688109
6138700 20 18410293618920004561

> <PUBCHEM_SHAPE_MULTIPOLES>
578.08
25.75
3.19
0.92
3
1.62
0.11
10
2.41
4.41
-0.11
-1.51
0.03
-0.04

> <PUBCHEM_SHAPE_SELFOVERLAP>
1248.909

> <PUBCHEM_SHAPE_VOLUME>
314.2

> <PUBCHEM_COORDINATE_TYPE>
2
5
10

$$$$
