1090735
  -OEChem-01171809443D

 40 42  0     0  0  0  0  0  0999 V2000
    0.0192   -1.1178   -0.6513 S   0  0  0  0  0  0  0  0  0  0  0  0
    7.0114    0.7619   -1.0307 O   0  0  0  0  0  0  0  0  0  0  0  0
    7.2467   -0.5271    0.8265 O   0  0  0  0  0  0  0  0  0  0  0  0
   -2.0706    0.4887   -0.2294 N   0  0  0  0  0  0  0  0  0  0  0  0
   -2.5269   -1.8701   -0.3837 N   0  0  0  0  0  0  0  0  0  0  0  0
   -6.1076    1.3315    0.7221 C   0  0  0  0  0  0  0  0  0  0  0  0
   -5.2935    2.3849   -0.0222 C   0  0  0  0  0  0  0  0  0  0  0  0
   -5.7987   -0.0664    0.1859 C   0  0  0  0  0  0  0  0  0  0  0  0
   -3.7984    2.1471    0.1851 C   0  0  0  0  0  0  0  0  0  0  0  0
   -4.3301   -0.3122    0.0102 C   0  0  0  0  0  0  0  0  0  0  0  0
   -3.3916    0.7147   -0.0376 C   0  0  0  0  0  0  0  0  0  0  0  0
   -3.8304   -1.5908   -0.1829 C   0  0  0  0  0  0  0  0  0  0  0  0
   -1.7147   -0.7991   -0.3940 C   0  0  0  0  0  0  0  0  0  0  0  0
   -4.7397   -2.7766   -0.1916 C   0  0  0  0  0  0  0  0  0  0  0  0
    0.7864    0.2437    0.2722 C   0  0  0  0  0  0  0  0  0  0  0  0
    2.2882    0.1974    0.2081 C   0  0  0  0  0  0  0  0  0  0  0  0
    2.9931   -0.5100    1.1730 C   0  0  0  0  0  0  0  0  0  0  0  0
    2.9514    0.8615   -0.8154 C   0  0  0  0  0  0  0  0  0  0  0  0
    4.3861   -0.5541    1.1135 C   0  0  0  0  0  0  0  0  0  0  0  0
    4.3442    0.8174   -0.8751 C   0  0  0  0  0  0  0  0  0  0  0  0
    5.0616    0.1096    0.0894 C   0  0  0  0  0  0  0  0  0  0  0  0
    6.5140    0.0655    0.0278 C   0  0  0  0  0  0  0  0  0  0  0  0
   -7.1788    1.5377    0.6191 H   0  0  0  0  0  0  0  0  0  0  0  0
   -5.8730    1.3794    1.7933 H   0  0  0  0  0  0  0  0  0  0  0  0
   -5.5594    3.3873    0.3314 H   0  0  0  0  0  0  0  0  0  0  0  0
   -5.5338    2.3458   -1.0923 H   0  0  0  0  0  0  0  0  0  0  0  0
   -6.2886   -0.1913   -0.7879 H   0  0  0  0  0  0  0  0  0  0  0  0
   -6.2367   -0.7946    0.8776 H   0  0  0  0  0  0  0  0  0  0  0  0
   -3.5256    2.4181    1.2124 H   0  0  0  0  0  0  0  0  0  0  0  0
   -3.2308    2.8003   -0.4877 H   0  0  0  0  0  0  0  0  0  0  0  0
   -5.5231   -2.6616   -0.9474 H   0  0  0  0  0  0  0  0  0  0  0  0
   -4.1863   -3.6913   -0.4313 H   0  0  0  0  0  0  0  0  0  0  0  0
   -5.1979   -2.9180    0.7922 H   0  0  0  0  0  0  0  0  0  0  0  0
    0.4563    0.2036    1.3172 H   0  0  0  0  0  0  0  0  0  0  0  0
    0.4405    1.2041   -0.1279 H   0  0  0  0  0  0  0  0  0  0  0  0
    2.4771   -1.0315    1.9743 H   0  0  0  0  0  0  0  0  0  0  0  0
    2.4023    1.4147   -1.5723 H   0  0  0  0  0  0  0  0  0  0  0  0
    4.9265   -1.1111    1.8745 H   0  0  0  0  0  0  0  0  0  0  0  0
    4.8297    1.3482   -1.6893 H   0  0  0  0  0  0  0  0  0  0  0  0
    7.9912    0.7255   -1.0635 H   0  0  0  0  0  0  0  0  0  0  0  0
  1 13  1  0  0  0  0
  1 15  1  0  0  0  0
  2 22  1  0  0  0  0
  2 40  1  0  0  0  0
  3 22  2  0  0  0  0
  4 11  2  0  0  0  0
  4 13  1  0  0  0  0
  5 12  1  0  0  0  0
  5 13  2  0  0  0  0
  6  7  1  0  0  0  0
  6  8  1  0  0  0  0
  6 23  1  0  0  0  0
  6 24  1  0  0  0  0
  7  9  1  0  0  0  0
  7 25  1  0  0  0  0
  7 26  1  0  0  0  0
  8 10  1  0  0  0  0
  8 27  1  0  0  0  0
  8 28  1  0  0  0  0
  9 11  1  0  0  0  0
  9 29  1  0  0  0  0
  9 30  1  0  0  0  0
 10 11  1  0  0  0  0
 10 12  2  0  0  0  0
 12 14  1  0  0  0  0
 14 31  1  0  0  0  0
 14 32  1  0  0  0  0
 14 33  1  0  0  0  0
 15 16  1  0  0  0  0
 15 34  1  0  0  0  0
 15 35  1  0  0  0  0
 16 17  2  0  0  0  0
 16 18  1  0  0  0  0
 17 19  1  0  0  0  0
 17 36  1  0  0  0  0
 18 20  2  0  0  0  0
 18 37  1  0  0  0  0
 19 21  2  0  0  0  0
 19 38  1  0  0  0  0
 20 21  1  0  0  0  0
 20 39  1  0  0  0  0
 21 22  1  0  0  0  0
M  END
> <PUBCHEM_COMPOUND_CID>
1090735

> <PUBCHEM_CONFORMER_RMSD>
0.8

> <PUBCHEM_CONFORMER_DIVERSEORDER>
1
5
4
7
9
12
11
3
2
8
13
6
10

> <PUBCHEM_MMFF94_PARTIAL_CHARGES>
25
1 -0.33
10 -0.14
11 0.17
12 0.17
13 0.72
14 0.14
15 0.37
16 -0.14
17 -0.15
18 -0.15
19 -0.15
2 -0.65
20 -0.15
21 0.09
22 0.63
3 -0.57
36 0.15
37 0.15
38 0.15
39 0.15
4 -0.62
40 0.5
5 -0.62
8 0.14
9 0.14

> <PUBCHEM_EFFECTIVE_ROTOR_COUNT>
4.8

> <PUBCHEM_PHARMACOPHORE_FEATURES>
8
1 2 acceptor
1 3 acceptor
1 4 acceptor
3 2 3 22 anion
3 4 5 13 cation
6 16 17 18 19 20 21 rings
6 4 5 10 11 12 13 rings
6 6 7 8 9 10 11 rings

> <PUBCHEM_HEAVY_ATOM_COUNT>
22

> <PUBCHEM_ATOM_DEF_STEREO_COUNT>
0

> <PUBCHEM_ATOM_UDEF_STEREO_COUNT>
0

> <PUBCHEM_BOND_DEF_STEREO_COUNT>
0

> <PUBCHEM_BOND_UDEF_STEREO_COUNT>
0

> <PUBCHEM_ISOTOPIC_ATOM_COUNT>
0

> <PUBCHEM_COMPONENT_COUNT>
1

> <PUBCHEM_CACTVS_TAUTO_COUNT>
1

> <PUBCHEM_CONFORMER_ID>
0010A4AF00000001

> <PUBCHEM_MMFF94_ENERGY>
50.9659

> <PUBCHEM_FEATURE_SELFOVERLAP>
40.68

> <PUBCHEM_SHAPE_FINGERPRINT>
10 15 18334020463184207417
10299344 5 18186239528952816298
10319926 262 18271232911065724858
10411042 1 18052255391893726999
10595046 47 18262236728660475958
10638233 991 17749399208383066788
10730089 173 18412265021456381257
10912923 1 17968087638319164714
11315181 36 18260266386743839559
11545043 162 17988639739508869706
11796584 16 18060701693856851678
12107183 9 17829881040873355851
12236239 1 18261110786067671924
12390115 104 17987530213051555193
12403259 415 17704066339162899298
12596602 18 18410854408378379672
12616971 3 17603309271025829372
14251752 14 18413388718250359192
14251764 18 18260830405674612630
14341114 328 18113894948814674755
14849402 71 17895483647707541196
14933364 13 18412827993074432640
15183329 4 18409445886237183714
15250474 111 18261095392351976659
15461852 350 17632288008504741805
1577012 14 18260550039501110476
15778101 99 18341897368458619905
17093844 174 18131063853115927651
17844677 252 18341615979017420808
18927931 339 18271805774405396231
19489759 90 18201717366879444143
20281389 69 18410572881856981392
20621476 66 18410859836742385320
21033648 29 17489289915515654106
21065198 48 18260822691887384618
21623969 137 14996282496593128432
21792961 116 16988572269557235092
220451 1 18186518800300145874
22224240 67 15647058174344477288
23081809 10 18040996267732405782
23402539 116 18411415128731863485
23522609 53 17895496764336923860
23536379 177 18409166610964249714
23559900 14 17988920080698668792
24771293 8 18041559278306727388
335352 9 18412259550527811477
3545911 37 18201721734491841075
4073 2 18114468937451693138
4214541 1 18410854369465132853
5104073 3 18334853973747833320
5385378 56 17987810596605464263
542803 24 18334011700875676426
54446538 1 18334858333176717356
5758199 1 17749110019966617760
59755656 215 18059580144250375742
59755656 520 17167864175051141083
6327066 14 18117833301641905261
7226269 152 18059857234081489945

> <PUBCHEM_SHAPE_MULTIPOLES>
434.9
19.24
2.05
0.93
18.19
0.32
-0.06
-3.53
-1.4
-4.74
0.15
0.96
0
-1.23

> <PUBCHEM_SHAPE_SELFOVERLAP>
920.535

> <PUBCHEM_SHAPE_VOLUME>
245.3

> <PUBCHEM_COORDINATE_TYPE>
2
5
10

$$$$
