776458
  -OEChem-01171809503D

 29 29  0     0  0  0  0  0  0999 V2000
    2.8598   -1.2601   -0.5499 O   0  0  0  0  0  0  0  0  0  0  0  0
   -1.1816   -0.2590    0.2780 N   0  0  0  0  0  0  0  0  0  0  0  0
    3.5575    0.7836    0.3100 N   0  0  0  0  0  0  0  0  0  0  0  0
    4.8922    0.5237    0.0775 N   0  0  0  0  0  0  0  0  0  0  0  0
   -1.4994    0.9731   -0.4573 C   0  0  0  0  0  0  0  0  0  0  0  0
   -2.1880   -1.3006    0.0295 C   0  0  0  0  0  0  0  0  0  0  0  0
   -2.8715    1.5167   -0.0559 C   0  0  0  0  0  0  0  0  0  0  0  0
   -3.5827   -0.8313    0.4469 C   0  0  0  0  0  0  0  0  0  0  0  0
   -3.9619    0.4694   -0.2515 C   0  0  0  0  0  0  0  0  0  0  0  0
    0.1521   -0.7399   -0.0819 C   0  0  0  0  0  0  0  0  0  0  0  0
    1.2078    0.2950    0.2928 C   0  0  0  0  0  0  0  0  0  0  0  0
    2.6156   -0.1704   -0.0380 C   0  0  0  0  0  0  0  0  0  0  0  0
   -1.4702    0.8041   -1.5417 H   0  0  0  0  0  0  0  0  0  0  0  0
   -0.8011    1.7819   -0.2282 H   0  0  0  0  0  0  0  0  0  0  0  0
   -1.9443   -2.1995    0.6089 H   0  0  0  0  0  0  0  0  0  0  0  0
   -2.1988   -1.5886   -1.0301 H   0  0  0  0  0  0  0  0  0  0  0  0
   -3.1059    2.4076   -0.6497 H   0  0  0  0  0  0  0  0  0  0  0  0
   -2.8506    1.8296    0.9959 H   0  0  0  0  0  0  0  0  0  0  0  0
   -3.6107   -0.6842    1.5341 H   0  0  0  0  0  0  0  0  0  0  0  0
   -4.3204   -1.6064    0.2103 H   0  0  0  0  0  0  0  0  0  0  0  0
   -4.9157    0.8418    0.1380 H   0  0  0  0  0  0  0  0  0  0  0  0
   -4.1017    0.2823   -1.3233 H   0  0  0  0  0  0  0  0  0  0  0  0
    0.2155   -0.9770   -1.1524 H   0  0  0  0  0  0  0  0  0  0  0  0
    0.3680   -1.6685    0.4622 H   0  0  0  0  0  0  0  0  0  0  0  0
    1.1621    0.5211    1.3651 H   0  0  0  0  0  0  0  0  0  0  0  0
    1.0879    1.2299   -0.2631 H   0  0  0  0  0  0  0  0  0  0  0  0
    3.3075    1.6720    0.7329 H   0  0  0  0  0  0  0  0  0  0  0  0
    5.3715    0.6143    0.9723 H   0  0  0  0  0  0  0  0  0  0  0  0
    5.2434    1.2808   -0.5075 H   0  0  0  0  0  0  0  0  0  0  0  0
  1 12  2  0  0  0  0
  2  5  1  0  0  0  0
  2  6  1  0  0  0  0
  2 10  1  0  0  0  0
  3  4  1  0  0  0  0
  3 12  1  0  0  0  0
  3 27  1  0  0  0  0
  4 28  1  0  0  0  0
  4 29  1  0  0  0  0
  5  7  1  0  0  0  0
  5 13  1  0  0  0  0
  5 14  1  0  0  0  0
  6  8  1  0  0  0  0
  6 15  1  0  0  0  0
  6 16  1  0  0  0  0
  7  9  1  0  0  0  0
  7 17  1  0  0  0  0
  7 18  1  0  0  0  0
  8  9  1  0  0  0  0
  8 19  1  0  0  0  0
  8 20  1  0  0  0  0
  9 21  1  0  0  0  0
  9 22  1  0  0  0  0
 10 11  1  0  0  0  0
 10 23  1  0  0  0  0
 10 24  1  0  0  0  0
 11 12  1  0  0  0  0
 11 25  1  0  0  0  0
 11 26  1  0  0  0  0
M  END
> <PUBCHEM_COMPOUND_CID>
776458

> <PUBCHEM_CONFORMER_RMSD>
0.6

> <PUBCHEM_CONFORMER_DIVERSEORDER>
1
27
24
2
4
12
30
6
9
26
28
5
19
3
21
29
14
7
10
20
23
15
11
8
18
25
22
17
16
13

> <PUBCHEM_MMFF94_PARTIAL_CHARGES>
12
1 -0.57
10 0.27
11 0.06
12 0.57
2 -0.81
27 0.37
28 0.36
29 0.36
3 -0.42
4 -0.73
5 0.27
6 0.27

> <PUBCHEM_EFFECTIVE_ROTOR_COUNT>
5.2

> <PUBCHEM_PHARMACOPHORE_FEATURES>
5
1 1 acceptor
1 2 cation
1 3 donor
1 4 donor
6 2 5 6 7 8 9 rings

> <PUBCHEM_HEAVY_ATOM_COUNT>
12

> <PUBCHEM_ATOM_DEF_STEREO_COUNT>
0

> <PUBCHEM_ATOM_UDEF_STEREO_COUNT>
0

> <PUBCHEM_BOND_DEF_STEREO_COUNT>
0

> <PUBCHEM_BOND_UDEF_STEREO_COUNT>
0

> <PUBCHEM_ISOTOPIC_ATOM_COUNT>
0

> <PUBCHEM_COMPONENT_COUNT>
1

> <PUBCHEM_CACTVS_TAUTO_COUNT>
2

> <PUBCHEM_CONFORMER_ID>
000BD90A00000001

> <PUBCHEM_MMFF94_ENERGY>
8.4593

> <PUBCHEM_FEATURE_SELFOVERLAP>
26.883

> <PUBCHEM_SHAPE_FINGERPRINT>
10608611 8 18411979126705043869
11062470 55 18273496779737368354
11132069 177 18187085035792720365
12932764 1 17131821071453700922
13214271 11 18409165528479516943
14123238 8 18409729577628048176
14144814 61 18260828163844180459
14325111 11 18410855434363645763
15219456 202 18343024354449019023
18186145 218 18272380723980003146
190213 19 17603307042048584991
20279233 1 18341898489028508670
20645477 56 18409167697301065481
20645477 70 17917433064718958990
22485316 2 18412543210524563054
23402539 116 18261946435752078782
23402655 69 18130782313799304797
23557571 272 18341905090493463148
23559900 14 18339922619900405806
42 15 17676481718842274090
449060 50 18412828010043214300
6333449 129 18410290311705340447
77779 3 18410294700940442278

> <PUBCHEM_SHAPE_MULTIPOLES>
226.14
8.43
1.35
0.67
6.39
0.02
-0.01
1.2
0.22
-0.74
-0.06
-0.06
-0.02
0.45

> <PUBCHEM_SHAPE_SELFOVERLAP>
436.522

> <PUBCHEM_SHAPE_VOLUME>
137.6

> <PUBCHEM_COORDINATE_TYPE>
2
5
10

$$$$
