12005640
  -OEChem-01171809343D

 35 36  0     0  0  0  0  0  0999 V2000
   -1.0347   -0.9600   -1.4075 S   0  0  0  0  0  0  0  0  0  0  0  0
    4.0049   -0.6985    1.6042 F   0  0  0  0  0  0  0  0  0  0  0  0
   -0.8650   -0.1983   -2.6266 O   0  0  0  0  0  0  0  0  0  0  0  0
   -1.4547   -2.3447   -1.4464 O   0  0  0  0  0  0  0  0  0  0  0  0
    3.1267    2.2155   -1.0615 O   0  5  0  0  0  0  0  0  0  0  0  0
    4.5060    1.3733    0.4241 O   0  0  0  0  0  0  0  0  0  0  0  0
   -2.0639   -0.0954   -0.3457 N   0  0  0  0  0  0  0  0  0  0  0  0
    3.4340    1.3310   -0.2264 N   0  3  0  0  0  0  0  0  0  0  0  0
   -1.6698    1.3158   -0.0655 C   0  0  0  0  0  0  0  0  0  0  0  0
   -2.4867   -0.8194    0.8859 C   0  0  0  0  0  0  0  0  0  0  0  0
   -2.8963    2.2105    0.0743 C   0  0  0  0  0  0  0  0  0  0  0  0
   -4.0019   -0.7938    1.0279 C   0  0  0  0  0  0  0  0  0  0  0  0
   -3.8846    1.7926    1.1668 C   0  0  0  0  0  0  0  0  0  0  0  0
   -4.6938    0.5508    0.7946 C   0  0  0  0  0  0  0  0  0  0  0  0
    0.4803   -0.8772   -0.5046 C   0  0  0  0  0  0  0  0  0  0  0  0
    1.3434    0.1838   -0.7238 C   0  0  0  0  0  0  0  0  0  0  0  0
    0.7805   -1.8752    0.4079 C   0  0  0  0  0  0  0  0  0  0  0  0
    2.5404    0.2484   -0.0106 C   0  0  0  0  0  0  0  0  0  0  0  0
    1.9776   -1.8105    1.1210 C   0  0  0  0  0  0  0  0  0  0  0  0
    2.8577   -0.7487    0.9118 C   0  0  0  0  0  0  0  0  0  0  0  0
   -1.0826    1.7214   -0.8953 H   0  0  0  0  0  0  0  0  0  0  0  0
   -1.0482    1.3750    0.8349 H   0  0  0  0  0  0  0  0  0  0  0  0
   -2.0142   -0.3803    1.7723 H   0  0  0  0  0  0  0  0  0  0  0  0
   -2.1711   -1.8668    0.8733 H   0  0  0  0  0  0  0  0  0  0  0  0
   -3.4203    2.2662   -0.8883 H   0  0  0  0  0  0  0  0  0  0  0  0
   -2.5491    3.2276    0.2952 H   0  0  0  0  0  0  0  0  0  0  0  0
   -4.2505   -1.1486    2.0364 H   0  0  0  0  0  0  0  0  0  0  0  0
   -4.4426   -1.5253    0.3382 H   0  0  0  0  0  0  0  0  0  0  0  0
   -4.5915    2.6216    1.3004 H   0  0  0  0  0  0  0  0  0  0  0  0
   -3.3764    1.6604    2.1285 H   0  0  0  0  0  0  0  0  0  0  0  0
   -5.6265    0.5506    1.3730 H   0  0  0  0  0  0  0  0  0  0  0  0
   -5.0005    0.6186   -0.2571 H   0  0  0  0  0  0  0  0  0  0  0  0
    1.0882    0.9505   -1.4493 H   0  0  0  0  0  0  0  0  0  0  0  0
    0.1116   -2.7112    0.5864 H   0  0  0  0  0  0  0  0  0  0  0  0
    2.2248   -2.5867    1.8392 H   0  0  0  0  0  0  0  0  0  0  0  0
  1  3  2  0  0  0  0
  1  4  2  0  0  0  0
  1  7  1  0  0  0  0
  1 15  1  0  0  0  0
  2 20  1  0  0  0  0
  5  8  1  0  0  0  0
  6  8  2  0  0  0  0
  7  9  1  0  0  0  0
  7 10  1  0  0  0  0
  8 18  1  0  0  0  0
  9 11  1  0  0  0  0
  9 21  1  0  0  0  0
  9 22  1  0  0  0  0
 10 12  1  0  0  0  0
 10 23  1  0  0  0  0
 10 24  1  0  0  0  0
 11 13  1  0  0  0  0
 11 25  1  0  0  0  0
 11 26  1  0  0  0  0
 12 14  1  0  0  0  0
 12 27  1  0  0  0  0
 12 28  1  0  0  0  0
 13 14  1  0  0  0  0
 13 29  1  0  0  0  0
 13 30  1  0  0  0  0
 14 31  1  0  0  0  0
 14 32  1  0  0  0  0
 15 16  2  0  0  0  0
 15 17  1  0  0  0  0
 16 18  1  0  0  0  0
 16 33  1  0  0  0  0
 17 19  2  0  0  0  0
 17 34  1  0  0  0  0
 18 20  2  0  0  0  0
 19 20  1  0  0  0  0
 19 35  1  0  0  0  0
M  CHG  2   5  -1   8   1
M  END
> <PUBCHEM_COMPOUND_CID>
12005640

> <PUBCHEM_CONFORMER_RMSD>
0.6

> <PUBCHEM_CONFORMER_DIVERSEORDER>
1
35
22
42
32
39
10
19
24
29
11
37
18
36
9
23
30
38
5
12
34
33
8
7
28
17
25
41
6
26
13
14
4
3
27
31
2
21
16
15
40
20

> <PUBCHEM_MMFF94_PARTIAL_CHARGES>
19
1 1.45
10 0.36
15 -0.01
16 -0.15
17 -0.15
18 0.13
19 -0.15
2 -0.19
20 0.19
3 -0.65
33 0.15
34 0.15
35 0.15
4 -0.65
5 -0.52
6 -0.52
7 -0.85
8 0.91
9 0.36

> <PUBCHEM_EFFECTIVE_ROTOR_COUNT>
4.4

> <PUBCHEM_PHARMACOPHORE_FEATURES>
7
1 3 acceptor
1 4 acceptor
1 5 acceptor
1 5 anion
1 6 acceptor
6 15 16 17 18 19 20 rings
7 7 9 10 11 12 13 14 rings

> <PUBCHEM_HEAVY_ATOM_COUNT>
20

> <PUBCHEM_ATOM_DEF_STEREO_COUNT>
0

> <PUBCHEM_ATOM_UDEF_STEREO_COUNT>
0

> <PUBCHEM_BOND_DEF_STEREO_COUNT>
0

> <PUBCHEM_BOND_UDEF_STEREO_COUNT>
0

> <PUBCHEM_ISOTOPIC_ATOM_COUNT>
0

> <PUBCHEM_COMPONENT_COUNT>
1

> <PUBCHEM_CACTVS_TAUTO_COUNT>
1

> <PUBCHEM_CONFORMER_ID>
00B7310800000001

> <PUBCHEM_MMFF94_ENERGY>
38.7236

> <PUBCHEM_FEATURE_SELFOVERLAP>
35.622

> <PUBCHEM_SHAPE_FINGERPRINT>
10498660 4 16558746780947059009
10759866 29 18410022013393187408
11640471 11 18059277765235077979
12251169 10 18187647942706739435
12363563 72 13984669156846204601
12403259 118 18339072697116944129
12633257 1 17968941868580531881
12788726 201 18056749056444149095
12892183 10 18113909247245937427
13583140 156 17822846468906076333
13681431 1 16050998732126766687
14251764 38 18048028572168794005
14289901 80 18409168792544113291
14341114 328 18409175411056950945
14787075 74 17829621900080083075
15342168 16 17750806630152408004
15534591 1 18271527606125851974
15775835 57 18272653467061373897
19862831 5 10952050043830350909
20361792 2 14057300670395329727
20600515 1 13840274710012880037
20626108 58 11098148828345250073
20715895 44 17688590464512060169
20739085 24 17895195476781044916
21503847 285 18337961099582740914
21524375 3 17561081354809780839
21756936 100 18267588090755999916
21864079 5 18270959158672599816
23227448 37 17915460712425253009
23557571 272 15194132007281596079
23559900 14 17981622472223568399
25 1 14692302724185132039
31174 14 17385439912722087702
3286 77 17458627765847719466
3797600 57 18271536354810794873
38570 142 17898315998303205444
392239 28 17900557962071369115
474 4 18187649149687670368
7097593 13 17970907748174126675
7808743 9 18059575844766702672
81228 2 16843013546508889679

> <PUBCHEM_SHAPE_MULTIPOLES>
374.73
8.2
2.29
1.59
0.54
0.4
0.69
3.78
-3.91
-0.14
0.14
0.08
-0.48
-1.07

> <PUBCHEM_SHAPE_SELFOVERLAP>
769.781

> <PUBCHEM_SHAPE_VOLUME>
216.2

> <PUBCHEM_COORDINATE_TYPE>
2
5
10

$$$$
