9266740
  -OEChem-01171810103D

 32 35  0     0  0  0  0  0  0999 V2000
   -5.0669    1.7711    0.3474 Cl  0  0  0  0  0  0  0  0  0  0  0  0
    3.1337    2.4087   -1.1583 S   0  0  0  0  0  0  0  0  0  0  0  0
    0.0833   -1.0863    1.5198 S   0  0  0  0  0  0  0  0  0  0  0  0
    4.1926    0.2968    0.0734 N   0  0  0  0  0  0  0  0  0  0  0  0
    2.7378   -1.2352    1.2631 N   0  0  0  0  0  0  0  0  0  0  0  0
   -1.4856   -2.8067    0.1105 N   0  0  0  0  0  0  0  0  0  0  0  0
    0.3662   -2.3075   -0.9018 N   0  0  0  0  0  0  0  0  0  0  0  0
   -1.5207   -3.4866   -1.0440 N   0  0  0  0  0  0  0  0  0  0  0  0
   -0.3858   -3.1770   -1.6591 N   0  0  0  0  0  0  0  0  0  0  0  0
    0.8387    1.6061   -0.3311 C   0  0  0  0  0  0  0  0  0  0  0  0
    1.7817    0.6513    0.1640 C   0  0  0  0  0  0  0  0  0  0  0  0
   -0.5932    1.6450   -0.1659 C   0  0  0  0  0  0  0  0  0  0  0  0
    3.0728    0.9844   -0.2245 C   0  0  0  0  0  0  0  0  0  0  0  0
    1.6484   -0.5079    0.9353 C   0  0  0  0  0  0  0  0  0  0  0  0
    1.4374    2.6085   -1.0628 C   0  0  0  0  0  0  0  0  0  0  0  0
   -1.4139    1.0091   -1.0930 C   0  0  0  0  0  0  0  0  0  0  0  0
   -1.1462    2.3195    0.9190 C   0  0  0  0  0  0  0  0  0  0  0  0
   -2.7992    1.0480   -0.9339 C   0  0  0  0  0  0  0  0  0  0  0  0
   -2.5314    2.3583    1.0781 C   0  0  0  0  0  0  0  0  0  0  0  0
   -0.3462   -2.1226    0.1471 C   0  0  0  0  0  0  0  0  0  0  0  0
    3.9298   -0.7928    0.8167 C   0  0  0  0  0  0  0  0  0  0  0  0
   -3.3579    1.7226    0.1517 C   0  0  0  0  0  0  0  0  0  0  0  0
   -2.5755   -2.9067    1.0479 C   0  0  0  0  0  0  0  0  0  0  0  0
    0.9712    3.4543   -1.5507 H   0  0  0  0  0  0  0  0  0  0  0  0
   -0.9942    0.4794   -1.9448 H   0  0  0  0  0  0  0  0  0  0  0  0
   -0.5154    2.8193    1.6502 H   0  0  0  0  0  0  0  0  0  0  0  0
   -3.4306    0.5470   -1.6631 H   0  0  0  0  0  0  0  0  0  0  0  0
   -2.9528    2.8873    1.9291 H   0  0  0  0  0  0  0  0  0  0  0  0
    4.7886   -1.3945    1.0932 H   0  0  0  0  0  0  0  0  0  0  0  0
   -3.3410   -3.5768    0.6477 H   0  0  0  0  0  0  0  0  0  0  0  0
   -2.1902   -3.3079    1.9883 H   0  0  0  0  0  0  0  0  0  0  0  0
   -3.0000   -1.9105    1.1952 H   0  0  0  0  0  0  0  0  0  0  0  0
  1 22  1  0  0  0  0
  2 13  1  0  0  0  0
  2 15  1  0  0  0  0
  3 14  1  0  0  0  0
  3 20  1  0  0  0  0
  4 13  1  0  0  0  0
  4 21  2  0  0  0  0
  5 14  2  0  0  0  0
  5 21  1  0  0  0  0
  6  8  1  0  0  0  0
  6 20  1  0  0  0  0
  6 23  1  0  0  0  0
  7  9  1  0  0  0  0
  7 20  2  0  0  0  0
  8  9  2  0  0  0  0
 10 11  1  0  0  0  0
 10 12  1  0  0  0  0
 10 15  2  0  0  0  0
 11 13  2  0  0  0  0
 11 14  1  0  0  0  0
 12 16  2  0  0  0  0
 12 17  1  0  0  0  0
 15 24  1  0  0  0  0
 16 18  1  0  0  0  0
 16 25  1  0  0  0  0
 17 19  2  0  0  0  0
 17 26  1  0  0  0  0
 18 22  2  0  0  0  0
 18 27  1  0  0  0  0
 19 22  1  0  0  0  0
 19 28  1  0  0  0  0
 21 29  1  0  0  0  0
 23 30  1  0  0  0  0
 23 31  1  0  0  0  0
 23 32  1  0  0  0  0
M  END
> <PUBCHEM_COMPOUND_CID>
9266740

> <PUBCHEM_CONFORMER_RMSD>
0.6

> <PUBCHEM_CONFORMER_DIVERSEORDER>
2
5
1
6
13
8
10
9
4
11
3
12
7

> <PUBCHEM_MMFF94_PARTIAL_CHARGES>
27
1 -0.18
10 -0.05
12 0.05
13 0.3
14 0.41
15 -0.11
16 -0.15
17 -0.15
18 -0.15
19 -0.15
2 -0.08
20 0.24
21 0.47
22 0.18
23 0.26
24 0.15
25 0.15
26 0.15
27 0.15
28 0.15
29 0.15
3 -0.16
4 -0.57
5 -0.62
6 0.31
7 -0.34
8 -0.42

> <PUBCHEM_EFFECTIVE_ROTOR_COUNT>
3

> <PUBCHEM_PHARMACOPHORE_FEATURES>
7
1 5 acceptor
3 4 5 21 cation
3 6 7 20 cation
5 2 10 11 13 15 rings
5 6 7 8 9 20 rings
6 12 16 17 18 19 22 rings
6 4 5 11 13 14 21 rings

> <PUBCHEM_HEAVY_ATOM_COUNT>
23

> <PUBCHEM_ATOM_DEF_STEREO_COUNT>
0

> <PUBCHEM_ATOM_UDEF_STEREO_COUNT>
0

> <PUBCHEM_BOND_DEF_STEREO_COUNT>
0

> <PUBCHEM_BOND_UDEF_STEREO_COUNT>
0

> <PUBCHEM_ISOTOPIC_ATOM_COUNT>
0

> <PUBCHEM_COMPONENT_COUNT>
1

> <PUBCHEM_CACTVS_TAUTO_COUNT>
1

> <PUBCHEM_CONFORMER_ID>
008D663400000002

> <PUBCHEM_MMFF94_ENERGY>
51.0913

> <PUBCHEM_FEATURE_SELFOVERLAP>
35.603

> <PUBCHEM_SHAPE_FINGERPRINT>
104564 63 18048605003543489359
10759866 29 18042413597706683684
1100329 8 18334855030710889720
11578080 2 17843958376286311952
12035758 1 18052824646125851274
12156800 1 17902833865326240367
12236239 1 18342455885510725097
12422481 6 18120405200798290299
12715332 25 18410006607471934656
12788726 201 18123758817924830806
13140716 1 18334286609201242008
13836976 161 18335139748393274485
14081887 123 17911787282926777320
14178342 30 17764583214279725152
14863182 85 18197507224929148821
15210252 30 16958420614900897213
16752209 62 18269552904606439527
16945 1 17823420405560349312
17138139 8 17912325949683181671
17492 54 18187912963690015741
20645477 70 18189616034630757637
20691752 17 17977675207729978925
20739085 24 17903930950213246808
20775438 99 16329017321132523623
21041028 32 17974853079235886163
21197605 99 18263658389270225907
21236236 1 18118122700833036100
21634736 98 18117839026289309396
23419403 2 16031182603436946736
23557571 272 18127966619576957376
23558518 356 17973731573307479676
23598288 3 18267303316643175238
25147074 1 18041559269489633460
2748010 2 15671803392529469400
283562 15 17543070538393096972
3060560 45 18264489481788303916
352729 6 18412834576921635297
465052 167 17895768296305880417
6287921 2 17840591401178073487
6438718 38 18340492286549824898
6443956 14 17759809143461094381
7164475 11 18194122039286118454
7226269 152 16966039199827097516
81228 2 17828759882579070785
8272917 22 18122067503445019845

> <PUBCHEM_SHAPE_MULTIPOLES>
453.01
6.59
4.36
1.38
1.18
3.32
-0.08
-3.56
0.98
2.11
-1.07
0.01
0.44
-1.24

> <PUBCHEM_SHAPE_SELFOVERLAP>
973.351

> <PUBCHEM_SHAPE_VOLUME>
254.7

> <PUBCHEM_COORDINATE_TYPE>
2
5
10

$$$$
