9567047
  -OEChem-01171809283D

 41 42  0     0  0  0  0  0  0999 V2000
   -7.0350   -1.2996   -2.3458 Cl  0  0  0  0  0  0  0  0  0  0  0  0
    4.6832    1.8282   -0.2970 O   0  0  0  0  0  0  0  0  0  0  0  0
    6.0430   -0.4383   -1.1563 O   0  0  0  0  0  0  0  0  0  0  0  0
    0.1776    0.2243    0.7632 O   0  0  0  0  0  0  0  0  0  0  0  0
    0.5167   -1.8903    1.6239 O   0  0  0  0  0  0  0  0  0  0  0  0
   -1.1019    0.0771    1.3164 N   0  0  0  0  0  0  0  0  0  0  0  0
   -1.4237    2.2718    0.4041 N   0  0  0  0  0  0  0  0  0  0  0  0
   -3.2378    1.1336    1.6149 C   0  0  0  0  0  0  0  0  0  0  0  0
   -4.1916    0.5231    0.6213 C   0  0  0  0  0  0  0  0  0  0  0  0
    2.2599   -0.7741    0.4427 C   0  0  0  0  0  0  0  0  0  0  0  0
   -4.4358   -0.8421    0.6599 C   0  0  0  0  0  0  0  0  0  0  0  0
   -4.8109    1.3351   -0.3179 C   0  0  0  0  0  0  0  0  0  0  0  0
    4.1098    0.5967   -0.1953 C   0  0  0  0  0  0  0  0  0  0  0  0
   -1.8124    1.1423    1.0863 C   0  0  0  0  0  0  0  0  0  0  0  0
    4.7920   -0.5407   -0.6273 C   0  0  0  0  0  0  0  0  0  0  0  0
    2.8294    0.4787    0.3456 C   0  0  0  0  0  0  0  0  0  0  0  0
    2.9136   -1.9141    0.0229 C   0  0  0  0  0  0  0  0  0  0  0  0
    4.1938   -1.7961   -0.5183 C   0  0  0  0  0  0  0  0  0  0  0  0
   -5.3183   -1.4074   -0.2604 C   0  0  0  0  0  0  0  0  0  0  0  0
   -5.6937    0.7698   -1.2382 C   0  0  0  0  0  0  0  0  0  0  0  0
   -5.9474   -0.6015   -1.2094 C   0  0  0  0  0  0  0  0  0  0  0  0
    0.8962   -0.8999    1.0177 C   0  0  0  0  0  0  0  0  0  0  0  0
    4.4534    2.5527   -1.5039 C   0  0  0  0  0  0  0  0  0  0  0  0
    7.1399   -0.5290   -0.2491 C   0  0  0  0  0  0  0  0  0  0  0  0
   -3.2675    0.5758    2.5596 H   0  0  0  0  0  0  0  0  0  0  0  0
   -3.5462    2.1578    1.8586 H   0  0  0  0  0  0  0  0  0  0  0  0
   -3.9501   -1.4787    1.3941 H   0  0  0  0  0  0  0  0  0  0  0  0
   -4.6197    2.4040   -0.3493 H   0  0  0  0  0  0  0  0  0  0  0  0
    2.3202    1.3746    0.6896 H   0  0  0  0  0  0  0  0  0  0  0  0
    2.4570   -2.8964    0.0992 H   0  0  0  0  0  0  0  0  0  0  0  0
    4.7189   -2.6862   -0.8542 H   0  0  0  0  0  0  0  0  0  0  0  0
   -5.5058   -2.4776   -0.2267 H   0  0  0  0  0  0  0  0  0  0  0  0
   -6.1762    1.4099   -1.9724 H   0  0  0  0  0  0  0  0  0  0  0  0
   -0.4899    2.3498    0.0158 H   0  0  0  0  0  0  0  0  0  0  0  0
   -2.0510    3.0564    0.2623 H   0  0  0  0  0  0  0  0  0  0  0  0
    3.3847    2.7499   -1.6349 H   0  0  0  0  0  0  0  0  0  0  0  0
    4.8421    2.0001   -2.3651 H   0  0  0  0  0  0  0  0  0  0  0  0
    4.9798    3.5085   -1.4352 H   0  0  0  0  0  0  0  0  0  0  0  0
    8.0662   -0.4219   -0.8200 H   0  0  0  0  0  0  0  0  0  0  0  0
    7.0924    0.2728    0.4944 H   0  0  0  0  0  0  0  0  0  0  0  0
    7.1459   -1.5038    0.2487 H   0  0  0  0  0  0  0  0  0  0  0  0
  1 21  1  0  0  0  0
  2 13  1  0  0  0  0
  2 23  1  0  0  0  0
  3 15  1  0  0  0  0
  3 24  1  0  0  0  0
  4  6  1  0  0  0  0
  4 22  1  0  0  0  0
  5 22  2  0  0  0  0
  6 14  2  0  0  0  0
  7 14  1  0  0  0  0
  7 34  1  0  0  0  0
  7 35  1  0  0  0  0
  8  9  1  0  0  0  0
  8 14  1  0  0  0  0
  8 25  1  0  0  0  0
  8 26  1  0  0  0  0
  9 11  2  0  0  0  0
  9 12  1  0  0  0  0
 10 16  2  0  0  0  0
 10 17  1  0  0  0  0
 10 22  1  0  0  0  0
 11 19  1  0  0  0  0
 11 27  1  0  0  0  0
 12 20  2  0  0  0  0
 12 28  1  0  0  0  0
 13 15  2  0  0  0  0
 13 16  1  0  0  0  0
 15 18  1  0  0  0  0
 16 29  1  0  0  0  0
 17 18  2  0  0  0  0
 17 30  1  0  0  0  0
 18 31  1  0  0  0  0
 19 21  2  0  0  0  0
 19 32  1  0  0  0  0
 20 21  1  0  0  0  0
 20 33  1  0  0  0  0
 23 36  1  0  0  0  0
 23 37  1  0  0  0  0
 23 38  1  0  0  0  0
 24 39  1  0  0  0  0
 24 40  1  0  0  0  0
 24 41  1  0  0  0  0
M  END
> <PUBCHEM_COMPOUND_CID>
9567047

> <PUBCHEM_CONFORMER_RMSD>
1

> <PUBCHEM_CONFORMER_DIVERSEORDER>
1
191
66
430
588
159
201
4
230
331
589
59
544
367
60
153
104
139
206
49
455
273
276
429
356
629
685
74
412
500
77
302
90
217
526
155
624
71
188
311
42
439
184
676
22
552
73
212
205
88
289
479
168
417
365
652
222
172
13
248
32
91
112
291
178
385
133
195
27
251
83
490
345
5
247
3
420
75
44
34
95
596
601
78
468
101
370
397
326
136
63
179
192
666
549
408
310
137
19
82
35
123
573
52
681
61
257
597
362
10
514
300
562
236
534
47
36
103
213
189
38
14
414
508
389
46
580
15
260
117
209
516
197
264
312
143
242
208
371
405
12
266
301
285
17
532
65
113
207
110
640
486
334
323

> <PUBCHEM_MMFF94_PARTIAL_CHARGES>
33
1 -0.18
10 0.09
11 -0.15
12 -0.15
13 0.08
14 0.44
15 0.08
16 -0.15
17 -0.15
18 -0.15
19 -0.15
2 -0.36
20 -0.15
21 0.18
22 0.63
23 0.28
24 0.28
27 0.15
28 0.15
29 0.15
3 -0.36
30 0.15
31 0.15
32 0.15
33 0.15
34 0.4
35 0.4
4 -0.09
5 -0.57
6 -0.51
7 -0.85
8 0.2
9 -0.14

> <PUBCHEM_EFFECTIVE_ROTOR_COUNT>
7

> <PUBCHEM_PHARMACOPHORE_FEATURES>
7
1 2 acceptor
1 3 acceptor
1 5 acceptor
1 7 donor
3 6 7 14 cation
6 10 13 15 16 17 18 rings
6 9 11 12 19 20 21 rings

> <PUBCHEM_HEAVY_ATOM_COUNT>
24

> <PUBCHEM_ATOM_DEF_STEREO_COUNT>
0

> <PUBCHEM_ATOM_UDEF_STEREO_COUNT>
0

> <PUBCHEM_BOND_DEF_STEREO_COUNT>
1

> <PUBCHEM_BOND_UDEF_STEREO_COUNT>
0

> <PUBCHEM_ISOTOPIC_ATOM_COUNT>
0

> <PUBCHEM_COMPONENT_COUNT>
1

> <PUBCHEM_CACTVS_TAUTO_COUNT>
2

> <PUBCHEM_CONFORMER_ID>
0091FB4700000001

> <PUBCHEM_MMFF94_ENERGY>
85.5909

> <PUBCHEM_FEATURE_SELFOVERLAP>
35.526

> <PUBCHEM_SHAPE_FINGERPRINT>
10 15 11097854065314537045
10319926 262 12391240461134454555
105312 117 16081376245785337963
10554248 39 17531256024423836742
10595046 47 18202286883516185880
10692045 39 11170178835845561681
10763959 59 16805611382347053228
11089746 13 17676209070012664200
117890 112 13912323477681842115
12422481 6 8574449603079607153
13422730 153 18410289250363505564
13673619 4 15697995254341493843
13782708 43 16271928194493856606
13785724 45 10882768699890368552
14251732 14 17418094360242818253
14251757 5 18200026378126240199
14251758 9 9727641600558175139
14251764 18 7853568002852346625
14251764 30 15985105214958899615
14528608 73 18259703393497905833
14767858 380 18342459269891349277
14931854 50 18338781387377438111
15003188 100 17967818279308208396
15142383 8 11167950125554331970
15183329 4 18334290955380902627
15250474 111 18057319488240993347
15348495 7 10591750000788381343
15463212 79 16081081598455030683
15475509 84 11242235386496697974
15799311 1 16988578895937691407
1813 80 14333129663249628856
21033648 29 15647057104976728292
21054139 6 18202283585029086982
21196832 93 18194959876038105871
21521239 73 18272935999365378614
21623969 137 13542466453785654524
2303208 19 14333415527414130076
23522609 53 17344376507921279169
23559900 14 18411136939479104624
2748736 6 13479398450174884423
2838139 119 17676489432060413364
312425 54 10807934890636746285
335352 9 18335994108584770358
3663271 9 8502365642406241189
3737641 26 12966587312662631516
4015057 19 18336839670246776408
4325135 7 18342460326469141391
6371009 1 18260269634040302384
6669772 16 17699278077667516440
7226269 152 13334733527274244807
7495541 125 17203605973970887498
7918774 8 15123514722184236877
8863177 126 15482373348743439887
999808 66 14620795994051942717

> <PUBCHEM_SHAPE_MULTIPOLES>
462.34
19.24
2.16
1.61
3.19
0.51
0.31
-3.61
11.29
-0.8
0.36
1.78
-0.03
-2.09

> <PUBCHEM_SHAPE_SELFOVERLAP>
969.853

> <PUBCHEM_SHAPE_VOLUME>
262.8

> <PUBCHEM_COORDINATE_TYPE>
2
5
10

$$$$
