972742
  -OEChem-01171809183D

 41 43  0     0  0  0  0  0  0999 V2000
   -6.8561    0.7659   -0.3954 S   0  0  0  0  0  0  0  0  0  0  0  0
    5.8182    0.5344    0.0383 O   0  0  0  0  0  0  0  0  0  0  0  0
    4.5407   -0.8643   -1.2840 O   0  0  0  0  0  0  0  0  0  0  0  0
   -0.8025   -1.8588    0.6494 O   0  0  0  0  0  0  0  0  0  0  0  0
    1.0382   -0.5767    0.0945 N   0  0  0  0  0  0  0  0  0  0  0  0
   -1.0560    0.4402    0.4712 N   0  0  0  0  0  0  0  0  0  0  0  0
   -5.5165   -1.3319   -0.6571 N   0  0  0  0  0  0  0  0  0  0  0  0
   -6.7486   -0.8629   -0.7497 N   0  0  0  0  0  0  0  0  0  0  0  0
    3.7951   -0.2446    0.9223 C   0  0  0  0  0  0  0  0  0  0  0  0
    2.8264    0.9408    0.8174 C   0  0  0  0  0  0  0  0  0  0  0  0
    3.0665   -1.5892    1.0410 C   0  0  0  0  0  0  0  0  0  0  0  0
    1.7169    0.6911   -0.2020 C   0  0  0  0  0  0  0  0  0  0  0  0
    1.9207   -1.7421    0.0383 C   0  0  0  0  0  0  0  0  0  0  0  0
    4.7374   -0.2465   -0.2462 C   0  0  0  0  0  0  0  0  0  0  0  0
   -0.3248   -0.7457    0.4153 C   0  0  0  0  0  0  0  0  0  0  0  0
   -2.4512    0.5990    0.2800 C   0  0  0  0  0  0  0  0  0  0  0  0
    6.8032    0.6216   -0.9962 C   0  0  0  0  0  0  0  0  0  0  0  0
   -3.2210   -0.5037   -0.0964 C   0  0  0  0  0  0  0  0  0  0  0  0
   -3.0325    1.8470    0.4707 C   0  0  0  0  0  0  0  0  0  0  0  0
    7.9304    1.5180   -0.5294 C   0  0  0  0  0  0  0  0  0  0  0  0
   -4.6093   -0.3448   -0.2851 C   0  0  0  0  0  0  0  0  0  0  0  0
   -4.4058    2.0322    0.2903 C   0  0  0  0  0  0  0  0  0  0  0  0
   -5.1694    0.9209   -0.0870 C   0  0  0  0  0  0  0  0  0  0  0  0
    4.4059   -0.1288    1.8279 H   0  0  0  0  0  0  0  0  0  0  0  0
    3.3628    1.8603    0.5554 H   0  0  0  0  0  0  0  0  0  0  0  0
    2.3687    1.1045    1.8015 H   0  0  0  0  0  0  0  0  0  0  0  0
    2.6484   -1.6625    2.0537 H   0  0  0  0  0  0  0  0  0  0  0  0
    3.7673   -2.4246    0.9258 H   0  0  0  0  0  0  0  0  0  0  0  0
    1.0369    1.5429   -0.2273 H   0  0  0  0  0  0  0  0  0  0  0  0
    2.1340    0.6069   -1.2127 H   0  0  0  0  0  0  0  0  0  0  0  0
    2.2854   -1.8344   -0.9895 H   0  0  0  0  0  0  0  0  0  0  0  0
    1.3701   -2.6619    0.2599 H   0  0  0  0  0  0  0  0  0  0  0  0
   -0.5636    1.2953    0.7051 H   0  0  0  0  0  0  0  0  0  0  0  0
    7.1923   -0.3790   -1.2154 H   0  0  0  0  0  0  0  0  0  0  0  0
    6.3470    1.0406   -1.9001 H   0  0  0  0  0  0  0  0  0  0  0  0
   -2.8120   -1.4858   -0.2903 H   0  0  0  0  0  0  0  0  0  0  0  0
   -2.4249    2.7003    0.7642 H   0  0  0  0  0  0  0  0  0  0  0  0
    8.7030    1.6074   -1.2981 H   0  0  0  0  0  0  0  0  0  0  0  0
    7.5533    2.5175   -0.2890 H   0  0  0  0  0  0  0  0  0  0  0  0
    8.3848    1.1214    0.3844 H   0  0  0  0  0  0  0  0  0  0  0  0
   -4.8586    3.0069    0.4395 H   0  0  0  0  0  0  0  0  0  0  0  0
  1  8  1  0  0  0  0
  1 23  1  0  0  0  0
  2 14  1  0  0  0  0
  2 17  1  0  0  0  0
  3 14  2  0  0  0  0
  4 15  2  0  0  0  0
  5 12  1  0  0  0  0
  5 13  1  0  0  0  0
  5 15  1  0  0  0  0
  6 15  1  0  0  0  0
  6 16  1  0  0  0  0
  6 33  1  0  0  0  0
  7  8  2  0  0  0  0
  7 21  1  0  0  0  0
  9 10  1  0  0  0  0
  9 11  1  0  0  0  0
  9 14  1  0  0  0  0
  9 24  1  0  0  0  0
 10 12  1  0  0  0  0
 10 25  1  0  0  0  0
 10 26  1  0  0  0  0
 11 13  1  0  0  0  0
 11 27  1  0  0  0  0
 11 28  1  0  0  0  0
 12 29  1  0  0  0  0
 12 30  1  0  0  0  0
 13 31  1  0  0  0  0
 13 32  1  0  0  0  0
 16 18  2  0  0  0  0
 16 19  1  0  0  0  0
 17 20  1  0  0  0  0
 17 34  1  0  0  0  0
 17 35  1  0  0  0  0
 18 21  1  0  0  0  0
 18 36  1  0  0  0  0
 19 22  2  0  0  0  0
 19 37  1  0  0  0  0
 20 38  1  0  0  0  0
 20 39  1  0  0  0  0
 20 40  1  0  0  0  0
 21 23  2  0  0  0  0
 22 23  1  0  0  0  0
 22 41  1  0  0  0  0
M  END
> <PUBCHEM_COMPOUND_CID>
972742

> <PUBCHEM_CONFORMER_RMSD>
0.8

> <PUBCHEM_CONFORMER_DIVERSEORDER>
1
178
20
225
32
131
140
102
91
114
22
130
61
177
30
41
180
40
129
213
210
21
167
197
68
27
186
182
139
124
169
6
137
208
125
85
176
52
146
19
216
48
121
221
209
150
104
161
76
133
112
79
101
154
193
123
171
43
92
69
185
45
156
37
191
148
212
215
111
15
206
87
220
211
158
204
57
115
141
222
110
188
81
214
184
201
83
199
12
172
60
200
93
126
90
127
132
39
134
23
99
24
207
74
113
159
49
109
163
179
142
223
120
170
54
217
46
72
88
16
153
11
162
183
34
152
80
136
59
13
175
155
157
75
196
78
192
97
64
106
18
116
119
173
67
194
181
151
144
203
29
65
35
174
7
198
10
224
128
89
189
4
70
103
202
14
187
36
218
122
5
138
25
53
168
66
108
28
47
190
71
8
160
98
105
147
42
205
63
94
33
219
17
166
77
107
55
195
96
56
84
143
51
44
82
2
62
100
135
26
149
164
118
165
38
50
3
86
117
73
95
31
145
58
9

> <PUBCHEM_MMFF94_PARTIAL_CHARGES>
24
1 0.18
12 0.3
13 0.3
14 0.66
15 0.69
16 0.12
17 0.28
18 -0.15
19 -0.15
2 -0.43
21 0.23
22 -0.15
23 0.04
3 -0.57
33 0.37
36 0.15
37 0.15
4 -0.57
41 0.15
5 -0.66
6 -0.55
7 -0.23
8 -0.22
9 0.06

> <PUBCHEM_EFFECTIVE_ROTOR_COUNT>
7.2

> <PUBCHEM_PHARMACOPHORE_FEATURES>
6
1 3 acceptor
1 4 acceptor
1 6 donor
5 1 7 8 21 23 rings
6 16 18 19 21 22 23 rings
6 5 9 10 11 12 13 rings

> <PUBCHEM_HEAVY_ATOM_COUNT>
23

> <PUBCHEM_ATOM_DEF_STEREO_COUNT>
0

> <PUBCHEM_ATOM_UDEF_STEREO_COUNT>
0

> <PUBCHEM_BOND_DEF_STEREO_COUNT>
0

> <PUBCHEM_BOND_UDEF_STEREO_COUNT>
0

> <PUBCHEM_ISOTOPIC_ATOM_COUNT>
0

> <PUBCHEM_COMPONENT_COUNT>
1

> <PUBCHEM_CACTVS_TAUTO_COUNT>
2

> <PUBCHEM_CONFORMER_ID>
000ED7C600000001

> <PUBCHEM_MMFF94_ENERGY>
46.1293

> <PUBCHEM_FEATURE_SELFOVERLAP>
30.514

> <PUBCHEM_SHAPE_FINGERPRINT>
10 15 13623534580357787614
10066227 49 17631461081799420886
10595046 47 18410009893037520083
106641 1 16805331015376920089
10968037 39 18411417311471944525
11089746 13 12901550160966827047
11315181 36 18334296479289081001
11315621 246 17917139606920370015
11524674 6 15051729811778685405
11973863 73 12966588412796375014
12107183 9 17474947628392774211
12166972 35 18343021107554509441
12236239 1 18408319960592328787
12616971 3 11599995561862033411
13533116 47 18115016407862834563
13631057 29 17604435227675173707
13668630 136 15482674589143634204
14123256 10 18410292523070198381
14251718 22 18343303660788829500
14251764 18 18261107478905969912
14528608 73 18410572877139579130
15048467 5 18040437702977556012
15142383 8 12319464264009900595
15183329 4 17561087977585878578
15301273 46 13190336851969765986
15348495 7 12108084300352398492
1577012 14 18335981982615499553
15788980 27 16558742400011805769
15961568 22 18334579018801009900
17844677 252 15123786280276692611
18335252 114 17748832930304432972
18335252 98 18272376390200278823
18681886 176 18201432618610243976
20281389 69 17748824112304167340
21065198 48 18338513032844723963
21150785 3 18130791174564541876
21267235 1 18342738559853338867
21365058 113 15913041049557771473
220451 1 18342737391152924571
221357 26 17917991668207564152
22224240 67 14634869777796041512
2297311 6 17561365076238951585
23035841 295 10735879469456507284
23081809 10 18334292024500549714
23402539 116 18412255134842254695
23559900 14 18342448275403111697
246663 6 14764350456967436533
300161 21 16877662365955467786
3004659 81 18341609330334401569
3472631 163 18261119616826362156
34797466 226 17846781814476734812
3545911 37 18412824673053936001
4073 2 18186525393133357723
4325135 7 18412543215341529693
5104073 3 18341326679164081691
53794403 172 18192430986061185224
542803 24 17894348856795434075
543368 44 18260550009241283753
5486654 2 18413385441322551227
59755656 215 18202565059805240479
59755656 520 17894623769221203739
67856867 119 18335701693419430573

> <PUBCHEM_SHAPE_MULTIPOLES>
439.65
20.14
1.79
0.93
7.48
0
-0.02
6.37
-6.36
-0.29
0.17
0.65
-0.07
-1.06

> <PUBCHEM_SHAPE_SELFOVERLAP>
917.083

> <PUBCHEM_SHAPE_VOLUME>
250.5

> <PUBCHEM_COORDINATE_TYPE>
2
5
10

$$$$
