1219922
  -OEChem-01171809383D

 39 43  0     0  0  0  0  0  0999 V2000
   -4.7190   -0.1787    0.1357 S   0  0  0  0  0  0  0  0  0  0  0  0
    0.5075   -0.6328   -1.0528 S   0  0  0  0  0  0  0  0  0  0  0  0
   -3.6365   -2.4965   -0.5984 N   0  0  0  0  0  0  0  0  0  0  0  0
   -1.2758   -2.5898   -1.1366 N   0  0  0  0  0  0  0  0  0  0  0  0
    2.4303   -0.5564    0.8876 N   0  0  0  0  0  0  0  0  0  0  0  0
    0.5599   -1.4321    1.5489 N   0  0  0  0  0  0  0  0  0  0  0  0
    2.6306   -0.8881    2.1706 N   0  0  0  0  0  0  0  0  0  0  0  0
    1.4831   -1.4230    2.5699 N   0  0  0  0  0  0  0  0  0  0  0  0
   -1.3172    1.9307   -0.1528 C   0  0  0  0  0  0  0  0  0  0  0  0
   -1.8990    3.3522   -0.1169 C   0  0  0  0  0  0  0  0  0  0  0  0
   -2.3927    0.8843   -0.1565 C   0  0  0  0  0  0  0  0  0  0  0  0
   -3.0310    3.4741    0.9125 C   0  0  0  0  0  0  0  0  0  0  0  0
   -4.2006    2.5344    0.5830 C   0  0  0  0  0  0  0  0  0  0  0  0
   -3.6953    1.1775    0.2035 C   0  0  0  0  0  0  0  0  0  0  0  0
   -2.2328   -0.5036   -0.4856 C   0  0  0  0  0  0  0  0  0  0  0  0
   -3.4382   -1.1848   -0.3637 C   0  0  0  0  0  0  0  0  0  0  0  0
   -1.1330   -1.2706   -0.8883 C   0  0  0  0  0  0  0  0  0  0  0  0
   -2.5055   -3.1160   -0.9786 C   0  0  0  0  0  0  0  0  0  0  0  0
    1.1871   -0.8990    0.5664 C   0  0  0  0  0  0  0  0  0  0  0  0
    3.4394    0.0392    0.1380 C   0  0  0  0  0  0  0  0  0  0  0  0
    3.1084    0.9135   -0.8918 C   0  0  0  0  0  0  0  0  0  0  0  0
    4.7706   -0.2419    0.4270 C   0  0  0  0  0  0  0  0  0  0  0  0
    4.1202    1.5134   -1.6415 C   0  0  0  0  0  0  0  0  0  0  0  0
    5.7824    0.3581   -0.3227 C   0  0  0  0  0  0  0  0  0  0  0  0
    5.4570    1.2358   -1.3569 C   0  0  0  0  0  0  0  0  0  0  0  0
   -0.6749    1.7806    0.7232 H   0  0  0  0  0  0  0  0  0  0  0  0
   -0.6998    1.8635   -1.0526 H   0  0  0  0  0  0  0  0  0  0  0  0
   -1.1020    4.0676    0.1154 H   0  0  0  0  0  0  0  0  0  0  0  0
   -2.2877    3.6166   -1.1089 H   0  0  0  0  0  0  0  0  0  0  0  0
   -3.3928    4.5077    0.9518 H   0  0  0  0  0  0  0  0  0  0  0  0
   -2.6365    3.2347    1.9085 H   0  0  0  0  0  0  0  0  0  0  0  0
   -4.7713    2.9478   -0.2578 H   0  0  0  0  0  0  0  0  0  0  0  0
   -4.8750    2.4776    1.4451 H   0  0  0  0  0  0  0  0  0  0  0  0
   -2.5938   -4.1770   -1.1840 H   0  0  0  0  0  0  0  0  0  0  0  0
    2.1111    1.2878   -1.0802 H   0  0  0  0  0  0  0  0  0  0  0  0
    5.0548   -0.9285    1.2204 H   0  0  0  0  0  0  0  0  0  0  0  0
    3.8693    2.2216   -2.4259 H   0  0  0  0  0  0  0  0  0  0  0  0
    6.8235    0.1418   -0.1018 H   0  0  0  0  0  0  0  0  0  0  0  0
    6.2449    1.7084   -1.9360 H   0  0  0  0  0  0  0  0  0  0  0  0
  1 14  1  0  0  0  0
  1 16  1  0  0  0  0
  2 17  1  0  0  0  0
  2 19  1  0  0  0  0
  3 16  1  0  0  0  0
  3 18  2  0  0  0  0
  4 17  2  0  0  0  0
  4 18  1  0  0  0  0
  5  7  1  0  0  0  0
  5 19  1  0  0  0  0
  5 20  1  0  0  0  0
  6  8  1  0  0  0  0
  6 19  2  0  0  0  0
  7  8  2  0  0  0  0
  9 10  1  0  0  0  0
  9 11  1  0  0  0  0
  9 26  1  0  0  0  0
  9 27  1  0  0  0  0
 10 12  1  0  0  0  0
 10 28  1  0  0  0  0
 10 29  1  0  0  0  0
 11 14  2  0  0  0  0
 11 15  1  0  0  0  0
 12 13  1  0  0  0  0
 12 30  1  0  0  0  0
 12 31  1  0  0  0  0
 13 14  1  0  0  0  0
 13 32  1  0  0  0  0
 13 33  1  0  0  0  0
 15 16  2  0  0  0  0
 15 17  1  0  0  0  0
 18 34  1  0  0  0  0
 20 21  2  0  0  0  0
 20 22  1  0  0  0  0
 21 23  1  0  0  0  0
 21 35  1  0  0  0  0
 22 24  2  0  0  0  0
 22 36  1  0  0  0  0
 23 25  2  0  0  0  0
 23 37  1  0  0  0  0
 24 25  1  0  0  0  0
 24 38  1  0  0  0  0
 25 39  1  0  0  0  0
M  END
> <PUBCHEM_COMPOUND_CID>
1219922

> <PUBCHEM_CONFORMER_RMSD>
0.8

> <PUBCHEM_CONFORMER_DIVERSEORDER>
2
6
24
10
23
15
20
4
18
11
5
22
9
7
3
13
1
16
14
19
12
17
21
8

> <PUBCHEM_MMFF94_PARTIAL_CHARGES>
27
1 -0.08
11 -0.18
13 0.18
14 -0.14
16 0.3
17 0.41
18 0.47
19 0.24
2 -0.16
20 -0.02
21 -0.15
22 -0.15
23 -0.15
24 -0.15
25 -0.15
3 -0.57
34 0.15
35 0.15
36 0.15
37 0.15
38 0.15
39 0.15
4 -0.62
5 0.59
6 -0.34
7 -0.42
9 0.18

> <PUBCHEM_EFFECTIVE_ROTOR_COUNT>
3.8

> <PUBCHEM_PHARMACOPHORE_FEATURES>
8
1 4 acceptor
3 3 4 18 cation
3 5 6 19 cation
5 1 11 14 15 16 rings
5 5 6 7 8 19 rings
6 20 21 22 23 24 25 rings
6 3 4 15 16 17 18 rings
6 9 10 11 12 13 14 rings

> <PUBCHEM_HEAVY_ATOM_COUNT>
25

> <PUBCHEM_ATOM_DEF_STEREO_COUNT>
0

> <PUBCHEM_ATOM_UDEF_STEREO_COUNT>
0

> <PUBCHEM_BOND_DEF_STEREO_COUNT>
0

> <PUBCHEM_BOND_UDEF_STEREO_COUNT>
0

> <PUBCHEM_ISOTOPIC_ATOM_COUNT>
0

> <PUBCHEM_COMPONENT_COUNT>
1

> <PUBCHEM_CACTVS_TAUTO_COUNT>
1

> <PUBCHEM_CONFORMER_ID>
00129D5200000002

> <PUBCHEM_MMFF94_ENERGY>
67.1917

> <PUBCHEM_FEATURE_SELFOVERLAP>
40.735

> <PUBCHEM_SHAPE_FINGERPRINT>
10165383 225 17632309955898569035
10369192 42 16195060456718897168
10411042 1 17982449605763514655
10615611 76 18114760277451155612
10670039 82 18341613694126532964
10759866 29 18263924341221966946
10871710 139 18335424581992076149
10906281 52 18267306435860329993
11049842 53 18055906607162030314
12107183 9 18049439245597149842
12166972 35 11023527070296821329
12236239 1 18186517726220763799
12390115 104 17916881105887437273
12553582 1 18268699679715819647
12596602 18 17894634755715203331
12788726 201 18337382833913624979
13583140 156 17168708518714711917
13617811 41 18270674406757435151
13726171 33 18201451267601622864
13782708 43 16845009133926982511
13965767 371 17755312175363404181
14251751 93 18411139117270272324
14251757 5 18201725058612145960
14341114 328 18187086130782670416
14739800 52 18267847532629799008
14787075 74 17896324786512268411
14840074 17 18187376397948222661
15021287 119 17824250506917026546
15163728 17 17985841323913969777
15297060 5 17987526917872681321
15575132 122 18335704901760000757
15842332 3 18188470403169260978
16988056 13 16176506738665369997
18785283 64 17548707279389325179
19319366 153 18114180783209461153
20511986 3 18113607980686010493
20642791 35 18339919441424543169
21033650 10 18267330719304468876
21756936 100 18186813495360098096
21857420 4 15544832421040452230
22907989 373 18264750105126301125
23557571 272 18060144253559935388
23559900 14 17914051997496241982
3610482 184 18115612425444161956
38570 142 17824007605188930388
392239 28 17751384926155847025
4098825 35 18343312457651972630
445580 204 18262809579152429100
474 4 17676491661607174516
633830 44 17894920620312156902
6700243 42 17412218655760854422
6823239 73 17988634237983071392
70251023 43 17476354384701738583
7097593 13 17901084340241569427
7808743 9 18342178821596809065
9849439 229 17839465488592921753

> <PUBCHEM_SHAPE_MULTIPOLES>
492.3
11.11
3.46
1.55
11.18
1.15
0.78
3.87
-1.55
-5.14
-0.29
1.52
-0.56
-2.51

> <PUBCHEM_SHAPE_SELFOVERLAP>
1073.265

> <PUBCHEM_SHAPE_VOLUME>
269.9

> <PUBCHEM_COORDINATE_TYPE>
2
5
10

$$$$
