2960739
  -OEChem-01171809473D

 33 35  0     0  0  0  0  0  0999 V2000
    2.9564    3.5715   -0.4657 F   0  0  0  0  0  0  0  0  0  0  0  0
   -0.9196   -0.9736    0.4364 N   0  0  0  0  0  0  0  0  0  0  0  0
   -1.9328    1.2126    0.4650 N   0  0  0  0  0  0  0  0  0  0  0  0
   -3.2072   -0.7140    0.7895 N   0  0  0  0  0  0  0  0  0  0  0  0
   -5.1929   -1.6232   -0.0440 N   0  0  0  0  0  0  0  0  0  0  0  0
   -3.6620   -0.8939   -1.5710 N   0  0  0  0  0  0  0  0  0  0  0  0
    0.4279    1.0042    0.0977 C   0  0  0  0  0  0  0  0  0  0  0  0
    0.2640   -0.3736    0.2088 C   0  0  0  0  0  0  0  0  0  0  0  0
   -0.7350    1.7792    0.2371 C   0  0  0  0  0  0  0  0  0  0  0  0
    1.3580   -1.3163    0.0921 C   0  0  0  0  0  0  0  0  0  0  0  0
    1.6751    1.6075   -0.1401 C   0  0  0  0  0  0  0  0  0  0  0  0
   -0.6107    3.1623    0.1318 C   0  0  0  0  0  0  0  0  0  0  0  0
    2.0734   -1.6954    1.2269 C   0  0  0  0  0  0  0  0  0  0  0  0
    1.6927   -1.8430   -1.1544 C   0  0  0  0  0  0  0  0  0  0  0  0
    1.7703    2.9919   -0.2405 C   0  0  0  0  0  0  0  0  0  0  0  0
    0.6259    3.7700   -0.1045 C   0  0  0  0  0  0  0  0  0  0  0  0
   -1.9600   -0.1329    0.5522 C   0  0  0  0  0  0  0  0  0  0  0  0
    3.1265   -2.6032    1.1148 C   0  0  0  0  0  0  0  0  0  0  0  0
    2.7457   -2.7508   -1.2664 C   0  0  0  0  0  0  0  0  0  0  0  0
    3.4626   -3.1309   -0.1317 C   0  0  0  0  0  0  0  0  0  0  0  0
   -3.9584   -1.0486   -0.2340 C   0  0  0  0  0  0  0  0  0  0  0  0
    2.5859    1.0256   -0.2506 H   0  0  0  0  0  0  0  0  0  0  0  0
   -1.4912    3.7938    0.2345 H   0  0  0  0  0  0  0  0  0  0  0  0
    1.8236   -1.2933    2.2058 H   0  0  0  0  0  0  0  0  0  0  0  0
    1.1433   -1.5570   -2.0482 H   0  0  0  0  0  0  0  0  0  0  0  0
    0.6918    4.8513   -0.1815 H   0  0  0  0  0  0  0  0  0  0  0  0
    3.6847   -2.8992    1.9982 H   0  0  0  0  0  0  0  0  0  0  0  0
    3.0076   -3.1619   -2.2369 H   0  0  0  0  0  0  0  0  0  0  0  0
    4.2825   -3.8378   -0.2190 H   0  0  0  0  0  0  0  0  0  0  0  0
   -5.5502   -1.8005    0.8885 H   0  0  0  0  0  0  0  0  0  0  0  0
   -5.7821   -1.8849   -0.8268 H   0  0  0  0  0  0  0  0  0  0  0  0
   -4.3146   -1.1877   -2.2898 H   0  0  0  0  0  0  0  0  0  0  0  0
   -2.7879   -0.4857   -1.8838 H   0  0  0  0  0  0  0  0  0  0  0  0
  1 15  1  0  0  0  0
  2  8  2  0  0  0  0
  2 17  1  0  0  0  0
  3  9  1  0  0  0  0
  3 17  2  0  0  0  0
  4 17  1  0  0  0  0
  4 21  2  0  0  0  0
  5 21  1  0  0  0  0
  5 30  1  0  0  0  0
  5 31  1  0  0  0  0
  6 21  1  0  0  0  0
  6 32  1  0  0  0  0
  6 33  1  0  0  0  0
  7  8  1  0  0  0  0
  7  9  2  0  0  0  0
  7 11  1  0  0  0  0
  8 10  1  0  0  0  0
  9 12  1  0  0  0  0
 10 13  2  0  0  0  0
 10 14  1  0  0  0  0
 11 15  2  0  0  0  0
 11 22  1  0  0  0  0
 12 16  2  0  0  0  0
 12 23  1  0  0  0  0
 13 18  1  0  0  0  0
 13 24  1  0  0  0  0
 14 19  2  0  0  0  0
 14 25  1  0  0  0  0
 15 16  1  0  0  0  0
 16 26  1  0  0  0  0
 18 20  2  0  0  0  0
 18 27  1  0  0  0  0
 19 20  1  0  0  0  0
 19 28  1  0  0  0  0
 20 29  1  0  0  0  0
M  END
> <PUBCHEM_COMPOUND_CID>
2960739

> <PUBCHEM_CONFORMER_RMSD>
0.6

> <PUBCHEM_CONFORMER_DIVERSEORDER>
2
1
3
4

> <PUBCHEM_MMFF94_PARTIAL_CHARGES>
31
1 -0.19
11 -0.15
12 -0.15
13 -0.15
14 -0.15
15 0.19
16 -0.15
17 0.8
18 -0.15
19 -0.15
2 -0.62
20 -0.15
21 0.55
22 0.15
23 0.15
24 0.15
25 0.15
26 0.15
27 0.15
28 0.15
29 0.15
3 -0.62
30 0.4
31 0.4
32 0.4
33 0.4
4 -0.63
5 -0.85
6 -0.85
8 0.31
9 0.31

> <PUBCHEM_EFFECTIVE_ROTOR_COUNT>
2

> <PUBCHEM_PHARMACOPHORE_FEATURES>
8
1 2 acceptor
1 5 donor
1 6 donor
4 2 3 4 17 cation
4 4 5 6 21 cation
6 10 13 14 18 19 20 rings
6 2 3 7 8 9 17 rings
6 7 9 11 12 15 16 rings

> <PUBCHEM_HEAVY_ATOM_COUNT>
21

> <PUBCHEM_ATOM_DEF_STEREO_COUNT>
0

> <PUBCHEM_ATOM_UDEF_STEREO_COUNT>
0

> <PUBCHEM_BOND_DEF_STEREO_COUNT>
0

> <PUBCHEM_BOND_UDEF_STEREO_COUNT>
0

> <PUBCHEM_ISOTOPIC_ATOM_COUNT>
0

> <PUBCHEM_COMPONENT_COUNT>
1

> <PUBCHEM_CACTVS_TAUTO_COUNT>
4

> <PUBCHEM_CONFORMER_ID>
002D2D6300000002

> <PUBCHEM_MMFF94_ENERGY>
71.8936

> <PUBCHEM_FEATURE_SELFOVERLAP>
40.722

> <PUBCHEM_SHAPE_FINGERPRINT>
10411042 1 18337955575891405563
10693767 8 18058739129318646494
10989021 7 18411984633132549411
1100329 8 18192997002700039609
11265709 11 18338237042404359939
11578080 2 17313657128029961452
116883 192 18196927786654345965
12173636 292 16679505863895248044
12363563 72 18337956688520069747
12553582 1 18265346010026336619
12730499 353 18046911756417780483
12788726 201 17757286880887276106
13009979 54 17916883339159518851
13083527 12 18337376206409204962
13140716 1 17835521900859934233
13149001 5 17901077773394952885
13257819 37 17395032279637869372
133893 2 18263944244169254601
13681431 1 18411138038964228307
14508225 48 18194672679388542109
14790565 3 17258514244796930128
15042514 8 17761217609329124747
16945 1 18265622154858650249
17357779 13 17984115107574285303
17539 30 17979344266486379303
1813 80 18270967838685590303
19591789 44 17473831005061610219
20028762 73 17190960761170696999
20510252 161 17043732310542444840
20645477 70 18338514261553939207
20671657 53 18409726223433092251
20693207 138 17822296825173522307
20905425 154 18268441148559821588
21304303 282 16747017037165002676
21452121 199 18411130312323389504
21524375 3 17688027934720569721
22112679 90 18123493595183437424
22149856 69 15960912291236896792
23114952 82 18261098717072693565
23184049 29 18265054626438182928
23366157 5 18187936100505031833
23419403 2 17824514488159091854
23557571 272 17767679460967591042
23598288 3 17613750040122149666
257057 1 18337389318696660488
2748010 2 18267012852389415904
3060560 45 18049721020752222285
3084891 72 17979362180959248120
3091708 16 9141137895776732161
352729 6 17760660556197203729
3759504 43 17467915611224686532
404807 78 16025872108399980871
46194498 28 18120620696635073583
6025842 7 18194676189057785471
6138700 20 18338526347829248308
6669772 16 18052550060476688844
7364860 26 18339366378036866096
7471813 234 18335420106699632814
81228 2 17980197487578150825
8272917 22 18267307710953433349
9841814 1 18260824895511530571

> <PUBCHEM_SHAPE_MULTIPOLES>
399.99
6.46
4.95
1.06
2.24
5.86
0.13
-8.74
0.43
-0.47
0.75
-0.39
-0.63
-0.45

> <PUBCHEM_SHAPE_SELFOVERLAP>
889.492

> <PUBCHEM_SHAPE_VOLUME>
213.5

> <PUBCHEM_COORDINATE_TYPE>
2
5
10

$$$$
