1608349
  -OEChem-01171810123D

 52 55  0     0  0  0  0  0  0999 V2000
    7.1143    1.3450   -2.2947 Cl  0  0  0  0  0  0  0  0  0  0  0  0
    0.0832    0.9778    0.6713 S   0  0  0  0  0  0  0  0  0  0  0  0
    2.8265   -0.8910   -0.4026 O   0  0  0  0  0  0  0  0  0  0  0  0
    1.2983    1.6587    0.2710 O   0  0  0  0  0  0  0  0  0  0  0  0
    0.0113    0.3029    1.9518 O   0  0  0  0  0  0  0  0  0  0  0  0
   -1.6028    0.8404   -2.3946 O   0  0  0  0  0  0  0  0  0  0  0  0
   -2.7475   -0.4688   -0.8590 N   0  0  0  0  0  0  0  0  0  0  0  0
   -6.3024   -3.1634   -0.3724 N   0  0  0  0  0  0  0  0  0  0  0  0
   -0.3879   -0.1160   -0.5872 C   0  0  0  0  0  0  0  0  0  0  0  0
   -1.2337    2.1574    0.6336 C   0  0  0  0  0  0  0  0  0  0  0  0
    0.4461   -1.1485   -0.7979 C   0  0  0  0  0  0  0  0  0  0  0  0
    1.6292   -1.4021   -0.0397 C   0  0  0  0  0  0  0  0  0  0  0  0
   -1.6240    0.1456   -1.3824 C   0  0  0  0  0  0  0  0  0  0  0  0
    3.7190   -1.3247    0.5260 C   0  0  0  0  0  0  0  0  0  0  0  0
   -4.0500   -0.3495   -1.4721 C   0  0  0  0  0  0  0  0  0  0  0  0
    1.7287   -2.1534    1.0982 C   0  0  0  0  0  0  0  0  0  0  0  0
   -2.3509    1.9475    1.4230 C   0  0  0  0  0  0  0  0  0  0  0  0
   -1.1221    3.2677   -0.1847 C   0  0  0  0  0  0  0  0  0  0  0  0
    3.0932   -2.1048    1.4702 C   0  0  0  0  0  0  0  0  0  0  0  0
    5.0731   -0.8911    0.3281 C   0  0  0  0  0  0  0  0  0  0  0  0
   -5.1001   -1.1077   -0.7128 C   0  0  0  0  0  0  0  0  0  0  0  0
   -3.3899    2.8776    1.3928 C   0  0  0  0  0  0  0  0  0  0  0  0
   -2.1613    4.1979   -0.2147 C   0  0  0  0  0  0  0  0  0  0  0  0
   -3.2951    4.0028    0.5741 C   0  0  0  0  0  0  0  0  0  0  0  0
    5.4009   -0.0778   -0.7613 C   0  0  0  0  0  0  0  0  0  0  0  0
    6.0744   -1.2789    1.2240 C   0  0  0  0  0  0  0  0  0  0  0  0
   -5.8131   -0.4952    0.3019 C   0  0  0  0  0  0  0  0  0  0  0  0
   -5.3704   -2.4249   -1.0158 C   0  0  0  0  0  0  0  0  0  0  0  0
    6.7168    0.3435   -0.9527 C   0  0  0  0  0  0  0  0  0  0  0  0
    7.3900   -0.8576    1.0326 C   0  0  0  0  0  0  0  0  0  0  0  0
    7.7114   -0.0463   -0.0556 C   0  0  0  0  0  0  0  0  0  0  0  0
   -6.7804   -1.2222    0.9870 C   0  0  0  0  0  0  0  0  0  0  0  0
   -6.9850   -2.5410    0.6148 C   0  0  0  0  0  0  0  0  0  0  0  0
    0.2163   -1.8586   -1.5880 H   0  0  0  0  0  0  0  0  0  0  0  0
   -3.9787   -0.7100   -2.5055 H   0  0  0  0  0  0  0  0  0  0  0  0
   -4.3052    0.7155   -1.5327 H   0  0  0  0  0  0  0  0  0  0  0  0
   -2.6567   -1.0230   -0.0114 H   0  0  0  0  0  0  0  0  0  0  0  0
    0.9310   -2.6765    1.6071 H   0  0  0  0  0  0  0  0  0  0  0  0
   -2.4477    1.0742    2.0607 H   0  0  0  0  0  0  0  0  0  0  0  0
   -0.2512    3.4332   -0.8113 H   0  0  0  0  0  0  0  0  0  0  0  0
    3.5479   -2.5853    2.3250 H   0  0  0  0  0  0  0  0  0  0  0  0
   -4.2741    2.7240    2.0045 H   0  0  0  0  0  0  0  0  0  0  0  0
   -2.0888    5.0729   -0.8540 H   0  0  0  0  0  0  0  0  0  0  0  0
   -4.1047    4.7262    0.5495 H   0  0  0  0  0  0  0  0  0  0  0  0
    4.6434    0.2405   -1.4746 H   0  0  0  0  0  0  0  0  0  0  0  0
    5.8567   -1.9103    2.0817 H   0  0  0  0  0  0  0  0  0  0  0  0
   -5.6297    0.5408    0.5712 H   0  0  0  0  0  0  0  0  0  0  0  0
   -4.8377   -2.9507   -1.8017 H   0  0  0  0  0  0  0  0  0  0  0  0
    8.1647   -1.1611    1.7308 H   0  0  0  0  0  0  0  0  0  0  0  0
    8.7410    0.2744   -0.1919 H   0  0  0  0  0  0  0  0  0  0  0  0
   -7.3558   -0.7707    1.7871 H   0  0  0  0  0  0  0  0  0  0  0  0
   -7.7278   -3.1513    1.1180 H   0  0  0  0  0  0  0  0  0  0  0  0
  1 29  1  0  0  0  0
  2  4  2  0  0  0  0
  2  5  2  0  0  0  0
  2  9  1  0  0  0  0
  2 10  1  0  0  0  0
  3 12  1  0  0  0  0
  3 14  1  0  0  0  0
  6 13  2  0  0  0  0
  7 13  1  0  0  0  0
  7 15  1  0  0  0  0
  7 37  1  0  0  0  0
  8 28  1  0  0  0  0
  8 33  2  0  0  0  0
  9 11  2  0  0  0  0
  9 13  1  0  0  0  0
 10 17  2  0  0  0  0
 10 18  1  0  0  0  0
 11 12  1  0  0  0  0
 11 34  1  0  0  0  0
 12 16  2  0  0  0  0
 14 19  2  0  0  0  0
 14 20  1  0  0  0  0
 15 21  1  0  0  0  0
 15 35  1  0  0  0  0
 15 36  1  0  0  0  0
 16 19  1  0  0  0  0
 16 38  1  0  0  0  0
 17 22  1  0  0  0  0
 17 39  1  0  0  0  0
 18 23  2  0  0  0  0
 18 40  1  0  0  0  0
 19 41  1  0  0  0  0
 20 25  2  0  0  0  0
 20 26  1  0  0  0  0
 21 27  1  0  0  0  0
 21 28  2  0  0  0  0
 22 24  2  0  0  0  0
 22 42  1  0  0  0  0
 23 24  1  0  0  0  0
 23 43  1  0  0  0  0
 24 44  1  0  0  0  0
 25 29  1  0  0  0  0
 25 45  1  0  0  0  0
 26 30  2  0  0  0  0
 26 46  1  0  0  0  0
 27 32  2  0  0  0  0
 27 47  1  0  0  0  0
 28 48  1  0  0  0  0
 29 31  2  0  0  0  0
 30 31  1  0  0  0  0
 30 49  1  0  0  0  0
 31 50  1  0  0  0  0
 32 33  1  0  0  0  0
 32 51  1  0  0  0  0
 33 52  1  0  0  0  0
M  END
> <PUBCHEM_COMPOUND_CID>
1608349

> <PUBCHEM_CONFORMER_RMSD>
1

> <PUBCHEM_CONFORMER_DIVERSEORDER>
1
196
319
76
233
296
208
52
236
280
14
288
270
104
247
124
152
92
163
167
42
75
302
279
234
25
222
73
96
175
112
173
194
43
16
245
281
22
150
157
178
266
242
292
264
123
276
13
282
160
250
49
252
29
260
278
69
47
289
191
225
174
251
45
190
321
145
118
114
243
320
48
177
68
310
197
117
287
54
232
161
315
24
183
306
298
291
122
283
263
80
214
199
8
156
115
203
305
158
155
308
274
62
261
304
36
200
17
284
168
219
172
286
207
100
134
74
309
231
294
240
216
32
154
110
198
77
4
244
210
230
185
237
129
109
303
91
257
111
314
213
295
182
262
44
20
143
268
267
285
103
15
46
113
195
223
312
38
107
105
120
229
125
98
290
176
50
2
254
318
130
128
217
293
58
249
6
271
300
188
70
33
166
86
3
81
246
64
171
101
226
253
193
269
5
153
131
31
61
227
83
273
71
201
202
235
238
39
65
275
79
277
299
221
137
72
169
317
40
93
119
165
10
297
26
259
138
239
313
204
142
228
255
241
99
212
9
28
316
23
186
144
311
151
106
206
187
180
192
215
307
84
139
27
179
140
256
63
30
141
248
85
87
147
148
211
53
209
322
97
41
301
258
18
133
126
170
34
102
159
265
164
181
224
82
78
189
205
127
132
37
90
272
94
60
56
95
146
218
88
51
121
184
108
7
12
89
220
67
19
59
162
116
11
149
66
57
55
21
35
136
135

> <PUBCHEM_MMFF94_PARTIAL_CHARGES>
49
1 -0.18
10 -0.01
11 -0.11
12 0.09
13 0.62
14 0.09
15 0.44
16 -0.15
17 -0.15
18 -0.15
19 -0.15
2 1.33
20 0.05
21 -0.14
22 -0.15
23 -0.15
24 -0.15
25 -0.15
26 -0.15
27 -0.15
28 0.16
29 0.18
3 -0.28
30 -0.15
31 -0.15
32 -0.15
33 0.16
34 0.15
37 0.37
38 0.15
39 0.15
4 -0.65
40 0.15
41 0.15
42 0.15
43 0.15
44 0.15
45 0.15
46 0.15
47 0.15
48 0.15
49 0.15
5 -0.65
50 0.15
51 0.15
52 0.15
6 -0.57
7 -0.73
8 -0.62

> <PUBCHEM_EFFECTIVE_ROTOR_COUNT>
8

> <PUBCHEM_PHARMACOPHORE_FEATURES>
10
1 3 acceptor
1 4 acceptor
1 5 acceptor
1 6 acceptor
1 7 donor
1 8 acceptor
5 3 12 14 16 19 rings
6 10 17 18 22 23 24 rings
6 20 25 26 29 30 31 rings
6 8 21 27 28 32 33 rings

> <PUBCHEM_HEAVY_ATOM_COUNT>
33

> <PUBCHEM_ATOM_DEF_STEREO_COUNT>
0

> <PUBCHEM_ATOM_UDEF_STEREO_COUNT>
0

> <PUBCHEM_BOND_DEF_STEREO_COUNT>
1

> <PUBCHEM_BOND_UDEF_STEREO_COUNT>
0

> <PUBCHEM_ISOTOPIC_ATOM_COUNT>
0

> <PUBCHEM_COMPONENT_COUNT>
1

> <PUBCHEM_CACTVS_TAUTO_COUNT>
2

> <PUBCHEM_CONFORMER_ID>
00188A9D00000001

> <PUBCHEM_MMFF94_ENERGY>
79.0836

> <PUBCHEM_FEATURE_SELFOVERLAP>
50.768

> <PUBCHEM_SHAPE_FINGERPRINT>
10050765 1 18196091032684017266
10190108 129 18343029899652764051
10290309 65 17702949110821979863
10577160 103 15430893161894902351
10674148 151 15647052660771961789
10794284 68 18199487544408735457
11672396 43 18188200997931984058
12107183 9 10303810977969582538
12422481 6 17418375796823234021
12788726 201 18339634560322352747
13631057 29 18411975854171910651
14068700 675 18336826484949942901
14400156 188 17976548527036465267
14856354 85 18272088331460833463
15183329 4 10447636964570333720
15338160 23 18270962332732702225
15444296 121 18199754807581633791
15538507 32 18267304421045706700
1577012 14 18336266731449000840
16992752 21 18341058488057142565
18608769 82 18343861121842625136
19377110 9 18261672567584332290
19427546 20 18338513037224665349
21049683 271 18115027536402289933
21120745 212 18412545388579897577
21796203 349 18194141818017530291
249057 25 18187079521735051158
25269216 80 18271823310998985166
2747138 104 18342734156710280674
3552219 110 18261119586128874109
4015057 19 14996295716529028079
4173938 306 12468630664454307030
46194498 28 16988552555562388112
469060 322 18341341011058367833
504843 32 18050561847159578453
5219985 9 18410853304772166663
550186 72 18410856516896864912
57527293 21 18125174735793637939
58260988 393 18411700959185220364
5912855 24 18266173929375895227

> <PUBCHEM_SHAPE_MULTIPOLES>
651.4
20.12
4.01
1.7
17.34
3.87
-0.4
-11.69
-1.52
-7.3
0.8
0.74
0.2
-2.91

> <PUBCHEM_SHAPE_SELFOVERLAP>
1408.46

> <PUBCHEM_SHAPE_VOLUME>
357

> <PUBCHEM_COORDINATE_TYPE>
2
5
10

$$$$
