12005252
  -OEChem-01171809333D

 43 45  0     0  0  0  0  0  0999 V2000
    3.9307   -4.5522   -1.3167 Cl  0  0  0  0  0  0  0  0  0  0  0  0
    3.1710    1.1179    1.3050 S   0  0  0  0  0  0  0  0  0  0  0  0
   -2.9959   -2.9439    0.2051 O   0  0  0  0  0  0  0  0  0  0  0  0
    1.3494    4.5106   -1.1347 O   0  0  0  0  0  0  0  0  0  0  0  0
   -2.6325    3.6976   -1.1637 O   0  5  0  0  0  0  0  0  0  0  0  0
   -3.4794    1.9454   -0.1480 O   0  0  0  0  0  0  0  0  0  0  0  0
   -4.5652   -3.1356   -1.4794 O   0  0  0  0  0  0  0  0  0  0  0  0
   -1.9822    0.2891    1.1323 N   0  0  0  0  0  0  0  0  0  0  0  0
   -2.4950    2.6574   -0.4712 N   0  3  0  0  0  0  0  0  0  0  0  0
    0.0070    4.1740   -1.1025 N   0  0  0  0  0  0  0  0  0  0  0  0
    2.1262    3.5996   -0.4398 N   0  0  0  0  0  0  0  0  0  0  0  0
   -1.8011   -0.9016    1.9280 C   0  0  0  0  0  0  0  0  0  0  0  0
   -0.9427    1.1171    0.7390 C   0  0  0  0  0  0  0  0  0  0  0  0
   -3.1343   -1.5960    2.1805 C   0  0  0  0  0  0  0  0  0  0  0  0
   -1.1998    2.2783   -0.0456 C   0  0  0  0  0  0  0  0  0  0  0  0
    0.3963    0.7832    1.1389 C   0  0  0  0  0  0  0  0  0  0  0  0
   -0.0708    3.0461   -0.3854 C   0  0  0  0  0  0  0  0  0  0  0  0
    1.5384    1.5360    0.8106 C   0  0  0  0  0  0  0  0  0  0  0  0
    1.2764    2.6809    0.0358 C   0  0  0  0  0  0  0  0  0  0  0  0
   -3.8327   -2.0253    0.8956 C   0  0  0  0  0  0  0  0  0  0  0  0
    3.3870   -0.4968    0.5581 C   0  0  0  0  0  0  0  0  0  0  0  0
    3.2890   -0.6355   -0.8214 C   0  0  0  0  0  0  0  0  0  0  0  0
    3.6514   -1.5977    1.3648 C   0  0  0  0  0  0  0  0  0  0  0  0
   -3.4875   -3.4245   -0.9771 C   0  0  0  0  0  0  0  0  0  0  0  0
    3.4575   -1.8923   -1.4024 C   0  0  0  0  0  0  0  0  0  0  0  0
    3.8200   -2.8545    0.7838 C   0  0  0  0  0  0  0  0  0  0  0  0
    3.7230   -3.0019   -0.5998 C   0  0  0  0  0  0  0  0  0  0  0  0
   -2.5042   -4.3753   -1.5896 C   0  0  0  0  0  0  0  0  0  0  0  0
   -1.3660   -0.6418    2.9006 H   0  0  0  0  0  0  0  0  0  0  0  0
   -1.1208   -1.6006    1.4269 H   0  0  0  0  0  0  0  0  0  0  0  0
   -3.8001   -0.9310    2.7434 H   0  0  0  0  0  0  0  0  0  0  0  0
   -2.9476   -2.4796    2.8029 H   0  0  0  0  0  0  0  0  0  0  0  0
   -2.9296    0.5936    0.9498 H   0  0  0  0  0  0  0  0  0  0  0  0
    0.5646   -0.1072    1.7448 H   0  0  0  0  0  0  0  0  0  0  0  0
   -4.0583   -1.1671    0.2534 H   0  0  0  0  0  0  0  0  0  0  0  0
   -4.7756   -2.5221    1.1525 H   0  0  0  0  0  0  0  0  0  0  0  0
    3.0886    0.2165   -1.4659 H   0  0  0  0  0  0  0  0  0  0  0  0
    3.7294   -1.5005    2.4446 H   0  0  0  0  0  0  0  0  0  0  0  0
    3.3804   -1.9921   -2.4821 H   0  0  0  0  0  0  0  0  0  0  0  0
    4.0261   -3.7103    1.4215 H   0  0  0  0  0  0  0  0  0  0  0  0
   -2.3431   -5.2237   -0.9198 H   0  0  0  0  0  0  0  0  0  0  0  0
   -1.5626   -3.8571   -1.7880 H   0  0  0  0  0  0  0  0  0  0  0  0
   -2.9025   -4.7493   -2.5371 H   0  0  0  0  0  0  0  0  0  0  0  0
  1 27  1  0  0  0  0
  2 18  1  0  0  0  0
  2 21  1  0  0  0  0
  3 20  1  0  0  0  0
  3 24  1  0  0  0  0
  4 10  1  0  0  0  0
  4 11  1  0  0  0  0
  5  9  1  0  0  0  0
  6  9  2  0  0  0  0
  7 24  2  0  0  0  0
  8 12  1  0  0  0  0
  8 13  1  0  0  0  0
  8 33  1  0  0  0  0
  9 15  1  0  0  0  0
 10 17  2  0  0  0  0
 11 19  2  0  0  0  0
 12 14  1  0  0  0  0
 12 29  1  0  0  0  0
 12 30  1  0  0  0  0
 13 15  2  0  0  0  0
 13 16  1  0  0  0  0
 14 20  1  0  0  0  0
 14 31  1  0  0  0  0
 14 32  1  0  0  0  0
 15 17  1  0  0  0  0
 16 18  2  0  0  0  0
 16 34  1  0  0  0  0
 17 19  1  0  0  0  0
 18 19  1  0  0  0  0
 20 35  1  0  0  0  0
 20 36  1  0  0  0  0
 21 22  2  0  0  0  0
 21 23  1  0  0  0  0
 22 25  1  0  0  0  0
 22 37  1  0  0  0  0
 23 26  2  0  0  0  0
 23 38  1  0  0  0  0
 24 28  1  0  0  0  0
 25 27  2  0  0  0  0
 25 39  1  0  0  0  0
 26 27  1  0  0  0  0
 26 40  1  0  0  0  0
 28 41  1  0  0  0  0
 28 42  1  0  0  0  0
 28 43  1  0  0  0  0
M  CHG  2   5  -1   9   1
M  END
> <PUBCHEM_COMPOUND_CID>
12005252

> <PUBCHEM_CONFORMER_RMSD>
1

> <PUBCHEM_CONFORMER_DIVERSEORDER>
3
94
62
25
60
31
77
49
68
37
40
90
52
93
12
61
63
69
85
56
29
75
24
35
47
76
81
80
89
41
13
43
58
91
44
18
42
64
8
46
30
7
32
45
27
73
55
9
88
23
59
50
6
34
65
92
10
33
72
20
11
87
67
2
66
83
82
4
16
78
48
74
36
57
84
38
1
39
14
51
19
26
28
17
71
70
86
79
53
54
21
22
5
15

> <PUBCHEM_MMFF94_PARTIAL_CHARGES>
33
1 -0.18
10 -0.41
11 -0.41
12 0.37
13 0.1
15 0.13
16 -0.15
17 0.29
18 0.1
19 0.29
2 -0.2
20 0.28
21 0.1
22 -0.15
23 -0.15
24 0.66
25 -0.15
26 -0.15
27 0.18
28 0.06
3 -0.43
33 0.4
34 0.15
37 0.15
38 0.15
39 0.15
4 0.24
40 0.15
5 -0.52
6 -0.52
7 -0.57
8 -0.87
9 0.91

> <PUBCHEM_EFFECTIVE_ROTOR_COUNT>
9

> <PUBCHEM_PHARMACOPHORE_FEATURES>
11
1 10 acceptor
1 11 acceptor
1 5 acceptor
1 5 anion
1 6 acceptor
1 7 acceptor
1 8 cation
1 8 donor
5 4 10 11 17 19 rings
6 13 15 16 17 18 19 rings
6 21 22 23 25 26 27 rings

> <PUBCHEM_HEAVY_ATOM_COUNT>
28

> <PUBCHEM_ATOM_DEF_STEREO_COUNT>
0

> <PUBCHEM_ATOM_UDEF_STEREO_COUNT>
0

> <PUBCHEM_BOND_DEF_STEREO_COUNT>
0

> <PUBCHEM_BOND_UDEF_STEREO_COUNT>
0

> <PUBCHEM_ISOTOPIC_ATOM_COUNT>
0

> <PUBCHEM_COMPONENT_COUNT>
1

> <PUBCHEM_CACTVS_TAUTO_COUNT>
2

> <PUBCHEM_CONFORMER_ID>
00B72F8400000003

> <PUBCHEM_MMFF94_ENERGY>
83.8114

> <PUBCHEM_FEATURE_SELFOVERLAP>
56.082

> <PUBCHEM_SHAPE_FINGERPRINT>
15484559 13 17473541829303295254
16752209 62 17394451304155495720
20775438 99 17981282838661796749
20775530 9 18338811047788542514
21344244 181 18125422139280215869
23559900 14 18047194051791182352
46194498 28 17828743377652943679
5085150 59 16968005641897644234
59025328 239 18125137571589811935

> <PUBCHEM_SHAPE_MULTIPOLES>
532.68
8.49
7.54
1.77
4.14
1.02
-0.36
9.61
0.81
-4.03
4.7
-0.42
0.92
1.12

> <PUBCHEM_SHAPE_SELFOVERLAP>
1111.642

> <PUBCHEM_SHAPE_VOLUME>
303.4

> <PUBCHEM_COORDINATE_TYPE>
2
5
10

$$$$
