336482
  -OEChem-01171810153D

 45 49  0     1  0  0  0  0  0999 V2000
    2.2381    2.2781    1.1786 O   0  0  0  0  0  0  0  0  0  0  0  0
    1.0062   -0.8390   -2.0603 O   0  0  0  0  0  0  0  0  0  0  0  0
   -2.1713    3.9089    1.2291 O   0  0  0  0  0  0  0  0  0  0  0  0
   -1.3102    0.5896    0.4217 N   0  0  2  0  0  0  0  0  0  0  0  0
    1.9774    0.5084   -0.3736 N   0  0  0  0  0  0  0  0  0  0  0  0
    0.2959    2.1431   -0.2090 C   0  0  1  0  0  0  0  0  0  0  0  0
   -0.0330    1.2115   -1.3805 C   0  0  2  0  0  0  0  0  0  0  0  0
   -0.8481    1.9301    0.7945 C   0  0  1  0  0  0  0  0  0  0  0  0
   -1.4300    0.6599   -1.0436 C   0  0  2  0  0  0  0  0  0  0  0  0
    1.6269    1.6670    0.3112 C   0  0  0  0  0  0  0  0  0  0  0  0
    1.0476    0.1552   -1.3467 C   0  0  0  0  0  0  0  0  0  0  0  0
   -1.9587    2.9424    0.5011 C   0  0  0  0  0  0  0  0  0  0  0  0
   -2.4716    1.6688   -1.4848 C   0  0  0  0  0  0  0  0  0  0  0  0
   -2.4603    0.0758    1.1421 C   0  0  0  0  0  0  0  0  0  0  0  0
   -2.7526    2.7555   -0.7505 C   0  0  0  0  0  0  0  0  0  0  0  0
    3.1635   -0.2489   -0.0991 C   0  0  0  0  0  0  0  0  0  0  0  0
   -2.8001   -1.3308    0.7263 C   0  0  0  0  0  0  0  0  0  0  0  0
    3.7803   -0.9769   -1.1183 C   0  0  0  0  0  0  0  0  0  0  0  0
    3.7051   -0.2596    1.1876 C   0  0  0  0  0  0  0  0  0  0  0  0
   -3.6851   -1.5384   -0.3226 C   0  0  0  0  0  0  0  0  0  0  0  0
   -2.2234   -2.4001    1.3974 C   0  0  0  0  0  0  0  0  0  0  0  0
    4.9345   -1.7133   -0.8516 C   0  0  0  0  0  0  0  0  0  0  0  0
    4.8593   -0.9961    1.4541 C   0  0  0  0  0  0  0  0  0  0  0  0
   -3.9998   -2.8414   -0.7080 C   0  0  0  0  0  0  0  0  0  0  0  0
   -2.5381   -3.7032    1.0116 C   0  0  0  0  0  0  0  0  0  0  0  0
    5.4739   -1.7229    0.4344 C   0  0  0  0  0  0  0  0  0  0  0  0
   -3.4263   -3.9237   -0.0411 C   0  0  0  0  0  0  0  0  0  0  0  0
    0.3888    3.1833   -0.5415 H   0  0  0  0  0  0  0  0  0  0  0  0
    0.0134    1.7302   -2.3450 H   0  0  0  0  0  0  0  0  0  0  0  0
   -0.5374    1.9877    1.8422 H   0  0  0  0  0  0  0  0  0  0  0  0
   -1.5911   -0.3132   -1.5151 H   0  0  0  0  0  0  0  0  0  0  0  0
   -2.9854    1.5020   -2.4261 H   0  0  0  0  0  0  0  0  0  0  0  0
   -3.3555    0.7017    1.0399 H   0  0  0  0  0  0  0  0  0  0  0  0
   -2.2385    0.0753    2.2178 H   0  0  0  0  0  0  0  0  0  0  0  0
   -3.4910    3.4923   -1.0355 H   0  0  0  0  0  0  0  0  0  0  0  0
    3.4133   -0.9658   -2.1398 H   0  0  0  0  0  0  0  0  0  0  0  0
    3.2369    0.2613    2.0166 H   0  0  0  0  0  0  0  0  0  0  0  0
   -4.1511   -0.7072   -0.8429 H   0  0  0  0  0  0  0  0  0  0  0  0
   -1.5284   -2.2400    2.2168 H   0  0  0  0  0  0  0  0  0  0  0  0
    5.4181   -2.2730   -1.6471 H   0  0  0  0  0  0  0  0  0  0  0  0
    5.2752   -1.0108    2.4573 H   0  0  0  0  0  0  0  0  0  0  0  0
   -4.6937   -3.0133   -1.5256 H   0  0  0  0  0  0  0  0  0  0  0  0
   -2.0911   -4.5460    1.5305 H   0  0  0  0  0  0  0  0  0  0  0  0
    6.3726   -2.2964    0.6420 H   0  0  0  0  0  0  0  0  0  0  0  0
   -3.6717   -4.9383   -0.3410 H   0  0  0  0  0  0  0  0  0  0  0  0
  1 10  2  0  0  0  0
  2 11  2  0  0  0  0
  3 12  2  0  0  0  0
  4  8  1  0  0  0  0
  4  9  1  0  0  0  0
  4 14  1  0  0  0  0
  5 10  1  0  0  0  0
  5 11  1  0  0  0  0
  5 16  1  0  0  0  0
  6  7  1  0  0  0  0
  6  8  1  0  0  0  0
  6 10  1  0  0  0  0
  6 28  1  0  0  0  0
  7  9  1  0  0  0  0
  7 11  1  0  0  0  0
  7 29  1  0  0  0  0
  8 12  1  0  0  0  0
  8 30  1  0  0  0  0
  9 13  1  0  0  0  0
  9 31  1  0  0  0  0
 12 15  1  0  0  0  0
 13 15  2  0  0  0  0
 13 32  1  0  0  0  0
 14 17  1  0  0  0  0
 14 33  1  0  0  0  0
 14 34  1  0  0  0  0
 15 35  1  0  0  0  0
 16 18  2  0  0  0  0
 16 19  1  0  0  0  0
 17 20  2  0  0  0  0
 17 21  1  0  0  0  0
 18 22  1  0  0  0  0
 18 36  1  0  0  0  0
 19 23  2  0  0  0  0
 19 37  1  0  0  0  0
 20 24  1  0  0  0  0
 20 38  1  0  0  0  0
 21 25  2  0  0  0  0
 21 39  1  0  0  0  0
 22 26  2  0  0  0  0
 22 40  1  0  0  0  0
 23 26  1  0  0  0  0
 23 41  1  0  0  0  0
 24 27  2  0  0  0  0
 24 42  1  0  0  0  0
 25 27  1  0  0  0  0
 25 43  1  0  0  0  0
 26 44  1  0  0  0  0
 27 45  1  0  0  0  0
M  END
> <PUBCHEM_COMPOUND_CID>
336482

> <PUBCHEM_CONFORMER_RMSD>
0.8

> <PUBCHEM_CONFORMER_DIVERSEORDER>
2
18
14
21
16
11
3
9
17
5
23
13
8
22
10
20
7
19
1
6
4
24
15
12

> <PUBCHEM_MMFF94_PARTIAL_CHARGES>
39
1 -0.57
10 0.57
11 0.57
12 0.49
13 -0.29
14 0.41
15 -0.14
16 0.12
17 -0.14
18 -0.15
19 -0.15
2 -0.57
20 -0.15
21 -0.15
22 -0.15
23 -0.15
24 -0.15
25 -0.15
26 -0.15
27 -0.15
3 -0.57
32 0.15
35 0.15
36 0.15
37 0.15
38 0.15
39 0.15
4 -0.81
40 0.15
41 0.15
42 0.15
43 0.15
44 0.15
45 0.15
5 -0.24
6 0.06
7 0.06
8 0.33
9 0.41

> <PUBCHEM_EFFECTIVE_ROTOR_COUNT>
3.4

> <PUBCHEM_PHARMACOPHORE_FEATURES>
8
1 1 acceptor
1 2 acceptor
1 3 acceptor
1 4 cation
5 5 6 7 10 11 rings
6 16 18 19 22 23 26 rings
6 17 20 21 24 25 27 rings
8 4 6 7 8 9 12 13 15 rings

> <PUBCHEM_HEAVY_ATOM_COUNT>
27

> <PUBCHEM_ATOM_DEF_STEREO_COUNT>
0

> <PUBCHEM_ATOM_UDEF_STEREO_COUNT>
4

> <PUBCHEM_BOND_DEF_STEREO_COUNT>
0

> <PUBCHEM_BOND_UDEF_STEREO_COUNT>
0

> <PUBCHEM_ISOTOPIC_ATOM_COUNT>
0

> <PUBCHEM_COMPONENT_COUNT>
1

> <PUBCHEM_CACTVS_TAUTO_COUNT>
1

> <PUBCHEM_CONFORMER_ID>
0005226200000002

> <PUBCHEM_MMFF94_ENERGY>
90.7149

> <PUBCHEM_FEATURE_SELFOVERLAP>
40.632

> <PUBCHEM_SHAPE_FINGERPRINT>
11552529 35 18410294688182290482
11578080 2 17604137208030797300
12293681 25 17979042171798942125
12363563 72 18266187303772263747
12422481 6 18127999510410857667
12553582 1 18264227952603032819
12633257 1 18200896014117910049
12788726 201 18335715952573131319
13004483 165 18269837669850046951
13140716 1 18340217396206170547
13583140 156 17917420970417801674
13631057 29 18262524805381858790
14020679 6 17915184502988998249
14081887 123 18340769251995724834
14429115 67 18196091268632827659
14844126 61 18335704896968836843
14866123 147 18409731721360444491
15422964 175 18123745619696389681
15484559 13 13126389023295794782
15927050 60 17908423550893160711
17974551 9 15907477400330874867
19611394 137 18341880927888190730
20567600 9 9329656311179921487
20602899 9 18043510738918993341
20681677 274 18340485668237252472
20775530 9 18119258512664678387
21452121 199 18192717966736842421
23559900 14 18336535109957934060
24893992 56 18261393387275938583
3027735 51 18336257951745414523
4073 2 18269551647072851058
463206 1 18190179186047105395
484985 159 18189037721178528366
5385378 56 17258225060211563761
613672 6 18267016339713579762
9981440 41 17344049785094377998

> <PUBCHEM_SHAPE_MULTIPOLES>
528.08
9.12
4.6
1.57
11.18
0.73
0.18
8.34
-0.77
-6.21
-1.05
0.28
-0.07
0.4

> <PUBCHEM_SHAPE_SELFOVERLAP>
1187.184

> <PUBCHEM_SHAPE_VOLUME>
278.5

> <PUBCHEM_COORDINATE_TYPE>
2
5
10

$$$$
