3127906
  -OEChem-01171809413D

 49 50  0     0  0  0  0  0  0999 V2000
   -3.8935    1.6085   -0.6399 S   0  0  0  0  0  0  0  0  0  0  0  0
   -3.1705    2.2788   -1.7146 O   0  0  0  0  0  0  0  0  0  0  0  0
   -5.3287    1.3982   -0.7922 O   0  0  0  0  0  0  0  0  0  0  0  0
    3.3275   -0.2180    1.3846 O   0  0  0  0  0  0  0  0  0  0  0  0
    3.7162    1.1707   -0.8673 O   0  0  0  0  0  0  0  0  0  0  0  0
    1.0190   -0.2331    1.4911 O   0  0  0  0  0  0  0  0  0  0  0  0
    3.7098   -0.5104   -2.4440 O   0  0  0  0  0  0  0  0  0  0  0  0
   -1.1553   -3.5129    0.1917 N   0  0  0  0  0  0  0  0  0  0  0  0
   -3.6076    2.4583    0.8394 N   0  0  0  0  0  0  0  0  0  0  0  0
   -1.1979   -1.3855   -0.4787 C   0  0  0  0  0  0  0  0  0  0  0  0
   -1.9689   -2.4082    0.0780 C   0  0  0  0  0  0  0  0  0  0  0  0
   -3.1424    0.0548   -0.3649 C   0  0  0  0  0  0  0  0  0  0  0  0
    0.0836   -1.9276   -0.6843 C   0  0  0  0  0  0  0  0  0  0  0  0
   -1.7971   -0.1303   -0.7039 C   0  0  0  0  0  0  0  0  0  0  0  0
   -3.3146   -2.2378    0.4219 C   0  0  0  0  0  0  0  0  0  0  0  0
   -3.8876   -0.9842    0.1893 C   0  0  0  0  0  0  0  0  0  0  0  0
    0.1001   -3.2246   -0.2724 C   0  0  0  0  0  0  0  0  0  0  0  0
    1.2298   -1.2575   -1.2399 C   0  0  0  0  0  0  0  0  0  0  0  0
   -2.2562    3.0375    1.0480 C   0  0  0  0  0  0  0  0  0  0  0  0
   -4.1589    1.8709    2.0870 C   0  0  0  0  0  0  0  0  0  0  0  0
    2.1722   -0.5452   -0.5906 C   0  0  0  0  0  0  0  0  0  0  0  0
    2.0704   -0.3107    0.8739 C   0  0  0  0  0  0  0  0  0  0  0  0
    3.2826    0.0056   -1.4214 C   0  0  0  0  0  0  0  0  0  0  0  0
    3.4020   -0.0071    2.7982 C   0  0  0  0  0  0  0  0  0  0  0  0
    4.7730    1.8337   -1.5690 C   0  0  0  0  0  0  0  0  0  0  0  0
    4.8569    0.0733    3.2086 C   0  0  0  0  0  0  0  0  0  0  0  0
    5.1361    3.1030   -0.8284 C   0  0  0  0  0  0  0  0  0  0  0  0
   -1.2086    0.6771   -1.1297 H   0  0  0  0  0  0  0  0  0  0  0  0
   -3.8950   -3.0457    0.8547 H   0  0  0  0  0  0  0  0  0  0  0  0
   -4.9314   -0.8414    0.4583 H   0  0  0  0  0  0  0  0  0  0  0  0
   -1.4438   -4.4070    0.5644 H   0  0  0  0  0  0  0  0  0  0  0  0
    0.8757   -3.9783   -0.2596 H   0  0  0  0  0  0  0  0  0  0  0  0
    1.3296   -1.3876   -2.3169 H   0  0  0  0  0  0  0  0  0  0  0  0
   -2.2803    3.7403    1.8871 H   0  0  0  0  0  0  0  0  0  0  0  0
   -1.5273    2.2526    1.2671 H   0  0  0  0  0  0  0  0  0  0  0  0
   -1.9383    3.5997    0.1660 H   0  0  0  0  0  0  0  0  0  0  0  0
   -3.5087    1.0780    2.4670 H   0  0  0  0  0  0  0  0  0  0  0  0
   -4.2465    2.6515    2.8494 H   0  0  0  0  0  0  0  0  0  0  0  0
   -5.1630    1.4731    1.9161 H   0  0  0  0  0  0  0  0  0  0  0  0
    2.8928    0.9286    3.0547 H   0  0  0  0  0  0  0  0  0  0  0  0
    2.9158   -0.8403    3.3179 H   0  0  0  0  0  0  0  0  0  0  0  0
    5.6458    1.1735   -1.6221 H   0  0  0  0  0  0  0  0  0  0  0  0
    4.4400    2.0791   -2.5836 H   0  0  0  0  0  0  0  0  0  0  0  0
    5.3608    0.8902    2.6813 H   0  0  0  0  0  0  0  0  0  0  0  0
    5.3837   -0.8491    2.9426 H   0  0  0  0  0  0  0  0  0  0  0  0
    4.9513    0.2362    4.2858 H   0  0  0  0  0  0  0  0  0  0  0  0
    5.4522    2.8745    0.1949 H   0  0  0  0  0  0  0  0  0  0  0  0
    4.2681    3.7661   -0.7520 H   0  0  0  0  0  0  0  0  0  0  0  0
    5.9441    3.6357   -1.3375 H   0  0  0  0  0  0  0  0  0  0  0  0
  1  2  2  0  0  0  0
  1  3  2  0  0  0  0
  1  9  1  0  0  0  0
  1 12  1  0  0  0  0
  4 22  1  0  0  0  0
  4 24  1  0  0  0  0
  5 23  1  0  0  0  0
  5 25  1  0  0  0  0
  6 22  2  0  0  0  0
  7 23  2  0  0  0  0
  8 11  1  0  0  0  0
  8 17  1  0  0  0  0
  8 31  1  0  0  0  0
  9 19  1  0  0  0  0
  9 20  1  0  0  0  0
 10 11  2  0  0  0  0
 10 13  1  0  0  0  0
 10 14  1  0  0  0  0
 11 15  1  0  0  0  0
 12 14  2  0  0  0  0
 12 16  1  0  0  0  0
 13 17  2  0  0  0  0
 13 18  1  0  0  0  0
 14 28  1  0  0  0  0
 15 16  2  0  0  0  0
 15 29  1  0  0  0  0
 16 30  1  0  0  0  0
 17 32  1  0  0  0  0
 18 21  2  0  0  0  0
 18 33  1  0  0  0  0
 19 34  1  0  0  0  0
 19 35  1  0  0  0  0
 19 36  1  0  0  0  0
 20 37  1  0  0  0  0
 20 38  1  0  0  0  0
 20 39  1  0  0  0  0
 21 22  1  0  0  0  0
 21 23  1  0  0  0  0
 24 26  1  0  0  0  0
 24 40  1  0  0  0  0
 24 41  1  0  0  0  0
 25 27  1  0  0  0  0
 25 42  1  0  0  0  0
 25 43  1  0  0  0  0
 26 44  1  0  0  0  0
 26 45  1  0  0  0  0
 26 46  1  0  0  0  0
 27 47  1  0  0  0  0
 27 48  1  0  0  0  0
 27 49  1  0  0  0  0
M  END
> <PUBCHEM_COMPOUND_CID>
3127906

> <PUBCHEM_CONFORMER_RMSD>
1

> <PUBCHEM_CONFORMER_DIVERSEORDER>
1
19
35
27
39
48
4
31
42
10
26
15
21
47
45
25
9
20
12
18
11
37
2
40
7
33
36
17
32
43
14
6
24
46
49
28
29
34
38
13
44
23
22
8
16
3
41
5
30

> <PUBCHEM_MMFF94_PARTIAL_CHARGES>
30
1 1.45
11 -0.15
12 -0.01
13 -0.05
14 -0.15
15 -0.15
16 -0.15
17 -0.3
18 -0.1
19 0.36
2 -0.65
20 0.36
21 0.03
22 0.71
23 0.71
24 0.28
25 0.28
28 0.15
29 0.15
3 -0.65
30 0.15
31 0.27
32 0.15
33 0.15
4 -0.43
5 -0.43
6 -0.57
7 -0.57
8 0.03
9 -0.85

> <PUBCHEM_EFFECTIVE_ROTOR_COUNT>
9

> <PUBCHEM_PHARMACOPHORE_FEATURES>
9
1 2 acceptor
1 21 anion
1 3 acceptor
1 6 acceptor
1 7 acceptor
1 8 cation
1 8 donor
5 8 10 11 13 17 rings
6 10 11 12 14 15 16 rings

> <PUBCHEM_HEAVY_ATOM_COUNT>
27

> <PUBCHEM_ATOM_DEF_STEREO_COUNT>
0

> <PUBCHEM_ATOM_UDEF_STEREO_COUNT>
0

> <PUBCHEM_BOND_DEF_STEREO_COUNT>
0

> <PUBCHEM_BOND_UDEF_STEREO_COUNT>
0

> <PUBCHEM_ISOTOPIC_ATOM_COUNT>
0

> <PUBCHEM_COMPONENT_COUNT>
1

> <PUBCHEM_CACTVS_TAUTO_COUNT>
2

> <PUBCHEM_CONFORMER_ID>
002FBA6200000001

> <PUBCHEM_MMFF94_ENERGY>
48.9317

> <PUBCHEM_FEATURE_SELFOVERLAP>
45.782

> <PUBCHEM_SHAPE_FINGERPRINT>
10498660 4 18411144623328720589
10670039 82 18411427236561253668
10764073 3 17552330213416881570
11049842 53 18411702050482154846
11595378 159 18042678575835251470
12390115 104 18267045957928469789
12596602 18 17604710108958822818
12633257 1 16950838103094681227
12788726 201 18046060725132121867
13726171 33 18267880538894741064
13965767 371 17749391399536124972
14251757 17 16773511079643074080
14347329 18 18272099309460090288
14739800 52 18046332296436208008
14848178 96 18269280062698623173
15297060 5 18057911111174387120
17974551 9 15359932644207080077
20510252 161 18338527429728483623
20603629 256 16516229826089875890
21864079 5 18335422399800290174
22182313 1 17418094377433295802
22849341 161 17677882436843049426
23559900 14 18270967843418421030
283562 15 18337963406281593263
341906 21 18412255160079276066
3633792 109 16662303270008194871
392239 28 16880776324603374025
469060 322 16588868034807057765
474 4 18265337197064083943
5081480 168 15984558792166721624
57527295 17 16988287469110104390
5895379 119 18413671297239958472
7808743 9 18337394958115119494
9849439 229 18339356354058548625

> <PUBCHEM_SHAPE_MULTIPOLES>
514.32
10.89
3.75
2.37
4.84
0.06
1.64
8.68
0.5
-2.53
-0.23
3.75
0.81
-1.1

> <PUBCHEM_SHAPE_SELFOVERLAP>
1066.925

> <PUBCHEM_SHAPE_VOLUME>
296.6

> <PUBCHEM_COORDINATE_TYPE>
2
5
10

$$$$
