2193280
  -OEChem-01171809573D

 37 39  0     0  0  0  0  0  0999 V2000
    2.9855    2.8762   -0.0492 S   0  0  0  0  0  0  0  0  0  0  0  0
    4.6982   -2.1009   -0.0970 O   0  0  0  0  0  0  0  0  0  0  0  0
    3.2459    0.2677    0.2427 N   0  0  0  0  0  0  0  0  0  0  0  0
    2.8671   -0.9310    0.9781 C   0  0  0  0  0  0  0  0  0  0  0  0
    4.6263    0.3200   -0.2187 C   0  0  0  0  0  0  0  0  0  0  0  0
    3.3015   -2.1721    0.2109 C   0  0  0  0  0  0  0  0  0  0  0  0
    4.9868   -0.9750   -0.9336 C   0  0  0  0  0  0  0  0  0  0  0  0
    2.3972    1.3119    0.0867 C   0  0  0  0  0  0  0  0  0  0  0  0
    0.9582    0.9568    0.0557 C   0  0  0  0  0  0  0  0  0  0  0  0
    0.2500    0.9282    1.2410 C   0  0  0  0  0  0  0  0  0  0  0  0
    0.3677    0.6626   -1.1575 C   0  0  0  0  0  0  0  0  0  0  0  0
   -1.7214    0.2913   -0.0022 C   0  0  0  0  0  0  0  0  0  0  0  0
   -1.1033    0.5919    1.2117 C   0  0  0  0  0  0  0  0  0  0  0  0
   -0.9858    0.3267   -1.1868 C   0  0  0  0  0  0  0  0  0  0  0  0
   -3.1256   -0.0570   -0.0325 C   0  0  0  0  0  0  0  0  0  0  0  0
   -3.5165   -1.3899    0.0938 C   0  0  0  0  0  0  0  0  0  0  0  0
   -4.0876    0.9405   -0.1899 C   0  0  0  0  0  0  0  0  0  0  0  0
   -4.8702   -1.7252    0.0625 C   0  0  0  0  0  0  0  0  0  0  0  0
   -5.4412    0.6051   -0.2209 C   0  0  0  0  0  0  0  0  0  0  0  0
   -5.8326   -0.7277   -0.0947 C   0  0  0  0  0  0  0  0  0  0  0  0
    1.8093   -1.0136    1.2182 H   0  0  0  0  0  0  0  0  0  0  0  0
    3.4102   -0.8824    1.9303 H   0  0  0  0  0  0  0  0  0  0  0  0
    5.2535    0.4424    0.6725 H   0  0  0  0  0  0  0  0  0  0  0  0
    4.8262    1.1484   -0.9024 H   0  0  0  0  0  0  0  0  0  0  0  0
    3.1381   -3.0674    0.8187 H   0  0  0  0  0  0  0  0  0  0  0  0
    2.7321   -2.2878   -0.7190 H   0  0  0  0  0  0  0  0  0  0  0  0
    4.4366   -1.0781   -1.8766 H   0  0  0  0  0  0  0  0  0  0  0  0
    6.0563   -0.9936   -1.1651 H   0  0  0  0  0  0  0  0  0  0  0  0
    0.7222    1.1631    2.1906 H   0  0  0  0  0  0  0  0  0  0  0  0
    0.9346    0.6850   -2.0837 H   0  0  0  0  0  0  0  0  0  0  0  0
   -1.6621    0.5694    2.1443 H   0  0  0  0  0  0  0  0  0  0  0  0
   -1.4517    0.0943   -2.1416 H   0  0  0  0  0  0  0  0  0  0  0  0
   -2.7794   -2.1799    0.2167 H   0  0  0  0  0  0  0  0  0  0  0  0
   -3.7998    1.9844   -0.2901 H   0  0  0  0  0  0  0  0  0  0  0  0
   -5.1751   -2.7630    0.1605 H   0  0  0  0  0  0  0  0  0  0  0  0
   -6.1905    1.3816   -0.3435 H   0  0  0  0  0  0  0  0  0  0  0  0
   -6.8865   -0.9890   -0.1190 H   0  0  0  0  0  0  0  0  0  0  0  0
  1  8  2  0  0  0  0
  2  6  1  0  0  0  0
  2  7  1  0  0  0  0
  3  4  1  0  0  0  0
  3  5  1  0  0  0  0
  3  8  1  0  0  0  0
  4  6  1  0  0  0  0
  4 21  1  0  0  0  0
  4 22  1  0  0  0  0
  5  7  1  0  0  0  0
  5 23  1  0  0  0  0
  5 24  1  0  0  0  0
  6 25  1  0  0  0  0
  6 26  1  0  0  0  0
  7 27  1  0  0  0  0
  7 28  1  0  0  0  0
  8  9  1  0  0  0  0
  9 10  2  0  0  0  0
  9 11  1  0  0  0  0
 10 13  1  0  0  0  0
 10 29  1  0  0  0  0
 11 14  2  0  0  0  0
 11 30  1  0  0  0  0
 12 13  2  0  0  0  0
 12 14  1  0  0  0  0
 12 15  1  0  0  0  0
 13 31  1  0  0  0  0
 14 32  1  0  0  0  0
 15 16  2  0  0  0  0
 15 17  1  0  0  0  0
 16 18  1  0  0  0  0
 16 33  1  0  0  0  0
 17 19  2  0  0  0  0
 17 34  1  0  0  0  0
 18 20  2  0  0  0  0
 18 35  1  0  0  0  0
 19 20  1  0  0  0  0
 19 36  1  0  0  0  0
 20 37  1  0  0  0  0
M  END
> <PUBCHEM_COMPOUND_CID>
2193280

> <PUBCHEM_CONFORMER_RMSD>
0.6

> <PUBCHEM_CONFORMER_DIVERSEORDER>
1
4
5
2
6
7
3
10
13
14
11
8
12
9

> <PUBCHEM_MMFF94_PARTIAL_CHARGES>
27
1 -0.38
10 -0.15
11 -0.15
13 -0.15
14 -0.15
16 -0.15
17 -0.15
18 -0.15
19 -0.15
2 -0.56
20 -0.15
29 0.15
3 -0.66
30 0.15
31 0.15
32 0.15
33 0.15
34 0.15
35 0.15
36 0.15
37 0.15
4 0.3
5 0.3
6 0.28
7 0.28
8 0.35
9 0.09

> <PUBCHEM_EFFECTIVE_ROTOR_COUNT>
4.2

> <PUBCHEM_PHARMACOPHORE_FEATURES>
5
1 1 acceptor
1 2 acceptor
6 15 16 17 18 19 20 rings
6 2 3 4 5 6 7 rings
6 9 10 11 12 13 14 rings

> <PUBCHEM_HEAVY_ATOM_COUNT>
20

> <PUBCHEM_ATOM_DEF_STEREO_COUNT>
0

> <PUBCHEM_ATOM_UDEF_STEREO_COUNT>
0

> <PUBCHEM_BOND_DEF_STEREO_COUNT>
0

> <PUBCHEM_BOND_UDEF_STEREO_COUNT>
0

> <PUBCHEM_ISOTOPIC_ATOM_COUNT>
0

> <PUBCHEM_COMPONENT_COUNT>
1

> <PUBCHEM_CACTVS_TAUTO_COUNT>
1

> <PUBCHEM_CONFORMER_ID>
0021778000000001

> <PUBCHEM_MMFF94_ENERGY>
78.3812

> <PUBCHEM_FEATURE_SELFOVERLAP>
25.373

> <PUBCHEM_SHAPE_FINGERPRINT>
10670039 82 13190614980661129078
11128504 68 15864075364219079510
11405975 8 18412547613361946369
11595378 159 14189305811480375155
11796584 16 18343867718960221703
12107183 9 17979921505991530913
12236239 1 17988927768679546328
12403259 327 14476949083040737734
12596602 18 16702298000904262115
12670546 56 18272932713187883241
12788726 201 17489601059788991376
13167823 11 18411698820365483255
13533116 47 18341614853799188753
13544592 145 18113337513593915218
13583140 156 17986388004494240153
13675066 3 17917983979857180417
13760787 19 18199186363747037341
13955234 65 18270398433586188800
14341114 176 18410578413864509825
14573314 32 18187642488256620213
15183329 4 18335980870688403113
15788980 27 17846495941959837389
15848702 151 18187361056219084821
17349148 13 16774078483868087933
17834072 33 18408604789985989925
17844677 252 18410580595602550525
1813 80 16950278516321841613
18222031 100 16630805521419663697
193927 3 18059304183848174998
19784866 240 18342746174028520974
200 152 18343584040285187705
20554085 129 17843116168414593808
20645477 70 18408602586889248168
20832881 197 18188770539651817512
21150785 3 11819280001375918587
21250096 35 18273213084178195883
21267235 1 18411144640745849331
21641784 216 14201674209112159511
2215653 11 18408597046645304167
22950370 63 18335703814620974047
23559900 14 18410568522211935985
239999 70 18341897415840436286
2838139 119 8358254813321848522
2871803 45 18040435460762190410
29717793 49 18412821400399730421
3004659 81 18409446985838579906
312423 11 18201733854731853872
3323516 105 18187079551029799546
33382 64 18411143562667107243
3421961 26 18411415107879629464
3472631 163 13046527366322682054
4072396 5 16773799177907832165
4073 2 18042127711772128043
4214541 1 18410011018640951677
4340502 62 18270111452624648904
46194498 28 17749111118771403484
465052 167 18202286900701368950
4990 188 17821725039822909393
5104073 3 18202288030678447977
59755656 215 18040990705902926839
633830 44 16805603702813691157
77779 3 18408884070698694401
7970288 3 18196372512109000942
8272917 22 18410857689638526028
960060 61 17821736022281164646
9709674 26 18189056550256657747
9841814 1 16415478302513037800
9971528 1 17894910771504040637

> <PUBCHEM_SHAPE_MULTIPOLES>
404.59
12.71
2.17
1.01
7.44
0.02
-0.03
-4.86
1.39
-2.44
-0.06
-0.27
0.09
0.16

> <PUBCHEM_SHAPE_SELFOVERLAP>
863.958

> <PUBCHEM_SHAPE_VOLUME>
226.5

> <PUBCHEM_COORDINATE_TYPE>
2
5
10

$$$$
