5339342
  -OEChem-01171809293D

 43 44  0     0  0  0  0  0  0999 V2000
    2.9665    0.5597    2.3055 O   0  0  0  0  0  0  0  0  0  0  0  0
    1.8320    2.5686   -0.2282 O   0  0  0  0  0  0  0  0  0  0  0  0
    4.5223   -0.7570    1.2533 N   0  0  0  0  0  0  0  0  0  0  0  0
   -6.0568   -0.7698    0.1517 C   0  0  0  0  0  0  0  0  0  0  0  0
   -4.6782   -0.2047    0.0851 C   0  0  0  0  0  0  0  0  0  0  0  0
   -6.1829   -1.8932    1.1981 C   0  0  0  0  0  0  0  0  0  0  0  0
   -6.5540   -1.2725   -1.2169 C   0  0  0  0  0  0  0  0  0  0  0  0
   -3.6082   -1.0181   -0.2881 C   0  0  0  0  0  0  0  0  0  0  0  0
   -4.4587    1.1370    0.3968 C   0  0  0  0  0  0  0  0  0  0  0  0
   -2.1172    0.8450   -0.0373 C   0  0  0  0  0  0  0  0  0  0  0  0
    2.8511    0.4534   -0.0745 C   0  0  0  0  0  0  0  0  0  0  0  0
   -2.3188   -0.4895   -0.3496 C   0  0  0  0  0  0  0  0  0  0  0  0
   -3.1694    1.6656    0.3351 C   0  0  0  0  0  0  0  0  0  0  0  0
    3.4021   -0.0705   -1.1906 C   0  0  0  0  0  0  0  0  0  0  0  0
    5.0695   -1.2861    0.1097 C   0  0  0  0  0  0  0  0  0  0  0  0
    4.5448   -0.9691   -1.0820 C   0  0  0  0  0  0  0  0  0  0  0  0
    3.4391    0.1006    1.2672 C   0  0  0  0  0  0  0  0  0  0  0  0
   -0.7550    1.4037   -0.1027 C   0  0  0  0  0  0  0  0  0  0  0  0
    1.6892    1.3562   -0.1331 C   0  0  0  0  0  0  0  0  0  0  0  0
    0.3706    0.6753   -0.0689 C   0  0  0  0  0  0  0  0  0  0  0  0
    2.9724    0.1655   -2.6147 C   0  0  0  0  0  0  0  0  0  0  0  0
    6.2396   -2.2001    0.2843 C   0  0  0  0  0  0  0  0  0  0  0  0
   -6.7506    0.0235    0.4622 H   0  0  0  0  0  0  0  0  0  0  0  0
   -5.5815   -2.7693    0.9329 H   0  0  0  0  0  0  0  0  0  0  0  0
   -7.2249   -2.2190    1.2876 H   0  0  0  0  0  0  0  0  0  0  0  0
   -5.8533   -1.5456    2.1836 H   0  0  0  0  0  0  0  0  0  0  0  0
   -6.4910   -0.4785   -1.9693 H   0  0  0  0  0  0  0  0  0  0  0  0
   -7.5998   -1.5917   -1.1516 H   0  0  0  0  0  0  0  0  0  0  0  0
   -5.9677   -2.1243   -1.5782 H   0  0  0  0  0  0  0  0  0  0  0  0
   -3.7573   -2.0646   -0.5392 H   0  0  0  0  0  0  0  0  0  0  0  0
   -5.2809    1.7844    0.6900 H   0  0  0  0  0  0  0  0  0  0  0  0
   -1.5201   -1.1531   -0.6654 H   0  0  0  0  0  0  0  0  0  0  0  0
   -3.0142    2.7124    0.5822 H   0  0  0  0  0  0  0  0  0  0  0  0
    4.9648   -1.3787   -1.9960 H   0  0  0  0  0  0  0  0  0  0  0  0
   -0.7015    2.4877   -0.1732 H   0  0  0  0  0  0  0  0  0  0  0  0
    4.9424   -1.0159    2.1415 H   0  0  0  0  0  0  0  0  0  0  0  0
    0.3799   -0.4042    0.0273 H   0  0  0  0  0  0  0  0  0  0  0  0
    2.1301    0.8598   -2.6873 H   0  0  0  0  0  0  0  0  0  0  0  0
    2.6620   -0.7748   -3.0835 H   0  0  0  0  0  0  0  0  0  0  0  0
    3.7945    0.5923   -3.1999 H   0  0  0  0  0  0  0  0  0  0  0  0
    6.6119   -2.5754   -0.6749 H   0  0  0  0  0  0  0  0  0  0  0  0
    5.9618   -3.0653    0.8953 H   0  0  0  0  0  0  0  0  0  0  0  0
    7.0639   -1.6764    0.7798 H   0  0  0  0  0  0  0  0  0  0  0  0
  1 17  2  0  0  0  0
  2 19  2  0  0  0  0
  3 15  1  0  0  0  0
  3 17  1  0  0  0  0
  3 36  1  0  0  0  0
  4  5  1  0  0  0  0
  4  6  1  0  0  0  0
  4  7  1  0  0  0  0
  4 23  1  0  0  0  0
  5  8  2  0  0  0  0
  5  9  1  0  0  0  0
  6 24  1  0  0  0  0
  6 25  1  0  0  0  0
  6 26  1  0  0  0  0
  7 27  1  0  0  0  0
  7 28  1  0  0  0  0
  7 29  1  0  0  0  0
  8 12  1  0  0  0  0
  8 30  1  0  0  0  0
  9 13  2  0  0  0  0
  9 31  1  0  0  0  0
 10 12  2  0  0  0  0
 10 13  1  0  0  0  0
 10 18  1  0  0  0  0
 11 14  2  0  0  0  0
 11 17  1  0  0  0  0
 11 19  1  0  0  0  0
 12 32  1  0  0  0  0
 13 33  1  0  0  0  0
 14 16  1  0  0  0  0
 14 21  1  0  0  0  0
 15 16  2  0  0  0  0
 15 22  1  0  0  0  0
 16 34  1  0  0  0  0
 18 20  2  0  0  0  0
 18 35  1  0  0  0  0
 19 20  1  0  0  0  0
 20 37  1  0  0  0  0
 21 38  1  0  0  0  0
 21 39  1  0  0  0  0
 21 40  1  0  0  0  0
 22 41  1  0  0  0  0
 22 42  1  0  0  0  0
 22 43  1  0  0  0  0
M  END
> <PUBCHEM_COMPOUND_CID>
5339342

> <PUBCHEM_CONFORMER_RMSD>
0.6

> <PUBCHEM_CONFORMER_DIVERSEORDER>
1
22
24
15
21
12
6
7
25
4
17
27
8
28
19
3
9
23
18
2
13
16
5
14
20
10
26
11
29

> <PUBCHEM_MMFF94_PARTIAL_CHARGES>
28
1 -0.57
10 0.03
11 0.03
12 -0.15
13 -0.15
14 -0.14
15 -0.03
16 -0.15
17 0.62
18 -0.18
19 0.54
2 -0.57
20 -0.14
21 0.14
22 0.14
3 -0.54
30 0.15
31 0.15
32 0.15
33 0.15
34 0.15
35 0.15
36 0.37
37 0.15
4 0.14
5 -0.14
8 -0.15
9 -0.15

> <PUBCHEM_EFFECTIVE_ROTOR_COUNT>
4

> <PUBCHEM_PHARMACOPHORE_FEATURES>
7
1 1 acceptor
1 11 anion
1 2 acceptor
1 3 donor
3 4 6 7 hydrophobe
6 3 11 14 15 16 17 rings
6 5 8 9 10 12 13 rings

> <PUBCHEM_HEAVY_ATOM_COUNT>
22

> <PUBCHEM_ATOM_DEF_STEREO_COUNT>
0

> <PUBCHEM_ATOM_UDEF_STEREO_COUNT>
0

> <PUBCHEM_BOND_DEF_STEREO_COUNT>
1

> <PUBCHEM_BOND_UDEF_STEREO_COUNT>
0

> <PUBCHEM_ISOTOPIC_ATOM_COUNT>
0

> <PUBCHEM_COMPONENT_COUNT>
1

> <PUBCHEM_CACTVS_TAUTO_COUNT>
13

> <PUBCHEM_CONFORMER_ID>
005178CE00000001

> <PUBCHEM_MMFF94_ENERGY>
64.5012

> <PUBCHEM_FEATURE_SELFOVERLAP>
35.52

> <PUBCHEM_SHAPE_FINGERPRINT>
10378564 45 14490462076165645694
10693767 8 16660917761309217434
11545043 162 18131347467028777273
11724838 91 13110952146102677829
11796584 16 18050566245110279790
12236239 1 18040440970709242148
12596602 18 17989202633690831754
12633257 1 16415465057155383172
13073987 5 18410858771580193272
13533116 47 18341610472922179465
13668630 136 17748828509839228827
13675066 3 17561363967847472533
13685833 64 18413389826209685090
13862211 1 18342455976522085895
14123256 34 18334019388804183827
14341114 176 16917065555997364128
14341114 328 13110954302165509772
14528608 73 13406791160098655729
15183329 4 16660636337639485343
15188451 53 18060129943124413823
15210252 30 8502366746297849646
15348495 7 17131831001950995555
15475509 35 18270388388196007042
16988056 13 14562825377866402142
17349148 13 18411144658131349605
17844677 252 18272374165565475281
17857418 61 18411700989366191887
1813 80 18113902654028572332
18222031 100 18040432200486438781
19377110 9 13398622866873336925
193927 3 18410863174343164625
19784866 240 18260268529500009989
1979834 28 16630535024479251108
20028762 73 18273493489835514735
20281389 69 10879999051679461299
21150785 3 11963395172171587619
21267235 1 18408046217168609339
21637258 2 17968652706340361162
22061861 79 17022899060545500263
221357 26 14995997735681794694
22289505 5 13479133488909238782
23522609 53 18120972500889735901
23559900 14 18189053256486291841
270888 7 10015568511706809858
2748736 6 10735339554120148339
29717793 49 17676489432033702133
300161 21 10879994644895231681
3004659 81 17675923200809746746
3060560 45 15430044249451809426
312425 54 16702032976258839495
3472631 163 9079104566729950074
351380 3 18260266334740177266
465052 167 18409454703794753030
5104073 3 18201446895609342913
543368 44 8574713507967634131
559249 180 18337670820123429517
5718773 13 18335979754013315266
5924683 9 16486395703404171823
59682541 52 14707195617815549139
7970288 3 18334293132808489970
8863177 126 18043262438449057643
960060 61 16515402979991361709

> <PUBCHEM_SHAPE_MULTIPOLES>
436.03
16.92
1.98
1.53
10.27
0.11
0.28
-11.92
-0.88
-0.02
-0.21
-1.63
-0.13
-0.24

> <PUBCHEM_SHAPE_SELFOVERLAP>
921.107

> <PUBCHEM_SHAPE_VOLUME>
245.5

> <PUBCHEM_COORDINATE_TYPE>
2
5
10

$$$$
