53383178
  -OEChem-01171810213D

 70 74  0     1  0  0  0  0  0999 V2000
   -0.6661    3.3595    0.2710 S   0  0  0  0  0  0  0  0  0  0  0  0
    1.4472    0.1947   -2.4441 O   0  0  0  0  0  0  0  0  0  0  0  0
    2.4030   -4.7690    2.3367 O   0  0  0  0  0  0  0  0  0  0  0  0
   -3.2983    1.7903    0.5960 O   0  0  0  0  0  0  0  0  0  0  0  0
   -0.6960   -0.2864   -1.7059 N   0  0  0  0  0  0  0  0  0  0  0  0
    2.0578    1.2790    0.1761 N   0  0  0  0  0  0  0  0  0  0  0  0
    2.9591    3.1844    0.8811 N   0  0  0  0  0  0  0  0  0  0  0  0
   -1.2730   -0.4788   -3.0135 C   0  0  0  0  0  0  0  0  0  0  0  0
   -2.7640   -0.1671   -3.0216 C   0  0  0  0  0  0  0  0  0  0  0  0
   -1.2310   -1.9402   -3.4440 C   0  0  0  0  0  0  0  0  0  0  0  0
   -2.4579   -2.5785   -2.7948 C   0  0  0  0  0  0  0  0  0  0  0  0
   -3.4238   -1.4345   -2.4854 C   0  0  0  0  0  0  0  0  0  0  0  0
    1.0158    0.1892   -0.0489 C   0  0  1  0  0  0  0  0  0  0  0  0
    0.6430    0.0409   -1.5268 C   0  0  0  0  0  0  0  0  0  0  0  0
    1.3888   -1.1419    0.5920 C   0  0  0  0  0  0  0  0  0  0  0  0
    3.3533    1.2591   -0.2728 C   0  0  0  0  0  0  0  0  0  0  0  0
    1.8705    2.4483    0.8593 C   0  0  0  0  0  0  0  0  0  0  0  0
    3.8949    2.4590    0.1801 C   0  0  0  0  0  0  0  0  0  0  0  0
    0.5769    2.7972    1.4820 C   0  0  0  0  0  0  0  0  0  0  0  0
    1.6530   -1.2082    1.9601 C   0  0  0  0  0  0  0  0  0  0  0  0
    1.4655   -2.2946   -0.1897 C   0  0  0  0  0  0  0  0  0  0  0  0
    4.0760    0.3231   -1.0134 C   0  0  0  0  0  0  0  0  0  0  0  0
    5.2357    2.7595   -0.1141 C   0  0  0  0  0  0  0  0  0  0  0  0
    1.9941   -2.4270    2.5463 C   0  0  0  0  0  0  0  0  0  0  0  0
    1.8066   -3.5135    0.3964 C   0  0  0  0  0  0  0  0  0  0  0  0
    5.4088    0.6385   -1.2972 C   0  0  0  0  0  0  0  0  0  0  0  0
    5.9804    1.8344   -0.8566 C   0  0  0  0  0  0  0  0  0  0  0  0
    2.0710   -3.5796    1.7644 C   0  0  0  0  0  0  0  0  0  0  0  0
   -2.0236    3.6631    1.4231 C   0  0  0  0  0  0  0  0  0  0  0  0
   -2.7544    2.3759    1.7716 C   0  0  0  0  0  0  0  0  0  0  0  0
    2.4633   -5.9077    1.4788 C   0  0  0  0  0  0  0  0  0  0  0  0
   -4.4041    0.9965    0.7562 C   0  0  0  0  0  0  0  0  0  0  0  0
   -4.5882    0.2878    1.9435 C   0  0  0  0  0  0  0  0  0  0  0  0
   -5.3454    0.8972   -0.2683 C   0  0  0  0  0  0  0  0  0  0  0  0
   -5.7134   -0.5203    2.1062 C   0  0  0  0  0  0  0  0  0  0  0  0
   -6.4708    0.0893   -0.1056 C   0  0  0  0  0  0  0  0  0  0  0  0
   -6.6547   -0.6194    1.0817 C   0  0  0  0  0  0  0  0  0  0  0  0
   -0.7365    0.1543   -3.7283 H   0  0  0  0  0  0  0  0  0  0  0  0
   -0.3066   -2.4550   -3.1657 H   0  0  0  0  0  0  0  0  0  0  0  0
   -3.0241    0.7161   -2.4308 H   0  0  0  0  0  0  0  0  0  0  0  0
   -3.1002    0.0051   -4.0515 H   0  0  0  0  0  0  0  0  0  0  0  0
   -1.3321   -2.0038   -4.5347 H   0  0  0  0  0  0  0  0  0  0  0  0
   -2.9112   -3.3242   -3.4559 H   0  0  0  0  0  0  0  0  0  0  0  0
   -2.1778   -3.0906   -1.8670 H   0  0  0  0  0  0  0  0  0  0  0  0
   -3.5670   -1.3621   -1.4016 H   0  0  0  0  0  0  0  0  0  0  0  0
   -4.4083   -1.5959   -2.9358 H   0  0  0  0  0  0  0  0  0  0  0  0
   -1.2794   -0.4536   -0.8910 H   0  0  0  0  0  0  0  0  0  0  0  0
    0.1168    0.5275    0.4742 H   0  0  0  0  0  0  0  0  0  0  0  0
    0.7446    3.6228    2.1834 H   0  0  0  0  0  0  0  0  0  0  0  0
    0.1922    1.9622    2.0746 H   0  0  0  0  0  0  0  0  0  0  0  0
    1.5917   -0.3204    2.5835 H   0  0  0  0  0  0  0  0  0  0  0  0
    1.2837   -2.2960   -1.2586 H   0  0  0  0  0  0  0  0  0  0  0  0
    3.6519   -0.6136   -1.3524 H   0  0  0  0  0  0  0  0  0  0  0  0
    5.6890    3.6858    0.2239 H   0  0  0  0  0  0  0  0  0  0  0  0
    2.1976   -2.4727    3.6127 H   0  0  0  0  0  0  0  0  0  0  0  0
    1.8510   -4.3690   -0.2689 H   0  0  0  0  0  0  0  0  0  0  0  0
    6.0116   -0.0626   -1.8693 H   0  0  0  0  0  0  0  0  0  0  0  0
    7.0192    2.0511   -1.0923 H   0  0  0  0  0  0  0  0  0  0  0  0
   -2.7164    4.3455    0.9192 H   0  0  0  0  0  0  0  0  0  0  0  0
   -1.6572    4.1668    2.3229 H   0  0  0  0  0  0  0  0  0  0  0  0
   -3.5502    2.6465    2.4784 H   0  0  0  0  0  0  0  0  0  0  0  0
   -2.0818    1.6628    2.2614 H   0  0  0  0  0  0  0  0  0  0  0  0
    2.7407   -6.7658    2.0998 H   0  0  0  0  0  0  0  0  0  0  0  0
    3.2440   -5.7977    0.7185 H   0  0  0  0  0  0  0  0  0  0  0  0
    1.4853   -6.1334    1.0403 H   0  0  0  0  0  0  0  0  0  0  0  0
   -3.8682    0.3165    2.7556 H   0  0  0  0  0  0  0  0  0  0  0  0
   -5.2087    1.4481   -1.1947 H   0  0  0  0  0  0  0  0  0  0  0  0
   -5.8542   -1.0771    3.0280 H   0  0  0  0  0  0  0  0  0  0  0  0
   -7.2034    0.0116   -0.9036 H   0  0  0  0  0  0  0  0  0  0  0  0
   -7.5301   -1.2498    1.2077 H   0  0  0  0  0  0  0  0  0  0  0  0
  1 19  1  0  0  0  0
  1 29  1  0  0  0  0
  2 14  2  0  0  0  0
  3 28  1  0  0  0  0
  3 31  1  0  0  0  0
  4 30  1  0  0  0  0
  4 32  1  0  0  0  0
  5  8  1  0  0  0  0
  5 14  1  0  0  0  0
  5 47  1  0  0  0  0
  6 13  1  0  0  0  0
  6 16  1  0  0  0  0
  6 17  1  0  0  0  0
  7 17  2  0  0  0  0
  7 18  1  0  0  0  0
  8  9  1  0  0  0  0
  8 10  1  0  0  0  0
  8 38  1  0  0  0  0
  9 12  1  0  0  0  0
  9 40  1  0  0  0  0
  9 41  1  0  0  0  0
 10 11  1  0  0  0  0
 10 39  1  0  0  0  0
 10 42  1  0  0  0  0
 11 12  1  0  0  0  0
 11 43  1  0  0  0  0
 11 44  1  0  0  0  0
 12 45  1  0  0  0  0
 12 46  1  0  0  0  0
 13 14  1  0  0  0  0
 13 15  1  0  0  0  0
 13 48  1  0  0  0  0
 15 20  2  0  0  0  0
 15 21  1  0  0  0  0
 16 18  1  0  0  0  0
 16 22  2  0  0  0  0
 17 19  1  0  0  0  0
 18 23  2  0  0  0  0
 19 49  1  0  0  0  0
 19 50  1  0  0  0  0
 20 24  1  0  0  0  0
 20 51  1  0  0  0  0
 21 25  2  0  0  0  0
 21 52  1  0  0  0  0
 22 26  1  0  0  0  0
 22 53  1  0  0  0  0
 23 27  1  0  0  0  0
 23 54  1  0  0  0  0
 24 28  2  0  0  0  0
 24 55  1  0  0  0  0
 25 28  1  0  0  0  0
 25 56  1  0  0  0  0
 26 27  2  0  0  0  0
 26 57  1  0  0  0  0
 27 58  1  0  0  0  0
 29 30  1  0  0  0  0
 29 59  1  0  0  0  0
 29 60  1  0  0  0  0
 30 61  1  0  0  0  0
 30 62  1  0  0  0  0
 31 63  1  0  0  0  0
 31 64  1  0  0  0  0
 31 65  1  0  0  0  0
 32 33  2  0  0  0  0
 32 34  1  0  0  0  0
 33 35  1  0  0  0  0
 33 66  1  0  0  0  0
 34 36  2  0  0  0  0
 34 67  1  0  0  0  0
 35 37  2  0  0  0  0
 35 68  1  0  0  0  0
 36 37  1  0  0  0  0
 36 69  1  0  0  0  0
 37 70  1  0  0  0  0
M  END
> <PUBCHEM_COMPOUND_CID>
53383178

> <PUBCHEM_CONFORMER_RMSD>
1.2

> <PUBCHEM_CONFORMER_DIVERSEORDER>
2
243
198
11
82
6
147
131
232
101
215
229
154
193
206
240
86
63
156
130
162
80
54
53
52
171
248
211
145
148
170
227
19
127
235
139
165
186
3
178
59
167
62
187
50
112
163
48
210
203
103
17
230
184
168
231
58
84
189
104
56
75
245
68
20
225
132
129
128
202
4
9
90
55
175
85
39
239
46
119
34
150
228
92
65
161
43
24
27
234
69
143
66
253
72
133
14
18
252
15
125
249
174
140
26
73
120
135
102
144
185
237
153
110
121
126
214
136
96
57
83
79
177
78
236
180
113
36
205
10
188
40
166
16
87
117
219
13
190
105
93
152
192
197
76
23
88
208
158
12
45
254
212
116
160
224
181
38
98
94
64
67
238
159
222
5
155
122
42
199
213
97
32
142
247
172
250
191
44
37
216
118
217
115
200
233
149
138
91
195
70
71
164
196
169
49
241
201
1
31
146
25
182
221
99
107
114
51
218
157
176
179
81
124
89
61
194
141
220
21
28
151
33
137
29
251
109
60
35
123
226
41
183
74
100
173
207
134
242
108
7
47
244
106
223
246
8
204
209
111
30
77
22
95

> <PUBCHEM_MMFF94_PARTIAL_CHARGES>
47
1 -0.46
13 0.46
14 0.57
15 -0.14
16 -0.15
17 0.01
18 0.23
19 0.41
2 -0.57
20 -0.15
21 -0.15
22 -0.15
23 -0.15
24 -0.15
25 -0.15
26 -0.15
27 -0.15
28 0.08
29 0.23
3 -0.36
30 0.28
31 0.28
32 0.08
33 -0.15
34 -0.15
35 -0.15
36 -0.15
37 -0.15
4 -0.36
47 0.37
5 -0.73
51 0.15
52 0.15
53 0.15
54 0.15
55 0.15
56 0.15
57 0.15
58 0.15
6 0.05
66 0.15
67 0.15
68 0.15
69 0.15
7 -0.57
70 0.15
8 0.3

> <PUBCHEM_EFFECTIVE_ROTOR_COUNT>
13

> <PUBCHEM_PHARMACOPHORE_FEATURES>
10
1 2 acceptor
1 3 acceptor
1 4 acceptor
1 5 donor
3 6 7 17 cation
5 6 7 16 17 18 rings
5 8 9 10 11 12 rings
6 15 20 21 24 25 28 rings
6 16 18 22 23 26 27 rings
6 32 33 34 35 36 37 rings

> <PUBCHEM_HEAVY_ATOM_COUNT>
37

> <PUBCHEM_ATOM_DEF_STEREO_COUNT>
0

> <PUBCHEM_ATOM_UDEF_STEREO_COUNT>
1

> <PUBCHEM_BOND_DEF_STEREO_COUNT>
0

> <PUBCHEM_BOND_UDEF_STEREO_COUNT>
0

> <PUBCHEM_ISOTOPIC_ATOM_COUNT>
0

> <PUBCHEM_COMPONENT_COUNT>
1

> <PUBCHEM_CACTVS_TAUTO_COUNT>
2

> <PUBCHEM_CONFORMER_ID>
032E900A00000002

> <PUBCHEM_MMFF94_ENERGY>
100.1375

> <PUBCHEM_FEATURE_SELFOVERLAP>
50.855

> <PUBCHEM_SHAPE_FINGERPRINT>
10190108 129 18334871501625704577
11488393 25 17749936762163341354
11578080 2 17314228847948352909
12160290 23 16772359951726173501
14028597 1 18196907020756495392
140371 6 17047958854197896776
14347329 18 16917071092104967055
14840074 17 18059864995425321681
15001296 14 17773866683454009913
15219462 58 18044402472866170969
19311894 1 17915736689848879351
19319366 153 18410577322446769124
21133410 62 18337380626590039791
22440779 20 16738345244717695767
25222932 49 18268157625131727971
3380486 145 11204756793069582303
404807 78 17606414399854329211
469060 322 16951960872408240639
6523845 18 17894635872823392996
6691757 9 17900516151419732976

> <PUBCHEM_SHAPE_MULTIPOLES>
732.74
12.32
5.72
3.29
11.23
5.83
-2.08
-4.91
1.59
-6.29
4.36
2.19
2.98
-4.05

> <PUBCHEM_SHAPE_SELFOVERLAP>
1564.143

> <PUBCHEM_SHAPE_VOLUME>
408.7

> <PUBCHEM_COORDINATE_TYPE>
2
5
10

$$$$
