3833990
  -OEChem-01171809593D

 46 49  0     0  0  0  0  0  0999 V2000
    2.6404   -2.3629   -0.2874 O   0  0  0  0  0  0  0  0  0  0  0  0
   -2.0772   -3.2993   -0.5910 O   0  0  0  0  0  0  0  0  0  0  0  0
    4.8581   -1.9125   -0.1159 O   0  0  0  0  0  0  0  0  0  0  0  0
   -5.5516    2.4575   -1.4570 O   0  0  0  0  0  0  0  0  0  0  0  0
    6.8201    2.9328   -1.2887 O   0  0  0  0  0  0  0  0  0  0  0  0
    6.8570    2.3214    0.8987 O   0  0  0  0  0  0  0  0  0  0  0  0
    0.9899   -0.6332    0.1738 C   0  0  0  0  0  0  0  0  0  0  0  0
    2.0951    0.3122    0.4482 C   0  0  0  0  0  0  0  0  0  0  0  0
   -1.3723   -1.2356   -0.0054 C   0  0  0  0  0  0  0  0  0  0  0  0
    3.3732   -0.1179    0.3820 C   0  0  0  0  0  0  0  0  0  0  0  0
    1.3002   -1.9440   -0.1882 C   0  0  0  0  0  0  0  0  0  0  0  0
   -0.3724   -0.2794    0.2697 C   0  0  0  0  0  0  0  0  0  0  0  0
   -0.9832   -2.5191   -0.3655 C   0  0  0  0  0  0  0  0  0  0  0  0
   -2.7924   -1.2460   -0.0138 C   0  0  0  0  0  0  0  0  0  0  0  0
    4.5830    0.7235    0.7005 C   0  0  0  0  0  0  0  0  0  0  0  0
    0.3409   -2.9261   -0.4714 C   0  0  0  0  0  0  0  0  0  0  0  0
    3.7009   -1.5160   -0.0175 C   0  0  0  0  0  0  0  0  0  0  0  0
    1.7120    1.7347    0.7767 C   0  0  0  0  0  0  0  0  0  0  0  0
   -3.7342   -0.2065    0.2767 C   0  0  0  0  0  0  0  0  0  0  0  0
   -3.1683   -2.5189   -0.3753 C   0  0  0  0  0  0  0  0  0  0  0  0
    5.1083    1.4516   -0.5229 C   0  0  0  0  0  0  0  0  0  0  0  0
   -4.1907    0.6307   -0.7439 C   0  0  0  0  0  0  0  0  0  0  0  0
   -4.1993   -0.0268    1.5814 C   0  0  0  0  0  0  0  0  0  0  0  0
   -5.1078    1.6430   -0.4610 C   0  0  0  0  0  0  0  0  0  0  0  0
    6.3458    2.2586   -0.2122 C   0  0  0  0  0  0  0  0  0  0  0  0
   -5.1163    0.9859    1.8641 C   0  0  0  0  0  0  0  0  0  0  0  0
   -5.5704    1.8207    0.8429 C   0  0  0  0  0  0  0  0  0  0  0  0
   -6.4887    3.4716   -1.0975 C   0  0  0  0  0  0  0  0  0  0  0  0
   -0.6815    0.7216    0.5551 H   0  0  0  0  0  0  0  0  0  0  0  0
    5.3750    0.1024    1.1397 H   0  0  0  0  0  0  0  0  0  0  0  0
    4.3535    1.4411    1.4978 H   0  0  0  0  0  0  0  0  0  0  0  0
    0.6108   -3.9372   -0.7516 H   0  0  0  0  0  0  0  0  0  0  0  0
    2.5668    2.4080    0.8734 H   0  0  0  0  0  0  0  0  0  0  0  0
    1.1630    1.7763    1.7238 H   0  0  0  0  0  0  0  0  0  0  0  0
    1.0867    2.1595   -0.0167 H   0  0  0  0  0  0  0  0  0  0  0  0
   -4.1214   -3.0088   -0.5176 H   0  0  0  0  0  0  0  0  0  0  0  0
    5.3695    0.7345   -1.3098 H   0  0  0  0  0  0  0  0  0  0  0  0
    4.3495    2.1389   -0.9140 H   0  0  0  0  0  0  0  0  0  0  0  0
   -3.8361    0.5018   -1.7645 H   0  0  0  0  0  0  0  0  0  0  0  0
   -3.8553   -0.6680    2.3897 H   0  0  0  0  0  0  0  0  0  0  0  0
   -5.4758    1.1235    2.8798 H   0  0  0  0  0  0  0  0  0  0  0  0
   -6.2819    2.5864    1.1325 H   0  0  0  0  0  0  0  0  0  0  0  0
    7.6161    3.4620   -1.0680 H   0  0  0  0  0  0  0  0  0  0  0  0
   -6.0537    4.1909   -0.3952 H   0  0  0  0  0  0  0  0  0  0  0  0
   -7.4243    3.0411   -0.7246 H   0  0  0  0  0  0  0  0  0  0  0  0
   -6.7330    4.0244   -2.0106 H   0  0  0  0  0  0  0  0  0  0  0  0
  1 11  1  0  0  0  0
  1 17  1  0  0  0  0
  2 13  1  0  0  0  0
  2 20  1  0  0  0  0
  3 17  2  0  0  0  0
  4 24  1  0  0  0  0
  4 28  1  0  0  0  0
  5 25  1  0  0  0  0
  5 43  1  0  0  0  0
  6 25  2  0  0  0  0
  7  8  1  0  0  0  0
  7 11  1  0  0  0  0
  7 12  2  0  0  0  0
  8 10  2  0  0  0  0
  8 18  1  0  0  0  0
  9 12  1  0  0  0  0
  9 13  2  0  0  0  0
  9 14  1  0  0  0  0
 10 15  1  0  0  0  0
 10 17  1  0  0  0  0
 11 16  2  0  0  0  0
 12 29  1  0  0  0  0
 13 16  1  0  0  0  0
 14 19  1  0  0  0  0
 14 20  2  0  0  0  0
 15 21  1  0  0  0  0
 15 30  1  0  0  0  0
 15 31  1  0  0  0  0
 16 32  1  0  0  0  0
 18 33  1  0  0  0  0
 18 34  1  0  0  0  0
 18 35  1  0  0  0  0
 19 22  2  0  0  0  0
 19 23  1  0  0  0  0
 20 36  1  0  0  0  0
 21 25  1  0  0  0  0
 21 37  1  0  0  0  0
 21 38  1  0  0  0  0
 22 24  1  0  0  0  0
 22 39  1  0  0  0  0
 23 26  2  0  0  0  0
 23 40  1  0  0  0  0
 24 27  2  0  0  0  0
 26 27  1  0  0  0  0
 26 41  1  0  0  0  0
 27 42  1  0  0  0  0
 28 44  1  0  0  0  0
 28 45  1  0  0  0  0
 28 46  1  0  0  0  0
M  END
> <PUBCHEM_COMPOUND_CID>
3833990

> <PUBCHEM_CONFORMER_RMSD>
0.8

> <PUBCHEM_CONFORMER_DIVERSEORDER>
2
13
27
10
23
29
6
26
17
16
31
12
9
28
8
11
30
19
7
5
4
25
24
20
32
14
3
21
15
1
18
22

> <PUBCHEM_MMFF94_PARTIAL_CHARGES>
35
1 -0.23
10 -0.12
11 0.08
12 -0.15
13 0.14
14 -0.05
15 0.14
16 -0.15
17 0.71
18 0.14
19 0.05
2 -0.28
20 -0.01
21 0.06
22 -0.15
23 -0.15
24 0.08
25 0.66
26 -0.15
27 -0.15
28 0.28
29 0.15
3 -0.57
32 0.15
36 0.15
39 0.15
4 -0.36
40 0.15
41 0.15
42 0.15
43 0.5
5 -0.65
6 -0.57
7 0.03
8 -0.17

> <PUBCHEM_EFFECTIVE_ROTOR_COUNT>
5

> <PUBCHEM_PHARMACOPHORE_FEATURES>
10
1 2 acceptor
1 3 acceptor
1 4 acceptor
1 5 acceptor
1 6 acceptor
3 5 6 25 anion
5 2 9 13 14 20 rings
6 1 7 8 10 11 17 rings
6 19 22 23 24 26 27 rings
6 7 9 11 12 13 16 rings

> <PUBCHEM_HEAVY_ATOM_COUNT>
28

> <PUBCHEM_ATOM_DEF_STEREO_COUNT>
0

> <PUBCHEM_ATOM_UDEF_STEREO_COUNT>
0

> <PUBCHEM_BOND_DEF_STEREO_COUNT>
0

> <PUBCHEM_BOND_UDEF_STEREO_COUNT>
0

> <PUBCHEM_ISOTOPIC_ATOM_COUNT>
0

> <PUBCHEM_COMPONENT_COUNT>
1

> <PUBCHEM_CACTVS_TAUTO_COUNT>
1

> <PUBCHEM_CONFORMER_ID>
003A808600000002

> <PUBCHEM_MMFF94_ENERGY>
82.9507

> <PUBCHEM_FEATURE_SELFOVERLAP>
50.934

> <PUBCHEM_SHAPE_FINGERPRINT>
10 15 18259708921384482417
10411042 1 17043731215474295807
10554248 39 18200869578831839902
10675989 125 18195247719827875768
10906281 52 17917726672650882010
11135609 99 10303808775100421648
12390115 104 18271816768819930234
12403259 118 17821738234505605901
12422481 6 17821728334189549964
12788726 201 17274555230075878368
13402501 40 18190457152546718277
13540713 5 18339622513082129006
13690498 29 17487053624497130663
14211702 104 8790623510797212368
14790565 3 18198634236916120745
14848178 96 18272927198549653779
14931854 50 17775566412392510449
15064981 113 16701456745591397173
15196674 1 18342176695841503874
15803439 3 16773792606286091221
1601671 61 18339642343303999408
16120349 189 18334851702353744277
18608769 82 18196938996625107371
18927931 339 10665214960945737881
20715895 44 18339355249776595564
21033648 144 18341892987644615143
21033648 29 18041001683717840577
21279426 13 18202012036190951654
21421861 104 18114730548478804322
23559900 14 17917150499163913750
23569914 152 16841096848907847316
2748736 6 18411689976658893424
2838139 119 18263355885753461807
335352 9 18270680853492828974
3388396 114 17042603687125437204
350125 39 18270965756159260395
474 4 18129660765274750603
50009960 94 10591216639303285452
5104073 3 18335420192630835586
5718773 13 9655575205816376468
6086070 43 17417805184479371778
6327066 14 18408878513148358701
6328613 192 18342461447962157384
636775 72 17907857654920248352
7808743 9 18410290349843159506
7970288 3 9079104562614843685

> <PUBCHEM_SHAPE_MULTIPOLES>
541.01
17
4.02
1.16
8.11
0.07
-0.19
-20.57
1.36
-0.24
1.43
-1.32
-0.68
0.56

> <PUBCHEM_SHAPE_SELFOVERLAP>
1199.094

> <PUBCHEM_SHAPE_VOLUME>
290.4

> <PUBCHEM_COORDINATE_TYPE>
2
5
10

$$$$
