2202307
  -OEChem-01171809453D

 44 45  0     0  0  0  0  0  0999 V2000
    6.3975   -1.5167   -0.4591 O   0  0  0  0  0  0  0  0  0  0  0  0
    0.6700    0.7149    1.0198 O   0  0  0  0  0  0  0  0  0  0  0  0
    2.7422    1.7785    0.0312 O   0  0  0  0  0  0  0  0  0  0  0  0
   -1.3578    2.5444    0.5070 O   0  0  0  0  0  0  0  0  0  0  0  0
   -4.6105   -0.4699   -2.0702 O   0  5  0  0  0  0  0  0  0  0  0  0
   -3.9796   -2.5252   -1.5915 O   0  0  0  0  0  0  0  0  0  0  0  0
    3.9124   -0.1955   -0.3216 N   0  0  0  0  0  0  0  0  0  0  0  0
   -4.5923   -1.4754   -1.3440 N   0  3  0  0  0  0  0  0  0  0  0  0
    5.0905    0.4814   -0.8638 C   0  0  0  0  0  0  0  0  0  0  0  0
    3.9767   -1.6594   -0.3850 C   0  0  0  0  0  0  0  0  0  0  0  0
    6.3610   -0.1009   -0.2613 C   0  0  0  0  0  0  0  0  0  0  0  0
    5.2964   -2.1548    0.1931 C   0  0  0  0  0  0  0  0  0  0  0  0
    2.8085    0.5481    0.0897 C   0  0  0  0  0  0  0  0  0  0  0  0
    1.6405   -0.2304    0.6403 C   0  0  0  0  0  0  0  0  0  0  0  0
   -0.6469    0.3125    0.9995 C   0  0  0  0  0  0  0  0  0  0  0  0
   -1.6508    1.2353    0.7437 C   0  0  0  0  0  0  0  0  0  0  0  0
   -0.9447   -1.0214    1.2390 C   0  0  0  0  0  0  0  0  0  0  0  0
   -2.9809    0.8155    0.7271 C   0  0  0  0  0  0  0  0  0  0  0  0
   -3.2930   -0.5228    0.9668 C   0  0  0  0  0  0  0  0  0  0  0  0
   -2.2748   -1.4412    1.2228 C   0  0  0  0  0  0  0  0  0  0  0  0
   -1.7564    3.0803   -0.7532 C   0  0  0  0  0  0  0  0  0  0  0  0
   -4.6798   -0.9604    0.9499 C   0  0  0  0  0  0  0  0  0  0  0  0
   -0.7970    4.1836   -1.1456 C   0  0  0  0  0  0  0  0  0  0  0  0
   -5.3316   -1.4206   -0.1345 C   0  0  0  0  0  0  0  0  0  0  0  0
    5.0741    0.3140   -1.9472 H   0  0  0  0  0  0  0  0  0  0  0  0
    5.0429    1.5599   -0.6860 H   0  0  0  0  0  0  0  0  0  0  0  0
    3.1422   -2.1345    0.1332 H   0  0  0  0  0  0  0  0  0  0  0  0
    3.9083   -1.9237   -1.4469 H   0  0  0  0  0  0  0  0  0  0  0  0
    6.4314    0.1161    0.8113 H   0  0  0  0  0  0  0  0  0  0  0  0
    7.2408    0.3300   -0.7492 H   0  0  0  0  0  0  0  0  0  0  0  0
    5.3931   -3.2337    0.0376 H   0  0  0  0  0  0  0  0  0  0  0  0
    5.3559   -1.9644    1.2714 H   0  0  0  0  0  0  0  0  0  0  0  0
    1.9658   -0.7984    1.5179 H   0  0  0  0  0  0  0  0  0  0  0  0
    1.2801   -0.8888   -0.1596 H   0  0  0  0  0  0  0  0  0  0  0  0
   -0.1842   -1.7615    1.4674 H   0  0  0  0  0  0  0  0  0  0  0  0
   -3.7750    1.5340    0.5361 H   0  0  0  0  0  0  0  0  0  0  0  0
   -2.5024   -2.4866    1.4177 H   0  0  0  0  0  0  0  0  0  0  0  0
   -1.7511    2.3049   -1.5295 H   0  0  0  0  0  0  0  0  0  0  0  0
   -2.7708    3.4838   -0.6637 H   0  0  0  0  0  0  0  0  0  0  0  0
   -5.2085   -0.9005    1.8971 H   0  0  0  0  0  0  0  0  0  0  0  0
   -1.0799    4.6254   -2.1051 H   0  0  0  0  0  0  0  0  0  0  0  0
   -0.7822    4.9708   -0.3846 H   0  0  0  0  0  0  0  0  0  0  0  0
    0.2245    3.7961   -1.2222 H   0  0  0  0  0  0  0  0  0  0  0  0
   -6.3512   -1.7600   -0.2202 H   0  0  0  0  0  0  0  0  0  0  0  0
  1 11  1  0  0  0  0
  1 12  1  0  0  0  0
  2 14  1  0  0  0  0
  2 15  1  0  0  0  0
  3 13  2  0  0  0  0
  4 16  1  0  0  0  0
  4 21  1  0  0  0  0
  5  8  1  0  0  0  0
  6  8  2  0  0  0  0
  7  9  1  0  0  0  0
  7 10  1  0  0  0  0
  7 13  1  0  0  0  0
  8 24  1  0  0  0  0
  9 11  1  0  0  0  0
  9 25  1  0  0  0  0
  9 26  1  0  0  0  0
 10 12  1  0  0  0  0
 10 27  1  0  0  0  0
 10 28  1  0  0  0  0
 11 29  1  0  0  0  0
 11 30  1  0  0  0  0
 12 31  1  0  0  0  0
 12 32  1  0  0  0  0
 13 14  1  0  0  0  0
 14 33  1  0  0  0  0
 14 34  1  0  0  0  0
 15 16  2  0  0  0  0
 15 17  1  0  0  0  0
 16 18  1  0  0  0  0
 17 20  2  0  0  0  0
 17 35  1  0  0  0  0
 18 19  2  0  0  0  0
 18 36  1  0  0  0  0
 19 20  1  0  0  0  0
 19 22  1  0  0  0  0
 20 37  1  0  0  0  0
 21 23  1  0  0  0  0
 21 38  1  0  0  0  0
 21 39  1  0  0  0  0
 22 24  2  0  0  0  0
 22 40  1  0  0  0  0
 23 41  1  0  0  0  0
 23 42  1  0  0  0  0
 23 43  1  0  0  0  0
 24 44  1  0  0  0  0
M  CHG  2   5  -1   8   1
M  END
> <PUBCHEM_COMPOUND_CID>
2202307

> <PUBCHEM_CONFORMER_RMSD>
1

> <PUBCHEM_CONFORMER_DIVERSEORDER>
1
70
73
44
72
18
45
42
43
2
12
58
61
27
23
33
63
5
28
62
15
35
9
16
46
69
65
11
34
54
10
19
55
32
52
36
60
24
39
3
20
17
7
74
56
40
14
6
25
48
59
38
41
26
68
4
13
21
50
64
37
47
71
49
8
31
30
51
22
53
66
67
57
29

> <PUBCHEM_MMFF94_PARTIAL_CHARGES>
28
1 -0.56
10 0.3
11 0.28
12 0.28
13 0.57
14 0.34
15 0.08
16 0.08
17 -0.15
18 -0.15
19 0.03
2 -0.36
20 -0.15
21 0.28
22 -0.18
24 0.05
3 -0.57
35 0.15
36 0.15
37 0.15
4 -0.36
40 0.15
44 0.15
5 -0.52
6 -0.52
7 -0.66
8 0.84
9 0.3

> <PUBCHEM_EFFECTIVE_ROTOR_COUNT>
9.2

> <PUBCHEM_PHARMACOPHORE_FEATURES>
9
1 1 acceptor
1 2 acceptor
1 3 acceptor
1 4 acceptor
1 5 acceptor
1 5 anion
1 6 acceptor
6 1 7 9 10 11 12 rings
6 15 16 17 18 19 20 rings

> <PUBCHEM_HEAVY_ATOM_COUNT>
24

> <PUBCHEM_ATOM_DEF_STEREO_COUNT>
0

> <PUBCHEM_ATOM_UDEF_STEREO_COUNT>
0

> <PUBCHEM_BOND_DEF_STEREO_COUNT>
1

> <PUBCHEM_BOND_UDEF_STEREO_COUNT>
0

> <PUBCHEM_ISOTOPIC_ATOM_COUNT>
0

> <PUBCHEM_COMPONENT_COUNT>
1

> <PUBCHEM_CACTVS_TAUTO_COUNT>
2

> <PUBCHEM_CONFORMER_ID>
00219AC300000001

> <PUBCHEM_MMFF94_ENERGY>
81.4716

> <PUBCHEM_FEATURE_SELFOVERLAP>
45.775

> <PUBCHEM_SHAPE_FINGERPRINT>
10447042 23 18410294714353306582
12107183 9 17247797343989029032
12166972 35 17313394473288581671
12596602 18 16487257673329052714
12788726 201 18187356602058346393
14347332 77 18336543820346386666
14508225 48 18334574659335344517
14556957 393 17968111814537516204
15163728 17 15213567941667330267
15183329 4 17167857548064367290
17857418 61 18273496779991024218
1813 80 18269853033042900133
200 152 18272656748500933754
21033648 29 11819574687503161702
21637258 2 16917342667371821119
22224240 67 9871756802088631659
23175994 123 18187368787566120233
23402539 116 18409172099489465833
23522609 53 17841750479444216648
23559900 14 18262804111046787360
24771750 20 16814350528161241005
266924 87 18115865213775399139
2838139 119 14490461006724356335
4214541 1 18262810549545590160
46194498 28 17828183722176250279
463206 1 18201159948306531506
5969126 39 18409164398861290380

> <PUBCHEM_SHAPE_MULTIPOLES>
448.73
14.08
3.29
1.38
16.01
3.9
-0.47
-9.73
-4.54
-1.8
-1.19
-1.91
-0.35
-0.47

> <PUBCHEM_SHAPE_SELFOVERLAP>
930.739

> <PUBCHEM_SHAPE_VOLUME>
254.9

> <PUBCHEM_COORDINATE_TYPE>
2
5
10

$$$$
