1749332
  -OEChem-01171809203D

 44 46  0     0  0  0  0  0  0999 V2000
   -1.4211   -0.3050    0.1466 O   0  0  0  0  0  0  0  0  0  0  0  0
   -4.5652   -2.0956   -0.3280 O   0  0  0  0  0  0  0  0  0  0  0  0
   -3.8136    2.4234    0.2765 O   0  0  0  0  0  0  0  0  0  0  0  0
   -1.2080   -0.6466    2.4428 O   0  0  0  0  0  0  0  0  0  0  0  0
    4.0420   -1.1567   -0.3789 N   0  0  0  0  0  0  0  0  0  0  0  0
   -4.0103    0.0916    0.2967 N   0  0  0  0  0  0  0  0  0  0  0  0
    5.0563   -0.1119   -0.2993 C   0  0  0  0  0  0  0  0  0  0  0  0
    4.4550    1.2533   -0.0579 C   0  0  0  0  0  0  0  0  0  0  0  0
    2.6844   -0.9135   -0.2436 C   0  0  0  0  0  0  0  0  0  0  0  0
    2.1867    0.3856   -0.0184 C   0  0  0  0  0  0  0  0  0  0  0  0
    3.1422    1.5112    0.0750 C   0  0  0  0  0  0  0  0  0  0  0  0
    6.0062   -0.4607    0.8543 C   0  0  0  0  0  0  0  0  0  0  0  0
    5.8291   -0.1004   -1.6253 C   0  0  0  0  0  0  0  0  0  0  0  0
    0.7993    0.5713    0.1107 C   0  0  0  0  0  0  0  0  0  0  0  0
    1.7827   -1.9877   -0.3335 C   0  0  0  0  0  0  0  0  0  0  0  0
    2.6460    2.9076    0.3130 C   0  0  0  0  0  0  0  0  0  0  0  0
   -5.0980   -0.2306   -1.7557 C   0  0  0  0  0  0  0  0  0  0  0  0
   -4.8483    1.2554   -1.5593 C   0  0  0  0  0  0  0  0  0  0  0  0
   -0.0812   -0.5076    0.0188 C   0  0  0  0  0  0  0  0  0  0  0  0
    0.4101   -1.7874   -0.2032 C   0  0  0  0  0  0  0  0  0  0  0  0
   -4.5370   -0.8891   -0.5284 C   0  0  0  0  0  0  0  0  0  0  0  0
   -4.1626    1.3652   -0.2283 C   0  0  0  0  0  0  0  0  0  0  0  0
   -3.3926   -0.1707    1.5641 C   0  0  0  0  0  0  0  0  0  0  0  0
   -1.9021   -0.4013    1.4612 C   0  0  0  0  0  0  0  0  0  0  0  0
    4.3452   -2.1111   -0.5396 H   0  0  0  0  0  0  0  0  0  0  0  0
    5.1606    2.0801    0.0105 H   0  0  0  0  0  0  0  0  0  0  0  0
    5.4735   -0.4949    1.8125 H   0  0  0  0  0  0  0  0  0  0  0  0
    6.4659   -1.4450    0.7054 H   0  0  0  0  0  0  0  0  0  0  0  0
    6.8146    0.2739    0.9468 H   0  0  0  0  0  0  0  0  0  0  0  0
    6.2849   -1.0771   -1.8268 H   0  0  0  0  0  0  0  0  0  0  0  0
    5.1675    0.1276   -2.4700 H   0  0  0  0  0  0  0  0  0  0  0  0
    6.6314    0.6465   -1.6175 H   0  0  0  0  0  0  0  0  0  0  0  0
    0.3808    1.5600    0.2841 H   0  0  0  0  0  0  0  0  0  0  0  0
    2.1508   -2.9968   -0.5073 H   0  0  0  0  0  0  0  0  0  0  0  0
    3.4671    3.6319    0.3579 H   0  0  0  0  0  0  0  0  0  0  0  0
    2.1081    2.9724    1.2648 H   0  0  0  0  0  0  0  0  0  0  0  0
    1.9797    3.2269   -0.4954 H   0  0  0  0  0  0  0  0  0  0  0  0
   -4.5839   -0.6074   -2.6448 H   0  0  0  0  0  0  0  0  0  0  0  0
   -6.1671   -0.4481   -1.8356 H   0  0  0  0  0  0  0  0  0  0  0  0
   -5.7860    1.8184   -1.5398 H   0  0  0  0  0  0  0  0  0  0  0  0
   -4.1997    1.6580   -2.3428 H   0  0  0  0  0  0  0  0  0  0  0  0
   -0.2671   -2.6338   -0.2771 H   0  0  0  0  0  0  0  0  0  0  0  0
   -3.8397   -1.0710    1.9975 H   0  0  0  0  0  0  0  0  0  0  0  0
   -3.5533    0.6867    2.2251 H   0  0  0  0  0  0  0  0  0  0  0  0
  1 19  1  0  0  0  0
  1 24  1  0  0  0  0
  2 21  2  0  0  0  0
  3 22  2  0  0  0  0
  4 24  2  0  0  0  0
  5  7  1  0  0  0  0
  5  9  1  0  0  0  0
  5 25  1  0  0  0  0
  6 21  1  0  0  0  0
  6 22  1  0  0  0  0
  6 23  1  0  0  0  0
  7  8  1  0  0  0  0
  7 12  1  0  0  0  0
  7 13  1  0  0  0  0
  8 11  2  0  0  0  0
  8 26  1  0  0  0  0
  9 10  2  0  0  0  0
  9 15  1  0  0  0  0
 10 11  1  0  0  0  0
 10 14  1  0  0  0  0
 11 16  1  0  0  0  0
 12 27  1  0  0  0  0
 12 28  1  0  0  0  0
 12 29  1  0  0  0  0
 13 30  1  0  0  0  0
 13 31  1  0  0  0  0
 13 32  1  0  0  0  0
 14 19  2  0  0  0  0
 14 33  1  0  0  0  0
 15 20  2  0  0  0  0
 15 34  1  0  0  0  0
 16 35  1  0  0  0  0
 16 36  1  0  0  0  0
 16 37  1  0  0  0  0
 17 18  1  0  0  0  0
 17 21  1  0  0  0  0
 17 38  1  0  0  0  0
 17 39  1  0  0  0  0
 18 22  1  0  0  0  0
 18 40  1  0  0  0  0
 18 41  1  0  0  0  0
 19 20  1  0  0  0  0
 20 42  1  0  0  0  0
 23 24  1  0  0  0  0
 23 43  1  0  0  0  0
 23 44  1  0  0  0  0
M  END
> <PUBCHEM_COMPOUND_CID>
1749332

> <PUBCHEM_CONFORMER_RMSD>
0.8

> <PUBCHEM_CONFORMER_DIVERSEORDER>
2
93
17
50
36
88
23
57
91
95
6
7
40
74
78
69
30
66
64
86
80
3
61
44
27
4
42
56
51
5
45
12
92
25
53
68
37
28
21
35
89
47
20
16
38
19
67
70
59
52
79
8
39
34
26
58
60
73
13
81
72
83
46
90
32
87
1
15
18
49
22
75
54
33
94
71
14
55
82
10
24
11
41
31
65
84
43
85
9
77
63
62
29
48
76

> <PUBCHEM_MMFF94_PARTIAL_CHARGES>
27
1 -0.23
10 0.03
11 -0.17
14 -0.15
15 -0.15
16 0.14
17 0.06
18 0.06
19 0.08
2 -0.57
20 -0.15
21 0.57
22 0.57
23 0.36
24 0.66
25 0.4
26 0.15
3 -0.57
33 0.15
34 0.15
4 -0.57
42 0.15
5 -0.87
6 -0.42
7 0.51
8 -0.29
9 0.1

> <PUBCHEM_EFFECTIVE_ROTOR_COUNT>
5

> <PUBCHEM_PHARMACOPHORE_FEATURES>
9
1 2 acceptor
1 3 acceptor
1 4 acceptor
1 5 cation
1 5 donor
3 7 12 13 hydrophobe
5 6 17 18 21 22 rings
6 5 7 8 9 10 11 rings
6 9 10 14 15 19 20 rings

> <PUBCHEM_HEAVY_ATOM_COUNT>
24

> <PUBCHEM_ATOM_DEF_STEREO_COUNT>
0

> <PUBCHEM_ATOM_UDEF_STEREO_COUNT>
0

> <PUBCHEM_BOND_DEF_STEREO_COUNT>
0

> <PUBCHEM_BOND_UDEF_STEREO_COUNT>
0

> <PUBCHEM_ISOTOPIC_ATOM_COUNT>
0

> <PUBCHEM_COMPONENT_COUNT>
1

> <PUBCHEM_CACTVS_TAUTO_COUNT>
3

> <PUBCHEM_CONFORMER_ID>
001AB15400000002

> <PUBCHEM_MMFF94_ENERGY>
64.0795

> <PUBCHEM_FEATURE_SELFOVERLAP>
45.695

> <PUBCHEM_SHAPE_FINGERPRINT>
10366900 7 18113620092577745744
11089746 13 18334852823239695488
11545043 162 17240492437008900896
12166972 35 17775569762503658416
12236239 1 17275106123992502894
12403259 415 18260270784663938521
12403260 363 18412544344438205360
12616971 3 17774736341105444433
13402501 40 18259700081936267813
13583140 156 18187370964387169515
13631057 29 17988354983831824847
13944108 23 16459369342469801941
14251757 5 17345741036200615999
14251764 38 18261114097155875669
14466204 15 18336541617281676840
14528608 73 18413106169278695006
14573314 32 17967253096029581350
15003188 100 18335977661999914197
15183329 4 18410573972609538204
15788980 27 18334579052864718482
1601671 61 18336268959930606524
17349148 13 16988853790834229996
17844677 252 18411141371880228245
18222031 100 18201726137534841984
18681886 176 17846210086090292810
19489759 90 17822008722555176507
200 152 17917712396390450219
21033648 144 18268997664114117560
21033648 29 18040994085161415569
21054139 6 17774994713263627334
21709351 56 18341895198977896284
22393880 68 18342170081438445647
23402539 116 17458060456518355911
23559900 14 18341604941072886977
23576562 1 18191032407580969196
2838139 119 18261666000315962709
341906 21 16877937269811706141
5283173 99 18260260833166762877
5385378 56 16299223494029747841
59755656 520 17095239220798311051
6328613 192 17240491325250824140
6669772 16 16699463550222136384
7226269 152 16660645128783555437
9849439 229 15721620314986001853

> <PUBCHEM_SHAPE_MULTIPOLES>
460.47
14.13
2.13
1.43
1.11
0.9
0.26
1.15
-4.41
-0.05
-0.05
-1.18
-0.13
0.47

> <PUBCHEM_SHAPE_SELFOVERLAP>
990.362

> <PUBCHEM_SHAPE_VOLUME>
253.4

> <PUBCHEM_COORDINATE_TYPE>
2
5
10

$$$$
