5832237
  -OEChem-01171809263D

 50 53  0     0  0  0  0  0  0999 V2000
    1.7952    0.4747   -1.6709 O   0  0  0  0  0  0  0  0  0  0  0  0
   -0.6687   -1.0865    0.6055 O   0  0  0  0  0  0  0  0  0  0  0  0
    6.5708   -3.2863   -0.0268 O   0  0  0  0  0  0  0  0  0  0  0  0
    0.4503    1.6161    0.4276 N   0  0  0  0  0  0  0  0  0  0  0  0
   -1.6323    2.2832    0.0301 N   0  0  0  0  0  0  0  0  0  0  0  0
    0.5284    2.9737    0.2506 C   0  0  0  0  0  0  0  0  0  0  0  0
    1.5557    0.7297    0.7128 C   0  0  0  0  0  0  0  0  0  0  0  0
   -0.8597    1.2514    0.2866 C   0  0  0  0  0  0  0  0  0  0  0  0
   -0.7842    3.3665    0.0038 C   0  0  0  0  0  0  0  0  0  0  0  0
    1.6016    3.8647    0.2842 C   0  0  0  0  0  0  0  0  0  0  0  0
    2.1999    0.1840   -0.5474 C   0  0  0  0  0  0  0  0  0  0  0  0
   -1.0610    4.7249   -0.2255 C   0  0  0  0  0  0  0  0  0  0  0  0
   -1.3776   -0.0745    0.3937 C   0  0  0  0  0  0  0  0  0  0  0  0
    3.3642   -0.7391   -0.4094 C   0  0  0  0  0  0  0  0  0  0  0  0
    1.3080    5.2128    0.0541 C   0  0  0  0  0  0  0  0  0  0  0  0
    0.0011    5.6372   -0.1965 C   0  0  0  0  0  0  0  0  0  0  0  0
    3.8062   -1.0578    0.8544 C   0  0  0  0  0  0  0  0  0  0  0  0
    3.9512   -1.2370   -1.5505 C   0  0  0  0  0  0  0  0  0  0  0  0
   -2.8656   -0.3181    0.2081 C   0  0  0  0  0  0  0  0  0  0  0  0
    4.8942   -1.9211    0.9842 C   0  0  0  0  0  0  0  0  0  0  0  0
    5.0390   -2.1004   -1.4207 C   0  0  0  0  0  0  0  0  0  0  0  0
    5.5105   -2.4424   -0.1533 C   0  0  0  0  0  0  0  0  0  0  0  0
   -3.3899   -1.5511    0.2751 C   0  0  0  0  0  0  0  0  0  0  0  0
   -4.8189   -1.8613    0.0930 C   0  0  0  0  0  0  0  0  0  0  0  0
   -5.7572   -0.8540    0.2496 C   0  0  0  0  0  0  0  0  0  0  0  0
   -5.1965   -3.1542   -0.2319 C   0  0  0  0  0  0  0  0  0  0  0  0
   -7.1099   -1.1474    0.0768 C   0  0  0  0  0  0  0  0  0  0  0  0
   -6.5492   -3.4476   -0.4049 C   0  0  0  0  0  0  0  0  0  0  0  0
   -7.5059   -2.4442   -0.2505 C   0  0  0  0  0  0  0  0  0  0  0  0
    7.0002   -3.5956    1.2982 C   0  0  0  0  0  0  0  0  0  0  0  0
    2.2991    1.3185    1.2622 H   0  0  0  0  0  0  0  0  0  0  0  0
    1.2152   -0.0661    1.3764 H   0  0  0  0  0  0  0  0  0  0  0  0
    2.6183    3.5405    0.4746 H   0  0  0  0  0  0  0  0  0  0  0  0
   -2.0730    5.0647   -0.4211 H   0  0  0  0  0  0  0  0  0  0  0  0
    2.1131    5.9433    0.0697 H   0  0  0  0  0  0  0  0  0  0  0  0
   -0.1958    6.6917   -0.3719 H   0  0  0  0  0  0  0  0  0  0  0  0
    3.3596   -0.6757    1.7651 H   0  0  0  0  0  0  0  0  0  0  0  0
    3.5999   -0.9838   -2.5459 H   0  0  0  0  0  0  0  0  0  0  0  0
   -3.4642    0.5595   -0.0052 H   0  0  0  0  0  0  0  0  0  0  0  0
    5.2096   -2.1453    1.9976 H   0  0  0  0  0  0  0  0  0  0  0  0
    5.5149   -2.5038   -2.3103 H   0  0  0  0  0  0  0  0  0  0  0  0
   -2.7495   -2.4092    0.4641 H   0  0  0  0  0  0  0  0  0  0  0  0
   -5.4985    0.1630    0.5261 H   0  0  0  0  0  0  0  0  0  0  0  0
   -4.4632   -3.9464   -0.3569 H   0  0  0  0  0  0  0  0  0  0  0  0
   -7.8558   -0.3679    0.2020 H   0  0  0  0  0  0  0  0  0  0  0  0
   -6.8578   -4.4574   -0.6598 H   0  0  0  0  0  0  0  0  0  0  0  0
   -8.5591   -2.6730   -0.3839 H   0  0  0  0  0  0  0  0  0  0  0  0
    6.2227   -4.1242    1.8602 H   0  0  0  0  0  0  0  0  0  0  0  0
    7.3583   -2.7037    1.8236 H   0  0  0  0  0  0  0  0  0  0  0  0
    7.8516   -4.2785    1.2109 H   0  0  0  0  0  0  0  0  0  0  0  0
  1 11  2  0  0  0  0
  2 13  2  0  0  0  0
  3 22  1  0  0  0  0
  3 30  1  0  0  0  0
  4  6  1  0  0  0  0
  4  7  1  0  0  0  0
  4  8  1  0  0  0  0
  5  8  2  0  0  0  0
  5  9  1  0  0  0  0
  6  9  1  0  0  0  0
  6 10  2  0  0  0  0
  7 11  1  0  0  0  0
  7 31  1  0  0  0  0
  7 32  1  0  0  0  0
  8 13  1  0  0  0  0
  9 12  2  0  0  0  0
 10 15  1  0  0  0  0
 10 33  1  0  0  0  0
 11 14  1  0  0  0  0
 12 16  1  0  0  0  0
 12 34  1  0  0  0  0
 13 19  1  0  0  0  0
 14 17  2  0  0  0  0
 14 18  1  0  0  0  0
 15 16  2  0  0  0  0
 15 35  1  0  0  0  0
 16 36  1  0  0  0  0
 17 20  1  0  0  0  0
 17 37  1  0  0  0  0
 18 21  2  0  0  0  0
 18 38  1  0  0  0  0
 19 23  2  0  0  0  0
 19 39  1  0  0  0  0
 20 22  2  0  0  0  0
 20 40  1  0  0  0  0
 21 22  1  0  0  0  0
 21 41  1  0  0  0  0
 23 24  1  0  0  0  0
 23 42  1  0  0  0  0
 24 25  2  0  0  0  0
 24 26  1  0  0  0  0
 25 27  1  0  0  0  0
 25 43  1  0  0  0  0
 26 28  2  0  0  0  0
 26 44  1  0  0  0  0
 27 29  2  0  0  0  0
 27 45  1  0  0  0  0
 28 29  1  0  0  0  0
 28 46  1  0  0  0  0
 29 47  1  0  0  0  0
 30 48  1  0  0  0  0
 30 49  1  0  0  0  0
 30 50  1  0  0  0  0
M  END
> <PUBCHEM_COMPOUND_CID>
5832237

> <PUBCHEM_CONFORMER_RMSD>
0.8

> <PUBCHEM_CONFORMER_DIVERSEORDER>
1
179
208
292
198
319
2
210
40
376
333
209
261
218
273
130
293
329
272
212
238
348
93
365
284
12
113
196
83
26
199
229
53
222
30
155
20
276
120
288
383
148
265
152
158
124
88
300
239
126
110
150
42
169
346
388
381
80
372
108
141
201
50
377
226
270
103
177
32
181
344
58
128
144
156
385
165
253
313
73
89
28
297
153
35
231
11
185
207
4
359
151
170
255
87
22
375
340
341
246
24
390
116
132
149
224
236
361
131
21
96
248
384
51
14
331
233
278
31
211
369
266
63
97
19
17
147
221
109
367
106
184
66
355
16
299
111
312
362
257
277
339
67
258
350
286
168
347
316
335
373
308
349
104
204
101
343
129
159
98
358
157
123
23
62
46
75
173
171
382
378
85
267
326
3
342
354
25
217
27
353
214
143
15
268
99
364
45
321
205
86
193
219
315
282
296
240
187
146
10
41
245
327
264
33
203
290
269
360
60
162
379
249
84
163
56
283
7
192
94
145
189
250
334
112
107
338
223
78
142
188
287
237
306
279
216
263
57
154
52
259
117
387
200
280
167
54
374
310
105
352
180
119
227
262
102
191
34
325
176
115
366
291
304
49
91
232
370
70
39
371
13
138
230
380
79
160
225
190
301
47
64
90
241
77
197
251
318
305
311
275
332
65
137
242
68
254
82
29
140
274
37
44
389
133
271
69
324
5
330
172
161
302
220
357
9
74
164
125
55
202
18
228
317
178
195
298
166
215
368
175
8
345
71
135
289
122
118
95
6
314
295
72
92
244
322
136
320
174
351
194
36
363
256
127
243
260
183
252
206
121
186
81
309
43
61
76
114
48
281
182
139
235
134
38
247
323
234
59
100
328
303
213
337
285
294
307
336
356
386

> <PUBCHEM_MMFF94_PARTIAL_CHARGES>
45
1 -0.57
10 -0.15
11 0.42
12 -0.15
13 0.64
14 0.09
15 -0.15
16 -0.15
17 -0.15
18 -0.15
19 -0.14
2 -0.57
20 -0.15
21 -0.15
22 0.08
23 -0.18
24 0.03
25 -0.15
26 -0.15
27 -0.15
28 -0.15
29 -0.15
3 -0.36
30 0.28
33 0.15
34 0.15
35 0.15
36 0.15
37 0.15
38 0.15
39 0.15
4 0.05
40 0.15
41 0.15
42 0.15
43 0.15
44 0.15
45 0.15
46 0.15
47 0.15
5 -0.57
6 -0.15
7 0.32
8 0.1
9 0.23

> <PUBCHEM_EFFECTIVE_ROTOR_COUNT>
7

> <PUBCHEM_PHARMACOPHORE_FEATURES>
8
1 1 acceptor
1 2 acceptor
1 3 acceptor
3 4 5 8 cation
5 4 5 6 8 9 rings
6 14 17 18 20 21 22 rings
6 24 25 26 27 28 29 rings
6 6 9 10 12 15 16 rings

> <PUBCHEM_HEAVY_ATOM_COUNT>
30

> <PUBCHEM_ATOM_DEF_STEREO_COUNT>
0

> <PUBCHEM_ATOM_UDEF_STEREO_COUNT>
0

> <PUBCHEM_BOND_DEF_STEREO_COUNT>
1

> <PUBCHEM_BOND_UDEF_STEREO_COUNT>
0

> <PUBCHEM_ISOTOPIC_ATOM_COUNT>
0

> <PUBCHEM_COMPONENT_COUNT>
1

> <PUBCHEM_CACTVS_TAUTO_COUNT>
2

> <PUBCHEM_CONFORMER_ID>
0058FE2D00000001

> <PUBCHEM_MMFF94_ENERGY>
89.0743

> <PUBCHEM_FEATURE_SELFOVERLAP>
40.705

> <PUBCHEM_SHAPE_FINGERPRINT>
10050765 1 18411983572434720881
10100884 174 18187923938034467682
10411042 1 18410291397809924474
10554248 39 18196357347127215647
10622 236 17606387766541171426
10721379 63 18124329451807424861
11135609 149 18267846450049880133
11297750 10 18342164545468675408
11720765 8 18338516455907772145
12107183 9 18342752806238995225
12166972 35 18040157322489921951
12342043 65 17058386786491305062
12788726 201 18190199900884317784
13248334 5 18122342642812335976
1361 4 17836928177013536095
13692115 27 18272660021197291721
13785724 45 18412547630335801241
13955234 65 17981049935723885425
14068700 675 18334017151379293822
14347332 77 18336549296540932786
14844126 61 18046916982876054536
15042514 8 18267586814581137209
15927050 60 17692816303549262727
16087824 20 18121500147340852305
16990366 60 18335415807068513891
16992752 21 18339089207519583438
17492 89 18196373839532840139
17686467 74 18271233951376127794
20775438 99 17832132093574591723
21133410 58 18267011933710481431
21792938 169 17981307199637476583
22311459 1 18122063366869462808
23559900 14 18266455589616415771
24180151 40 17844547679943550297
24771750 20 17611474424794768092
255183 313 17837794243544914369
255183 451 18343310300475960236
3004659 81 18113900476464477838
3103668 31 18189894219915831509
32027 91 18336548343353800315
3421961 26 18268993253330423657
3504750 166 17466497912089261898
3534868 343 18262254252475346942
3627633 1 18338234843228721040
4409770 3 18046626703385607325
463206 1 18334579074467149771
4760202 70 17822581500687306458
6058803 2 17913780689666631763
6695519 79 16828425428326707579
6697151 62 18268123484257116791
6700243 42 17770532784052151652
77188 2 18410574006748347484
7970288 3 18411418401508557623
9981440 41 17183353816018130592

> <PUBCHEM_SHAPE_MULTIPOLES>
589.82
17.17
7.55
1.03
14.45
12.13
0.21
-33.78
-0.18
-3.67
-0.08
-1.45
-0.55
-0.95

> <PUBCHEM_SHAPE_SELFOVERLAP>
1299.814

> <PUBCHEM_SHAPE_VOLUME>
317.7

> <PUBCHEM_COORDINATE_TYPE>
2
5
10

$$$$
