1489051
  -OEChem-01171809273D

 42 44  0     0  0  0  0  0  0999 V2000
   -1.5538    1.0592   -1.6402 S   0  0  0  0  0  0  0  0  0  0  0  0
    0.9582    1.8245   -1.4017 O   0  0  0  0  0  0  0  0  0  0  0  0
   -4.7993    1.4932   -0.6447 O   0  0  0  0  0  0  0  0  0  0  0  0
    4.8725   -3.0828    0.3635 O   0  0  0  0  0  0  0  0  0  0  0  0
   -2.4011    1.6637    2.0979 N   0  0  0  0  0  0  0  0  0  0  0  0
    5.5862   -0.8554    0.0670 N   0  0  0  0  0  0  0  0  0  0  0  0
    1.2626    2.7364    2.2536 N   0  0  0  0  0  0  0  0  0  0  0  0
   -2.4906    1.1114   -0.2355 C   0  0  0  0  0  0  0  0  0  0  0  0
   -1.8470    1.5422    0.8660 C   0  0  0  0  0  0  0  0  0  0  0  0
   -0.1985    1.6395   -0.7694 C   0  0  0  0  0  0  0  0  0  0  0  0
   -0.4917    1.8566    0.5589 C   0  0  0  0  0  0  0  0  0  0  0  0
   -3.9016    0.6851   -0.3531 C   0  0  0  0  0  0  0  0  0  0  0  0
   -4.2873   -0.7020   -0.1489 C   0  0  0  0  0  0  0  0  0  0  0  0
    2.1119    1.1564   -1.0369 C   0  0  0  0  0  0  0  0  0  0  0  0
    4.4220   -0.1813   -0.3030 C   0  0  0  0  0  0  0  0  0  0  0  0
    2.0534   -0.2023   -0.7780 C   0  0  0  0  0  0  0  0  0  0  0  0
    3.2989    1.8617   -0.9373 C   0  0  0  0  0  0  0  0  0  0  0  0
    3.2173   -0.8762   -0.4082 C   0  0  0  0  0  0  0  0  0  0  0  0
    4.4628    1.1877   -0.5676 C   0  0  0  0  0  0  0  0  0  0  0  0
   -3.3218   -1.6534    0.1800 C   0  0  0  0  0  0  0  0  0  0  0  0
   -5.6230   -1.0812   -0.2822 C   0  0  0  0  0  0  0  0  0  0  0  0
   -3.6919   -2.9842    0.3755 C   0  0  0  0  0  0  0  0  0  0  0  0
   -5.9931   -2.4118   -0.0867 C   0  0  0  0  0  0  0  0  0  0  0  0
   -5.0275   -3.3632    0.2422 C   0  0  0  0  0  0  0  0  0  0  0  0
    0.4768    2.3423    1.4943 C   0  0  0  0  0  0  0  0  0  0  0  0
    5.7396   -2.2150    0.3693 C   0  0  0  0  0  0  0  0  0  0  0  0
    7.1661   -2.5512    0.7250 C   0  0  0  0  0  0  0  0  0  0  0  0
    1.1280   -0.7638   -0.8658 H   0  0  0  0  0  0  0  0  0  0  0  0
    3.3321    2.9276   -1.1418 H   0  0  0  0  0  0  0  0  0  0  0  0
    3.1074   -1.9354   -0.2218 H   0  0  0  0  0  0  0  0  0  0  0  0
    5.3946    1.7422   -0.4891 H   0  0  0  0  0  0  0  0  0  0  0  0
   -2.2714   -1.4072    0.2989 H   0  0  0  0  0  0  0  0  0  0  0  0
   -6.3977   -0.3631   -0.5375 H   0  0  0  0  0  0  0  0  0  0  0  0
   -3.3713    1.4304    2.2877 H   0  0  0  0  0  0  0  0  0  0  0  0
   -1.8800    1.9932    2.9048 H   0  0  0  0  0  0  0  0  0  0  0  0
    6.4232   -0.2786    0.1217 H   0  0  0  0  0  0  0  0  0  0  0  0
   -2.9405   -3.7252    0.6326 H   0  0  0  0  0  0  0  0  0  0  0  0
   -7.0331   -2.7075   -0.1903 H   0  0  0  0  0  0  0  0  0  0  0  0
   -5.3158   -4.3992    0.3947 H   0  0  0  0  0  0  0  0  0  0  0  0
    7.4849   -1.9547    1.5844 H   0  0  0  0  0  0  0  0  0  0  0  0
    7.2443   -3.6114    0.9812 H   0  0  0  0  0  0  0  0  0  0  0  0
    7.8184   -2.3422   -0.1275 H   0  0  0  0  0  0  0  0  0  0  0  0
  1  8  1  0  0  0  0
  1 10  1  0  0  0  0
  2 10  1  0  0  0  0
  2 14  1  0  0  0  0
  3 12  2  0  0  0  0
  4 26  2  0  0  0  0
  5  9  1  0  0  0  0
  5 34  1  0  0  0  0
  5 35  1  0  0  0  0
  6 15  1  0  0  0  0
  6 26  1  0  0  0  0
  6 36  1  0  0  0  0
  7 25  3  0  0  0  0
  8  9  2  0  0  0  0
  8 12  1  0  0  0  0
  9 11  1  0  0  0  0
 10 11  2  0  0  0  0
 11 25  1  0  0  0  0
 12 13  1  0  0  0  0
 13 20  2  0  0  0  0
 13 21  1  0  0  0  0
 14 16  2  0  0  0  0
 14 17  1  0  0  0  0
 15 18  2  0  0  0  0
 15 19  1  0  0  0  0
 16 18  1  0  0  0  0
 16 28  1  0  0  0  0
 17 19  2  0  0  0  0
 17 29  1  0  0  0  0
 18 30  1  0  0  0  0
 19 31  1  0  0  0  0
 20 22  1  0  0  0  0
 20 32  1  0  0  0  0
 21 23  2  0  0  0  0
 21 33  1  0  0  0  0
 22 24  2  0  0  0  0
 22 37  1  0  0  0  0
 23 24  1  0  0  0  0
 23 38  1  0  0  0  0
 24 39  1  0  0  0  0
 26 27  1  0  0  0  0
 27 40  1  0  0  0  0
 27 41  1  0  0  0  0
 27 42  1  0  0  0  0
M  END
> <PUBCHEM_COMPOUND_CID>
1489051

> <PUBCHEM_CONFORMER_RMSD>
0.8

> <PUBCHEM_CONFORMER_DIVERSEORDER>
1
28
5
16
12
22
29
19
23
10
20
33
30
15
4
8
25
24
11
21
32
27
2
13
6
26
18
9
7
31
14
17
3

> <PUBCHEM_MMFF94_PARTIAL_CHARGES>
39
1 -0.08
10 0.1
11 0.02
12 0.57
13 0.09
14 0.08
15 0.12
16 -0.15
17 -0.15
18 -0.15
19 -0.15
2 -0.15
20 -0.15
21 -0.15
22 -0.15
23 -0.15
24 -0.15
25 0.54
26 0.57
27 0.06
28 0.15
29 0.15
3 -0.57
30 0.15
31 0.15
32 0.15
33 0.15
34 0.4
35 0.4
36 0.37
37 0.15
38 0.15
39 0.15
4 -0.57
5 -0.88
6 -0.55
7 -0.56
8 -0.05
9 0.08

> <PUBCHEM_EFFECTIVE_ROTOR_COUNT>
6

> <PUBCHEM_PHARMACOPHORE_FEATURES>
10
1 2 acceptor
1 3 acceptor
1 4 acceptor
1 5 cation
1 5 donor
1 6 donor
1 7 acceptor
5 1 8 9 10 11 rings
6 13 20 21 22 23 24 rings
6 14 15 16 17 18 19 rings

> <PUBCHEM_HEAVY_ATOM_COUNT>
27

> <PUBCHEM_ATOM_DEF_STEREO_COUNT>
0

> <PUBCHEM_ATOM_UDEF_STEREO_COUNT>
0

> <PUBCHEM_BOND_DEF_STEREO_COUNT>
0

> <PUBCHEM_BOND_UDEF_STEREO_COUNT>
0

> <PUBCHEM_ISOTOPIC_ATOM_COUNT>
0

> <PUBCHEM_COMPONENT_COUNT>
1

> <PUBCHEM_CACTVS_TAUTO_COUNT>
6

> <PUBCHEM_CONFORMER_ID>
0016B89B00000001

> <PUBCHEM_MMFF94_ENERGY>
82.8455

> <PUBCHEM_FEATURE_SELFOVERLAP>
50.747

> <PUBCHEM_SHAPE_FINGERPRINT>
10074138 170 17486788380354786737
11135609 99 18410853253444017078
117089 54 17391088284749919147
11796584 16 18410010996628032285
11963148 33 17623841731889681103
12107183 9 18263932034004772517
12166972 35 18261115188134850556
12895836 83 11170205267068409204
14068700 675 18334854988088043474
14211702 104 18341619183295600174
14251751 18 18409165527967800869
14848178 5 18409445907749073402
14910302 57 18261943150724732549
15361156 5 17313680251991737604
15475509 35 18198624534874947859
15728490 51 18411134741542765750
16728300 4 18411980265436458535
19319366 153 17836930366813172788
20028762 73 18410009910640291726
20626108 58 18333729147662182220
20775530 9 18335126596939858483
21033648 29 15195295179210013105
21033650 10 16226318219038861789
21223535 225 14779540150150174846
21344244 181 17096093609809866715
21344244 78 15769505338944206211
21756936 100 10015566303903494956
22393880 68 17676476225009273303
23559900 14 18337665451557267157
25122255 55 18409454652603486926
3004659 81 18113614607698741518
316301 35 18268991071471141467
329604 57 18340492252321792774
392239 28 17918274255474984562
439807 62 18335986458488555379
463206 1 17967538947615046106
5104073 3 18060424624588107216
559249 180 18334574608290933647
5718773 13 18260543407871593342
6679774 75 17192890382871835504
7970288 3 18191021210564882278
9896288 288 17630334026081533960

> <PUBCHEM_SHAPE_MULTIPOLES>
526.95
15.48
3.92
1.39
8.49
2.47
-0.5
17.58
-0.43
0.11
-1.18
0.14
-1.25
-0.82

> <PUBCHEM_SHAPE_SELFOVERLAP>
1140.358

> <PUBCHEM_SHAPE_VOLUME>
287.7

> <PUBCHEM_COORDINATE_TYPE>
2
5
10

$$$$
