3973468
  -OEChem-01171809373D

 58 60  0     1  0  0  0  0  0999 V2000
   -6.1505    1.3297    1.7621 Cl  0  0  0  0  0  0  0  0  0  0  0  0
   -1.7194   -0.5844   -2.2715 S   0  0  0  0  0  0  0  0  0  0  0  0
    4.8520    2.6753    0.6096 F   0  0  0  0  0  0  0  0  0  0  0  0
   -2.0389   -1.9490   -2.6498 O   0  0  0  0  0  0  0  0  0  0  0  0
   -1.6311    0.4353   -3.3008 O   0  0  0  0  0  0  0  0  0  0  0  0
    1.9326   -2.1558   -1.8872 O   0  0  0  0  0  0  0  0  0  0  0  0
   -4.1241   -1.3401    2.9365 O   0  5  0  0  0  0  0  0  0  0  0  0
   -5.6761   -2.1875    1.6356 O   0  0  0  0  0  0  0  0  0  0  0  0
   -0.2771   -0.5921   -1.2982 N   0  0  1  0  0  0  0  0  0  0  0  0
    1.9500   -2.9253    0.3056 N   0  0  0  0  0  0  0  0  0  0  0  0
   -4.7366   -1.3849    1.8443 N   0  3  0  0  0  0  0  0  0  0  0  0
    0.0843    0.6929   -0.7140 C   0  0  0  0  0  0  0  0  0  0  0  0
    0.0010   -1.7886   -0.4900 C   0  0  0  0  0  0  0  0  0  0  0  0
    1.0008    1.5335   -1.3457 C   0  0  0  0  0  0  0  0  0  0  0  0
   -2.9675   -0.0589   -1.1277 C   0  0  0  0  0  0  0  0  0  0  0  0
   -0.5004    1.0793    0.4920 C   0  0  0  0  0  0  0  0  0  0  0  0
    1.3880   -2.2938   -0.7950 C   0  0  0  0  0  0  0  0  0  0  0  0
    1.3329    2.7603   -0.7713 C   0  0  0  0  0  0  0  0  0  0  0  0
    0.7485    3.1467    0.4350 C   0  0  0  0  0  0  0  0  0  0  0  0
    3.2725   -3.5082    0.2954 C   0  0  0  0  0  0  0  0  0  0  0  0
   -0.1682    2.3061    1.0665 C   0  0  0  0  0  0  0  0  0  0  0  0
    4.1985   -2.8778    1.3327 C   0  0  0  0  0  0  0  0  0  0  0  0
    1.6421    1.1425   -2.6375 C   0  0  0  0  0  0  0  0  0  0  0  0
   -3.3705   -0.9068   -0.0960 C   0  0  0  0  0  0  0  0  0  0  0  0
   -3.5463    1.2035   -1.2592 C   0  0  0  0  0  0  0  0  0  0  0  0
    4.3738   -1.3916    1.1394 C   0  0  0  0  0  0  0  0  0  0  0  0
   -4.3521   -0.4924    0.8042 C   0  0  0  0  0  0  0  0  0  0  0  0
    1.1025    4.4588    1.0489 C   0  0  0  0  0  0  0  0  0  0  0  0
   -4.5279    1.6179   -0.3592 C   0  0  0  0  0  0  0  0  0  0  0  0
   -4.9307    0.7700    0.6726 C   0  0  0  0  0  0  0  0  0  0  0  0
    5.4017   -0.9100    0.3288 C   0  0  0  0  0  0  0  0  0  0  0  0
    3.5073   -0.4993    1.7709 C   0  0  0  0  0  0  0  0  0  0  0  0
    5.5633    0.4639    0.1498 C   0  0  0  0  0  0  0  0  0  0  0  0
    3.6689    0.8745    1.5920 C   0  0  0  0  0  0  0  0  0  0  0  0
    4.6969    1.3562    0.7815 C   0  0  0  0  0  0  0  0  0  0  0  0
   -0.1148   -1.5893    0.5800 H   0  0  0  0  0  0  0  0  0  0  0  0
   -0.6806   -2.6107   -0.7283 H   0  0  0  0  0  0  0  0  0  0  0  0
   -1.1928    0.4373    1.0258 H   0  0  0  0  0  0  0  0  0  0  0  0
    2.0513    3.4153   -1.2587 H   0  0  0  0  0  0  0  0  0  0  0  0
    3.1512   -4.5747    0.5130 H   0  0  0  0  0  0  0  0  0  0  0  0
    3.7080   -3.4219   -0.7061 H   0  0  0  0  0  0  0  0  0  0  0  0
   -0.6244    2.5916    2.0107 H   0  0  0  0  0  0  0  0  0  0  0  0
    1.4015   -3.0310    1.1540 H   0  0  0  0  0  0  0  0  0  0  0  0
    3.8060   -3.0627    2.3413 H   0  0  0  0  0  0  0  0  0  0  0  0
    5.1774   -3.3720    1.2990 H   0  0  0  0  0  0  0  0  0  0  0  0
    1.9239    2.0283   -3.2180 H   0  0  0  0  0  0  0  0  0  0  0  0
    0.9843    0.5520   -3.2792 H   0  0  0  0  0  0  0  0  0  0  0  0
    2.5499    0.5635   -2.4390 H   0  0  0  0  0  0  0  0  0  0  0  0
   -2.9254   -1.8934    0.0068 H   0  0  0  0  0  0  0  0  0  0  0  0
   -3.2487    1.8855   -2.0501 H   0  0  0  0  0  0  0  0  0  0  0  0
    1.2677    5.2199    0.2787 H   0  0  0  0  0  0  0  0  0  0  0  0
    0.2986    4.8265    1.6956 H   0  0  0  0  0  0  0  0  0  0  0  0
    2.0134    4.3591    1.6475 H   0  0  0  0  0  0  0  0  0  0  0  0
   -4.9677    2.6053   -0.4749 H   0  0  0  0  0  0  0  0  0  0  0  0
    6.0813   -1.5954   -0.1705 H   0  0  0  0  0  0  0  0  0  0  0  0
    2.7031   -0.8601    2.4067 H   0  0  0  0  0  0  0  0  0  0  0  0
    6.3628    0.8394   -0.4820 H   0  0  0  0  0  0  0  0  0  0  0  0
    2.9981    1.5690    2.0884 H   0  0  0  0  0  0  0  0  0  0  0  0
  1 30  1  0  0  0  0
  2  4  2  0  0  0  0
  2  5  2  0  0  0  0
  2  9  1  0  0  0  0
  2 15  1  0  0  0  0
  3 35  1  0  0  0  0
  6 17  2  0  0  0  0
  7 11  1  0  0  0  0
  8 11  2  0  0  0  0
  9 12  1  0  0  0  0
  9 13  1  0  0  0  0
 10 17  1  0  0  0  0
 10 20  1  0  0  0  0
 10 43  1  0  0  0  0
 11 27  1  0  0  0  0
 12 14  2  0  0  0  0
 12 16  1  0  0  0  0
 13 17  1  0  0  0  0
 13 36  1  0  0  0  0
 13 37  1  0  0  0  0
 14 18  1  0  0  0  0
 14 23  1  0  0  0  0
 15 24  2  0  0  0  0
 15 25  1  0  0  0  0
 16 21  2  0  0  0  0
 16 38  1  0  0  0  0
 18 19  2  0  0  0  0
 18 39  1  0  0  0  0
 19 21  1  0  0  0  0
 19 28  1  0  0  0  0
 20 22  1  0  0  0  0
 20 40  1  0  0  0  0
 20 41  1  0  0  0  0
 21 42  1  0  0  0  0
 22 26  1  0  0  0  0
 22 44  1  0  0  0  0
 22 45  1  0  0  0  0
 23 46  1  0  0  0  0
 23 47  1  0  0  0  0
 23 48  1  0  0  0  0
 24 27  1  0  0  0  0
 24 49  1  0  0  0  0
 25 29  2  0  0  0  0
 25 50  1  0  0  0  0
 26 31  2  0  0  0  0
 26 32  1  0  0  0  0
 27 30  2  0  0  0  0
 28 51  1  0  0  0  0
 28 52  1  0  0  0  0
 28 53  1  0  0  0  0
 29 30  1  0  0  0  0
 29 54  1  0  0  0  0
 31 33  1  0  0  0  0
 31 55  1  0  0  0  0
 32 34  2  0  0  0  0
 32 56  1  0  0  0  0
 33 35  2  0  0  0  0
 33 57  1  0  0  0  0
 34 35  1  0  0  0  0
 34 58  1  0  0  0  0
M  CHG  2   7  -1  11   1
M  END
> <PUBCHEM_COMPOUND_CID>
3973468

> <PUBCHEM_CONFORMER_RMSD>
1.4

> <PUBCHEM_CONFORMER_DIVERSEORDER>
3
165
6
106
193
26
43
180
107
67
181
197
48
1
76
7
28
170
149
147
72
198
61
158
167
27
44
182
119
169
57
154
164
192
20
148
140
194
129
166
146
173
81
142
128
178
45
114
58
175
83
122
115
5
185
120
79
98
156
70
73
82
104
196
183
136
25
46
111
12
22
200
157
52
174
177
126
37
24
112
105
168
176
108
171
31
118
127
91
144
4
139
55
141
161
186
132
16
36
65
99
109
191
63
188
89
155
14
50
133
54
137
125
85
8
80
9
160
2
78
189
53
134
199
47
184
69
19
88
33
151
152
143
49
123
23
59
68
64
11
96
40
71
51
162
94
145
15
103
84
190
90
131
138
101
187
95
195
41
124
34
159
30
92
130
39
13
93
97
163
62
18
121
29
100
172
150
153
86
116
66
113
87
60
110
42
17
32
35
179
201
38
21
10
117
75
74
135
56
77
102

> <PUBCHEM_MMFF94_PARTIAL_CHARGES>
46
1 -0.18
10 -0.73
11 0.91
12 0.2
13 0.42
14 -0.14
15 -0.01
16 -0.15
17 0.57
18 -0.15
19 -0.14
2 1.45
20 0.3
21 -0.15
22 0.14
23 0.14
24 -0.15
25 -0.15
26 -0.14
27 0.13
28 0.14
29 -0.15
3 -0.19
30 0.18
31 -0.15
32 -0.15
33 -0.15
34 -0.15
35 0.19
38 0.15
39 0.15
4 -0.65
42 0.15
43 0.37
49 0.15
5 -0.65
50 0.15
54 0.15
55 0.15
56 0.15
57 0.15
58 0.15
6 -0.57
7 -0.52
8 -0.52
9 -0.69

> <PUBCHEM_EFFECTIVE_ROTOR_COUNT>
10

> <PUBCHEM_PHARMACOPHORE_FEATURES>
10
1 10 donor
1 4 acceptor
1 5 acceptor
1 6 acceptor
1 7 acceptor
1 7 anion
1 8 acceptor
6 12 14 16 18 19 21 rings
6 15 24 25 27 29 30 rings
6 26 31 32 33 34 35 rings

> <PUBCHEM_HEAVY_ATOM_COUNT>
35

> <PUBCHEM_ATOM_DEF_STEREO_COUNT>
0

> <PUBCHEM_ATOM_UDEF_STEREO_COUNT>
0

> <PUBCHEM_BOND_DEF_STEREO_COUNT>
0

> <PUBCHEM_BOND_UDEF_STEREO_COUNT>
0

> <PUBCHEM_ISOTOPIC_ATOM_COUNT>
0

> <PUBCHEM_COMPONENT_COUNT>
1

> <PUBCHEM_CACTVS_TAUTO_COUNT>
2

> <PUBCHEM_CONFORMER_ID>
003CA15C00000003

> <PUBCHEM_MMFF94_ENERGY>
90.0387

> <PUBCHEM_FEATURE_SELFOVERLAP>
50.849

> <PUBCHEM_SHAPE_FINGERPRINT>
11763715 3 15836160026747370383
12128747 34 18260544528926668537
12422481 6 17988361451381918632
12633257 1 18261121759877957569
13583140 156 18337945800935911669
14040222 75 17842569452530183429
14790565 3 18268422607033491384
14840074 17 18059853943708889468
14950920 106 18043802096225269858
14955137 171 18411704296185139000
15163728 17 14476957904523846399
15328829 1 17631430415384267639
19315092 285 18197789997619525459
21421861 104 18271243820662535772
25222932 49 17022891385570779370
3459 110 18261108621246379907
3459 39 15769785619698501409
392239 28 18264202526275477530
44802255 64 12030345573121404858
563151 40 17322972495679076796
56638632 10 17983010351854965464

> <PUBCHEM_SHAPE_MULTIPOLES>
674.44
12.33
4.08
2.55
4.5
1.36
1.02
-2.58
-8.2
-3.33
-1.01
2.11
-0.6
0.36

> <PUBCHEM_SHAPE_SELFOVERLAP>
1416.387

> <PUBCHEM_SHAPE_VOLUME>
386.2

> <PUBCHEM_COORDINATE_TYPE>
2
5
10

$$$$
