3933628
  -OEChem-01171809353D

 60 63  0     0  0  0  0  0  0999 V2000
    5.1847   -0.2175    1.2407 S   0  0  0  0  0  0  0  0  0  0  0  0
    6.1956    3.3077   -1.3666 O   0  0  0  0  0  0  0  0  0  0  0  0
   -8.5089    1.3820   -0.2447 O   0  0  0  0  0  0  0  0  0  0  0  0
    4.5144    0.4829    2.3154 O   0  0  0  0  0  0  0  0  0  0  0  0
    6.3049   -1.0947    1.5072 O   0  0  0  0  0  0  0  0  0  0  0  0
    0.4151    0.8858    1.1612 O   0  0  0  0  0  0  0  0  0  0  0  0
   -4.0855   -2.9728   -0.3275 O   0  5  0  0  0  0  0  0  0  0  0  0
   -5.8828   -1.7124   -0.3175 O   0  0  0  0  0  0  0  0  0  0  0  0
    5.6358    0.9099    0.0338 N   0  0  0  0  0  0  0  0  0  0  0  0
   -5.7859    0.7463    0.0385 N   0  0  0  0  0  0  0  0  0  0  0  0
    0.3356   -1.0174   -0.2171 N   0  0  0  0  0  0  0  0  0  0  0  0
   -4.6414   -1.8546   -0.2213 N   0  3  0  0  0  0  0  0  0  0  0  0
    6.8636    1.7065    0.3251 C   0  0  0  0  0  0  0  0  0  0  0  0
    4.5373    1.7848   -0.4712 C   0  0  0  0  0  0  0  0  0  0  0  0
    7.2648    2.4642   -0.9329 C   0  0  0  0  0  0  0  0  0  0  0  0
    5.0365    2.5387   -1.6958 C   0  0  0  0  0  0  0  0  0  0  0  0
    3.9676   -1.1435    0.3585 C   0  0  0  0  0  0  0  0  0  0  0  0
   -6.5346    1.3162    1.1640 C   0  0  0  0  0  0  0  0  0  0  0  0
   -6.3508    1.0183   -1.2904 C   0  0  0  0  0  0  0  0  0  0  0  0
   -4.4034    0.5610    0.1429 C   0  0  0  0  0  0  0  0  0  0  0  0
   -8.0129    0.9684    1.0280 C   0  0  0  0  0  0  0  0  0  0  0  0
   -7.8386    0.6860   -1.2953 C   0  0  0  0  0  0  0  0  0  0  0  0
    4.3276   -2.2627   -0.3773 C   0  0  0  0  0  0  0  0  0  0  0  0
    2.6476   -0.7204    0.4199 C   0  0  0  0  0  0  0  0  0  0  0  0
    1.6663   -1.4327   -0.2695 C   0  0  0  0  0  0  0  0  0  0  0  0
   -3.8349   -0.7065    0.0173 C   0  0  0  0  0  0  0  0  0  0  0  0
    3.3463   -2.9749   -1.0669 C   0  0  0  0  0  0  0  0  0  0  0  0
   -3.5904    1.6701    0.3760 C   0  0  0  0  0  0  0  0  0  0  0  0
    2.0157   -2.5600   -1.0129 C   0  0  0  0  0  0  0  0  0  0  0  0
   -1.6719    0.2479    0.3557 C   0  0  0  0  0  0  0  0  0  0  0  0
    5.7433   -2.7333   -0.4568 C   0  0  0  0  0  0  0  0  0  0  0  0
   -2.4531   -0.8649    0.1248 C   0  0  0  0  0  0  0  0  0  0  0  0
   -2.2087    1.5117    0.4839 C   0  0  0  0  0  0  0  0  0  0  0  0
   -0.1994    0.0799    0.4707 C   0  0  0  0  0  0  0  0  0  0  0  0
    6.6483    2.4072    1.1401 H   0  0  0  0  0  0  0  0  0  0  0  0
    7.6816    1.0451    0.6260 H   0  0  0  0  0  0  0  0  0  0  0  0
    4.2457    2.4894    0.3159 H   0  0  0  0  0  0  0  0  0  0  0  0
    3.6671    1.2173   -0.7925 H   0  0  0  0  0  0  0  0  0  0  0  0
    8.1303    3.1013   -0.7261 H   0  0  0  0  0  0  0  0  0  0  0  0
    7.5389    1.7797   -1.7446 H   0  0  0  0  0  0  0  0  0  0  0  0
    5.2764    1.8558   -2.5196 H   0  0  0  0  0  0  0  0  0  0  0  0
    4.2664    3.2315   -2.0493 H   0  0  0  0  0  0  0  0  0  0  0  0
   -6.1580    0.9299    2.1182 H   0  0  0  0  0  0  0  0  0  0  0  0
   -6.4122    2.4061    1.1615 H   0  0  0  0  0  0  0  0  0  0  0  0
   -6.2087    2.0819   -1.5191 H   0  0  0  0  0  0  0  0  0  0  0  0
   -5.8443    0.4373   -2.0699 H   0  0  0  0  0  0  0  0  0  0  0  0
   -8.1833   -0.1078    1.1530 H   0  0  0  0  0  0  0  0  0  0  0  0
   -8.5907    1.4869    1.7996 H   0  0  0  0  0  0  0  0  0  0  0  0
   -8.2847    1.0029   -2.2433 H   0  0  0  0  0  0  0  0  0  0  0  0
   -8.0203   -0.3897   -1.1921 H   0  0  0  0  0  0  0  0  0  0  0  0
    2.4277    0.1552    1.0108 H   0  0  0  0  0  0  0  0  0  0  0  0
    3.6000   -3.8564   -1.6500 H   0  0  0  0  0  0  0  0  0  0  0  0
   -4.0143    2.6667    0.4690 H   0  0  0  0  0  0  0  0  0  0  0  0
    1.2616   -3.1251   -1.5550 H   0  0  0  0  0  0  0  0  0  0  0  0
    6.4270   -1.9330   -0.7563 H   0  0  0  0  0  0  0  0  0  0  0  0
    5.8483   -3.4983   -1.2368 H   0  0  0  0  0  0  0  0  0  0  0  0
    6.0564   -3.2141    0.4746 H   0  0  0  0  0  0  0  0  0  0  0  0
   -2.0192   -1.8580    0.0750 H   0  0  0  0  0  0  0  0  0  0  0  0
   -1.5894    2.3866    0.6582 H   0  0  0  0  0  0  0  0  0  0  0  0
   -0.2876   -1.5750   -0.7940 H   0  0  0  0  0  0  0  0  0  0  0  0
  1  4  2  0  0  0  0
  1  5  2  0  0  0  0
  1  9  1  0  0  0  0
  1 17  1  0  0  0  0
  2 15  1  0  0  0  0
  2 16  1  0  0  0  0
  3 21  1  0  0  0  0
  3 22  1  0  0  0  0
  6 34  2  0  0  0  0
  7 12  1  0  0  0  0
  8 12  2  0  0  0  0
  9 13  1  0  0  0  0
  9 14  1  0  0  0  0
 10 18  1  0  0  0  0
 10 19  1  0  0  0  0
 10 20  1  0  0  0  0
 11 25  1  0  0  0  0
 11 34  1  0  0  0  0
 11 60  1  0  0  0  0
 12 26  1  0  0  0  0
 13 15  1  0  0  0  0
 13 35  1  0  0  0  0
 13 36  1  0  0  0  0
 14 16  1  0  0  0  0
 14 37  1  0  0  0  0
 14 38  1  0  0  0  0
 15 39  1  0  0  0  0
 15 40  1  0  0  0  0
 16 41  1  0  0  0  0
 16 42  1  0  0  0  0
 17 23  2  0  0  0  0
 17 24  1  0  0  0  0
 18 21  1  0  0  0  0
 18 43  1  0  0  0  0
 18 44  1  0  0  0  0
 19 22  1  0  0  0  0
 19 45  1  0  0  0  0
 19 46  1  0  0  0  0
 20 26  2  0  0  0  0
 20 28  1  0  0  0  0
 21 47  1  0  0  0  0
 21 48  1  0  0  0  0
 22 49  1  0  0  0  0
 22 50  1  0  0  0  0
 23 27  1  0  0  0  0
 23 31  1  0  0  0  0
 24 25  2  0  0  0  0
 24 51  1  0  0  0  0
 25 29  1  0  0  0  0
 26 32  1  0  0  0  0
 27 29  2  0  0  0  0
 27 52  1  0  0  0  0
 28 33  2  0  0  0  0
 28 53  1  0  0  0  0
 29 54  1  0  0  0  0
 30 32  2  0  0  0  0
 30 33  1  0  0  0  0
 30 34  1  0  0  0  0
 31 55  1  0  0  0  0
 31 56  1  0  0  0  0
 31 57  1  0  0  0  0
 32 58  1  0  0  0  0
 33 59  1  0  0  0  0
M  CHG  2   7  -1  12   1
M  END
> <PUBCHEM_COMPOUND_CID>
3933628

> <PUBCHEM_CONFORMER_RMSD>
1

> <PUBCHEM_CONFORMER_DIVERSEORDER>
4
24
16
52
41
34
37
39
25
21
26
14
44
46
42
15
28
27
20
13
9
17
23
35
19
10
31
38
45
48
1
40
54
36
50
30
3
43
18
2
55
29
33
11
53
7
32
22
51
8
12
47
49
6
5

> <PUBCHEM_MMFF94_PARTIAL_CHARGES>
41
1 1.45
10 -0.84
11 -0.55
12 0.91
13 0.36
14 0.36
15 0.28
16 0.28
17 -0.01
18 0.37
19 0.37
2 -0.56
20 0.1
21 0.28
22 0.28
23 -0.14
24 -0.15
25 0.12
26 0.13
27 -0.15
28 -0.15
29 -0.15
3 -0.56
30 0.09
31 0.14
32 -0.15
33 -0.15
34 0.54
4 -0.65
5 -0.65
51 0.15
52 0.15
53 0.15
54 0.15
58 0.15
59 0.15
6 -0.57
60 0.37
7 -0.52
8 -0.52
9 -0.85

> <PUBCHEM_EFFECTIVE_ROTOR_COUNT>
9.4

> <PUBCHEM_PHARMACOPHORE_FEATURES>
14
1 10 cation
1 11 donor
1 2 acceptor
1 3 acceptor
1 4 acceptor
1 5 acceptor
1 6 acceptor
1 7 acceptor
1 7 anion
1 8 acceptor
6 17 23 24 25 27 29 rings
6 2 9 13 14 15 16 rings
6 20 26 28 30 32 33 rings
6 3 10 18 19 21 22 rings

> <PUBCHEM_HEAVY_ATOM_COUNT>
34

> <PUBCHEM_ATOM_DEF_STEREO_COUNT>
0

> <PUBCHEM_ATOM_UDEF_STEREO_COUNT>
0

> <PUBCHEM_BOND_DEF_STEREO_COUNT>
0

> <PUBCHEM_BOND_UDEF_STEREO_COUNT>
0

> <PUBCHEM_ISOTOPIC_ATOM_COUNT>
0

> <PUBCHEM_COMPONENT_COUNT>
1

> <PUBCHEM_CACTVS_TAUTO_COUNT>
2

> <PUBCHEM_CONFORMER_ID>
003C05BC00000004

> <PUBCHEM_MMFF94_ENERGY>
121.536

> <PUBCHEM_FEATURE_SELFOVERLAP>
71.151

> <PUBCHEM_SHAPE_FINGERPRINT>
10 15 18040718065346753553
10299344 5 17346311558439250731
10673678 19 18340492270261265268
10835480 77 18410854369612806535
10906281 52 17916881136157650459
11719270 70 18273208686427720358
12522641 126 16916799431328975958
14251764 18 17703785904422738401
15082195 135 18343022207466771496
15119646 104 18341896264240918925
15183329 4 18341895203674355249
15274700 259 18189033341187710405
15336146 87 18189344476527656580
15361156 5 18341328968466039031
15400415 2 18130222662724034847
1577012 14 18334292106305459596
15840311 113 18333735697539640847
15961568 22 18187086174360461596
20157964 124 18335422348825028564
21859007 373 17168976799530492165
22149856 69 17988373610672250411
23081809 10 17775284920398804545
23522609 53 17702687470420960433
23559900 14 18200864158957554713
24771750 20 17974860767634086733
255183 451 17628365879184259342
27425 322 17967532402348891138
3004659 81 18341612556150343874
3044373 193 17458072564237171052
3411729 13 18041285461066242452
34797466 226 18335422335359942924
3918712 181 18271805778595186688
397830 11 17895771689361322707
4073 2 18408888447228749539
4112364 45 14924521861332151078
4169191 19 18412266130027519957
4325135 7 18411981347419238304
444735 82 18338239271429602597
44880568 143 18262797342653569861
45377200 153 14907605874928482757
4625314 4 18410293610166936046
49967989 163 15984525828803960741
504579 68 17846502521380210476
6328613 192 18412547605014559281
99344 41 18338237167301543452

> <PUBCHEM_SHAPE_MULTIPOLES>
642.54
25.07
3.31
1.34
23.91
0.66
0.14
-12.17
-2.01
-5.76
-1.48
-1.04
-0.46
-1.59

> <PUBCHEM_SHAPE_SELFOVERLAP>
1367.224

> <PUBCHEM_SHAPE_VOLUME>
358.4

> <PUBCHEM_COORDINATE_TYPE>
2
5
10

$$$$
