3124490
  -OEChem-01171809213D

 54 57  0     1  0  0  0  0  0999 V2000
    3.7003    2.2856   -1.1972 O   0  0  0  0  0  0  0  0  0  0  0  0
    3.1321   -1.5142    1.3763 O   0  0  0  0  0  0  0  0  0  0  0  0
   -0.2638    1.1392    1.4837 O   0  0  0  0  0  0  0  0  0  0  0  0
    0.5332    1.0105   -0.7032 O   0  0  0  0  0  0  0  0  0  0  0  0
    3.1341    0.5518    0.2752 N   0  0  0  0  0  0  0  0  0  0  0  0
   -5.4396    0.7584   -0.4944 N   0  0  0  0  0  0  0  0  0  0  0  0
    4.9323    0.1982   -1.1640 C   0  0  2  0  0  0  0  0  0  0  0  0
    4.3874   -1.1506   -0.6792 C   0  0  1  0  0  0  0  0  0  0  0  0
    6.2455    0.6318   -0.5040 C   0  0  0  0  0  0  0  0  0  0  0  0
    5.4238   -2.2202   -0.3601 C   0  0  0  0  0  0  0  0  0  0  0  0
    7.2520   -0.5029   -0.3881 C   0  0  0  0  0  0  0  0  0  0  0  0
    6.6496   -1.6804    0.3653 C   0  0  0  0  0  0  0  0  0  0  0  0
    3.8420    1.1593   -0.7432 C   0  0  0  0  0  0  0  0  0  0  0  0
    3.4965   -0.7659    0.4817 C   0  0  0  0  0  0  0  0  0  0  0  0
    2.1322    1.2264    1.0767 C   0  0  0  0  0  0  0  0  0  0  0  0
    0.7384    1.1137    0.5021 C   0  0  0  0  0  0  0  0  0  0  0  0
   -6.1601   -0.4928   -0.6985 C   0  0  0  0  0  0  0  0  0  0  0  0
   -3.4307   -0.3419    0.3451 C   0  0  0  0  0  0  0  0  0  0  0  0
   -5.3353   -1.6986   -0.3118 C   0  0  0  0  0  0  0  0  0  0  0  0
   -4.1471    0.8221    0.0015 C   0  0  0  0  0  0  0  0  0  0  0  0
   -4.0807   -1.6593    0.1696 C   0  0  0  0  0  0  0  0  0  0  0  0
   -7.4332   -0.4515    0.1573 C   0  0  0  0  0  0  0  0  0  0  0  0
   -6.5338   -0.5871   -2.1841 C   0  0  0  0  0  0  0  0  0  0  0  0
   -1.5319    1.0396    0.9995 C   0  0  0  0  0  0  0  0  0  0  0  0
   -2.1225   -0.2152    0.8434 C   0  0  0  0  0  0  0  0  0  0  0  0
   -3.5362    2.0771    0.1653 C   0  0  0  0  0  0  0  0  0  0  0  0
   -2.2385    2.1863    0.6607 C   0  0  0  0  0  0  0  0  0  0  0  0
   -3.3460   -2.9191    0.5245 C   0  0  0  0  0  0  0  0  0  0  0  0
    5.0319    0.1935   -2.2548 H   0  0  0  0  0  0  0  0  0  0  0  0
    3.7026   -1.5534   -1.4399 H   0  0  0  0  0  0  0  0  0  0  0  0
    6.0568    1.0387    0.4988 H   0  0  0  0  0  0  0  0  0  0  0  0
    6.6849    1.4561   -1.0794 H   0  0  0  0  0  0  0  0  0  0  0  0
    5.7556   -2.6712   -1.3044 H   0  0  0  0  0  0  0  0  0  0  0  0
    4.9791   -3.0292    0.2308 H   0  0  0  0  0  0  0  0  0  0  0  0
    8.1455   -0.1479    0.1376 H   0  0  0  0  0  0  0  0  0  0  0  0
    7.5719   -0.8209   -1.3877 H   0  0  0  0  0  0  0  0  0  0  0  0
    7.3967   -2.4764    0.4622 H   0  0  0  0  0  0  0  0  0  0  0  0
    6.3760   -1.3729    1.3819 H   0  0  0  0  0  0  0  0  0  0  0  0
    2.3795    2.2902    1.1507 H   0  0  0  0  0  0  0  0  0  0  0  0
    2.1323    0.7810    2.0772 H   0  0  0  0  0  0  0  0  0  0  0  0
   -5.9086    1.6275   -0.7254 H   0  0  0  0  0  0  0  0  0  0  0  0
   -5.8162   -2.6671   -0.4419 H   0  0  0  0  0  0  0  0  0  0  0  0
   -8.0589    0.4101   -0.1044 H   0  0  0  0  0  0  0  0  0  0  0  0
   -8.0384   -1.3557    0.0232 H   0  0  0  0  0  0  0  0  0  0  0  0
   -7.1935   -0.3641    1.2241 H   0  0  0  0  0  0  0  0  0  0  0  0
   -7.1404    0.2717   -2.4955 H   0  0  0  0  0  0  0  0  0  0  0  0
   -5.6400   -0.5985   -2.8197 H   0  0  0  0  0  0  0  0  0  0  0  0
   -7.1083   -1.4959   -2.3981 H   0  0  0  0  0  0  0  0  0  0  0  0
   -1.5415   -1.0923    1.1190 H   0  0  0  0  0  0  0  0  0  0  0  0
   -4.0757    2.9854   -0.0953 H   0  0  0  0  0  0  0  0  0  0  0  0
   -1.7881    3.1679    0.7789 H   0  0  0  0  0  0  0  0  0  0  0  0
   -3.9529   -3.8128    0.3405 H   0  0  0  0  0  0  0  0  0  0  0  0
   -3.0766   -2.9265    1.5860 H   0  0  0  0  0  0  0  0  0  0  0  0
   -2.4351   -3.0203   -0.0751 H   0  0  0  0  0  0  0  0  0  0  0  0
  1 13  2  0  0  0  0
  2 14  2  0  0  0  0
  3 16  1  0  0  0  0
  3 24  1  0  0  0  0
  4 16  2  0  0  0  0
  5 13  1  0  0  0  0
  5 14  1  0  0  0  0
  5 15  1  0  0  0  0
  6 17  1  0  0  0  0
  6 20  1  0  0  0  0
  6 41  1  0  0  0  0
  7  8  1  0  0  0  0
  7  9  1  0  0  0  0
  7 13  1  0  0  0  0
  7 29  1  0  0  0  0
  8 10  1  0  0  0  0
  8 14  1  0  0  0  0
  8 30  1  0  0  0  0
  9 11  1  0  0  0  0
  9 31  1  0  0  0  0
  9 32  1  0  0  0  0
 10 12  1  0  0  0  0
 10 33  1  0  0  0  0
 10 34  1  0  0  0  0
 11 12  1  0  0  0  0
 11 35  1  0  0  0  0
 11 36  1  0  0  0  0
 12 37  1  0  0  0  0
 12 38  1  0  0  0  0
 15 16  1  0  0  0  0
 15 39  1  0  0  0  0
 15 40  1  0  0  0  0
 17 19  1  0  0  0  0
 17 22  1  0  0  0  0
 17 23  1  0  0  0  0
 18 20  2  0  0  0  0
 18 21  1  0  0  0  0
 18 25  1  0  0  0  0
 19 21  2  0  0  0  0
 19 42  1  0  0  0  0
 20 26  1  0  0  0  0
 21 28  1  0  0  0  0
 22 43  1  0  0  0  0
 22 44  1  0  0  0  0
 22 45  1  0  0  0  0
 23 46  1  0  0  0  0
 23 47  1  0  0  0  0
 23 48  1  0  0  0  0
 24 25  2  0  0  0  0
 24 27  1  0  0  0  0
 25 49  1  0  0  0  0
 26 27  2  0  0  0  0
 26 50  1  0  0  0  0
 27 51  1  0  0  0  0
 28 52  1  0  0  0  0
 28 53  1  0  0  0  0
 28 54  1  0  0  0  0
M  END
> <PUBCHEM_COMPOUND_CID>
3124490

> <PUBCHEM_CONFORMER_RMSD>
0.8

> <PUBCHEM_CONFORMER_DIVERSEORDER>
1
304
372
265
227
215
218
186
260
307
416
82
217
403
349
180
155
110
102
399
15
140
249
344
281
253
329
251
174
50
119
305
69
51
221
314
12
90
291
402
116
170
91
326
410
214
394
169
148
68
193
292
359
389
417
310
185
308
204
382
256
401
173
312
413
99
207
275
400
388
370
252
166
58
378
244
357
165
295
144
22
80
56
76
149
219
2
220
208
129
395
387
364
347
245
175
290
237
85
73
8
115
250
97
232
385
153
393
360
391
7
287
113
282
243
248
168
29
293
37
298
199
238
258
178
352
75
183
128
325
246
203
48
35
111
57
266
332
194
74
167
333
211
390
362
268
136
222
133
229
213
142
361
414
81
367
336
383
135
86
280
405
353
154
397
179
187
380
205
108
71
212
23
121
297
234
171
376
316
163
123
190
39
105
162
147
139
299
64
230
124
375
46
127
55
324
341
228
161
32
122
114
52
63
53
351
159
70
192
267
20
235
106
132
27
358
100
95
125
236
9
157
62
16
3
191
273
88
350
285
67
107
386
288
374
306
31
311
240
66
398
313
176
411
384
92
409
368
261
152
319
79
225
164
331
78
407
137
309
6
130
223
365
224
303
72
126
231
44
415
43
118
158
40
145
104
36
197
184
257
346
112
283
369
328
247
377
342
294
270
392
87
404
83
321
408
150
300
54
263
60
337
335
340
196
271
226
242
182
318
94
334
356
5
181
19
41
200
322
302
418
33
117
354
286
38
13
278
323
4
24
14
25
177
412
254
255
134
381
101
98
188
216
96
366
189
45
59
201
198
289
65
202
18
206
34
89
47
301
317
172
379
209
10
269
276
371
17
348
109
355
373
77
103
320
345
264
330
296
84
93
233
406
138
30
338
315
272
61
146
279
363
143
210
28
195
151
339
277
156
343
49
11
21
239
396
120
131
284
262
274
160
241
42
141
327
259
26

> <PUBCHEM_MMFF94_PARTIAL_CHARGES>
27
1 -0.57
13 0.57
14 0.57
15 0.36
16 0.66
17 0.51
18 0.03
19 -0.29
2 -0.57
20 0.1
21 -0.17
24 0.08
25 -0.15
26 -0.15
27 -0.15
28 0.14
3 -0.23
4 -0.57
41 0.4
42 0.15
49 0.15
5 -0.42
50 0.15
51 0.15
6 -0.87
7 0.06
8 0.06

> <PUBCHEM_EFFECTIVE_ROTOR_COUNT>
5.4

> <PUBCHEM_PHARMACOPHORE_FEATURES>
10
1 1 acceptor
1 2 acceptor
1 4 acceptor
1 6 cation
1 6 donor
3 17 22 23 hydrophobe
5 5 7 8 13 14 rings
6 18 20 24 25 26 27 rings
6 6 17 18 19 20 21 rings
6 7 8 9 10 11 12 rings

> <PUBCHEM_HEAVY_ATOM_COUNT>
28

> <PUBCHEM_ATOM_DEF_STEREO_COUNT>
0

> <PUBCHEM_ATOM_UDEF_STEREO_COUNT>
2

> <PUBCHEM_BOND_DEF_STEREO_COUNT>
0

> <PUBCHEM_BOND_UDEF_STEREO_COUNT>
0

> <PUBCHEM_ISOTOPIC_ATOM_COUNT>
0

> <PUBCHEM_COMPONENT_COUNT>
1

> <PUBCHEM_CACTVS_TAUTO_COUNT>
3

> <PUBCHEM_CONFORMER_ID>
002FAD0A00000001

> <PUBCHEM_MMFF94_ENERGY>
74.2944

> <PUBCHEM_FEATURE_SELFOVERLAP>
50.943

> <PUBCHEM_SHAPE_FINGERPRINT>
10299344 5 18341618100942144665
10391435 84 18338229474925270210
10554248 39 15502378894682165186
10595046 47 18410863153074615012
10670039 82 14562805513383642374
10674148 151 18272651234659718361
11135609 99 18272930497823554430
11524674 6 16272207496971308119
12236239 1 18412548678608729088
12516196 113 17918273143141953320
12760667 363 18131914862705502595
13668630 136 17703514328607251516
13685833 64 17632576050159425888
14068700 675 17489585684428570177
14347332 77 18342458110546137185
14461889 52 18201430403388178066
14849402 71 11671480319597210170
14910302 57 18336817663092690289
14931854 50 18335699408111719923
15064986 266 18335999600814135929
15082195 135 18115316708071872780
15183329 4 18113893854083161171
15188451 53 18273210872839750458
15250474 111 18408319956440189426
15510800 12 17988939867565925254
17857418 61 18343023289476315050
18681886 176 18413668011694965536
19377110 9 12535342415535285552
19958102 18 18333725815147161047
20028762 73 16415476086246453959
20281389 69 8574712386527424390
21033648 29 11963965852976581300
21054139 6 18335140891170943514
21150785 3 17167864175472932105
21267235 1 18410294744665471643
21307412 95 18342167926161695319
21623969 137 16917072135860823092
22393880 68 18334290946785596136
23198884 109 17240483607009631963
23522609 53 17914647001323863337
23559900 14 18339356500034650441
2838139 119 11602820241578087114
3004659 81 18335135397353526730
3383291 50 18201433692985836919
3633792 109 18187361004626807637
392239 28 11815607645165449479
4073 2 17968384562557054754
439807 62 18412547613055861235
465052 167 17775850124835821764
5085150 59 18343013368055155046
559249 180 18343301423437967913
5718773 13 17774993640154578671
59682541 35 9943516432501459223
6437827 68 18412547617150725679
6608658 132 16733253548641891613
86090 222 16199607834567672412
960060 61 18260551138506387808

> <PUBCHEM_SHAPE_MULTIPOLES>
542.79
20.82
2.42
1.25
3.04
0.47
0.27
8.49
6.44
-0.26
-0.27
-0.5
-0.05
-0.85

> <PUBCHEM_SHAPE_SELFOVERLAP>
1173.538

> <PUBCHEM_SHAPE_VOLUME>
296.4

> <PUBCHEM_COORDINATE_TYPE>
2
5
10

$$$$
