3237138
  -OEChem-01171809173D

 34 35  0     0  0  0  0  0  0999 V2000
   -2.1272   -2.5222   -0.6202 S   0  0  0  0  0  0  0  0  0  0  0  0
    3.7803    0.7098   -0.2504 O   0  0  0  0  0  0  0  0  0  0  0  0
    3.1477   -1.9644    0.1433 O   0  0  0  0  0  0  0  0  0  0  0  0
   -2.5857   -0.0068   -0.1455 N   0  0  0  0  0  0  0  0  0  0  0  0
   -2.2482    1.3994    0.1249 C   0  0  0  0  0  0  0  0  0  0  0  0
   -0.9812    1.8221   -0.6394 C   0  0  0  0  0  0  0  0  0  0  0  0
    0.1275    0.8297   -0.4311 C   0  0  0  0  0  0  0  0  0  0  0  0
   -0.1918   -0.5257   -0.2665 C   0  0  0  0  0  0  0  0  0  0  0  0
   -3.4349    2.2427   -0.3642 C   0  0  0  0  0  0  0  0  0  0  0  0
   -2.1009    1.5872    1.6433 C   0  0  0  0  0  0  0  0  0  0  0  0
   -1.6353   -0.8639   -0.3024 C   0  0  0  0  0  0  0  0  0  0  0  0
    1.4667    1.2351   -0.4393 C   0  0  0  0  0  0  0  0  0  0  0  0
    0.8294   -1.4591   -0.0606 C   0  0  0  0  0  0  0  0  0  0  0  0
    2.4815    0.2990   -0.2497 C   0  0  0  0  0  0  0  0  0  0  0  0
    2.1626   -1.0433   -0.0545 C   0  0  0  0  0  0  0  0  0  0  0  0
   -3.0272   -2.8418    0.9094 C   0  0  0  0  0  0  0  0  0  0  0  0
    4.3367    1.1022    1.0029 C   0  0  0  0  0  0  0  0  0  0  0  0
   -0.6676    2.8232   -0.3185 H   0  0  0  0  0  0  0  0  0  0  0  0
   -1.1802    1.8709   -1.7181 H   0  0  0  0  0  0  0  0  0  0  0  0
   -3.2628    3.3104   -0.1895 H   0  0  0  0  0  0  0  0  0  0  0  0
   -3.6067    2.0978   -1.4371 H   0  0  0  0  0  0  0  0  0  0  0  0
   -4.3605    1.9599    0.1505 H   0  0  0  0  0  0  0  0  0  0  0  0
   -1.2951    0.9724    2.0581 H   0  0  0  0  0  0  0  0  0  0  0  0
   -1.8874    2.6324    1.8929 H   0  0  0  0  0  0  0  0  0  0  0  0
   -3.0208    1.2975    2.1645 H   0  0  0  0  0  0  0  0  0  0  0  0
    1.7182    2.2824   -0.5883 H   0  0  0  0  0  0  0  0  0  0  0  0
    0.6131   -2.5111    0.1010 H   0  0  0  0  0  0  0  0  0  0  0  0
   -3.9133   -2.2051    0.9780 H   0  0  0  0  0  0  0  0  0  0  0  0
   -2.3851   -2.6612    1.7760 H   0  0  0  0  0  0  0  0  0  0  0  0
   -3.3501   -3.8861    0.9276 H   0  0  0  0  0  0  0  0  0  0  0  0
    4.0084   -1.5165    0.0759 H   0  0  0  0  0  0  0  0  0  0  0  0
    4.2843    0.2822    1.7260 H   0  0  0  0  0  0  0  0  0  0  0  0
    3.8137    1.9807    1.3939 H   0  0  0  0  0  0  0  0  0  0  0  0
    5.3870    1.3623    0.8449 H   0  0  0  0  0  0  0  0  0  0  0  0
  1 11  1  0  0  0  0
  1 16  1  0  0  0  0
  2 14  1  0  0  0  0
  2 17  1  0  0  0  0
  3 15  1  0  0  0  0
  3 31  1  0  0  0  0
  4  5  1  0  0  0  0
  4 11  2  0  0  0  0
  5  6  1  0  0  0  0
  5  9  1  0  0  0  0
  5 10  1  0  0  0  0
  6  7  1  0  0  0  0
  6 18  1  0  0  0  0
  6 19  1  0  0  0  0
  7  8  1  0  0  0  0
  7 12  2  0  0  0  0
  8 11  1  0  0  0  0
  8 13  2  0  0  0  0
  9 20  1  0  0  0  0
  9 21  1  0  0  0  0
  9 22  1  0  0  0  0
 10 23  1  0  0  0  0
 10 24  1  0  0  0  0
 10 25  1  0  0  0  0
 12 14  1  0  0  0  0
 12 26  1  0  0  0  0
 13 15  1  0  0  0  0
 13 27  1  0  0  0  0
 14 15  2  0  0  0  0
 16 28  1  0  0  0  0
 16 29  1  0  0  0  0
 16 30  1  0  0  0  0
 17 32  1  0  0  0  0
 17 33  1  0  0  0  0
 17 34  1  0  0  0  0
M  END
> <PUBCHEM_COMPOUND_CID>
3237138

> <PUBCHEM_CONFORMER_RMSD>
0.6

> <PUBCHEM_CONFORMER_DIVERSEORDER>
3
4
7
2
5
1
8
6

> <PUBCHEM_MMFF94_PARTIAL_CHARGES>
18
1 -0.37
11 0.5
12 -0.15
13 -0.15
14 0.08
15 0.08
16 0.23
17 0.28
2 -0.36
26 0.15
27 0.15
3 -0.53
31 0.45
4 -0.7
5 0.25
6 0.14
7 -0.14
8 0.09

> <PUBCHEM_EFFECTIVE_ROTOR_COUNT>
2.4

> <PUBCHEM_PHARMACOPHORE_FEATURES>
7
1 16 hydrophobe
1 2 acceptor
1 3 donor
1 4 acceptor
3 5 9 10 hydrophobe
6 4 5 6 7 8 11 rings
6 7 8 12 13 14 15 rings

> <PUBCHEM_HEAVY_ATOM_COUNT>
17

> <PUBCHEM_ATOM_DEF_STEREO_COUNT>
0

> <PUBCHEM_ATOM_UDEF_STEREO_COUNT>
0

> <PUBCHEM_BOND_DEF_STEREO_COUNT>
0

> <PUBCHEM_BOND_UDEF_STEREO_COUNT>
0

> <PUBCHEM_ISOTOPIC_ATOM_COUNT>
0

> <PUBCHEM_COMPONENT_COUNT>
1

> <PUBCHEM_CACTVS_TAUTO_COUNT>
3

> <PUBCHEM_CONFORMER_ID>
0031651200000003

> <PUBCHEM_MMFF94_ENERGY>
60.7069

> <PUBCHEM_FEATURE_SELFOVERLAP>
35.544

> <PUBCHEM_SHAPE_FINGERPRINT>
10608611 8 18341045242472992508
10967382 1 18265895744042959100
11132069 177 18408601448781222852
11578080 2 17129564990180211923
12382932 28 18411698764351664272
12390115 104 18199481016269442248
12491281 212 18271536290412607000
12500047 106 18411692158438995732
12553582 1 18050575345629606695
13140716 1 18337668612283860458
13380535 21 18340214007429351878
13380535 76 18269834207926922223
13764800 53 17988927764336937593
14081887 123 18200019780586332130
14178342 30 18335695057578263960
14223421 5 18341331179804386770
14787075 74 17696748131797884800
14790565 3 16894006894777979317
14897335 6 18340198605386718412
15309172 13 18122633751611031929
15442244 35 18338514128061786926
15536298 74 18342173315843984758
15775835 57 18339082592447267684
16945 1 18338517563681845245
1741750 31 18272932687222549576
17804303 29 18195531389849704134
18186145 218 18129388111717689260
20510252 161 18271527623147459194
20525323 117 18411691114893473982
20871998 184 18272376411954450047
21501502 16 18410569570320956726
21524375 3 18055067658409321157
21731228 192 18124889958150639073
22112679 90 17341541009077299367
2334 1 18410576201602853214
23388829 49 18193838381949193423
23402539 116 18196643219042992374
23419403 2 16251571879467421813
23557571 272 18272380818485173318
23558518 356 18260552233586463538
23559900 14 18271803476840076286
2748010 2 18412271609719870830
3312278 4 18338233872565436679
5104073 3 18410854313377195370
69090 78 18337103450342939485
7364860 26 18127689332161913006
74978 22 18339927013187531278
7832392 63 18410012100698137524
81228 2 18337120054707676155
9709674 26 18341894069491519062

> <PUBCHEM_SHAPE_MULTIPOLES>
336.98
6.36
3
0.99
5.04
1.13
-0.32
-0.48
-1.29
-2.92
-0.21
-0.32
-0.2
0.26

> <PUBCHEM_SHAPE_SELFOVERLAP>
698.003

> <PUBCHEM_SHAPE_VOLUME>
197.9

> <PUBCHEM_COORDINATE_TYPE>
2
5
10

$$$$
