12005636
  -OEChem-01171809343D

 53 54  0     1  0  0  0  0  0999 V2000
    5.2712    0.1265    0.7844 Cl  0  0  0  0  0  0  0  0  0  0  0  0
   -0.6538   -1.8369    1.3090 S   0  0  0  0  0  0  0  0  0  0  0  0
   -2.3190   -0.8971   -1.7535 O   0  0  0  0  0  0  0  0  0  0  0  0
   -0.8705   -2.8607    0.3035 O   0  0  0  0  0  0  0  0  0  0  0  0
   -0.8677   -2.1548    2.7088 O   0  0  0  0  0  0  0  0  0  0  0  0
   -3.5001   -2.6147   -0.7780 O   0  0  0  0  0  0  0  0  0  0  0  0
    2.9727   -1.6302   -2.4164 O   0  5  0  0  0  0  0  0  0  0  0  0
    4.8004   -0.7358   -1.5924 O   0  0  0  0  0  0  0  0  0  0  0  0
   -1.5559   -0.4271    0.8976 N   0  0  1  0  0  0  0  0  0  0  0  0
    3.6152   -1.1232   -1.4675 N   0  3  0  0  0  0  0  0  0  0  0  0
   -2.9786   -0.6064    0.5034 C   0  0  0  0  0  0  0  0  0  0  0  0
   -1.3598    0.7898    1.7246 C   0  0  0  0  0  0  0  0  0  0  0  0
   -3.7145   -1.2662    1.6672 C   0  0  0  0  0  0  0  0  0  0  0  0
   -3.5573    0.7682    0.1758 C   0  0  0  0  0  0  0  0  0  0  0  0
   -2.9799   -1.5068   -0.7237 C   0  0  0  0  0  0  0  0  0  0  0  0
   -0.9023    1.9656    0.9079 C   0  0  0  0  0  0  0  0  0  0  0  0
    1.0215   -1.2859    1.1457 C   0  0  0  0  0  0  0  0  0  0  0  0
   -1.4916    3.2079    1.1043 C   0  0  0  0  0  0  0  0  0  0  0  0
    0.1044    1.7960   -0.0341 C   0  0  0  0  0  0  0  0  0  0  0  0
    1.6566   -1.4158   -0.0755 C   0  0  0  0  0  0  0  0  0  0  0  0
    1.6583   -0.7375    2.2433 C   0  0  0  0  0  0  0  0  0  0  0  0
   -1.0673    4.2991    0.3461 C   0  0  0  0  0  0  0  0  0  0  0  0
    0.5290    2.8872   -0.7922 C   0  0  0  0  0  0  0  0  0  0  0  0
    2.9761   -0.9819   -0.2035 C   0  0  0  0  0  0  0  0  0  0  0  0
   -0.0568    4.1386   -0.6021 C   0  0  0  0  0  0  0  0  0  0  0  0
   -2.2502   -1.6421   -2.9737 C   0  0  0  0  0  0  0  0  0  0  0  0
    2.9778   -0.3034    2.1153 C   0  0  0  0  0  0  0  0  0  0  0  0
    3.6367   -0.4256    0.8919 C   0  0  0  0  0  0  0  0  0  0  0  0
    0.3973    5.3054   -1.4122 C   0  0  0  0  0  0  0  0  0  0  0  0
   -1.4919   -0.8324   -4.0038 C   0  0  0  0  0  0  0  0  0  0  0  0
   -2.2326    1.0265    2.3411 H   0  0  0  0  0  0  0  0  0  0  0  0
   -0.5870    0.6207    2.4790 H   0  0  0  0  0  0  0  0  0  0  0  0
   -3.5914   -0.7239    2.6102 H   0  0  0  0  0  0  0  0  0  0  0  0
   -4.7904   -1.3085    1.4569 H   0  0  0  0  0  0  0  0  0  0  0  0
   -3.4002   -2.3015    1.8380 H   0  0  0  0  0  0  0  0  0  0  0  0
   -2.9686    1.3232   -0.5612 H   0  0  0  0  0  0  0  0  0  0  0  0
   -3.7706    1.3957    1.0452 H   0  0  0  0  0  0  0  0  0  0  0  0
   -4.5364    0.6273   -0.3040 H   0  0  0  0  0  0  0  0  0  0  0  0
   -2.2759    3.3477    1.8428 H   0  0  0  0  0  0  0  0  0  0  0  0
    0.5523    0.8424   -0.2422 H   0  0  0  0  0  0  0  0  0  0  0  0
    1.1182   -1.8425   -0.9170 H   0  0  0  0  0  0  0  0  0  0  0  0
    1.1710   -0.6431    3.2084 H   0  0  0  0  0  0  0  0  0  0  0  0
   -1.5295    5.2696    0.5053 H   0  0  0  0  0  0  0  0  0  0  0  0
    1.3120    2.7478   -1.5332 H   0  0  0  0  0  0  0  0  0  0  0  0
   -1.7311   -2.5900   -2.7932 H   0  0  0  0  0  0  0  0  0  0  0  0
   -3.2644   -1.8448   -3.3352 H   0  0  0  0  0  0  0  0  0  0  0  0
    3.4788    0.1256    2.9794 H   0  0  0  0  0  0  0  0  0  0  0  0
    1.2174    5.8204   -0.9022 H   0  0  0  0  0  0  0  0  0  0  0  0
    0.7434    4.9885   -2.4020 H   0  0  0  0  0  0  0  0  0  0  0  0
   -0.4193    6.0176   -1.5718 H   0  0  0  0  0  0  0  0  0  0  0  0
   -1.4195   -1.3735   -4.9513 H   0  0  0  0  0  0  0  0  0  0  0  0
   -1.9881    0.1275   -4.1807 H   0  0  0  0  0  0  0  0  0  0  0  0
   -0.4814   -0.6065   -3.6469 H   0  0  0  0  0  0  0  0  0  0  0  0
  1 28  1  0  0  0  0
  2  4  2  0  0  0  0
  2  5  2  0  0  0  0
  2  9  1  0  0  0  0
  2 17  1  0  0  0  0
  3 15  1  0  0  0  0
  3 26  1  0  0  0  0
  6 15  2  0  0  0  0
  7 10  1  0  0  0  0
  8 10  2  0  0  0  0
  9 11  1  0  0  0  0
  9 12  1  0  0  0  0
 10 24  1  0  0  0  0
 11 13  1  0  0  0  0
 11 14  1  0  0  0  0
 11 15  1  0  0  0  0
 12 16  1  0  0  0  0
 12 31  1  0  0  0  0
 12 32  1  0  0  0  0
 13 33  1  0  0  0  0
 13 34  1  0  0  0  0
 13 35  1  0  0  0  0
 14 36  1  0  0  0  0
 14 37  1  0  0  0  0
 14 38  1  0  0  0  0
 16 18  2  0  0  0  0
 16 19  1  0  0  0  0
 17 20  2  0  0  0  0
 17 21  1  0  0  0  0
 18 22  1  0  0  0  0
 18 39  1  0  0  0  0
 19 23  2  0  0  0  0
 19 40  1  0  0  0  0
 20 24  1  0  0  0  0
 20 41  1  0  0  0  0
 21 27  2  0  0  0  0
 21 42  1  0  0  0  0
 22 25  2  0  0  0  0
 22 43  1  0  0  0  0
 23 25  1  0  0  0  0
 23 44  1  0  0  0  0
 24 28  2  0  0  0  0
 25 29  1  0  0  0  0
 26 30  1  0  0  0  0
 26 45  1  0  0  0  0
 26 46  1  0  0  0  0
 27 28  1  0  0  0  0
 27 47  1  0  0  0  0
 29 48  1  0  0  0  0
 29 49  1  0  0  0  0
 29 50  1  0  0  0  0
 30 51  1  0  0  0  0
 30 52  1  0  0  0  0
 30 53  1  0  0  0  0
M  CHG  2   7  -1  10   1
M  END
> <PUBCHEM_COMPOUND_CID>
12005636

> <PUBCHEM_CONFORMER_RMSD>
1

> <PUBCHEM_CONFORMER_DIVERSEORDER>
1
70
10
38
73
78
75
32
11
68
65
66
3
45
74
51
72
36
67
44
58
63
62
9
53
59
34
64
8
76
55
35
26
39
57
33
41
23
16
52
54
46
48
42
77
47
31
61
69
30
7
71
29
49
6
21
56
22
13
28
40
20
60
43
18
12
25
17
19
4
14
5
24
50
37
15
27
2

> <PUBCHEM_MMFF94_PARTIAL_CHARGES>
34
1 -0.18
10 0.91
11 0.42
12 0.5
15 0.66
16 -0.14
17 -0.01
18 -0.15
19 -0.15
2 1.45
20 -0.15
21 -0.15
22 -0.15
23 -0.15
24 0.13
25 -0.14
26 0.28
27 -0.15
28 0.18
29 0.14
3 -0.43
39 0.15
4 -0.65
40 0.15
41 0.15
42 0.15
43 0.15
44 0.15
47 0.15
5 -0.65
6 -0.57
7 -0.52
8 -0.52
9 -0.85

> <PUBCHEM_EFFECTIVE_ROTOR_COUNT>
9

> <PUBCHEM_PHARMACOPHORE_FEATURES>
9
1 4 acceptor
1 5 acceptor
1 6 acceptor
1 7 acceptor
1 7 anion
1 8 acceptor
3 11 13 14 hydrophobe
6 16 18 19 22 23 25 rings
6 17 20 21 24 27 28 rings

> <PUBCHEM_HEAVY_ATOM_COUNT>
30

> <PUBCHEM_ATOM_DEF_STEREO_COUNT>
0

> <PUBCHEM_ATOM_UDEF_STEREO_COUNT>
0

> <PUBCHEM_BOND_DEF_STEREO_COUNT>
0

> <PUBCHEM_BOND_UDEF_STEREO_COUNT>
0

> <PUBCHEM_ISOTOPIC_ATOM_COUNT>
0

> <PUBCHEM_COMPONENT_COUNT>
1

> <PUBCHEM_CACTVS_TAUTO_COUNT>
1

> <PUBCHEM_CONFORMER_ID>
00B7310400000001

> <PUBCHEM_MMFF94_ENERGY>
94.3265

> <PUBCHEM_FEATURE_SELFOVERLAP>
45.776

> <PUBCHEM_SHAPE_FINGERPRINT>
10006869 2 17902227820013836265
10165383 225 17478074669326954224
10498660 4 18263086526309943416
10871710 139 18190476968766192592
11477941 20 18412553111463710036
11759241 127 17988635342110919152
12156800 1 16967242786853580753
12160290 23 18052804867463609249
12539773 59 16091577595723881606
12788726 201 18116432544347867232
13149001 5 17972020698807364731
133893 2 17903898299950567953
13615921 28 17467970423507472916
13681431 1 18194665189018747337
13911987 19 18115299098689634214
14863182 85 15400425845161407727
14955137 171 18266479709878158211
15849732 13 17989207049787545515
16067690 210 17109101811323887476
1813 80 18342455988742258595
20600515 1 18265313170737533602
21304303 282 17252815574302036520
22889148 1 17697571339383605757
23402539 116 18339911680465937010
238 59 17332232607918333261
24893989 43 15967562498391122733
26353 1 18126256809733268885
35225 105 17980470166372460956
57527306 92 18412266108278182153
6287921 2 17344615170520934160
6438718 38 18198066880415872400

> <PUBCHEM_SHAPE_MULTIPOLES>
577.93
6.82
5.06
2.97
7.07
9.42
-2.52
-4.19
-0.78
-2.36
-1.09
-0.73
-1.82
-0.49

> <PUBCHEM_SHAPE_SELFOVERLAP>
1198.809

> <PUBCHEM_SHAPE_VOLUME>
332.6

> <PUBCHEM_COORDINATE_TYPE>
2
5
10

$$$$
