3554511
  -OEChem-01171809413D

 34 34  0     0  0  0  0  0  0999 V2000
   -2.8265   -1.2805   -0.1102 S   0  0  0  0  0  0  0  0  0  0  0  0
    5.1953    0.5459    0.3331 O   0  0  0  0  0  0  0  0  0  0  0  0
   -0.2361   -2.6525   -0.2098 O   0  0  0  0  0  0  0  0  0  0  0  0
   -7.5684    0.7494   -0.1299 O   0  0  0  0  0  0  0  0  0  0  0  0
   -5.8298    2.1814    0.1589 O   0  0  0  0  0  0  0  0  0  0  0  0
    1.3220   -0.9181    0.0464 C   0  0  0  0  0  0  0  0  0  0  0  0
   -1.2197   -0.4551    0.0305 C   0  0  0  0  0  0  0  0  0  0  0  0
   -0.0357   -1.4307   -0.0526 C   0  0  0  0  0  0  0  0  0  0  0  0
   -3.8875    0.1763    0.0331 C   0  0  0  0  0  0  0  0  0  0  0  0
    1.5399    0.4491    0.2155 C   0  0  0  0  0  0  0  0  0  0  0  0
    2.4057   -1.7933   -0.0269 C   0  0  0  0  0  0  0  0  0  0  0  0
    3.9252    0.0662    0.2379 C   0  0  0  0  0  0  0  0  0  0  0  0
   -5.3620   -0.1733   -0.1129 C   0  0  0  0  0  0  0  0  0  0  0  0
    2.8415    0.9413    0.3112 C   0  0  0  0  0  0  0  0  0  0  0  0
    3.7073   -1.3011    0.0689 C   0  0  0  0  0  0  0  0  0  0  0  0
    5.4258    1.8719   -0.1406 C   0  0  0  0  0  0  0  0  0  0  0  0
   -6.2500    1.0449   -0.0187 C   0  0  0  0  0  0  0  0  0  0  0  0
    6.8530    1.9782   -0.6341 C   0  0  0  0  0  0  0  0  0  0  0  0
   -1.1365    0.2643   -0.7896 H   0  0  0  0  0  0  0  0  0  0  0  0
   -1.1859    0.0531    0.9988 H   0  0  0  0  0  0  0  0  0  0  0  0
   -3.7110    0.6469    1.0067 H   0  0  0  0  0  0  0  0  0  0  0  0
   -3.6010    0.8975   -0.7406 H   0  0  0  0  0  0  0  0  0  0  0  0
    0.7285    1.1667    0.2840 H   0  0  0  0  0  0  0  0  0  0  0  0
    2.2632   -2.8627   -0.1580 H   0  0  0  0  0  0  0  0  0  0  0  0
   -5.5458   -0.6400   -1.0877 H   0  0  0  0  0  0  0  0  0  0  0  0
   -5.6655   -0.8673    0.6795 H   0  0  0  0  0  0  0  0  0  0  0  0
    2.9670    2.0082    0.4703 H   0  0  0  0  0  0  0  0  0  0  0  0
    4.5478   -1.9873    0.0115 H   0  0  0  0  0  0  0  0  0  0  0  0
    4.7678    2.1252   -0.9813 H   0  0  0  0  0  0  0  0  0  0  0  0
    5.2634    2.5803    0.6792 H   0  0  0  0  0  0  0  0  0  0  0  0
    7.0683    2.9876   -0.9959 H   0  0  0  0  0  0  0  0  0  0  0  0
    7.5573    1.7332    0.1679 H   0  0  0  0  0  0  0  0  0  0  0  0
    7.0349    1.2656   -1.4454 H   0  0  0  0  0  0  0  0  0  0  0  0
   -8.1308    1.5499   -0.0569 H   0  0  0  0  0  0  0  0  0  0  0  0
  1  7  1  0  0  0  0
  1  9  1  0  0  0  0
  2 12  1  0  0  0  0
  2 16  1  0  0  0  0
  3  8  2  0  0  0  0
  4 17  1  0  0  0  0
  4 34  1  0  0  0  0
  5 17  2  0  0  0  0
  6  8  1  0  0  0  0
  6 10  2  0  0  0  0
  6 11  1  0  0  0  0
  7  8  1  0  0  0  0
  7 19  1  0  0  0  0
  7 20  1  0  0  0  0
  9 13  1  0  0  0  0
  9 21  1  0  0  0  0
  9 22  1  0  0  0  0
 10 14  1  0  0  0  0
 10 23  1  0  0  0  0
 11 15  2  0  0  0  0
 11 24  1  0  0  0  0
 12 14  2  0  0  0  0
 12 15  1  0  0  0  0
 13 17  1  0  0  0  0
 13 25  1  0  0  0  0
 13 26  1  0  0  0  0
 14 27  1  0  0  0  0
 15 28  1  0  0  0  0
 16 18  1  0  0  0  0
 16 29  1  0  0  0  0
 16 30  1  0  0  0  0
 18 31  1  0  0  0  0
 18 32  1  0  0  0  0
 18 33  1  0  0  0  0
M  END
> <PUBCHEM_COMPOUND_CID>
3554511

> <PUBCHEM_CONFORMER_RMSD>
0.8

> <PUBCHEM_CONFORMER_DIVERSEORDER>
1
140
97
70
10
79
48
158
53
86
7
82
132
91
89
155
80
181
9
185
116
100
19
29
127
184
17
138
56
71
131
5
104
39
108
68
153
52
74
168
13
64
22
20
40
11
45
147
3
77
96
61
26
8
44
180
102
112
46
21
121
31
83
60
176
85
134
190
120
188
78
133
160
128
161
87
54
192
14
193
2
103
113
98
101
73
129
194
171
92
130
179
67
163
18
106
59
119
137
191
105
183
72
178
41
12
165
25
175
84
37
144
65
118
90
110
107
124
49
63
62
123
173
148
177
156
94
159
43
15
157
55
34
125
66
32
23
136
30
170
186
6
95
150
93
75
135
145
167
47
143
88
146
42
166
117
152
28
4
164
24
69
114
172
139
189
38
36
35
162
174
76
122
81
169
151
142
50
154
109
182
149
57
115
126
99
16
58
51
33
111
141
187
27

> <PUBCHEM_MMFF94_PARTIAL_CHARGES>
22
1 -0.46
10 -0.15
11 -0.15
12 0.08
13 0.06
14 -0.15
15 -0.15
16 0.28
17 0.66
2 -0.36
23 0.15
24 0.15
27 0.15
28 0.15
3 -0.57
34 0.5
4 -0.65
5 -0.57
6 0.09
7 0.29
8 0.42
9 0.23

> <PUBCHEM_EFFECTIVE_ROTOR_COUNT>
8

> <PUBCHEM_PHARMACOPHORE_FEATURES>
7
1 2 acceptor
1 3 acceptor
1 4 acceptor
1 5 acceptor
3 4 5 17 anion
4 1 7 9 13 hydrophobe
6 6 10 11 12 14 15 rings

> <PUBCHEM_HEAVY_ATOM_COUNT>
18

> <PUBCHEM_ATOM_DEF_STEREO_COUNT>
0

> <PUBCHEM_ATOM_UDEF_STEREO_COUNT>
0

> <PUBCHEM_BOND_DEF_STEREO_COUNT>
0

> <PUBCHEM_BOND_UDEF_STEREO_COUNT>
0

> <PUBCHEM_ISOTOPIC_ATOM_COUNT>
0

> <PUBCHEM_COMPONENT_COUNT>
1

> <PUBCHEM_CACTVS_TAUTO_COUNT>
2

> <PUBCHEM_CONFORMER_ID>
00363CCF00000001

> <PUBCHEM_MMFF94_ENERGY>
45.4372

> <PUBCHEM_FEATURE_SELFOVERLAP>
35.581

> <PUBCHEM_SHAPE_FINGERPRINT>
10 15 18040719182022335433
100836 57 18410293622808698983
10411042 1 17762899866885159286
10595046 47 18342171147270888399
12596602 18 17748826328064044665
13167372 99 18339922606683168817
13685833 64 9223232948755278932
13785724 45 17762615097241213122
14123256 34 8718834210011442872
14251764 18 18187642544117386531
15048467 5 18409448111236133820
15475509 35 15864901025080784970
15778101 99 18409731806494853590
20281389 69 18113897131153913549
20526848 3 18335986449566298572
20621476 66 18410014363803114973
212847 35 18342452638741588298
21637258 2 11527955538725171606
22224240 67 15864067697897407985
23402655 69 18272646870081635342
270888 7 18410572902819699053
2916195 48 18186801340924312609
293599 30 18411699915376369886
29717793 49 17489310746175715078
335352 9 18412829067354437526
351380 3 8862942771295444449
4073 2 18187651318994711283
4340502 62 16587739832961183770
5104073 3 18113612417450453394
5283384 27 18040705958213826189
59682541 35 18187657925297295913
59682541 52 17417826015302755798
7495541 125 12612762323650583135
77188 2 17544754525886716834

> <PUBCHEM_SHAPE_MULTIPOLES>
350.8
18.31
2.28
0.65
16.73
0.16
-0.01
-15.32
-1.36
-0.96
-0.18
-0.22
-0.03
-0.53

> <PUBCHEM_SHAPE_SELFOVERLAP>
695.757

> <PUBCHEM_SHAPE_VOLUME>
209.7

> <PUBCHEM_COORDINATE_TYPE>
2
5
10

$$$$
