3916178
  -OEChem-01171810093D

 49 51  0     0  0  0  0  0  0999 V2000
   -5.6374   -1.1043    1.8996 Cl  0  0  0  0  0  0  0  0  0  0  0  0
   -6.6549   -1.4444   -1.2053 Cl  0  0  0  0  0  0  0  0  0  0  0  0
    3.9112   -1.0293   -0.4686 S   0  0  0  0  0  0  0  0  0  0  0  0
    4.1787   -1.1412   -1.8860 O   0  0  0  0  0  0  0  0  0  0  0  0
    4.9196   -1.3705    0.5112 O   0  0  0  0  0  0  0  0  0  0  0  0
   -0.7883    0.3663   -0.3380 O   0  0  0  0  0  0  0  0  0  0  0  0
   -3.4434    0.8199    2.0097 O   0  0  0  0  0  0  0  0  0  0  0  0
    2.4711   -1.8844   -0.1034 N   0  0  0  0  0  0  0  0  0  0  0  0
    0.1971    2.4540    0.1212 N   0  0  0  0  0  0  0  0  0  0  0  0
   -3.2815    1.3710   -0.2353 N   0  0  0  0  0  0  0  0  0  0  0  0
   -3.7330    1.2036   -1.5229 N   0  0  0  0  0  0  0  0  0  0  0  0
    2.3335   -2.3230    1.3168 C   0  0  0  0  0  0  0  0  0  0  0  0
    2.1139   -2.9700   -1.0637 C   0  0  0  0  0  0  0  0  0  0  0  0
    0.8937   -2.7494    1.5838 C   0  0  0  0  0  0  0  0  0  0  0  0
    0.6706   -3.4045   -0.8307 C   0  0  0  0  0  0  0  0  0  0  0  0
    0.4491   -3.8415    0.6148 C   0  0  0  0  0  0  0  0  0  0  0  0
    3.3769    0.6221   -0.1478 C   0  0  0  0  0  0  0  0  0  0  0  0
    4.2999    1.6299    0.0905 C   0  0  0  0  0  0  0  0  0  0  0  0
    2.0139    0.8825   -0.1403 C   0  0  0  0  0  0  0  0  0  0  0  0
    1.5648    2.1790    0.1109 C   0  0  0  0  0  0  0  0  0  0  0  0
    3.8507    2.9265    0.3414 C   0  0  0  0  0  0  0  0  0  0  0  0
    5.7709    1.3691    0.0884 C   0  0  0  0  0  0  0  0  0  0  0  0
    2.4831    3.2013    0.3514 C   0  0  0  0  0  0  0  0  0  0  0  0
   -0.8693    1.5663   -0.0968 C   0  0  0  0  0  0  0  0  0  0  0  0
   -2.2028    2.2842    0.0054 C   0  0  0  0  0  0  0  0  0  0  0  0
   -3.8380    0.6805    0.8512 C   0  0  0  0  0  0  0  0  0  0  0  0
   -4.9580   -0.2589    0.5575 C   0  0  0  0  0  0  0  0  0  0  0  0
   -4.7043    0.3784   -1.7208 C   0  0  0  0  0  0  0  0  0  0  0  0
   -5.3875   -0.4133   -0.6943 C   0  0  0  0  0  0  0  0  0  0  0  0
    2.5835   -1.4954    1.9893 H   0  0  0  0  0  0  0  0  0  0  0  0
    3.0202   -3.1537    1.5171 H   0  0  0  0  0  0  0  0  0  0  0  0
    2.7997   -3.8157   -0.9391 H   0  0  0  0  0  0  0  0  0  0  0  0
    2.1908   -2.6062   -2.0932 H   0  0  0  0  0  0  0  0  0  0  0  0
    0.7976   -3.1073    2.6148 H   0  0  0  0  0  0  0  0  0  0  0  0
    0.2294   -1.8823    1.4795 H   0  0  0  0  0  0  0  0  0  0  0  0
   -0.0050   -2.5715   -1.0628 H   0  0  0  0  0  0  0  0  0  0  0  0
    0.4158   -4.2261   -1.5093 H   0  0  0  0  0  0  0  0  0  0  0  0
    1.0146   -4.7604    0.8118 H   0  0  0  0  0  0  0  0  0  0  0  0
   -0.6096   -4.0733    0.7756 H   0  0  0  0  0  0  0  0  0  0  0  0
    1.3264    0.0903   -0.3772 H   0  0  0  0  0  0  0  0  0  0  0  0
    4.5525    3.7339    0.5332 H   0  0  0  0  0  0  0  0  0  0  0  0
    6.3372    2.3063    0.0333 H   0  0  0  0  0  0  0  0  0  0  0  0
    6.0755    0.8637    1.0097 H   0  0  0  0  0  0  0  0  0  0  0  0
    6.0773    0.7825   -0.7832 H   0  0  0  0  0  0  0  0  0  0  0  0
    2.1471    4.2162    0.5489 H   0  0  0  0  0  0  0  0  0  0  0  0
   -0.0482    3.4236    0.3114 H   0  0  0  0  0  0  0  0  0  0  0  0
   -2.2405    3.0880   -0.7385 H   0  0  0  0  0  0  0  0  0  0  0  0
   -2.2898    2.7299    1.0024 H   0  0  0  0  0  0  0  0  0  0  0  0
   -5.0648    0.2456   -2.7543 H   0  0  0  0  0  0  0  0  0  0  0  0
  1 27  1  0  0  0  0
  2 29  1  0  0  0  0
  3  4  2  0  0  0  0
  3  5  2  0  0  0  0
  3  8  1  0  0  0  0
  3 17  1  0  0  0  0
  6 24  2  0  0  0  0
  7 26  2  0  0  0  0
  8 12  1  0  0  0  0
  8 13  1  0  0  0  0
  9 20  1  0  0  0  0
  9 24  1  0  0  0  0
  9 46  1  0  0  0  0
 10 11  1  0  0  0  0
 10 25  1  0  0  0  0
 10 26  1  0  0  0  0
 11 28  2  0  0  0  0
 12 14  1  0  0  0  0
 12 30  1  0  0  0  0
 12 31  1  0  0  0  0
 13 15  1  0  0  0  0
 13 32  1  0  0  0  0
 13 33  1  0  0  0  0
 14 16  1  0  0  0  0
 14 34  1  0  0  0  0
 14 35  1  0  0  0  0
 15 16  1  0  0  0  0
 15 36  1  0  0  0  0
 15 37  1  0  0  0  0
 16 38  1  0  0  0  0
 16 39  1  0  0  0  0
 17 18  2  0  0  0  0
 17 19  1  0  0  0  0
 18 21  1  0  0  0  0
 18 22  1  0  0  0  0
 19 20  2  0  0  0  0
 19 40  1  0  0  0  0
 20 23  1  0  0  0  0
 21 23  2  0  0  0  0
 21 41  1  0  0  0  0
 22 42  1  0  0  0  0
 22 43  1  0  0  0  0
 22 44  1  0  0  0  0
 23 45  1  0  0  0  0
 24 25  1  0  0  0  0
 25 47  1  0  0  0  0
 25 48  1  0  0  0  0
 26 27  1  0  0  0  0
 27 29  2  0  0  0  0
 28 29  1  0  0  0  0
 28 49  1  0  0  0  0
M  END
> <PUBCHEM_COMPOUND_CID>
3916178

> <PUBCHEM_CONFORMER_RMSD>
1

> <PUBCHEM_CONFORMER_DIVERSEORDER>
1
179
34
91
173
102
70
105
211
121
134
176
51
165
194
183
127
218
86
207
14
206
193
110
125
142
117
132
4
92
62
111
161
151
205
23
76
116
209
186
150
128
164
124
112
153
131
177
77
16
202
135
144
167
36
114
160
180
138
166
219
65
21
94
99
148
120
192
157
55
40
57
212
170
75
20
79
44
93
171
123
7
215
95
200
188
175
199
197
185
82
43
174
35
143
195
100
66
203
201
168
80
6
29
46
69
178
45
118
154
214
56
158
184
196
152
3
38
137
208
108
67
115
89
26
72
59
210
133
25
163
11
68
190
172
145
84
140
217
113
149
39
181
52
101
96
139
129
54
2
50
107
146
147
156
119
169
126
64
162
60
87
74
48
130
10
141
53
204
33
41
189
106
18
98
103
63
122
42
216
49
187
83
61
15
198
17
213
71
5
12
27
58
85
22
31
104
155
88
30
159
24
191
13
182
90
19
97
8
73
109
81
47
9
32
136
28
37
78

> <PUBCHEM_MMFF94_PARTIAL_CHARGES>
31
1 -0.14
10 -0.3
11 -0.51
12 0.36
13 0.36
17 -0.01
18 -0.14
19 -0.15
2 -0.14
20 0.12
21 -0.15
22 0.14
23 -0.15
24 0.57
25 0.36
26 0.62
27 0.15
28 0.38
29 0.15
3 1.45
4 -0.65
40 0.15
41 0.15
45 0.15
46 0.37
49 0.06
5 -0.65
6 -0.57
7 -0.57
8 -0.85
9 -0.55

> <PUBCHEM_EFFECTIVE_ROTOR_COUNT>
7.2

> <PUBCHEM_PHARMACOPHORE_FEATURES>
9
1 11 acceptor
1 4 acceptor
1 5 acceptor
1 6 acceptor
1 7 acceptor
1 9 donor
6 10 11 26 27 28 29 rings
6 17 18 19 20 21 23 rings
6 8 12 13 14 15 16 rings

> <PUBCHEM_HEAVY_ATOM_COUNT>
29

> <PUBCHEM_ATOM_DEF_STEREO_COUNT>
0

> <PUBCHEM_ATOM_UDEF_STEREO_COUNT>
0

> <PUBCHEM_BOND_DEF_STEREO_COUNT>
0

> <PUBCHEM_BOND_UDEF_STEREO_COUNT>
0

> <PUBCHEM_ISOTOPIC_ATOM_COUNT>
0

> <PUBCHEM_COMPONENT_COUNT>
1

> <PUBCHEM_CACTVS_TAUTO_COUNT>
2

> <PUBCHEM_CONFORMER_ID>
003BC19200000001

> <PUBCHEM_MMFF94_ENERGY>
69.3876

> <PUBCHEM_FEATURE_SELFOVERLAP>
45.692

> <PUBCHEM_SHAPE_FINGERPRINT>
10319688 67 18197755874330920040
11421498 54 17489595528055542088
12156800 1 17550913290124236410
12596602 18 17418376895802235793
13402501 40 18260557752877453915
13561361 72 17898865800892079355
1361 2 18411981398832174067
13692114 37 17985251114014078118
15001296 14 18269829969026459111
15483637 11 17906166605171273191
16067690 210 15482397452242577523
17138139 8 17627768023519192823
20028762 73 18201435861659154006
20645477 70 18409722958862360364
21033650 10 15864628337127516149
21197605 99 18195254540136436187
21304304 249 18335127680183577730
21623969 137 18409169943247091033
23516275 137 17273446999643860191
23559900 14 18186795911796318569
238 59 18335987488884788570
338550 245 18190462851345373236
3882209 13 17179929988206288739
463206 1 18411139182037685831
484989 97 18261689137885067418
5309563 4 18410008806400608469
59755656 215 18186516631515572217
86090 222 18188787135711625443

> <PUBCHEM_SHAPE_MULTIPOLES>
560.99
13.86
4.38
1.5
14.54
2.41
0.14
-0.92
-1.38
-4.25
0.41
1.73
0.72
0.57

> <PUBCHEM_SHAPE_SELFOVERLAP>
1155.094

> <PUBCHEM_SHAPE_VOLUME>
323.3

> <PUBCHEM_COORDINATE_TYPE>
2
5
10

$$$$
