17578497
  -OEChem-01171810063D

 44 47  0     1  0  0  0  0  0999 V2000
    4.1260    2.2745    0.6587 O   0  0  0  0  0  0  0  0  0  0  0  0
    5.8382    0.4322   -0.7504 O   0  0  0  0  0  0  0  0  0  0  0  0
   -2.5014   -0.1145    2.3357 O   0  0  0  0  0  0  0  0  0  0  0  0
    0.5253   -3.2347   -0.1069 O   0  0  0  0  0  0  0  0  0  0  0  0
   -1.8328   -2.0976   -1.8445 O   0  0  0  0  0  0  0  0  0  0  0  0
   -2.1424   -1.1602    0.2754 N   0  0  0  0  0  0  0  0  0  0  0  0
   -2.9909   -0.1456   -1.6841 N   0  0  0  0  0  0  0  0  0  0  0  0
    0.6393   -1.0135    0.6424 N   0  0  0  0  0  0  0  0  0  0  0  0
   -1.4133   -2.2416    0.9286 C   0  0  2  0  0  0  0  0  0  0  0  0
   -2.6419   -0.1461    1.1156 C   0  0  0  0  0  0  0  0  0  0  0  0
   -3.3797    0.9406    0.4428 C   0  0  0  0  0  0  0  0  0  0  0  0
    0.0225   -2.2395    0.4070 C   0  0  0  0  0  0  0  0  0  0  0  0
   -2.0821   -3.5831    0.6722 C   0  0  0  0  0  0  0  0  0  0  0  0
   -3.5322    0.9070   -0.9398 C   0  0  0  0  0  0  0  0  0  0  0  0
   -2.2877   -1.2014   -1.1283 C   0  0  0  0  0  0  0  0  0  0  0  0
    1.9597   -0.6324    0.3049 C   0  0  0  0  0  0  0  0  0  0  0  0
    3.7251    1.0143    0.2992 C   0  0  0  0  0  0  0  0  0  0  0  0
    4.5586    0.1176   -0.3739 C   0  0  0  0  0  0  0  0  0  0  0  0
    2.4200    0.6449    0.6257 C   0  0  0  0  0  0  0  0  0  0  0  0
   -3.9231    1.9970    1.1812 C   0  0  0  0  0  0  0  0  0  0  0  0
   -4.2273    1.9265   -1.5952 C   0  0  0  0  0  0  0  0  0  0  0  0
    2.8012   -1.5373   -0.3431 C   0  0  0  0  0  0  0  0  0  0  0  0
    5.5475    2.4204    0.5948 C   0  0  0  0  0  0  0  0  0  0  0  0
    6.0770    1.8416   -0.7027 C   0  0  0  0  0  0  0  0  0  0  0  0
    4.1019   -1.1641   -0.6822 C   0  0  0  0  0  0  0  0  0  0  0  0
   -4.6177    3.0151    0.5264 C   0  0  0  0  0  0  0  0  0  0  0  0
   -4.7699    2.9800   -0.8595 C   0  0  0  0  0  0  0  0  0  0  0  0
   -1.3629   -2.0886    2.0128 H   0  0  0  0  0  0  0  0  0  0  0  0
   -1.6135   -4.3590    1.2891 H   0  0  0  0  0  0  0  0  0  0  0  0
   -2.0108   -3.9300   -0.3623 H   0  0  0  0  0  0  0  0  0  0  0  0
   -3.1439   -3.5459    0.9400 H   0  0  0  0  0  0  0  0  0  0  0  0
   -3.1217   -0.1334   -2.6917 H   0  0  0  0  0  0  0  0  0  0  0  0
    0.0901   -0.2953    1.1089 H   0  0  0  0  0  0  0  0  0  0  0  0
    1.7703    1.3505    1.1383 H   0  0  0  0  0  0  0  0  0  0  0  0
   -3.8172    2.0453    2.2614 H   0  0  0  0  0  0  0  0  0  0  0  0
   -4.3525    1.9107   -2.6748 H   0  0  0  0  0  0  0  0  0  0  0  0
    2.5165   -2.5416   -0.6227 H   0  0  0  0  0  0  0  0  0  0  0  0
    5.9900    1.9260    1.4684 H   0  0  0  0  0  0  0  0  0  0  0  0
    5.7753    3.4892    0.6552 H   0  0  0  0  0  0  0  0  0  0  0  0
    5.6032    2.3068   -1.5760 H   0  0  0  0  0  0  0  0  0  0  0  0
    7.1576    1.9986   -0.7760 H   0  0  0  0  0  0  0  0  0  0  0  0
    4.7486   -1.8709   -1.1952 H   0  0  0  0  0  0  0  0  0  0  0  0
   -5.0408    3.8366    1.0974 H   0  0  0  0  0  0  0  0  0  0  0  0
   -5.3109    3.7738   -1.3662 H   0  0  0  0  0  0  0  0  0  0  0  0
  1 17  1  0  0  0  0
  1 23  1  0  0  0  0
  2 18  1  0  0  0  0
  2 24  1  0  0  0  0
  3 10  2  0  0  0  0
  4 12  2  0  0  0  0
  5 15  2  0  0  0  0
  6  9  1  0  0  0  0
  6 10  1  0  0  0  0
  6 15  1  0  0  0  0
  7 14  1  0  0  0  0
  7 15  1  0  0  0  0
  7 32  1  0  0  0  0
  8 12  1  0  0  0  0
  8 16  1  0  0  0  0
  8 33  1  0  0  0  0
  9 12  1  0  0  0  0
  9 13  1  0  0  0  0
  9 28  1  0  0  0  0
 10 11  1  0  0  0  0
 11 14  1  0  0  0  0
 11 20  2  0  0  0  0
 13 29  1  0  0  0  0
 13 30  1  0  0  0  0
 13 31  1  0  0  0  0
 14 21  2  0  0  0  0
 16 19  2  0  0  0  0
 16 22  1  0  0  0  0
 17 18  2  0  0  0  0
 17 19  1  0  0  0  0
 18 25  1  0  0  0  0
 19 34  1  0  0  0  0
 20 26  1  0  0  0  0
 20 35  1  0  0  0  0
 21 27  1  0  0  0  0
 21 36  1  0  0  0  0
 22 25  2  0  0  0  0
 22 37  1  0  0  0  0
 23 24  1  0  0  0  0
 23 38  1  0  0  0  0
 23 39  1  0  0  0  0
 24 40  1  0  0  0  0
 24 41  1  0  0  0  0
 25 42  1  0  0  0  0
 26 27  2  0  0  0  0
 26 43  1  0  0  0  0
 27 44  1  0  0  0  0
M  END
> <PUBCHEM_COMPOUND_CID>
17578497

> <PUBCHEM_CONFORMER_RMSD>
0.8

> <PUBCHEM_CONFORMER_DIVERSEORDER>
1
22
31
14
24
13
37
20
17
5
30
21
35
26
7
18
34
4
32
29
23
15
3
25
9
6
19
36
33
2
8
11
16
28
10
27
12

> <PUBCHEM_MMFF94_PARTIAL_CHARGES>
35
1 -0.36
10 0.54
11 0.09
12 0.57
14 0.12
15 0.69
16 0.12
17 0.08
18 0.08
19 -0.15
2 -0.36
20 -0.15
21 -0.15
22 -0.15
23 0.28
24 0.28
25 -0.15
26 -0.15
27 -0.15
3 -0.57
32 0.37
33 0.37
34 0.15
35 0.15
36 0.15
37 0.15
4 -0.57
42 0.15
43 0.15
44 0.15
5 -0.57
6 -0.42
7 -0.55
8 -0.55
9 0.36

> <PUBCHEM_EFFECTIVE_ROTOR_COUNT>
4.8

> <PUBCHEM_PHARMACOPHORE_FEATURES>
11
1 1 acceptor
1 2 acceptor
1 3 acceptor
1 4 acceptor
1 5 acceptor
1 7 donor
1 8 donor
6 1 2 17 18 23 24 rings
6 11 14 20 21 26 27 rings
6 16 17 18 19 22 25 rings
6 6 7 10 11 14 15 rings

> <PUBCHEM_HEAVY_ATOM_COUNT>
27

> <PUBCHEM_ATOM_DEF_STEREO_COUNT>
1

> <PUBCHEM_ATOM_UDEF_STEREO_COUNT>
0

> <PUBCHEM_BOND_DEF_STEREO_COUNT>
0

> <PUBCHEM_BOND_UDEF_STEREO_COUNT>
0

> <PUBCHEM_ISOTOPIC_ATOM_COUNT>
0

> <PUBCHEM_COMPONENT_COUNT>
1

> <PUBCHEM_CACTVS_TAUTO_COUNT>
6

> <PUBCHEM_CONFORMER_ID>
010C3A0100000001

> <PUBCHEM_MMFF94_ENERGY>
88.0219

> <PUBCHEM_FEATURE_SELFOVERLAP>
55.892

> <PUBCHEM_SHAPE_FINGERPRINT>
105312 117 18408044017733825566
10928967 22 9222957014582513456
10937287 8 18337947900974368251
12107183 9 18188193309755381962
12363563 72 11023811899479270963
12422481 6 17240480274157501300
12788726 201 18193818548424015403
13544653 18 9943515310850460435
13944108 23 17619630176858591797
14142880 1 18040148552709937463
14251764 38 18194963165729573980
14251764 75 18198348351562430713
14347329 18 18409726301064380648
14713325 29 18263649618087482515
14848178 5 10015567403183066037
14848178 96 18411695457263854152
14950920 106 14201408187216717828
15513586 35 16590857094407799052
16994733 274 16734918239722111327
17780758 139 11386356045906493436
18608769 82 18339643459927041683
18927931 339 9943541725321291416
20238998 120 17832707147352417059
21033648 144 17485365896461411680
21033648 29 18334295370628629096
21279426 13 18342751710985183734
21401589 2 18041000618291852857
21864079 5 18409162203673741474
22122407 14 17833841469531716201
22393880 68 17703223022814267030
22956985 138 15374312585836142170
23559900 14 9799417672380702162
255183 451 16980653831464437407
283562 15 18189893291833896635
2838139 119 18192143798808983053
376196 1 18412261744760623642
44062 13 11095891449442770371
469060 322 16588024666734278987
474 4 18121773938134812427
497634 4 16557354953502673591
508706 21 18337104691514777928
5104073 3 18040430006375232202
56633871 153 8430015586966187537
57724786 102 18041560235366183994
7288768 16 18040719156025756571
7808743 9 18334011713618394016

> <PUBCHEM_SHAPE_MULTIPOLES>
511.36
13.1
3.92
1.46
13.68
0.97
0.07
-13.75
1.96
-2.39
-0.24
-1.6
-0.03
0.74

> <PUBCHEM_SHAPE_SELFOVERLAP>
1128.961

> <PUBCHEM_SHAPE_VOLUME>
269.8

> <PUBCHEM_COORDINATE_TYPE>
2
5
10

$$$$
