16682602
  -OEChem-01171809533D

 54 56  0     1  0  0  0  0  0999 V2000
    1.9651   -2.5316    2.4307 F   0  0  0  0  0  0  0  0  0  0  0  0
    3.7799   -1.3566    2.6029 F   0  0  0  0  0  0  0  0  0  0  0  0
    1.8769   -0.5106    3.2286 F   0  0  0  0  0  0  0  0  0  0  0  0
    2.6931    2.8039   -2.3471 F   0  0  0  0  0  0  0  0  0  0  0  0
    2.4250    3.4193   -0.2847 F   0  0  0  0  0  0  0  0  0  0  0  0
    4.3189    2.5622   -0.9233 F   0  0  0  0  0  0  0  0  0  0  0  0
   -1.4376   -1.9886   -1.1166 N   0  0  0  0  0  0  0  0  0  0  0  0
   -2.3356   -3.3178    0.5022 N   0  0  0  0  0  0  0  0  0  0  0  0
   -1.8023   -4.2702   -1.6097 N   0  0  0  0  0  0  0  0  0  0  0  0
   -3.0788    1.0672    0.3958 C   0  0  0  0  0  0  0  0  0  0  0  0
   -2.9235   -0.1426   -0.5237 C   0  0  0  0  0  0  0  0  0  0  0  0
   -1.7629   -1.0184   -0.0935 C   0  0  1  0  0  0  0  0  0  0  0  0
   -4.5055    1.6271    0.3187 C   0  0  0  0  0  0  0  0  0  0  0  0
   -2.0477    2.1490    0.0470 C   0  0  0  0  0  0  0  0  0  0  0  0
   -4.6712    2.8704    1.1895 C   0  0  0  0  0  0  0  0  0  0  0  0
   -2.2174    3.3914    0.9184 C   0  0  0  0  0  0  0  0  0  0  0  0
   -3.6390    3.9399    0.8458 C   0  0  0  0  0  0  0  0  0  0  0  0
   -2.1487   -1.9499    1.0699 C   0  0  0  0  0  0  0  0  0  0  0  0
   -0.8662   -1.5961   -2.3813 C   0  0  0  0  0  0  0  0  0  0  0  0
   -1.8665   -3.2330   -0.7238 C   0  0  0  0  0  0  0  0  0  0  0  0
    0.6470   -1.8084   -2.3869 C   0  0  0  0  0  0  0  0  0  0  0  0
    1.3651   -0.9790   -1.3504 C   0  0  0  0  0  0  0  0  0  0  0  0
    1.8186    0.3000   -1.6731 C   0  0  0  0  0  0  0  0  0  0  0  0
    1.5746   -1.4907   -0.0698 C   0  0  0  0  0  0  0  0  0  0  0  0
    2.4817    1.0672   -0.7154 C   0  0  0  0  0  0  0  0  0  0  0  0
    2.2375   -0.7234    0.8880 C   0  0  0  0  0  0  0  0  0  0  0  0
    2.6911    0.5554    0.5652 C   0  0  0  0  0  0  0  0  0  0  0  0
    2.4613   -1.2708    2.2574 C   0  0  0  0  0  0  0  0  0  0  0  0
    2.9670    2.4346   -1.0608 C   0  0  0  0  0  0  0  0  0  0  0  0
   -2.9102    0.7579    1.4363 H   0  0  0  0  0  0  0  0  0  0  0  0
   -3.8465   -0.7386   -0.5228 H   0  0  0  0  0  0  0  0  0  0  0  0
   -2.8103    0.2076   -1.5561 H   0  0  0  0  0  0  0  0  0  0  0  0
   -0.8980   -0.4149    0.1842 H   0  0  0  0  0  0  0  0  0  0  0  0
   -4.7514    1.8784   -0.7210 H   0  0  0  0  0  0  0  0  0  0  0  0
   -5.2258    0.8656    0.6410 H   0  0  0  0  0  0  0  0  0  0  0  0
   -1.0269    1.7732    0.1737 H   0  0  0  0  0  0  0  0  0  0  0  0
   -2.1491    2.4370   -1.0073 H   0  0  0  0  0  0  0  0  0  0  0  0
   -5.6804    3.2778    1.0614 H   0  0  0  0  0  0  0  0  0  0  0  0
   -4.5707    2.5921    2.2458 H   0  0  0  0  0  0  0  0  0  0  0  0
   -1.9739    3.1431    1.9588 H   0  0  0  0  0  0  0  0  0  0  0  0
   -1.5081    4.1639    0.6004 H   0  0  0  0  0  0  0  0  0  0  0  0
   -3.8317    4.3215   -0.1645 H   0  0  0  0  0  0  0  0  0  0  0  0
   -3.7431    4.7874    1.5327 H   0  0  0  0  0  0  0  0  0  0  0  0
   -1.3391   -1.9951    1.8080 H   0  0  0  0  0  0  0  0  0  0  0  0
   -3.0601   -1.6375    1.5892 H   0  0  0  0  0  0  0  0  0  0  0  0
   -1.3238   -2.1539   -3.2059 H   0  0  0  0  0  0  0  0  0  0  0  0
   -1.0712   -0.5399   -2.5908 H   0  0  0  0  0  0  0  0  0  0  0  0
    1.0425   -1.5657   -3.3815 H   0  0  0  0  0  0  0  0  0  0  0  0
    0.8826   -2.8687   -2.2274 H   0  0  0  0  0  0  0  0  0  0  0  0
   -1.3999   -4.1731   -2.5345 H   0  0  0  0  0  0  0  0  0  0  0  0
   -2.1226   -5.1964   -1.3476 H   0  0  0  0  0  0  0  0  0  0  0  0
    1.6493    0.6934   -2.6723 H   0  0  0  0  0  0  0  0  0  0  0  0
    1.2239   -2.4899    0.1755 H   0  0  0  0  0  0  0  0  0  0  0  0
    3.2078    1.1537    1.3120 H   0  0  0  0  0  0  0  0  0  0  0  0
  1 28  1  0  0  0  0
  2 28  1  0  0  0  0
  3 28  1  0  0  0  0
  4 29  1  0  0  0  0
  5 29  1  0  0  0  0
  6 29  1  0  0  0  0
  7 12  1  0  0  0  0
  7 19  1  0  0  0  0
  7 20  1  0  0  0  0
  8 18  1  0  0  0  0
  8 20  2  0  0  0  0
  9 20  1  0  0  0  0
  9 50  1  0  0  0  0
  9 51  1  0  0  0  0
 10 11  1  0  0  0  0
 10 13  1  0  0  0  0
 10 14  1  0  0  0  0
 10 30  1  0  0  0  0
 11 12  1  0  0  0  0
 11 31  1  0  0  0  0
 11 32  1  0  0  0  0
 12 18  1  0  0  0  0
 12 33  1  0  0  0  0
 13 15  1  0  0  0  0
 13 34  1  0  0  0  0
 13 35  1  0  0  0  0
 14 16  1  0  0  0  0
 14 36  1  0  0  0  0
 14 37  1  0  0  0  0
 15 17  1  0  0  0  0
 15 38  1  0  0  0  0
 15 39  1  0  0  0  0
 16 17  1  0  0  0  0
 16 40  1  0  0  0  0
 16 41  1  0  0  0  0
 17 42  1  0  0  0  0
 17 43  1  0  0  0  0
 18 44  1  0  0  0  0
 18 45  1  0  0  0  0
 19 21  1  0  0  0  0
 19 46  1  0  0  0  0
 19 47  1  0  0  0  0
 21 22  1  0  0  0  0
 21 48  1  0  0  0  0
 21 49  1  0  0  0  0
 22 23  2  0  0  0  0
 22 24  1  0  0  0  0
 23 25  1  0  0  0  0
 23 52  1  0  0  0  0
 24 26  2  0  0  0  0
 24 53  1  0  0  0  0
 25 27  2  0  0  0  0
 25 29  1  0  0  0  0
 26 27  1  0  0  0  0
 26 28  1  0  0  0  0
 27 54  1  0  0  0  0
M  END
> <PUBCHEM_COMPOUND_CID>
16682602

> <PUBCHEM_CONFORMER_RMSD>
1

> <PUBCHEM_CONFORMER_DIVERSEORDER>
1
39
46
52
48
47
54
13
50
38
33
21
41
18
26
19
6
17
56
24
9
22
35
44
3
20
43
51
55
7
10
27
28
53
25
16
31
32
45
8
49
15
40
11
4
36
23
12
14
37
29
34
30
5
42
2

> <PUBCHEM_MMFF94_PARTIAL_CHARGES>
27
1 -0.34
12 0.37
18 0.25
19 0.37
2 -0.34
20 0.55
21 0.14
22 -0.14
23 -0.15
24 -0.15
25 -0.14
26 -0.14
27 -0.15
28 1.16
29 1.16
3 -0.34
4 -0.34
5 -0.34
50 0.4
51 0.4
52 0.15
53 0.15
54 0.15
6 -0.34
7 -0.79
8 -0.7
9 -0.85

> <PUBCHEM_EFFECTIVE_ROTOR_COUNT>
8.8

> <PUBCHEM_PHARMACOPHORE_FEATURES>
5
1 9 donor
4 7 8 9 20 cation
5 7 8 12 18 20 rings
6 10 13 14 15 16 17 rings
6 22 23 24 25 26 27 rings

> <PUBCHEM_HEAVY_ATOM_COUNT>
29

> <PUBCHEM_ATOM_DEF_STEREO_COUNT>
1

> <PUBCHEM_ATOM_UDEF_STEREO_COUNT>
0

> <PUBCHEM_BOND_DEF_STEREO_COUNT>
0

> <PUBCHEM_BOND_UDEF_STEREO_COUNT>
0

> <PUBCHEM_ISOTOPIC_ATOM_COUNT>
0

> <PUBCHEM_COMPONENT_COUNT>
1

> <PUBCHEM_CACTVS_TAUTO_COUNT>
2

> <PUBCHEM_CONFORMER_ID>
00FE8E6A00000001

> <PUBCHEM_MMFF94_ENERGY>
54.1337

> <PUBCHEM_FEATURE_SELFOVERLAP>
25.373

> <PUBCHEM_SHAPE_FINGERPRINT>
10006869 2 18335710485528579179
10032420 55 17612860913541731189
10165383 225 16914007916797148535
11421498 54 17976537531360706322
11763715 3 17336985702397103086
12633257 1 18261669255805948109
12788726 201 18267862968620921191
13583140 156 17530971267738293921
13726171 33 18128838492984559529
13965767 371 18042135271168023669
14787075 74 17035289718723922678
17921350 177 18119836649532222721
17974551 9 17024043566108141033
17980427 23 18197475390652844944
21033648 29 17843946066783499266
23559900 14 17766573356686523653
238 59 17698185966715893975
392239 28 17321280333707411563
474 4 18126013659261365173
550186 83 15589393969452314524
57527306 92 17618501429313689869
5895379 119 18341611482128509792
7097593 13 18187916245076827578

> <PUBCHEM_SHAPE_MULTIPOLES>
538.22
7.46
5.31
2.52
6.03
0.7
1.14
-7.52
2.78
1.88
-1.78
-3.15
0.91
-2.49

> <PUBCHEM_SHAPE_SELFOVERLAP>
1136.594

> <PUBCHEM_SHAPE_VOLUME>
304.6

> <PUBCHEM_COORDINATE_TYPE>
2
5
10

$$$$
