3759801
  -OEChem-01171809343D

 44 47  0     1  0  0  0  0  0999 V2000
    3.3850    5.3393   -0.6906 Br  0  0  0  0  0  0  0  0  0  0  0  0
   -2.0604   -1.9640   -0.5650 S   0  0  0  0  0  0  0  0  0  0  0  0
    4.5451   -3.0032    0.8217 O   0  0  0  0  0  0  0  0  0  0  0  0
    3.2547   -2.1212   -1.6635 O   0  0  0  0  0  0  0  0  0  0  0  0
   -2.0948   -2.9315    0.5173 O   0  0  0  0  0  0  0  0  0  0  0  0
   -2.2894   -2.3876   -1.9350 O   0  0  0  0  0  0  0  0  0  0  0  0
   -0.6213   -1.0681   -0.4822 N   0  0  2  0  0  0  0  0  0  0  0  0
    0.5685   -1.7655   -0.9974 N   0  0  0  0  0  0  0  0  0  0  0  0
    1.2492   -0.2895    0.7570 C   0  0  1  0  0  0  0  0  0  0  0  0
   -0.2805   -0.4039    0.8063 C   0  0  0  0  0  0  0  0  0  0  0  0
    1.5547   -1.3077   -0.3000 C   0  0  0  0  0  0  0  0  0  0  0  0
    3.8638   -1.7688    0.6494 C   0  0  1  0  0  0  0  0  0  0  0  0
    2.9414   -1.7687   -0.5333 C   0  0  0  0  0  0  0  0  0  0  0  0
    3.5775   -2.6416    1.8157 C   0  0  0  0  0  0  0  0  0  0  0  0
    1.7692    1.0850    0.4039 C   0  0  0  0  0  0  0  0  0  0  0  0
   -3.2455   -0.7069   -0.1899 C   0  0  0  0  0  0  0  0  0  0  0  0
    2.1541    1.9670    1.4142 C   0  0  0  0  0  0  0  0  0  0  0  0
    1.8664    1.4725   -0.9330 C   0  0  0  0  0  0  0  0  0  0  0  0
    2.6356    3.2348    1.0881 C   0  0  0  0  0  0  0  0  0  0  0  0
    2.3478    2.7404   -1.2591 C   0  0  0  0  0  0  0  0  0  0  0  0
   -4.0617   -0.8568    0.9176 C   0  0  0  0  0  0  0  0  0  0  0  0
   -3.3336    0.4043   -1.0100 C   0  0  0  0  0  0  0  0  0  0  0  0
    2.7323    3.6215   -0.2486 C   0  0  0  0  0  0  0  0  0  0  0  0
   -4.9954    0.1359    1.2145 C   0  0  0  0  0  0  0  0  0  0  0  0
   -4.2674    1.3971   -0.7132 C   0  0  0  0  0  0  0  0  0  0  0  0
   -5.0983    1.2629    0.3991 C   0  0  0  0  0  0  0  0  0  0  0  0
   -6.0970    2.3244    0.7160 C   0  0  0  0  0  0  0  0  0  0  0  0
    1.6667   -0.6057    1.7184 H   0  0  0  0  0  0  0  0  0  0  0  0
   -0.5744   -1.0402    1.6484 H   0  0  0  0  0  0  0  0  0  0  0  0
   -0.7780    0.5662    0.8927 H   0  0  0  0  0  0  0  0  0  0  0  0
    4.4368   -0.8631    0.8032 H   0  0  0  0  0  0  0  0  0  0  0  0
    3.9484   -2.3369    2.7859 H   0  0  0  0  0  0  0  0  0  0  0  0
    2.6553   -3.2074    1.8420 H   0  0  0  0  0  0  0  0  0  0  0  0
    2.0819    1.6777    2.4592 H   0  0  0  0  0  0  0  0  0  0  0  0
    1.5617    0.8205   -1.7461 H   0  0  0  0  0  0  0  0  0  0  0  0
    2.9308    3.9095    1.8876 H   0  0  0  0  0  0  0  0  0  0  0  0
    2.4138    3.0277   -2.3054 H   0  0  0  0  0  0  0  0  0  0  0  0
   -4.0034   -1.7245    1.5668 H   0  0  0  0  0  0  0  0  0  0  0  0
   -2.6931    0.5192   -1.8795 H   0  0  0  0  0  0  0  0  0  0  0  0
   -5.6388    0.0191    2.0827 H   0  0  0  0  0  0  0  0  0  0  0  0
   -4.3393    2.2695   -1.3572 H   0  0  0  0  0  0  0  0  0  0  0  0
   -7.0451    2.1103    0.2127 H   0  0  0  0  0  0  0  0  0  0  0  0
   -6.2783    2.3871    1.7944 H   0  0  0  0  0  0  0  0  0  0  0  0
   -5.7425    3.3092    0.3932 H   0  0  0  0  0  0  0  0  0  0  0  0
  1 23  1  0  0  0  0
  2  5  2  0  0  0  0
  2  6  2  0  0  0  0
  2  7  1  0  0  0  0
  2 16  1  0  0  0  0
  3 12  1  0  0  0  0
  3 14  1  0  0  0  0
  4 13  2  0  0  0  0
  7  8  1  0  0  0  0
  7 10  1  0  0  0  0
  8 11  2  0  0  0  0
  9 10  1  0  0  0  0
  9 11  1  0  0  0  0
  9 15  1  0  0  0  0
  9 28  1  0  0  0  0
 10 29  1  0  0  0  0
 10 30  1  0  0  0  0
 11 13  1  0  0  0  0
 12 13  1  0  0  0  0
 12 14  1  0  0  0  0
 12 31  1  0  0  0  0
 14 32  1  0  0  0  0
 14 33  1  0  0  0  0
 15 17  2  0  0  0  0
 15 18  1  0  0  0  0
 16 21  2  0  0  0  0
 16 22  1  0  0  0  0
 17 19  1  0  0  0  0
 17 34  1  0  0  0  0
 18 20  2  0  0  0  0
 18 35  1  0  0  0  0
 19 23  2  0  0  0  0
 19 36  1  0  0  0  0
 20 23  1  0  0  0  0
 20 37  1  0  0  0  0
 21 24  1  0  0  0  0
 21 38  1  0  0  0  0
 22 25  2  0  0  0  0
 22 39  1  0  0  0  0
 24 26  2  0  0  0  0
 24 40  1  0  0  0  0
 25 26  1  0  0  0  0
 25 41  1  0  0  0  0
 26 27  1  0  0  0  0
 27 42  1  0  0  0  0
 27 43  1  0  0  0  0
 27 44  1  0  0  0  0
M  END
> <PUBCHEM_COMPOUND_CID>
3759801

> <PUBCHEM_CONFORMER_RMSD>
0.8

> <PUBCHEM_CONFORMER_DIVERSEORDER>
1
90
54
102
101
72
62
84
15
37
76
44
10
121
36
23
75
24
58
25
12
117
98
60
67
59
53
50
114
87
105
78
13
27
116
71
99
63
103
120
92
119
93
45
43
82
22
79
89
81
115
94
70
52
109
17
80
38
61
47
73
57
104
100
39
108
91
7
18
110
113
35
111
34
14
69
96
30
77
118
20
3
66
88
49
29
46
107
32
106
95
83
51
56
86
31
68
33
97
28
65
64
19
112
85
42
4
48
41
8
21
11
9
55
26
16
74
40
2
5
6

> <PUBCHEM_MMFF94_PARTIAL_CHARGES>
38
1 -0.11
10 0.36
11 0.39
12 0.05
13 0.57
14 -0.05
15 -0.14
16 -0.01
17 -0.15
18 -0.15
19 -0.15
2 1.45
20 -0.15
21 -0.15
22 -0.15
23 0.11
24 -0.15
25 -0.15
26 -0.14
27 0.14
3 -0.3
31 0.1
32 0.1
33 0.1
34 0.15
35 0.15
36 0.15
37 0.15
38 0.15
39 0.15
4 -0.57
40 0.15
41 0.15
5 -0.65
6 -0.65
7 -0.51
8 -0.43
9 0.2

> <PUBCHEM_EFFECTIVE_ROTOR_COUNT>
6.2

> <PUBCHEM_PHARMACOPHORE_FEATURES>
9
1 1 hydrophobe
1 3 acceptor
1 4 acceptor
1 5 acceptor
1 6 acceptor
1 8 acceptor
5 7 8 9 10 11 rings
6 15 17 18 19 20 23 rings
6 16 21 22 24 25 26 rings

> <PUBCHEM_HEAVY_ATOM_COUNT>
27

> <PUBCHEM_ATOM_DEF_STEREO_COUNT>
0

> <PUBCHEM_ATOM_UDEF_STEREO_COUNT>
2

> <PUBCHEM_BOND_DEF_STEREO_COUNT>
0

> <PUBCHEM_BOND_UDEF_STEREO_COUNT>
0

> <PUBCHEM_ISOTOPIC_ATOM_COUNT>
0

> <PUBCHEM_COMPONENT_COUNT>
1

> <PUBCHEM_CACTVS_TAUTO_COUNT>
2

> <PUBCHEM_CONFORMER_ID>
00395EB900000001

> <PUBCHEM_MMFF94_ENERGY>
56.968

> <PUBCHEM_FEATURE_SELFOVERLAP>
45.697

> <PUBCHEM_SHAPE_FINGERPRINT>
10439779 11 18052252887310134593
10670039 82 17906736160726497108
10675989 125 15957508203331676181
11405975 8 18408324376420115691
11578080 2 17097244776893051938
11582403 64 14975699836700803576
12107698 1 18263361409218827257
12403260 363 18342444951219990639
12422481 6 18120903258096344728
12549972 3 17677070017207315545
12633257 1 18340484465862693887
12788726 201 17829041023271259562
13004483 165 18122052110239994338
13140716 1 18411978079018113731
133893 2 18049691252703041998
13540713 5 18200584934164249575
13583140 156 18187656803330169443
13590594 115 18264486178964033384
14022347 108 18196947573611487358
14466204 15 18049720720420425083
14713325 29 17687471573220711003
14790565 3 17977103788655762440
14955137 171 18265055734387375250
15042514 8 17760362193857328642
15163728 17 17903089055119241692
151778 21 18341902908929768277
15238133 3 18190468164114884099
15295992 7 18260839176562606707
15420108 30 17986934423529852710
15463212 79 17474378558069140624
15664445 248 18341343189113838686
17868525 174 18263077738701386689
17980427 23 17916280841036465662
18785283 64 18410576201386256926
20286276 3 18337394958094845435
20600515 1 18270114596498751682
20642791 178 18339639066248948066
20642791 239 18265922236134489924
20739085 24 18342171134085260898
21033648 29 17557963079550833667
21304253 335 17560509617015577274
23366157 5 18262789791694387250
23558518 356 18267009725759343047
23559900 14 17918281943487894006
244849 19 17750537198116094936
340366 18 18272367542794288119
345986 75 17317592189883341610
376196 1 17555461978883223572
4409770 3 17467894291206989366
5104073 3 18409739465328488699
5252454 2 18057332892849430265
57527293 21 18270135629513153099
57724786 102 18411705378949843177
5895379 119 17130166224807724849
6086070 43 17972011697082965263
7399639 24 17757006853330622075
7495541 125 18113909221170470611
7808743 9 17979641452580877529
79837 15 17540251373515057442
81228 2 17910966742610445410
9841814 1 18335980883478502786
9971528 1 17631450072991008430
9981440 41 17830730216253705488

> <PUBCHEM_SHAPE_MULTIPOLES>
532
10.9
5.51
1.49
13.37
4.64
0.06
4.83
-2.23
-8.52
0.33
-0.36
-0.4
-1.66

> <PUBCHEM_SHAPE_SELFOVERLAP>
1121.299

> <PUBCHEM_SHAPE_VOLUME>
305.2

> <PUBCHEM_COORDINATE_TYPE>
2
5
10

$$$$
