1936948
  -OEChem-01171809413D

 48 51  0     0  0  0  0  0  0999 V2000
   -2.4017    2.3077    0.5901 S   0  0  0  0  0  0  0  0  0  0  0  0
    4.4187   -3.2856    0.2431 O   0  0  0  0  0  0  0  0  0  0  0  0
   -3.7273   -0.3469    2.3804 O   0  0  0  0  0  0  0  0  0  0  0  0
   -0.2515    3.7271   -0.0797 N   0  0  0  0  0  0  0  0  0  0  0  0
   -0.4957   -1.0563    0.8111 N   0  0  0  0  0  0  0  0  0  0  0  0
    1.6502    4.9834   -0.6704 N   0  0  0  0  0  0  0  0  0  0  0  0
    4.4317    2.8295   -0.8331 N   0  0  0  0  0  0  0  0  0  0  0  0
   -0.0325    1.3193    0.3026 C   0  0  0  0  0  0  0  0  0  0  0  0
    1.3472    1.3883    0.0214 C   0  0  0  0  0  0  0  0  0  0  0  0
   -0.8923    0.2323    0.6620 C   0  0  0  0  0  0  0  0  0  0  0  0
   -0.7467    2.5108    0.2315 C   0  0  0  0  0  0  0  0  0  0  0  0
    2.1426    0.1783    0.0787 C   0  0  0  0  0  0  0  0  0  0  0  0
   -2.1984    0.6296    0.8466 C   0  0  0  0  0  0  0  0  0  0  0  0
    1.9038    2.6210   -0.3047 C   0  0  0  0  0  0  0  0  0  0  0  0
    1.0738    3.7274   -0.3381 C   0  0  0  0  0  0  0  0  0  0  0  0
    2.7527   -0.1960    1.2742 C   0  0  0  0  0  0  0  0  0  0  0  0
    2.2949   -0.6078   -1.0620 C   0  0  0  0  0  0  0  0  0  0  0  0
   -3.3418   -0.1476    1.2077 C   0  0  0  0  0  0  0  0  0  0  0  0
    3.5182   -1.3607    1.3295 C   0  0  0  0  0  0  0  0  0  0  0  0
    3.0603   -1.7727   -1.0068 C   0  0  0  0  0  0  0  0  0  0  0  0
    3.6719   -2.1492    0.1891 C   0  0  0  0  0  0  0  0  0  0  0  0
   -4.2088   -0.7921    0.1675 C   0  0  0  0  0  0  0  0  0  0  0  0
    3.3045    2.7365   -0.5975 C   0  0  0  0  0  0  0  0  0  0  0  0
   -3.8700   -0.6331   -1.1533 C   0  0  0  0  0  0  0  0  0  0  0  0
   -5.3012   -1.5117    0.5838 C   0  0  0  0  0  0  0  0  0  0  0  0
   -4.6762   -1.2326   -2.1208 C   0  0  0  0  0  0  0  0  0  0  0  0
   -6.1073   -2.1112   -0.3839 C   0  0  0  0  0  0  0  0  0  0  0  0
    4.0493   -4.3479   -0.6350 C   0  0  0  0  0  0  0  0  0  0  0  0
   -5.7948   -1.9716   -1.7362 C   0  0  0  0  0  0  0  0  0  0  0  0
    4.4264   -5.6682    0.0023 C   0  0  0  0  0  0  0  0  0  0  0  0
    2.6421    0.4070    2.1723 H   0  0  0  0  0  0  0  0  0  0  0  0
    1.8288   -0.3249   -2.0029 H   0  0  0  0  0  0  0  0  0  0  0  0
    0.4485   -1.3945    0.6863 H   0  0  0  0  0  0  0  0  0  0  0  0
   -1.1512   -1.7900    1.0665 H   0  0  0  0  0  0  0  0  0  0  0  0
    3.9918   -1.6493    2.2639 H   0  0  0  0  0  0  0  0  0  0  0  0
    3.1771   -2.3428   -1.9236 H   0  0  0  0  0  0  0  0  0  0  0  0
    1.0185    5.7756   -0.6753 H   0  0  0  0  0  0  0  0  0  0  0  0
    2.4244    5.0047   -1.3225 H   0  0  0  0  0  0  0  0  0  0  0  0
   -3.0079   -0.0713   -1.4942 H   0  0  0  0  0  0  0  0  0  0  0  0
   -5.5696   -1.6379    1.6276 H   0  0  0  0  0  0  0  0  0  0  0  0
   -4.4327   -1.1252   -3.1739 H   0  0  0  0  0  0  0  0  0  0  0  0
   -6.9785   -2.6869   -0.0850 H   0  0  0  0  0  0  0  0  0  0  0  0
    4.5807   -4.2301   -1.5858 H   0  0  0  0  0  0  0  0  0  0  0  0
    2.9677   -4.3685   -0.8184 H   0  0  0  0  0  0  0  0  0  0  0  0
   -6.4223   -2.4387   -2.4896 H   0  0  0  0  0  0  0  0  0  0  0  0
    3.9130   -5.7942    0.9613 H   0  0  0  0  0  0  0  0  0  0  0  0
    5.5009   -5.7030    0.2101 H   0  0  0  0  0  0  0  0  0  0  0  0
    4.1664   -6.5066   -0.6501 H   0  0  0  0  0  0  0  0  0  0  0  0
  1 11  1  0  0  0  0
  1 13  1  0  0  0  0
  2 21  1  0  0  0  0
  2 28  1  0  0  0  0
  3 18  2  0  0  0  0
  4 11  1  0  0  0  0
  4 15  2  0  0  0  0
  5 10  1  0  0  0  0
  5 33  1  0  0  0  0
  5 34  1  0  0  0  0
  6 15  1  0  0  0  0
  6 37  1  0  0  0  0
  6 38  1  0  0  0  0
  7 23  3  0  0  0  0
  8  9  1  0  0  0  0
  8 10  1  0  0  0  0
  8 11  2  0  0  0  0
  9 12  1  0  0  0  0
  9 14  2  0  0  0  0
 10 13  2  0  0  0  0
 12 16  2  0  0  0  0
 12 17  1  0  0  0  0
 13 18  1  0  0  0  0
 14 15  1  0  0  0  0
 14 23  1  0  0  0  0
 16 19  1  0  0  0  0
 16 31  1  0  0  0  0
 17 20  2  0  0  0  0
 17 32  1  0  0  0  0
 18 22  1  0  0  0  0
 19 21  2  0  0  0  0
 19 35  1  0  0  0  0
 20 21  1  0  0  0  0
 20 36  1  0  0  0  0
 22 24  2  0  0  0  0
 22 25  1  0  0  0  0
 24 26  1  0  0  0  0
 24 39  1  0  0  0  0
 25 27  2  0  0  0  0
 25 40  1  0  0  0  0
 26 29  2  0  0  0  0
 26 41  1  0  0  0  0
 27 29  1  0  0  0  0
 27 42  1  0  0  0  0
 28 30  1  0  0  0  0
 28 43  1  0  0  0  0
 28 44  1  0  0  0  0
 29 45  1  0  0  0  0
 30 46  1  0  0  0  0
 30 47  1  0  0  0  0
 30 48  1  0  0  0  0
M  END
> <PUBCHEM_COMPOUND_CID>
1936948

> <PUBCHEM_CONFORMER_RMSD>
0.8

> <PUBCHEM_CONFORMER_DIVERSEORDER>
1
2

> <PUBCHEM_MMFF94_PARTIAL_CHARGES>
39
1 -0.08
10 0.08
11 0.3
13 -0.05
14 0.07
15 0.41
16 -0.15
17 -0.15
18 0.57
19 -0.15
2 -0.36
20 -0.15
21 0.08
22 0.09
23 0.48
24 -0.15
25 -0.15
26 -0.15
27 -0.15
28 0.28
29 -0.15
3 -0.57
31 0.15
32 0.15
33 0.4
34 0.4
35 0.15
36 0.15
37 0.4
38 0.4
39 0.15
4 -0.57
40 0.15
41 0.15
42 0.15
45 0.15
5 -0.88
6 -0.9
7 -0.56

> <PUBCHEM_EFFECTIVE_ROTOR_COUNT>
5

> <PUBCHEM_PHARMACOPHORE_FEATURES>
11
1 2 acceptor
1 3 acceptor
1 5 cation
1 5 donor
1 6 donor
1 7 acceptor
3 4 6 15 cation
5 1 8 10 11 13 rings
6 12 16 17 19 20 21 rings
6 22 24 25 26 27 29 rings
6 4 8 9 11 14 15 rings

> <PUBCHEM_HEAVY_ATOM_COUNT>
30

> <PUBCHEM_ATOM_DEF_STEREO_COUNT>
0

> <PUBCHEM_ATOM_UDEF_STEREO_COUNT>
0

> <PUBCHEM_BOND_DEF_STEREO_COUNT>
0

> <PUBCHEM_BOND_UDEF_STEREO_COUNT>
0

> <PUBCHEM_ISOTOPIC_ATOM_COUNT>
0

> <PUBCHEM_COMPONENT_COUNT>
1

> <PUBCHEM_CACTVS_TAUTO_COUNT>
11

> <PUBCHEM_CONFORMER_ID>
001D8E3400000001

> <PUBCHEM_MMFF94_ENERGY>
107.6273

> <PUBCHEM_FEATURE_SELFOVERLAP>
55.898

> <PUBCHEM_SHAPE_FINGERPRINT>
10622 236 18201991145512683367
10693767 8 18200605799394377300
11069576 57 18338231673457629637
11103572 155 18051972813248175879
11135609 149 18337936931490543391
11135926 11 18191597547292723992
11578080 2 16950841380940900316
11991303 11 17179413686156550292
12107183 9 18198920119441926425
12236239 1 17558001799287914681
12422481 6 17346038853622871759
12553582 1 18337405858668478050
13140716 1 18192446181375774216
13540713 5 18340783562753084329
13690498 29 17835822806654268670
13782708 43 17895757422182442891
13911987 19 17756441700106918333
14114206 34 17460327546357456136
1454969 45 18411414047355036304
14844126 61 17687474459771199402
15183329 4 18129942403871389581
16989713 51 17909829839304047734
17134984 74 17910098450721259847
17138139 8 17054701536683024271
17492 89 18411982438425593923
17818456 19 17845111601234352257
1813 80 18343305855548850775
18393751 57 17982981705229885496
19315092 285 17703781531228718618
19319366 153 17983289627739595461
20028762 73 18127697239239091604
20645477 70 18261390113249472545
21133410 171 17248039313261777363
21133410 58 18339345441085356999
21285901 2 17677595614141847701
23559900 14 18048598110917759216
23569914 152 17906978866008717703
25222932 49 17767689726071570887
5081480 168 16588320349488893623
5223283 242 17969202500914418197
5265222 85 15817932899051296062
56633871 153 18125732179741546867
57527293 21 17986398797762976430
59682541 52 18195506299230672487
613672 6 18334287639413391530
6700243 42 17339874901617442758
70251023 43 18409728435177570139
7970288 3 18411699855369147443

> <PUBCHEM_SHAPE_MULTIPOLES>
589.57
11.94
6.3
1.46
11.69
0.98
0.03
14.75
-2.4
-10.46
-1.59
1.48
0.46
-1.83

> <PUBCHEM_SHAPE_SELFOVERLAP>
1302.344

> <PUBCHEM_SHAPE_VOLUME>
319.2

> <PUBCHEM_COORDINATE_TYPE>
2
5
10

$$$$
