1312356
  -OEChem-01171809233D

 58 62  0     0  0  0  0  0  0999 V2000
    3.3361    2.9196   -0.0331 O   0  0  0  0  0  0  0  0  0  0  0  0
    0.5003    1.1235    0.6128 N   0  0  0  0  0  0  0  0  0  0  0  0
   -3.3623    1.0601   -0.3887 N   0  0  0  0  0  0  0  0  0  0  0  0
   -1.5096    2.4123    0.4055 N   0  0  0  0  0  0  0  0  0  0  0  0
   -3.0671   -1.3154   -0.9304 N   0  0  0  0  0  0  0  0  0  0  0  0
   -1.2792    0.0022   -0.1258 C   0  0  0  0  0  0  0  0  0  0  0  0
   -0.1808   -0.8897   -0.0612 C   0  0  0  0  0  0  0  0  0  0  0  0
    0.9033   -0.1706    0.3979 C   0  0  0  0  0  0  0  0  0  0  0  0
   -0.8253    1.2431    0.2979 C   0  0  0  0  0  0  0  0  0  0  0  0
   -2.6703   -0.1565   -0.5275 C   0  0  0  0  0  0  0  0  0  0  0  0
   -4.7857    1.0949   -0.7365 C   0  0  0  0  0  0  0  0  0  0  0  0
    1.3396    2.2015    1.0950 C   0  0  0  0  0  0  0  0  0  0  0  0
   -5.6872    0.7870    0.4643 C   0  0  0  0  0  0  0  0  0  0  0  0
   -0.1115   -2.2875   -0.3891 C   0  0  0  0  0  0  0  0  0  0  0  0
    2.2655   -0.6037    0.6426 C   0  0  0  0  0  0  0  0  0  0  0  0
   -2.7516    2.2451    0.0487 C   0  0  0  0  0  0  0  0  0  0  0  0
    1.9924    2.9276   -0.0486 C   0  0  0  0  0  0  0  0  0  0  0  0
   -5.4292   -0.6156    1.0190 C   0  0  0  0  0  0  0  0  0  0  0  0
   -5.4722    1.8296    1.5621 C   0  0  0  0  0  0  0  0  0  0  0  0
    0.2173   -2.6832   -1.6849 C   0  0  0  0  0  0  0  0  0  0  0  0
   -0.3739   -3.2458    0.5891 C   0  0  0  0  0  0  0  0  0  0  0  0
    3.2076   -0.5274   -0.3779 C   0  0  0  0  0  0  0  0  0  0  0  0
    2.6190   -1.0933    1.8959 C   0  0  0  0  0  0  0  0  0  0  0  0
    1.4814    3.5977   -1.1061 C   0  0  0  0  0  0  0  0  0  0  0  0
    0.2839   -4.0397   -2.0030 C   0  0  0  0  0  0  0  0  0  0  0  0
   -0.3070   -4.6023    0.2711 C   0  0  0  0  0  0  0  0  0  0  0  0
    4.5176   -0.9449   -0.1426 C   0  0  0  0  0  0  0  0  0  0  0  0
    3.9290   -1.5106    2.1312 C   0  0  0  0  0  0  0  0  0  0  0  0
    0.0220   -4.9992   -1.0251 C   0  0  0  0  0  0  0  0  0  0  0  0
    4.8784   -1.4364    1.1120 C   0  0  0  0  0  0  0  0  0  0  0  0
    2.6077    4.0580   -1.8290 C   0  0  0  0  0  0  0  0  0  0  0  0
    3.7118    3.6196   -1.1357 C   0  0  0  0  0  0  0  0  0  0  0  0
   -5.0091    0.4103   -1.5630 H   0  0  0  0  0  0  0  0  0  0  0  0
   -5.0417    2.0870   -1.1327 H   0  0  0  0  0  0  0  0  0  0  0  0
    2.0804    1.7994    1.7929 H   0  0  0  0  0  0  0  0  0  0  0  0
    0.7170    2.8963    1.6698 H   0  0  0  0  0  0  0  0  0  0  0  0
   -6.7310    0.8435    0.1315 H   0  0  0  0  0  0  0  0  0  0  0  0
   -3.4332    3.1106    0.0657 H   0  0  0  0  0  0  0  0  0  0  0  0
   -4.4286   -0.7267    1.4461 H   0  0  0  0  0  0  0  0  0  0  0  0
   -5.5891   -1.3805    0.2539 H   0  0  0  0  0  0  0  0  0  0  0  0
   -6.1391   -0.8277    1.8273 H   0  0  0  0  0  0  0  0  0  0  0  0
   -6.2233    1.6996    2.3498 H   0  0  0  0  0  0  0  0  0  0  0  0
   -5.5863    2.8467    1.1734 H   0  0  0  0  0  0  0  0  0  0  0  0
   -4.4932    1.7397    2.0427 H   0  0  0  0  0  0  0  0  0  0  0  0
    0.4242   -1.9479   -2.4590 H   0  0  0  0  0  0  0  0  0  0  0  0
   -0.6323   -2.9531    1.6041 H   0  0  0  0  0  0  0  0  0  0  0  0
    2.9413   -0.1470   -1.3611 H   0  0  0  0  0  0  0  0  0  0  0  0
    1.8899   -1.1571    2.6999 H   0  0  0  0  0  0  0  0  0  0  0  0
   -4.0506   -1.3013   -1.2026 H   0  0  0  0  0  0  0  0  0  0  0  0
    0.4409    3.7535   -1.3501 H   0  0  0  0  0  0  0  0  0  0  0  0
    0.5400   -4.3489   -3.0121 H   0  0  0  0  0  0  0  0  0  0  0  0
   -0.5110   -5.3494    1.0324 H   0  0  0  0  0  0  0  0  0  0  0  0
    5.2568   -0.8869   -0.9362 H   0  0  0  0  0  0  0  0  0  0  0  0
    4.2099   -1.8934    3.1080 H   0  0  0  0  0  0  0  0  0  0  0  0
    0.0741   -6.0554   -1.2728 H   0  0  0  0  0  0  0  0  0  0  0  0
    5.8984   -1.7613    1.2951 H   0  0  0  0  0  0  0  0  0  0  0  0
    2.6141    4.6370   -2.7411 H   0  0  0  0  0  0  0  0  0  0  0  0
    4.7769    3.7164   -1.2871 H   0  0  0  0  0  0  0  0  0  0  0  0
  1 17  1  0  0  0  0
  1 32  1  0  0  0  0
  2  8  1  0  0  0  0
  2  9  1  0  0  0  0
  2 12  1  0  0  0  0
  3 10  1  0  0  0  0
  3 11  1  0  0  0  0
  3 16  1  0  0  0  0
  4  9  1  0  0  0  0
  4 16  2  0  0  0  0
  5 10  2  0  0  0  0
  5 49  1  0  0  0  0
  6  7  1  0  0  0  0
  6  9  2  0  0  0  0
  6 10  1  0  0  0  0
  7  8  2  0  0  0  0
  7 14  1  0  0  0  0
  8 15  1  0  0  0  0
 11 13  1  0  0  0  0
 11 33  1  0  0  0  0
 11 34  1  0  0  0  0
 12 17  1  0  0  0  0
 12 35  1  0  0  0  0
 12 36  1  0  0  0  0
 13 18  1  0  0  0  0
 13 19  1  0  0  0  0
 13 37  1  0  0  0  0
 14 20  2  0  0  0  0
 14 21  1  0  0  0  0
 15 22  2  0  0  0  0
 15 23  1  0  0  0  0
 16 38  1  0  0  0  0
 17 24  2  0  0  0  0
 18 39  1  0  0  0  0
 18 40  1  0  0  0  0
 18 41  1  0  0  0  0
 19 42  1  0  0  0  0
 19 43  1  0  0  0  0
 19 44  1  0  0  0  0
 20 25  1  0  0  0  0
 20 45  1  0  0  0  0
 21 26  2  0  0  0  0
 21 46  1  0  0  0  0
 22 27  1  0  0  0  0
 22 47  1  0  0  0  0
 23 28  2  0  0  0  0
 23 48  1  0  0  0  0
 24 31  1  0  0  0  0
 24 50  1  0  0  0  0
 25 29  2  0  0  0  0
 25 51  1  0  0  0  0
 26 29  1  0  0  0  0
 26 52  1  0  0  0  0
 27 30  2  0  0  0  0
 27 53  1  0  0  0  0
 28 30  1  0  0  0  0
 28 54  1  0  0  0  0
 29 55  1  0  0  0  0
 30 56  1  0  0  0  0
 31 32  2  0  0  0  0
 31 57  1  0  0  0  0
 32 58  1  0  0  0  0
M  END
> <PUBCHEM_COMPOUND_CID>
1312356

> <PUBCHEM_CONFORMER_RMSD>
0.8

> <PUBCHEM_CONFORMER_DIVERSEORDER>
1
5
8
4
9
10
7
6
2
3

> <PUBCHEM_MMFF94_PARTIAL_CHARGES>
44
1 -0.28
10 0.59
11 0.37
12 0.44
14 0.05
15 0.05
16 0.44
17 -0.04
2 0.05
20 -0.15
21 -0.15
22 -0.15
23 -0.15
24 -0.15
25 -0.15
26 -0.15
27 -0.15
28 -0.15
29 -0.15
3 -0.47
30 -0.15
31 -0.15
32 -0.01
38 0.06
4 -0.58
45 0.15
46 0.15
47 0.15
48 0.15
49 0.4
5 -0.85
50 0.15
51 0.15
52 0.15
53 0.15
54 0.15
55 0.15
56 0.15
57 0.15
58 0.15
6 -0.09
7 -0.05
8 -0.2
9 -0.03

> <PUBCHEM_EFFECTIVE_ROTOR_COUNT>
6

> <PUBCHEM_PHARMACOPHORE_FEATURES>
11
1 1 acceptor
1 2 cation
1 5 donor
3 13 18 19 hydrophobe
3 3 4 16 cation
3 3 5 10 cation
5 1 17 24 31 32 rings
5 2 6 7 8 9 rings
6 14 20 21 25 26 29 rings
6 15 22 23 27 28 30 rings
6 3 4 6 9 10 16 rings

> <PUBCHEM_HEAVY_ATOM_COUNT>
32

> <PUBCHEM_ATOM_DEF_STEREO_COUNT>
0

> <PUBCHEM_ATOM_UDEF_STEREO_COUNT>
0

> <PUBCHEM_BOND_DEF_STEREO_COUNT>
0

> <PUBCHEM_BOND_UDEF_STEREO_COUNT>
0

> <PUBCHEM_ISOTOPIC_ATOM_COUNT>
0

> <PUBCHEM_COMPONENT_COUNT>
1

> <PUBCHEM_CACTVS_TAUTO_COUNT>
1

> <PUBCHEM_CONFORMER_ID>
0014066400000001

> <PUBCHEM_MMFF94_ENERGY>
76.2224

> <PUBCHEM_FEATURE_SELFOVERLAP>
56.027

> <PUBCHEM_SHAPE_FINGERPRINT>
10006869 2 18049723220255895939
10169797 241 17681314124302690035
10940486 97 18339910632884092118
1100329 8 18411131467733084010
11445158 3 18187078447101768996
12160290 23 17691945469429093189
12422481 6 17695320613059362554
12788726 201 17839731909519057047
13140716 1 18342729746031886649
13583140 156 17532352228351248843
140371 6 18194968444212563489
14790565 3 18340778130004199673
14955137 171 18341053999626297328
15664445 248 18194979443227793132
15927050 60 18121786290060004364
18681886 176 18409725145469731888
19591789 44 18340766056940645407
20028762 73 18201428191048049343
20642791 178 18410856572619968409
20739085 24 18197500614668739859
21033648 29 17986644053227642552
23558518 356 18122890182396491550
23559900 14 18273496784570412598
25019877 29 17917134006636651518
25147074 1 18341887554458530517
255183 313 17983543409194930170
3178227 256 18408892806487971819
340366 18 18409442609662485684
350125 39 18409451375374946657
463206 1 18194959867210462812
563151 40 17756166818136465588
7495541 125 17894913996902991497

> <PUBCHEM_SHAPE_MULTIPOLES>
632.75
9.35
6.29
1.63
9.9
2.66
0.03
-4.54
3.39
-4.06
-3.34
-0.89
0.44
-2.19

> <PUBCHEM_SHAPE_SELFOVERLAP>
1406.354

> <PUBCHEM_SHAPE_VOLUME>
337.4

> <PUBCHEM_COORDINATE_TYPE>
2
5
10

$$$$
