1383269
  -OEChem-01171810003D

 41 43  0     0  0  0  0  0  0999 V2000
    4.0360    3.4741    0.3974 Cl  0  0  0  0  0  0  0  0  0  0  0  0
   -1.0872    2.4238   -2.8658 O   0  0  0  0  0  0  0  0  0  0  0  0
    4.0175    0.5957    0.9817 O   0  0  0  0  0  0  0  0  0  0  0  0
    1.6767    0.3311    0.8311 N   0  0  0  0  0  0  0  0  0  0  0  0
   -2.6409    1.3156   -1.5834 N   0  0  0  0  0  0  0  0  0  0  0  0
    0.4173    0.7633    1.4123 C   0  0  0  0  0  0  0  0  0  0  0  0
   -0.6402    0.9594    0.3649 C   0  0  0  0  0  0  0  0  0  0  0  0
   -2.0029    0.4327    0.5900 C   0  0  0  0  0  0  0  0  0  0  0  0
   -2.9748    0.6293   -0.4035 C   0  0  0  0  0  0  0  0  0  0  0  0
    1.7077   -0.9203    0.0841 C   0  0  0  0  0  0  0  0  0  0  0  0
   -0.3653    1.6093   -0.7779 C   0  0  0  0  0  0  0  0  0  0  0  0
   -2.3760   -0.2575    1.7526 C   0  0  0  0  0  0  0  0  0  0  0  0
   -1.3861    1.8225   -1.8363 C   0  0  0  0  0  0  0  0  0  0  0  0
    2.8828    1.0785    0.9602 C   0  0  0  0  0  0  0  0  0  0  0  0
    0.8322   -1.9008    0.4506 C   0  0  0  0  0  0  0  0  0  0  0  0
   -4.2804    0.1531   -0.2449 C   0  0  0  0  0  0  0  0  0  0  0  0
    2.6108   -1.0300   -0.9332 C   0  0  0  0  0  0  0  0  0  0  0  0
    0.8624   -3.0982   -0.2641 C   0  0  0  0  0  0  0  0  0  0  0  0
   -3.6803   -0.7347    1.9133 C   0  0  0  0  0  0  0  0  0  0  0  0
   -4.6307   -0.5298    0.9166 C   0  0  0  0  0  0  0  0  0  0  0  0
    2.6409   -2.2274   -1.6480 C   0  0  0  0  0  0  0  0  0  0  0  0
    1.7668   -3.2615   -1.3135 C   0  0  0  0  0  0  0  0  0  0  0  0
    2.6862    2.5760    1.1229 C   0  0  0  0  0  0  0  0  0  0  0  0
   -0.0725   -4.2040    0.0929 C   0  0  0  0  0  0  0  0  0  0  0  0
    0.1832    0.0448    2.1978 H   0  0  0  0  0  0  0  0  0  0  0  0
    0.5378    1.7025    1.9627 H   0  0  0  0  0  0  0  0  0  0  0  0
    0.6164    2.0117   -0.9990 H   0  0  0  0  0  0  0  0  0  0  0  0
   -1.6929   -0.4402    2.5742 H   0  0  0  0  0  0  0  0  0  0  0  0
   -3.3660    1.4419   -2.2840 H   0  0  0  0  0  0  0  0  0  0  0  0
    0.1450   -1.8220    1.2829 H   0  0  0  0  0  0  0  0  0  0  0  0
   -5.0281    0.3089   -1.0182 H   0  0  0  0  0  0  0  0  0  0  0  0
    3.2753   -0.2314   -1.2435 H   0  0  0  0  0  0  0  0  0  0  0  0
   -3.9539   -1.2649    2.8213 H   0  0  0  0  0  0  0  0  0  0  0  0
   -5.6429   -0.9012    1.0453 H   0  0  0  0  0  0  0  0  0  0  0  0
    3.3389   -2.3515   -2.4710 H   0  0  0  0  0  0  0  0  0  0  0  0
    1.8004   -4.1891   -1.8788 H   0  0  0  0  0  0  0  0  0  0  0  0
    1.7834    2.9408    0.6367 H   0  0  0  0  0  0  0  0  0  0  0  0
    2.6506    2.8169    2.1890 H   0  0  0  0  0  0  0  0  0  0  0  0
   -1.0519   -3.8086    0.3833 H   0  0  0  0  0  0  0  0  0  0  0  0
   -0.2375   -4.8776   -0.7548 H   0  0  0  0  0  0  0  0  0  0  0  0
    0.3347   -4.7864    0.9254 H   0  0  0  0  0  0  0  0  0  0  0  0
  1 23  1  0  0  0  0
  2 13  2  0  0  0  0
  3 14  2  0  0  0  0
  4  6  1  0  0  0  0
  4 10  1  0  0  0  0
  4 14  1  0  0  0  0
  5  9  1  0  0  0  0
  5 13  1  0  0  0  0
  5 29  1  0  0  0  0
  6  7  1  0  0  0  0
  6 25  1  0  0  0  0
  6 26  1  0  0  0  0
  7  8  1  0  0  0  0
  7 11  2  0  0  0  0
  8  9  1  0  0  0  0
  8 12  2  0  0  0  0
  9 16  2  0  0  0  0
 10 15  1  0  0  0  0
 10 17  2  0  0  0  0
 11 13  1  0  0  0  0
 11 27  1  0  0  0  0
 12 19  1  0  0  0  0
 12 28  1  0  0  0  0
 14 23  1  0  0  0  0
 15 18  2  0  0  0  0
 15 30  1  0  0  0  0
 16 20  1  0  0  0  0
 16 31  1  0  0  0  0
 17 21  1  0  0  0  0
 17 32  1  0  0  0  0
 18 22  1  0  0  0  0
 18 24  1  0  0  0  0
 19 20  2  0  0  0  0
 19 33  1  0  0  0  0
 20 34  1  0  0  0  0
 21 22  2  0  0  0  0
 21 35  1  0  0  0  0
 22 36  1  0  0  0  0
 23 37  1  0  0  0  0
 23 38  1  0  0  0  0
 24 39  1  0  0  0  0
 24 40  1  0  0  0  0
 24 41  1  0  0  0  0
M  END
> <PUBCHEM_COMPOUND_CID>
1383269

> <PUBCHEM_CONFORMER_RMSD>
0.8

> <PUBCHEM_CONFORMER_DIVERSEORDER>
1
58
141
154
62
51
18
138
99
24
52
64
75
35
61
7
33
118
17
27
71
29
56
19
91
119
22
102
73
129
67
147
42
89
25
140
97
59
16
60
48
76
6
108
93
4
155
139
152
37
30
120
80
55
130
8
110
53
40
106
12
100
15
114
83
150
94
104
117
146
121
72
92
101
109
124
96
54
148
82
31
38
142
136
116
149
145
68
144
45
111
143
103
125
13
105
70
131
86
151
47
87
128
98
43
113
133
3
57
11
123
90
112
23
41
46
79
32
95
78
126
34
66
153
9
39
132
20
74
10
26
88
135
84
63
21
28
77
50
81
5
122
2
69
107
85
65
134
137
44
49
14
115
36
127

> <PUBCHEM_MMFF94_PARTIAL_CHARGES>
34
1 -0.29
10 0.12
11 -0.14
12 -0.15
13 0.62
14 0.57
15 -0.15
16 -0.15
17 -0.15
18 -0.14
19 -0.15
2 -0.57
20 -0.15
21 -0.15
22 -0.15
23 0.35
24 0.14
27 0.15
28 0.15
29 0.37
3 -0.57
30 0.15
31 0.15
32 0.15
33 0.15
34 0.15
35 0.15
36 0.15
4 -0.48
5 -0.55
6 0.44
7 -0.17
8 0.03
9 0.12

> <PUBCHEM_EFFECTIVE_ROTOR_COUNT>
5

> <PUBCHEM_PHARMACOPHORE_FEATURES>
6
1 2 acceptor
1 3 acceptor
1 5 donor
6 10 15 17 18 21 22 rings
6 5 7 8 9 11 13 rings
6 8 9 12 16 19 20 rings

> <PUBCHEM_HEAVY_ATOM_COUNT>
24

> <PUBCHEM_ATOM_DEF_STEREO_COUNT>
0

> <PUBCHEM_ATOM_UDEF_STEREO_COUNT>
0

> <PUBCHEM_BOND_DEF_STEREO_COUNT>
0

> <PUBCHEM_BOND_UDEF_STEREO_COUNT>
0

> <PUBCHEM_ISOTOPIC_ATOM_COUNT>
0

> <PUBCHEM_COMPONENT_COUNT>
1

> <PUBCHEM_CACTVS_TAUTO_COUNT>
2

> <PUBCHEM_CONFORMER_ID>
00151B6500000001

> <PUBCHEM_MMFF94_ENERGY>
90.0039

> <PUBCHEM_FEATURE_SELFOVERLAP>
30.471

> <PUBCHEM_SHAPE_FINGERPRINT>
10165383 225 18197510721201768272
10871710 139 16963515807714076596
10906281 52 17821731658942941421
11578080 2 18194131724026745941
11582403 64 16385561600301949556
12035758 1 18343019995980548970
12156800 1 17618812565656183214
12160290 23 17479419763015978082
12553582 1 17406558004639139434
12788726 201 16541300542107219694
13583140 156 17170641554698279392
15324884 4 18187943801703192723
15664445 248 17677350345818225469
17138139 8 17055519504810188143
17876694 64 14129324161912932013
17980427 23 14634859860183713700
20600515 1 17022904605279882821
20645477 70 18058438825473984007
21202864 24 18050566549657513992
21285901 2 17895756184951468151
21731516 1 17485362270702294987
2260408 40 18119562983697308019
23557571 272 17821728299856269197
23559900 14 17604428496674812762
238 59 18052223294336268006
3729539 64 18196960854277406572
4340502 62 18130228271834694571
458136 41 18272657891204833888
469060 322 17031597498806849336
57527293 21 18042408104343136521
57527306 92 13559401982137936559
5845 1 10354043356295635266
621550 34 18408318891478002321
6287921 2 18338253642405356325
6669772 16 18340768230721507458
7399639 24 18335130999476171125
81228 2 17605283882778715713
8272917 22 18131077017343820153
84936 31 18343026609322797109
9925002 15 17325772972652069277

> <PUBCHEM_SHAPE_MULTIPOLES>
474.08
7.07
4.26
1.95
3.19
3.25
-0.9
-3.11
1.95
-4.5
-1.13
0.87
-0.89
2.41

> <PUBCHEM_SHAPE_SELFOVERLAP>
1019.487

> <PUBCHEM_SHAPE_VOLUME>
261.6

> <PUBCHEM_COORDINATE_TYPE>
2
5
10

$$$$
