701066
  -OEChem-01171809243D

 24 25  0     0  0  0  0  0  0999 V2000
   -2.0238   -0.7035    0.0778 S   0  0  0  0  0  0  0  0  0  0  0  0
    0.7281   -1.7710   -0.1159 S   0  0  0  0  0  0  0  0  0  0  0  0
   -2.4279   -1.2374   -1.2175 O   0  0  0  0  0  0  0  0  0  0  0  0
   -2.3583   -1.4387    1.2925 O   0  0  0  0  0  0  0  0  0  0  0  0
    0.2697    0.7565    0.1155 N   0  0  0  0  0  0  0  0  0  0  0  0
   -0.3086   -0.4192    0.0367 C   0  0  0  0  0  0  0  0  0  0  0  0
   -2.7431    0.9165    0.2441 C   0  0  0  0  0  0  0  0  0  0  0  0
    2.0921   -0.7169   -0.0769 C   0  0  0  0  0  0  0  0  0  0  0  0
    1.6469    0.6022    0.0511 C   0  0  0  0  0  0  0  0  0  0  0  0
    3.4578   -1.0345   -0.1544 C   0  0  0  0  0  0  0  0  0  0  0  0
    2.6046    1.6386    0.1026 C   0  0  0  0  0  0  0  0  0  0  0  0
   -4.2223    0.7438    0.2902 C   0  0  0  0  0  0  0  0  0  0  0  0
    4.3846    0.0097   -0.1009 C   0  0  0  0  0  0  0  0  0  0  0  0
    3.9658    1.3296    0.0259 C   0  0  0  0  0  0  0  0  0  0  0  0
   -5.0656    1.3243   -0.5709 C   0  0  0  0  0  0  0  0  0  0  0  0
   -2.3810    1.3590    1.1763 H   0  0  0  0  0  0  0  0  0  0  0  0
   -2.4170    1.5227   -0.6061 H   0  0  0  0  0  0  0  0  0  0  0  0
    3.7921   -2.0627   -0.2536 H   0  0  0  0  0  0  0  0  0  0  0  0
    2.2883    2.6731    0.2015 H   0  0  0  0  0  0  0  0  0  0  0  0
   -4.6420    0.1371    1.0888 H   0  0  0  0  0  0  0  0  0  0  0  0
    5.4465   -0.2145   -0.1593 H   0  0  0  0  0  0  0  0  0  0  0  0
    4.7011    2.1286    0.0658 H   0  0  0  0  0  0  0  0  0  0  0  0
   -6.1356    1.1742   -0.4777 H   0  0  0  0  0  0  0  0  0  0  0  0
   -4.7079    1.9535   -1.3784 H   0  0  0  0  0  0  0  0  0  0  0  0
  1  3  2  0  0  0  0
  1  4  2  0  0  0  0
  1  6  1  0  0  0  0
  1  7  1  0  0  0  0
  2  6  1  0  0  0  0
  2  8  1  0  0  0  0
  5  6  2  0  0  0  0
  5  9  1  0  0  0  0
  7 12  1  0  0  0  0
  7 16  1  0  0  0  0
  7 17  1  0  0  0  0
  8  9  1  0  0  0  0
  8 10  2  0  0  0  0
  9 11  2  0  0  0  0
 10 13  1  0  0  0  0
 10 18  1  0  0  0  0
 11 14  1  0  0  0  0
 11 19  1  0  0  0  0
 12 15  2  0  0  0  0
 12 20  1  0  0  0  0
 13 14  2  0  0  0  0
 13 21  1  0  0  0  0
 14 22  1  0  0  0  0
 15 23  1  0  0  0  0
 15 24  1  0  0  0  0
M  END
> <PUBCHEM_COMPOUND_CID>
701066

> <PUBCHEM_CONFORMER_RMSD>
0.6

> <PUBCHEM_CONFORMER_DIVERSEORDER>
1
11
20
2
12
16
14
17
13
10
6
9
18
4
15
5
3
19
7
8

> <PUBCHEM_MMFF94_PARTIAL_CHARGES>
22
1 1.26
10 -0.15
11 -0.15
12 -0.29
13 -0.15
14 -0.15
15 -0.3
18 0.15
19 0.15
2 -0.08
20 0.15
21 0.15
22 0.15
23 0.15
24 0.15
3 -0.65
4 -0.65
5 -0.57
6 0.32
7 0.24
8 0.04
9 0.23

> <PUBCHEM_EFFECTIVE_ROTOR_COUNT>
3

> <PUBCHEM_PHARMACOPHORE_FEATURES>
6
1 15 hydrophobe
1 3 acceptor
1 4 acceptor
1 5 acceptor
5 2 5 6 8 9 rings
6 8 9 10 11 13 14 rings

> <PUBCHEM_HEAVY_ATOM_COUNT>
15

> <PUBCHEM_ATOM_DEF_STEREO_COUNT>
0

> <PUBCHEM_ATOM_UDEF_STEREO_COUNT>
0

> <PUBCHEM_BOND_DEF_STEREO_COUNT>
0

> <PUBCHEM_BOND_UDEF_STEREO_COUNT>
0

> <PUBCHEM_ISOTOPIC_ATOM_COUNT>
0

> <PUBCHEM_COMPONENT_COUNT>
1

> <PUBCHEM_CACTVS_TAUTO_COUNT>
1

> <PUBCHEM_CONFORMER_ID>
000AB28A00000001

> <PUBCHEM_MMFF94_ENERGY>
20.8691

> <PUBCHEM_FEATURE_SELFOVERLAP>
30.535

> <PUBCHEM_SHAPE_FINGERPRINT>
10014705 185 18408320003969367133
10608611 8 18409450331665725608
11401426 45 18202278113403723466
11471102 20 18412545379762362596
12500047 106 18411417353546216562
12932764 1 17631455729451945986
13214271 11 18261395576622063015
13380535 76 18410577258249151987
13571099 22 17989211421520985686
13675066 3 18335708264233512009
13922767 16 18413388735356466224
14325111 11 18340207487616196882
14897335 6 18341892978790975311
14943859 89 18342457036872332763
15196674 1 18411419531083878118
15219456 202 18335990834400645826
15375358 24 18408325471177768419
15442244 35 18125444107615804968
15775835 57 18272653462819115077
16945 1 18268149945413379522
17834072 33 18272927241652281423
17834072 8 18343308037481804316
18186145 218 17822006523658599318
187816 3 15626219101094494015
200 152 17704068495510664645
20112054 13 17967533471668640053
20645477 56 18040999540133560045
20645477 70 18201722804012960550
212847 35 18333734602660823884
231179 274 18114740447639526821
23402539 116 18343575257008495709
23402655 69 18272652359292283284
23559900 14 18412545384374126906
25 1 18408318861091341431
335352 9 18410856517334013566
3545911 37 18410578391999042873
4028521 119 18336260159463736085
4047638 21 18334296439763852936
4072396 5 18338221671064560914
474 4 18334015016311172381
5104073 3 18409729586112475706
633830 44 18187363268259059038
6430166 295 18409164398402146328
69090 78 18342735196223922799
77779 3 18410014359571334195
8272917 22 18200316506976268399

> <PUBCHEM_SHAPE_MULTIPOLES>
299.67
9.24
1.78
0.8
4.46
0.12
0.01
-3.78
-0.71
-0.16
-0.01
0.5
0.19
0.29

> <PUBCHEM_SHAPE_SELFOVERLAP>
611.473

> <PUBCHEM_SHAPE_VOLUME>
174.4

> <PUBCHEM_COORDINATE_TYPE>
2
5
10

$$$$
