1040545
  -OEChem-01171809293D

 44 44  0     0  0  0  0  0  0999 V2000
    1.7955   -0.6776   -1.0766 O   0  0  0  0  0  0  0  0  0  0  0  0
   -2.9102   -0.6159   -0.3515 O   0  0  0  0  0  0  0  0  0  0  0  0
    3.9538   -3.0836    0.4514 O   0  0  0  0  0  0  0  0  0  0  0  0
   -6.3630   -0.0382    0.3788 O   0  0  0  0  0  0  0  0  0  0  0  0
    4.4139   -1.2689   -0.8990 O   0  0  0  0  0  0  0  0  0  0  0  0
   -5.2615   -1.9237   -0.3696 O   0  0  0  0  0  0  0  0  0  0  0  0
    3.7576    4.8239    0.6971 O   0  5  0  0  0  0  0  0  0  0  0  0
    4.5258    2.8858   -0.0133 O   0  0  0  0  0  0  0  0  0  0  0  0
    3.6205    3.6283    0.3963 N   0  3  0  0  0  0  0  0  0  0  0  0
    0.6770    0.0101   -0.7080 C   0  0  0  0  0  0  0  0  0  0  0  0
    0.7455    1.3503   -0.3276 C   0  0  0  0  0  0  0  0  0  0  0  0
   -1.7113    0.0288   -0.3438 C   0  0  0  0  0  0  0  0  0  0  0  0
   -0.5514   -0.6507   -0.7159 C   0  0  0  0  0  0  0  0  0  0  0  0
   -0.4145    2.0298    0.0446 C   0  0  0  0  0  0  0  0  0  0  0  0
   -1.6429    1.3691    0.0364 C   0  0  0  0  0  0  0  0  0  0  0  0
    2.0158    2.0630   -0.3105 C   0  0  0  0  0  0  0  0  0  0  0  0
    2.1312   -1.8280   -0.3044 C   0  0  0  0  0  0  0  0  0  0  0  0
   -4.0557    0.1389    0.0405 C   0  0  0  0  0  0  0  0  0  0  0  0
    3.6277   -1.9964   -0.3077 C   0  0  0  0  0  0  0  0  0  0  0  0
   -5.2688   -0.7514   -0.0194 C   0  0  0  0  0  0  0  0  0  0  0  0
    2.3252    3.0656    0.5309 C   0  0  0  0  0  0  0  0  0  0  0  0
    5.3525   -3.3726    0.5444 C   0  0  0  0  0  0  0  0  0  0  0  0
   -7.6009   -0.7565    0.3753 C   0  0  0  0  0  0  0  0  0  0  0  0
    5.5462   -4.5968    1.4136 C   0  0  0  0  0  0  0  0  0  0  0  0
   -8.7079    0.1666    0.8382 C   0  0  0  0  0  0  0  0  0  0  0  0
   -0.6164   -1.6928   -1.0188 H   0  0  0  0  0  0  0  0  0  0  0  0
   -0.4013    3.0782    0.3316 H   0  0  0  0  0  0  0  0  0  0  0  0
   -2.5040    1.9584    0.3326 H   0  0  0  0  0  0  0  0  0  0  0  0
    2.7341    1.7061   -1.0462 H   0  0  0  0  0  0  0  0  0  0  0  0
    1.8012   -1.7126    0.7350 H   0  0  0  0  0  0  0  0  0  0  0  0
    1.6738   -2.7103   -0.7632 H   0  0  0  0  0  0  0  0  0  0  0  0
   -3.9549    0.4744    1.0793 H   0  0  0  0  0  0  0  0  0  0  0  0
   -4.2261    0.9662   -0.6582 H   0  0  0  0  0  0  0  0  0  0  0  0
    1.7157    3.5400    1.2851 H   0  0  0  0  0  0  0  0  0  0  0  0
    5.8733   -2.5169    0.9886 H   0  0  0  0  0  0  0  0  0  0  0  0
    5.7535   -3.5626   -0.4575 H   0  0  0  0  0  0  0  0  0  0  0  0
   -7.5271   -1.6147    1.0525 H   0  0  0  0  0  0  0  0  0  0  0  0
   -7.8145   -1.1110   -0.6393 H   0  0  0  0  0  0  0  0  0  0  0  0
    5.0157   -5.4568    0.9916 H   0  0  0  0  0  0  0  0  0  0  0  0
    5.1336   -4.4284    2.4138 H   0  0  0  0  0  0  0  0  0  0  0  0
    6.6068   -4.8468    1.5064 H   0  0  0  0  0  0  0  0  0  0  0  0
   -9.6709   -0.3514    0.8475 H   0  0  0  0  0  0  0  0  0  0  0  0
   -8.4994    0.5438    1.8448 H   0  0  0  0  0  0  0  0  0  0  0  0
   -8.7821    1.0392    0.1809 H   0  0  0  0  0  0  0  0  0  0  0  0
  1 10  1  0  0  0  0
  1 17  1  0  0  0  0
  2 12  1  0  0  0  0
  2 18  1  0  0  0  0
  3 19  1  0  0  0  0
  3 22  1  0  0  0  0
  4 20  1  0  0  0  0
  4 23  1  0  0  0  0
  5 19  2  0  0  0  0
  6 20  2  0  0  0  0
  7  9  1  0  0  0  0
  8  9  2  0  0  0  0
  9 21  1  0  0  0  0
 10 11  2  0  0  0  0
 10 13  1  0  0  0  0
 11 14  1  0  0  0  0
 11 16  1  0  0  0  0
 12 13  2  0  0  0  0
 12 15  1  0  0  0  0
 13 26  1  0  0  0  0
 14 15  2  0  0  0  0
 14 27  1  0  0  0  0
 15 28  1  0  0  0  0
 16 21  2  0  0  0  0
 16 29  1  0  0  0  0
 17 19  1  0  0  0  0
 17 30  1  0  0  0  0
 17 31  1  0  0  0  0
 18 20  1  0  0  0  0
 18 32  1  0  0  0  0
 18 33  1  0  0  0  0
 21 34  1  0  0  0  0
 22 24  1  0  0  0  0
 22 35  1  0  0  0  0
 22 36  1  0  0  0  0
 23 25  1  0  0  0  0
 23 37  1  0  0  0  0
 23 38  1  0  0  0  0
 24 39  1  0  0  0  0
 24 40  1  0  0  0  0
 24 41  1  0  0  0  0
 25 42  1  0  0  0  0
 25 43  1  0  0  0  0
 25 44  1  0  0  0  0
M  CHG  2   7  -1   9   1
M  END
> <PUBCHEM_COMPOUND_CID>
1040545

> <PUBCHEM_CONFORMER_RMSD>
1

> <PUBCHEM_CONFORMER_DIVERSEORDER>
2
16
29
22
30
36
33
20
21
49
40
18
34
13
39
8
24
14
47
19
31
43
4
41
44
25
32
5
48
42
3
1
28
9
35
15
46
12
17
11
45
10
38
7
6
27
37
23
26

> <PUBCHEM_MMFF94_PARTIAL_CHARGES>
28
1 -0.36
10 0.08
11 0.03
12 0.08
13 -0.15
14 -0.15
15 -0.15
16 -0.18
17 0.34
18 0.34
19 0.66
2 -0.36
20 0.66
21 0.05
22 0.28
23 0.28
26 0.15
27 0.15
28 0.15
29 0.15
3 -0.43
34 0.15
4 -0.43
5 -0.57
6 -0.57
7 -0.52
8 -0.52
9 0.84

> <PUBCHEM_EFFECTIVE_ROTOR_COUNT>
12

> <PUBCHEM_PHARMACOPHORE_FEATURES>
8
1 1 acceptor
1 2 acceptor
1 5 acceptor
1 6 acceptor
1 7 acceptor
1 7 anion
1 8 acceptor
6 10 11 12 13 14 15 rings

> <PUBCHEM_HEAVY_ATOM_COUNT>
25

> <PUBCHEM_ATOM_DEF_STEREO_COUNT>
0

> <PUBCHEM_ATOM_UDEF_STEREO_COUNT>
0

> <PUBCHEM_BOND_DEF_STEREO_COUNT>
1

> <PUBCHEM_BOND_UDEF_STEREO_COUNT>
0

> <PUBCHEM_ISOTOPIC_ATOM_COUNT>
0

> <PUBCHEM_COMPONENT_COUNT>
1

> <PUBCHEM_CACTVS_TAUTO_COUNT>
2

> <PUBCHEM_CONFORMER_ID>
000FE0A100000002

> <PUBCHEM_MMFF94_ENERGY>
65.0369

> <PUBCHEM_FEATURE_SELFOVERLAP>
40.694

> <PUBCHEM_SHAPE_FINGERPRINT>
10050765 1 18411700955081007877
10411042 1 18267305322957307342
10753850 27 17895757292330941235
11297750 10 18115580448701058172
11963148 33 18051685844042533119
12107183 9 18126294043316539009
13073987 5 18340494486733512795
13533116 47 18408325492779127419
13540713 4 18115008733073002117
13540713 5 17916289718723532071
13785724 45 18200039413219465110
13955234 65 18339640148285677936
14347424 109 18413390934817695209
14790565 3 17619912098669871173
15475509 35 17313372409967904962
15927050 60 18053382377735965510
16120349 18 18342455980811804245
20771845 171 17822582715059784300
21049683 271 18333740100556573476
21130935 74 18336833087222376275
21344244 78 17632011957633889080
22182313 1 17968639588967200421
23559900 14 18337659833096075801
249999 5 18340766052540222232
3411729 13 18271247247714271628
3421961 26 18410292510174747006
4073 2 18193280925965864235
45377200 153 15648206091561617305
5104073 3 18270414879643465811
5385378 56 18340484585963847360
59755656 215 18337676429050603260
77188 2 18338795590554346940

> <PUBCHEM_SHAPE_MULTIPOLES>
462.55
17.87
5.31
0.9
37.55
2.42
-0.06
-13.71
-5.97
-15.55
-2.28
-0.5
-0.33
-0.91

> <PUBCHEM_SHAPE_SELFOVERLAP>
942.061

> <PUBCHEM_SHAPE_VOLUME>
268.2

> <PUBCHEM_COORDINATE_TYPE>
2
5
10

$$$$
