3962490
  -OEChem-01171810013D

 52 54  0     1  0  0  0  0  0999 V2000
    5.7920    1.0075   -2.5765 Cl  0  0  0  0  0  0  0  0  0  0  0  0
    1.2288    2.2608    1.5272 S   0  0  0  0  0  0  0  0  0  0  0  0
    1.6084    1.6642    2.7949 O   0  0  0  0  0  0  0  0  0  0  0  0
    0.9929    3.6915    1.4584 O   0  0  0  0  0  0  0  0  0  0  0  0
    1.4174   -2.4431   -1.5883 O   0  0  0  0  0  0  0  0  0  0  0  0
   -6.5064   -0.7998   -1.2154 O   0  0  0  0  0  0  0  0  0  0  0  0
    0.5903   -4.8170    1.6390 O   0  0  0  0  0  0  0  0  0  0  0  0
    0.5036   -4.8634   -0.6318 O   0  0  0  0  0  0  0  0  0  0  0  0
    4.9152   -1.3607    0.9217 O   0  5  0  0  0  0  0  0  0  0  0  0
    6.0639   -0.9210   -0.8967 O   0  0  0  0  0  0  0  0  0  0  0  0
   -7.2897    0.7874    0.2564 O   0  0  0  0  0  0  0  0  0  0  0  0
   -0.1299    1.4020    0.8768 N   0  0  1  0  0  0  0  0  0  0  0  0
    5.1460   -0.6534   -0.0866 N   0  3  0  0  0  0  0  0  0  0  0  0
   -0.9163    2.0698   -0.1892 C   0  0  0  0  0  0  0  0  0  0  0  0
    0.0281   -0.0353    0.7550 C   0  0  0  0  0  0  0  0  0  0  0  0
    2.5239    1.8934    0.3741 C   0  0  0  0  0  0  0  0  0  0  0  0
   -2.3316    1.6020   -0.2383 C   0  0  0  0  0  0  0  0  0  0  0  0
    0.6512   -0.5526   -0.3665 C   0  0  0  0  0  0  0  0  0  0  0  0
   -0.4488   -0.8535    1.7635 C   0  0  0  0  0  0  0  0  0  0  0  0
    3.3177    0.7826    0.5875 C   0  0  0  0  0  0  0  0  0  0  0  0
   -3.3076    2.2535    0.5157 C   0  0  0  0  0  0  0  0  0  0  0  0
   -2.6796    0.5141   -1.0389 C   0  0  0  0  0  0  0  0  0  0  0  0
    2.7104    2.7267   -0.7122 C   0  0  0  0  0  0  0  0  0  0  0  0
    0.8026   -1.9342   -0.4834 C   0  0  0  0  0  0  0  0  0  0  0  0
   -0.2974   -2.2351    1.6465 C   0  0  0  0  0  0  0  0  0  0  0  0
    0.3284   -2.7754    0.5231 C   0  0  0  0  0  0  0  0  0  0  0  0
    4.3369    0.4942   -0.3202 C   0  0  0  0  0  0  0  0  0  0  0  0
   -4.6317    1.8171    0.4694 C   0  0  0  0  0  0  0  0  0  0  0  0
   -4.0037    0.0778   -1.0853 C   0  0  0  0  0  0  0  0  0  0  0  0
   -4.9797    0.7292   -0.3311 C   0  0  0  0  0  0  0  0  0  0  0  0
    3.7296    2.4380   -1.6199 C   0  0  0  0  0  0  0  0  0  0  0  0
    4.5427    1.3218   -1.4239 C   0  0  0  0  0  0  0  0  0  0  0  0
    0.4774   -4.2206    0.4214 C   0  0  0  0  0  0  0  0  0  0  0  0
   -6.3598    0.2727   -0.3786 C   0  0  0  0  0  0  0  0  0  0  0  0
   -7.8250   -1.3414   -1.3479 C   0  0  0  0  0  0  0  0  0  0  0  0
   -0.9268    3.1532   -0.0202 H   0  0  0  0  0  0  0  0  0  0  0  0
   -0.4355    1.9378   -1.1662 H   0  0  0  0  0  0  0  0  0  0  0  0
    1.0021    0.0837   -1.1733 H   0  0  0  0  0  0  0  0  0  0  0  0
   -0.9401   -0.4378    2.6384 H   0  0  0  0  0  0  0  0  0  0  0  0
    3.1413    0.1519    1.4539 H   0  0  0  0  0  0  0  0  0  0  0  0
   -3.0491    3.1007    1.1456 H   0  0  0  0  0  0  0  0  0  0  0  0
   -1.9368    0.0043   -1.6455 H   0  0  0  0  0  0  0  0  0  0  0  0
    2.0823    3.5947   -0.8855 H   0  0  0  0  0  0  0  0  0  0  0  0
   -0.6889   -2.8646    2.4413 H   0  0  0  0  0  0  0  0  0  0  0  0
   -5.3763    2.3381    1.0655 H   0  0  0  0  0  0  0  0  0  0  0  0
   -4.2286   -0.7711   -1.7248 H   0  0  0  0  0  0  0  0  0  0  0  0
    3.8752    3.0923   -2.4758 H   0  0  0  0  0  0  0  0  0  0  0  0
    1.5022   -3.4072   -1.5195 H   0  0  0  0  0  0  0  0  0  0  0  0
    0.6905   -5.7898    1.5612 H   0  0  0  0  0  0  0  0  0  0  0  0
   -8.1832   -1.7027   -0.3794 H   0  0  0  0  0  0  0  0  0  0  0  0
   -8.5039   -0.5856   -1.7537 H   0  0  0  0  0  0  0  0  0  0  0  0
   -7.7788   -2.1836   -2.0432 H   0  0  0  0  0  0  0  0  0  0  0  0
  1 32  1  0  0  0  0
  2  3  2  0  0  0  0
  2  4  2  0  0  0  0
  2 12  1  0  0  0  0
  2 16  1  0  0  0  0
  5 24  1  0  0  0  0
  5 48  1  0  0  0  0
  6 34  1  0  0  0  0
  6 35  1  0  0  0  0
  7 33  1  0  0  0  0
  7 49  1  0  0  0  0
  8 33  2  0  0  0  0
  9 13  1  0  0  0  0
 10 13  2  0  0  0  0
 11 34  2  0  0  0  0
 12 14  1  0  0  0  0
 12 15  1  0  0  0  0
 13 27  1  0  0  0  0
 14 17  1  0  0  0  0
 14 36  1  0  0  0  0
 14 37  1  0  0  0  0
 15 18  2  0  0  0  0
 15 19  1  0  0  0  0
 16 20  2  0  0  0  0
 16 23  1  0  0  0  0
 17 21  2  0  0  0  0
 17 22  1  0  0  0  0
 18 24  1  0  0  0  0
 18 38  1  0  0  0  0
 19 25  2  0  0  0  0
 19 39  1  0  0  0  0
 20 27  1  0  0  0  0
 20 40  1  0  0  0  0
 21 28  1  0  0  0  0
 21 41  1  0  0  0  0
 22 29  2  0  0  0  0
 22 42  1  0  0  0  0
 23 31  2  0  0  0  0
 23 43  1  0  0  0  0
 24 26  2  0  0  0  0
 25 26  1  0  0  0  0
 25 44  1  0  0  0  0
 26 33  1  0  0  0  0
 27 32  2  0  0  0  0
 28 30  2  0  0  0  0
 28 45  1  0  0  0  0
 29 30  1  0  0  0  0
 29 46  1  0  0  0  0
 30 34  1  0  0  0  0
 31 32  1  0  0  0  0
 31 47  1  0  0  0  0
 35 50  1  0  0  0  0
 35 51  1  0  0  0  0
 35 52  1  0  0  0  0
M  CHG  2   9  -1  13   1
M  END
> <PUBCHEM_COMPOUND_CID>
3962490

> <PUBCHEM_CONFORMER_RMSD>
1

> <PUBCHEM_CONFORMER_DIVERSEORDER>
1
119
168
143
148
85
75
161
110
152
150
32
34
132
19
62
104
146
51
116
151
130
120
165
135
158
30
27
40
167
118
65
76
157
66
140
160
69
96
117
113
163
128
133
97
99
90
101
138
78
17
121
80
162
11
73
171
154
55
64
31
166
144
174
136
10
170
48
71
123
131
137
41
122
84
53
159
112
156
155
59
100
61
93
114
129
91
115
42
26
28
149
70
83
127
145
124
169
164
147
95
77
125
88
111
36
81
52
67
153
139
72
92
98
5
108
14
109
103
82
94
134
141
21
20
86
46
35
60
24
47
87
142
43
44
37
3
106
22
58
126
12
57
89
173
56
9
13
107
74
105
172
33
102
8
25
45
4
39
49
23
50
63
6
29
18
38
79
68
7
54
15
2
16

> <PUBCHEM_MMFF94_PARTIAL_CHARGES>
47
1 -0.18
10 -0.52
11 -0.57
12 -0.69
13 0.91
14 0.5
15 0.2
16 -0.01
17 -0.14
18 -0.15
19 -0.15
2 1.45
20 -0.15
21 -0.15
22 -0.15
23 -0.15
24 0.08
25 -0.15
26 0.09
27 0.13
28 -0.15
29 -0.15
3 -0.65
30 0.09
31 -0.15
32 0.18
33 0.63
34 0.63
35 0.28
38 0.15
39 0.15
4 -0.65
40 0.15
41 0.15
42 0.15
43 0.15
44 0.15
45 0.15
46 0.15
47 0.15
48 0.45
49 0.5
5 -0.53
6 -0.43
7 -0.65
8 -0.57
9 -0.52

> <PUBCHEM_EFFECTIVE_ROTOR_COUNT>
9

> <PUBCHEM_PHARMACOPHORE_FEATURES>
13
1 10 acceptor
1 11 acceptor
1 3 acceptor
1 4 acceptor
1 5 donor
1 7 acceptor
1 8 acceptor
1 9 acceptor
1 9 anion
3 7 8 33 anion
6 15 18 19 24 25 26 rings
6 16 20 23 27 31 32 rings
6 17 21 22 28 29 30 rings

> <PUBCHEM_HEAVY_ATOM_COUNT>
35

> <PUBCHEM_ATOM_DEF_STEREO_COUNT>
0

> <PUBCHEM_ATOM_UDEF_STEREO_COUNT>
0

> <PUBCHEM_BOND_DEF_STEREO_COUNT>
0

> <PUBCHEM_BOND_UDEF_STEREO_COUNT>
0

> <PUBCHEM_ISOTOPIC_ATOM_COUNT>
0

> <PUBCHEM_COMPONENT_COUNT>
1

> <PUBCHEM_CACTVS_TAUTO_COUNT>
4

> <PUBCHEM_CONFORMER_ID>
003C767A00000001

> <PUBCHEM_MMFF94_ENERGY>
116.7356

> <PUBCHEM_FEATURE_SELFOVERLAP>
66.134

> <PUBCHEM_SHAPE_FINGERPRINT>
10190108 129 18339935861643704761
10930396 42 18195215920939874824
11421498 54 18200032828771155233
11991303 11 17604157046189285611
12160290 23 17610879554891750699
12788726 201 17539682921260409954
13257819 37 18187940515799815350
1361 2 18335422374283862564
13692114 37 18197763596154947303
13782708 43 15769206302162785413
14840074 17 17385720335811840613
17909252 39 17058381275889592814
19319366 153 18410007711289696687
20028762 73 18413105035249326710
20465049 17 18131350834509756589
20567600 347 18408319973619688027
20771845 140 17560509625869658959
20775438 99 17768508835884022973
21344244 181 18271533094872763751
21344244 246 18338520716589540094
21781051 124 18188495790926370723
21814621 53 15697724700991837081
22121540 332 14490733694261121014
22956985 138 18046325458310378467
3383291 50 18411136897379335610
340366 18 17968386727495021484
484989 97 18336836401797710618
57527452 28 15841558448988914972
6669772 16 18127673011054222912
6679774 75 18114444717777930770

> <PUBCHEM_SHAPE_MULTIPOLES>
663.22
14.34
4.74
1.89
19.84
6.3
0.19
-3.3
-8.94
-2.13
1.27
-1.48
-0.29
-1.24

> <PUBCHEM_SHAPE_SELFOVERLAP>
1420.63

> <PUBCHEM_SHAPE_VOLUME>
367.1

> <PUBCHEM_COORDINATE_TYPE>
2
5
10

$$$$
