16446092
  -OEChem-01171810043D

 46 48  0     0  0  0  0  0  0999 V2000
   -2.7923   -3.8914    0.2469 Cl  0  0  0  0  0  0  0  0  0  0  0  0
    2.8002   -1.3207   -0.1409 S   0  0  0  0  0  0  0  0  0  0  0  0
    3.6010   -1.9067    0.9207 O   0  0  0  0  0  0  0  0  0  0  0  0
    3.2398   -1.4126   -1.5230 O   0  0  0  0  0  0  0  0  0  0  0  0
   -2.9526   -1.2299   -1.5129 O   0  0  0  0  0  0  0  0  0  0  0  0
   -2.3211    0.1594    0.2417 N   0  0  0  0  0  0  0  0  0  0  0  0
    0.1501   -1.2514   -0.3413 N   0  0  0  0  0  0  0  0  0  0  0  0
    1.1390   -3.3380    0.3482 N   0  0  0  0  0  0  0  0  0  0  0  0
    2.5265    0.3822    0.2273 C   0  0  0  0  0  0  0  0  0  0  0  0
    3.8411    1.0834    0.1597 C   0  0  0  0  0  0  0  0  0  0  0  0
   -3.3189    1.1654    0.1936 C   0  0  0  0  0  0  0  0  0  0  0  0
    1.1916   -2.0476   -0.0331 C   0  0  0  0  0  0  0  0  0  0  0  0
   -4.6618    0.8243    0.3563 C   0  0  0  0  0  0  0  0  0  0  0  0
   -2.9580    2.4965   -0.0156 C   0  0  0  0  0  0  0  0  0  0  0  0
   -1.0616   -1.8376   -0.2485 C   0  0  0  0  0  0  0  0  0  0  0  0
    4.2757    1.6360   -1.0453 C   0  0  0  0  0  0  0  0  0  0  0  0
    4.6360    1.1871    1.3012 C   0  0  0  0  0  0  0  0  0  0  0  0
   -5.6434    1.8144    0.3098 C   0  0  0  0  0  0  0  0  0  0  0  0
   -3.9396    3.4864   -0.0619 C   0  0  0  0  0  0  0  0  0  0  0  0
   -2.1777   -0.9647   -0.5848 C   0  0  0  0  0  0  0  0  0  0  0  0
   -5.2822    3.1454    0.1007 C   0  0  0  0  0  0  0  0  0  0  0  0
   -5.0800   -0.5927    0.5818 C   0  0  0  0  0  0  0  0  0  0  0  0
   -1.5281    2.8934   -0.1924 C   0  0  0  0  0  0  0  0  0  0  0  0
   -1.2510   -3.1509    0.1303 C   0  0  0  0  0  0  0  0  0  0  0  0
    5.5051    2.2919   -1.1086 C   0  0  0  0  0  0  0  0  0  0  0  0
    5.8653    1.8432    1.2378 C   0  0  0  0  0  0  0  0  0  0  0  0
   -0.1031   -3.8602    0.4196 C   0  0  0  0  0  0  0  0  0  0  0  0
    6.2998    2.3956    0.0328 C   0  0  0  0  0  0  0  0  0  0  0  0
    2.0812    0.4603    1.2243 H   0  0  0  0  0  0  0  0  0  0  0  0
    1.8252    0.8006   -0.5013 H   0  0  0  0  0  0  0  0  0  0  0  0
   -1.4751    0.4297    0.7400 H   0  0  0  0  0  0  0  0  0  0  0  0
    3.6660    1.5634   -1.9420 H   0  0  0  0  0  0  0  0  0  0  0  0
    4.3092    0.7618    2.2464 H   0  0  0  0  0  0  0  0  0  0  0  0
   -6.6939    1.5642    0.4323 H   0  0  0  0  0  0  0  0  0  0  0  0
   -3.6761    4.5285   -0.2228 H   0  0  0  0  0  0  0  0  0  0  0  0
   -6.0465    3.9161    0.0643 H   0  0  0  0  0  0  0  0  0  0  0  0
   -5.2011   -1.1185   -0.3692 H   0  0  0  0  0  0  0  0  0  0  0  0
   -4.3762   -1.1329    1.2223 H   0  0  0  0  0  0  0  0  0  0  0  0
   -6.0443   -0.6324    1.1024 H   0  0  0  0  0  0  0  0  0  0  0  0
   -0.9704    2.7350    0.7364 H   0  0  0  0  0  0  0  0  0  0  0  0
   -1.0622    2.3154   -0.9978 H   0  0  0  0  0  0  0  0  0  0  0  0
   -1.4294    3.9512   -0.4599 H   0  0  0  0  0  0  0  0  0  0  0  0
    5.8434    2.7222   -2.0467 H   0  0  0  0  0  0  0  0  0  0  0  0
    6.4843    1.9241    2.1266 H   0  0  0  0  0  0  0  0  0  0  0  0
   -0.1384   -4.9007    0.7275 H   0  0  0  0  0  0  0  0  0  0  0  0
    7.2570    2.9064   -0.0164 H   0  0  0  0  0  0  0  0  0  0  0  0
  1 24  1  0  0  0  0
  2  3  2  0  0  0  0
  2  4  2  0  0  0  0
  2  9  1  0  0  0  0
  2 12  1  0  0  0  0
  5 20  2  0  0  0  0
  6 11  1  0  0  0  0
  6 20  1  0  0  0  0
  6 31  1  0  0  0  0
  7 12  1  0  0  0  0
  7 15  2  0  0  0  0
  8 12  2  0  0  0  0
  8 27  1  0  0  0  0
  9 10  1  0  0  0  0
  9 29  1  0  0  0  0
  9 30  1  0  0  0  0
 10 16  2  0  0  0  0
 10 17  1  0  0  0  0
 11 13  2  0  0  0  0
 11 14  1  0  0  0  0
 13 18  1  0  0  0  0
 13 22  1  0  0  0  0
 14 19  2  0  0  0  0
 14 23  1  0  0  0  0
 15 20  1  0  0  0  0
 15 24  1  0  0  0  0
 16 25  1  0  0  0  0
 16 32  1  0  0  0  0
 17 26  2  0  0  0  0
 17 33  1  0  0  0  0
 18 21  2  0  0  0  0
 18 34  1  0  0  0  0
 19 21  1  0  0  0  0
 19 35  1  0  0  0  0
 21 36  1  0  0  0  0
 22 37  1  0  0  0  0
 22 38  1  0  0  0  0
 22 39  1  0  0  0  0
 23 40  1  0  0  0  0
 23 41  1  0  0  0  0
 23 42  1  0  0  0  0
 24 27  2  0  0  0  0
 25 28  2  0  0  0  0
 25 43  1  0  0  0  0
 26 28  1  0  0  0  0
 26 44  1  0  0  0  0
 27 45  1  0  0  0  0
 28 46  1  0  0  0  0
M  END
> <PUBCHEM_COMPOUND_CID>
16446092

> <PUBCHEM_CONFORMER_RMSD>
0.8

> <PUBCHEM_CONFORMER_DIVERSEORDER>
1
67
22
36
125
122
82
115
112
135
134
66
34
51
52
44
28
123
133
78
88
92
129
71
65
19
108
101
72
96
38
5
70
57
80
27
107
77
106
41
83
120
16
20
111
113
76
26
13
24
50
95
40
132
114
25
18
103
130
79
45
30
69
47
49
105
68
32
102
75
118
59
31
74
85
33
90
48
100
117
46
81
53
104
87
126
14
42
11
58
23
128
10
54
63
127
29
55
91
43
62
7
116
93
37
73
3
60
35
56
119
8
99
124
94
121
21
61
110
2
98
97
6
109
9
86
15
4
131
89
17
84
12
64
39

> <PUBCHEM_MMFF94_PARTIAL_CHARGES>
38
1 -0.18
10 -0.14
11 0.12
12 0.61
13 -0.14
14 -0.14
15 0.4
16 -0.15
17 -0.15
18 -0.15
19 -0.15
2 1.2
20 0.54
21 -0.15
22 0.14
23 0.14
24 0.18
25 -0.15
26 -0.15
27 0.16
28 -0.15
3 -0.65
31 0.37
32 0.15
33 0.15
34 0.15
35 0.15
36 0.15
4 -0.65
43 0.15
44 0.15
45 0.15
46 0.15
5 -0.57
6 -0.55
7 -0.62
8 -0.62
9 0.25

> <PUBCHEM_EFFECTIVE_ROTOR_COUNT>
6

> <PUBCHEM_PHARMACOPHORE_FEATURES>
9
1 3 acceptor
1 4 acceptor
1 5 acceptor
1 6 donor
1 7 acceptor
3 7 8 12 cation
6 10 16 17 25 26 28 rings
6 11 13 14 18 19 21 rings
6 7 8 12 15 24 27 rings

> <PUBCHEM_HEAVY_ATOM_COUNT>
28

> <PUBCHEM_ATOM_DEF_STEREO_COUNT>
0

> <PUBCHEM_ATOM_UDEF_STEREO_COUNT>
0

> <PUBCHEM_BOND_DEF_STEREO_COUNT>
0

> <PUBCHEM_BOND_UDEF_STEREO_COUNT>
0

> <PUBCHEM_ISOTOPIC_ATOM_COUNT>
0

> <PUBCHEM_COMPONENT_COUNT>
1

> <PUBCHEM_CACTVS_TAUTO_COUNT>
2

> <PUBCHEM_CONFORMER_ID>
00FAF28C00000001

> <PUBCHEM_MMFF94_ENERGY>
88.8277

> <PUBCHEM_FEATURE_SELFOVERLAP>
45.69

> <PUBCHEM_SHAPE_FINGERPRINT>
10050765 1 18410576210683911242
10670039 82 18337114587704951740
10871710 139 18341044203354326519
10937287 8 18339080393339226291
11059845 2 18194090033654150896
11135609 187 18336250268613217085
11513181 2 18201722846762310534
11720765 8 17486221015950074526
12107183 9 18262504919952505586
12390115 104 18341344390934366106
12788726 201 18118397590633300563
12978246 48 18334857238092334788
1361 2 18336549322268733473
13617811 41 18409439311376516109
13965767 371 18040990692596038390
14251764 75 18199477567067974977
14395042 24 18116154566397370379
14790565 3 18410859828395258145
14840074 17 17531256092594694452
14849402 71 18120093888372933434
15142526 21 18188776029111015515
15320467 1 18410293622672555800
16087824 20 18268989955914716999
18608769 82 18197783400027213547
21033650 10 17972619924840116230
21133410 127 17897169022554466084
21133410 221 17341786157511375936
21302155 148 18410012139026302240
21365058 113 17194618351135683111
21756936 100 18341889748965168806
23522609 53 17604718910666052860
23559900 14 17761489184991910451
245318 6 18115041735274383980
283562 15 18191298480531694579
2838139 119 18201429329245374796
3459 39 18270378565188744864
350125 39 18264490590274656734
44249763 50 17416392372241197544
469060 322 18048897465068156187
508706 21 18127961117270579968
5104073 3 18262806159804080121
550186 72 18410573998997131061
5776283 40 18266760004076862214
6608658 132 18127395959936265735
6700243 42 17334255649637983398
7288768 16 18113620101020143571
7808743 9 18410572924526689872
9849439 229 18410009892927068393
9981440 41 18334860519547102235

> <PUBCHEM_SHAPE_MULTIPOLES>
549.4
14.28
5.42
1.02
9.24
2.58
0.1
-15.62
-1.53
-3.66
-0.23
1.03
-0.07
-0.18

> <PUBCHEM_SHAPE_SELFOVERLAP>
1165.644

> <PUBCHEM_SHAPE_VOLUME>
308.1

> <PUBCHEM_COORDINATE_TYPE>
2
5
10

$$$$
