789893
  -OEChem-01171809423D

 30 32  0     0  0  0  0  0  0999 V2000
   -0.1455    1.8159   -0.0003 O   0  0  0  0  0  0  0  0  0  0  0  0
    5.7880   -0.2833    0.0015 O   0  0  0  0  0  0  0  0  0  0  0  0
   -0.7192   -0.3493   -0.0010 N   0  0  0  0  0  0  0  0  0  0  0  0
   -1.5457    1.7840   -0.0003 N   0  0  0  0  0  0  0  0  0  0  0  0
   -4.1328    0.8754    0.0008 N   0  0  0  0  0  0  0  0  0  0  0  0
    1.6803    0.3128   -0.0009 C   0  0  0  0  0  0  0  0  0  0  0  0
    0.2529    0.5201   -0.0011 C   0  0  0  0  0  0  0  0  0  0  0  0
    2.5439    1.4081    0.0001 C   0  0  0  0  0  0  0  0  0  0  0  0
    2.1970   -0.9829   -0.0013 C   0  0  0  0  0  0  0  0  0  0  0  0
    4.4412   -0.0880    0.0002 C   0  0  0  0  0  0  0  0  0  0  0  0
    3.9243    1.2077    0.0006 C   0  0  0  0  0  0  0  0  0  0  0  0
    3.5774   -1.1834   -0.0008 C   0  0  0  0  0  0  0  0  0  0  0  0
   -1.8077    0.4735   -0.0003 C   0  0  0  0  0  0  0  0  0  0  0  0
   -3.1446   -0.0472    0.0001 C   0  0  0  0  0  0  0  0  0  0  0  0
   -3.3616   -1.4158   -0.0003 C   0  0  0  0  0  0  0  0  0  0  0  0
   -4.6771   -1.8664    0.0001 C   0  0  0  0  0  0  0  0  0  0  0  0
   -5.7208   -0.9475    0.0007 C   0  0  0  0  0  0  0  0  0  0  0  0
   -5.3985    0.4001    0.0011 C   0  0  0  0  0  0  0  0  0  0  0  0
    6.2485   -1.6338    0.0010 C   0  0  0  0  0  0  0  0  0  0  0  0
    2.1799    2.4323    0.0006 H   0  0  0  0  0  0  0  0  0  0  0  0
    1.5414   -1.8506   -0.0021 H   0  0  0  0  0  0  0  0  0  0  0  0
    4.5926    2.0645    0.0016 H   0  0  0  0  0  0  0  0  0  0  0  0
    3.9110   -2.2155   -0.0010 H   0  0  0  0  0  0  0  0  0  0  0  0
   -2.5523   -2.1386   -0.0008 H   0  0  0  0  0  0  0  0  0  0  0  0
   -4.8889   -2.9314   -0.0002 H   0  0  0  0  0  0  0  0  0  0  0  0
   -6.7537   -1.2758    0.0010 H   0  0  0  0  0  0  0  0  0  0  0  0
   -6.1758    1.1571    0.0017 H   0  0  0  0  0  0  0  0  0  0  0  0
    5.9447   -2.1622   -0.9090 H   0  0  0  0  0  0  0  0  0  0  0  0
    5.9433   -2.1632    0.9100 H   0  0  0  0  0  0  0  0  0  0  0  0
    7.3430   -1.6020    0.0020 H   0  0  0  0  0  0  0  0  0  0  0  0
  1  4  1  0  0  0  0
  1  7  1  0  0  0  0
  2 10  1  0  0  0  0
  2 19  1  0  0  0  0
  3  7  2  0  0  0  0
  3 13  1  0  0  0  0
  4 13  2  0  0  0  0
  5 14  1  0  0  0  0
  5 18  2  0  0  0  0
  6  7  1  0  0  0  0
  6  8  2  0  0  0  0
  6  9  1  0  0  0  0
  8 11  1  0  0  0  0
  8 20  1  0  0  0  0
  9 12  2  0  0  0  0
  9 21  1  0  0  0  0
 10 11  2  0  0  0  0
 10 12  1  0  0  0  0
 11 22  1  0  0  0  0
 12 23  1  0  0  0  0
 13 14  1  0  0  0  0
 14 15  2  0  0  0  0
 15 16  1  0  0  0  0
 15 24  1  0  0  0  0
 16 17  2  0  0  0  0
 16 25  1  0  0  0  0
 17 18  1  0  0  0  0
 17 26  1  0  0  0  0
 18 27  1  0  0  0  0
 19 28  1  0  0  0  0
 19 29  1  0  0  0  0
 19 30  1  0  0  0  0
M  END
> <PUBCHEM_COMPOUND_CID>
789893

> <PUBCHEM_CONFORMER_RMSD>
0.6

> <PUBCHEM_CONFORMER_DIVERSEORDER>
1
5
8
6
7
3
4
2

> <PUBCHEM_MMFF94_PARTIAL_CHARGES>
27
1 -0.02
10 0.08
11 -0.15
12 -0.15
13 0.46
14 0.36
15 -0.15
16 -0.15
17 -0.15
18 0.16
19 0.28
2 -0.36
20 0.15
21 0.15
22 0.15
23 0.15
24 0.15
25 0.15
26 0.15
27 0.15
3 -0.57
4 -0.41
5 -0.62
6 0.05
7 0.43
8 -0.15
9 -0.15

> <PUBCHEM_EFFECTIVE_ROTOR_COUNT>
3

> <PUBCHEM_PHARMACOPHORE_FEATURES>
6
1 2 acceptor
1 5 acceptor
3 3 4 13 cation
5 1 3 4 7 13 rings
6 5 14 15 16 17 18 rings
6 6 8 9 10 11 12 rings

> <PUBCHEM_HEAVY_ATOM_COUNT>
19

> <PUBCHEM_ATOM_DEF_STEREO_COUNT>
0

> <PUBCHEM_ATOM_UDEF_STEREO_COUNT>
0

> <PUBCHEM_BOND_DEF_STEREO_COUNT>
0

> <PUBCHEM_BOND_UDEF_STEREO_COUNT>
0

> <PUBCHEM_ISOTOPIC_ATOM_COUNT>
0

> <PUBCHEM_COMPONENT_COUNT>
1

> <PUBCHEM_CACTVS_TAUTO_COUNT>
1

> <PUBCHEM_CONFORMER_ID>
000C0D8500000001

> <PUBCHEM_MMFF94_ENERGY>
50.5608

> <PUBCHEM_FEATURE_SELFOVERLAP>
30.446

> <PUBCHEM_SHAPE_FINGERPRINT>
10968037 39 18407761447524701663
11315181 36 18202004339261306729
11524674 6 16845572015276848319
12107183 9 17763184635625740353
12236239 1 18342459248485214504
12516196 113 18131348626506247729
12596602 18 16128371627276879251
12916748 109 8935005892644896535
13167823 11 18410572911647231335
13288520 33 18410575089490828735
13685833 64 18335706078754833731
13740256 8 18410575123655472699
13862211 1 18341611542453464535
1420 363 18343023289618876358
14251752 14 17531518785383357247
14251764 18 18272938241559320507
14350574 20 18334013891461958798
15196674 1 18410575123323065831
15352361 1 18410575088963327467
15788980 27 18186522120220019297
17834072 33 18410576218545111596
17844677 252 18410862070368284081
17857418 61 18410009922975878906
1813 80 17385722517185683029
18222031 100 17748825216137103708
19141452 34 18342176704700035239
200 152 18343864420008301569
20028762 73 18342453742876094894
20374829 77 18408602556587061291
20645477 70 18411700971848913926
21150785 3 15647060386558647702
21267235 1 18410300206761474634
21709351 56 18186515505685579957
221490 88 18118128202179136163
22224240 67 16630518540532276126
23035841 295 18335421253028353411
23402539 116 18408881832503560791
23522609 53 18120969194287020892
23557571 272 18341334392313837124
23559900 14 18337949090490580801
239999 70 18343024398137209286
26918003 58 18272932717434903225
2871803 45 18259701198912113906
3004659 81 18187081758779951234
335352 9 18410572882347286741
351380 3 18408882944905767786
4073 2 18041284369115998818
4214541 1 18410856547309106913
4463277 17 18411419518262539588
465052 167 18343587352200981678
5104073 3 18342177790667294401
5283173 99 18187636960787113389
542803 24 13695584447105997629
559249 180 18410009919229401279
59682541 35 18271234011626950634
59755656 215 18335985277024701342
7495541 125 17989202681215189328
77779 3 18410856581462902597
9709674 26 18262805180192976307
9971528 1 17967532419312508420

> <PUBCHEM_SHAPE_MULTIPOLES>
364.33
14.63
1.78
0.59
1.66
0.04
0
6.26
-0.01
0.08
0
0
0.02
0

> <PUBCHEM_SHAPE_SELFOVERLAP>
803.071

> <PUBCHEM_SHAPE_VOLUME>
197.1

> <PUBCHEM_COORDINATE_TYPE>
2
5
10

$$$$
