24202844
  -OEChem-01171810163D

 46 48  0     1  0  0  0  0  0999 V2000
    0.9441   -3.7934   -0.3767 S   0  0  0  0  0  0  0  0  0  0  0  0
    3.5118    1.6419    0.1407 O   0  0  0  0  0  0  0  0  0  0  0  0
    2.0315   -2.2504    2.0386 O   0  0  0  0  0  0  0  0  0  0  0  0
   -3.5952   -0.0276    1.9820 O   0  0  0  0  0  0  0  0  0  0  0  0
   -5.1548    1.3011    0.1036 O   0  0  0  0  0  0  0  0  0  0  0  0
    5.2147    1.5951   -1.4197 O   0  0  0  0  0  0  0  0  0  0  0  0
    0.2769    0.1166   -1.0304 C   0  0  1  0  0  0  0  0  0  0  0  0
    1.3051    0.7431   -0.0425 C   0  0  1  0  0  0  0  0  0  0  0  0
    0.3699   -1.3846   -1.0794 C   0  0  0  0  0  0  0  0  0  0  0  0
    1.5271   -0.0677    1.2250 C   0  0  0  0  0  0  0  0  0  0  0  0
   -1.1797    0.4332   -0.7227 C   0  0  0  0  0  0  0  0  0  0  0  0
    2.6605    0.9418   -0.7422 C   0  0  0  0  0  0  0  0  0  0  0  0
    0.9648   -2.1194   -0.0716 C   0  0  0  0  0  0  0  0  0  0  0  0
    1.5477   -1.5713    1.1366 C   0  0  0  0  0  0  0  0  0  0  0  0
   -0.0839   -2.2343   -2.1380 C   0  0  0  0  0  0  0  0  0  0  0  0
   -1.7321    0.0557    0.5012 C   0  0  0  0  0  0  0  0  0  0  0  0
   -1.9624    1.1004   -1.6651 C   0  0  0  0  0  0  0  0  0  0  0  0
    0.1596   -3.5655   -1.8798 C   0  0  0  0  0  0  0  0  0  0  0  0
    1.6867    0.4956    2.4315 C   0  0  0  0  0  0  0  0  0  0  0  0
   -3.0673    0.3452    0.7827 C   0  0  0  0  0  0  0  0  0  0  0  0
   -3.2975    1.3898   -1.3836 C   0  0  0  0  0  0  0  0  0  0  0  0
   -3.8499    1.0123   -0.1596 C   0  0  0  0  0  0  0  0  0  0  0  0
    4.7750    1.9095   -0.3221 C   0  0  0  0  0  0  0  0  0  0  0  0
    5.5607    2.6531    0.7152 C   0  0  0  0  0  0  0  0  0  0  0  0
   -2.7281   -0.7053    2.8892 C   0  0  0  0  0  0  0  0  0  0  0  0
   -5.8852    1.9851   -0.9128 C   0  0  0  0  0  0  0  0  0  0  0  0
    0.4969    0.4978   -2.0377 H   0  0  0  0  0  0  0  0  0  0  0  0
    0.9429    1.7422    0.2423 H   0  0  0  0  0  0  0  0  0  0  0  0
    2.5251    1.5364   -1.6539 H   0  0  0  0  0  0  0  0  0  0  0  0
    3.1135   -0.0199   -1.0138 H   0  0  0  0  0  0  0  0  0  0  0  0
   -0.5690   -1.8860   -3.0410 H   0  0  0  0  0  0  0  0  0  0  0  0
   -1.1026   -0.4671    1.2061 H   0  0  0  0  0  0  0  0  0  0  0  0
   -1.5459    1.4006   -2.6229 H   0  0  0  0  0  0  0  0  0  0  0  0
   -0.0842   -4.4136   -2.5040 H   0  0  0  0  0  0  0  0  0  0  0  0
    1.6707    1.5748    2.5472 H   0  0  0  0  0  0  0  0  0  0  0  0
    1.8313   -0.0889    3.3337 H   0  0  0  0  0  0  0  0  0  0  0  0
   -3.8446    1.9099   -2.1622 H   0  0  0  0  0  0  0  0  0  0  0  0
    5.0735    3.6064    0.9349 H   0  0  0  0  0  0  0  0  0  0  0  0
    6.5661    2.8539    0.3345 H   0  0  0  0  0  0  0  0  0  0  0  0
    5.6453    2.0463    1.6201 H   0  0  0  0  0  0  0  0  0  0  0  0
   -3.3128   -0.9249    3.7887 H   0  0  0  0  0  0  0  0  0  0  0  0
   -1.8931   -0.0692    3.2028 H   0  0  0  0  0  0  0  0  0  0  0  0
   -2.3938   -1.6678    2.4870 H   0  0  0  0  0  0  0  0  0  0  0  0
   -6.9022    2.1326   -0.5349 H   0  0  0  0  0  0  0  0  0  0  0  0
   -5.9690    1.3832   -1.8241 H   0  0  0  0  0  0  0  0  0  0  0  0
   -5.4710    2.9804   -1.1069 H   0  0  0  0  0  0  0  0  0  0  0  0
  1 13  1  0  0  0  0
  1 18  1  0  0  0  0
  2 12  1  0  0  0  0
  2 23  1  0  0  0  0
  3 14  2  0  0  0  0
  4 20  1  0  0  0  0
  4 25  1  0  0  0  0
  5 22  1  0  0  0  0
  5 26  1  0  0  0  0
  6 23  2  0  0  0  0
  7  8  1  0  0  0  0
  7  9  1  0  0  0  0
  7 11  1  0  0  0  0
  7 27  1  0  0  0  0
  8 10  1  0  0  0  0
  8 12  1  0  0  0  0
  8 28  1  0  0  0  0
  9 13  2  0  0  0  0
  9 15  1  0  0  0  0
 10 14  1  0  0  0  0
 10 19  2  0  0  0  0
 11 16  2  0  0  0  0
 11 17  1  0  0  0  0
 12 29  1  0  0  0  0
 12 30  1  0  0  0  0
 13 14  1  0  0  0  0
 15 18  2  0  0  0  0
 15 31  1  0  0  0  0
 16 20  1  0  0  0  0
 16 32  1  0  0  0  0
 17 21  2  0  0  0  0
 17 33  1  0  0  0  0
 18 34  1  0  0  0  0
 19 35  1  0  0  0  0
 19 36  1  0  0  0  0
 20 22  2  0  0  0  0
 21 22  1  0  0  0  0
 21 37  1  0  0  0  0
 23 24  1  0  0  0  0
 24 38  1  0  0  0  0
 24 39  1  0  0  0  0
 24 40  1  0  0  0  0
 25 41  1  0  0  0  0
 25 42  1  0  0  0  0
 25 43  1  0  0  0  0
 26 44  1  0  0  0  0
 26 45  1  0  0  0  0
 26 46  1  0  0  0  0
M  END
> <PUBCHEM_COMPOUND_CID>
24202844

> <PUBCHEM_CONFORMER_RMSD>
0.8

> <PUBCHEM_CONFORMER_DIVERSEORDER>
1
111
62
126
104
177
56
61
72
128
136
187
196
32
132
77
182
36
169
47
96
11
71
207
99
164
183
14
68
135
153
117
204
158
195
181
112
53
171
97
159
208
81
156
76
37
161
163
63
200
69
42
157
201
51
150
105
180
209
84
45
216
46
78
151
197
107
162
190
147
50
176
101
184
40
27
170
142
141
145
25
80
29
168
34
114
137
103
30
44
24
48
82
33
133
102
39
87
15
167
65
206
173
90
121
8
188
123
186
192
41
49
91
85
100
115
113
86
95
55
152
74
129
174
64
215
210
18
93
179
73
134
166
205
57
94
202
116
52
119
67
130
23
139
203
26
120
35
110
16
118
213
217
140
59
28
144
125
194
160
212
70
165
13
108
178
83
4
58
148
54
19
38
98
106
218
185
198
199
143
60
2
219
20
191
211
22
138
12
214
21
155
131
122
3
149
6
88
124
75
89
92
109
127
9
175
172
5
17
66
189
154
10
79
43
31
146
7
193

> <PUBCHEM_MMFF94_PARTIAL_CHARGES>
33
1 -0.08
10 -0.12
11 -0.14
12 0.28
13 -0.05
14 0.64
15 -0.15
16 -0.15
17 -0.15
18 -0.11
19 -0.3
2 -0.43
20 0.08
21 -0.15
22 0.08
23 0.66
24 0.06
25 0.28
26 0.28
3 -0.57
31 0.15
32 0.15
33 0.15
34 0.15
35 0.15
36 0.15
37 0.15
4 -0.36
5 -0.36
6 -0.57
7 0.32
8 0.14
9 -0.18

> <PUBCHEM_EFFECTIVE_ROTOR_COUNT>
6.4

> <PUBCHEM_PHARMACOPHORE_FEATURES>
7
1 3 acceptor
1 4 acceptor
1 5 acceptor
1 6 acceptor
5 1 9 13 15 18 rings
6 11 16 17 20 21 22 rings
6 7 8 9 10 13 14 rings

> <PUBCHEM_HEAVY_ATOM_COUNT>
26

> <PUBCHEM_ATOM_DEF_STEREO_COUNT>
0

> <PUBCHEM_ATOM_UDEF_STEREO_COUNT>
2

> <PUBCHEM_BOND_DEF_STEREO_COUNT>
0

> <PUBCHEM_BOND_UDEF_STEREO_COUNT>
0

> <PUBCHEM_ISOTOPIC_ATOM_COUNT>
0

> <PUBCHEM_COMPONENT_COUNT>
1

> <PUBCHEM_CACTVS_TAUTO_COUNT>
1

> <PUBCHEM_CONFORMER_ID>
01714E5C00000001

> <PUBCHEM_MMFF94_ENERGY>
78.728

> <PUBCHEM_FEATURE_SELFOVERLAP>
35.584

> <PUBCHEM_SHAPE_FINGERPRINT>
10764073 3 16732973203188344610
11488393 25 18193575380133841926
11823591 26 18341599439188268620
12633257 1 17168688757068958585
12788726 201 17838875368264689062
12930653 34 17603590741749777121
133893 2 17914341177738980039
13681431 1 17768537083942002654
14178342 30 16226058807540960241
14251751 93 18265895946317878478
14341114 328 16587744269689267380
14713325 29 17700703032299968510
14955137 171 18193267500072664050
15219462 58 15722450467243832126
17980427 23 15502670358992995135
17980427 26 15364668283690040743
1813 80 17270048190369997414
20600515 1 16526081149569119894
20691752 17 17132116827349645864
21033648 29 18340479084216678080
21756936 100 17750794544679101388
23419403 2 17691459291942949314
23557571 272 17386876970340888835
23558518 356 17613992311255119844
23559900 14 17387427743946312743
3411729 13 18187081707077196804
35225 105 17985535887172712291
3729539 64 18125747624961265798
59554788 62 14273721967394955864
59755656 520 17844831328341464366
6669772 16 18340778083150041134
81228 2 17619899999751649350
9862522 239 18261954175641725202

> <PUBCHEM_SHAPE_MULTIPOLES>
509.57
9.38
3.57
2.33
1.47
3.75
1.35
-12.09
-0.74
-3.04
-1.35
0.77
0.66
0.32

> <PUBCHEM_SHAPE_SELFOVERLAP>
1084.798

> <PUBCHEM_SHAPE_VOLUME>
287.1

> <PUBCHEM_COORDINATE_TYPE>
2
5
10

$$$$
