364428
  -OEChem-01171810143D

 18 19  0     0  0  0  0  0  0999 V2000
   -0.9295   -1.1348   -0.2554 S   0  0  0  0  0  0  0  0  0  0  0  0
    2.5712    1.2812   -0.4294 S   0  0  0  0  0  0  0  0  0  0  0  0
   -4.6978   -0.1344   -0.0525 O   0  0  0  0  0  0  0  0  0  0  0  0
    0.1274    0.1762    0.0548 C   0  0  0  0  0  0  0  0  0  0  0  0
    1.5344   -0.0041    0.0236 C   0  0  0  0  0  0  0  0  0  0  0  0
   -0.5581    1.3416    0.3182 C   0  0  0  0  0  0  0  0  0  0  0  0
   -2.3092   -0.1443   -0.0376 C   0  0  0  0  0  0  0  0  0  0  0  0
   -1.9697    1.1560    0.2648 C   0  0  0  0  0  0  0  0  0  0  0  0
    2.2348   -1.1508    0.3272 C   0  0  0  0  0  0  0  0  0  0  0  0
    3.6413   -0.9716    0.1863 C   0  0  0  0  0  0  0  0  0  0  0  0
    3.9622    0.3049   -0.2198 C   0  0  0  0  0  0  0  0  0  0  0  0
   -3.6070   -0.7201   -0.1804 C   0  0  0  0  0  0  0  0  0  0  0  0
   -0.0931    2.2921    0.5493 H   0  0  0  0  0  0  0  0  0  0  0  0
   -2.6938    1.9412    0.4422 H   0  0  0  0  0  0  0  0  0  0  0  0
    1.7844   -2.0829    0.6456 H   0  0  0  0  0  0  0  0  0  0  0  0
    4.3803   -1.7394    0.3751 H   0  0  0  0  0  0  0  0  0  0  0  0
    4.9470    0.7111   -0.4028 H   0  0  0  0  0  0  0  0  0  0  0  0
   -3.6355   -1.7961   -0.4293 H   0  0  0  0  0  0  0  0  0  0  0  0
  1  4  1  0  0  0  0
  1  7  1  0  0  0  0
  2  5  1  0  0  0  0
  2 11  1  0  0  0  0
  3 12  2  0  0  0  0
  4  5  1  0  0  0  0
  4  6  2  0  0  0  0
  5  9  2  0  0  0  0
  6  8  1  0  0  0  0
  6 13  1  0  0  0  0
  7  8  2  0  0  0  0
  7 12  1  0  0  0  0
  8 14  1  0  0  0  0
  9 10  1  0  0  0  0
  9 15  1  0  0  0  0
 10 11  2  0  0  0  0
 10 16  1  0  0  0  0
 11 17  1  0  0  0  0
 12 18  1  0  0  0  0
M  END
> <PUBCHEM_COMPOUND_CID>
364428

> <PUBCHEM_CONFORMER_RMSD>
0.6

> <PUBCHEM_CONFORMER_DIVERSEORDER>
1
4
2
3

> <PUBCHEM_MMFF94_PARTIAL_CHARGES>
18
1 -0.08
10 -0.15
11 -0.11
12 0.59
13 0.15
14 0.15
15 0.15
16 0.15
17 0.15
18 0.06
2 -0.08
3 -0.57
4 0.04
5 0.04
6 -0.15
7 -0.05
8 -0.15
9 -0.15

> <PUBCHEM_EFFECTIVE_ROTOR_COUNT>
2

> <PUBCHEM_PHARMACOPHORE_FEATURES>
3
1 3 acceptor
5 1 4 6 7 8 rings
5 2 5 9 10 11 rings

> <PUBCHEM_HEAVY_ATOM_COUNT>
12

> <PUBCHEM_ATOM_DEF_STEREO_COUNT>
0

> <PUBCHEM_ATOM_UDEF_STEREO_COUNT>
0

> <PUBCHEM_BOND_DEF_STEREO_COUNT>
0

> <PUBCHEM_BOND_UDEF_STEREO_COUNT>
0

> <PUBCHEM_ISOTOPIC_ATOM_COUNT>
0

> <PUBCHEM_COMPONENT_COUNT>
1

> <PUBCHEM_CACTVS_TAUTO_COUNT>
1

> <PUBCHEM_CONFORMER_ID>
00058F8C00000001

> <PUBCHEM_MMFF94_ENERGY>
13.6197

> <PUBCHEM_FEATURE_SELFOVERLAP>
15.223

> <PUBCHEM_SHAPE_FINGERPRINT>
10130415 120 18412824698486110281
11062470 55 17240482515718732095
11471102 20 18335136514092502724
12032990 46 18411704296285281291
12932764 1 16558455410180945126
13581323 91 17989485208347941982
13690532 89 18336263461955775082
13760787 5 18411418436468539597
14115302 16 18114752628056112574
14144814 61 18410856529938989504
14251717 144 18333169475048038214
14325111 11 18411138000436252856
14993402 34 18411140246540482141
15477762 27 18335140878111682230
177051 138 18343021060541308278
17802600 8 18409162212606807452
18186145 218 17458619025689388095
18522853 276 18413668015525903784
19026448 4 17095241445237656119
19422 9 18412549777560927970
200 152 18411696582376149215
20201158 50 18335422365530436570
20279233 1 15574717988944088648
20281475 54 18343580763599771487
20510252 161 17988927721371602921
20528008 55 18410290341221589291
20559304 39 18412262822712395152
20645477 70 18334573516726233639
21119208 17 18333731325131064278
21267235 1 18410865347517709398
21501925 9 18409441475748895584
22485316 2 18341609343398326455
23402539 116 18202556276812995117
23402655 69 18408319973456177429
23463225 33 18411700954584434238
23559900 14 18411697721033047744
5104073 3 18410855426069254192
5374978 207 18341607127089700584
537710 114 18411985792531210549
57096353 35 18409733997244400292
57812782 119 17749389264979484972
69090 78 18341890813832396871
7364860 26 18271525407461597784

> <PUBCHEM_SHAPE_MULTIPOLES>
248.78
7.51
1.41
0.68
2.43
0.14
0.01
-1.04
0.38
-0.35
-0.03
-0.09
0.02
-0.42

> <PUBCHEM_SHAPE_SELFOVERLAP>
511.646

> <PUBCHEM_SHAPE_VOLUME>
144.4

> <PUBCHEM_COORDINATE_TYPE>
2
5
10

$$$$
