2351439
  -OEChem-01171810023D

 40 41  0     0  0  0  0  0  0999 V2000
   -2.1895    0.3021   -1.8507 O   0  0  0  0  0  0  0  0  0  0  0  0
    5.6150    2.4231    0.4027 O   0  5  0  0  0  0  0  0  0  0  0  0
    3.6091    2.0072   -0.3982 O   0  0  0  0  0  0  0  0  0  0  0  0
   -2.9881    1.3034    0.0834 N   0  0  0  0  0  0  0  0  0  0  0  0
    4.7331    1.6284    0.0041 N   0  3  0  0  0  0  0  0  0  0  0  0
   -0.9188   -0.1046    2.5899 N   0  0  0  0  0  0  0  0  0  0  0  0
   -4.2917    1.6401   -0.4394 C   0  0  0  0  0  0  0  0  0  0  0  0
   -5.2424    0.5111   -0.1815 C   0  0  0  0  0  0  0  0  0  0  0  0
    4.0954   -0.7074   -0.4196 C   0  0  0  0  0  0  0  0  0  0  0  0
   -5.3820   -0.5031   -1.1240 C   0  0  0  0  0  0  0  0  0  0  0  0
   -5.9789    0.4841    0.9989 C   0  0  0  0  0  0  0  0  0  0  0  0
    5.0208    0.2339    0.0074 C   0  0  0  0  0  0  0  0  0  0  0  0
    4.3959   -2.0624   -0.4089 C   0  0  0  0  0  0  0  0  0  0  0  0
   -6.2669   -1.5544   -0.8840 C   0  0  0  0  0  0  0  0  0  0  0  0
   -6.8636   -0.5673    1.2388 C   0  0  0  0  0  0  0  0  0  0  0  0
    2.7618   -0.3056   -0.9003 C   0  0  0  0  0  0  0  0  0  0  0  0
   -2.0364    0.6529   -0.6824 C   0  0  0  0  0  0  0  0  0  0  0  0
    6.2729   -0.1880    0.4548 C   0  0  0  0  0  0  0  0  0  0  0  0
   -7.0076   -1.5864    0.2974 C   0  0  0  0  0  0  0  0  0  0  0  0
    5.6481   -2.4842    0.0383 C   0  0  0  0  0  0  0  0  0  0  0  0
   -0.7663    0.3315    0.0447 C   0  0  0  0  0  0  0  0  0  0  0  0
    6.5865   -1.5471    0.4699 C   0  0  0  0  0  0  0  0  0  0  0  0
    1.6671   -0.1964   -0.1299 C   0  0  0  0  0  0  0  0  0  0  0  0
    0.3737    0.1995   -0.6593 C   0  0  0  0  0  0  0  0  0  0  0  0
   -0.8473    0.0898    1.4480 C   0  0  0  0  0  0  0  0  0  0  0  0
   -4.2223    1.8572   -1.5116 H   0  0  0  0  0  0  0  0  0  0  0  0
   -4.6259    2.5575    0.0576 H   0  0  0  0  0  0  0  0  0  0  0  0
   -2.7904    1.5631    1.0447 H   0  0  0  0  0  0  0  0  0  0  0  0
   -4.8167   -0.4887   -2.0513 H   0  0  0  0  0  0  0  0  0  0  0  0
   -5.8737    1.2713    1.7403 H   0  0  0  0  0  0  0  0  0  0  0  0
    3.6757   -2.8050   -0.7430 H   0  0  0  0  0  0  0  0  0  0  0  0
   -6.3802   -2.3472   -1.6176 H   0  0  0  0  0  0  0  0  0  0  0  0
   -7.4401   -0.5928    2.1590 H   0  0  0  0  0  0  0  0  0  0  0  0
    2.7085   -0.1098   -1.9697 H   0  0  0  0  0  0  0  0  0  0  0  0
    7.0329    0.5085    0.7995 H   0  0  0  0  0  0  0  0  0  0  0  0
   -7.6967   -2.4048    0.4842 H   0  0  0  0  0  0  0  0  0  0  0  0
    5.8925   -3.5424    0.0500 H   0  0  0  0  0  0  0  0  0  0  0  0
    7.5613   -1.8762    0.8179 H   0  0  0  0  0  0  0  0  0  0  0  0
    1.7452   -0.4062    0.9333 H   0  0  0  0  0  0  0  0  0  0  0  0
    0.3530    0.3838   -1.7328 H   0  0  0  0  0  0  0  0  0  0  0  0
  1 17  2  0  0  0  0
  2  5  1  0  0  0  0
  3  5  2  0  0  0  0
  4  7  1  0  0  0  0
  4 17  1  0  0  0  0
  4 28  1  0  0  0  0
  5 12  1  0  0  0  0
  6 25  3  0  0  0  0
  7  8  1  0  0  0  0
  7 26  1  0  0  0  0
  7 27  1  0  0  0  0
  8 10  2  0  0  0  0
  8 11  1  0  0  0  0
  9 12  1  0  0  0  0
  9 13  2  0  0  0  0
  9 16  1  0  0  0  0
 10 14  1  0  0  0  0
 10 29  1  0  0  0  0
 11 15  2  0  0  0  0
 11 30  1  0  0  0  0
 12 18  2  0  0  0  0
 13 20  1  0  0  0  0
 13 31  1  0  0  0  0
 14 19  2  0  0  0  0
 14 32  1  0  0  0  0
 15 19  1  0  0  0  0
 15 33  1  0  0  0  0
 16 23  2  0  0  0  0
 16 34  1  0  0  0  0
 17 21  1  0  0  0  0
 18 22  1  0  0  0  0
 18 35  1  0  0  0  0
 19 36  1  0  0  0  0
 20 22  2  0  0  0  0
 20 37  1  0  0  0  0
 21 24  2  0  0  0  0
 21 25  1  0  0  0  0
 22 38  1  0  0  0  0
 23 24  1  0  0  0  0
 23 39  1  0  0  0  0
 24 40  1  0  0  0  0
M  CHG  2   2  -1   5   1
M  END
> <PUBCHEM_COMPOUND_CID>
2351439

> <PUBCHEM_CONFORMER_RMSD>
0.8

> <PUBCHEM_CONFORMER_DIVERSEORDER>
1
12
73
14
18
53
9
90
62
65
56
29
59
85
4
64
20
22
86
57
37
60
15
67
82
31
63
8
5
11
23
88
54
75
32
52
40
21
78
10
66
45
87
44
7
27
83
84
71
6
19
46
35
39
13
77
17
89
76
47
58
41
61
72
42
48
36
2
49
74
68
80
26
91
51
43
3
79
55
50
81
25
16
38
34
28
69
24
70
33
30

> <PUBCHEM_MMFF94_PARTIAL_CHARGES>
38
1 -0.57
10 -0.15
11 -0.15
12 0.13
13 -0.15
14 -0.15
15 -0.15
16 -0.18
17 0.62
18 -0.15
19 -0.15
2 -0.52
20 -0.15
21 0.08
22 -0.15
23 -0.15
24 -0.15
25 0.49
28 0.37
29 0.15
3 -0.52
30 0.15
31 0.15
32 0.15
33 0.15
34 0.15
35 0.15
36 0.15
37 0.15
38 0.15
39 0.15
4 -0.73
40 0.15
5 0.91
6 -0.56
7 0.44
8 -0.14
9 0.03

> <PUBCHEM_EFFECTIVE_ROTOR_COUNT>
7

> <PUBCHEM_PHARMACOPHORE_FEATURES>
8
1 1 acceptor
1 2 acceptor
1 2 anion
1 3 acceptor
1 4 donor
1 6 acceptor
6 8 10 11 14 15 19 rings
6 9 12 13 18 20 22 rings

> <PUBCHEM_HEAVY_ATOM_COUNT>
25

> <PUBCHEM_ATOM_DEF_STEREO_COUNT>
0

> <PUBCHEM_ATOM_UDEF_STEREO_COUNT>
0

> <PUBCHEM_BOND_DEF_STEREO_COUNT>
2

> <PUBCHEM_BOND_UDEF_STEREO_COUNT>
0

> <PUBCHEM_ISOTOPIC_ATOM_COUNT>
0

> <PUBCHEM_COMPONENT_COUNT>
1

> <PUBCHEM_CACTVS_TAUTO_COUNT>
2

> <PUBCHEM_CONFORMER_ID>
0023E14F00000001

> <PUBCHEM_MMFF94_ENERGY>
73.2095

> <PUBCHEM_FEATURE_SELFOVERLAP>
40.677

> <PUBCHEM_SHAPE_FINGERPRINT>
10066227 112 10015865375334882323
10299344 5 18131633400482091199
11724838 91 18272083925061036654
11991303 11 14057014848990552307
12166972 35 18334017189876309044
12236239 1 17846214436723098812
12616971 3 17846206753026782180
13533116 47 18411982451684678464
13668630 136 17095527301313422691
13782708 43 18040713619686557734
14251732 16 18412544340317051477
14251764 18 18113618985077310332
14461889 52 18336823203885073066
14856354 85 16845572046111245493
15064981 113 13479675587261181635
15183329 4 10809338945230744783
15352257 5 18408887343142325947
15716309 27 18342176670429805159
17780758 139 17704075084750236643
17844677 252 18411141294502459621
18222031 100 15647057057805746884
18335252 98 18337394936534813755
19377110 9 17489595532234555363
19958102 18 17894631435553165347
21150785 3 12324250472722419171
21623969 137 18202285775304269703
23081809 10 18186812352445402757
23522609 53 17774180014266517473
23536379 177 18341331115348345753
23559900 14 16878522201608065996
23569943 247 17461432525721980106
2838139 119 11458423536151055631
29717793 49 11819270040872063416
3663271 9 18273500078573010233
4340502 62 18130788945297492390
59755656 215 16515682225806368634
6328613 192 9151173156042424135
7226269 152 12463572872781479491
7495541 125 17918269870313531017
9996256 80 18407758123103866101

> <PUBCHEM_SHAPE_MULTIPOLES>
481.94
21.84
2
1.33
5.95
0.05
0.47
7.25
2.09
-2.4
-0.1
1.45
0.06
0.01

> <PUBCHEM_SHAPE_SELFOVERLAP>
1027.5

> <PUBCHEM_SHAPE_VOLUME>
264

> <PUBCHEM_COORDINATE_TYPE>
2
5
10

$$$$
