3125929
  -OEChem-01171809323D

 46 47  0     1  0  0  0  0  0999 V2000
    1.9430   -2.5769   -1.9470 O   0  0  0  0  0  0  0  0  0  0  0  0
   -1.0964    0.7390    2.1967 O   0  0  0  0  0  0  0  0  0  0  0  0
    2.9328   -3.6901    0.3998 O   0  0  0  0  0  0  0  0  0  0  0  0
    0.9178    4.9810   -0.5505 N   0  0  0  0  0  0  0  0  0  0  0  0
    4.4059    2.4468    0.1293 N   0  0  0  0  0  0  0  0  0  0  0  0
    0.9730    1.6017    0.3820 C   0  0  1  0  0  0  0  0  0  0  0  0
   -0.5399    1.7209    0.0580 C   0  0  0  0  0  0  0  0  0  0  0  0
    1.5038    0.1679    0.3831 C   0  0  0  0  0  0  0  0  0  0  0  0
    1.8528    2.5141   -0.5266 C   0  0  0  0  0  0  0  0  0  0  0  0
   -1.4232    0.9457    1.0305 C   0  0  0  0  0  0  0  0  0  0  0  0
    1.4770   -0.5467   -0.7931 C   0  0  0  0  0  0  0  0  0  0  0  0
    1.9878   -0.3556    1.5606 C   0  0  0  0  0  0  0  0  0  0  0  0
   -2.7188    0.4027    0.5372 C   0  0  0  0  0  0  0  0  0  0  0  0
    1.9605   -1.8550   -0.7918 C   0  0  0  0  0  0  0  0  0  0  0  0
    2.4712   -1.6640    1.5619 C   0  0  0  0  0  0  0  0  0  0  0  0
    2.4575   -2.4137    0.3857 C   0  0  0  0  0  0  0  0  0  0  0  0
    1.3303    3.8964   -0.5384 C   0  0  0  0  0  0  0  0  0  0  0  0
    3.2815    2.4770   -0.1569 C   0  0  0  0  0  0  0  0  0  0  0  0
   -3.2131   -0.7510    1.1057 C   0  0  0  0  0  0  0  0  0  0  0  0
   -3.3773    1.0717   -0.4714 C   0  0  0  0  0  0  0  0  0  0  0  0
   -5.1146   -0.6047   -0.3775 C   0  0  0  0  0  0  0  0  0  0  0  0
   -4.4260   -1.2611    0.6426 C   0  0  0  0  0  0  0  0  0  0  0  0
   -4.5902    0.5617   -0.9344 C   0  0  0  0  0  0  0  0  0  0  0  0
   -6.4120   -1.1489   -0.8722 C   0  0  0  0  0  0  0  0  0  0  0  0
    1.4186   -1.9323   -3.1062 C   0  0  0  0  0  0  0  0  0  0  0  0
    1.9980   -4.7267    0.6930 C   0  0  0  0  0  0  0  0  0  0  0  0
    1.0863    1.9891    1.4075 H   0  0  0  0  0  0  0  0  0  0  0  0
   -0.8736    2.7622    0.1163 H   0  0  0  0  0  0  0  0  0  0  0  0
   -0.7144    1.3615   -0.9623 H   0  0  0  0  0  0  0  0  0  0  0  0
    1.7805    2.1502   -1.5609 H   0  0  0  0  0  0  0  0  0  0  0  0
    1.0749   -0.0657   -1.6760 H   0  0  0  0  0  0  0  0  0  0  0  0
    2.0040    0.2182    2.4818 H   0  0  0  0  0  0  0  0  0  0  0  0
    2.8577   -2.0925    2.4827 H   0  0  0  0  0  0  0  0  0  0  0  0
   -2.6854   -1.2758    1.8963 H   0  0  0  0  0  0  0  0  0  0  0  0
   -3.0009    1.9905   -0.9092 H   0  0  0  0  0  0  0  0  0  0  0  0
   -4.8246   -2.1702    1.0850 H   0  0  0  0  0  0  0  0  0  0  0  0
   -5.1205    1.0852   -1.7256 H   0  0  0  0  0  0  0  0  0  0  0  0
   -6.4460   -2.2394   -0.7753 H   0  0  0  0  0  0  0  0  0  0  0  0
   -7.2414   -0.7201   -0.3012 H   0  0  0  0  0  0  0  0  0  0  0  0
   -6.5588   -0.9172   -1.9327 H   0  0  0  0  0  0  0  0  0  0  0  0
    1.4822   -2.6505   -3.9303 H   0  0  0  0  0  0  0  0  0  0  0  0
    0.3589   -1.6824   -2.9846 H   0  0  0  0  0  0  0  0  0  0  0  0
    2.0222   -1.0649   -3.3942 H   0  0  0  0  0  0  0  0  0  0  0  0
    1.1942   -4.7425   -0.0498 H   0  0  0  0  0  0  0  0  0  0  0  0
    1.5804   -4.5936    1.6960 H   0  0  0  0  0  0  0  0  0  0  0  0
    2.5255   -5.6838    0.6580 H   0  0  0  0  0  0  0  0  0  0  0  0
  1 14  1  0  0  0  0
  1 25  1  0  0  0  0
  2 10  2  0  0  0  0
  3 16  1  0  0  0  0
  3 26  1  0  0  0  0
  4 17  3  0  0  0  0
  5 18  3  0  0  0  0
  6  7  1  0  0  0  0
  6  8  1  0  0  0  0
  6  9  1  0  0  0  0
  6 27  1  0  0  0  0
  7 10  1  0  0  0  0
  7 28  1  0  0  0  0
  7 29  1  0  0  0  0
  8 11  2  0  0  0  0
  8 12  1  0  0  0  0
  9 17  1  0  0  0  0
  9 18  1  0  0  0  0
  9 30  1  0  0  0  0
 10 13  1  0  0  0  0
 11 14  1  0  0  0  0
 11 31  1  0  0  0  0
 12 15  2  0  0  0  0
 12 32  1  0  0  0  0
 13 19  2  0  0  0  0
 13 20  1  0  0  0  0
 14 16  2  0  0  0  0
 15 16  1  0  0  0  0
 15 33  1  0  0  0  0
 19 22  1  0  0  0  0
 19 34  1  0  0  0  0
 20 23  2  0  0  0  0
 20 35  1  0  0  0  0
 21 22  2  0  0  0  0
 21 23  1  0  0  0  0
 21 24  1  0  0  0  0
 22 36  1  0  0  0  0
 23 37  1  0  0  0  0
 24 38  1  0  0  0  0
 24 39  1  0  0  0  0
 24 40  1  0  0  0  0
 25 41  1  0  0  0  0
 25 42  1  0  0  0  0
 25 43  1  0  0  0  0
 26 44  1  0  0  0  0
 26 45  1  0  0  0  0
 26 46  1  0  0  0  0
M  END
> <PUBCHEM_COMPOUND_CID>
3125929

> <PUBCHEM_CONFORMER_RMSD>
0.8

> <PUBCHEM_CONFORMER_DIVERSEORDER>
1
258
109
270
103
115
186
250
107
280
168
165
210
118
284
228
138
275
95
267
278
6
137
249
174
213
289
260
72
266
110
171
269
240
223
188
156
215
71
94
235
194
27
196
198
15
201
224
274
253
279
283
285
207
245
132
157
51
134
162
176
140
112
195
63
167
229
98
295
262
83
151
184
5
39
74
148
233
54
3
152
182
209
292
172
225
102
288
282
255
259
197
183
160
173
218
153
290
263
175
177
257
244
128
219
291
208
276
43
180
221
114
204
50
214
4
272
286
161
88
73
87
294
242
101
205
251
230
298
192
170
124
58
97
21
191
181
70
64
203
216
254
243
271
68
81
120
236
69
211
155
238
144
178
59
158
143
200
261
34
10
189
273
24
256
159
199
268
247
149
222
202
18
206
241
85
264
116
75
49
212
105
234
28
100
147
139
146
41
239
111
33
166
277
237
187
46
179
133
185
141
16
127
40
193
96
136
80
297
154
142
293
130
108
23
122
32
227
252
67
248
65
89
231
55
226
135
129
296
31
113
91
99
13
104
121
76
145
84
44
287
9
42
26
11
8
38
56
126
52
163
246
14
123
12
117
232
217
125
35
190
29
265
17
299
86
131
220
2
19
7
92
169
150
60
62
22
119
66
25
77
79
164
20
106
90
61
36
37
93
78
281
82
45
57
30
47
53
48

> <PUBCHEM_MMFF94_PARTIAL_CHARGES>
33
1 -0.36
10 0.42
11 -0.15
12 -0.15
13 0.09
14 0.08
15 -0.15
16 0.08
17 0.36
18 0.36
19 -0.15
2 -0.57
20 -0.15
21 -0.14
22 -0.15
23 -0.15
24 0.14
25 0.28
26 0.28
3 -0.36
31 0.15
32 0.15
33 0.15
34 0.15
35 0.15
36 0.15
37 0.15
4 -0.56
5 -0.56
6 0.14
7 0.06
8 -0.14
9 0.4

> <PUBCHEM_EFFECTIVE_ROTOR_COUNT>
7

> <PUBCHEM_PHARMACOPHORE_FEATURES>
7
1 1 acceptor
1 2 acceptor
1 3 acceptor
1 4 acceptor
1 5 acceptor
6 13 19 20 21 22 23 rings
6 8 11 12 14 15 16 rings

> <PUBCHEM_HEAVY_ATOM_COUNT>
26

> <PUBCHEM_ATOM_DEF_STEREO_COUNT>
0

> <PUBCHEM_ATOM_UDEF_STEREO_COUNT>
1

> <PUBCHEM_BOND_DEF_STEREO_COUNT>
0

> <PUBCHEM_BOND_UDEF_STEREO_COUNT>
0

> <PUBCHEM_ISOTOPIC_ATOM_COUNT>
0

> <PUBCHEM_COMPONENT_COUNT>
1

> <PUBCHEM_CACTVS_TAUTO_COUNT>
2

> <PUBCHEM_CONFORMER_ID>
002FB2A900000001

> <PUBCHEM_MMFF94_ENERGY>
89.4363

> <PUBCHEM_FEATURE_SELFOVERLAP>
35.529

> <PUBCHEM_SHAPE_FINGERPRINT>
11421498 54 17559696068779689345
11578080 2 17241600620587292804
11991303 11 17686634841147108660
12156800 1 16101116099887047583
12160290 23 17115534847546313416
12363563 72 18265617576492155907
12553582 1 17977124378211443395
12788726 201 17471317066335124908
13083527 12 18336536119707414824
133893 2 18195555681810248968
13911987 19 18046363082092223572
14844126 61 17108755246212646850
14848160 33 18342454816612013919
15484559 13 18123758822521063597
15849732 13 18189609626829903728
17138139 8 17198246056854995831
18681886 176 18125999610022939744
20197701 30 18125157384295138376
20626108 58 18268980999841547419
20645477 70 18411417341215014157
21054139 6 17984415510682690637
21133410 32 16013022888994261186
21304303 282 17044831272092731216
23419403 2 16952780945163434810
23559900 14 18334850645628051089
238 59 18264222476392818321
3060560 45 18265898141041639100
38695281 34 18193273220288360480
4280585 95 18196098737823373366
44802255 64 17174927614517425356
5262128 65 18339936917508775001
6669772 16 18269000946244429796
9709674 26 18334293180585217515

> <PUBCHEM_SHAPE_MULTIPOLES>
507.5
9.18
5.32
1.77
17.21
0.56
0.84
-2.37
1.21
-7.78
0.71
-0.6
-1.21
-0.22

> <PUBCHEM_SHAPE_SELFOVERLAP>
1073.033

> <PUBCHEM_SHAPE_VOLUME>
280.8

> <PUBCHEM_COORDINATE_TYPE>
2
5
10

$$$$
