3723106
  -OEChem-01171809343D

 35 36  0     1  0  0  0  0  0999 V2000
   -3.9953    1.4671    0.7345 S   0  0  0  0  0  0  0  0  0  0  0  0
   -1.1174    1.1769    1.3044 O   0  0  0  0  0  0  0  0  0  0  0  0
    2.0193   -2.1664   -2.4917 N   0  0  0  0  0  0  0  0  0  0  0  0
    0.8266   -4.0623    1.2531 N   0  0  0  0  0  0  0  0  0  0  0  0
    0.8522   -0.6405    0.4875 C   0  0  1  0  0  0  0  0  0  0  0  0
    1.5255    0.6622    0.0549 C   0  0  0  0  0  0  0  0  0  0  0  0
   -0.6180   -0.7812    0.0088 C   0  0  0  0  0  0  0  0  0  0  0  0
    1.7419   -1.8659    0.1132 C   0  0  0  0  0  0  0  0  0  0  0  0
    2.4448    1.2636    0.8850 C   0  0  0  0  0  0  0  0  0  0  0  0
    1.1770    1.1883   -1.1702 C   0  0  0  0  0  0  0  0  0  0  0  0
   -1.5522    0.3082    0.5466 C   0  0  0  0  0  0  0  0  0  0  0  0
    3.0467    2.4516    0.4702 C   0  0  0  0  0  0  0  0  0  0  0  0
    2.8169    0.6870    2.2115 C   0  0  0  0  0  0  0  0  0  0  0  0
    1.7790    2.3762   -1.5851 C   0  0  0  0  0  0  0  0  0  0  0  0
   -2.9673    0.2639    0.1400 C   0  0  0  0  0  0  0  0  0  0  0  0
    2.7138    3.0078   -0.7649 C   0  0  0  0  0  0  0  0  0  0  0  0
    1.8949   -2.0334   -1.3455 C   0  0  0  0  0  0  0  0  0  0  0  0
    1.2279   -3.0964    0.7502 C   0  0  0  0  0  0  0  0  0  0  0  0
   -3.5585   -0.6404   -0.6683 C   0  0  0  0  0  0  0  0  0  0  0  0
   -4.9436   -0.3436   -0.8217 C   0  0  0  0  0  0  0  0  0  0  0  0
   -5.3142    0.7774   -0.1122 C   0  0  0  0  0  0  0  0  0  0  0  0
    0.7696   -0.6282    1.5832 H   0  0  0  0  0  0  0  0  0  0  0  0
   -1.0221   -1.7301    0.3834 H   0  0  0  0  0  0  0  0  0  0  0  0
   -0.6945   -0.8150   -1.0822 H   0  0  0  0  0  0  0  0  0  0  0  0
    2.7521   -1.7080    0.5104 H   0  0  0  0  0  0  0  0  0  0  0  0
    0.4727    0.7223   -1.8481 H   0  0  0  0  0  0  0  0  0  0  0  0
    3.7768    2.9573    1.0965 H   0  0  0  0  0  0  0  0  0  0  0  0
    3.6036    1.2792    2.6938 H   0  0  0  0  0  0  0  0  0  0  0  0
    1.9598    0.6951    2.8926 H   0  0  0  0  0  0  0  0  0  0  0  0
    3.2106   -0.3278    2.1216 H   0  0  0  0  0  0  0  0  0  0  0  0
    1.5237    2.8074   -2.5488 H   0  0  0  0  0  0  0  0  0  0  0  0
    3.1831    3.9322   -1.0886 H   0  0  0  0  0  0  0  0  0  0  0  0
   -3.0687   -1.4807   -1.1427 H   0  0  0  0  0  0  0  0  0  0  0  0
   -5.6332   -0.9230   -1.4218 H   0  0  0  0  0  0  0  0  0  0  0  0
   -6.2965    1.2243   -0.0506 H   0  0  0  0  0  0  0  0  0  0  0  0
  1 15  1  0  0  0  0
  1 21  1  0  0  0  0
  2 11  2  0  0  0  0
  3 17  3  0  0  0  0
  4 18  3  0  0  0  0
  5  6  1  0  0  0  0
  5  7  1  0  0  0  0
  5  8  1  0  0  0  0
  5 22  1  0  0  0  0
  6  9  1  0  0  0  0
  6 10  2  0  0  0  0
  7 11  1  0  0  0  0
  7 23  1  0  0  0  0
  7 24  1  0  0  0  0
  8 17  1  0  0  0  0
  8 18  1  0  0  0  0
  8 25  1  0  0  0  0
  9 12  2  0  0  0  0
  9 13  1  0  0  0  0
 10 14  1  0  0  0  0
 10 26  1  0  0  0  0
 11 15  1  0  0  0  0
 12 16  1  0  0  0  0
 12 27  1  0  0  0  0
 13 28  1  0  0  0  0
 13 29  1  0  0  0  0
 13 30  1  0  0  0  0
 14 16  2  0  0  0  0
 14 31  1  0  0  0  0
 15 19  2  0  0  0  0
 16 32  1  0  0  0  0
 19 20  1  0  0  0  0
 19 33  1  0  0  0  0
 20 21  2  0  0  0  0
 20 34  1  0  0  0  0
 21 35  1  0  0  0  0
M  END
> <PUBCHEM_COMPOUND_CID>
3723106

> <PUBCHEM_CONFORMER_RMSD>
0.8

> <PUBCHEM_CONFORMER_DIVERSEORDER>
1
90
32
93
79
86
48
63
92
40
85
66
89
72
28
47
38
24
99
29
78
95
83
82
56
97
81
22
51
96
44
41
13
25
33
52
94
17
31
98
10
76
45
34
53
62
60
9
8
6
57
54
67
55
42
74
59
75
68
12
58
11
5
27
43
64
3
70
61
7
73
14
30
77
37
87
19
49
18
69
15
91
26
39
71
16
35
46
20
84
23
65
88
21
2
50
80
36
4

> <PUBCHEM_MMFF94_PARTIAL_CHARGES>
28
1 -0.08
10 -0.15
11 0.59
12 -0.15
13 0.14
14 -0.15
15 -0.05
16 -0.15
17 0.36
18 0.36
19 -0.15
2 -0.57
20 -0.15
21 -0.11
26 0.15
27 0.15
3 -0.56
31 0.15
32 0.15
33 0.15
34 0.15
35 0.15
4 -0.56
5 0.14
6 -0.14
7 0.06
8 0.4
9 -0.14

> <PUBCHEM_EFFECTIVE_ROTOR_COUNT>
5

> <PUBCHEM_PHARMACOPHORE_FEATURES>
5
1 2 acceptor
1 3 acceptor
1 4 acceptor
5 1 15 19 20 21 rings
6 6 9 10 12 14 16 rings

> <PUBCHEM_HEAVY_ATOM_COUNT>
21

> <PUBCHEM_ATOM_DEF_STEREO_COUNT>
0

> <PUBCHEM_ATOM_UDEF_STEREO_COUNT>
1

> <PUBCHEM_BOND_DEF_STEREO_COUNT>
0

> <PUBCHEM_BOND_UDEF_STEREO_COUNT>
0

> <PUBCHEM_ISOTOPIC_ATOM_COUNT>
0

> <PUBCHEM_COMPONENT_COUNT>
1

> <PUBCHEM_CACTVS_TAUTO_COUNT>
2

> <PUBCHEM_CONFORMER_ID>
0038CF6200000001

> <PUBCHEM_MMFF94_ENERGY>
48.5285

> <PUBCHEM_FEATURE_SELFOVERLAP>
25.373

> <PUBCHEM_SHAPE_FINGERPRINT>
10090160 65 18336814403507483011
10764073 3 15146530691471923624
11578080 2 17829319195101264036
12553582 1 17977112262409615459
12788726 201 16963795620100594027
13149001 5 18050605981837109582
13583140 156 16733819934373528633
14181834 199 18341615875953867446
14863182 85 18130783481877259422
15852999 172 18197225947552393810
15906896 17 17762894768504894582
17492 54 18191613933357674654
1813 80 18054234219489087655
18186145 218 18335144138186980207
20567600 347 18058725939284065222
20600515 1 17338145304526487770
20645477 70 18201435849048097255
20715895 44 18044071503177503877
21033648 29 15214397084956260181
21524375 3 18269831081064051936
2255824 54 18337677421029662735
22907989 373 17182801285169273868
23419403 2 17335009566236437416
23559900 14 17488179293065939311
23598288 3 17689709088732682034
23598291 2 18056778545683737121
238 59 18269575942684460022
239999 70 18342460326944473311
3004659 81 18130221546279756279
3060560 45 18261112980526999966
312423 11 17987532446159846153
474 4 18334855047842993657
70251023 43 18057904450022833459
7364860 26 17988644060382937254
84936 182 18342178877452678113
9981440 41 18263359360060491769

> <PUBCHEM_SHAPE_MULTIPOLES>
420.19
7.79
3.73
1.7
13.71
2.69
-0.29
-3.71
-0.33
-4.25
-0.06
-1.47
0.28
-0.32

> <PUBCHEM_SHAPE_SELFOVERLAP>
880.126

> <PUBCHEM_SHAPE_VOLUME>
236.5

> <PUBCHEM_COORDINATE_TYPE>
2
5
10

$$$$
