3182835
  -OEChem-01171809443D

 63 67  0     1  0  0  0  0  0999 V2000
    1.3361   -0.7048    2.2655 O   0  0  0  0  0  0  0  0  0  0  0  0
   -5.2532    1.3572   -0.1153 O   0  0  0  0  0  0  0  0  0  0  0  0
    3.0089   -0.1459   -0.1519 N   0  0  0  0  0  0  0  0  0  0  0  0
    5.5146   -1.1221   -1.2133 N   0  0  0  0  0  0  0  0  0  0  0  0
    0.8879    2.7822    0.1779 N   0  0  0  0  0  0  0  0  0  0  0  0
   -0.4706   -1.9856    1.6715 N   0  0  0  0  0  0  0  0  0  0  0  0
    2.2018    1.9288    1.6773 N   0  0  0  0  0  0  0  0  0  0  0  0
    1.0158    3.7311    1.1157 N   0  0  0  0  0  0  0  0  0  0  0  0
    1.8201    3.2034    2.0304 N   0  0  0  0  0  0  0  0  0  0  0  0
    1.6875    0.4640   -0.2851 C   0  0  1  0  0  0  0  0  0  0  0  0
    4.0572    0.7776   -0.6028 C   0  0  0  0  0  0  0  0  0  0  0  0
    3.0796   -1.4061   -0.9015 C   0  0  0  0  0  0  0  0  0  0  0  0
    5.4433    0.1384   -0.4643 C   0  0  0  0  0  0  0  0  0  0  0  0
    4.4656   -2.0456   -0.7642 C   0  0  0  0  0  0  0  0  0  0  0  0
    0.6022   -0.5313    0.0120 C   0  0  0  0  0  0  0  0  0  0  0  0
    1.6109    1.7290    0.5554 C   0  0  0  0  0  0  0  0  0  0  0  0
    6.8359   -1.7322   -1.0780 C   0  0  0  0  0  0  0  0  0  0  0  0
   -0.2815   -0.9397   -0.9120 C   0  0  0  0  0  0  0  0  0  0  0  0
    0.5318   -1.0715    1.4098 C   0  0  0  0  0  0  0  0  0  0  0  0
   -1.3255   -1.9094   -0.5899 C   0  0  0  0  0  0  0  0  0  0  0  0
   -1.3987   -2.4176    0.7100 C   0  0  0  0  0  0  0  0  0  0  0  0
    0.0738    2.9971   -0.9899 C   0  0  0  0  0  0  0  0  0  0  0  0
   -2.3814   -3.3461    1.0583 C   0  0  0  0  0  0  0  0  0  0  0  0
   -2.2486   -2.3389   -1.5480 C   0  0  0  0  0  0  0  0  0  0  0  0
   -1.3472    2.5601   -0.7568 C   0  0  0  0  0  0  0  0  0  0  0  0
   -3.2987   -3.7700    0.0974 C   0  0  0  0  0  0  0  0  0  0  0  0
   -3.2327   -3.2678   -1.2027 C   0  0  0  0  0  0  0  0  0  0  0  0
   -2.4879   -3.9093    2.4381 C   0  0  0  0  0  0  0  0  0  0  0  0
   -1.9853    2.9101    0.4251 C   0  0  0  0  0  0  0  0  0  0  0  0
   -2.0000    1.8119   -1.7268 C   0  0  0  0  0  0  0  0  0  0  0  0
   -3.3021    2.5041    0.6412 C   0  0  0  0  0  0  0  0  0  0  0  0
   -3.3169    1.4060   -1.5106 C   0  0  0  0  0  0  0  0  0  0  0  0
   -3.9680    1.7521   -0.3266 C   0  0  0  0  0  0  0  0  0  0  0  0
   -5.8749    0.5907   -1.1456 C   0  0  0  0  0  0  0  0  0  0  0  0
    1.5881    0.7585   -1.3387 H   0  0  0  0  0  0  0  0  0  0  0  0
    3.8971    1.0702   -1.6501 H   0  0  0  0  0  0  0  0  0  0  0  0
    4.0826    1.6999   -0.0137 H   0  0  0  0  0  0  0  0  0  0  0  0
    2.3751   -2.1539   -0.5221 H   0  0  0  0  0  0  0  0  0  0  0  0
    2.8547   -1.2469   -1.9654 H   0  0  0  0  0  0  0  0  0  0  0  0
    6.1886    0.8422   -0.8546 H   0  0  0  0  0  0  0  0  0  0  0  0
    5.6709   -0.0231    0.5983 H   0  0  0  0  0  0  0  0  0  0  0  0
    4.4882   -2.9558   -1.3760 H   0  0  0  0  0  0  0  0  0  0  0  0
    4.6309   -2.3486    0.2788 H   0  0  0  0  0  0  0  0  0  0  0  0
    6.8989   -2.6487   -1.6749 H   0  0  0  0  0  0  0  0  0  0  0  0
    7.0735   -1.9813   -0.0374 H   0  0  0  0  0  0  0  0  0  0  0  0
    7.6114   -1.0570   -1.4564 H   0  0  0  0  0  0  0  0  0  0  0  0
   -0.2322   -0.5741   -1.9325 H   0  0  0  0  0  0  0  0  0  0  0  0
   -0.5317   -2.3603    2.6129 H   0  0  0  0  0  0  0  0  0  0  0  0
    0.0894    4.0696   -1.2204 H   0  0  0  0  0  0  0  0  0  0  0  0
    0.5302    2.4873   -1.8426 H   0  0  0  0  0  0  0  0  0  0  0  0
   -2.2139   -1.9578   -2.5656 H   0  0  0  0  0  0  0  0  0  0  0  0
   -4.0736   -4.4915    0.3429 H   0  0  0  0  0  0  0  0  0  0  0  0
   -3.9494   -3.5990   -1.9487 H   0  0  0  0  0  0  0  0  0  0  0  0
   -3.3162   -4.6209    2.5268 H   0  0  0  0  0  0  0  0  0  0  0  0
   -2.6688   -3.1107    3.1652 H   0  0  0  0  0  0  0  0  0  0  0  0
   -1.5711   -4.4454    2.7052 H   0  0  0  0  0  0  0  0  0  0  0  0
   -1.5121    3.5151    1.1901 H   0  0  0  0  0  0  0  0  0  0  0  0
   -1.5049    1.5433   -2.6557 H   0  0  0  0  0  0  0  0  0  0  0  0
   -3.8064    2.7812    1.5630 H   0  0  0  0  0  0  0  0  0  0  0  0
   -3.7747    0.8250   -2.3040 H   0  0  0  0  0  0  0  0  0  0  0  0
   -5.9652    1.1637   -2.0746 H   0  0  0  0  0  0  0  0  0  0  0  0
   -6.8919    0.3626   -0.8103 H   0  0  0  0  0  0  0  0  0  0  0  0
   -5.3658   -0.3673   -1.2968 H   0  0  0  0  0  0  0  0  0  0  0  0
  1 19  2  0  0  0  0
  2 33  1  0  0  0  0
  2 34  1  0  0  0  0
  3 10  1  0  0  0  0
  3 11  1  0  0  0  0
  3 12  1  0  0  0  0
  4 13  1  0  0  0  0
  4 14  1  0  0  0  0
  4 17  1  0  0  0  0
  5  8  1  0  0  0  0
  5 16  1  0  0  0  0
  5 22  1  0  0  0  0
  6 19  1  0  0  0  0
  6 21  1  0  0  0  0
  6 48  1  0  0  0  0
  7  9  1  0  0  0  0
  7 16  2  0  0  0  0
  8  9  2  0  0  0  0
 10 15  1  0  0  0  0
 10 16  1  0  0  0  0
 10 35  1  0  0  0  0
 11 13  1  0  0  0  0
 11 36  1  0  0  0  0
 11 37  1  0  0  0  0
 12 14  1  0  0  0  0
 12 38  1  0  0  0  0
 12 39  1  0  0  0  0
 13 40  1  0  0  0  0
 13 41  1  0  0  0  0
 14 42  1  0  0  0  0
 14 43  1  0  0  0  0
 15 18  2  0  0  0  0
 15 19  1  0  0  0  0
 17 44  1  0  0  0  0
 17 45  1  0  0  0  0
 17 46  1  0  0  0  0
 18 20  1  0  0  0  0
 18 47  1  0  0  0  0
 20 21  1  0  0  0  0
 20 24  2  0  0  0  0
 21 23  2  0  0  0  0
 22 25  1  0  0  0  0
 22 49  1  0  0  0  0
 22 50  1  0  0  0  0
 23 26  1  0  0  0  0
 23 28  1  0  0  0  0
 24 27  1  0  0  0  0
 24 51  1  0  0  0  0
 25 29  2  0  0  0  0
 25 30  1  0  0  0  0
 26 27  2  0  0  0  0
 26 52  1  0  0  0  0
 27 53  1  0  0  0  0
 28 54  1  0  0  0  0
 28 55  1  0  0  0  0
 28 56  1  0  0  0  0
 29 31  1  0  0  0  0
 29 57  1  0  0  0  0
 30 32  2  0  0  0  0
 30 58  1  0  0  0  0
 31 33  2  0  0  0  0
 31 59  1  0  0  0  0
 32 33  1  0  0  0  0
 32 60  1  0  0  0  0
 34 61  1  0  0  0  0
 34 62  1  0  0  0  0
 34 63  1  0  0  0  0
M  END
> <PUBCHEM_COMPOUND_CID>
3182835

> <PUBCHEM_CONFORMER_RMSD>
1

> <PUBCHEM_CONFORMER_DIVERSEORDER>
1
36
197
209
167
67
202
162
110
206
57
117
177
61
111
187
126
207
140
91
160
127
74
99
204
88
164
23
53
113
100
87
136
171
128
69
72
172
175
65
86
51
125
200
139
178
120
106
173
203
168
94
186
137
109
196
176
104
130
116
181
107
145
147
66
184
163
158
121
188
114
123
75
96
135
32
101
142
90
93
79
95
194
190
150
112
193
151
146
198
149
97
154
80
118
55
68
157
134
34
105
48
47
28
153
115
131
169
205
84
85
31
64
3
20
133
155
82
166
7
201
54
199
141
129
119
189
210
138
144
192
49
179
180
89
152
195
102
62
132
103
40
124
70
45
73
156
208
60
183
76
165
83
170
81
13
143
24
63
50
52
92
25
98
37
42
78
19
185
182
16
159
29
58
35
30
174
12
56
2
46
161
43
44
26
148
8
9
17
71
122
6
4
39
77
10
108
5
14
27
18
191
21
41
59
38
22
11
33
15

> <PUBCHEM_MMFF94_PARTIAL_CHARGES>
42
1 -0.57
10 0.59
11 0.27
12 0.27
13 0.27
14 0.27
15 -0.12
16 0.01
17 0.27
18 -0.18
19 0.62
2 -0.36
20 0.03
21 0.12
22 0.4
23 -0.14
24 -0.15
25 -0.14
26 -0.15
27 -0.15
28 0.14
29 -0.15
3 -0.81
30 -0.15
31 -0.15
32 -0.15
33 0.08
34 0.28
4 -0.81
47 0.15
48 0.37
5 0.31
51 0.15
52 0.15
53 0.15
57 0.15
58 0.15
59 0.15
6 -0.55
60 0.15
7 -0.34
8 -0.42

> <PUBCHEM_EFFECTIVE_ROTOR_COUNT>
7.2

> <PUBCHEM_PHARMACOPHORE_FEATURES>
11
1 1 acceptor
1 2 acceptor
1 3 cation
1 4 cation
1 6 donor
3 5 7 16 cation
5 5 7 8 9 16 rings
6 20 21 23 24 26 27 rings
6 25 29 30 31 32 33 rings
6 3 4 11 12 13 14 rings
6 6 15 18 19 20 21 rings

> <PUBCHEM_HEAVY_ATOM_COUNT>
34

> <PUBCHEM_ATOM_DEF_STEREO_COUNT>
0

> <PUBCHEM_ATOM_UDEF_STEREO_COUNT>
1

> <PUBCHEM_BOND_DEF_STEREO_COUNT>
0

> <PUBCHEM_BOND_UDEF_STEREO_COUNT>
0

> <PUBCHEM_ISOTOPIC_ATOM_COUNT>
0

> <PUBCHEM_COMPONENT_COUNT>
1

> <PUBCHEM_CACTVS_TAUTO_COUNT>
2

> <PUBCHEM_CONFORMER_ID>
003090F300000001

> <PUBCHEM_MMFF94_ENERGY>
96.1325

> <PUBCHEM_FEATURE_SELFOVERLAP>
55.853

> <PUBCHEM_SHAPE_FINGERPRINT>
10119406 146 17980496563985813070
10190108 129 18041294248400921779
1100329 8 18336263531071066389
11513181 2 17981324804724143703
11578080 2 17273960506154516616
12293681 4 18201726098147303124
12422481 6 18049744081444257475
12788726 201 18054505808168169578
13140716 1 18266439079160749609
14251757 5 18335986389347150558
14713325 29 18410581668906752414
14787075 74 18268149764634831036
14790565 3 18124037819101391620
15209289 33 18200308797573522285
17492 54 18115300073752699101
17909252 39 18053104209545942710
1813 80 17914642637715691942
19319366 153 17895751777487347603
19591789 44 18122903136085817589
19958102 18 18047198449648063038
20101258 96 18338811124765683110
20775438 99 17911765224238288175
23419403 2 17417799682642011818
244849 19 17988069110702367720
3052486 1 18041833051298936129
3380486 145 18269012980320929976
35225 105 17749100093922520737
4058900 60 17901667073378949189
4144715 1 17684933897160715771
4258327 124 17315670403025199468
437795 70 18412825780876437079
469060 322 16008752441760907759
5171179 24 18199746023871378946
563151 74 16701157842032674608
57527585 103 17970613306996889759
59755656 520 17676211234423590838
70251023 43 18125718130455842878

> <PUBCHEM_SHAPE_MULTIPOLES>
653.1
10.39
5.42
1.85
10.43
0.91
-0.75
2.94
4.87
-4.76
-1.72
-0.33
0.51
2.17

> <PUBCHEM_SHAPE_SELFOVERLAP>
1423.783

> <PUBCHEM_SHAPE_VOLUME>
357.3

> <PUBCHEM_COORDINATE_TYPE>
2
5
10

$$$$
