1741764
  -OEChem-01171809263D

 46 48  0     0  0  0  0  0  0999 V2000
   -1.1979   -3.0287    1.0202 S   0  0  0  0  0  0  0  0  0  0  0  0
   -6.5543    0.3523    0.7091 F   0  0  0  0  0  0  0  0  0  0  0  0
   -5.4792    1.9141    1.7727 F   0  0  0  0  0  0  0  0  0  0  0  0
   -5.8075    2.0901   -0.3751 F   0  0  0  0  0  0  0  0  0  0  0  0
    6.9492   -0.5472    1.8453 O   0  0  0  0  0  0  0  0  0  0  0  0
    3.5278    2.9535   -0.6530 O   0  0  0  0  0  0  0  0  0  0  0  0
   -2.1570    0.2672   -0.0249 N   0  0  0  0  0  0  0  0  0  0  0  0
   -3.0945    1.2099    0.2139 N   0  0  0  0  0  0  0  0  0  0  0  0
    4.0972    0.7469   -1.0861 N   0  0  0  0  0  0  0  0  0  0  0  0
   -2.6739   -1.0038   -0.0517 C   0  0  0  0  0  0  0  0  0  0  0  0
   -0.8378    0.6375   -0.2105 C   0  0  0  0  0  0  0  0  0  0  0  0
   -4.0212   -0.8776    0.1832 C   0  0  0  0  0  0  0  0  0  0  0  0
   -4.2232    0.5068    0.3389 C   0  0  0  0  0  0  0  0  0  0  0  0
    5.5037    0.9683   -1.2834 C   0  0  0  0  0  0  0  0  0  0  0  0
    1.7935    1.3768   -0.5827 C   0  0  0  0  0  0  0  0  0  0  0  0
    6.3004    0.8470    0.0089 C   0  0  0  0  0  0  0  0  0  0  0  0
   -1.9109   -2.1757   -0.2832 C   0  0  0  0  0  0  0  0  0  0  0  0
   -0.0080   -0.1266   -1.0310 C   0  0  0  0  0  0  0  0  0  0  0  0
   -0.3369    1.7756    0.4216 C   0  0  0  0  0  0  0  0  0  0  0  0
    1.3226    0.2471   -1.2191 C   0  0  0  0  0  0  0  0  0  0  0  0
    0.9938    2.1495    0.2334 C   0  0  0  0  0  0  0  0  0  0  0  0
    3.2112    1.7738   -0.7824 C   0  0  0  0  0  0  0  0  0  0  0  0
    6.1914   -0.5346    0.6427 C   0  0  0  0  0  0  0  0  0  0  0  0
   -5.4926    1.2024    0.6095 C   0  0  0  0  0  0  0  0  0  0  0  0
   -1.6402   -2.7698   -1.4973 C   0  0  0  0  0  0  0  0  0  0  0  0
   -0.8383   -3.9389   -1.3551 C   0  0  0  0  0  0  0  0  0  0  0  0
   -0.5257   -4.1949   -0.0382 C   0  0  0  0  0  0  0  0  0  0  0  0
    6.9080   -1.8209    2.4742 C   0  0  0  0  0  0  0  0  0  0  0  0
   -4.7530   -1.6716    0.2339 H   0  0  0  0  0  0  0  0  0  0  0  0
    5.6538    1.9638   -1.7153 H   0  0  0  0  0  0  0  0  0  0  0  0
    5.8499    0.2307   -2.0155 H   0  0  0  0  0  0  0  0  0  0  0  0
    7.3557    1.0719   -0.1882 H   0  0  0  0  0  0  0  0  0  0  0  0
    5.9641    1.6007    0.7324 H   0  0  0  0  0  0  0  0  0  0  0  0
   -0.3470   -0.9004   -1.6928 H   0  0  0  0  0  0  0  0  0  0  0  0
   -0.9541    2.3855    1.0767 H   0  0  0  0  0  0  0  0  0  0  0  0
    1.9176   -0.3310   -1.9190 H   0  0  0  0  0  0  0  0  0  0  0  0
    1.3707    3.0337    0.7389 H   0  0  0  0  0  0  0  0  0  0  0  0
    3.7826   -0.2170   -1.1125 H   0  0  0  0  0  0  0  0  0  0  0  0
    6.5800   -1.2940   -0.0459 H   0  0  0  0  0  0  0  0  0  0  0  0
    5.1475   -0.7712    0.8776 H   0  0  0  0  0  0  0  0  0  0  0  0
   -2.0072   -2.4001   -2.4475 H   0  0  0  0  0  0  0  0  0  0  0  0
   -0.5100   -4.5620   -2.1766 H   0  0  0  0  0  0  0  0  0  0  0  0
    0.0647   -5.0114    0.3530 H   0  0  0  0  0  0  0  0  0  0  0  0
    5.8798   -2.0848    2.7401 H   0  0  0  0  0  0  0  0  0  0  0  0
    7.5033   -1.7720    3.3900 H   0  0  0  0  0  0  0  0  0  0  0  0
    7.3367   -2.5861    1.8198 H   0  0  0  0  0  0  0  0  0  0  0  0
  1 17  1  0  0  0  0
  1 27  1  0  0  0  0
  2 24  1  0  0  0  0
  3 24  1  0  0  0  0
  4 24  1  0  0  0  0
  5 23  1  0  0  0  0
  5 28  1  0  0  0  0
  6 22  2  0  0  0  0
  7  8  1  0  0  0  0
  7 10  1  0  0  0  0
  7 11  1  0  0  0  0
  8 13  2  0  0  0  0
  9 14  1  0  0  0  0
  9 22  1  0  0  0  0
  9 38  1  0  0  0  0
 10 12  2  0  0  0  0
 10 17  1  0  0  0  0
 11 18  2  0  0  0  0
 11 19  1  0  0  0  0
 12 13  1  0  0  0  0
 12 29  1  0  0  0  0
 13 24  1  0  0  0  0
 14 16  1  0  0  0  0
 14 30  1  0  0  0  0
 14 31  1  0  0  0  0
 15 20  2  0  0  0  0
 15 21  1  0  0  0  0
 15 22  1  0  0  0  0
 16 23  1  0  0  0  0
 16 32  1  0  0  0  0
 16 33  1  0  0  0  0
 17 25  2  0  0  0  0
 18 20  1  0  0  0  0
 18 34  1  0  0  0  0
 19 21  2  0  0  0  0
 19 35  1  0  0  0  0
 20 36  1  0  0  0  0
 21 37  1  0  0  0  0
 23 39  1  0  0  0  0
 23 40  1  0  0  0  0
 25 26  1  0  0  0  0
 25 41  1  0  0  0  0
 26 27  2  0  0  0  0
 26 42  1  0  0  0  0
 27 43  1  0  0  0  0
 28 44  1  0  0  0  0
 28 45  1  0  0  0  0
 28 46  1  0  0  0  0
M  END
> <PUBCHEM_COMPOUND_CID>
1741764

> <PUBCHEM_CONFORMER_RMSD>
1

> <PUBCHEM_CONFORMER_DIVERSEORDER>
4
35
3
24
25
7
28
17
16
32
15
11
33
36
12
9
8
6
21
2
1
23
27
13
14
29
5
18
31
20
34
10
30
37
19
26
22

> <PUBCHEM_MMFF94_PARTIAL_CHARGES>
36
1 -0.08
10 -0.15
11 -0.02
12 -0.15
13 0.11
14 0.3
15 0.09
17 0.04
18 -0.15
19 -0.15
2 -0.34
20 -0.15
21 -0.15
22 0.54
23 0.28
24 1.2
25 -0.15
26 -0.15
27 -0.11
28 0.28
29 0.15
3 -0.34
34 0.15
35 0.15
36 0.15
37 0.15
38 0.37
4 -0.34
41 0.15
42 0.15
43 0.15
5 -0.56
6 -0.57
7 0.59
8 -0.71
9 -0.73

> <PUBCHEM_EFFECTIVE_ROTOR_COUNT>
9

> <PUBCHEM_PHARMACOPHORE_FEATURES>
7
1 5 acceptor
1 6 acceptor
1 8 acceptor
1 9 donor
5 1 17 25 26 27 rings
5 7 8 10 12 13 rings
6 11 15 18 19 20 21 rings

> <PUBCHEM_HEAVY_ATOM_COUNT>
28

> <PUBCHEM_ATOM_DEF_STEREO_COUNT>
0

> <PUBCHEM_ATOM_UDEF_STEREO_COUNT>
0

> <PUBCHEM_BOND_DEF_STEREO_COUNT>
0

> <PUBCHEM_BOND_UDEF_STEREO_COUNT>
0

> <PUBCHEM_ISOTOPIC_ATOM_COUNT>
0

> <PUBCHEM_COMPONENT_COUNT>
1

> <PUBCHEM_CACTVS_TAUTO_COUNT>
2

> <PUBCHEM_CONFORMER_ID>
001A93C400000004

> <PUBCHEM_MMFF94_ENERGY>
67.35

> <PUBCHEM_FEATURE_SELFOVERLAP>
35.522

> <PUBCHEM_SHAPE_FINGERPRINT>
10906281 52 17844273832733297780
11405975 8 18266743665604412836
11524674 6 18202285805337041623
11796584 16 18269566082299424356
12107183 9 18408603673748212496
12166972 35 11815891249723629098
14790565 3 18340783576044011877
14866123 147 18268152135726141239
15042514 8 17906746052779821967
15250474 111 18192144018263778414
15320294 125 18261100847724910886
15927050 60 18341341054162041591
16719943 64 18412270540367809895
16728300 4 17751909238646516802
16994733 274 15913059668726490867
20554085 129 17845929637367958771
21133410 171 16976409695048531422
21403212 168 18334852780242699071
21859007 373 18261664870634647476
23559900 14 18130244721849679988
249057 3 18337117859995602444
3004659 81 18338811086802022460
312425 54 18341598361936941648
335352 9 18341904012414766580
3383291 50 18270402809899887343
3411729 13 18264499382336546755
3680242 22 18187645782997845546
4073 2 17972323086634077416
46194498 28 13551194399210707750
463206 1 18114176480538628922
5085150 59 18202279221115597719
5104073 3 18269281325245240512
513202 73 17095511864899995206
5265222 85 18121801653432160636
5364581 5 17769928310334384720
5385378 56 18197514947844706761
559249 180 18410294739463272862
59755656 520 18410575132667478999
7226269 152 18131641087972690144
9953998 17 18271228501178569992
9981440 41 18340502101325322827

> <PUBCHEM_SHAPE_MULTIPOLES>
531.57
15.66
4.12
1.52
16.67
4.4
-0.48
-5
-8.15
-1.81
0.43
1.91
0.73
-3.46

> <PUBCHEM_SHAPE_SELFOVERLAP>
1132.396

> <PUBCHEM_SHAPE_VOLUME>
300.7

> <PUBCHEM_COORDINATE_TYPE>
2
5
10

$$$$
