288561
  -OEChem-01171810183D

 17 18  0     0  0  0  0  0  0999 V2000
    4.3164   -0.5815   -0.0002 Br  0  0  0  0  0  0  0  0  0  0  0  0
   -2.2252   -0.8841    0.0004 O   0  0  0  0  0  0  0  0  0  0  0  0
   -0.7639   -2.6056    0.0001 O   0  0  0  0  0  0  0  0  0  0  0  0
   -3.6631    0.8551   -0.0001 O   0  0  0  0  0  0  0  0  0  0  0  0
   -1.4329    1.3372   -0.0003 N   0  0  0  0  0  0  0  0  0  0  0  0
   -0.1107    0.9105   -0.0001 C   0  0  0  0  0  0  0  0  0  0  0  0
    0.1552   -0.4479    0.0001 C   0  0  0  0  0  0  0  0  0  0  0  0
    0.9315    1.8390    0.0002 C   0  0  0  0  0  0  0  0  0  0  0  0
    1.4779   -0.9006   -0.0002 C   0  0  0  0  0  0  0  0  0  0  0  0
   -0.9660   -1.3972   -0.0002 C   0  0  0  0  0  0  0  0  0  0  0  0
    2.2522    1.3910    0.0003 C   0  0  0  0  0  0  0  0  0  0  0  0
    2.5250    0.0228    0.0001 C   0  0  0  0  0  0  0  0  0  0  0  0
   -2.4965    0.4612   -0.0002 C   0  0  0  0  0  0  0  0  0  0  0  0
    0.7281    2.9064    0.0003 H   0  0  0  0  0  0  0  0  0  0  0  0
    1.6953   -1.9659   -0.0004 H   0  0  0  0  0  0  0  0  0  0  0  0
   -1.6208    2.3355   -0.0005 H   0  0  0  0  0  0  0  0  0  0  0  0
    3.0576    2.1211    0.0004 H   0  0  0  0  0  0  0  0  0  0  0  0
  1 12  1  0  0  0  0
  2 10  1  0  0  0  0
  2 13  1  0  0  0  0
  3 10  2  0  0  0  0
  4 13  2  0  0  0  0
  5  6  1  0  0  0  0
  5 13  1  0  0  0  0
  5 16  1  0  0  0  0
  6  7  2  0  0  0  0
  6  8  1  0  0  0  0
  7  9  1  0  0  0  0
  7 10  1  0  0  0  0
  8 11  2  0  0  0  0
  8 14  1  0  0  0  0
  9 12  2  0  0  0  0
  9 15  1  0  0  0  0
 11 12  1  0  0  0  0
 11 17  1  0  0  0  0
M  END
> <PUBCHEM_COMPOUND_CID>
288561

> <PUBCHEM_CONFORMER_RMSD>
0.4

> <PUBCHEM_CONFORMER_DIVERSEORDER>
1

> <PUBCHEM_MMFF94_PARTIAL_CHARGES>
17
1 -0.11
10 0.63
11 -0.15
12 0.11
13 0.78
14 0.15
15 0.15
16 0.37
17 0.15
2 -0.3
3 -0.57
4 -0.57
5 -0.55
6 0.12
7 0.09
8 -0.15
9 -0.15

> <PUBCHEM_EFFECTIVE_ROTOR_COUNT>
0

> <PUBCHEM_PHARMACOPHORE_FEATURES>
6
1 1 hydrophobe
1 3 acceptor
1 4 acceptor
1 5 donor
6 2 5 6 7 10 13 rings
6 6 7 8 9 11 12 rings

> <PUBCHEM_HEAVY_ATOM_COUNT>
13

> <PUBCHEM_ATOM_DEF_STEREO_COUNT>
0

> <PUBCHEM_ATOM_UDEF_STEREO_COUNT>
0

> <PUBCHEM_BOND_DEF_STEREO_COUNT>
0

> <PUBCHEM_BOND_UDEF_STEREO_COUNT>
0

> <PUBCHEM_ISOTOPIC_ATOM_COUNT>
0

> <PUBCHEM_COMPONENT_COUNT>
1

> <PUBCHEM_CACTVS_TAUTO_COUNT>
3

> <PUBCHEM_CONFORMER_ID>
0004673100000001

> <PUBCHEM_MMFF94_ENERGY>
37.5734

> <PUBCHEM_FEATURE_SELFOVERLAP>
30.473

> <PUBCHEM_SHAPE_FINGERPRINT>
10130415 120 18408882932463620440
10967382 1 18338798905704674918
11132069 177 18411694388006635168
12032990 46 18411144614907389286
13380535 21 18193849351554383300
13380535 76 18413671292338199670
13690532 89 18410009905822117042
14115302 16 18261685817674459036
14325111 11 18410574023917257889
14911166 2 18410854339189274572
14993402 34 18409446955805463764
15775835 57 18187647976876482600
16945 1 18410573989615353412
17804303 29 18413110571920859944
18511873 20 18334857216774974354
193761 8 18050287264897690276
19973954 147 18121781891849690060
20201158 50 18343866589225294398
20510252 161 18128815244753444600
20511035 2 18128252487909683196
20588541 1 18341054025712547014
20645476 183 17823438122052382838
21501502 16 18266741474906996972
2334 1 18122626325512161920
23402539 116 18272078366708853828
23402655 69 18196638624198197141
23463225 33 18335700508039585394
23552423 10 18044938123870146092
23559900 14 18342177770326444372
25 1 18118391857405425925
2748010 2 18194964269155704772
528886 8 18411132515588832272
53812653 166 18413103940211728312
54173680 148 18337674246932838514
69090 78 18342731923005337991
74978 22 18337953505869532428
8809292 202 18335143119794681410

> <PUBCHEM_SHAPE_MULTIPOLES>
250.89
5.51
2
0.6
2.11
0.49
0
0
0
-0.34
0
0.11
-0.01
0

> <PUBCHEM_SHAPE_SELFOVERLAP>
535.689

> <PUBCHEM_SHAPE_VOLUME>
142.8

> <PUBCHEM_COORDINATE_TYPE>
2
5
10

$$$$
