2151869
  -OEChem-01171809353D

 48 51  0     0  0  0  0  0  0999 V2000
   -0.3875   -0.3861   -2.2988 O   0  0  0  0  0  0  0  0  0  0  0  0
   -0.2805    0.2071    2.3324 O   0  0  0  0  0  0  0  0  0  0  0  0
    1.0815    3.9097   -0.7700 O   0  0  0  0  0  0  0  0  0  0  0  0
    4.3201   -2.3578    0.4561 O   0  0  0  0  0  0  0  0  0  0  0  0
   -0.4246    2.3132   -1.4642 O   0  0  0  0  0  0  0  0  0  0  0  0
    5.7960   -0.7260    1.1326 O   0  0  0  0  0  0  0  0  0  0  0  0
   -0.0497   -0.0061   -0.0004 N   0  0  0  0  0  0  0  0  0  0  0  0
   -2.7590   -1.5145   -0.0930 C   0  0  0  0  0  0  0  0  0  0  0  0
   -3.1147   -0.1909    0.4422 C   0  0  0  0  0  0  0  0  0  0  0  0
   -1.5884   -1.7245   -0.8370 C   0  0  0  0  0  0  0  0  0  0  0  0
   -2.1669    0.6404    1.0579 C   0  0  0  0  0  0  0  0  0  0  0  0
    1.3394    0.4007   -0.0846 C   0  0  0  0  0  0  0  0  0  0  0  0
   -0.6263   -0.6401   -1.1198 C   0  0  0  0  0  0  0  0  0  0  0  0
   -0.7478    0.2541    1.1961 C   0  0  0  0  0  0  0  0  0  0  0  0
    1.6818    1.6638   -0.5549 C   0  0  0  0  0  0  0  0  0  0  0  0
   -3.5979   -2.6269    0.1157 C   0  0  0  0  0  0  0  0  0  0  0  0
   -4.4376    0.2877    0.3652 C   0  0  0  0  0  0  0  0  0  0  0  0
   -1.2813   -2.9821   -1.3782 C   0  0  0  0  0  0  0  0  0  0  0  0
   -2.5269    1.8821    1.6029 C   0  0  0  0  0  0  0  0  0  0  0  0
    2.3245   -0.4969    0.3139 C   0  0  0  0  0  0  0  0  0  0  0  0
    3.6673   -0.1266    0.2413 C   0  0  0  0  0  0  0  0  0  0  0  0
   -3.2892   -3.8846   -0.4104 C   0  0  0  0  0  0  0  0  0  0  0  0
   -4.7981    1.5298    0.8951 C   0  0  0  0  0  0  0  0  0  0  0  0
   -2.1328   -4.0606   -1.1612 C   0  0  0  0  0  0  0  0  0  0  0  0
   -3.8432    2.3249    1.5180 C   0  0  0  0  0  0  0  0  0  0  0  0
    3.0246    2.0341   -0.6275 C   0  0  0  0  0  0  0  0  0  0  0  0
    4.0175    1.1389   -0.2294 C   0  0  0  0  0  0  0  0  0  0  0  0
    0.6694    2.6231   -0.9785 C   0  0  0  0  0  0  0  0  0  0  0  0
    4.7030   -1.0596    0.6562 C   0  0  0  0  0  0  0  0  0  0  0  0
    0.1696    4.9473   -1.1464 C   0  0  0  0  0  0  0  0  0  0  0  0
    5.2578   -3.3736    0.8284 C   0  0  0  0  0  0  0  0  0  0  0  0
   -4.5103   -2.5299    0.7014 H   0  0  0  0  0  0  0  0  0  0  0  0
   -5.2128   -0.3041   -0.1181 H   0  0  0  0  0  0  0  0  0  0  0  0
   -0.3755   -3.1322   -1.9606 H   0  0  0  0  0  0  0  0  0  0  0  0
   -1.7858    2.5154    2.0843 H   0  0  0  0  0  0  0  0  0  0  0  0
    2.0310   -1.4745    0.6893 H   0  0  0  0  0  0  0  0  0  0  0  0
   -3.9555   -4.7239   -0.2331 H   0  0  0  0  0  0  0  0  0  0  0  0
   -5.8262    1.8722    0.8210 H   0  0  0  0  0  0  0  0  0  0  0  0
   -1.8932   -5.0362   -1.5734 H   0  0  0  0  0  0  0  0  0  0  0  0
   -4.1220    3.2889    1.9327 H   0  0  0  0  0  0  0  0  0  0  0  0
    3.3329    3.0060   -1.0038 H   0  0  0  0  0  0  0  0  0  0  0  0
    5.0595    1.4407   -0.2981 H   0  0  0  0  0  0  0  0  0  0  0  0
   -0.7592    4.8581   -0.5751 H   0  0  0  0  0  0  0  0  0  0  0  0
   -0.0315    4.9007   -2.2207 H   0  0  0  0  0  0  0  0  0  0  0  0
    0.6344    5.9094   -0.9159 H   0  0  0  0  0  0  0  0  0  0  0  0
    4.8103   -4.3467    0.6096 H   0  0  0  0  0  0  0  0  0  0  0  0
    5.4703   -3.3158    1.9000 H   0  0  0  0  0  0  0  0  0  0  0  0
    6.1777   -3.2692    0.2455 H   0  0  0  0  0  0  0  0  0  0  0  0
  1 13  2  0  0  0  0
  2 14  2  0  0  0  0
  3 28  1  0  0  0  0
  3 30  1  0  0  0  0
  4 29  1  0  0  0  0
  4 31  1  0  0  0  0
  5 28  2  0  0  0  0
  6 29  2  0  0  0  0
  7 12  1  0  0  0  0
  7 13  1  0  0  0  0
  7 14  1  0  0  0  0
  8  9  1  0  0  0  0
  8 10  1  0  0  0  0
  8 16  2  0  0  0  0
  9 11  1  0  0  0  0
  9 17  2  0  0  0  0
 10 13  1  0  0  0  0
 10 18  2  0  0  0  0
 11 14  1  0  0  0  0
 11 19  2  0  0  0  0
 12 15  2  0  0  0  0
 12 20  1  0  0  0  0
 15 26  1  0  0  0  0
 15 28  1  0  0  0  0
 16 22  1  0  0  0  0
 16 32  1  0  0  0  0
 17 23  1  0  0  0  0
 17 33  1  0  0  0  0
 18 24  1  0  0  0  0
 18 34  1  0  0  0  0
 19 25  1  0  0  0  0
 19 35  1  0  0  0  0
 20 21  2  0  0  0  0
 20 36  1  0  0  0  0
 21 27  1  0  0  0  0
 21 29  1  0  0  0  0
 22 24  2  0  0  0  0
 22 37  1  0  0  0  0
 23 25  2  0  0  0  0
 23 38  1  0  0  0  0
 24 39  1  0  0  0  0
 25 40  1  0  0  0  0
 26 27  2  0  0  0  0
 26 41  1  0  0  0  0
 27 42  1  0  0  0  0
 30 43  1  0  0  0  0
 30 44  1  0  0  0  0
 30 45  1  0  0  0  0
 31 46  1  0  0  0  0
 31 47  1  0  0  0  0
 31 48  1  0  0  0  0
M  END
> <PUBCHEM_COMPOUND_CID>
2151869

> <PUBCHEM_CONFORMER_RMSD>
0.8

> <PUBCHEM_CONFORMER_DIVERSEORDER>
1
4
6
2
3
7
8
5

> <PUBCHEM_MMFF94_PARTIAL_CHARGES>
40
1 -0.57
10 0.09
11 0.09
12 0.12
13 0.54
14 0.54
15 0.09
16 -0.15
17 -0.15
18 -0.15
19 -0.15
2 -0.57
20 -0.15
21 0.09
22 -0.15
23 -0.15
24 -0.15
25 -0.15
26 -0.15
27 -0.15
28 0.63
29 0.63
3 -0.43
30 0.28
31 0.28
32 0.15
33 0.15
34 0.15
35 0.15
36 0.15
37 0.15
38 0.15
39 0.15
4 -0.43
40 0.15
41 0.15
42 0.15
5 -0.57
6 -0.57
7 -0.24

> <PUBCHEM_EFFECTIVE_ROTOR_COUNT>
5

> <PUBCHEM_PHARMACOPHORE_FEATURES>
8
1 1 acceptor
1 2 acceptor
1 5 acceptor
1 6 acceptor
6 12 15 20 21 26 27 rings
6 8 10 16 18 22 24 rings
6 9 11 17 19 23 25 rings
7 7 8 9 10 11 13 14 rings

> <PUBCHEM_HEAVY_ATOM_COUNT>
31

> <PUBCHEM_ATOM_DEF_STEREO_COUNT>
0

> <PUBCHEM_ATOM_UDEF_STEREO_COUNT>
0

> <PUBCHEM_BOND_DEF_STEREO_COUNT>
0

> <PUBCHEM_BOND_UDEF_STEREO_COUNT>
0

> <PUBCHEM_ISOTOPIC_ATOM_COUNT>
0

> <PUBCHEM_COMPONENT_COUNT>
1

> <PUBCHEM_CACTVS_TAUTO_COUNT>
1

> <PUBCHEM_CONFORMER_ID>
0020D5BD00000001

> <PUBCHEM_MMFF94_ENERGY>
148.5409

> <PUBCHEM_FEATURE_SELFOVERLAP>
40.625

> <PUBCHEM_SHAPE_FINGERPRINT>
10622 236 18268134521532653534
11370993 70 18058736797298830577
11421498 54 17548419662060605491
11578080 2 18057296548673057184
12107183 9 18339082570961797626
12422481 6 18124600773496765440
12467345 10 18337393854530239339
12788726 201 18054801838267066635
13004483 165 18335415712926807992
13009979 54 18270685401567062034
13583140 156 17275096271654264882
13692114 37 17687441495618413429
13726171 33 17198856233799714865
13965767 371 17621624721063186977
14117953 113 18195248824030590757
14400156 413 17543614784470508503
15219462 58 17319046066255878035
15361156 5 18187377493707935450
15420108 30 17983011155509461595
16110190 28 18340764841755336890
16114785 44 17980451522252108364
16728300 4 17679577836006187555
17492 89 18265619972846790131
17818456 19 18343308041455115568
17980427 23 18060701684718381437
1813 80 17458353996490678918
19141452 34 18340204098892528650
19319366 153 17186154817146023094
20642791 105 18342738529524707067
20715895 44 18341059541062958953
21033648 29 18058437729967869017
2132832 1 18125426751505294839
229767 44 18268430126950761283
23559900 14 18052247681345352955
23569917 315 18201160937014342279
23598288 3 17773315840601452663
238918 7 17908705025142196069
340366 18 18409738352388892701
352729 6 18130242544221989399
3886686 26 18267591212644200111
4017518 198 17702383944998165558
4409770 3 17972021566232561660
463206 1 18186801387853286786
5028188 123 18271811242652572622
513202 73 17755587036369774274
563151 97 17902519516818084396
56633871 153 18338233739733161114
7097593 13 18338239378692229398

> <PUBCHEM_SHAPE_MULTIPOLES>
597.77
9.43
5.3
1.59
8.14
0.34
0.02
-5.01
4.09
-1.05
-2.08
-0.4
0.38
-3.24

> <PUBCHEM_SHAPE_SELFOVERLAP>
1332.703

> <PUBCHEM_SHAPE_VOLUME>
315.4

> <PUBCHEM_COORDINATE_TYPE>
2
5
10

$$$$
