1399204
  -OEChem-01171809593D

 41 43  0     0  0  0  0  0  0999 V2000
    3.6111    3.8653   -0.1368 Cl  0  0  0  0  0  0  0  0  0  0  0  0
   -1.1751    1.7490   -3.1862 O   0  0  0  0  0  0  0  0  0  0  0  0
    3.8419    1.1502    0.9625 O   0  0  0  0  0  0  0  0  0  0  0  0
    1.5120    0.6699    0.8905 N   0  0  0  0  0  0  0  0  0  0  0  0
   -2.6912    0.7564   -1.7710 N   0  0  0  0  0  0  0  0  0  0  0  0
    0.2361    1.0842    1.3842 C   0  0  0  0  0  0  0  0  0  0  0  0
   -0.7759    0.9736    0.2809 C   0  0  0  0  0  0  0  0  0  0  0  0
   -2.0964    0.3678    0.5539 C   0  0  0  0  0  0  0  0  0  0  0  0
   -3.0262    0.2764   -0.4935 C   0  0  0  0  0  0  0  0  0  0  0  0
    1.6474   -0.7004    0.3800 C   0  0  0  0  0  0  0  0  0  0  0  0
   -0.4983    1.4193   -0.9553 C   0  0  0  0  0  0  0  0  0  0  0  0
   -2.4691   -0.1232    1.8137 C   0  0  0  0  0  0  0  0  0  0  0  0
   -1.4747    1.3271   -2.0714 C   0  0  0  0  0  0  0  0  0  0  0  0
    2.6699    1.5216    0.8665 C   0  0  0  0  0  0  0  0  0  0  0  0
   -4.2907   -0.2870   -0.2933 C   0  0  0  0  0  0  0  0  0  0  0  0
    2.5609   -0.9122   -0.6044 C   0  0  0  0  0  0  0  0  0  0  0  0
    0.8487   -1.6532    0.9304 C   0  0  0  0  0  0  0  0  0  0  0  0
   -3.7323   -0.6870    2.0163 C   0  0  0  0  0  0  0  0  0  0  0  0
    1.8978   -3.2350   -0.5643 C   0  0  0  0  0  0  0  0  0  0  0  0
   -4.6414   -0.7688    0.9647 C   0  0  0  0  0  0  0  0  0  0  0  0
    2.6896   -2.2137   -1.0892 C   0  0  0  0  0  0  0  0  0  0  0  0
    0.9773   -2.9547    0.4455 C   0  0  0  0  0  0  0  0  0  0  0  0
    2.3432    3.0011    0.7581 C   0  0  0  0  0  0  0  0  0  0  0  0
    2.0352   -4.6266   -1.0820 C   0  0  0  0  0  0  0  0  0  0  0  0
    0.0371    0.5057    2.2862 H   0  0  0  0  0  0  0  0  0  0  0  0
    0.2545    2.1183    1.7439 H   0  0  0  0  0  0  0  0  0  0  0  0
    0.4512    1.8691   -1.2199 H   0  0  0  0  0  0  0  0  0  0  0  0
   -1.8177   -0.0775    2.6790 H   0  0  0  0  0  0  0  0  0  0  0  0
   -3.3854    0.6760   -2.5086 H   0  0  0  0  0  0  0  0  0  0  0  0
   -5.0061   -0.3546   -1.1088 H   0  0  0  0  0  0  0  0  0  0  0  0
    3.1605   -0.1327   -1.0600 H   0  0  0  0  0  0  0  0  0  0  0  0
    0.1532   -1.4925    1.7424 H   0  0  0  0  0  0  0  0  0  0  0  0
   -4.0068   -1.0597    2.9992 H   0  0  0  0  0  0  0  0  0  0  0  0
   -5.6220   -1.2066    1.1261 H   0  0  0  0  0  0  0  0  0  0  0  0
    3.4027   -2.4178   -1.8837 H   0  0  0  0  0  0  0  0  0  0  0  0
    0.3600   -3.7437    0.8673 H   0  0  0  0  0  0  0  0  0  0  0  0
    1.4126    3.1985    0.2303 H   0  0  0  0  0  0  0  0  0  0  0  0
    2.2875    3.4263    1.7641 H   0  0  0  0  0  0  0  0  0  0  0  0
    1.3403   -4.7890   -1.9117 H   0  0  0  0  0  0  0  0  0  0  0  0
    3.0541   -4.8186   -1.4353 H   0  0  0  0  0  0  0  0  0  0  0  0
    1.8245   -5.3620   -0.2980 H   0  0  0  0  0  0  0  0  0  0  0  0
  1 23  1  0  0  0  0
  2 13  2  0  0  0  0
  3 14  2  0  0  0  0
  4  6  1  0  0  0  0
  4 10  1  0  0  0  0
  4 14  1  0  0  0  0
  5  9  1  0  0  0  0
  5 13  1  0  0  0  0
  5 29  1  0  0  0  0
  6  7  1  0  0  0  0
  6 25  1  0  0  0  0
  6 26  1  0  0  0  0
  7  8  1  0  0  0  0
  7 11  2  0  0  0  0
  8  9  1  0  0  0  0
  8 12  2  0  0  0  0
  9 15  2  0  0  0  0
 10 16  2  0  0  0  0
 10 17  1  0  0  0  0
 11 13  1  0  0  0  0
 11 27  1  0  0  0  0
 12 18  1  0  0  0  0
 12 28  1  0  0  0  0
 14 23  1  0  0  0  0
 15 20  1  0  0  0  0
 15 30  1  0  0  0  0
 16 21  1  0  0  0  0
 16 31  1  0  0  0  0
 17 22  2  0  0  0  0
 17 32  1  0  0  0  0
 18 20  2  0  0  0  0
 18 33  1  0  0  0  0
 19 21  2  0  0  0  0
 19 22  1  0  0  0  0
 19 24  1  0  0  0  0
 20 34  1  0  0  0  0
 21 35  1  0  0  0  0
 22 36  1  0  0  0  0
 23 37  1  0  0  0  0
 23 38  1  0  0  0  0
 24 39  1  0  0  0  0
 24 40  1  0  0  0  0
 24 41  1  0  0  0  0
M  END
> <PUBCHEM_COMPOUND_CID>
1399204

> <PUBCHEM_CONFORMER_RMSD>
0.8

> <PUBCHEM_CONFORMER_DIVERSEORDER>
1
37
7
17
23
46
45
48
27
25
6
21
54
12
62
32
44
39
8
13
36
55
57
49
50
26
14
16
38
56
24
52
5
58
53
63
31
40
60
59
19
51
30
10
22
11
41
35
15
42
33
18
47
2
3
9
34
61
43
20
4
29
28

> <PUBCHEM_MMFF94_PARTIAL_CHARGES>
34
1 -0.29
10 0.12
11 -0.14
12 -0.15
13 0.62
14 0.57
15 -0.15
16 -0.15
17 -0.15
18 -0.15
19 -0.14
2 -0.57
20 -0.15
21 -0.15
22 -0.15
23 0.35
24 0.14
27 0.15
28 0.15
29 0.37
3 -0.57
30 0.15
31 0.15
32 0.15
33 0.15
34 0.15
35 0.15
36 0.15
4 -0.48
5 -0.55
6 0.44
7 -0.17
8 0.03
9 0.12

> <PUBCHEM_EFFECTIVE_ROTOR_COUNT>
5

> <PUBCHEM_PHARMACOPHORE_FEATURES>
6
1 2 acceptor
1 3 acceptor
1 5 donor
6 10 16 17 19 21 22 rings
6 5 7 8 9 11 13 rings
6 8 9 12 15 18 20 rings

> <PUBCHEM_HEAVY_ATOM_COUNT>
24

> <PUBCHEM_ATOM_DEF_STEREO_COUNT>
0

> <PUBCHEM_ATOM_UDEF_STEREO_COUNT>
0

> <PUBCHEM_BOND_DEF_STEREO_COUNT>
0

> <PUBCHEM_BOND_UDEF_STEREO_COUNT>
0

> <PUBCHEM_ISOTOPIC_ATOM_COUNT>
0

> <PUBCHEM_COMPONENT_COUNT>
1

> <PUBCHEM_CACTVS_TAUTO_COUNT>
2

> <PUBCHEM_CONFORMER_ID>
001559A400000001

> <PUBCHEM_MMFF94_ENERGY>
93.3289

> <PUBCHEM_FEATURE_SELFOVERLAP>
30.471

> <PUBCHEM_SHAPE_FINGERPRINT>
10165383 225 18122355828583376936
10906281 52 17530963635750402909
11488393 25 18336828602722572762
11578080 2 18190751838204729381
11582403 64 16240036876910635164
12035758 1 18412542146311333386
12156800 1 17329459613902445886
12553582 1 17547852949605648043
12788726 201 16826145539052488690
13533116 47 18131634491915643587
13583140 156 17243263215381242664
13911987 19 18267296715421216740
14863182 85 18050311433064040459
15664445 248 17458359536840261101
15840311 113 18266754502666867841
17138139 8 16982903388824690983
1813 80 17487353542490242774
18915476 22 18339348713042353013
20101258 96 17624424078136800930
20600515 1 16733543956949902373
20645477 70 18341600491713439503
21285901 2 17968084318847456895
21731516 1 17771902727536310682
2255824 54 18272658939161146754
2260408 40 17972631954964313923
23557571 272 17530960268110758253
23559900 14 18337951190755819441
23598288 3 17059215817530420025
238 59 18049685664459563950
25222932 49 17416126320872277375
3729539 64 18266203720012638356
458136 41 18269845357524788096
57527293 21 17751359701417200785
59755656 520 17985828374835823632
621550 34 18334291006957524425
6287921 2 18263379112461864253
6669772 16 18337953511008447200
81228 2 17313668131842116229
8272917 22 18272096006508998569
84936 31 18339367460495517677
9925002 15 16892585225388267949

> <PUBCHEM_SHAPE_MULTIPOLES>
474.08
7.04
4.44
2.01
5.12
3.02
-1.14
-1.19
1.43
-7.38
-1.15
1.5
-0.77
1.91

> <PUBCHEM_SHAPE_SELFOVERLAP>
1020.996

> <PUBCHEM_SHAPE_VOLUME>
261.4

> <PUBCHEM_COORDINATE_TYPE>
2
5
10

$$$$
