5334257
  -OEChem-01171810013D

 61 63  0     1  0  0  0  0  0999 V2000
   -5.2606   -0.5501    1.0024 S   0  0  0  0  0  0  0  0  0  0  0  0
   -5.5736   -0.3369    2.4039 O   0  0  0  0  0  0  0  0  0  0  0  0
   -5.8444   -1.6840    0.3093 O   0  0  0  0  0  0  0  0  0  0  0  0
   -2.6532   -3.2373    0.8980 O   0  0  0  0  0  0  0  0  0  0  0  0
   -1.0377   -0.4864    2.3857 O   0  0  0  0  0  0  0  0  0  0  0  0
    7.1845    1.1673    0.0735 O   0  0  0  0  0  0  0  0  0  0  0  0
    9.6533   -1.4179    0.1803 O   0  0  0  0  0  0  0  0  0  0  0  0
    9.5696    0.5568   -1.0122 O   0  0  0  0  0  0  0  0  0  0  0  0
   -3.5320   -0.5400    0.8029 N   0  0  1  0  0  0  0  0  0  0  0  0
   -0.4906    1.0029    0.6944 N   0  0  0  0  0  0  0  0  0  0  0  0
    0.8381    0.7995    0.8446 N   0  0  0  0  0  0  0  0  0  0  0  0
   -3.0394   -1.2413   -0.3754 C   0  0  0  0  0  0  0  0  0  0  0  0
   -2.7998    0.6687    1.2087 C   0  0  0  0  0  0  0  0  0  0  0  0
   -5.7694    0.9075    0.1313 C   0  0  0  0  0  0  0  0  0  0  0  0
   -2.6169   -2.5677   -0.2883 C   0  0  0  0  0  0  0  0  0  0  0  0
   -2.9926   -0.5734   -1.5991 C   0  0  0  0  0  0  0  0  0  0  0  0
   -5.8548    2.1272    0.8026 C   0  0  0  0  0  0  0  0  0  0  0  0
   -6.0829    0.8349   -1.2259 C   0  0  0  0  0  0  0  0  0  0  0  0
   -1.3678    0.3133    1.5136 C   0  0  0  0  0  0  0  0  0  0  0  0
   -2.1476   -3.2262   -1.4248 C   0  0  0  0  0  0  0  0  0  0  0  0
   -2.5233   -1.2319   -2.7357 C   0  0  0  0  0  0  0  0  0  0  0  0
   -2.1007   -2.5583   -2.6486 C   0  0  0  0  0  0  0  0  0  0  0  0
   -6.2537    3.2743    0.1166 C   0  0  0  0  0  0  0  0  0  0  0  0
   -6.4817    1.9820   -1.9120 C   0  0  0  0  0  0  0  0  0  0  0  0
   -6.5672    3.2017   -1.2407 C   0  0  0  0  0  0  0  0  0  0  0  0
   -2.2016   -4.5900    0.8923 C   0  0  0  0  0  0  0  0  0  0  0  0
    3.0407    1.4049    0.0425 C   0  0  0  0  0  0  0  0  0  0  0  0
    1.5697    1.4905    0.0322 C   0  0  0  0  0  0  0  0  0  0  0  0
    3.6842    0.5610    0.9476 C   0  0  0  0  0  0  0  0  0  0  0  0
    3.7899    2.1687   -0.8526 C   0  0  0  0  0  0  0  0  0  0  0  0
    5.8257    1.2442    0.0623 C   0  0  0  0  0  0  0  0  0  0  0  0
    5.0767    0.4805    0.9575 C   0  0  0  0  0  0  0  0  0  0  0  0
    5.1824    2.0883   -0.8427 C   0  0  0  0  0  0  0  0  0  0  0  0
    7.7614   -0.0747    0.4740 C   0  0  0  0  0  0  0  0  0  0  0  0
    9.0875   -0.2413   -0.2199 C   0  0  0  0  0  0  0  0  0  0  0  0
   10.9278   -1.7167   -0.3984 C   0  0  0  0  0  0  0  0  0  0  0  0
   -3.2179    1.0697    2.1389 H   0  0  0  0  0  0  0  0  0  0  0  0
   -2.8728    1.4525    0.4487 H   0  0  0  0  0  0  0  0  0  0  0  0
   -3.2967    0.4647   -1.6897 H   0  0  0  0  0  0  0  0  0  0  0  0
   -5.6114    2.2083    1.8579 H   0  0  0  0  0  0  0  0  0  0  0  0
   -6.0270   -0.1044   -1.7685 H   0  0  0  0  0  0  0  0  0  0  0  0
   -1.8025   -4.2542   -1.4348 H   0  0  0  0  0  0  0  0  0  0  0  0
   -2.4825   -0.7104   -3.6874 H   0  0  0  0  0  0  0  0  0  0  0  0
   -1.7342   -3.0696   -3.5341 H   0  0  0  0  0  0  0  0  0  0  0  0
   -6.3190    4.2244    0.6388 H   0  0  0  0  0  0  0  0  0  0  0  0
   -6.7261    1.9255   -2.9687 H   0  0  0  0  0  0  0  0  0  0  0  0
   -6.8774    4.0950   -1.7750 H   0  0  0  0  0  0  0  0  0  0  0  0
   -0.7969    1.6557   -0.0205 H   0  0  0  0  0  0  0  0  0  0  0  0
   -2.8320   -5.2240    0.2595 H   0  0  0  0  0  0  0  0  0  0  0  0
   -1.1403   -4.6607    0.6306 H   0  0  0  0  0  0  0  0  0  0  0  0
   -2.3009   -4.9662    1.9159 H   0  0  0  0  0  0  0  0  0  0  0  0
    1.1251    2.1793   -0.7106 H   0  0  0  0  0  0  0  0  0  0  0  0
    3.1261   -0.0406    1.6599 H   0  0  0  0  0  0  0  0  0  0  0  0
    3.3023    2.8308   -1.5634 H   0  0  0  0  0  0  0  0  0  0  0  0
    5.5400   -0.1680    1.6953 H   0  0  0  0  0  0  0  0  0  0  0  0
    5.7608    2.6857   -1.5422 H   0  0  0  0  0  0  0  0  0  0  0  0
    7.1402   -0.9265    0.1707 H   0  0  0  0  0  0  0  0  0  0  0  0
    7.9273   -0.0611    1.5560 H   0  0  0  0  0  0  0  0  0  0  0  0
   10.8395   -1.8011   -1.4857 H   0  0  0  0  0  0  0  0  0  0  0  0
   11.6564   -0.9466   -0.1278 H   0  0  0  0  0  0  0  0  0  0  0  0
   11.2663   -2.6762    0.0017 H   0  0  0  0  0  0  0  0  0  0  0  0
  1  2  2  0  0  0  0
  1  3  2  0  0  0  0
  1  9  1  0  0  0  0
  1 14  1  0  0  0  0
  4 15  1  0  0  0  0
  4 26  1  0  0  0  0
  5 19  2  0  0  0  0
  6 31  1  0  0  0  0
  6 34  1  0  0  0  0
  7 35  1  0  0  0  0
  7 36  1  0  0  0  0
  8 35  2  0  0  0  0
  9 12  1  0  0  0  0
  9 13  1  0  0  0  0
 10 11  1  0  0  0  0
 10 19  1  0  0  0  0
 10 48  1  0  0  0  0
 11 28  2  0  0  0  0
 12 15  1  0  0  0  0
 12 16  2  0  0  0  0
 13 19  1  0  0  0  0
 13 37  1  0  0  0  0
 13 38  1  0  0  0  0
 14 17  2  0  0  0  0
 14 18  1  0  0  0  0
 15 20  2  0  0  0  0
 16 21  1  0  0  0  0
 16 39  1  0  0  0  0
 17 23  1  0  0  0  0
 17 40  1  0  0  0  0
 18 24  2  0  0  0  0
 18 41  1  0  0  0  0
 20 22  1  0  0  0  0
 20 42  1  0  0  0  0
 21 22  2  0  0  0  0
 21 43  1  0  0  0  0
 22 44  1  0  0  0  0
 23 25  2  0  0  0  0
 23 45  1  0  0  0  0
 24 25  1  0  0  0  0
 24 46  1  0  0  0  0
 25 47  1  0  0  0  0
 26 49  1  0  0  0  0
 26 50  1  0  0  0  0
 26 51  1  0  0  0  0
 27 28  1  0  0  0  0
 27 29  2  0  0  0  0
 27 30  1  0  0  0  0
 28 52  1  0  0  0  0
 29 32  1  0  0  0  0
 29 53  1  0  0  0  0
 30 33  2  0  0  0  0
 30 54  1  0  0  0  0
 31 32  2  0  0  0  0
 31 33  1  0  0  0  0
 32 55  1  0  0  0  0
 33 56  1  0  0  0  0
 34 35  1  0  0  0  0
 34 57  1  0  0  0  0
 34 58  1  0  0  0  0
 36 59  1  0  0  0  0
 36 60  1  0  0  0  0
 36 61  1  0  0  0  0
M  END
> <PUBCHEM_COMPOUND_CID>
5334257

> <PUBCHEM_CONFORMER_RMSD>
1.2

> <PUBCHEM_CONFORMER_DIVERSEORDER>
1
66
12
92
95
5
47
9
83
6
68
38
88
13
48
15
39
57
52
102
97
82
19
7
64
16
75
20
94
60
42
56
70
84
96
25
55
30
58
31
11
74
62
8
81
3
36
26
72
41
40
27
59
93
21
86
76
91
77
67
99
89
37
4
10
53
54
34
71
14
29
32
50
2
45
17
98
90
49
28
69
43
85
63
18
101
46
61
79
51
24
73
33
78
87
22
35
44
80
23
65
100

> <PUBCHEM_MMFF94_PARTIAL_CHARGES>
51
1 1.45
10 -0.37
11 -0.51
12 0.2
13 0.42
14 -0.01
15 0.08
16 -0.15
17 -0.15
18 -0.15
19 0.57
2 -0.65
20 -0.15
21 -0.15
22 -0.15
23 -0.15
24 -0.15
25 -0.15
26 0.28
27 0.09
28 0.3
29 -0.15
3 -0.65
30 -0.15
31 0.08
32 -0.15
33 -0.15
34 0.34
35 0.66
36 0.28
39 0.15
4 -0.36
40 0.15
41 0.15
42 0.15
43 0.15
44 0.15
45 0.15
46 0.15
47 0.15
48 0.37
5 -0.57
52 0.06
53 0.15
54 0.15
55 0.15
56 0.15
6 -0.36
7 -0.43
8 -0.57
9 -0.69

> <PUBCHEM_EFFECTIVE_ROTOR_COUNT>
13

> <PUBCHEM_PHARMACOPHORE_FEATURES>
11
1 10 donor
1 11 acceptor
1 2 acceptor
1 3 acceptor
1 4 acceptor
1 5 acceptor
1 6 acceptor
1 8 acceptor
6 12 15 16 20 21 22 rings
6 14 17 18 23 24 25 rings
6 27 29 30 31 32 33 rings

> <PUBCHEM_HEAVY_ATOM_COUNT>
36

> <PUBCHEM_ATOM_DEF_STEREO_COUNT>
0

> <PUBCHEM_ATOM_UDEF_STEREO_COUNT>
0

> <PUBCHEM_BOND_DEF_STEREO_COUNT>
1

> <PUBCHEM_BOND_UDEF_STEREO_COUNT>
0

> <PUBCHEM_ISOTOPIC_ATOM_COUNT>
0

> <PUBCHEM_COMPONENT_COUNT>
1

> <PUBCHEM_CACTVS_TAUTO_COUNT>
2

> <PUBCHEM_CONFORMER_ID>
005164F100000001

> <PUBCHEM_MMFF94_ENERGY>
108.1667

> <PUBCHEM_FEATURE_SELFOVERLAP>
55.858

> <PUBCHEM_SHAPE_FINGERPRINT>
10369192 42 15791727486226367578
105312 117 18343022195035322893
10577160 183 17988636372433675887
11135926 11 17775573026272510742
12082328 90 17894633686184067256
14118638 360 11747204780481315584
14856354 85 16732704974012139057
15183329 4 17385715911331198976
15230672 131 18335134289611271218
15439362 3 18120651324242240313
17686467 74 9151164347175328342
18603816 31 17060044965356800140
20721686 146 17024295337845653853
21133665 82 18272370819806498348
23559900 14 17274252997358806256
249057 3 18413387640055974688
3383291 50 17131274687785811447
4015057 19 15769485556293283385
4173938 306 17489293162548132040
44802255 64 18411415112211513767
4625314 4 18341049705783127520
6691757 9 17632302267411198211

> <PUBCHEM_SHAPE_MULTIPOLES>
688.68
28.58
3.94
2
86.4
3.07
0.52
-6.59
4.01
-6.25
0.77
-3.23
0.76
0.55

> <PUBCHEM_SHAPE_SELFOVERLAP>
1446.168

> <PUBCHEM_SHAPE_VOLUME>
387.9

> <PUBCHEM_COORDINATE_TYPE>
2
5
10

$$$$
