2420694
  -OEChem-01171809353D

 35 36  0     0  0  0  0  0  0999 V2000
    1.5195    0.0366   -3.0948 Cl  0  0  0  0  0  0  0  0  0  0  0  0
   -2.5659    2.7623    1.4700 S   0  0  0  0  0  0  0  0  0  0  0  0
    5.4531   -1.8639   -0.2571 F   0  0  0  0  0  0  0  0  0  0  0  0
    5.9176   -0.2422    1.1060 F   0  0  0  0  0  0  0  0  0  0  0  0
    4.6336   -1.8720    1.7571 F   0  0  0  0  0  0  0  0  0  0  0  0
   -2.0229    0.7019   -0.3174 N   0  0  0  0  0  0  0  0  0  0  0  0
    0.3355    1.8034   -0.9644 N   0  0  0  0  0  0  0  0  0  0  0  0
   -0.4381    2.4112   -0.0137 N   0  0  0  0  0  0  0  0  0  0  0  0
    1.9162    1.2509    0.7047 N   0  0  0  0  0  0  0  0  0  0  0  0
   -3.1479   -0.1233   -0.3022 C   0  0  0  0  0  0  0  0  0  0  0  0
   -5.0239   -1.0825    0.8801 C   0  0  0  0  0  0  0  0  0  0  0  0
   -3.8990   -0.2577    0.8655 C   0  0  0  0  0  0  0  0  0  0  0  0
    3.6951   -0.3145    0.2251 C   0  0  0  0  0  0  0  0  0  0  0  0
    1.4711    1.0848   -0.5691 C   0  0  0  0  0  0  0  0  0  0  0  0
   -3.5217   -0.8136   -1.4553 C   0  0  0  0  0  0  0  0  0  0  0  0
   -5.3976   -1.7733   -0.2728 C   0  0  0  0  0  0  0  0  0  0  0  0
    3.2205   -0.4675   -1.0730 C   0  0  0  0  0  0  0  0  0  0  0  0
    2.0945    0.2376   -1.4831 C   0  0  0  0  0  0  0  0  0  0  0  0
   -4.6464   -1.6386   -1.4406 C   0  0  0  0  0  0  0  0  0  0  0  0
    3.0134    0.5491    1.0674 C   0  0  0  0  0  0  0  0  0  0  0  0
   -5.8269   -1.2276    2.1287 C   0  0  0  0  0  0  0  0  0  0  0  0
   -1.6769    1.8931    0.3446 C   0  0  0  0  0  0  0  0  0  0  0  0
    4.8971   -1.0542    0.6945 C   0  0  0  0  0  0  0  0  0  0  0  0
   -3.6023    0.2099    1.7973 H   0  0  0  0  0  0  0  0  0  0  0  0
   -2.9461   -0.7174   -2.3725 H   0  0  0  0  0  0  0  0  0  0  0  0
    3.7268   -1.1355   -1.7654 H   0  0  0  0  0  0  0  0  0  0  0  0
   -6.2703   -2.4208   -0.2741 H   0  0  0  0  0  0  0  0  0  0  0  0
   -1.4056    0.5125   -1.1049 H   0  0  0  0  0  0  0  0  0  0  0  0
   -4.9372   -2.1764   -2.3383 H   0  0  0  0  0  0  0  0  0  0  0  0
    0.2364    2.1156   -1.9217 H   0  0  0  0  0  0  0  0  0  0  0  0
    3.3369    0.7092    2.0912 H   0  0  0  0  0  0  0  0  0  0  0  0
   -5.8724   -0.2804    2.6770 H   0  0  0  0  0  0  0  0  0  0  0  0
   -6.8592   -1.5196    1.9077 H   0  0  0  0  0  0  0  0  0  0  0  0
   -5.3808   -1.9893    2.7758 H   0  0  0  0  0  0  0  0  0  0  0  0
   -0.0664    3.2711    0.3749 H   0  0  0  0  0  0  0  0  0  0  0  0
  1 18  1  0  0  0  0
  2 22  2  0  0  0  0
  3 23  1  0  0  0  0
  4 23  1  0  0  0  0
  5 23  1  0  0  0  0
  6 10  1  0  0  0  0
  6 22  1  0  0  0  0
  6 28  1  0  0  0  0
  7  8  1  0  0  0  0
  7 14  1  0  0  0  0
  7 30  1  0  0  0  0
  8 22  1  0  0  0  0
  8 35  1  0  0  0  0
  9 14  1  0  0  0  0
  9 20  2  0  0  0  0
 10 12  1  0  0  0  0
 10 15  2  0  0  0  0
 11 12  2  0  0  0  0
 11 16  1  0  0  0  0
 11 21  1  0  0  0  0
 12 24  1  0  0  0  0
 13 17  2  0  0  0  0
 13 20  1  0  0  0  0
 13 23  1  0  0  0  0
 14 18  2  0  0  0  0
 15 19  1  0  0  0  0
 15 25  1  0  0  0  0
 16 19  2  0  0  0  0
 16 27  1  0  0  0  0
 17 18  1  0  0  0  0
 17 26  1  0  0  0  0
 19 29  1  0  0  0  0
 20 31  1  0  0  0  0
 21 32  1  0  0  0  0
 21 33  1  0  0  0  0
 21 34  1  0  0  0  0
M  END
> <PUBCHEM_COMPOUND_CID>
2420694

> <PUBCHEM_CONFORMER_RMSD>
0.8

> <PUBCHEM_CONFORMER_DIVERSEORDER>
1
252
233
20
266
108
144
156
254
171
207
226
132
167
198
142
260
119
203
288
88
185
231
285
58
66
78
148
81
151
118
222
213
214
216
274
211
126
136
212
99
48
29
41
258
268
53
159
75
245
263
133
270
150
21
169
67
272
235
140
312
141
89
83
178
196
215
24
173
309
114
27
174
94
10
210
129
199
281
279
188
224
293
163
165
68
139
240
201
195
98
248
47
292
259
17
280
202
117
289
73
193
155
228
275
265
291
241
35
229
230
61
59
14
131
170
154
49
115
286
137
111
8
18
9
294
90
50
187
54
70
223
261
186
39
246
19
84
11
157
219
298
143
124
197
250
179
290
238
232
181
62
168
295
31
205
77
269
7
257
236
145
209
247
183
28
217
244
36
134
45
307
278
306
301
138
38
87
282
92
85
120
239
204
287
147
33
13
71
249
107
276
297
69
176
43
299
57
267
96
125
101
242
4
153
51
310
256
116
177
128
74
86
180
311
2
46
152
52
72
162
161
271
42
221
30
218
296
225
106
15
6
208
243
64
34
5
97
112
283
302
175
166
227
104
273
102
253
251
40
189
100
158
26
164
284
93
60
56
194
91
305
110
63
130
190
255
12
192
113
184
264
105
65
22
149
303
122
127
135
304
206
95
277
82
123
32
234
160
37
23
121
220
308
55
191
182
79
146
200
25
237
172
109
300
16
103
80
44
76
262
3

> <PUBCHEM_MMFF94_PARTIAL_CHARGES>
32
1 -0.18
10 0.12
11 -0.14
12 -0.15
13 -0.14
14 0.41
15 -0.15
16 -0.15
17 -0.15
18 0.18
19 -0.15
2 -0.38
20 0.16
21 0.14
22 0.5
23 1.16
24 0.15
25 0.15
26 0.15
27 0.15
28 0.37
29 0.15
3 -0.34
30 0.4
31 0.15
35 0.37
4 -0.34
5 -0.34
6 -0.55
7 -0.52
8 -0.41
9 -0.62

> <PUBCHEM_EFFECTIVE_ROTOR_COUNT>
6

> <PUBCHEM_PHARMACOPHORE_FEATURES>
7
1 2 acceptor
1 6 donor
1 7 donor
1 8 donor
1 9 acceptor
6 10 11 12 15 16 19 rings
6 9 13 14 17 18 20 rings

> <PUBCHEM_HEAVY_ATOM_COUNT>
23

> <PUBCHEM_ATOM_DEF_STEREO_COUNT>
0

> <PUBCHEM_ATOM_UDEF_STEREO_COUNT>
0

> <PUBCHEM_BOND_DEF_STEREO_COUNT>
0

> <PUBCHEM_BOND_UDEF_STEREO_COUNT>
0

> <PUBCHEM_ISOTOPIC_ATOM_COUNT>
0

> <PUBCHEM_COMPONENT_COUNT>
1

> <PUBCHEM_CACTVS_TAUTO_COUNT>
6

> <PUBCHEM_CONFORMER_ID>
0024EFD600000001

> <PUBCHEM_MMFF94_ENERGY>
73.227

> <PUBCHEM_FEATURE_SELFOVERLAP>
37.13

> <PUBCHEM_SHAPE_FINGERPRINT>
11370993 144 15625954101084921085
11796584 16 17530954796295938931
12166972 35 17676210194877585255
12363563 72 18410298042509654573
12422481 6 17561090176588158911
12553582 1 17988094399522924269
12633257 1 17275382140044707585
12760667 363 18408884049466360259
12788726 201 18199772339363459305
13103583 49 17846500369923413319
13828863 39 14620219914404557576
14178342 30 18128548067358793757
1420 369 18409448085287027406
14251764 38 9149440325817886510
14341114 328 15769495438501158811
14848178 5 17894905201052516858
15183329 4 14996271509855852991
17349148 13 18113907047711244979
17913733 40 15338832024248728382
1813 80 18339093691297012037
19377110 9 18343025527476614632
193927 3 18259988179878538409
19784866 240 17894635850757796645
1979834 28 16916522444503320623
20645477 70 16515692168866382380
20775438 99 15723628357782566787
21315763 191 17822021921480151387
21315764 119 16805312285299121719
21756936 100 12607391209491296156
221357 26 14634866470475908375
22393880 68 15502367954725014387
23559900 14 12757728572386480679
25222932 49 17834122218168083399
2838139 119 11239703189758592378
3009799 131 13984659249005629404
312425 54 16988574489227639559
351380 3 18409449202089430611
46194498 28 15502668159980496951
463206 1 18262235633449824707
5104073 3 18059285458254800472
59682541 52 13768191801226479122
7064713 232 16558751256208049007
7808743 9 9295285041061335615
7970288 3 18336546114007330371
9841814 1 18270413813674229781

> <PUBCHEM_SHAPE_MULTIPOLES>
437.3
13.99
2.41
2.09
0.67
1.59
-0.22
-8.36
9.01
-1.85
-0.27
0.77
-0.79
-0.58

> <PUBCHEM_SHAPE_SELFOVERLAP>
908.147

> <PUBCHEM_SHAPE_VOLUME>
254.2

> <PUBCHEM_COORDINATE_TYPE>
2
5
10

$$$$
