2156102
  -OEChem-01171809543D

 52 56  0     0  0  0  0  0  0999 V2000
   -0.0041   -0.2895    2.7798 S   0  0  0  0  0  0  0  0  0  0  0  0
    1.2370   -2.4271   -1.7033 O   0  0  0  0  0  0  0  0  0  0  0  0
   -4.0323   -1.3033   -0.9638 O   0  0  0  0  0  0  0  0  0  0  0  0
   -0.2526    2.0616    0.3819 O   0  0  0  0  0  0  0  0  0  0  0  0
   -5.1096    2.3231   -0.5514 O   0  0  0  0  0  0  0  0  0  0  0  0
    3.7703   -0.9135   -1.5444 N   0  0  0  0  0  0  0  0  0  0  0  0
    0.6210   -1.3724    0.3200 N   0  0  0  0  0  0  0  0  0  0  0  0
    2.1390    0.1984    1.3994 N   0  0  0  0  0  0  0  0  0  0  0  0
   -2.3113    1.8190    1.4876 N   0  0  0  0  0  0  0  0  0  0  0  0
   -4.5518    2.0269    0.6865 N   0  0  0  0  0  0  0  0  0  0  0  0
    2.7070   -0.9232   -0.6834 C   0  0  0  0  0  0  0  0  0  0  0  0
    2.9924   -0.0428    0.3230 C   0  0  0  0  0  0  0  0  0  0  0  0
    4.2612    0.5337    0.0996 C   0  0  0  0  0  0  0  0  0  0  0  0
    4.7340   -0.0328   -1.0905 C   0  0  0  0  0  0  0  0  0  0  0  0
    1.4862   -1.6705   -0.7687 C   0  0  0  0  0  0  0  0  0  0  0  0
    1.0220   -0.4740    1.3527 C   0  0  0  0  0  0  0  0  0  0  0  0
    5.0663    1.4721    0.7739 C   0  0  0  0  0  0  0  0  0  0  0  0
   -0.6760   -1.9895    0.2922 C   0  0  0  0  0  0  0  0  0  0  0  0
    5.9778    0.3005   -1.6386 C   0  0  0  0  0  0  0  0  0  0  0  0
    6.3122    1.8127    0.2351 C   0  0  0  0  0  0  0  0  0  0  0  0
    6.7586    1.2352   -0.9522 C   0  0  0  0  0  0  0  0  0  0  0  0
   -1.7315   -1.3359   -0.3293 C   0  0  0  0  0  0  0  0  0  0  0  0
   -0.8556   -3.2310    0.8866 C   0  0  0  0  0  0  0  0  0  0  0  0
   -2.9905   -1.9355   -0.3570 C   0  0  0  0  0  0  0  0  0  0  0  0
   -0.2550    1.4928    2.6979 C   0  0  0  0  0  0  0  0  0  0  0  0
   -2.1146   -3.8307    0.8589 C   0  0  0  0  0  0  0  0  0  0  0  0
   -3.1821   -3.1830    0.2371 C   0  0  0  0  0  0  0  0  0  0  0  0
   -0.9255    1.8316    1.3837 C   0  0  0  0  0  0  0  0  0  0  0  0
   -3.2547    2.0685    0.4621 C   0  0  0  0  0  0  0  0  0  0  0  0
   -5.2919   -1.9733   -0.9554 C   0  0  0  0  0  0  0  0  0  0  0  0
   -2.8996    2.3726   -0.8425 C   0  0  0  0  0  0  0  0  0  0  0  0
   -4.1158    2.5268   -1.4536 C   0  0  0  0  0  0  0  0  0  0  0  0
   -4.5303    2.8528   -2.8238 C   0  0  0  0  0  0  0  0  0  0  0  0
    3.8433   -1.4643   -2.3887 H   0  0  0  0  0  0  0  0  0  0  0  0
    4.7315    1.9305    1.7000 H   0  0  0  0  0  0  0  0  0  0  0  0
    6.3279   -0.1486   -2.5620 H   0  0  0  0  0  0  0  0  0  0  0  0
    6.9383    2.5366    0.7500 H   0  0  0  0  0  0  0  0  0  0  0  0
    7.7300    1.5149   -1.3519 H   0  0  0  0  0  0  0  0  0  0  0  0
   -1.5793   -0.3721   -0.8058 H   0  0  0  0  0  0  0  0  0  0  0  0
   -0.0294   -3.7431    1.3723 H   0  0  0  0  0  0  0  0  0  0  0  0
    0.6932    2.0342    2.7732 H   0  0  0  0  0  0  0  0  0  0  0  0
   -0.8766    1.8090    3.5415 H   0  0  0  0  0  0  0  0  0  0  0  0
   -2.2626   -4.8020    1.3218 H   0  0  0  0  0  0  0  0  0  0  0  0
   -4.1326   -3.7052    0.2523 H   0  0  0  0  0  0  0  0  0  0  0  0
   -2.7345    1.6029    2.3866 H   0  0  0  0  0  0  0  0  0  0  0  0
   -1.9364    2.4751   -1.3174 H   0  0  0  0  0  0  0  0  0  0  0  0
   -5.2492   -2.9179   -1.5081 H   0  0  0  0  0  0  0  0  0  0  0  0
   -6.0039   -1.3276   -1.4798 H   0  0  0  0  0  0  0  0  0  0  0  0
   -5.6706   -2.1047    0.0639 H   0  0  0  0  0  0  0  0  0  0  0  0
   -3.6628    3.0096   -3.4723 H   0  0  0  0  0  0  0  0  0  0  0  0
   -5.1279    2.0400   -3.2480 H   0  0  0  0  0  0  0  0  0  0  0  0
   -5.1327    3.7663   -2.8368 H   0  0  0  0  0  0  0  0  0  0  0  0
  1 16  1  0  0  0  0
  1 25  1  0  0  0  0
  2 15  2  0  0  0  0
  3 24  1  0  0  0  0
  3 30  1  0  0  0  0
  4 28  2  0  0  0  0
  5 10  1  0  0  0  0
  5 32  1  0  0  0  0
  6 11  1  0  0  0  0
  6 14  1  0  0  0  0
  6 34  1  0  0  0  0
  7 15  1  0  0  0  0
  7 16  1  0  0  0  0
  7 18  1  0  0  0  0
  8 12  1  0  0  0  0
  8 16  2  0  0  0  0
  9 28  1  0  0  0  0
  9 29  1  0  0  0  0
  9 45  1  0  0  0  0
 10 29  2  0  0  0  0
 11 12  2  0  0  0  0
 11 15  1  0  0  0  0
 12 13  1  0  0  0  0
 13 14  1  0  0  0  0
 13 17  2  0  0  0  0
 14 19  2  0  0  0  0
 17 20  1  0  0  0  0
 17 35  1  0  0  0  0
 18 22  2  0  0  0  0
 18 23  1  0  0  0  0
 19 21  1  0  0  0  0
 19 36  1  0  0  0  0
 20 21  2  0  0  0  0
 20 37  1  0  0  0  0
 21 38  1  0  0  0  0
 22 24  1  0  0  0  0
 22 39  1  0  0  0  0
 23 26  2  0  0  0  0
 23 40  1  0  0  0  0
 24 27  2  0  0  0  0
 25 28  1  0  0  0  0
 25 41  1  0  0  0  0
 25 42  1  0  0  0  0
 26 27  1  0  0  0  0
 26 43  1  0  0  0  0
 27 44  1  0  0  0  0
 29 31  1  0  0  0  0
 30 47  1  0  0  0  0
 30 48  1  0  0  0  0
 30 49  1  0  0  0  0
 31 32  2  0  0  0  0
 31 46  1  0  0  0  0
 32 33  1  0  0  0  0
 33 50  1  0  0  0  0
 33 51  1  0  0  0  0
 33 52  1  0  0  0  0
M  END
> <PUBCHEM_COMPOUND_CID>
2156102

> <PUBCHEM_CONFORMER_RMSD>
1

> <PUBCHEM_CONFORMER_DIVERSEORDER>
1
76
71
34
117
48
84
60
86
19
18
6
66
100
122
26
57
42
121
32
61
95
25
83
89
27
70
3
74
96
104
13
111
119
65
120
45
75
54
98
91
125
108
20
33
5
80
129
105
106
56
93
10
53
103
14
16
4
50
23
73
99
43
114
44
62
123
8
58
36
109
39
30
15
92
69
31
7
51
126
102
110
17
38
12
107
47
21
46
85
59
64
82
63
24
55
37
2
88
29
9
118
112
72
40
124
22
68
81
128
101
79
41
130
67
87
77
116
52
90
97
11
127
28
115
78
113
49
94
35
131

> <PUBCHEM_MMFF94_PARTIAL_CHARGES>
43
1 -0.37
10 -0.41
11 -0.24
12 0.12
14 -0.15
15 0.71
16 0.65
17 -0.15
18 0.12
19 -0.15
2 -0.57
20 -0.15
21 -0.15
22 -0.15
23 -0.15
24 0.08
25 0.29
26 -0.15
27 -0.15
28 0.57
29 0.35
3 -0.36
30 0.28
31 -0.15
32 -0.04
33 0.18
34 0.27
35 0.15
36 0.15
37 0.15
38 0.15
39 0.15
4 -0.57
40 0.15
43 0.15
44 0.15
45 0.37
46 0.15
5 -0.02
6 0.03
7 -0.24
8 -0.57
9 -0.49

> <PUBCHEM_EFFECTIVE_ROTOR_COUNT>
7

> <PUBCHEM_PHARMACOPHORE_FEATURES>
11
1 2 acceptor
1 3 acceptor
1 4 acceptor
1 6 cation
1 6 donor
1 9 donor
5 5 10 29 31 32 rings
5 6 11 12 13 14 rings
6 13 14 17 19 20 21 rings
6 18 22 23 24 26 27 rings
6 7 8 11 12 15 16 rings

> <PUBCHEM_HEAVY_ATOM_COUNT>
33

> <PUBCHEM_ATOM_DEF_STEREO_COUNT>
0

> <PUBCHEM_ATOM_UDEF_STEREO_COUNT>
0

> <PUBCHEM_BOND_DEF_STEREO_COUNT>
0

> <PUBCHEM_BOND_UDEF_STEREO_COUNT>
0

> <PUBCHEM_ISOTOPIC_ATOM_COUNT>
0

> <PUBCHEM_COMPONENT_COUNT>
1

> <PUBCHEM_CACTVS_TAUTO_COUNT>
6

> <PUBCHEM_CONFORMER_ID>
0020E64600000001

> <PUBCHEM_MMFF94_ENERGY>
107.3301

> <PUBCHEM_FEATURE_SELFOVERLAP>
56.028

> <PUBCHEM_SHAPE_FINGERPRINT>
10816530 23 17463954779816217853
11421498 54 17676480705241094539
11582403 64 17531809026404331889
12788726 201 18410570725430055835
13165053 103 16412972344521883350
13726171 33 18411982468274399721
13911987 19 18336262324095981469
13947920 24 18411699915202270601
14114206 34 17558817400460759313
14114211 68 18195800783536734679
14400156 266 18127410052346825846
14790565 3 17697331620412036449
14931854 50 18270948078142000637
15082195 135 18340217392418034564
15463212 79 18186801353097298779
15484559 13 15469502177681022392
15975801 100 17749655303744241732
17357779 13 17988646366680486586
17492 54 18342171107856800425
18603816 31 12462477720645860316
21049683 271 17695638737170922402
21304303 282 17894345605183886555
21756936 100 17168155537411688728
21792965 270 17684373141723527265
22182313 1 17702651302395300648
23559900 14 18057324990421250910
23569914 152 17125377731973678918
238918 7 11314298417809864897
255183 451 17621319473843841127
2838139 119 17749390364982340484
3052486 1 18265591248553446531
3418910 222 17391650152196852252
3493558 16 18117563035685181836
4112364 45 16662601048933773877
469060 322 18041576792908364827
508706 21 18338233868270501776
5283173 99 18410857698338918578
53917941 68 18333733515770061672
563151 74 14707474842772559477
6086070 43 18343589526092593656
7237137 82 18341896315706381125
7808743 9 18333447629730199149

> <PUBCHEM_SHAPE_MULTIPOLES>
634.59
13.11
4.16
2.18
14.56
1.11
-0.57
-7.83
7.14
-7.11
0.62
-0.54
-1
1.51

> <PUBCHEM_SHAPE_SELFOVERLAP>
1396.586

> <PUBCHEM_SHAPE_VOLUME>
345.2

> <PUBCHEM_COORDINATE_TYPE>
2
5
10

$$$$
