931189
  -OEChem-01171809343D

 39 41  0     0  0  0  0  0  0999 V2000
   -0.5835   -0.4333   -0.6783 O   0  0  0  0  0  0  0  0  0  0  0  0
    5.9323    0.6057    0.4620 O   0  0  0  0  0  0  0  0  0  0  0  0
    4.2563    2.1300   -0.0382 N   0  0  0  0  0  0  0  0  0  0  0  0
    5.1183    3.2087    0.0110 N   0  0  0  0  0  0  0  0  0  0  0  0
   -6.2106    0.1508    1.1540 C   0  0  0  0  0  0  0  0  0  0  0  0
   -4.8320    0.1744    1.8313 C   0  0  0  0  0  0  0  0  0  0  0  0
   -6.0381    0.8073   -0.2241 C   0  0  0  0  0  0  0  0  0  0  0  0
   -3.9248    0.1204    0.6429 C   0  0  0  0  0  0  0  0  0  0  0  0
   -4.6095    0.4798   -0.5239 C   0  0  0  0  0  0  0  0  0  0  0  0
   -2.5743   -0.1836    0.6138 C   0  0  0  0  0  0  0  0  0  0  0  0
   -3.9579    0.5425   -1.7440 C   0  0  0  0  0  0  0  0  0  0  0  0
   -1.9116   -0.1353   -0.6147 C   0  0  0  0  0  0  0  0  0  0  0  0
   -2.5984    0.2252   -1.7850 C   0  0  0  0  0  0  0  0  0  0  0  0
    0.0590   -0.7922    0.5432 C   0  0  0  0  0  0  0  0  0  0  0  0
    1.5124   -1.0510    0.2745 C   0  0  0  0  0  0  0  0  0  0  0  0
    2.4255   -0.0063    0.3625 C   0  0  0  0  0  0  0  0  0  0  0  0
    1.9328   -2.3332   -0.0612 C   0  0  0  0  0  0  0  0  0  0  0  0
    3.7764   -0.2467    0.1115 C   0  0  0  0  0  0  0  0  0  0  0  0
    3.2838   -2.5735   -0.3122 C   0  0  0  0  0  0  0  0  0  0  0  0
    4.2056   -1.5302   -0.2258 C   0  0  0  0  0  0  0  0  0  0  0  0
    4.7383    0.8405    0.2007 C   0  0  0  0  0  0  0  0  0  0  0  0
   -6.9808    0.6416    1.7571 H   0  0  0  0  0  0  0  0  0  0  0  0
   -6.5250   -0.8935    1.0169 H   0  0  0  0  0  0  0  0  0  0  0  0
   -4.7010   -0.6818    2.4989 H   0  0  0  0  0  0  0  0  0  0  0  0
   -4.6773    1.1081    2.3815 H   0  0  0  0  0  0  0  0  0  0  0  0
   -6.1717    1.8923   -0.1649 H   0  0  0  0  0  0  0  0  0  0  0  0
   -6.7290    0.3826   -0.9576 H   0  0  0  0  0  0  0  0  0  0  0  0
   -2.1067   -0.4445    1.5552 H   0  0  0  0  0  0  0  0  0  0  0  0
   -4.4838    0.8317   -2.6475 H   0  0  0  0  0  0  0  0  0  0  0  0
   -2.0693    0.2650   -2.7339 H   0  0  0  0  0  0  0  0  0  0  0  0
   -0.3880   -1.7023    0.9651 H   0  0  0  0  0  0  0  0  0  0  0  0
   -0.0155    0.0194    1.2792 H   0  0  0  0  0  0  0  0  0  0  0  0
    2.0654    0.9768    0.6523 H   0  0  0  0  0  0  0  0  0  0  0  0
    1.2234   -3.1529   -0.1342 H   0  0  0  0  0  0  0  0  0  0  0  0
    3.6175   -3.5727   -0.5765 H   0  0  0  0  0  0  0  0  0  0  0  0
    5.2528   -1.7377   -0.4300 H   0  0  0  0  0  0  0  0  0  0  0  0
    3.2981    2.3233   -0.3100 H   0  0  0  0  0  0  0  0  0  0  0  0
    5.0773    3.6613   -0.9012 H   0  0  0  0  0  0  0  0  0  0  0  0
    4.7210    3.8738    0.6732 H   0  0  0  0  0  0  0  0  0  0  0  0
  1 12  1  0  0  0  0
  1 14  1  0  0  0  0
  2 21  2  0  0  0  0
  3  4  1  0  0  0  0
  3 21  1  0  0  0  0
  3 37  1  0  0  0  0
  4 38  1  0  0  0  0
  4 39  1  0  0  0  0
  5  6  1  0  0  0  0
  5  7  1  0  0  0  0
  5 22  1  0  0  0  0
  5 23  1  0  0  0  0
  6  8  1  0  0  0  0
  6 24  1  0  0  0  0
  6 25  1  0  0  0  0
  7  9  1  0  0  0  0
  7 26  1  0  0  0  0
  7 27  1  0  0  0  0
  8  9  2  0  0  0  0
  8 10  1  0  0  0  0
  9 11  1  0  0  0  0
 10 12  2  0  0  0  0
 10 28  1  0  0  0  0
 11 13  2  0  0  0  0
 11 29  1  0  0  0  0
 12 13  1  0  0  0  0
 13 30  1  0  0  0  0
 14 15  1  0  0  0  0
 14 31  1  0  0  0  0
 14 32  1  0  0  0  0
 15 16  2  0  0  0  0
 15 17  1  0  0  0  0
 16 18  1  0  0  0  0
 16 33  1  0  0  0  0
 17 19  2  0  0  0  0
 17 34  1  0  0  0  0
 18 20  2  0  0  0  0
 18 21  1  0  0  0  0
 19 20  1  0  0  0  0
 19 35  1  0  0  0  0
 20 36  1  0  0  0  0
M  END
> <PUBCHEM_COMPOUND_CID>
931189

> <PUBCHEM_CONFORMER_RMSD>
0.8

> <PUBCHEM_CONFORMER_DIVERSEORDER>
1
113
45
34
83
79
100
90
135
18
115
97
91
93
117
42
107
120
25
54
7
96
10
123
137
51
81
50
49
47
22
95
118
92
114
94
40
99
63
109
89
52
73
64
138
8
55
80
106
61
98
6
36
24
139
41
44
103
3
76
59
132
37
56
2
58
145
130
43
119
60
62
129
5
33
143
57
101
67
23
133
128
21
104
4
108
69
71
122
136
84
85
78
142
144
70
12
110
29
66
134
82
46
111
102
65
30
48
75
127
124
20
105
121
11
68
88
32
77
19
53
27
14
116
140
26
112
16
9
131
74
125
31
87
28
17
72
38
141
15
86
39
35
13
126

> <PUBCHEM_MMFF94_PARTIAL_CHARGES>
30
1 -0.36
10 -0.15
11 -0.15
12 0.08
13 -0.15
14 0.42
15 -0.14
16 -0.15
17 -0.15
18 0.09
19 -0.15
2 -0.57
20 -0.15
21 0.54
28 0.15
29 0.15
3 -0.42
30 0.15
33 0.15
34 0.15
35 0.15
36 0.15
37 0.37
38 0.36
39 0.36
4 -0.73
6 0.14
7 0.14
8 -0.14
9 -0.14

> <PUBCHEM_EFFECTIVE_ROTOR_COUNT>
5.6

> <PUBCHEM_PHARMACOPHORE_FEATURES>
7
1 1 acceptor
1 2 acceptor
1 3 donor
1 4 donor
5 5 6 7 8 9 rings
6 15 16 17 18 19 20 rings
6 8 9 10 11 12 13 rings

> <PUBCHEM_HEAVY_ATOM_COUNT>
21

> <PUBCHEM_ATOM_DEF_STEREO_COUNT>
0

> <PUBCHEM_ATOM_UDEF_STEREO_COUNT>
0

> <PUBCHEM_BOND_DEF_STEREO_COUNT>
0

> <PUBCHEM_BOND_UDEF_STEREO_COUNT>
0

> <PUBCHEM_ISOTOPIC_ATOM_COUNT>
0

> <PUBCHEM_COMPONENT_COUNT>
1

> <PUBCHEM_CACTVS_TAUTO_COUNT>
2

> <PUBCHEM_CONFORMER_ID>
000E357500000001

> <PUBCHEM_MMFF94_ENERGY>
65.826

> <PUBCHEM_FEATURE_SELFOVERLAP>
37.107

> <PUBCHEM_SHAPE_FINGERPRINT>
10 15 17676487280777527360
10319926 262 16515948286519915544
10411042 1 17907298755136765702
10554248 39 16987435292413129261
10670039 82 15554175783016272713
10912923 1 17846491505169229103
12107183 9 17051346484367759275
12166972 35 12179847207952054894
12236239 1 17632574925210348963
12403259 415 17967813812441922263
12596602 18 18272094881617905299
12616971 3 17988072305630846166
12730499 353 18334019367593383618
12788726 201 16845020013352878219
12839892 36 14634864245408406267
13631057 29 18056466477924594071
13760787 5 18131345268010711655
13955234 65 18335979766892942730
14251764 75 18120659299701603668
14341114 176 18410300177176712627
15081414 286 18408605864118698044
15183329 4 14261362331459435206
15188451 53 14273730789421298969
15342168 16 18411420656692409508
15475509 35 16371274525621515674
16079462 125 17676759899637032645
1768 85 18336547238882521308
17844677 252 18339083666431483549
18785283 64 17605005890566932205
19427546 62 18410857685380852146
19433438 28 17603866667544384014
19489759 90 15574432103268034313
1979834 28 18187088373135452948
20612939 158 18272370841503160038
20645477 56 18113897169286555199
20645477 70 18340769217768069662
21033648 29 18188195529847278325
21033650 10 15338576980089618938
21065201 7 16154271594146985895
21315764 119 15697734644168610348
21623969 137 18261114083980258096
22122407 14 18272664419930229545
22393880 68 12535621661619519069
22849339 104 15410325680464591581
23081809 10 17418089885103219099
23557571 272 17023189254068490847
23559900 14 16661767640072516587
2916195 48 18113334219659954161
300161 21 17417802933352148498
3004659 81 16056327129036933326
3545911 37 18334297561035368158
474 4 18412543236837426082
5104073 3 17386562428347896785
5281201 14 18265614286594498342
542803 24 17418090997177982347
543368 44 17774996938214636449
621550 34 18114461171507009670
90127 26 18261673649921261479

> <PUBCHEM_SHAPE_MULTIPOLES>
410.47
15.81
2.08
1.28
3.62
0.61
0.18
6.32
-2.62
-5.35
0.1
2.3
0.09
0.66

> <PUBCHEM_SHAPE_SELFOVERLAP>
891.3

> <PUBCHEM_SHAPE_VOLUME>
226.1

> <PUBCHEM_COORDINATE_TYPE>
2
5
10

$$$$
