649840
  -OEChem-01171809153D

 32 34  0     0  0  0  0  0  0999 V2000
    0.3721   -1.0353    0.3725 O   0  0  0  0  0  0  0  0  0  0  0  0
    0.6566    1.0762   -0.4005 N   0  0  0  0  0  0  0  0  0  0  0  0
    5.5803    0.5645   -0.3366 N   0  0  0  0  0  0  0  0  0  0  0  0
   -1.6250    0.1662   -0.0138 C   0  0  0  0  0  0  0  0  0  0  0  0
   -2.3248    1.3575    0.2057 C   0  0  0  0  0  0  0  0  0  0  0  0
   -0.1887    0.1364   -0.0386 C   0  0  0  0  0  0  0  0  0  0  0  0
    1.8836    0.4860   -0.2167 C   0  0  0  0  0  0  0  0  0  0  0  0
    1.7134   -0.8069    0.2563 C   0  0  0  0  0  0  0  0  0  0  0  0
   -2.3361   -1.0214   -0.2149 C   0  0  0  0  0  0  0  0  0  0  0  0
   -3.7308   -1.0182   -0.1968 C   0  0  0  0  0  0  0  0  0  0  0  0
   -3.7195    1.3608    0.2240 C   0  0  0  0  0  0  0  0  0  0  0  0
   -4.4225    0.1730    0.0227 C   0  0  0  0  0  0  0  0  0  0  0  0
    3.1846    0.9663   -0.4230 C   0  0  0  0  0  0  0  0  0  0  0  0
   -1.6067    2.6505    0.4241 C   0  0  0  0  0  0  0  0  0  0  0  0
    2.7490   -1.6854    0.5496 C   0  0  0  0  0  0  0  0  0  0  0  0
    4.2567    0.1082   -0.1382 C   0  0  0  0  0  0  0  0  0  0  0  0
    4.0406   -1.1908    0.3383 C   0  0  0  0  0  0  0  0  0  0  0  0
   -4.4829   -2.2876   -0.4140 C   0  0  0  0  0  0  0  0  0  0  0  0
   -1.8157   -1.9594   -0.3994 H   0  0  0  0  0  0  0  0  0  0  0  0
   -4.2752    2.2796    0.3915 H   0  0  0  0  0  0  0  0  0  0  0  0
   -5.5090    0.1895    0.0368 H   0  0  0  0  0  0  0  0  0  0  0  0
    3.3503    1.9735   -0.7925 H   0  0  0  0  0  0  0  0  0  0  0  0
   -0.8683    2.5635    1.2281 H   0  0  0  0  0  0  0  0  0  0  0  0
   -1.1223    2.9858   -0.4984 H   0  0  0  0  0  0  0  0  0  0  0  0
   -2.2983    3.4448    0.7285 H   0  0  0  0  0  0  0  0  0  0  0  0
    2.5710   -2.6880    0.9177 H   0  0  0  0  0  0  0  0  0  0  0  0
    4.8872   -1.8402    0.5530 H   0  0  0  0  0  0  0  0  0  0  0  0
   -3.9548   -3.1373    0.0320 H   0  0  0  0  0  0  0  0  0  0  0  0
   -5.4744   -2.2478    0.0498 H   0  0  0  0  0  0  0  0  0  0  0  0
   -4.6068   -2.4721   -1.4857 H   0  0  0  0  0  0  0  0  0  0  0  0
    5.7458    1.5012   -0.6798 H   0  0  0  0  0  0  0  0  0  0  0  0
    6.3611   -0.0455   -0.1339 H   0  0  0  0  0  0  0  0  0  0  0  0
  1  6  1  0  0  0  0
  1  8  1  0  0  0  0
  2  6  2  0  0  0  0
  2  7  1  0  0  0  0
  3 16  1  0  0  0  0
  3 31  1  0  0  0  0
  3 32  1  0  0  0  0
  4  5  2  0  0  0  0
  4  6  1  0  0  0  0
  4  9  1  0  0  0  0
  5 11  1  0  0  0  0
  5 14  1  0  0  0  0
  7  8  2  0  0  0  0
  7 13  1  0  0  0  0
  8 15  1  0  0  0  0
  9 10  2  0  0  0  0
  9 19  1  0  0  0  0
 10 12  1  0  0  0  0
 10 18  1  0  0  0  0
 11 12  2  0  0  0  0
 11 20  1  0  0  0  0
 12 21  1  0  0  0  0
 13 16  2  0  0  0  0
 13 22  1  0  0  0  0
 14 23  1  0  0  0  0
 14 24  1  0  0  0  0
 14 25  1  0  0  0  0
 15 17  2  0  0  0  0
 15 26  1  0  0  0  0
 16 17  1  0  0  0  0
 17 27  1  0  0  0  0
 18 28  1  0  0  0  0
 18 29  1  0  0  0  0
 18 30  1  0  0  0  0
M  END
> <PUBCHEM_COMPOUND_CID>
649840

> <PUBCHEM_CONFORMER_RMSD>
0.6

> <PUBCHEM_CONFORMER_DIVERSEORDER>
2
1
3
4
5
6

> <PUBCHEM_MMFF94_PARTIAL_CHARGES>
26
1 -0.28
10 -0.14
11 -0.15
12 -0.15
13 -0.15
14 0.14
15 -0.15
16 0.1
17 -0.15
18 0.14
19 0.15
2 -0.57
20 0.15
21 0.15
22 0.15
26 0.15
27 0.15
3 -0.9
31 0.4
32 0.4
4 0.05
5 -0.14
6 0.43
7 0.23
8 0.14
9 -0.15

> <PUBCHEM_EFFECTIVE_ROTOR_COUNT>
1

> <PUBCHEM_PHARMACOPHORE_FEATURES>
5
1 3 cation
1 3 donor
5 1 2 6 7 8 rings
6 4 5 9 10 11 12 rings
6 7 8 13 15 16 17 rings

> <PUBCHEM_HEAVY_ATOM_COUNT>
18

> <PUBCHEM_ATOM_DEF_STEREO_COUNT>
0

> <PUBCHEM_ATOM_UDEF_STEREO_COUNT>
0

> <PUBCHEM_BOND_DEF_STEREO_COUNT>
0

> <PUBCHEM_BOND_UDEF_STEREO_COUNT>
0

> <PUBCHEM_ISOTOPIC_ATOM_COUNT>
0

> <PUBCHEM_COMPONENT_COUNT>
1

> <PUBCHEM_CACTVS_TAUTO_COUNT>
1

> <PUBCHEM_CONFORMER_ID>
0009EA7000000002

> <PUBCHEM_MMFF94_ENERGY>
53.9715

> <PUBCHEM_FEATURE_SELFOVERLAP>
25.49

> <PUBCHEM_SHAPE_FINGERPRINT>
10366900 7 17560508526484014289
10616163 171 18412826889067851815
11045515 52 18113896083240364277
11046707 91 18343580763662977567
11806522 49 18335137622120354902
12107183 9 17616813236846977714
12236239 1 18260830380284577897
12553582 1 18199454636279571495
13167823 11 18410572881445440174
13288520 33 18342741831795492319
13760787 19 18410293588290802499
14528608 73 18334300907242114588
14576447 43 18336541719849227702
15196674 1 18408885114006443194
15375358 24 11746934278523359128
15442244 35 18120653531100809754
15536298 74 18411137996489432170
17349148 13 17967249814790527456
17492 89 18410856512475264531
17834072 33 18408323298108809572
17862501 102 18334289843063319122
18522853 276 18410011022392496120
18681886 176 18341048605938462680
19050596 39 18410011009428226250
19422 9 18409166584561618474
200 152 18335699468457059215
20281475 54 18335694997348852242
20300324 65 18412546517881242817
20510252 161 18201159845395569633
20645477 70 18334574590826805722
21267235 1 18410301336770650015
221490 88 18190747637921340347
22646028 1 18334573533900366866
2297311 6 18059586792516825884
23402539 116 18411415124463276471
23402655 69 18334293124043955717
23557571 272 17917437496929866621
23559900 14 18341886402980189784
26918003 58 17894635863784993769
300161 21 18335133181008087325
34797466 226 17632303414652938148
34934 24 18335135333303764737
3545911 37 18409731737796287445
4214541 1 18410855425778992437
474 4 17676777564827237732
4990 188 18201729427290004038
5104073 3 18410572868512741642
57096353 35 18334861648827887358
573450 72 18337383851240027827
602551 16 16701727367222511782
633830 44 16733273343565389368
67856867 119 18335418023724961420
7495541 125 17632291319913834258
77779 3 18411419488292545166
9709674 26 18409455769020917466

> <PUBCHEM_SHAPE_MULTIPOLES>
354.6
10.24
2.12
0.69
4.16
0.22
0.01
-2.03
-0.69
-1.8
0.15
0.07
-0.02
-0.92

> <PUBCHEM_SHAPE_SELFOVERLAP>
789.564

> <PUBCHEM_SHAPE_VOLUME>
192.1

> <PUBCHEM_COORDINATE_TYPE>
2
5
10

$$$$
