3216694
  -OEChem-01171809283D

 53 55  0     1  0  0  0  0  0999 V2000
    0.3810   -2.3039   -2.0639 S   0  0  0  0  0  0  0  0  0  0  0  0
    1.3745    0.9279    1.6873 O   0  0  0  0  0  0  0  0  0  0  0  0
   -0.7829    2.5898   -0.0434 O   0  0  0  0  0  0  0  0  0  0  0  0
    0.0478   -1.5162    2.2961 O   0  0  0  0  0  0  0  0  0  0  0  0
   -5.3181   -0.3582   -1.1133 O   0  0  0  0  0  0  0  0  0  0  0  0
    2.7355    0.7487   -0.1838 N   0  0  0  0  0  0  0  0  0  0  0  0
   -0.7298   -0.2085    0.4612 N   0  0  0  0  0  0  0  0  0  0  0  0
    3.8770    1.4330    0.3718 C   0  0  0  0  0  0  0  0  0  0  0  0
    4.8646    0.4644    1.0116 C   0  0  0  0  0  0  0  0  0  0  0  0
    4.7137    2.1018   -0.7113 C   0  0  0  0  0  0  0  0  0  0  0  0
    5.7197   -0.0494   -0.1454 C   0  0  0  0  0  0  0  0  0  0  0  0
    5.5885    0.9814   -1.2670 C   0  0  0  0  0  0  0  0  0  0  0  0
    1.5619    0.5507    0.5321 C   0  0  0  0  0  0  0  0  0  0  0  0
    0.4971   -0.1603   -0.2912 C   0  0  1  0  0  0  0  0  0  0  0  0
    0.9527   -1.5573   -0.6328 C   0  0  0  0  0  0  0  0  0  0  0  0
   -1.9111    0.4718   -0.0695 C   0  0  0  0  0  0  0  0  0  0  0  0
    1.8087   -2.3758    0.0708 C   0  0  0  0  0  0  0  0  0  0  0  0
   -0.8324   -0.8976    1.7076 C   0  0  0  0  0  0  0  0  0  0  0  0
   -1.8960    1.8468   -0.3029 C   0  0  0  0  0  0  0  0  0  0  0  0
   -3.0610   -0.2692   -0.3417 C   0  0  0  0  0  0  0  0  0  0  0  0
    1.9978   -3.6324   -0.5738 C   0  0  0  0  0  0  0  0  0  0  0  0
    1.2792   -3.7265   -1.7451 C   0  0  0  0  0  0  0  0  0  0  0  0
   -4.1959    0.3648   -0.8474 C   0  0  0  0  0  0  0  0  0  0  0  0
   -3.0308    2.4811   -0.8085 C   0  0  0  0  0  0  0  0  0  0  0  0
   -4.1808    1.7400   -1.0807 C   0  0  0  0  0  0  0  0  0  0  0  0
   -2.1351   -0.9196    2.3478 C   0  0  0  0  0  0  0  0  0  0  0  0
   -0.8604    3.9877   -0.3131 C   0  0  0  0  0  0  0  0  0  0  0  0
   -5.2646   -1.7598   -0.8515 C   0  0  0  0  0  0  0  0  0  0  0  0
   -3.2008   -0.9551    2.9002 C   0  0  0  0  0  0  0  0  0  0  0  0
    3.5210    2.1673    1.1024 H   0  0  0  0  0  0  0  0  0  0  0  0
    4.3838   -0.3529    1.5584 H   0  0  0  0  0  0  0  0  0  0  0  0
    5.5068    1.0068    1.7165 H   0  0  0  0  0  0  0  0  0  0  0  0
    5.3550    2.8701   -0.2618 H   0  0  0  0  0  0  0  0  0  0  0  0
    4.1136    2.5785   -1.4930 H   0  0  0  0  0  0  0  0  0  0  0  0
    6.7617   -0.1832    0.1629 H   0  0  0  0  0  0  0  0  0  0  0  0
    5.3528   -1.0230   -0.4902 H   0  0  0  0  0  0  0  0  0  0  0  0
    5.1102    0.5211   -2.1394 H   0  0  0  0  0  0  0  0  0  0  0  0
    6.5638    1.3586   -1.5906 H   0  0  0  0  0  0  0  0  0  0  0  0
    2.8100    0.3762   -1.1261 H   0  0  0  0  0  0  0  0  0  0  0  0
    0.3540    0.4169   -1.2147 H   0  0  0  0  0  0  0  0  0  0  0  0
    2.2916   -2.1031    1.0003 H   0  0  0  0  0  0  0  0  0  0  0  0
   -3.0118   -1.3423   -0.1884 H   0  0  0  0  0  0  0  0  0  0  0  0
    2.6302   -4.4262   -0.1982 H   0  0  0  0  0  0  0  0  0  0  0  0
    1.2390   -4.5624   -2.4292 H   0  0  0  0  0  0  0  0  0  0  0  0
   -3.0945    3.5437   -1.0150 H   0  0  0  0  0  0  0  0  0  0  0  0
   -5.0626    2.2383   -1.4745 H   0  0  0  0  0  0  0  0  0  0  0  0
   -1.0160    4.1859   -1.3791 H   0  0  0  0  0  0  0  0  0  0  0  0
   -1.6075    4.4807    0.3183 H   0  0  0  0  0  0  0  0  0  0  0  0
    0.1110    4.4193   -0.0497 H   0  0  0  0  0  0  0  0  0  0  0  0
   -4.5283   -2.2604   -1.4894 H   0  0  0  0  0  0  0  0  0  0  0  0
   -5.1030   -1.9660    0.2121 H   0  0  0  0  0  0  0  0  0  0  0  0
   -6.2444   -2.1739   -1.1108 H   0  0  0  0  0  0  0  0  0  0  0  0
   -4.1471   -0.9862    3.3876 H   0  0  0  0  0  0  0  0  0  0  0  0
  1 15  1  0  0  0  0
  1 22  1  0  0  0  0
  2 13  2  0  0  0  0
  3 19  1  0  0  0  0
  3 27  1  0  0  0  0
  4 18  2  0  0  0  0
  5 23  1  0  0  0  0
  5 28  1  0  0  0  0
  6  8  1  0  0  0  0
  6 13  1  0  0  0  0
  6 39  1  0  0  0  0
  7 14  1  0  0  0  0
  7 16  1  0  0  0  0
  7 18  1  0  0  0  0
  8  9  1  0  0  0  0
  8 10  1  0  0  0  0
  8 30  1  0  0  0  0
  9 11  1  0  0  0  0
  9 31  1  0  0  0  0
  9 32  1  0  0  0  0
 10 12  1  0  0  0  0
 10 33  1  0  0  0  0
 10 34  1  0  0  0  0
 11 12  1  0  0  0  0
 11 35  1  0  0  0  0
 11 36  1  0  0  0  0
 12 37  1  0  0  0  0
 12 38  1  0  0  0  0
 13 14  1  0  0  0  0
 14 15  1  0  0  0  0
 14 40  1  0  0  0  0
 15 17  2  0  0  0  0
 16 19  2  0  0  0  0
 16 20  1  0  0  0  0
 17 21  1  0  0  0  0
 17 41  1  0  0  0  0
 18 26  1  0  0  0  0
 19 24  1  0  0  0  0
 20 23  2  0  0  0  0
 20 42  1  0  0  0  0
 21 22  2  0  0  0  0
 21 43  1  0  0  0  0
 22 44  1  0  0  0  0
 23 25  1  0  0  0  0
 24 25  2  0  0  0  0
 24 45  1  0  0  0  0
 25 46  1  0  0  0  0
 26 29  3  0  0  0  0
 27 47  1  0  0  0  0
 27 48  1  0  0  0  0
 27 49  1  0  0  0  0
 28 50  1  0  0  0  0
 28 51  1  0  0  0  0
 28 52  1  0  0  0  0
 29 53  1  0  0  0  0
M  END
> <PUBCHEM_COMPOUND_CID>
3216694

> <PUBCHEM_CONFORMER_RMSD>
1

> <PUBCHEM_CONFORMER_DIVERSEORDER>
2
172
157
260
189
211
258
224
306
302
249
261
204
239
138
264
295
252
256
174
20
199
208
231
162
61
145
155
263
33
292
112
247
125
230
192
65
200
67
276
217
269
245
279
169
86
253
275
43
218
176
84
120
136
106
215
214
280
150
124
21
226
213
146
210
219
232
299
78
290
130
121
171
69
194
45
133
274
294
237
58
305
60
17
99
298
207
212
100
167
168
77
132
135
79
241
266
296
15
109
93
82
250
49
154
287
227
160
173
70
251
205
186
254
25
55
115
283
271
50
203
281
228
222
46
105
47
185
288
284
159
72
81
244
248
175
53
22
143
268
236
198
89
170
195
111
151
44
289
129
26
3
188
116
238
179
196
88
180
140
97
220
282
277
4
144
29
229
107
62
38
141
223
57
201
8
101
202
270
206
94
36
273
96
216
149
80
177
118
139
110
300
28
32
164
147
71
131
233
23
158
242
193
102
197
27
123
137
14
156
74
95
66
286
56
303
127
272
166
134
39
209
113
184
12
87
41
243
152
235
35
76
104
187
234
122
59
24
40
304
191
165
278
48
18
257
259
265
92
103
190
34
285
13
37
182
307
5
11
108
63
19
221
293
54
142
183
240
153
148
262
119
31
90
10
91
30
163
267
52
178
126
6
9
1
83
16
42
181
85
128
75
291
73
68
117
64
51
114
301
255
297
246
7
225
161
98

> <PUBCHEM_MMFF94_PARTIAL_CHARGES>
33
1 -0.08
13 0.57
14 0.54
15 -0.14
16 0.12
17 -0.15
18 0.74
19 0.08
2 -0.57
20 -0.15
21 -0.15
22 -0.11
23 0.08
24 -0.15
25 -0.15
26 -0.1
27 0.28
28 0.28
29 -0.18
3 -0.36
39 0.37
4 -0.57
41 0.15
42 0.15
43 0.15
44 0.15
45 0.15
46 0.15
5 -0.36
53 0.18
6 -0.73
7 -0.48
8 0.3

> <PUBCHEM_EFFECTIVE_ROTOR_COUNT>
10

> <PUBCHEM_PHARMACOPHORE_FEATURES>
9
1 2 acceptor
1 29 hydrophobe
1 3 acceptor
1 4 acceptor
1 5 acceptor
1 6 donor
5 1 15 17 21 22 rings
5 8 9 10 11 12 rings
6 16 19 20 23 24 25 rings

> <PUBCHEM_HEAVY_ATOM_COUNT>
29

> <PUBCHEM_ATOM_DEF_STEREO_COUNT>
0

> <PUBCHEM_ATOM_UDEF_STEREO_COUNT>
1

> <PUBCHEM_BOND_DEF_STEREO_COUNT>
0

> <PUBCHEM_BOND_UDEF_STEREO_COUNT>
0

> <PUBCHEM_ISOTOPIC_ATOM_COUNT>
0

> <PUBCHEM_COMPONENT_COUNT>
1

> <PUBCHEM_CACTVS_TAUTO_COUNT>
2

> <PUBCHEM_CONFORMER_ID>
0031153600000002

> <PUBCHEM_MMFF94_ENERGY>
102.9125

> <PUBCHEM_FEATURE_SELFOVERLAP>
45.675

> <PUBCHEM_SHAPE_FINGERPRINT>
10906281 52 18260842492135193909
11488393 25 18058463006161752374
11578080 2 17829650233768247496
11963148 33 18265881614113511983
12160290 23 17771903007426843470
12293681 25 18188225251190103427
12592029 89 18343294851937863182
12633257 1 16805870828610511048
13149001 5 17545058004317351708
133893 2 17843137917410996570
1361 2 18197206156106146069
13911987 19 18270129044494493980
14787075 74 18186792604555144453
17349148 13 18040718060619484132
17980427 23 17458632275653285319
18681886 176 18410002265756461640
18915476 22 18270415879374001658
20197701 30 18272923938986188558
20600515 1 17240493480860053269
20691752 17 17315640599508802605
21033648 29 18270956951481799568
21344244 181 17059787714317619950
22182313 1 18042146304833596267
23557571 272 17750541548891812115
23558518 356 18047194050831547700
23559900 14 17911221833017312455
3298306 158 18412262818565341886
3380486 145 18263662799774331835
3493558 16 15940086991143944996
44802255 64 18193857031826003206
469060 322 18196945584957064231
57527585 103 17678486149977707641
59755656 215 18409442561974760103
77296 10 15358836684564340911
9709674 26 18263648359508596410
9981440 41 18335698321494946354

> <PUBCHEM_SHAPE_MULTIPOLES>
567.22
10.41
3.92
2.04
4.98
0.7
-1.4
-3.32
2.65
0.67
1.92
-1.35
1.19
1.07

> <PUBCHEM_SHAPE_SELFOVERLAP>
1192.628

> <PUBCHEM_SHAPE_VOLUME>
319.1

> <PUBCHEM_COORDINATE_TYPE>
2
5
10

$$$$
