5895840
  -OEChem-01171809273D

 38 39  0     0  0  0  0  0  0999 V2000
   -0.5869    2.0279   -0.9969 O   0  0  0  0  0  0  0  0  0  0  0  0
    5.7132   -1.1716    0.2442 O   0  0  0  0  0  0  0  0  0  0  0  0
    4.1639    0.5991    0.1841 N   0  0  0  0  0  0  0  0  0  0  0  0
    2.9546   -0.0347   -0.1037 C   0  0  0  0  0  0  0  0  0  0  0  0
    0.5990    0.0650   -0.5020 C   0  0  0  0  0  0  0  0  0  0  0  0
    1.7838    0.7147   -0.2184 C   0  0  0  0  0  0  0  0  0  0  0  0
    2.9165   -1.4185   -0.2751 C   0  0  0  0  0  0  0  0  0  0  0  0
    0.5368   -1.3034   -0.6758 C   0  0  0  0  0  0  0  0  0  0  0  0
    1.7075   -2.0529   -0.5613 C   0  0  0  0  0  0  0  0  0  0  0  0
   -0.6459    0.8612   -0.6249 C   0  0  0  0  0  0  0  0  0  0  0  0
    6.4856    1.0731    0.6480 C   0  0  0  0  0  0  0  0  0  0  0  0
    5.4334    0.0189    0.3376 C   0  0  0  0  0  0  0  0  0  0  0  0
   -4.3987    0.3535    0.0373 C   0  0  0  0  0  0  0  0  0  0  0  0
   -1.9283    0.2010   -0.2535 C   0  0  0  0  0  0  0  0  0  0  0  0
   -3.0920    0.8864   -0.3157 C   0  0  0  0  0  0  0  0  0  0  0  0
    7.8676    0.4798    0.8551 C   0  0  0  0  0  0  0  0  0  0  0  0
   -4.6023   -1.0259    0.0751 C   0  0  0  0  0  0  0  0  0  0  0  0
   -5.4479    1.2217    0.3386 C   0  0  0  0  0  0  0  0  0  0  0  0
   -5.8551   -1.5371    0.4141 C   0  0  0  0  0  0  0  0  0  0  0  0
   -6.7007    0.7106    0.6777 C   0  0  0  0  0  0  0  0  0  0  0  0
   -6.9042   -0.6688    0.7155 C   0  0  0  0  0  0  0  0  0  0  0  0
    1.8141    1.7923   -0.0794 H   0  0  0  0  0  0  0  0  0  0  0  0
    3.7792   -2.0659   -0.2043 H   0  0  0  0  0  0  0  0  0  0  0  0
    4.1080    1.6095    0.2947 H   0  0  0  0  0  0  0  0  0  0  0  0
   -0.3735   -1.8311   -0.9398 H   0  0  0  0  0  0  0  0  0  0  0  0
    1.6788   -3.1293   -0.7043 H   0  0  0  0  0  0  0  0  0  0  0  0
    6.5133    1.7883   -0.1818 H   0  0  0  0  0  0  0  0  0  0  0  0
    6.1800    1.6130    1.5515 H   0  0  0  0  0  0  0  0  0  0  0  0
   -1.8974   -0.8072    0.1382 H   0  0  0  0  0  0  0  0  0  0  0  0
   -3.0875    1.9186   -0.6590 H   0  0  0  0  0  0  0  0  0  0  0  0
    7.8694   -0.2312    1.6879 H   0  0  0  0  0  0  0  0  0  0  0  0
    8.5919    1.2694    1.0779 H   0  0  0  0  0  0  0  0  0  0  0  0
    8.2057   -0.0515   -0.0406 H   0  0  0  0  0  0  0  0  0  0  0  0
   -3.8223   -1.7401   -0.1725 H   0  0  0  0  0  0  0  0  0  0  0  0
   -5.3081    2.2998    0.3158 H   0  0  0  0  0  0  0  0  0  0  0  0
   -6.0156   -2.6111    0.4388 H   0  0  0  0  0  0  0  0  0  0  0  0
   -7.5178    1.3864    0.9124 H   0  0  0  0  0  0  0  0  0  0  0  0
   -7.8799   -1.0668    0.9783 H   0  0  0  0  0  0  0  0  0  0  0  0
  1 10  2  0  0  0  0
  2 12  2  0  0  0  0
  3  4  1  0  0  0  0
  3 12  1  0  0  0  0
  3 24  1  0  0  0  0
  4  6  1  0  0  0  0
  4  7  2  0  0  0  0
  5  6  2  0  0  0  0
  5  8  1  0  0  0  0
  5 10  1  0  0  0  0
  6 22  1  0  0  0  0
  7  9  1  0  0  0  0
  7 23  1  0  0  0  0
  8  9  2  0  0  0  0
  8 25  1  0  0  0  0
  9 26  1  0  0  0  0
 10 14  1  0  0  0  0
 11 12  1  0  0  0  0
 11 16  1  0  0  0  0
 11 27  1  0  0  0  0
 11 28  1  0  0  0  0
 13 15  1  0  0  0  0
 13 17  2  0  0  0  0
 13 18  1  0  0  0  0
 14 15  2  0  0  0  0
 14 29  1  0  0  0  0
 15 30  1  0  0  0  0
 16 31  1  0  0  0  0
 16 32  1  0  0  0  0
 16 33  1  0  0  0  0
 17 19  1  0  0  0  0
 17 34  1  0  0  0  0
 18 20  2  0  0  0  0
 18 35  1  0  0  0  0
 19 21  2  0  0  0  0
 19 36  1  0  0  0  0
 20 21  1  0  0  0  0
 20 37  1  0  0  0  0
 21 38  1  0  0  0  0
M  END
> <PUBCHEM_COMPOUND_CID>
5895840

> <PUBCHEM_CONFORMER_RMSD>
0.8

> <PUBCHEM_CONFORMER_DIVERSEORDER>
2
22
33
10
17
25
15
48
16
28
11
27
5
13
47
36
7
34
26
32
19
6
24
49
14
53
39
18
42
20
51
30
4
50
31
37
21
23
3
12
38
35
45
43
52
44
54
29
40
41
1
9
8
46

> <PUBCHEM_MMFF94_PARTIAL_CHARGES>
32
1 -0.57
10 0.47
11 0.06
12 0.57
13 0.03
14 -0.14
15 -0.18
17 -0.15
18 -0.15
19 -0.15
2 -0.57
20 -0.15
21 -0.15
22 0.15
23 0.15
24 0.37
25 0.15
26 0.15
29 0.15
3 -0.55
30 0.15
34 0.15
35 0.15
36 0.15
37 0.15
38 0.15
4 0.12
5 0.09
6 -0.15
7 -0.15
8 -0.15
9 -0.15

> <PUBCHEM_EFFECTIVE_ROTOR_COUNT>
6

> <PUBCHEM_PHARMACOPHORE_FEATURES>
6
1 1 acceptor
1 16 hydrophobe
1 2 acceptor
1 3 donor
6 13 17 18 19 20 21 rings
6 4 5 6 7 8 9 rings

> <PUBCHEM_HEAVY_ATOM_COUNT>
21

> <PUBCHEM_ATOM_DEF_STEREO_COUNT>
0

> <PUBCHEM_ATOM_UDEF_STEREO_COUNT>
0

> <PUBCHEM_BOND_DEF_STEREO_COUNT>
1

> <PUBCHEM_BOND_UDEF_STEREO_COUNT>
0

> <PUBCHEM_ISOTOPIC_ATOM_COUNT>
0

> <PUBCHEM_COMPONENT_COUNT>
1

> <PUBCHEM_CACTVS_TAUTO_COUNT>
2

> <PUBCHEM_CONFORMER_ID>
0059F6A000000002

> <PUBCHEM_MMFF94_ENERGY>
63.4011

> <PUBCHEM_FEATURE_SELFOVERLAP>
30.446

> <PUBCHEM_SHAPE_FINGERPRINT>
10 15 18408600392625196824
10066227 49 12324506624694000216
106641 1 18335700580985496920
10670039 82 11312065331342969387
10693767 8 11242235369090254712
10835480 77 18340201883111799733
11315181 36 18202282512083432297
11408170 108 14346341348305269528
11724838 91 18409444821634024686
12091667 2 17703788124615044213
12166972 35 12612761215454244543
12236239 1 17346596361361455773
12516196 113 18412829079622056673
12596602 18 17775291538933228691
12730499 353 18060142020884161086
12838862 33 18334562548228650535
13403585 85 18272934899922335745
13533116 47 13038918694614082508
13540713 4 18048029680089995308
13668630 136 13767927909919861073
13964095 4 10447931680677886464
14251732 16 18411136943758110770
14251752 14 10087645896668700928
14251764 18 18334294292702178586
14251764 46 17821728338542298529
14341114 176 18202008690110513607
14849402 71 18129099094615494232
15048467 5 17561081401637462040
15183329 4 9799699198643150300
15461852 350 17346872352709752957
15716309 27 18260265256666274227
15927050 60 17694222575011550620
17093844 174 18114179723360347177
17834072 8 8790886280731607271
18006028 8 13045940205669937054
1813 80 17313115124900951085
20281389 69 13758076272728779627
20735858 18 18409446994760765242
21130935 74 18411702045527869882
21150785 3 13623537848606691214
21267235 1 18338798919454681774
21521721 280 18060135475153074184
22079108 93 18130782382893002968
221357 26 8430315715075132615
22224240 67 18341890814016883242
23035841 295 17603586335287372057
23402539 116 17894628145723585501
23559900 14 18411696617585629633
23576562 1 11023237962830689272
29717793 49 12901547922909116202
3009799 131 8430315740897138310
4073 2 18334020501222072491
4340502 62 18413389826347010574
5104073 3 18267019449284869248
5758199 1 18202002140206415418
59682541 35 18340768242524981747
6328613 192 11743829296573561442
67856867 119 18336271257817653525
9953998 17 18412262848603505553

> <PUBCHEM_SHAPE_MULTIPOLES>
415.45
20.65
1.67
0.85
5.11
0.4
0
-1.61
-8.65
-0.24
0.21
0.04
-0.08
0.69

> <PUBCHEM_SHAPE_SELFOVERLAP>
881.397

> <PUBCHEM_SHAPE_VOLUME>
231.1

> <PUBCHEM_COORDINATE_TYPE>
2
5
10

$$$$
