3689415
  -OEChem-01171809333D

 53 55  0     1  0  0  0  0  0999 V2000
    3.9177   -3.3918   -1.1646 Cl  0  0  0  0  0  0  0  0  0  0  0  0
    3.8577    0.7837    1.7952 S   0  0  0  0  0  0  0  0  0  0  0  0
    0.4407    1.3507   -1.6435 O   0  0  0  0  0  0  0  0  0  0  0  0
    2.7890   -0.7531   -1.7916 O   0  0  0  0  0  0  0  0  0  0  0  0
   -2.7804   -3.2984   -0.6483 O   0  0  0  0  0  0  0  0  0  0  0  0
    1.2743   -0.7022    0.0322 N   0  0  0  0  0  0  0  0  0  0  0  0
    0.0807    2.6658    0.2341 N   0  0  0  0  0  0  0  0  0  0  0  0
    1.4145    0.6638    0.4655 C   0  0  1  0  0  0  0  0  0  0  0  0
    2.8664    1.0727    0.4292 C   0  0  0  0  0  0  0  0  0  0  0  0
    0.5935    1.5680   -0.4431 C   0  0  0  0  0  0  0  0  0  0  0  0
    0.1606   -1.4897    0.5626 C   0  0  0  0  0  0  0  0  0  0  0  0
   -0.7023    3.6857   -0.4230 C   0  0  0  0  0  0  0  0  0  0  0  0
   -2.1050    3.8173    0.1653 C   0  0  0  0  0  0  0  0  0  0  0  0
    2.1711   -1.3278   -0.8923 C   0  0  0  0  0  0  0  0  0  0  0  0
    3.5605    1.6798   -0.5942 C   0  0  0  0  0  0  0  0  0  0  0  0
   -2.8992    2.5368    0.0857 C   0  0  0  0  0  0  0  0  0  0  0  0
   -0.7901   -2.0258   -0.3062 C   0  0  0  0  0  0  0  0  0  0  0  0
    0.0493   -1.7039    1.9364 C   0  0  0  0  0  0  0  0  0  0  0  0
    4.9242    1.9106   -0.2524 C   0  0  0  0  0  0  0  0  0  0  0  0
   -1.8521   -2.7760    0.1990 C   0  0  0  0  0  0  0  0  0  0  0  0
    2.2904   -2.8327   -0.7238 C   0  0  0  0  0  0  0  0  0  0  0  0
    5.2205    1.4713    1.0191 C   0  0  0  0  0  0  0  0  0  0  0  0
   -1.0126   -2.4540    2.4415 C   0  0  0  0  0  0  0  0  0  0  0  0
   -1.9633   -2.9900    1.5729 C   0  0  0  0  0  0  0  0  0  0  0  0
   -3.6890    2.2743   -1.0338 C   0  0  0  0  0  0  0  0  0  0  0  0
   -2.8433    1.6151    1.1313 C   0  0  0  0  0  0  0  0  0  0  0  0
   -4.4230    1.0906   -1.1077 C   0  0  0  0  0  0  0  0  0  0  0  0
   -3.5774    0.4312    1.0573 C   0  0  0  0  0  0  0  0  0  0  0  0
   -4.3672    0.1690   -0.0622 C   0  0  0  0  0  0  0  0  0  0  0  0
   -2.6062   -3.0411   -2.0408 C   0  0  0  0  0  0  0  0  0  0  0  0
    1.0355    0.7632    1.4904 H   0  0  0  0  0  0  0  0  0  0  0  0
   -0.7592    3.4813   -1.4978 H   0  0  0  0  0  0  0  0  0  0  0  0
   -0.1629    4.6304   -0.2956 H   0  0  0  0  0  0  0  0  0  0  0  0
    0.2966    2.7958    1.2181 H   0  0  0  0  0  0  0  0  0  0  0  0
   -2.6460    4.6197   -0.3517 H   0  0  0  0  0  0  0  0  0  0  0  0
   -2.0386    4.1315    1.2153 H   0  0  0  0  0  0  0  0  0  0  0  0
    3.1292    1.9573   -1.5474 H   0  0  0  0  0  0  0  0  0  0  0  0
   -0.6618   -1.8195   -1.3638 H   0  0  0  0  0  0  0  0  0  0  0  0
    0.7875   -1.3038    2.6261 H   0  0  0  0  0  0  0  0  0  0  0  0
    5.6508    2.3761   -0.9054 H   0  0  0  0  0  0  0  0  0  0  0  0
    1.5735   -3.3346   -1.3785 H   0  0  0  0  0  0  0  0  0  0  0  0
    2.1349   -3.1432    0.3110 H   0  0  0  0  0  0  0  0  0  0  0  0
    6.1719    1.5213    1.5295 H   0  0  0  0  0  0  0  0  0  0  0  0
   -1.0983   -2.6224    3.5110 H   0  0  0  0  0  0  0  0  0  0  0  0
   -2.7887   -3.5729    1.9723 H   0  0  0  0  0  0  0  0  0  0  0  0
   -3.7384    2.9835   -1.8557 H   0  0  0  0  0  0  0  0  0  0  0  0
   -2.2342    1.8070    2.0105 H   0  0  0  0  0  0  0  0  0  0  0  0
   -5.0369    0.8855   -1.9797 H   0  0  0  0  0  0  0  0  0  0  0  0
   -3.5399   -0.2819    1.8750 H   0  0  0  0  0  0  0  0  0  0  0  0
   -4.9386   -0.7528   -0.1195 H   0  0  0  0  0  0  0  0  0  0  0  0
   -3.4323   -3.5320   -2.5656 H   0  0  0  0  0  0  0  0  0  0  0  0
   -1.6788   -3.4844   -2.4193 H   0  0  0  0  0  0  0  0  0  0  0  0
   -2.6771   -1.9712   -2.2645 H   0  0  0  0  0  0  0  0  0  0  0  0
  1 21  1  0  0  0  0
  2  9  1  0  0  0  0
  2 22  1  0  0  0  0
  3 10  2  0  0  0  0
  4 14  2  0  0  0  0
  5 20  1  0  0  0  0
  5 30  1  0  0  0  0
  6  8  1  0  0  0  0
  6 11  1  0  0  0  0
  6 14  1  0  0  0  0
  7 10  1  0  0  0  0
  7 12  1  0  0  0  0
  7 34  1  0  0  0  0
  8  9  1  0  0  0  0
  8 10  1  0  0  0  0
  8 31  1  0  0  0  0
  9 15  2  0  0  0  0
 11 17  2  0  0  0  0
 11 18  1  0  0  0  0
 12 13  1  0  0  0  0
 12 32  1  0  0  0  0
 12 33  1  0  0  0  0
 13 16  1  0  0  0  0
 13 35  1  0  0  0  0
 13 36  1  0  0  0  0
 14 21  1  0  0  0  0
 15 19  1  0  0  0  0
 15 37  1  0  0  0  0
 16 25  2  0  0  0  0
 16 26  1  0  0  0  0
 17 20  1  0  0  0  0
 17 38  1  0  0  0  0
 18 23  2  0  0  0  0
 18 39  1  0  0  0  0
 19 22  2  0  0  0  0
 19 40  1  0  0  0  0
 20 24  2  0  0  0  0
 21 41  1  0  0  0  0
 21 42  1  0  0  0  0
 22 43  1  0  0  0  0
 23 24  1  0  0  0  0
 23 44  1  0  0  0  0
 24 45  1  0  0  0  0
 25 27  1  0  0  0  0
 25 46  1  0  0  0  0
 26 28  2  0  0  0  0
 26 47  1  0  0  0  0
 27 29  2  0  0  0  0
 27 48  1  0  0  0  0
 28 29  1  0  0  0  0
 28 49  1  0  0  0  0
 29 50  1  0  0  0  0
 30 51  1  0  0  0  0
 30 52  1  0  0  0  0
 30 53  1  0  0  0  0
M  END
> <PUBCHEM_COMPOUND_CID>
3689415

> <PUBCHEM_CONFORMER_RMSD>
1

> <PUBCHEM_CONFORMER_DIVERSEORDER>
1
53
32
261
41
311
177
184
124
157
245
65
250
110
158
260
112
301
326
185
42
180
279
165
332
73
62
60
101
337
18
221
331
47
75
329
322
312
179
294
343
226
168
169
308
346
37
117
285
77
175
63
302
347
277
327
211
225
287
156
220
27
266
127
253
25
76
190
345
351
307
268
113
64
219
11
231
39
239
58
144
276
5
295
46
206
318
275
161
310
106
83
50
103
24
45
320
306
193
153
251
297
128
99
40
324
283
132
289
115
125
80
335
334
87
291
333
328
98
120
56
17
96
195
262
298
71
192
228
210
107
213
321
81
244
84
59
88
208
336
8
227
61
86
38
33
155
137
94
265
72
91
26
66
342
118
202
138
212
300
93
74
259
35
82
160
323
109
339
14
249
235
105
232
68
29
140
207
69
274
6
201
340
293
218
145
31
217
12
16
152
67
278
34
49
269
123
97
13
159
319
258
309
23
236
44
290
238
315
55
282
338
344
4
57
350
205
303
30
257
352
129
209
51
348
246
136
28
142
174
317
270
133
296
104
233
247
325
214
54
150
19
224
139
154
237
170
280
242
194
163
215
255
204
43
10
203
172
36
102
162
131
267
22
134
256
167
21
111
254
196
171
223
166
313
20
78
85
173
146
147
79
243
9
143
181
90
48
341
229
95
314
304
15
92
7
186
122
178
230
198
52
197
130
108
151
281
240
126
292
234
299
100
349
89
114
248
189
188
252
116
141
216
119
263
272
286
316
164
199
148
241
264
135
330
149
288
222
121
3
284
273
271
2
176
182
191
305
187
200
183
70

> <PUBCHEM_MMFF94_PARTIAL_CHARGES>
43
1 -0.29
10 0.57
11 0.12
12 0.3
13 0.14
14 0.57
15 -0.15
16 -0.14
17 -0.15
18 -0.15
19 -0.15
2 -0.08
20 0.08
21 0.35
22 -0.11
23 -0.15
24 -0.15
25 -0.15
26 -0.15
27 -0.15
28 -0.15
29 -0.15
3 -0.57
30 0.28
34 0.37
37 0.15
38 0.15
39 0.15
4 -0.57
40 0.15
43 0.15
44 0.15
45 0.15
46 0.15
47 0.15
48 0.15
49 0.15
5 -0.36
50 0.15
6 -0.48
7 -0.73
8 0.54
9 -0.14

> <PUBCHEM_EFFECTIVE_ROTOR_COUNT>
11

> <PUBCHEM_PHARMACOPHORE_FEATURES>
7
1 3 acceptor
1 4 acceptor
1 5 acceptor
1 7 donor
5 2 9 15 19 22 rings
6 11 17 18 20 23 24 rings
6 16 25 26 27 28 29 rings

> <PUBCHEM_HEAVY_ATOM_COUNT>
30

> <PUBCHEM_ATOM_DEF_STEREO_COUNT>
0

> <PUBCHEM_ATOM_UDEF_STEREO_COUNT>
1

> <PUBCHEM_BOND_DEF_STEREO_COUNT>
0

> <PUBCHEM_BOND_UDEF_STEREO_COUNT>
0

> <PUBCHEM_ISOTOPIC_ATOM_COUNT>
0

> <PUBCHEM_COMPONENT_COUNT>
1

> <PUBCHEM_CACTVS_TAUTO_COUNT>
2

> <PUBCHEM_CONFORMER_ID>
00384BC700000001

> <PUBCHEM_MMFF94_ENERGY>
102.8252

> <PUBCHEM_FEATURE_SELFOVERLAP>
35.523

> <PUBCHEM_SHAPE_FINGERPRINT>
10675989 125 17395272643811076157
108634 29 18335145309979978451
11513181 2 18199746951468413951
11578080 2 17988097659197100658
12156800 1 16695490963176628511
12293681 4 18044656648894026899
12422481 6 18337654349108739074
12788726 201 18044099179033401921
13140716 1 18121507022680939289
13149001 5 18053116025523375942
15219462 58 16630532825604279706
19591789 44 18121783824685174180
20587220 17 17552951454751198681
20600515 1 17604427530518200574
20764821 26 18050577540473737981
21236236 1 18266737072782056120
22182313 1 18198083506571969606
22393880 68 18046623404802731773
23559900 14 17979349768482650628
3052486 1 18114470045283631996
3380486 145 18198922463591697664
463206 1 18193831764254331973
469060 322 18054235602885359827
563151 74 16914495984961220106
57527585 103 17824840055297099603
6438718 38 18270409420032961955

> <PUBCHEM_SHAPE_MULTIPOLES>
595.54
8.69
5.3
1.81
3.88
1.09
-0.41
-3.66
0.78
-1.82
0.71
-0.01
1.29
1.25

> <PUBCHEM_SHAPE_SELFOVERLAP>
1243.636

> <PUBCHEM_SHAPE_VOLUME>
338.3

> <PUBCHEM_COORDINATE_TYPE>
2
5
10

$$$$
