44142259
  -OEChem-01171810113D

 30 32  0     0  0  0  0  0  0999 V2000
   -1.4446    3.9186   -0.3183 O   0  0  0  0  0  0  0  0  0  0  0  0
   -2.8508    1.4206   -0.0931 N   0  0  0  0  0  0  0  0  0  0  0  0
    4.0373    0.2651    0.4121 N   0  0  0  0  0  0  0  0  0  0  0  0
    5.0508   -1.4885   -0.4984 N   0  0  0  0  0  0  0  0  0  0  0  0
   -1.9964   -0.6364    0.0318 C   0  0  0  0  0  0  0  0  0  0  0  0
   -3.1888    0.0903    0.0141 C   0  0  0  0  0  0  0  0  0  0  0  0
   -0.9329    0.3038   -0.0681 C   0  0  0  0  0  0  0  0  0  0  0  0
   -1.4898    1.5596   -0.1434 C   0  0  0  0  0  0  0  0  0  0  0  0
   -2.0591   -2.0402    0.1358 C   0  0  0  0  0  0  0  0  0  0  0  0
   -4.4459   -0.5190    0.0957 C   0  0  0  0  0  0  0  0  0  0  0  0
   -3.3097   -2.6633    0.2186 C   0  0  0  0  0  0  0  0  0  0  0  0
   -4.4835   -1.9125    0.1987 C   0  0  0  0  0  0  0  0  0  0  0  0
    0.4651    0.0209   -0.0899 C   0  0  0  0  0  0  0  0  0  0  0  0
    3.0443   -0.5008   -0.1307 C   0  0  0  0  0  0  0  0  0  0  0  0
   -0.8402    2.8296   -0.2560 C   0  0  0  0  0  0  0  0  0  0  0  0
    1.6424   -0.2174   -0.1084 C   0  0  0  0  0  0  0  0  0  0  0  0
    3.8839    1.5148    1.1197 C   0  0  0  0  0  0  0  0  0  0  0  0
    3.6943   -1.5773   -0.6867 C   0  0  0  0  0  0  0  0  0  0  0  0
    5.2239   -0.3678    0.1665 C   0  0  0  0  0  0  0  0  0  0  0  0
   -3.5148    2.1821   -0.1291 H   0  0  0  0  0  0  0  0  0  0  0  0
   -1.1540   -2.6408    0.1527 H   0  0  0  0  0  0  0  0  0  0  0  0
   -5.3602    0.0647    0.0801 H   0  0  0  0  0  0  0  0  0  0  0  0
   -3.3642   -3.7458    0.2993 H   0  0  0  0  0  0  0  0  0  0  0  0
   -5.4441   -2.4171    0.2640 H   0  0  0  0  0  0  0  0  0  0  0  0
    0.2624    2.8292   -0.2881 H   0  0  0  0  0  0  0  0  0  0  0  0
    3.4057    2.2349    0.4509 H   0  0  0  0  0  0  0  0  0  0  0  0
    3.2656    1.3381    2.0034 H   0  0  0  0  0  0  0  0  0  0  0  0
    4.8661    1.8863    1.4227 H   0  0  0  0  0  0  0  0  0  0  0  0
    6.1760    0.0289    0.4921 H   0  0  0  0  0  0  0  0  0  0  0  0
    3.2594   -2.4145   -1.2142 H   0  0  0  0  0  0  0  0  0  0  0  0
  1 15  2  0  0  0  0
  2  6  1  0  0  0  0
  2  8  1  0  0  0  0
  2 20  1  0  0  0  0
  3 14  1  0  0  0  0
  3 17  1  0  0  0  0
  3 19  1  0  0  0  0
  4 18  1  0  0  0  0
  4 19  2  0  0  0  0
  5  6  1  0  0  0  0
  5  7  1  0  0  0  0
  5  9  2  0  0  0  0
  6 10  2  0  0  0  0
  7  8  2  0  0  0  0
  7 13  1  0  0  0  0
  8 15  1  0  0  0  0
  9 11  1  0  0  0  0
  9 21  1  0  0  0  0
 10 12  1  0  0  0  0
 10 22  1  0  0  0  0
 11 12  2  0  0  0  0
 11 23  1  0  0  0  0
 12 24  1  0  0  0  0
 13 16  3  0  0  0  0
 14 16  1  0  0  0  0
 14 18  2  0  0  0  0
 15 25  1  0  0  0  0
 17 26  1  0  0  0  0
 17 27  1  0  0  0  0
 17 28  1  0  0  0  0
 18 30  1  0  0  0  0
 19 29  1  0  0  0  0
M  END
> <PUBCHEM_COMPOUND_CID>
44142259

> <PUBCHEM_CONFORMER_RMSD>
0.6

> <PUBCHEM_CONFORMER_DIVERSEORDER>
1

> <PUBCHEM_MMFF94_PARTIAL_CHARGES>
26
1 -0.57
10 -0.15
11 -0.15
12 -0.15
13 -0.02
14 -0.13
15 0.59
16 -0.02
17 0.26
18 0.08
19 0.04
2 0.03
20 0.27
21 0.15
22 0.15
23 0.15
24 0.15
25 0.06
29 0.15
3 0.05
30 0.15
4 -0.57
6 -0.15
7 0.02
8 -0.24
9 -0.15

> <PUBCHEM_EFFECTIVE_ROTOR_COUNT>
1

> <PUBCHEM_PHARMACOPHORE_FEATURES>
7
1 1 acceptor
1 2 cation
1 2 donor
3 3 4 19 cation
5 2 5 6 7 8 rings
5 3 4 14 18 19 rings
6 5 6 9 10 11 12 rings

> <PUBCHEM_HEAVY_ATOM_COUNT>
19

> <PUBCHEM_ATOM_DEF_STEREO_COUNT>
0

> <PUBCHEM_ATOM_UDEF_STEREO_COUNT>
0

> <PUBCHEM_BOND_DEF_STEREO_COUNT>
0

> <PUBCHEM_BOND_UDEF_STEREO_COUNT>
0

> <PUBCHEM_ISOTOPIC_ATOM_COUNT>
0

> <PUBCHEM_COMPONENT_COUNT>
1

> <PUBCHEM_CACTVS_TAUTO_COUNT>
7

> <PUBCHEM_CONFORMER_ID>
02A18EB300000001

> <PUBCHEM_MMFF94_ENERGY>
21.3147

> <PUBCHEM_FEATURE_SELFOVERLAP>
35.612

> <PUBCHEM_SHAPE_FINGERPRINT>
10 15 18199734986739034090
10319926 262 18267565946131345874
10616163 171 18410295770282453662
11045515 52 18040434416842726677
11552529 35 17560517438198996119
11833330 49 18333730213041035365
12107183 9 17468751897703288186
12173636 292 18120651331914199565
12236239 1 17458063763569469870
12403259 226 18413385419736821624
12553582 1 18334847347077817707
12788726 201 18187923937410688939
12916754 54 18341899580234928128
138480 1 15311532984060813029
14790565 3 17834677098279323465
15042514 8 18336555941081575953
15352361 1 18410575127612972775
15961568 22 18189333636426236108
17349148 13 17385442124683200922
1813 80 17604143830411021933
19141452 34 18201441423873839023
20510252 161 18341331080957069593
20693207 138 17843706373449032854
21065198 57 18341331098453196242
21065199 12 18343015576200341722
21065201 7 18338514119798718154
21267235 1 18335993046768076843
21339142 51 18335696135826350829
21650355 55 18409732867815772037
22182937 141 18056764217341002912
2297311 6 18411430500704853910
23366157 5 17608933432369802677
23402539 116 18342171164102461831
23557571 272 18412548686755513340
23559900 14 18411695483138957960
23845131 108 17547869455935581041
2838139 119 15122951661062716585
3004659 81 17968096464371573358
335352 9 18409450302518651255
4214541 1 18340207397406156842
5104073 3 18343580720713363962
5283173 99 18188194434630696357
67856867 119 18115312323004819428
7364860 26 17906174302142557333
77779 3 18413390925868966786
9709674 26 18199190598690643742

> <PUBCHEM_SHAPE_MULTIPOLES>
370.2
10.64
3.12
0.73
9.28
2.53
0.06
-5.75
0.77
-2.35
-0.27
0.4
0.04
1.13

> <PUBCHEM_SHAPE_SELFOVERLAP>
818.023

> <PUBCHEM_SHAPE_VOLUME>
201.8

> <PUBCHEM_COORDINATE_TYPE>
2
5
10

$$$$
