2962914
  -OEChem-01171809423D

 62 64  0     1  0  0  0  0  0999 V2000
    0.4152   -1.6918    0.5669 S   0  0  0  0  0  0  0  0  0  0  0  0
    0.1020   -2.9599   -0.0665 O   0  0  0  0  0  0  0  0  0  0  0  0
    0.1346   -1.4866    1.9766 O   0  0  0  0  0  0  0  0  0  0  0  0
    6.8361    0.0555    0.4831 O   0  5  0  0  0  0  0  0  0  0  0  0
    6.7846   -1.2187   -1.3038 O   0  0  0  0  0  0  0  0  0  0  0  0
   -2.6344   -1.1373    0.2845 N   0  0  0  0  0  0  0  0  0  0  0  0
   -1.5599    2.3742   -0.4634 N   0  0  0  0  0  0  0  0  0  0  0  0
    6.2176   -0.6841   -0.3202 N   0  3  0  0  0  0  0  0  0  0  0  0
   -1.7259    0.0092    0.2840 C   0  0  2  0  0  0  0  0  0  0  0  0
   -2.3886    1.1689   -0.4792 C   0  0  0  0  0  0  0  0  0  0  0  0
   -5.1161   -2.5537   -0.3708 C   0  0  0  0  0  0  0  0  0  0  0  0
   -2.8907   -1.5906   -1.0891 C   0  0  0  0  0  0  0  0  0  0  0  0
   -3.8868   -0.8004    0.9743 C   0  0  0  0  0  0  0  0  0  0  0  0
   -3.7972   -2.8231   -1.1035 C   0  0  0  0  0  0  0  0  0  0  0  0
   -4.8271   -2.0061    1.0309 C   0  0  0  0  0  0  0  0  0  0  0  0
   -0.9728    5.1800    0.1507 C   0  0  0  0  0  0  0  0  0  0  0  0
   -0.3840   -0.3973   -0.3339 C   0  0  0  0  0  0  0  0  0  0  0  0
   -1.2848    2.7907    0.9183 C   0  0  0  0  0  0  0  0  0  0  0  0
   -2.2060    3.4524   -1.2236 C   0  0  0  0  0  0  0  0  0  0  0  0
   -0.3743    4.0200    0.9534 C   0  0  0  0  0  0  0  0  0  0  0  0
   -1.3265    4.7039   -1.2622 C   0  0  0  0  0  0  0  0  0  0  0  0
   -5.9725   -3.8149   -0.3015 C   0  0  0  0  0  0  0  0  0  0  0  0
   -0.0153    6.3676    0.1059 C   0  0  0  0  0  0  0  0  0  0  0  0
    2.1371   -1.3929    0.3035 C   0  0  0  0  0  0  0  0  0  0  0  0
    2.8245   -0.5770    1.1857 C   0  0  0  0  0  0  0  0  0  0  0  0
    2.7674   -1.9798   -0.7804 C   0  0  0  0  0  0  0  0  0  0  0  0
    4.1834   -0.3406    0.9777 C   0  0  0  0  0  0  0  0  0  0  0  0
    4.1263   -1.7436   -0.9884 C   0  0  0  0  0  0  0  0  0  0  0  0
    4.8342   -0.9239   -0.1092 C   0  0  0  0  0  0  0  0  0  0  0  0
   -1.5710    0.2642    1.3362 H   0  0  0  0  0  0  0  0  0  0  0  0
   -3.3635    1.4477   -0.0734 H   0  0  0  0  0  0  0  0  0  0  0  0
   -2.5250    0.9155   -1.5347 H   0  0  0  0  0  0  0  0  0  0  0  0
   -5.6764   -1.7939   -0.9320 H   0  0  0  0  0  0  0  0  0  0  0  0
   -1.9804   -1.8940   -1.6112 H   0  0  0  0  0  0  0  0  0  0  0  0
   -3.3940   -0.8389   -1.7054 H   0  0  0  0  0  0  0  0  0  0  0  0
   -4.4593   -0.0059    0.4882 H   0  0  0  0  0  0  0  0  0  0  0  0
   -3.6776   -0.4807    2.0023 H   0  0  0  0  0  0  0  0  0  0  0  0
   -3.2722   -3.6656   -0.6339 H   0  0  0  0  0  0  0  0  0  0  0  0
   -4.0004   -3.1155   -2.1409 H   0  0  0  0  0  0  0  0  0  0  0  0
   -5.7648   -1.7155    1.5197 H   0  0  0  0  0  0  0  0  0  0  0  0
   -4.3751   -2.7894    1.6539 H   0  0  0  0  0  0  0  0  0  0  0  0
   -1.8958    5.5065    0.6482 H   0  0  0  0  0  0  0  0  0  0  0  0
    0.2936    0.4619   -0.2549 H   0  0  0  0  0  0  0  0  0  0  0  0
   -0.4095   -0.6555   -1.3951 H   0  0  0  0  0  0  0  0  0  0  0  0
   -0.7369    2.0300    1.4797 H   0  0  0  0  0  0  0  0  0  0  0  0
   -2.2153    3.0017    1.4613 H   0  0  0  0  0  0  0  0  0  0  0  0
   -3.1840    3.7060   -0.7936 H   0  0  0  0  0  0  0  0  0  0  0  0
   -2.3791    3.1285   -2.2572 H   0  0  0  0  0  0  0  0  0  0  0  0
   -0.2186    4.3283    1.9943 H   0  0  0  0  0  0  0  0  0  0  0  0
    0.6120    3.7542    0.5500 H   0  0  0  0  0  0  0  0  0  0  0  0
   -0.4096    4.4864   -1.8257 H   0  0  0  0  0  0  0  0  0  0  0  0
   -1.8509    5.4998   -1.8045 H   0  0  0  0  0  0  0  0  0  0  0  0
   -5.4639   -4.6133    0.2495 H   0  0  0  0  0  0  0  0  0  0  0  0
   -6.1966   -4.1872   -1.3066 H   0  0  0  0  0  0  0  0  0  0  0  0
   -6.9239   -3.6103    0.2007 H   0  0  0  0  0  0  0  0  0  0  0  0
   -0.4584    7.2023   -0.4474 H   0  0  0  0  0  0  0  0  0  0  0  0
    0.2140    6.7192    1.1173 H   0  0  0  0  0  0  0  0  0  0  0  0
    0.9286    6.1014   -0.3819 H   0  0  0  0  0  0  0  0  0  0  0  0
    2.3328   -0.1082    2.0325 H   0  0  0  0  0  0  0  0  0  0  0  0
    2.2316   -2.6139   -1.4800 H   0  0  0  0  0  0  0  0  0  0  0  0
    4.7024    0.3046    1.6820 H   0  0  0  0  0  0  0  0  0  0  0  0
    4.6001   -2.2132   -1.8466 H   0  0  0  0  0  0  0  0  0  0  0  0
  1  2  2  0  0  0  0
  1  3  2  0  0  0  0
  1 17  1  0  0  0  0
  1 24  1  0  0  0  0
  4  8  1  0  0  0  0
  5  8  2  0  0  0  0
  6  9  1  0  0  0  0
  6 12  1  0  0  0  0
  6 13  1  0  0  0  0
  7 10  1  0  0  0  0
  7 18  1  0  0  0  0
  7 19  1  0  0  0  0
  8 29  1  0  0  0  0
  9 10  1  0  0  0  0
  9 17  1  0  0  0  0
  9 30  1  0  0  0  0
 10 31  1  0  0  0  0
 10 32  1  0  0  0  0
 11 14  1  0  0  0  0
 11 15  1  0  0  0  0
 11 22  1  0  0  0  0
 11 33  1  0  0  0  0
 12 14  1  0  0  0  0
 12 34  1  0  0  0  0
 12 35  1  0  0  0  0
 13 15  1  0  0  0  0
 13 36  1  0  0  0  0
 13 37  1  0  0  0  0
 14 38  1  0  0  0  0
 14 39  1  0  0  0  0
 15 40  1  0  0  0  0
 15 41  1  0  0  0  0
 16 20  1  0  0  0  0
 16 21  1  0  0  0  0
 16 23  1  0  0  0  0
 16 42  1  0  0  0  0
 17 43  1  0  0  0  0
 17 44  1  0  0  0  0
 18 20  1  0  0  0  0
 18 45  1  0  0  0  0
 18 46  1  0  0  0  0
 19 21  1  0  0  0  0
 19 47  1  0  0  0  0
 19 48  1  0  0  0  0
 20 49  1  0  0  0  0
 20 50  1  0  0  0  0
 21 51  1  0  0  0  0
 21 52  1  0  0  0  0
 22 53  1  0  0  0  0
 22 54  1  0  0  0  0
 22 55  1  0  0  0  0
 23 56  1  0  0  0  0
 23 57  1  0  0  0  0
 23 58  1  0  0  0  0
 24 25  2  0  0  0  0
 24 26  1  0  0  0  0
 25 27  1  0  0  0  0
 25 59  1  0  0  0  0
 26 28  2  0  0  0  0
 26 60  1  0  0  0  0
 27 29  2  0  0  0  0
 27 61  1  0  0  0  0
 28 29  1  0  0  0  0
 28 62  1  0  0  0  0
M  CHG  2   4  -1   8   1
M  END
> <PUBCHEM_COMPOUND_CID>
2962914

> <PUBCHEM_CONFORMER_RMSD>
1

> <PUBCHEM_CONFORMER_DIVERSEORDER>
7
55
46
50
29
34
53
11
23
56
30
26
48
25
35
19
49
3
33
4
57
64
45
8
28
44
37
5
60
22
21
16
58
41
66
20
54
24
27
32
38
47
2
43
14
18
52
12
62
65
61
63
9
10
1
39
59
42
36
51
40
6
17
15
31
13

> <PUBCHEM_MMFF94_PARTIAL_CHARGES>
25
1 1.2
10 0.27
12 0.27
13 0.27
17 0.11
18 0.27
19 0.27
2 -0.65
24 -0.01
25 -0.15
26 -0.15
27 -0.15
28 -0.15
29 0.13
3 -0.65
4 -0.52
5 -0.52
59 0.15
6 -0.81
60 0.15
61 0.15
62 0.15
7 -0.81
8 0.91
9 0.27

> <PUBCHEM_EFFECTIVE_ROTOR_COUNT>
9.4

> <PUBCHEM_PHARMACOPHORE_FEATURES>
10
1 2 acceptor
1 3 acceptor
1 4 acceptor
1 4 anion
1 5 acceptor
1 6 cation
1 7 cation
6 24 25 26 27 28 29 rings
6 6 11 12 13 14 15 rings
6 7 16 18 19 20 21 rings

> <PUBCHEM_HEAVY_ATOM_COUNT>
29

> <PUBCHEM_ATOM_DEF_STEREO_COUNT>
0

> <PUBCHEM_ATOM_UDEF_STEREO_COUNT>
1

> <PUBCHEM_BOND_DEF_STEREO_COUNT>
0

> <PUBCHEM_BOND_UDEF_STEREO_COUNT>
0

> <PUBCHEM_ISOTOPIC_ATOM_COUNT>
0

> <PUBCHEM_COMPONENT_COUNT>
1

> <PUBCHEM_CACTVS_TAUTO_COUNT>
1

> <PUBCHEM_CONFORMER_ID>
002D35E200000007

> <PUBCHEM_MMFF94_ENERGY>
53.8175

> <PUBCHEM_FEATURE_SELFOVERLAP>
50.846

> <PUBCHEM_SHAPE_FINGERPRINT>
102385 1 17976538308586964723
10411042 1 18338796822772266903
10670039 82 18336551538998749022
10937287 8 17545036005173595396
11014199 57 18410296887380236596
11045515 52 18410008862377120873
11101153 10 18261965145336690644
11477941 20 18341893013536102548
11763715 3 18337126608500865599
12107183 9 17395282530820166298
12788726 201 18261105232258584627
13690498 29 18200604601041200398
14068700 675 18260267477459753012
14251764 75 17332810448883189968
14347332 77 18411134693707736586
14394314 77 18410860958478273859
14713325 29 18270123387848088922
14955137 171 18266182914679801131
15198563 99 18411978036184408197
15439362 3 17833263495956213949
15961568 22 18267294525515111416
16087824 20 18265894667394220157
1813 80 18340770450666036343
20101258 96 18410575097991358961
20238998 120 18411698807828994333
20600515 1 18130241376080821997
21033650 10 18046372776655901798
21304253 13 18411986884317768409
21304303 172 18273219686608468825
2132832 1 18041287637891936620
21344244 246 17905886238548975087
21641784 216 18339661000531222124
21796203 349 17902831692220566083
21927370 108 18337127742593908011
24893989 43 16181203122843441885
249057 25 17749396936888542814
249999 5 17761213619863701891
283562 15 18261392213246374411
3380486 145 18337969891707804977
4017518 198 17113817955956207580
46194498 28 18131355224504299310
469060 322 18338811047418784187
497634 4 17632026273055577810
5171179 24 18265323092608073461
550186 7 18200313204541699966
6673363 416 18265635311351014788
6700243 42 17914365453294649068
7399639 24 18129930257012994282
7808743 9 18192713333000062008
9981440 41 17400912004362873537

> <PUBCHEM_SHAPE_MULTIPOLES>
562.24
12.37
7.59
1.29
14.9
17.6
0.09
-16.57
-1.72
-6.57
-1.09
0.01
-0.02
0.7

> <PUBCHEM_SHAPE_SELFOVERLAP>
1149.699

> <PUBCHEM_SHAPE_VOLUME>
326.6

> <PUBCHEM_COORDINATE_TYPE>
2
5
10

$$$$
