1452801
  -OEChem-01171810043D

 38 39  0     0  0  0  0  0  0999 V2000
   -3.9244   -1.7310    0.0265 O   0  0  0  0  0  0  0  0  0  0  0  0
    4.8205   -1.1889   -0.0128 O   0  0  0  0  0  0  0  0  0  0  0  0
    3.1270    1.8866    0.0090 O   0  0  0  0  0  0  0  0  0  0  0  0
   -3.1455    0.4712   -0.0034 N   0  0  0  0  0  0  0  0  0  0  0  0
    0.1337   -1.1969    0.0371 N   0  0  0  0  0  0  0  0  0  0  0  0
    2.3215   -0.2988    0.0364 N   0  0  0  0  0  0  0  0  0  0  0  0
   -5.5652    0.0513   -0.0093 C   0  0  0  0  0  0  0  0  0  0  0  0
   -6.5885   -1.0951   -0.0208 C   0  0  0  0  0  0  0  0  0  0  0  0
   -5.7926    0.9538    1.2135 C   0  0  0  0  0  0  0  0  0  0  0  0
   -5.7678    0.8962   -1.2813 C   0  0  0  0  0  0  0  0  0  0  0  0
   -4.1247   -0.5178    0.0064 C   0  0  0  0  0  0  0  0  0  0  0  0
   -1.7398    0.2991    0.0063 C   0  0  0  0  0  0  0  0  0  0  0  0
   -0.9068    1.3974   -0.0051 C   0  0  0  0  0  0  0  0  0  0  0  0
   -1.1979   -0.9630    0.0270 C   0  0  0  0  0  0  0  0  0  0  0  0
    0.4693    1.1972    0.0048 C   0  0  0  0  0  0  0  0  0  0  0  0
    0.9347   -0.1077    0.0257 C   0  0  0  0  0  0  0  0  0  0  0  0
    3.3361    0.6754    0.0280 C   0  0  0  0  0  0  0  0  0  0  0  0
    4.7090    0.1426    0.0007 C   0  0  0  0  0  0  0  0  0  0  0  0
    5.8854    0.7903   -0.0133 C   0  0  0  0  0  0  0  0  0  0  0  0
    6.8571   -0.2384   -0.0383 C   0  0  0  0  0  0  0  0  0  0  0  0
    6.1588   -1.4233   -0.0372 C   0  0  0  0  0  0  0  0  0  0  0  0
   -6.4524   -1.7421   -0.8950 H   0  0  0  0  0  0  0  0  0  0  0  0
   -7.6154   -0.7133   -0.0435 H   0  0  0  0  0  0  0  0  0  0  0  0
   -6.4865   -1.7228    0.8719 H   0  0  0  0  0  0  0  0  0  0  0  0
   -5.1599    1.8474    1.2008 H   0  0  0  0  0  0  0  0  0  0  0  0
   -5.5720    0.4123    2.1406 H   0  0  0  0  0  0  0  0  0  0  0  0
   -6.8334    1.2933    1.2638 H   0  0  0  0  0  0  0  0  0  0  0  0
   -5.1378    1.7918   -1.2942 H   0  0  0  0  0  0  0  0  0  0  0  0
   -6.8076    1.2309   -1.3709 H   0  0  0  0  0  0  0  0  0  0  0  0
   -5.5237    0.3152   -2.1783 H   0  0  0  0  0  0  0  0  0  0  0  0
   -3.4472    1.4415   -0.0193 H   0  0  0  0  0  0  0  0  0  0  0  0
   -1.3042    2.4082   -0.0214 H   0  0  0  0  0  0  0  0  0  0  0  0
   -1.7586   -1.8848    0.0369 H   0  0  0  0  0  0  0  0  0  0  0  0
    1.0585    2.0983   -0.0049 H   0  0  0  0  0  0  0  0  0  0  0  0
    2.6093   -1.2746    0.0462 H   0  0  0  0  0  0  0  0  0  0  0  0
    6.0587    1.8568   -0.0068 H   0  0  0  0  0  0  0  0  0  0  0  0
    7.9319   -0.1299   -0.0552 H   0  0  0  0  0  0  0  0  0  0  0  0
    6.4509   -2.4633   -0.0512 H   0  0  0  0  0  0  0  0  0  0  0  0
  1 11  2  0  0  0  0
  2 18  1  0  0  0  0
  2 21  1  0  0  0  0
  3 17  2  0  0  0  0
  4 11  1  0  0  0  0
  4 12  1  0  0  0  0
  4 31  1  0  0  0  0
  5 14  1  0  0  0  0
  5 16  2  0  0  0  0
  6 16  1  0  0  0  0
  6 17  1  0  0  0  0
  6 35  1  0  0  0  0
  7  8  1  0  0  0  0
  7  9  1  0  0  0  0
  7 10  1  0  0  0  0
  7 11  1  0  0  0  0
  8 22  1  0  0  0  0
  8 23  1  0  0  0  0
  8 24  1  0  0  0  0
  9 25  1  0  0  0  0
  9 26  1  0  0  0  0
  9 27  1  0  0  0  0
 10 28  1  0  0  0  0
 10 29  1  0  0  0  0
 10 30  1  0  0  0  0
 12 13  1  0  0  0  0
 12 14  2  0  0  0  0
 13 15  2  0  0  0  0
 13 32  1  0  0  0  0
 14 33  1  0  0  0  0
 15 16  1  0  0  0  0
 15 34  1  0  0  0  0
 17 18  1  0  0  0  0
 18 19  2  0  0  0  0
 19 20  1  0  0  0  0
 19 36  1  0  0  0  0
 20 21  2  0  0  0  0
 20 37  1  0  0  0  0
 21 38  1  0  0  0  0
M  END
> <PUBCHEM_COMPOUND_CID>
1452801

> <PUBCHEM_CONFORMER_RMSD>
0.8

> <PUBCHEM_CONFORMER_DIVERSEORDER>
1
6
4
7
2
5
3
8

> <PUBCHEM_MMFF94_PARTIAL_CHARGES>
26
1 -0.57
11 0.57
12 0.12
13 -0.15
14 0.16
15 -0.15
16 0.43
17 0.71
18 0.05
19 -0.15
2 -0.28
20 -0.15
21 -0.01
3 -0.57
31 0.37
32 0.15
33 0.15
34 0.15
35 0.37
36 0.15
37 0.15
38 0.15
4 -0.55
5 -0.62
6 -0.55
7 0.06

> <PUBCHEM_EFFECTIVE_ROTOR_COUNT>
6

> <PUBCHEM_PHARMACOPHORE_FEATURES>
8
1 1 acceptor
1 2 acceptor
1 3 acceptor
1 4 donor
1 6 donor
4 7 8 9 10 hydrophobe
5 2 18 19 20 21 rings
6 5 12 13 14 15 16 rings

> <PUBCHEM_HEAVY_ATOM_COUNT>
21

> <PUBCHEM_ATOM_DEF_STEREO_COUNT>
0

> <PUBCHEM_ATOM_UDEF_STEREO_COUNT>
0

> <PUBCHEM_BOND_DEF_STEREO_COUNT>
0

> <PUBCHEM_BOND_UDEF_STEREO_COUNT>
0

> <PUBCHEM_ISOTOPIC_ATOM_COUNT>
0

> <PUBCHEM_COMPONENT_COUNT>
1

> <PUBCHEM_CACTVS_TAUTO_COUNT>
6

> <PUBCHEM_CONFORMER_ID>
00162B0100000001

> <PUBCHEM_MMFF94_ENERGY>
58.8909

> <PUBCHEM_FEATURE_SELFOVERLAP>
40.596

> <PUBCHEM_SHAPE_FINGERPRINT>
10968037 39 18408323289555908599
11089746 13 17131828772551693457
11315181 36 18201439195012159185
11524674 6 16773795913638093327
12091667 2 17458345234905048613
12166972 35 18260832613420490324
12236239 1 18202284701456398097
12403259 415 18261944206896583052
12516196 113 18272930535634007320
13167372 99 18202289069496615456
13288520 33 18410292528203877327
13533116 47 13686030761140737732
13685833 64 18409168814045082680
13862211 1 18411700984575202791
1420 363 17603590724517140713
14251752 14 18040991813118174957
14251764 18 18343867735696634737
14251764 46 16153426155783478523
14933364 13 18261111876330138189
15183329 4 18408882919098664123
17834076 25 15646771188861213913
18006028 8 18060416915132184488
19489759 90 16950281798030386949
20281389 69 18333448759523090013
21130935 74 18202002122900510874
21150785 3 15791737416517848718
21236236 1 18342176614252956113
21267235 1 18410298016322813963
22224240 67 16271921623246634822
23035841 295 18335420162196240099
23081809 10 17989207074713700565
23402539 116 18130784577130668093
23522609 53 18194431998065060292
23536379 177 18272090495685863682
23559900 14 18339636845197396968
29717793 49 18060143133227572844
3004659 81 18259703402794793524
3014965 18 18260823748903026418
335352 9 18410575106180133319
3545911 37 18408322185353759051
4073 2 18041564766652017130
4463277 17 18409729564648337168
465052 167 18343023298514688342
5104073 3 18339924934307322649
59755656 215 18186800245054102518
59755656 520 17530961406351315347

> <PUBCHEM_SHAPE_MULTIPOLES>
399.62
19.32
1.51
0.75
4.08
0.03
0.02
2.7
0.28
0.07
-0.01
-0.94
-0.15
0.02

> <PUBCHEM_SHAPE_SELFOVERLAP>
849.151

> <PUBCHEM_SHAPE_VOLUME>
222.8

> <PUBCHEM_COORDINATE_TYPE>
2
5
10

$$$$
