907197
  -OEChem-01171809433D

 42 45  0     0  0  0  0  0  0999 V2000
    3.6506    1.5493   -0.3017 O   0  0  0  0  0  0  0  0  0  0  0  0
   -1.1211    2.1679   -0.0037 O   0  0  0  0  0  0  0  0  0  0  0  0
   -3.3667    2.4513    0.1618 O   0  0  0  0  0  0  0  0  0  0  0  0
   -6.7879   -1.3148   -1.5126 O   0  0  0  0  0  0  0  0  0  0  0  0
   -6.6586   -0.9827    0.7307 O   0  0  0  0  0  0  0  0  0  0  0  0
    3.6401   -0.6887    0.0168 C   0  0  0  0  0  0  0  0  0  0  0  0
    4.2430   -2.0385    0.1748 C   0  0  0  0  0  0  0  0  0  0  0  0
    5.7022   -2.0499   -0.3320 C   0  0  0  0  0  0  0  0  0  0  0  0
    4.4084    0.4334   -0.1971 C   0  0  0  0  0  0  0  0  0  0  0  0
    6.5010   -0.8145    0.1374 C   0  0  0  0  0  0  0  0  0  0  0  0
    5.8769    0.5108   -0.3460 C   0  0  0  0  0  0  0  0  0  0  0  0
    2.2963   -0.2373    0.0576 C   0  0  0  0  0  0  0  0  0  0  0  0
    2.3566    1.1403   -0.1429 C   0  0  0  0  0  0  0  0  0  0  0  0
    1.0328   -0.8364    0.2439 C   0  0  0  0  0  0  0  0  0  0  0  0
   -0.1362   -0.0475    0.2195 C   0  0  0  0  0  0  0  0  0  0  0  0
    0.0063    1.3251    0.0180 C   0  0  0  0  0  0  0  0  0  0  0  0
    1.2389    1.9655   -0.1710 C   0  0  0  0  0  0  0  0  0  0  0  0
   -1.4946   -0.6043    0.4072 C   0  0  0  0  0  0  0  0  0  0  0  0
   -2.5600    0.2249    0.4194 C   0  0  0  0  0  0  0  0  0  0  0  0
   -3.9837   -0.2052    0.6664 C   0  0  0  0  0  0  0  0  0  0  0  0
   -2.4050    1.6894    0.1899 C   0  0  0  0  0  0  0  0  0  0  0  0
   -1.6042   -2.1017    0.5608 C   0  0  0  0  0  0  0  0  0  0  0  0
   -4.6982   -0.5745   -0.6205 C   0  0  0  0  0  0  0  0  0  0  0  0
   -6.1368   -0.9624   -0.3768 C   0  0  0  0  0  0  0  0  0  0  0  0
    4.2264   -2.3114    1.2368 H   0  0  0  0  0  0  0  0  0  0  0  0
    3.6594   -2.7895   -0.3687 H   0  0  0  0  0  0  0  0  0  0  0  0
    6.1979   -2.9656    0.0095 H   0  0  0  0  0  0  0  0  0  0  0  0
    5.7049   -2.0748   -1.4296 H   0  0  0  0  0  0  0  0  0  0  0  0
    7.5357   -0.8809   -0.2176 H   0  0  0  0  0  0  0  0  0  0  0  0
    6.5394   -0.8182    1.2346 H   0  0  0  0  0  0  0  0  0  0  0  0
    6.1233    0.6687   -1.4021 H   0  0  0  0  0  0  0  0  0  0  0  0
    6.2885    1.3497    0.2244 H   0  0  0  0  0  0  0  0  0  0  0  0
    0.9928   -1.9094    0.4051 H   0  0  0  0  0  0  0  0  0  0  0  0
    1.3186    3.0348   -0.3264 H   0  0  0  0  0  0  0  0  0  0  0  0
   -4.5356    0.5856    1.1917 H   0  0  0  0  0  0  0  0  0  0  0  0
   -4.0150   -1.0457    1.3708 H   0  0  0  0  0  0  0  0  0  0  0  0
   -1.1154   -2.4304    1.4844 H   0  0  0  0  0  0  0  0  0  0  0  0
   -1.1392   -2.6125   -0.2900 H   0  0  0  0  0  0  0  0  0  0  0  0
   -2.6339   -2.4646    0.5981 H   0  0  0  0  0  0  0  0  0  0  0  0
   -4.6970    0.2746   -1.3137 H   0  0  0  0  0  0  0  0  0  0  0  0
   -4.2000   -1.4219   -1.1048 H   0  0  0  0  0  0  0  0  0  0  0  0
   -7.7168   -1.5759   -1.3363 H   0  0  0  0  0  0  0  0  0  0  0  0
  1  9  1  0  0  0  0
  1 13  1  0  0  0  0
  2 16  1  0  0  0  0
  2 21  1  0  0  0  0
  3 21  2  0  0  0  0
  4 24  1  0  0  0  0
  4 42  1  0  0  0  0
  5 24  2  0  0  0  0
  6  7  1  0  0  0  0
  6  9  2  0  0  0  0
  6 12  1  0  0  0  0
  7  8  1  0  0  0  0
  7 25  1  0  0  0  0
  7 26  1  0  0  0  0
  8 10  1  0  0  0  0
  8 27  1  0  0  0  0
  8 28  1  0  0  0  0
  9 11  1  0  0  0  0
 10 11  1  0  0  0  0
 10 29  1  0  0  0  0
 10 30  1  0  0  0  0
 11 31  1  0  0  0  0
 11 32  1  0  0  0  0
 12 13  2  0  0  0  0
 12 14  1  0  0  0  0
 13 17  1  0  0  0  0
 14 15  2  0  0  0  0
 14 33  1  0  0  0  0
 15 16  1  0  0  0  0
 15 18  1  0  0  0  0
 16 17  2  0  0  0  0
 17 34  1  0  0  0  0
 18 19  2  0  0  0  0
 18 22  1  0  0  0  0
 19 20  1  0  0  0  0
 19 21  1  0  0  0  0
 20 23  1  0  0  0  0
 20 35  1  0  0  0  0
 20 36  1  0  0  0  0
 22 37  1  0  0  0  0
 22 38  1  0  0  0  0
 22 39  1  0  0  0  0
 23 24  1  0  0  0  0
 23 40  1  0  0  0  0
 23 41  1  0  0  0  0
M  END
> <PUBCHEM_COMPOUND_CID>
907197

> <PUBCHEM_CONFORMER_RMSD>
0.6

> <PUBCHEM_CONFORMER_DIVERSEORDER>
2
7
6
3
5
1
4
8

> <PUBCHEM_MMFF94_PARTIAL_CHARGES>
24
1 -0.28
11 0.18
13 0.14
14 -0.15
15 0.03
16 0.08
17 -0.15
18 -0.17
19 -0.12
2 -0.23
20 0.14
21 0.71
22 0.14
23 0.06
24 0.66
3 -0.57
33 0.15
34 0.15
4 -0.65
42 0.5
5 -0.57
6 -0.18
7 0.18
9 -0.04

> <PUBCHEM_EFFECTIVE_ROTOR_COUNT>
3.8

> <PUBCHEM_PHARMACOPHORE_FEATURES>
9
1 1 acceptor
1 3 acceptor
1 4 acceptor
1 5 acceptor
3 4 5 24 anion
5 1 6 9 12 13 rings
6 12 13 14 15 16 17 rings
6 2 15 16 18 19 21 rings
6 6 7 8 9 10 11 rings

> <PUBCHEM_HEAVY_ATOM_COUNT>
24

> <PUBCHEM_ATOM_DEF_STEREO_COUNT>
0

> <PUBCHEM_ATOM_UDEF_STEREO_COUNT>
0

> <PUBCHEM_BOND_DEF_STEREO_COUNT>
0

> <PUBCHEM_BOND_UDEF_STEREO_COUNT>
0

> <PUBCHEM_ISOTOPIC_ATOM_COUNT>
0

> <PUBCHEM_COMPONENT_COUNT>
1

> <PUBCHEM_CACTVS_TAUTO_COUNT>
1

> <PUBCHEM_CONFORMER_ID>
000DD7BD00000002

> <PUBCHEM_MMFF94_ENERGY>
51.1053

> <PUBCHEM_FEATURE_SELFOVERLAP>
45.952

> <PUBCHEM_SHAPE_FINGERPRINT>
10595046 47 18410858733484351424
106641 1 16773790433623436362
10693767 8 18270102618025198879
11524674 6 15841549687181843127
11963148 33 18412819213824806735
12011746 2 18186518817363794903
12107183 9 17616252481959435338
12166972 35 18410295825906031872
12236239 1 18060139855824601891
12403260 363 18412830178885972529
12516196 113 18202001023678468408
12616971 3 13901896821805773992
12670543 26 18187357723645989213
12760667 363 18412829088475560163
13073987 5 18341049627761066040
13288520 33 18342176661739643649
13533116 47 18342175604724229208
13685833 64 18408608062682595242
13862211 1 18411419509598654578
14251764 18 18342460348450334640
14347332 77 18340203003533261333
14508225 48 18260263062582363749
14931854 50 18041282067467455042
15048467 5 11025793198089653271
15183329 4 18334288769490585799
15196674 1 18337393742956106488
16087824 20 18266177229135339189
17492 89 18124314905233299526
17857418 61 18342457049414609639
200 152 18272650138509354569
20028762 73 18273493463976040094
2026 5 17629779885771793662
21130935 74 18129379307509700674
21150785 3 16877667876493570918
21236236 1 18411421670637299481
21267235 1 18409738352283267674
21279426 13 18263078821106842413
21637258 2 17131824396449341903
221357 26 18408319986383309580
22956985 138 17057546742158900606
23402539 116 18413669098000106597
23522609 53 18054823712367304745
23559900 14 18264486359215321433
25147074 1 18339941358473998897
2871803 45 18113898260266010872
29717793 49 18408044009180827492
3004659 81 18113616794274782602
335352 9 18409168835741556367
3383291 50 18408040714736170994
34797466 226 17561370608584219988
350125 39 18410858741889806249
3545911 37 18335140920882000602
397830 11 14404322014799231087
4214541 1 18336831896883120312
46194498 28 17385723642567341684
465052 167 18271812349293210655
5104073 3 18339362968350084432
5718773 13 18337950074623985146
59755656 215 18187363220577036587
7495541 125 17489583489109223832
9709674 26 18338808818805900070
9996256 80 18342178842928889435

> <PUBCHEM_SHAPE_MULTIPOLES>
464.56
16.04
2.27
0.78
6.29
0.45
0.09
-8.07
2.78
-0.13
0.01
0.77
-0.18
-0.54

> <PUBCHEM_SHAPE_SELFOVERLAP>
1025.122

> <PUBCHEM_SHAPE_VOLUME>
250.4

> <PUBCHEM_COORDINATE_TYPE>
2
5
10

$$$$
