44142136
  -OEChem-01171810103D

 32 35  0     0  0  0  0  0  0999 V2000
   -3.9169    1.3622    1.6593 Br  0  0  0  0  0  0  0  0  0  0  0  0
    3.5379    1.7127    1.2739 S   0  0  0  0  0  0  0  0  0  0  0  0
   -0.0393   -1.0916   -1.5602 S   0  0  0  0  0  0  0  0  0  0  0  0
    4.1396   -0.6692    0.2426 N   0  0  0  0  0  0  0  0  0  0  0  0
    2.4598   -1.8699   -1.0282 N   0  0  0  0  0  0  0  0  0  0  0  0
   -2.2250   -2.2899   -0.3177 N   0  0  0  0  0  0  0  0  0  0  0  0
   -0.4619   -2.2518    0.9443 N   0  0  0  0  0  0  0  0  0  0  0  0
   -2.5992   -2.8757    0.8283 N   0  0  0  0  0  0  0  0  0  0  0  0
   -1.5166   -2.8499    1.5963 N   0  0  0  0  0  0  0  0  0  0  0  0
    1.1987    1.4471    0.2475 C   0  0  0  0  0  0  0  0  0  0  0  0
    1.9127    0.2601   -0.1095 C   0  0  0  0  0  0  0  0  0  0  0  0
   -0.1573    1.8252   -0.0650 C   0  0  0  0  0  0  0  0  0  0  0  0
    3.2059    0.2900    0.3961 C   0  0  0  0  0  0  0  0  0  0  0  0
    1.5627   -0.8779   -0.8435 C   0  0  0  0  0  0  0  0  0  0  0  0
    1.9618    2.3168    0.9961 C   0  0  0  0  0  0  0  0  0  0  0  0
   -1.1965    1.4727    0.7962 C   0  0  0  0  0  0  0  0  0  0  0  0
   -0.4294    2.5438   -1.2292 C   0  0  0  0  0  0  0  0  0  0  0  0
   -2.5079    1.8390    0.4933 C   0  0  0  0  0  0  0  0  0  0  0  0
   -1.7409    2.9099   -1.5322 C   0  0  0  0  0  0  0  0  0  0  0  0
   -0.9222   -1.9131   -0.2379 C   0  0  0  0  0  0  0  0  0  0  0  0
    3.6797   -1.7062   -0.4797 C   0  0  0  0  0  0  0  0  0  0  0  0
   -2.7802    2.5577   -0.6709 C   0  0  0  0  0  0  0  0  0  0  0  0
   -3.1653   -2.1422   -1.3998 C   0  0  0  0  0  0  0  0  0  0  0  0
    1.6806    3.2807    1.3993 H   0  0  0  0  0  0  0  0  0  0  0  0
   -0.9845    0.9121    1.7047 H   0  0  0  0  0  0  0  0  0  0  0  0
    0.3688    2.8257   -1.9119 H   0  0  0  0  0  0  0  0  0  0  0  0
   -1.9529    3.4688   -2.4390 H   0  0  0  0  0  0  0  0  0  0  0  0
    4.3814   -2.5168   -0.6424 H   0  0  0  0  0  0  0  0  0  0  0  0
   -3.7964    2.8503   -0.9220 H   0  0  0  0  0  0  0  0  0  0  0  0
   -2.7817   -2.6813   -2.2693 H   0  0  0  0  0  0  0  0  0  0  0  0
   -4.1316   -2.5591   -1.1038 H   0  0  0  0  0  0  0  0  0  0  0  0
   -3.2761   -1.0777   -1.6204 H   0  0  0  0  0  0  0  0  0  0  0  0
  1 18  1  0  0  0  0
  2 13  1  0  0  0  0
  2 15  1  0  0  0  0
  3 14  1  0  0  0  0
  3 20  1  0  0  0  0
  4 13  1  0  0  0  0
  4 21  2  0  0  0  0
  5 14  2  0  0  0  0
  5 21  1  0  0  0  0
  6  8  1  0  0  0  0
  6 20  1  0  0  0  0
  6 23  1  0  0  0  0
  7  9  1  0  0  0  0
  7 20  2  0  0  0  0
  8  9  2  0  0  0  0
 10 11  1  0  0  0  0
 10 12  1  0  0  0  0
 10 15  2  0  0  0  0
 11 13  2  0  0  0  0
 11 14  1  0  0  0  0
 12 16  2  0  0  0  0
 12 17  1  0  0  0  0
 15 24  1  0  0  0  0
 16 18  1  0  0  0  0
 16 25  1  0  0  0  0
 17 19  2  0  0  0  0
 17 26  1  0  0  0  0
 18 22  2  0  0  0  0
 19 22  1  0  0  0  0
 19 27  1  0  0  0  0
 21 28  1  0  0  0  0
 22 29  1  0  0  0  0
 23 30  1  0  0  0  0
 23 31  1  0  0  0  0
 23 32  1  0  0  0  0
M  END
> <PUBCHEM_COMPOUND_CID>
44142136

> <PUBCHEM_CONFORMER_RMSD>
0.6

> <PUBCHEM_CONFORMER_DIVERSEORDER>
1
35
2
23
41
22
42
28
47
54
27
38
48
50
17
33
49
52
14
30
39
44
53
29
26
3
6
25
4
34
7
32
36
21
43
46
19
40
20
5
45
24
8
51
11
18
37
12
9
15
10
16
13
31

> <PUBCHEM_MMFF94_PARTIAL_CHARGES>
27
1 -0.11
10 -0.05
12 0.05
13 0.3
14 0.41
15 -0.11
16 -0.15
17 -0.15
18 0.11
19 -0.15
2 -0.08
20 0.24
21 0.47
22 -0.15
23 0.26
24 0.15
25 0.15
26 0.15
27 0.15
28 0.15
29 0.15
3 -0.16
4 -0.57
5 -0.62
6 0.31
7 -0.34
8 -0.42

> <PUBCHEM_EFFECTIVE_ROTOR_COUNT>
3

> <PUBCHEM_PHARMACOPHORE_FEATURES>
8
1 1 hydrophobe
1 5 acceptor
3 4 5 21 cation
3 6 7 20 cation
5 2 10 11 13 15 rings
5 6 7 8 9 20 rings
6 12 16 17 18 19 22 rings
6 4 5 11 13 14 21 rings

> <PUBCHEM_HEAVY_ATOM_COUNT>
23

> <PUBCHEM_ATOM_DEF_STEREO_COUNT>
0

> <PUBCHEM_ATOM_UDEF_STEREO_COUNT>
0

> <PUBCHEM_BOND_DEF_STEREO_COUNT>
0

> <PUBCHEM_BOND_UDEF_STEREO_COUNT>
0

> <PUBCHEM_ISOTOPIC_ATOM_COUNT>
0

> <PUBCHEM_COMPONENT_COUNT>
1

> <PUBCHEM_CACTVS_TAUTO_COUNT>
1

> <PUBCHEM_CONFORMER_ID>
02A18E3800000001

> <PUBCHEM_MMFF94_ENERGY>
49.7554

> <PUBCHEM_FEATURE_SELFOVERLAP>
40.677

> <PUBCHEM_SHAPE_FINGERPRINT>
10064457 181 18199486384477298673
104564 63 18125731333179548772
1100329 8 17760068632589842138
11680986 33 18201432567693082880
12035758 1 18270124496239607298
12422481 6 18126595447173521099
12553582 1 18046919452212918417
12633257 1 18342456993848898208
12730499 353 17759232999880213325
13140716 1 18272640239406322624
13149001 5 18199757934016216132
13965767 371 17342130278411105227
14223421 5 18341323513409297096
14790565 3 17329432155992827741
16945 1 17700400396030043548
17357779 13 18270107058292720063
19591789 44 18121220870331420435
20600515 1 17316174103118885830
20691752 17 18333450932886960819
21197605 99 18201166529150717515
21236236 1 18341609365427174392
22182313 1 18131062780197165996
23419403 2 17344882269904683490
23558518 356 18337940264258824044
238 59 17760342424017591333
2748010 2 18201991158386665076
3052486 1 18259982673999451343
3380486 77 17389908413618298354
3383291 50 17478333028922430006
350125 39 18126557058645468200
35225 105 16878523292366287747
3524813 1 18194131724194959857
4340502 62 18059022675181990257
5282274 181 18269573726713613049
5283268 108 18119543269206925787
6438718 38 18201721738855809231
81228 2 18335698398846704745
9981440 41 16695209492632289528

> <PUBCHEM_SHAPE_MULTIPOLES>
457.08
6.37
4.2
1.58
2.18
1.4
0
-0.38
-1.49
-2.65
0.03
-0.96
-0.08
1.09

> <PUBCHEM_SHAPE_SELFOVERLAP>
971.767

> <PUBCHEM_SHAPE_VOLUME>
261.6

> <PUBCHEM_COORDINATE_TYPE>
2
5
10

$$$$
