6211246
  -OEChem-01171810103D

 43 45  0     0  0  0  0  0  0999 V2000
   -4.5608    2.1476    0.8048 O   0  0  0  0  0  0  0  0  0  0  0  0
   -6.5692    1.1321   -0.0571 O   0  0  0  0  0  0  0  0  0  0  0  0
    5.4181    1.2134   -0.0330 O   0  0  0  0  0  0  0  0  0  0  0  0
    3.0466    2.5855   -0.4379 O   0  0  0  0  0  0  0  0  0  0  0  0
    5.3546   -1.4970    0.5329 O   0  0  0  0  0  0  0  0  0  0  0  0
   -1.8438   -3.0856   -0.0472 O   0  0  0  0  0  0  0  0  0  0  0  0
   -4.3496    0.8776    0.3634 C   0  0  0  0  0  0  0  0  0  0  0  0
   -5.4965    0.2979   -0.1286 C   0  0  0  0  0  0  0  0  0  0  0  0
   -3.1261   -1.1024   -0.1127 C   0  0  0  0  0  0  0  0  0  0  0  0
   -3.1464    0.2027    0.3851 C   0  0  0  0  0  0  0  0  0  0  0  0
    1.8011   -0.7745    0.2055 C   0  0  0  0  0  0  0  0  0  0  0  0
   -5.5034   -0.9891   -0.6260 C   0  0  0  0  0  0  0  0  0  0  0  0
   -4.2979   -1.6948   -0.6155 C   0  0  0  0  0  0  0  0  0  0  0  0
    4.2252    0.5578    0.0459 C   0  0  0  0  0  0  0  0  0  0  0  0
    3.0329    1.2521   -0.1589 C   0  0  0  0  0  0  0  0  0  0  0  0
    4.1971   -0.8073    0.3311 C   0  0  0  0  0  0  0  0  0  0  0  0
    1.8124    0.5814   -0.0784 C   0  0  0  0  0  0  0  0  0  0  0  0
    2.9768   -1.4781    0.4113 C   0  0  0  0  0  0  0  0  0  0  0  0
   -1.8821   -1.8562   -0.1109 C   0  0  0  0  0  0  0  0  0  0  0  0
   -5.9691    2.3023    0.5348 C   0  0  0  0  0  0  0  0  0  0  0  0
    0.5119   -1.4831    0.2907 C   0  0  0  0  0  0  0  0  0  0  0  0
   -0.6356   -1.0411   -0.2453 C   0  0  0  0  0  0  0  0  0  0  0  0
    5.9227    1.7854    1.1715 C   0  0  0  0  0  0  0  0  0  0  0  0
    3.1147    2.9592   -1.8125 C   0  0  0  0  0  0  0  0  0  0  0  0
    5.9663   -2.0858   -0.6131 C   0  0  0  0  0  0  0  0  0  0  0  0
   -2.2734    0.6904    0.8049 H   0  0  0  0  0  0  0  0  0  0  0  0
   -6.4090   -1.4420   -1.0133 H   0  0  0  0  0  0  0  0  0  0  0  0
   -4.2823   -2.7094   -1.0065 H   0  0  0  0  0  0  0  0  0  0  0  0
    0.9053    1.1608   -0.2207 H   0  0  0  0  0  0  0  0  0  0  0  0
    2.9637   -2.5424    0.6334 H   0  0  0  0  0  0  0  0  0  0  0  0
   -6.1045    3.1493   -0.1474 H   0  0  0  0  0  0  0  0  0  0  0  0
   -6.4847    2.5229    1.4765 H   0  0  0  0  0  0  0  0  0  0  0  0
    0.5325   -2.4330    0.8203 H   0  0  0  0  0  0  0  0  0  0  0  0
   -0.7122   -0.1115   -0.7970 H   0  0  0  0  0  0  0  0  0  0  0  0
    5.2302    2.5387    1.5601 H   0  0  0  0  0  0  0  0  0  0  0  0
    6.8762    2.2710    0.9465 H   0  0  0  0  0  0  0  0  0  0  0  0
    6.0946    1.0096    1.9242 H   0  0  0  0  0  0  0  0  0  0  0  0
    3.1259    4.0510   -1.8705 H   0  0  0  0  0  0  0  0  0  0  0  0
    4.0310    2.5750   -2.2716 H   0  0  0  0  0  0  0  0  0  0  0  0
    2.2387    2.5886   -2.3542 H   0  0  0  0  0  0  0  0  0  0  0  0
    6.8809   -2.5913   -0.2915 H   0  0  0  0  0  0  0  0  0  0  0  0
    6.2305   -1.3176   -1.3467 H   0  0  0  0  0  0  0  0  0  0  0  0
    5.2985   -2.8251   -1.0668 H   0  0  0  0  0  0  0  0  0  0  0  0
  1  7  1  0  0  0  0
  1 20  1  0  0  0  0
  2  8  1  0  0  0  0
  2 20  1  0  0  0  0
  3 14  1  0  0  0  0
  3 23  1  0  0  0  0
  4 15  1  0  0  0  0
  4 24  1  0  0  0  0
  5 16  1  0  0  0  0
  5 25  1  0  0  0  0
  6 19  2  0  0  0  0
  7  8  2  0  0  0  0
  7 10  1  0  0  0  0
  8 12  1  0  0  0  0
  9 10  2  0  0  0  0
  9 13  1  0  0  0  0
  9 19  1  0  0  0  0
 10 26  1  0  0  0  0
 11 17  2  0  0  0  0
 11 18  1  0  0  0  0
 11 21  1  0  0  0  0
 12 13  2  0  0  0  0
 12 27  1  0  0  0  0
 13 28  1  0  0  0  0
 14 15  2  0  0  0  0
 14 16  1  0  0  0  0
 15 17  1  0  0  0  0
 16 18  2  0  0  0  0
 17 29  1  0  0  0  0
 18 30  1  0  0  0  0
 19 22  1  0  0  0  0
 20 31  1  0  0  0  0
 20 32  1  0  0  0  0
 21 22  2  0  0  0  0
 21 33  1  0  0  0  0
 22 34  1  0  0  0  0
 23 35  1  0  0  0  0
 23 36  1  0  0  0  0
 23 37  1  0  0  0  0
 24 38  1  0  0  0  0
 24 39  1  0  0  0  0
 24 40  1  0  0  0  0
 25 41  1  0  0  0  0
 25 42  1  0  0  0  0
 25 43  1  0  0  0  0
M  END
> <PUBCHEM_COMPOUND_CID>
6211246

> <PUBCHEM_CONFORMER_RMSD>
0.8

> <PUBCHEM_CONFORMER_DIVERSEORDER>
1
32
9
5
31
18
3
27
23
19
6
13
34
22
33
36
25
12
7
15
30
21
14
2
16
20
38
11
4
8
28
26
35
29
17
37
10
24

> <PUBCHEM_MMFF94_PARTIAL_CHARGES>
32
1 -0.36
10 -0.15
11 0.03
12 -0.15
13 -0.15
14 0.08
15 0.08
16 0.08
17 -0.15
18 -0.15
19 0.47
2 -0.36
20 0.56
21 -0.18
22 -0.14
23 0.28
24 0.28
25 0.28
26 0.15
27 0.15
28 0.15
29 0.15
3 -0.36
30 0.15
33 0.15
34 0.15
4 -0.36
5 -0.36
6 -0.57
7 0.08
8 0.08
9 0.09

> <PUBCHEM_EFFECTIVE_ROTOR_COUNT>
6.6

> <PUBCHEM_PHARMACOPHORE_FEATURES>
9
1 1 acceptor
1 2 acceptor
1 3 acceptor
1 4 acceptor
1 5 acceptor
1 6 acceptor
5 1 2 7 8 20 rings
6 11 14 15 16 17 18 rings
6 7 8 9 10 12 13 rings

> <PUBCHEM_HEAVY_ATOM_COUNT>
25

> <PUBCHEM_ATOM_DEF_STEREO_COUNT>
0

> <PUBCHEM_ATOM_UDEF_STEREO_COUNT>
0

> <PUBCHEM_BOND_DEF_STEREO_COUNT>
1

> <PUBCHEM_BOND_UDEF_STEREO_COUNT>
0

> <PUBCHEM_ISOTOPIC_ATOM_COUNT>
0

> <PUBCHEM_COMPONENT_COUNT>
1

> <PUBCHEM_CACTVS_TAUTO_COUNT>
1

> <PUBCHEM_CONFORMER_ID>
005EC6AE00000001

> <PUBCHEM_MMFF94_ENERGY>
107.6003

> <PUBCHEM_FEATURE_SELFOVERLAP>
45.84

> <PUBCHEM_SHAPE_FINGERPRINT>
10595046 47 18267864067520437575
10763959 59 17822004272927022901
10906281 52 17823142405787115940
11405975 8 18260829344965949002
12107183 9 18265609897064439098
12166972 35 18342176661159570792
12236239 1 18343016700943969323
13073987 5 18410853299807695562
13167372 99 18412543193360251986
13785724 45 17834955274510381778
14117953 113 18265897952316299205
14341114 176 18408888433968488894
14739800 52 18127403677834351096
15183329 4 18343024358970884874
15196674 1 18412262848039165299
15475509 8 18266752285756919334
1577012 14 18413669119269013311
17844677 252 18337117851242098083
19611394 137 18188505678732468203
20281389 69 18411135827362006465
20511986 3 18341035368295511401
20715895 44 18341613681035655785
21033648 29 16588010308774614583
21298829 104 18410293648869211808
21421861 104 17895176776672890794
21503847 285 18114181951778071072
23559900 14 18202283554795725207
245318 6 17896336876866520709
2838139 119 18271240530865228101
3004659 81 18412544284709408026
3103668 31 17827922824145697084
335352 9 18410857625414639262
34797466 226 16988287589369162429
4073 2 18187648063367257434
4144715 1 18336274525581091979
4214541 1 18411698790285056755
474 4 18041559247075456011
5104073 3 18260543450404490282
513532 50 18131081450346084604
54446538 1 18411135831936704267
57724786 102 17676778672564881596
6299153 45 18268429040366681778
6328613 192 18335148604842283076
633830 44 18040993007430741778
653340 110 18266171734474150488
9981440 41 18410578409680709115

> <PUBCHEM_SHAPE_MULTIPOLES>
479.27
17.52
3.1
0.92
5.47
0.79
0.19
5.35
-1.11
-0.89
0.49
-0.62
0.5
-1.28

> <PUBCHEM_SHAPE_SELFOVERLAP>
1040.567

> <PUBCHEM_SHAPE_VOLUME>
263.3

> <PUBCHEM_COORDINATE_TYPE>
2
5
10

$$$$
