1487467
  -OEChem-01171809483D

 32 33  0     0  0  0  0  0  0999 V2000
    6.4583    0.7336    0.4940 Cl  0  0  0  0  0  0  0  0  0  0  0  0
   -2.1048   -2.1262   -0.0175 O   0  0  0  0  0  0  0  0  0  0  0  0
   -3.6737    0.8464    1.0538 O   0  0  0  0  0  0  0  0  0  0  0  0
   -5.6610    0.4780   -0.0456 O   0  0  0  0  0  0  0  0  0  0  0  0
   -2.1664    0.0237   -0.9066 N   0  0  0  0  0  0  0  0  0  0  0  0
    1.1954   -2.9588    0.9683 N   0  0  0  0  0  0  0  0  0  0  0  0
    0.5907    0.1932   -0.4343 C   0  0  0  0  0  0  0  0  0  0  0  0
   -0.0453   -0.9505   -0.0933 C   0  0  0  0  0  0  0  0  0  0  0  0
    2.0296    0.3252   -0.2063 C   0  0  0  0  0  0  0  0  0  0  0  0
   -1.5319   -1.0818   -0.3311 C   0  0  0  0  0  0  0  0  0  0  0  0
   -3.6012   -0.0385   -1.1634 C   0  0  0  0  0  0  0  0  0  0  0  0
   -0.1632    1.2834   -1.0264 C   0  0  0  0  0  0  0  0  0  0  0  0
   -1.4765    1.1708   -1.2386 C   0  0  0  0  0  0  0  0  0  0  0  0
    2.4919    0.8361    1.0017 C   0  0  0  0  0  0  0  0  0  0  0  0
    2.9231   -0.0605   -1.2000 C   0  0  0  0  0  0  0  0  0  0  0  0
   -4.4353    0.4519   -0.0034 C   0  0  0  0  0  0  0  0  0  0  0  0
    3.8641    0.9627    1.2186 C   0  0  0  0  0  0  0  0  0  0  0  0
    4.2951    0.0660   -0.9829 C   0  0  0  0  0  0  0  0  0  0  0  0
    4.7656    0.5777    0.2263 C   0  0  0  0  0  0  0  0  0  0  0  0
    0.6392   -2.0588    0.4925 C   0  0  0  0  0  0  0  0  0  0  0  0
   -4.3937    1.3262    2.1943 C   0  0  0  0  0  0  0  0  0  0  0  0
   -3.8386    0.5627   -2.0480 H   0  0  0  0  0  0  0  0  0  0  0  0
   -3.8861   -1.0781   -1.3585 H   0  0  0  0  0  0  0  0  0  0  0  0
    0.3579    2.1969   -1.2942 H   0  0  0  0  0  0  0  0  0  0  0  0
   -2.0472    1.9816   -1.6772 H   0  0  0  0  0  0  0  0  0  0  0  0
    1.8015    1.1410    1.7843 H   0  0  0  0  0  0  0  0  0  0  0  0
    2.5714   -0.4604   -2.1478 H   0  0  0  0  0  0  0  0  0  0  0  0
    4.2163    1.3630    2.1658 H   0  0  0  0  0  0  0  0  0  0  0  0
    4.9859   -0.2380   -1.7651 H   0  0  0  0  0  0  0  0  0  0  0  0
   -4.9809    2.2099    1.9270 H   0  0  0  0  0  0  0  0  0  0  0  0
   -3.6669    1.6064    2.9613 H   0  0  0  0  0  0  0  0  0  0  0  0
   -5.0392    0.5380    2.5933 H   0  0  0  0  0  0  0  0  0  0  0  0
  1 19  1  0  0  0  0
  2 10  2  0  0  0  0
  3 16  1  0  0  0  0
  3 21  1  0  0  0  0
  4 16  2  0  0  0  0
  5 10  1  0  0  0  0
  5 11  1  0  0  0  0
  5 13  1  0  0  0  0
  6 20  3  0  0  0  0
  7  8  2  0  0  0  0
  7  9  1  0  0  0  0
  7 12  1  0  0  0  0
  8 10  1  0  0  0  0
  8 20  1  0  0  0  0
  9 14  2  0  0  0  0
  9 15  1  0  0  0  0
 11 16  1  0  0  0  0
 11 22  1  0  0  0  0
 11 23  1  0  0  0  0
 12 13  2  0  0  0  0
 12 24  1  0  0  0  0
 13 25  1  0  0  0  0
 14 17  1  0  0  0  0
 14 26  1  0  0  0  0
 15 18  2  0  0  0  0
 15 27  1  0  0  0  0
 17 19  2  0  0  0  0
 17 28  1  0  0  0  0
 18 19  1  0  0  0  0
 18 29  1  0  0  0  0
 21 30  1  0  0  0  0
 21 31  1  0  0  0  0
 21 32  1  0  0  0  0
M  END
> <PUBCHEM_COMPOUND_CID>
1487467

> <PUBCHEM_CONFORMER_RMSD>
0.6

> <PUBCHEM_CONFORMER_DIVERSEORDER>
2
13
7
11
16
10
14
12
5
15
9
1
6
8
4
3

> <PUBCHEM_MMFF94_PARTIAL_CHARGES>
27
1 -0.18
10 0.62
11 0.36
12 -0.15
13 -0.04
14 -0.15
15 -0.15
16 0.66
17 -0.15
18 -0.15
19 0.18
2 -0.57
20 0.49
21 0.28
24 0.15
25 0.15
26 0.15
27 0.15
28 0.15
29 0.15
3 -0.43
4 -0.57
5 -0.47
6 -0.56
7 -0.03
8 0.08
9 0.03

> <PUBCHEM_EFFECTIVE_ROTOR_COUNT>
4

> <PUBCHEM_PHARMACOPHORE_FEATURES>
5
1 2 acceptor
1 4 acceptor
1 6 acceptor
6 5 7 8 10 12 13 rings
6 9 14 15 17 18 19 rings

> <PUBCHEM_HEAVY_ATOM_COUNT>
21

> <PUBCHEM_ATOM_DEF_STEREO_COUNT>
0

> <PUBCHEM_ATOM_UDEF_STEREO_COUNT>
0

> <PUBCHEM_BOND_DEF_STEREO_COUNT>
0

> <PUBCHEM_BOND_UDEF_STEREO_COUNT>
0

> <PUBCHEM_ISOTOPIC_ATOM_COUNT>
0

> <PUBCHEM_COMPONENT_COUNT>
1

> <PUBCHEM_CACTVS_TAUTO_COUNT>
1

> <PUBCHEM_CONFORMER_ID>
0016B26B00000002

> <PUBCHEM_MMFF94_ENERGY>
54.0529

> <PUBCHEM_FEATURE_SELFOVERLAP>
25.373

> <PUBCHEM_SHAPE_FINGERPRINT>
106641 1 18114184189530203833
11132069 177 18259700116295408439
11796584 16 14562529574746655921
12107183 9 16698103149364152519
12236239 1 18131069303993727165
12293681 4 17703795837664106305
12403814 3 16950554489619493423
12592029 89 17749387032008110458
12633257 1 18337382838197867168
12916748 109 17632865230639690301
13140716 1 18115871978370002301
13583140 156 15285625621182455247
14028597 1 18200870661495908378
14955137 171 17385731287846524372
15209294 21 18272370845798101393
15309172 13 18186518821484669470
16945 1 18259977176288371077
18186145 218 18341887507081930484
19784866 170 18040714749325948367
200 152 15626224632695977220
20028762 73 18122351443559404751
20261772 1 17967249814637650468
20739085 24 18045518417054522061
22182313 1 17823691958761465839
22224240 67 18260827124746853537
23402539 116 18335689598938711646
23536379 177 16774080656799624132
23559900 14 17203602722522401264
2838139 119 16630525103337594545
3009799 131 11167942433320314275
350125 39 18045497517569547470
465052 167 16660652863972117409
474 4 18272368710782799393
58807428 26 18187635916935863714
59755656 215 18334574591127356446
59755656 520 18342735225830154446
633830 44 18272362118345298468
7495541 125 15936702548235331788

> <PUBCHEM_SHAPE_MULTIPOLES>
406.47
11.6
1.84
1.44
2.87
1.45
-0.31
-5.16
-2.5
-0.37
-0.73
-0.73
-0.43
-0.42

> <PUBCHEM_SHAPE_SELFOVERLAP>
862.057

> <PUBCHEM_SHAPE_VOLUME>
226.7

> <PUBCHEM_COORDINATE_TYPE>
2
5
10

$$$$
