49791368
  -OEChem-01171810193D

 63 66  0     0  0  0  0  0  0999 V2000
    4.1476   -3.3519    0.0142 F   0  0  0  0  0  0  0  0  0  0  0  0
    2.9900   -3.1671   -1.8171 F   0  0  0  0  0  0  0  0  0  0  0  0
    3.2199   -1.4553   -0.5055 F   0  0  0  0  0  0  0  0  0  0  0  0
    2.9488    4.3592    0.3457 O   0  0  0  0  0  0  0  0  0  0  0  0
   -5.7234    2.4017   -0.8467 O   0  0  0  0  0  0  0  0  0  0  0  0
   -2.2692   -1.3213    0.0923 N   0  0  0  0  0  0  0  0  0  0  0  0
   -4.0531   -2.4957   -0.5663 N   0  0  0  0  0  0  0  0  0  0  0  0
   -5.4761    0.0834   -0.9098 N   0  0  0  0  0  0  0  0  0  0  0  0
    2.9483    2.0597    0.6436 N   0  0  0  0  0  0  0  0  0  0  0  0
    6.2088    1.4636   -1.0554 N   0  0  0  0  0  0  0  0  0  0  0  0
   -3.5882   -1.2813   -0.3475 C   0  0  0  0  0  0  0  0  0  0  0  0
   -1.9059   -2.6430    0.1439 C   0  0  0  0  0  0  0  0  0  0  0  0
   -2.0738    1.0348    0.2812 C   0  0  0  0  0  0  0  0  0  0  0  0
   -1.5190   -0.1898    0.4018 C   0  0  0  0  0  0  0  0  0  0  0  0
   -4.1834    0.0080   -0.4805 C   0  0  0  0  0  0  0  0  0  0  0  0
   -3.4651    1.1095   -0.1825 C   0  0  0  0  0  0  0  0  0  0  0  0
   -1.2683    2.2284    0.6031 C   0  0  0  0  0  0  0  0  0  0  0  0
   -0.6097   -3.1311    0.5523 C   0  0  0  0  0  0  0  0  0  0  0  0
   -3.0172   -3.3414   -0.2639 C   0  0  0  0  0  0  0  0  0  0  0  0
    0.1155    2.2042    0.4288 C   0  0  0  0  0  0  0  0  0  0  0  0
    0.5335   -2.7455   -0.1477 C   0  0  0  0  0  0  0  0  0  0  0  0
    0.8764    3.3329    0.7331 C   0  0  0  0  0  0  0  0  0  0  0  0
   -1.8911    3.3811    1.0817 C   0  0  0  0  0  0  0  0  0  0  0  0
   -0.5009   -3.9858    1.6493 C   0  0  0  0  0  0  0  0  0  0  0  0
    1.7857   -3.2146    0.2494 C   0  0  0  0  0  0  0  0  0  0  0  0
    4.3753    1.8729    0.5102 C   0  0  0  0  0  0  0  0  0  0  0  0
    4.7647    1.6207   -0.9390 C   0  0  0  0  0  0  0  0  0  0  0  0
    0.2538    4.4856    1.2120 C   0  0  0  0  0  0  0  0  0  0  0  0
   -1.1300    4.5097    1.3861 C   0  0  0  0  0  0  0  0  0  0  0  0
    2.3192    3.3066    0.5516 C   0  0  0  0  0  0  0  0  0  0  0  0
    0.7512   -4.4548    2.0462 C   0  0  0  0  0  0  0  0  0  0  0  0
    1.8946   -4.0694    1.3462 C   0  0  0  0  0  0  0  0  0  0  0  0
   -6.1608    1.2767   -1.0776 C   0  0  0  0  0  0  0  0  0  0  0  0
    3.0080   -2.8047   -0.5003 C   0  0  0  0  0  0  0  0  0  0  0  0
    6.6483    1.7304   -2.4265 C   0  0  0  0  0  0  0  0  0  0  0  0
    6.6168    0.1186   -0.6451 C   0  0  0  0  0  0  0  0  0  0  0  0
   -7.5715    1.0647   -1.5612 C   0  0  0  0  0  0  0  0  0  0  0  0
   -0.5144   -0.3599    0.7670 H   0  0  0  0  0  0  0  0  0  0  0  0
   -3.7989    2.1250   -0.2901 H   0  0  0  0  0  0  0  0  0  0  0  0
   -3.1292   -4.4124   -0.3580 H   0  0  0  0  0  0  0  0  0  0  0  0
    0.5932    1.3335   -0.0104 H   0  0  0  0  0  0  0  0  0  0  0  0
    0.4603   -2.0871   -1.0111 H   0  0  0  0  0  0  0  0  0  0  0  0
   -2.9622    3.4312    1.2560 H   0  0  0  0  0  0  0  0  0  0  0  0
   -5.9526   -0.7910   -1.1167 H   0  0  0  0  0  0  0  0  0  0  0  0
   -1.3805   -4.2945    2.2092 H   0  0  0  0  0  0  0  0  0  0  0  0
    4.8859    2.7609    0.9005 H   0  0  0  0  0  0  0  0  0  0  0  0
    4.6311    1.0259    1.1539 H   0  0  0  0  0  0  0  0  0  0  0  0
    4.4352    2.4933   -1.5198 H   0  0  0  0  0  0  0  0  0  0  0  0
    4.2204    0.7628   -1.3545 H   0  0  0  0  0  0  0  0  0  0  0  0
    0.8292    5.3736    1.4607 H   0  0  0  0  0  0  0  0  0  0  0  0
   -1.6138    5.4051    1.7655 H   0  0  0  0  0  0  0  0  0  0  0  0
    0.8360   -5.1197    2.9008 H   0  0  0  0  0  0  0  0  0  0  0  0
    2.4089    1.2315    0.8716 H   0  0  0  0  0  0  0  0  0  0  0  0
    2.8602   -4.4462    1.6717 H   0  0  0  0  0  0  0  0  0  0  0  0
    6.1458   -0.6620   -1.2540 H   0  0  0  0  0  0  0  0  0  0  0  0
    7.7038    0.0076   -0.7345 H   0  0  0  0  0  0  0  0  0  0  0  0
    6.3806   -0.0735    0.4060 H   0  0  0  0  0  0  0  0  0  0  0  0
    7.7369    1.6349   -2.5076 H   0  0  0  0  0  0  0  0  0  0  0  0
    6.1866    1.0465   -3.1480 H   0  0  0  0  0  0  0  0  0  0  0  0
    6.4042    2.7582   -2.7176 H   0  0  0  0  0  0  0  0  0  0  0  0
   -7.9788    2.0093   -1.9321 H   0  0  0  0  0  0  0  0  0  0  0  0
   -7.5910    0.3338   -2.3748 H   0  0  0  0  0  0  0  0  0  0  0  0
   -8.1887    0.7050   -0.7335 H   0  0  0  0  0  0  0  0  0  0  0  0
  1 34  1  0  0  0  0
  2 34  1  0  0  0  0
  3 34  1  0  0  0  0
  4 30  2  0  0  0  0
  5 33  2  0  0  0  0
  6 11  1  0  0  0  0
  6 12  1  0  0  0  0
  6 14  1  0  0  0  0
  7 11  2  0  0  0  0
  7 19  1  0  0  0  0
  8 15  1  0  0  0  0
  8 33  1  0  0  0  0
  8 44  1  0  0  0  0
  9 26  1  0  0  0  0
  9 30  1  0  0  0  0
  9 53  1  0  0  0  0
 10 27  1  0  0  0  0
 10 35  1  0  0  0  0
 10 36  1  0  0  0  0
 11 15  1  0  0  0  0
 12 18  1  0  0  0  0
 12 19  2  0  0  0  0
 13 14  2  0  0  0  0
 13 16  1  0  0  0  0
 13 17  1  0  0  0  0
 14 38  1  0  0  0  0
 15 16  2  0  0  0  0
 16 39  1  0  0  0  0
 17 20  2  0  0  0  0
 17 23  1  0  0  0  0
 18 21  2  0  0  0  0
 18 24  1  0  0  0  0
 19 40  1  0  0  0  0
 20 22  1  0  0  0  0
 20 41  1  0  0  0  0
 21 25  1  0  0  0  0
 21 42  1  0  0  0  0
 22 28  2  0  0  0  0
 22 30  1  0  0  0  0
 23 29  2  0  0  0  0
 23 43  1  0  0  0  0
 24 31  2  0  0  0  0
 24 45  1  0  0  0  0
 25 32  2  0  0  0  0
 25 34  1  0  0  0  0
 26 27  1  0  0  0  0
 26 46  1  0  0  0  0
 26 47  1  0  0  0  0
 27 48  1  0  0  0  0
 27 49  1  0  0  0  0
 28 29  1  0  0  0  0
 28 50  1  0  0  0  0
 29 51  1  0  0  0  0
 31 32  1  0  0  0  0
 31 52  1  0  0  0  0
 32 54  1  0  0  0  0
 33 37  1  0  0  0  0
 35 58  1  0  0  0  0
 35 59  1  0  0  0  0
 35 60  1  0  0  0  0
 36 55  1  0  0  0  0
 36 56  1  0  0  0  0
 36 57  1  0  0  0  0
 37 61  1  0  0  0  0
 37 62  1  0  0  0  0
 37 63  1  0  0  0  0
M  END
> <PUBCHEM_COMPOUND_CID>
49791368

> <PUBCHEM_CONFORMER_RMSD>
1

> <PUBCHEM_CONFORMER_DIVERSEORDER>
1
36
146
195
186
15
188
135
112
54
21
84
72
164
35
187
160
128
43
109
171
42
122
86
137
46
105
184
193
50
2
151
63
196
77
143
123
189
106
82
176
139
182
80
40
141
166
45
178
74
52
93
134
6
127
83
194
159
148
78
44
49
162
110
85
108
142
175
144
89
67
167
57
145
136
140
66
34
198
138
131
58
91
41
107
150
79
61
155
185
18
116
174
37
5
154
65
183
197
133
170
99
104
68
55
17
173
191
87
70
156
96
76
157
172
25
168
23
126
181
51
81
115
9
179
118
16
125
152
117
124
48
24
33
90
158
163
129
120
7
97
177
60
27
20
147
69
88
161
98
130
73
64
190
103
31
180
102
95
101
12
192
53
30
13
149
94
121
10
47
71
114
22
165
26
111
100
32
119
75
153
19
62
14
132
28
92
56
169
113
8
59
38
39
11
29
3
4

> <PUBCHEM_MMFF94_PARTIAL_CHARGES>
50
1 -0.34
10 -0.81
11 0.14
12 -0.2
13 -0.03
14 -0.18
15 0.15
16 -0.15
17 0.03
18 0.05
19 0.08
2 -0.34
20 -0.15
21 -0.15
22 0.09
23 -0.15
24 -0.15
25 -0.14
26 0.3
27 0.27
28 -0.15
29 -0.15
3 -0.34
30 0.54
31 -0.15
32 -0.15
33 0.57
34 1.16
35 0.27
36 0.27
37 0.06
38 0.15
39 0.15
4 -0.57
40 0.15
41 0.15
42 0.15
43 0.15
44 0.37
45 0.15
5 -0.57
50 0.15
51 0.15
52 0.15
53 0.37
54 0.15
6 0.33
7 -0.57
8 -0.54
9 -0.73

> <PUBCHEM_EFFECTIVE_ROTOR_COUNT>
10

> <PUBCHEM_PHARMACOPHORE_FEATURES>
10
1 10 cation
1 4 acceptor
1 5 acceptor
1 8 donor
1 9 donor
3 6 7 11 cation
5 6 7 11 12 19 rings
6 17 20 22 23 28 29 rings
6 18 21 24 25 31 32 rings
6 6 11 13 14 15 16 rings

> <PUBCHEM_HEAVY_ATOM_COUNT>
37

> <PUBCHEM_ATOM_DEF_STEREO_COUNT>
0

> <PUBCHEM_ATOM_UDEF_STEREO_COUNT>
0

> <PUBCHEM_BOND_DEF_STEREO_COUNT>
0

> <PUBCHEM_BOND_UDEF_STEREO_COUNT>
0

> <PUBCHEM_ISOTOPIC_ATOM_COUNT>
0

> <PUBCHEM_COMPONENT_COUNT>
1

> <PUBCHEM_CACTVS_TAUTO_COUNT>
4

> <PUBCHEM_CONFORMER_ID>
02F7C18800000001

> <PUBCHEM_MMFF94_ENERGY>
101.3925

> <PUBCHEM_FEATURE_SELFOVERLAP>
50.86

> <PUBCHEM_SHAPE_FINGERPRINT>
10675989 125 18412256251228654177
12124843 1 18340216279662322380
12202916 173 18201999963032718652
12440605 4 18054240838856955617
12788726 201 17908416962461223603
12978246 48 16176510037352402634
13008946 113 18045787784973054325
14040222 75 18270125746855948116
14725015 67 17689141731436602690
14931854 50 18341059544835323676
15160629 131 17631467699346465775
15320294 125 17898254352747986312
15320467 1 18412547583323276088
15351339 4 18339074891713383065
15890870 6 18334575746336110110
15927050 60 18339632460853536583
16067689 134 18055086358676913801
16067689 391 17482879664664575350
16628084 112 18194966245163174405
17627616 140 18335420136822218282
20642791 35 18340481158637791971
20764821 26 18266186015845882730
21049683 271 18262236596308060365
21133410 230 17752792365469834179
21133410 62 18186813478001024267
22113638 7 17112977362389117120
23559900 14 18199180874758546137
24771750 20 18409727383585439461
325973 47 18051981608590799208
3298306 158 18339918341701334173
437795 96 17188409911922161200
4394409 98 18187932810903280500
474144 1 17968639567898084658
5265222 85 18116438235274681725
6036956 94 18335712597856124500

> <PUBCHEM_SHAPE_MULTIPOLES>
702.98
13.61
7.89
1.53
0.77
1.74
0.2
-7.25
11.12
3.28
-4.07
0.87
0.05
-0.17

> <PUBCHEM_SHAPE_SELFOVERLAP>
1531.479

> <PUBCHEM_SHAPE_VOLUME>
385.8

> <PUBCHEM_COORDINATE_TYPE>
2
5
10

$$$$
