1183382
  -OEChem-01171809583D

 40 42  0     0  0  0  0  0  0999 V2000
    4.2833    1.4792   -0.3795 O   0  0  0  0  0  0  0  0  0  0  0  0
    0.2272    0.7676   -0.3264 O   0  0  0  0  0  0  0  0  0  0  0  0
   -1.2014   -1.1755   -1.7056 O   0  0  0  0  0  0  0  0  0  0  0  0
    2.1897    2.3897   -0.4699 O   0  0  0  0  0  0  0  0  0  0  0  0
    0.4595   -0.7262    1.4657 O   0  0  0  0  0  0  0  0  0  0  0  0
   -8.1188   -1.6718    0.3329 O   0  5  0  0  0  0  0  0  0  0  0  0
   -7.9019    0.4996    0.6316 O   0  0  0  0  0  0  0  0  0  0  0  0
   -7.4469   -0.6315    0.4030 N   0  3  0  0  0  0  0  0  0  0  0  0
    4.5708   -0.7900    0.4443 C   0  0  0  0  0  0  0  0  0  0  0  0
    5.1132    0.3853   -0.0657 C   0  0  0  0  0  0  0  0  0  0  0  0
    2.3493    0.1720    0.3489 C   0  0  0  0  0  0  0  0  0  0  0  0
    3.1328   -0.8706    0.6488 C   0  0  0  0  0  0  0  0  0  0  0  0
   -1.1586    0.6670   -0.1788 C   0  0  0  0  0  0  0  0  0  0  0  0
   -1.8412   -0.3056   -0.8753 C   0  0  0  0  0  0  0  0  0  0  0  0
    5.4264   -1.8533    0.7428 C   0  0  0  0  0  0  0  0  0  0  0  0
   -3.8899    0.4878    0.1296 C   0  0  0  0  0  0  0  0  0  0  0  0
    6.4820    0.5272   -0.2845 C   0  0  0  0  0  0  0  0  0  0  0  0
    2.9044    1.4319   -0.1949 C   0  0  0  0  0  0  0  0  0  0  0  0
   -3.2243   -0.3965   -0.7191 C   0  0  0  0  0  0  0  0  0  0  0  0
    0.9125   -0.0058    0.5905 C   0  0  0  0  0  0  0  0  0  0  0  0
   -1.7895    1.5538    0.6662 C   0  0  0  0  0  0  0  0  0  0  0  0
   -3.1726    1.4631    0.8224 C   0  0  0  0  0  0  0  0  0  0  0  0
    6.8019   -1.7256    0.5286 C   0  0  0  0  0  0  0  0  0  0  0  0
    7.3282   -0.5378    0.0163 C   0  0  0  0  0  0  0  0  0  0  0  0
   -5.3321    0.3936    0.2917 C   0  0  0  0  0  0  0  0  0  0  0  0
   -6.0466   -0.7443    0.2055 C   0  0  0  0  0  0  0  0  0  0  0  0
   -1.0575   -0.7832   -3.0693 C   0  0  0  0  0  0  0  0  0  0  0  0
    2.7369   -1.8017    1.0425 H   0  0  0  0  0  0  0  0  0  0  0  0
    5.0374   -2.7864    1.1426 H   0  0  0  0  0  0  0  0  0  0  0  0
    6.8895    1.4511   -0.6830 H   0  0  0  0  0  0  0  0  0  0  0  0
   -3.7615   -1.1583   -1.2794 H   0  0  0  0  0  0  0  0  0  0  0  0
   -1.2312    2.3132    1.2049 H   0  0  0  0  0  0  0  0  0  0  0  0
   -3.6741    2.1601    1.4896 H   0  0  0  0  0  0  0  0  0  0  0  0
    7.4644   -2.5543    0.7619 H   0  0  0  0  0  0  0  0  0  0  0  0
    8.3978   -0.4451   -0.1477 H   0  0  0  0  0  0  0  0  0  0  0  0
   -5.7938    1.3528    0.5171 H   0  0  0  0  0  0  0  0  0  0  0  0
   -5.7031   -1.7491    0.0096 H   0  0  0  0  0  0  0  0  0  0  0  0
   -0.4750    0.1404   -3.1447 H   0  0  0  0  0  0  0  0  0  0  0  0
   -2.0389   -0.6483   -3.5351 H   0  0  0  0  0  0  0  0  0  0  0  0
   -0.5245   -1.5770   -3.5997 H   0  0  0  0  0  0  0  0  0  0  0  0
  1 10  1  0  0  0  0
  1 18  1  0  0  0  0
  2 13  1  0  0  0  0
  2 20  1  0  0  0  0
  3 14  1  0  0  0  0
  3 27  1  0  0  0  0
  4 18  2  0  0  0  0
  5 20  2  0  0  0  0
  6  8  1  0  0  0  0
  7  8  2  0  0  0  0
  8 26  1  0  0  0  0
  9 10  1  0  0  0  0
  9 12  1  0  0  0  0
  9 15  2  0  0  0  0
 10 17  2  0  0  0  0
 11 12  2  0  0  0  0
 11 18  1  0  0  0  0
 11 20  1  0  0  0  0
 12 28  1  0  0  0  0
 13 14  2  0  0  0  0
 13 21  1  0  0  0  0
 14 19  1  0  0  0  0
 15 23  1  0  0  0  0
 15 29  1  0  0  0  0
 16 19  2  0  0  0  0
 16 22  1  0  0  0  0
 16 25  1  0  0  0  0
 17 24  1  0  0  0  0
 17 30  1  0  0  0  0
 19 31  1  0  0  0  0
 21 22  2  0  0  0  0
 21 32  1  0  0  0  0
 22 33  1  0  0  0  0
 23 24  2  0  0  0  0
 23 34  1  0  0  0  0
 24 35  1  0  0  0  0
 25 26  2  0  0  0  0
 25 36  1  0  0  0  0
 26 37  1  0  0  0  0
 27 38  1  0  0  0  0
 27 39  1  0  0  0  0
 27 40  1  0  0  0  0
M  CHG  2   6  -1   8   1
M  END
> <PUBCHEM_COMPOUND_CID>
1183382

> <PUBCHEM_CONFORMER_RMSD>
0.8

> <PUBCHEM_CONFORMER_DIVERSEORDER>
2
107
48
45
85
78
101
39
11
109
104
81
64
80
18
57
89
98
111
35
23
116
79
95
1
110
66
76
94
82
17
77
29
83
65
47
112
108
86
92
99
100
20
70
14
88
96
114
93
105
56
3
50
31
67
10
13
30
117
60
44
74
12
68
22
54
59
52
4
43
71
58
42
75
41
102
63
5
51
32
62
106
73
97
16
55
115
27
26
91
61
72
21
6
84
8
53
24
9
46
34
49
69
103
19
33
28
90
7
36
15
25
113
37
40
38
87

> <PUBCHEM_MMFF94_PARTIAL_CHARGES>
37
1 -0.23
10 0.08
11 0.03
12 -0.18
13 0.08
14 0.08
15 -0.15
16 0.03
17 -0.15
18 0.71
19 -0.15
2 -0.23
20 0.71
21 -0.15
22 -0.15
23 -0.15
24 -0.15
25 -0.18
26 0.05
27 0.28
28 0.15
29 0.15
3 -0.36
30 0.15
31 0.15
32 0.15
33 0.15
34 0.15
35 0.15
36 0.15
37 0.15
4 -0.57
5 -0.57
6 -0.52
7 -0.52
8 0.84
9 0.03

> <PUBCHEM_EFFECTIVE_ROTOR_COUNT>
6

> <PUBCHEM_PHARMACOPHORE_FEATURES>
10
1 11 anion
1 3 acceptor
1 4 acceptor
1 5 acceptor
1 6 acceptor
1 6 anion
1 7 acceptor
6 1 9 10 11 12 18 rings
6 13 14 16 19 21 22 rings
6 9 10 15 17 23 24 rings

> <PUBCHEM_HEAVY_ATOM_COUNT>
27

> <PUBCHEM_ATOM_DEF_STEREO_COUNT>
0

> <PUBCHEM_ATOM_UDEF_STEREO_COUNT>
0

> <PUBCHEM_BOND_DEF_STEREO_COUNT>
1

> <PUBCHEM_BOND_UDEF_STEREO_COUNT>
0

> <PUBCHEM_ISOTOPIC_ATOM_COUNT>
0

> <PUBCHEM_COMPONENT_COUNT>
1

> <PUBCHEM_CACTVS_TAUTO_COUNT>
2

> <PUBCHEM_CONFORMER_ID>
00120E9600000002

> <PUBCHEM_MMFF94_ENERGY>
105.05

> <PUBCHEM_FEATURE_SELFOVERLAP>
50.855

> <PUBCHEM_SHAPE_FINGERPRINT>
10299344 5 18410857659452305819
10366900 7 14923943435989575956
11135609 99 18115315604513099907
11524674 6 16200429187250098391
11646440 116 15841836655031276331
12166972 35 18186804690150380692
12236239 1 18411982442398827472
13073987 5 15769227041636587011
13533116 47 18335420179318080624
13540713 4 13047381747366710637
13685833 64 18260267434541747480
13782708 43 16660918856024639602
13885169 127 18187081716294917709
14028597 1 15482401850146980899
14123256 10 14634869743188201051
14170010 4 18186802500444617912
14251764 18 18201719561053727489
15849732 13 18273213092794712100
16994733 274 12031796846866027919
2026 5 16372115613325473482
21033648 29 16877929547956458668
21150785 3 16081090380993133074
21267235 1 18411421691964195920
21424621 283 13542477453471400791
21781051 124 17774737466445255927
21781055 127 16127837230149711528
21792934 111 18059848459758924417
221357 26 17895191091493101444
22956985 138 17628655058620090823
23035841 295 18412263943799151395
23522609 53 18196402327323661577
23559900 14 17968660540018051897
23569943 247 17831581977495187026
3009799 131 12251903702794612399
3178227 256 17346604097230734171
335352 9 18113345198662005414
34797466 226 16988846095081459016
4073 2 17749678509631292546
4325135 7 17676489453751488642
46194498 28 16732985341098044366
465052 167 18342462577802157201
469060 322 16773256027927544427
5104073 3 17130976728112415979
5283156 175 18412546496469820505
5385378 56 16343715291744963295
54039377 194 18335983048722703542
5486654 2 13118002197205905833
59755656 215 16732700532556863794
59755656 520 17894908559775419531
6081469 158 17385719188960470551

> <PUBCHEM_SHAPE_MULTIPOLES>
509.58
20.92
1.69
1.33
13.25
0.25
1.09
-7.48
-5.15
-0.76
-0.01
0.54
-0.5
-1.21

> <PUBCHEM_SHAPE_SELFOVERLAP>
1117.708

> <PUBCHEM_SHAPE_VOLUME>
272.8

> <PUBCHEM_COORDINATE_TYPE>
2
5
10

$$$$
