3574667
  -OEChem-01171809413D

 57 61  0     0  0  0  0  0  0999 V2000
    0.3357    0.5177   -3.2294 S   0  0  0  0  0  0  0  0  0  0  0  0
    2.7669   -4.5971    0.2391 O   0  0  0  0  0  0  0  0  0  0  0  0
    1.6495    0.4108    1.2174 O   0  0  0  0  0  0  0  0  0  0  0  0
    7.7916    2.9347    0.8290 O   0  5  0  0  0  0  0  0  0  0  0  0
    5.8796    3.9985    0.6526 O   0  0  0  0  0  0  0  0  0  0  0  0
    3.8582   -2.0079    0.3019 N   0  0  0  0  0  0  0  0  0  0  0  0
    1.8915    0.4866   -1.1198 N   0  0  0  0  0  0  0  0  0  0  0  0
    6.5437    2.9348    0.6986 N   0  3  0  0  0  0  0  0  0  0  0  0
   -0.4935    0.4297   -0.7825 N   0  0  0  0  0  0  0  0  0  0  0  0
    4.1931   -2.9268   -0.7915 C   0  0  0  0  0  0  0  0  0  0  0  0
    3.3995   -2.6508    1.5409 C   0  0  0  0  0  0  0  0  0  0  0  0
    3.0608   -3.9289   -0.9872 C   0  0  0  0  0  0  0  0  0  0  0  0
    2.3093   -3.6671    1.2206 C   0  0  0  0  0  0  0  0  0  0  0  0
    4.5096   -0.7741    0.4004 C   0  0  0  0  0  0  0  0  0  0  0  0
    3.8061    0.4481    0.3541 C   0  0  0  0  0  0  0  0  0  0  0  0
    5.9109   -0.7217    0.5493 C   0  0  0  0  0  0  0  0  0  0  0  0
    4.4751    1.6681    0.4526 C   0  0  0  0  0  0  0  0  0  0  0  0
    6.5800    0.4983    0.6480 C   0  0  0  0  0  0  0  0  0  0  0  0
    5.8620    1.6932    0.5997 C   0  0  0  0  0  0  0  0  0  0  0  0
    2.3566    0.4555    0.1999 C   0  0  0  0  0  0  0  0  0  0  0  0
    0.5581    0.4733   -1.5409 C   0  0  0  0  0  0  0  0  0  0  0  0
   -2.9349    0.3888   -1.0621 C   0  0  0  0  0  0  0  0  0  0  0  0
   -1.6061    0.4308   -1.6010 C   0  0  0  0  0  0  0  0  0  0  0  0
   -5.5204    0.3070   -0.0135 C   0  0  0  0  0  0  0  0  0  0  0  0
   -3.9879    0.9923   -1.7511 C   0  0  0  0  0  0  0  0  0  0  0  0
   -3.1766   -0.2555    0.1521 C   0  0  0  0  0  0  0  0  0  0  0  0
   -6.8605    0.2645    0.5299 C   0  0  0  0  0  0  0  0  0  0  0  0
   -5.2799    0.9515   -1.2270 C   0  0  0  0  0  0  0  0  0  0  0  0
   -4.4687   -0.2964    0.6760 C   0  0  0  0  0  0  0  0  0  0  0  0
   -1.3570    0.4753   -2.9567 C   0  0  0  0  0  0  0  0  0  0  0  0
   -7.3000    1.2763    1.3834 C   0  0  0  0  0  0  0  0  0  0  0  0
   -7.7126   -0.7901    0.2017 C   0  0  0  0  0  0  0  0  0  0  0  0
   -8.5916    1.2337    1.9086 C   0  0  0  0  0  0  0  0  0  0  0  0
   -9.0042   -0.8326    0.7266 C   0  0  0  0  0  0  0  0  0  0  0  0
   -9.4437    0.1794    1.5801 C   0  0  0  0  0  0  0  0  0  0  0  0
    5.1180   -3.4602   -0.5403 H   0  0  0  0  0  0  0  0  0  0  0  0
    4.3558   -2.3771   -1.7258 H   0  0  0  0  0  0  0  0  0  0  0  0
    3.0092   -1.9126    2.2508 H   0  0  0  0  0  0  0  0  0  0  0  0
    4.2523   -3.1556    2.0111 H   0  0  0  0  0  0  0  0  0  0  0  0
    3.3545   -4.6855   -1.7216 H   0  0  0  0  0  0  0  0  0  0  0  0
    2.1541   -3.4377   -1.3609 H   0  0  0  0  0  0  0  0  0  0  0  0
    1.3984   -3.1742    0.8593 H   0  0  0  0  0  0  0  0  0  0  0  0
    2.0470   -4.2300    2.1218 H   0  0  0  0  0  0  0  0  0  0  0  0
    6.4902   -1.6415    0.5943 H   0  0  0  0  0  0  0  0  0  0  0  0
    3.8939    2.5870    0.4121 H   0  0  0  0  0  0  0  0  0  0  0  0
    7.6607    0.4793    0.7627 H   0  0  0  0  0  0  0  0  0  0  0  0
    2.5738    0.5169   -1.8735 H   0  0  0  0  0  0  0  0  0  0  0  0
   -3.8379    1.5190   -2.6900 H   0  0  0  0  0  0  0  0  0  0  0  0
   -2.3741   -0.7372    0.7057 H   0  0  0  0  0  0  0  0  0  0  0  0
   -6.0881    1.4303   -1.7751 H   0  0  0  0  0  0  0  0  0  0  0  0
   -4.6390   -0.8039    1.6227 H   0  0  0  0  0  0  0  0  0  0  0  0
   -2.0436    0.4731   -3.7919 H   0  0  0  0  0  0  0  0  0  0  0  0
   -6.6487    2.1054    1.6501 H   0  0  0  0  0  0  0  0  0  0  0  0
   -7.3858   -1.5874   -0.4618 H   0  0  0  0  0  0  0  0  0  0  0  0
   -8.9339    2.0214    2.5734 H   0  0  0  0  0  0  0  0  0  0  0  0
   -9.6678   -1.6536    0.4711 H   0  0  0  0  0  0  0  0  0  0  0  0
  -10.4493    0.1463    1.9890 H   0  0  0  0  0  0  0  0  0  0  0  0
  1 21  1  0  0  0  0
  1 30  1  0  0  0  0
  2 12  1  0  0  0  0
  2 13  1  0  0  0  0
  3 20  2  0  0  0  0
  4  8  1  0  0  0  0
  5  8  2  0  0  0  0
  6 10  1  0  0  0  0
  6 11  1  0  0  0  0
  6 14  1  0  0  0  0
  7 20  1  0  0  0  0
  7 21  1  0  0  0  0
  7 47  1  0  0  0  0
  8 19  1  0  0  0  0
  9 21  2  0  0  0  0
  9 23  1  0  0  0  0
 10 12  1  0  0  0  0
 10 36  1  0  0  0  0
 10 37  1  0  0  0  0
 11 13  1  0  0  0  0
 11 38  1  0  0  0  0
 11 39  1  0  0  0  0
 12 40  1  0  0  0  0
 12 41  1  0  0  0  0
 13 42  1  0  0  0  0
 13 43  1  0  0  0  0
 14 15  2  0  0  0  0
 14 16  1  0  0  0  0
 15 17  1  0  0  0  0
 15 20  1  0  0  0  0
 16 18  2  0  0  0  0
 16 44  1  0  0  0  0
 17 19  2  0  0  0  0
 17 45  1  0  0  0  0
 18 19  1  0  0  0  0
 18 46  1  0  0  0  0
 22 23  1  0  0  0  0
 22 25  2  0  0  0  0
 22 26  1  0  0  0  0
 23 30  2  0  0  0  0
 24 27  1  0  0  0  0
 24 28  2  0  0  0  0
 24 29  1  0  0  0  0
 25 28  1  0  0  0  0
 25 48  1  0  0  0  0
 26 29  2  0  0  0  0
 26 49  1  0  0  0  0
 27 31  2  0  0  0  0
 27 32  1  0  0  0  0
 28 50  1  0  0  0  0
 29 51  1  0  0  0  0
 30 52  1  0  0  0  0
 31 33  1  0  0  0  0
 31 53  1  0  0  0  0
 32 34  2  0  0  0  0
 32 54  1  0  0  0  0
 33 35  2  0  0  0  0
 33 55  1  0  0  0  0
 34 35  1  0  0  0  0
 34 56  1  0  0  0  0
 35 57  1  0  0  0  0
M  CHG  2   4  -1   8   1
M  END
> <PUBCHEM_COMPOUND_CID>
3574667

> <PUBCHEM_CONFORMER_RMSD>
1

> <PUBCHEM_CONFORMER_DIVERSEORDER>
1
13
3
12
4
6
8
9
11
5
2
7
10

> <PUBCHEM_MMFF94_PARTIAL_CHARGES>
47
1 -0.08
10 0.37
11 0.37
12 0.28
13 0.28
14 0.1
15 0.09
16 -0.15
17 -0.15
18 -0.15
19 0.13
2 -0.56
20 0.54
21 0.44
22 0.05
23 0.17
25 -0.15
26 -0.15
28 -0.15
29 -0.15
3 -0.57
30 -0.11
31 -0.15
32 -0.15
33 -0.15
34 -0.15
35 -0.15
4 -0.52
44 0.15
45 0.15
46 0.15
47 0.37
48 0.15
49 0.15
5 -0.52
50 0.15
51 0.15
52 0.15
53 0.15
54 0.15
55 0.15
56 0.15
57 0.15
6 -0.84
7 -0.49
8 0.91
9 -0.57

> <PUBCHEM_EFFECTIVE_ROTOR_COUNT>
8.2

> <PUBCHEM_PHARMACOPHORE_FEATURES>
12
1 2 acceptor
1 3 acceptor
1 4 acceptor
1 4 anion
1 5 acceptor
1 6 cation
1 7 donor
5 1 9 21 23 30 rings
6 14 15 16 17 18 19 rings
6 2 6 10 11 12 13 rings
6 22 24 25 26 28 29 rings
6 27 31 32 33 34 35 rings

> <PUBCHEM_HEAVY_ATOM_COUNT>
35

> <PUBCHEM_ATOM_DEF_STEREO_COUNT>
0

> <PUBCHEM_ATOM_UDEF_STEREO_COUNT>
0

> <PUBCHEM_BOND_DEF_STEREO_COUNT>
0

> <PUBCHEM_BOND_UDEF_STEREO_COUNT>
0

> <PUBCHEM_ISOTOPIC_ATOM_COUNT>
0

> <PUBCHEM_COMPONENT_COUNT>
1

> <PUBCHEM_CACTVS_TAUTO_COUNT>
3

> <PUBCHEM_CONFORMER_ID>
00368B8B00000001

> <PUBCHEM_MMFF94_ENERGY>
122.4564

> <PUBCHEM_FEATURE_SELFOVERLAP>
60.98

> <PUBCHEM_SHAPE_FINGERPRINT>
10190108 129 18411981360689892184
10533779 47 17968957297274132425
10669705 251 17531541940296498739
11607047 141 17915475903998957487
11828532 37 15575012670765847921
1200032 147 17489309715557384254
12047536 79 18270403759572449909
12730499 353 18260540105399958186
13008946 62 17974869551147896540
13383668 362 17388549482309621609
13835254 42 18187647929743528789
14931854 50 12823305585055828667
15219648 46 18060139847061420073
15328684 2 17346300589161868943
15347590 135 18408318891204053577
15392192 104 18042700549141054469
1577012 14 16630521843488766301
1768 124 18259988171985585659
17852330 53 18267296535121606322
18335252 114 10087641494132095795
19301679 30 17530970151057386405
19315958 150 18410015438141278467
19319366 153 18201143422126262822
1979834 28 18113336414741709812
20505436 4 17775281711926444262
20554085 129 14620790470929904087
21133410 38 18340755005927451455
21315759 148 18041836199636415685
22149856 69 17968382251675167573
22864921 267 18263937536242753987
3178227 256 18337098000905108450
3383291 50 16588029030964358657
3663271 9 18272653437919827379
394071 54 18411135810087321750
397830 11 18338517444203560965
3986486 107 12031523102676969416
4073 2 18339082691706503395
437795 51 18410012109868756462
4461854 278 17822299002115293419
54076057 255 16487254409037395824
6086070 43 12031781487861940158
86090 222 17749680588364289515
9831232 110 17531533079836852303
9962374 69 17023473074751160623

> <PUBCHEM_SHAPE_MULTIPOLES>
680.73
26.57
3.69
2.17
44.34
3.25
-1.73
-9.19
17.73
-11.25
0.99
1.64
-0.54
1.51

> <PUBCHEM_SHAPE_SELFOVERLAP>
1487.35

> <PUBCHEM_SHAPE_VOLUME>
370.6

> <PUBCHEM_COORDINATE_TYPE>
2
5
10

$$$$
