16452954
  -OEChem-01171810063D

 43 45  0     0  0  0  0  0  0999 V2000
   -2.4834   -4.3281    0.1044 Cl  0  0  0  0  0  0  0  0  0  0  0  0
    2.7142   -1.0682   -0.5250 S   0  0  0  0  0  0  0  0  0  0  0  0
   -6.7454    3.3548    0.1581 F   0  0  0  0  0  0  0  0  0  0  0  0
    3.7991   -1.9276   -0.0815 O   0  0  0  0  0  0  0  0  0  0  0  0
    2.7297   -0.5061   -1.8652 O   0  0  0  0  0  0  0  0  0  0  0  0
   -2.7603   -1.5544    1.5923 O   0  0  0  0  0  0  0  0  0  0  0  0
    0.1214   -1.2979    0.0163 N   0  0  0  0  0  0  0  0  0  0  0  0
    1.2967   -3.3170   -0.5748 N   0  0  0  0  0  0  0  0  0  0  0  0
   -2.5464   -0.2336   -0.3351 N   0  0  0  0  0  0  0  0  0  0  0  0
    2.5390    0.2626    0.6182 C   0  0  0  0  0  0  0  0  0  0  0  0
    3.7687    1.1055    0.5319 C   0  0  0  0  0  0  0  0  0  0  0  0
    3.8452    2.1742   -0.3612 C   0  0  0  0  0  0  0  0  0  0  0  0
    1.2180   -1.9931   -0.3415 C   0  0  0  0  0  0  0  0  0  0  0  0
    4.8509    0.8107    1.3611 C   0  0  0  0  0  0  0  0  0  0  0  0
    5.0040    2.9481   -0.4252 C   0  0  0  0  0  0  0  0  0  0  0  0
    2.6996    2.5085   -1.2591 C   0  0  0  0  0  0  0  0  0  0  0  0
    6.0097    1.5848    1.2973 C   0  0  0  0  0  0  0  0  0  0  0  0
    6.0861    2.6534    0.4043 C   0  0  0  0  0  0  0  0  0  0  0  0
   -1.0017   -2.0341    0.1471 C   0  0  0  0  0  0  0  0  0  0  0  0
   -1.0542   -3.3969   -0.0632 C   0  0  0  0  0  0  0  0  0  0  0  0
    0.1374   -3.9912   -0.4260 C   0  0  0  0  0  0  0  0  0  0  0  0
   -2.1788   -1.2690    0.5342 C   0  0  0  0  0  0  0  0  0  0  0  0
   -3.6189    0.6830   -0.2090 C   0  0  0  0  0  0  0  0  0  0  0  0
   -4.4684    0.6150    0.8954 C   0  0  0  0  0  0  0  0  0  0  0  0
   -3.8255    1.6539   -1.1888 C   0  0  0  0  0  0  0  0  0  0  0  0
   -5.5243    1.5176    1.0199 C   0  0  0  0  0  0  0  0  0  0  0  0
   -4.8815    2.5566   -1.0646 C   0  0  0  0  0  0  0  0  0  0  0  0
   -5.7309    2.4885    0.0398 C   0  0  0  0  0  0  0  0  0  0  0  0
    2.4369   -0.1699    1.6203 H   0  0  0  0  0  0  0  0  0  0  0  0
    1.6199    0.8122    0.4146 H   0  0  0  0  0  0  0  0  0  0  0  0
    4.8066   -0.0184    2.0623 H   0  0  0  0  0  0  0  0  0  0  0  0
    5.0808    3.7826   -1.1172 H   0  0  0  0  0  0  0  0  0  0  0  0
    2.8017    3.5344   -1.6354 H   0  0  0  0  0  0  0  0  0  0  0  0
    1.7360    2.4940   -0.7443 H   0  0  0  0  0  0  0  0  0  0  0  0
    2.6718    1.8625   -2.1375 H   0  0  0  0  0  0  0  0  0  0  0  0
    6.8525    1.3553    1.9428 H   0  0  0  0  0  0  0  0  0  0  0  0
    6.9887    3.2555    0.3542 H   0  0  0  0  0  0  0  0  0  0  0  0
    0.2079   -5.0579   -0.6154 H   0  0  0  0  0  0  0  0  0  0  0  0
   -1.9738   -0.1106   -1.1680 H   0  0  0  0  0  0  0  0  0  0  0  0
   -4.3734   -0.1070    1.6938 H   0  0  0  0  0  0  0  0  0  0  0  0
   -3.1710    1.7180   -2.0543 H   0  0  0  0  0  0  0  0  0  0  0  0
   -6.1869    1.4658    1.8790 H   0  0  0  0  0  0  0  0  0  0  0  0
   -5.0429    3.3125   -1.8274 H   0  0  0  0  0  0  0  0  0  0  0  0
  1 20  1  0  0  0  0
  2  4  2  0  0  0  0
  2  5  2  0  0  0  0
  2 10  1  0  0  0  0
  2 13  1  0  0  0  0
  3 28  1  0  0  0  0
  6 22  2  0  0  0  0
  7 13  1  0  0  0  0
  7 19  2  0  0  0  0
  8 13  2  0  0  0  0
  8 21  1  0  0  0  0
  9 22  1  0  0  0  0
  9 23  1  0  0  0  0
  9 39  1  0  0  0  0
 10 11  1  0  0  0  0
 10 29  1  0  0  0  0
 10 30  1  0  0  0  0
 11 12  1  0  0  0  0
 11 14  2  0  0  0  0
 12 15  2  0  0  0  0
 12 16  1  0  0  0  0
 14 17  1  0  0  0  0
 14 31  1  0  0  0  0
 15 18  1  0  0  0  0
 15 32  1  0  0  0  0
 16 33  1  0  0  0  0
 16 34  1  0  0  0  0
 16 35  1  0  0  0  0
 17 18  2  0  0  0  0
 17 36  1  0  0  0  0
 18 37  1  0  0  0  0
 19 20  1  0  0  0  0
 19 22  1  0  0  0  0
 20 21  2  0  0  0  0
 21 38  1  0  0  0  0
 23 24  2  0  0  0  0
 23 25  1  0  0  0  0
 24 26  1  0  0  0  0
 24 40  1  0  0  0  0
 25 27  2  0  0  0  0
 25 41  1  0  0  0  0
 26 28  2  0  0  0  0
 26 42  1  0  0  0  0
 27 28  1  0  0  0  0
 27 43  1  0  0  0  0
M  END
> <PUBCHEM_COMPOUND_CID>
16452954

> <PUBCHEM_CONFORMER_RMSD>
0.8

> <PUBCHEM_CONFORMER_DIVERSEORDER>
5
177
93
169
127
178
77
157
102
42
154
161
58
122
81
168
88
31
15
126
106
182
9
160
113
135
149
41
140
131
107
70
172
152
124
96
121
166
51
150
100
181
171
95
91
173
40
144
84
105
61
97
134
176
153
139
158
56
136
156
180
165
49
10
159
94
82
170
45
30
117
64
109
32
87
146
19
60
112
54
145
184
23
133
142
120
147
55
123
92
175
73
39
68
114
33
103
27
148
90
108
72
44
1
164
163
129
46
85
14
174
118
62
57
52
59
125
47
89
67
79
86
138
74
183
48
101
119
25
179
18
132
99
34
116
104
50
76
66
98
111
115
6
80
110
78
13
12
63
167
38
8
11
137
16
130
71
26
36
28
65
53
162
24
155
69
21
29
35
83
3
151
141
2
75
143
128
17
4
7
20
22
37
43

> <PUBCHEM_MMFF94_PARTIAL_CHARGES>
38
1 -0.18
10 0.25
11 -0.14
12 -0.14
13 0.61
14 -0.15
15 -0.15
16 0.14
17 -0.15
18 -0.15
19 0.4
2 1.2
20 0.18
21 0.16
22 0.54
23 0.12
24 -0.15
25 -0.15
26 -0.15
27 -0.15
28 0.19
3 -0.19
31 0.15
32 0.15
36 0.15
37 0.15
38 0.15
39 0.37
4 -0.65
40 0.15
41 0.15
42 0.15
43 0.15
5 -0.65
6 -0.57
7 -0.62
8 -0.62
9 -0.55

> <PUBCHEM_EFFECTIVE_ROTOR_COUNT>
6

> <PUBCHEM_PHARMACOPHORE_FEATURES>
9
1 4 acceptor
1 5 acceptor
1 6 acceptor
1 7 acceptor
1 9 donor
3 7 8 13 cation
6 11 12 14 15 17 18 rings
6 23 24 25 26 27 28 rings
6 7 8 13 19 20 21 rings

> <PUBCHEM_HEAVY_ATOM_COUNT>
28

> <PUBCHEM_ATOM_DEF_STEREO_COUNT>
0

> <PUBCHEM_ATOM_UDEF_STEREO_COUNT>
0

> <PUBCHEM_BOND_DEF_STEREO_COUNT>
0

> <PUBCHEM_BOND_UDEF_STEREO_COUNT>
0

> <PUBCHEM_ISOTOPIC_ATOM_COUNT>
0

> <PUBCHEM_COMPONENT_COUNT>
1

> <PUBCHEM_CACTVS_TAUTO_COUNT>
2

> <PUBCHEM_CONFORMER_ID>
00FB0D5A00000005

> <PUBCHEM_MMFF94_ENERGY>
76.6783

> <PUBCHEM_FEATURE_SELFOVERLAP>
45.69

> <PUBCHEM_SHAPE_FINGERPRINT>
10074138 170 17749402507086885275
10319926 262 17531257131696821643
10439779 11 18339354275183692032
105312 117 18341328989197057584
10670039 82 17978243969481020700
10675989 125 18197783193504929633
10937287 8 18412825780929151719
11059845 2 18195783337363865114
12107183 9 18263065692241450258
12403259 415 18340217331423309163
12422481 6 17822003203480458116
12633257 1 15285643222016437002
12788726 201 17686914112304299606
13540713 4 18341911696064266494
13965767 371 18113329800186280998
14251764 30 9151167666926702001
14251764 75 18410856563961462305
14294032 229 18199472245655891411
144659 39 17967805050735246033
14848178 96 18342175523135525521
14849402 71 18122909728650088010
14904385 31 18408040706077611904
14950920 106 16806447096693222760
15439362 3 18341331085499820078
16120349 189 18408317804677099597
16988056 13 17689430486493026175
17810953 82 18409731729470402324
19246450 95 17609457620401393480
1979834 28 18187938218319873061
20238998 120 17763459922283609983
20715895 44 18412260597592522424
21033648 29 18335710428902329871
21302155 148 18262243334125472668
21388113 180 18409730629948198961
21401589 2 18408041819021780883
23559900 14 18120661236488838699
23569914 2 16698327746675442120
2748736 6 18341040865579935041
3246875 12 18410856573521840707
3459 39 18270671078130952032
376196 1 18412546491948870110
508706 21 18268435818088669542
5219985 13 18411982476800465023
6327066 14 18409441501403005501
6371009 1 18192702565221496373
6700243 42 17334534933859567718
7808743 9 18337951302324495520
9849439 229 18409450284536941605
9896288 288 18118121596694470154
9981440 41 18409167735929573403

> <PUBCHEM_SHAPE_MULTIPOLES>
542.12
15.03
5.53
1.22
0.71
3.97
-0.02
-20.75
3.22
3.88
-0.88
-0.31
-0.36
0.83

> <PUBCHEM_SHAPE_SELFOVERLAP>
1154.588

> <PUBCHEM_SHAPE_VOLUME>
305

> <PUBCHEM_COORDINATE_TYPE>
2
5
10

$$$$
