6374709
  -OEChem-01171809313D

 39 41  0     0  0  0  0  0  0999 V2000
    2.9634    0.1203    0.7223 O   0  0  0  0  0  0  0  0  0  0  0  0
   -0.7821    2.8171   -1.3274 O   0  0  0  0  0  0  0  0  0  0  0  0
    0.1564    0.0320    0.7260 N   0  0  0  0  0  0  0  0  0  0  0  0
    0.6290    0.0347   -2.8900 N   0  0  0  0  0  0  0  0  0  0  0  0
    0.0949   -4.2324   -1.5935 N   0  0  0  0  0  0  0  0  0  0  0  0
    0.3555    1.1184   -0.0947 C   0  0  0  0  0  0  0  0  0  0  0  0
    0.1049   -1.3108    0.2453 C   0  0  0  0  0  0  0  0  0  0  0  0
   -0.8622    1.8098   -0.6307 C   0  0  0  0  0  0  0  0  0  0  0  0
    1.5241    1.6828   -0.4513 C   0  0  0  0  0  0  0  0  0  0  0  0
   -0.0053    0.2457    2.1036 C   0  0  0  0  0  0  0  0  0  0  0  0
   -2.1990    1.2643   -0.2939 C   0  0  0  0  0  0  0  0  0  0  0  0
   -0.1164   -2.3711    1.2476 C   0  0  0  0  0  0  0  0  0  0  0  0
    2.8519    1.2005   -0.0452 C   0  0  0  0  0  0  0  0  0  0  0  0
   -0.2063   -0.7236    3.0082 C   0  0  0  0  0  0  0  0  0  0  0  0
   -0.2629   -2.0895    2.5521 C   0  0  0  0  0  0  0  0  0  0  0  0
   -2.8391    1.7167    0.8430 C   0  0  0  0  0  0  0  0  0  0  0  0
   -2.7657    0.3199   -1.1270 C   0  0  0  0  0  0  0  0  0  0  0  0
    0.2378   -1.7162   -1.0337 C   0  0  0  0  0  0  0  0  0  0  0  0
    4.0214    1.7637   -0.3871 C   0  0  0  0  0  0  0  0  0  0  0  0
   -4.0969    1.2038    1.1600 C   0  0  0  0  0  0  0  0  0  0  0  0
   -4.0235   -0.1929   -0.8100 C   0  0  0  0  0  0  0  0  0  0  0  0
   -4.6891    0.2490    0.3335 C   0  0  0  0  0  0  0  0  0  0  0  0
    4.9958    0.9475    0.2354 C   0  0  0  0  0  0  0  0  0  0  0  0
    4.3016   -0.0381    0.8977 C   0  0  0  0  0  0  0  0  0  0  0  0
    0.4532   -0.7493   -2.0526 C   0  0  0  0  0  0  0  0  0  0  0  0
    0.1585   -3.1023   -1.3375 C   0  0  0  0  0  0  0  0  0  0  0  0
    1.5463    2.5606   -1.0932 H   0  0  0  0  0  0  0  0  0  0  0  0
    0.0479    1.2862    2.4101 H   0  0  0  0  0  0  0  0  0  0  0  0
   -0.1717   -3.4213    0.9856 H   0  0  0  0  0  0  0  0  0  0  0  0
   -0.3241   -0.5089    4.0629 H   0  0  0  0  0  0  0  0  0  0  0  0
   -0.4253   -2.8724    3.2840 H   0  0  0  0  0  0  0  0  0  0  0  0
   -2.3852    2.4624    1.4891 H   0  0  0  0  0  0  0  0  0  0  0  0
   -2.2722   -0.0157   -2.0322 H   0  0  0  0  0  0  0  0  0  0  0  0
    4.1930    2.6391   -0.9973 H   0  0  0  0  0  0  0  0  0  0  0  0
   -4.6154    1.5484    2.0499 H   0  0  0  0  0  0  0  0  0  0  0  0
   -4.4870   -0.9324   -1.4564 H   0  0  0  0  0  0  0  0  0  0  0  0
   -5.6690   -0.1494    0.5794 H   0  0  0  0  0  0  0  0  0  0  0  0
    6.0696    1.0628    0.2049 H   0  0  0  0  0  0  0  0  0  0  0  0
    4.5964   -0.8807    1.5060 H   0  0  0  0  0  0  0  0  0  0  0  0
  1 13  1  0  0  0  0
  1 24  1  0  0  0  0
  2  8  2  0  0  0  0
  3  6  1  0  0  0  0
  3  7  1  0  0  0  0
  3 10  1  0  0  0  0
  4 25  3  0  0  0  0
  5 26  3  0  0  0  0
  6  8  1  0  0  0  0
  6  9  2  0  0  0  0
  7 12  1  0  0  0  0
  7 18  2  0  0  0  0
  8 11  1  0  0  0  0
  9 13  1  0  0  0  0
  9 27  1  0  0  0  0
 10 14  2  0  0  0  0
 10 28  1  0  0  0  0
 11 16  2  0  0  0  0
 11 17  1  0  0  0  0
 12 15  2  0  0  0  0
 12 29  1  0  0  0  0
 13 19  2  0  0  0  0
 14 15  1  0  0  0  0
 14 30  1  0  0  0  0
 15 31  1  0  0  0  0
 16 20  1  0  0  0  0
 16 32  1  0  0  0  0
 17 21  2  0  0  0  0
 17 33  1  0  0  0  0
 18 25  1  0  0  0  0
 18 26  1  0  0  0  0
 19 23  1  0  0  0  0
 19 34  1  0  0  0  0
 20 22  2  0  0  0  0
 20 35  1  0  0  0  0
 21 22  1  0  0  0  0
 21 36  1  0  0  0  0
 22 37  1  0  0  0  0
 23 24  2  0  0  0  0
 23 38  1  0  0  0  0
 24 39  1  0  0  0  0
M  END
> <PUBCHEM_COMPOUND_CID>
6374709

> <PUBCHEM_CONFORMER_RMSD>
0.8

> <PUBCHEM_CONFORMER_DIVERSEORDER>
1
4
9
16
13
10
15
6
7
14
11
5
8
12
2
3

> <PUBCHEM_MMFF94_PARTIAL_CHARGES>
39
1 -0.28
10 -0.05
11 0.09
12 -0.15
13 0.09
14 -0.15
15 -0.15
16 -0.15
17 -0.15
18 0.13
19 -0.15
2 -0.57
20 -0.15
21 -0.15
22 -0.15
23 -0.15
24 -0.01
25 0.49
26 0.49
27 0.15
28 0.15
29 0.15
3 -0.3
30 0.15
31 0.15
32 0.15
33 0.15
34 0.15
35 0.15
36 0.15
37 0.15
38 0.15
39 0.15
4 -0.56
5 -0.56
6 0.11
7 0.1
8 0.47
9 -0.11

> <PUBCHEM_EFFECTIVE_ROTOR_COUNT>
4.2

> <PUBCHEM_PHARMACOPHORE_FEATURES>
8
1 1 acceptor
1 2 acceptor
1 3 cation
1 4 acceptor
1 5 acceptor
5 1 13 19 23 24 rings
6 11 16 17 20 21 22 rings
6 3 7 10 12 14 15 rings

> <PUBCHEM_HEAVY_ATOM_COUNT>
26

> <PUBCHEM_ATOM_DEF_STEREO_COUNT>
0

> <PUBCHEM_ATOM_UDEF_STEREO_COUNT>
0

> <PUBCHEM_BOND_DEF_STEREO_COUNT>
1

> <PUBCHEM_BOND_UDEF_STEREO_COUNT>
0

> <PUBCHEM_ISOTOPIC_ATOM_COUNT>
0

> <PUBCHEM_COMPONENT_COUNT>
1

> <PUBCHEM_CACTVS_TAUTO_COUNT>
1

> <PUBCHEM_CONFORMER_ID>
0061453500000001

> <PUBCHEM_MMFF94_ENERGY>
95.7662

> <PUBCHEM_FEATURE_SELFOVERLAP>
40.598

> <PUBCHEM_SHAPE_FINGERPRINT>
10863032 1 18342172293161941098
11421498 54 17917437488925358921
11488393 25 18122902027784360138
12592029 89 18201162061735694606
12788726 201 17835797873999629102
12930653 34 17459741528288305389
133893 2 17486244165507164966
14251757 17 15410602735619182338
14713325 29 18268994365458363075
14787075 74 17895191151179389001
15209289 33 18202559614002908545
16945 1 18041273266751878920
19930381 70 17981324487450971022
20567600 347 18408895014064426471
20602899 9 17917722326581919130
20691752 17 18188788145012998389
20905425 154 17826502267564042656
21421861 104 17607238754328757961
23227448 37 17097221755884741484
23419403 2 17763229861473708946
298252 57 18341324573976101562
3027735 51 12102752729751803692
394222 165 17416978222290295686
4340502 62 17845949459042917201
5845 1 10836336864571246111
81228 2 17758374645827048120

> <PUBCHEM_SHAPE_MULTIPOLES>
508.39
6.83
3.18
2.41
1.59
2.89
-0.53
-4.5
-1
0.09
1.19
-0.25
1.44
-0.17

> <PUBCHEM_SHAPE_SELFOVERLAP>
1122.759

> <PUBCHEM_SHAPE_VOLUME>
266.8

> <PUBCHEM_COORDINATE_TYPE>
2
5
10

$$$$
