4355998
  -OEChem-01171809483D

 43 44  0     0  0  0  0  0  0999 V2000
   -6.8860    0.7058    0.8445 O   0  0  0  0  0  0  0  0  0  0  0  0
    2.3627    0.0812   -0.7656 O   0  0  0  0  0  0  0  0  0  0  0  0
    0.1462    1.5334   -0.7990 O   0  0  0  0  0  0  0  0  0  0  0  0
    3.3421    2.1886   -0.4270 O   0  5  0  0  0  0  0  0  0  0  0  0
    5.2810    2.4932    0.5564 O   0  0  0  0  0  0  0  0  0  0  0  0
   -3.5961   -0.3143   -0.5085 N   0  0  0  0  0  0  0  0  0  0  0  0
    5.5959   -0.1553    0.9338 N   0  0  0  0  0  0  0  0  0  0  0  0
    4.3657    1.7524    0.1402 N   0  3  0  0  0  0  0  0  0  0  0  0
   -2.5338    0.5439   -0.6226 C   0  0  0  0  0  0  0  0  0  0  0  0
   -3.1374   -1.6016   -0.4038 C   0  0  0  0  0  0  0  0  0  0  0  0
   -1.4145   -0.2207   -0.5869 C   0  0  0  0  0  0  0  0  0  0  0  0
   -4.9898    0.0778   -0.5006 C   0  0  0  0  0  0  0  0  0  0  0  0
   -1.7613   -1.5642   -0.4507 C   0  0  0  0  0  0  0  0  0  0  0  0
   -2.7200    2.0055   -0.7526 C   0  0  0  0  0  0  0  0  0  0  0  0
   -5.5068    0.3656    0.9025 C   0  0  0  0  0  0  0  0  0  0  0  0
   -4.0487   -2.7564   -0.2677 C   0  0  0  0  0  0  0  0  0  0  0  0
   -0.0489    0.3227   -0.6807 C   0  0  0  0  0  0  0  0  0  0  0  0
    1.1336   -0.6323   -0.6289 C   0  0  0  0  0  0  0  0  0  0  0  0
    3.4564   -0.4453   -0.1543 C   0  0  0  0  0  0  0  0  0  0  0  0
   -7.4121    0.9719    2.1373 C   0  0  0  0  0  0  0  0  0  0  0  0
    4.4955    0.3377    0.3223 C   0  0  0  0  0  0  0  0  0  0  0  0
    3.5527   -1.8230    0.0073 C   0  0  0  0  0  0  0  0  0  0  0  0
    4.6694   -2.3679    0.6316 C   0  0  0  0  0  0  0  0  0  0  0  0
    5.6542   -1.4988    1.0729 C   0  0  0  0  0  0  0  0  0  0  0  0
   -5.1317    0.9382   -1.1634 H   0  0  0  0  0  0  0  0  0  0  0  0
   -5.5819   -0.7203   -0.9632 H   0  0  0  0  0  0  0  0  0  0  0  0
   -1.1102   -2.4255   -0.3912 H   0  0  0  0  0  0  0  0  0  0  0  0
   -3.6976    2.3595   -0.4170 H   0  0  0  0  0  0  0  0  0  0  0  0
   -1.9913    2.5493   -0.1430 H   0  0  0  0  0  0  0  0  0  0  0  0
   -2.5905    2.3118   -1.7957 H   0  0  0  0  0  0  0  0  0  0  0  0
   -5.3771   -0.5140    1.5441 H   0  0  0  0  0  0  0  0  0  0  0  0
   -4.9461    1.1943    1.3511 H   0  0  0  0  0  0  0  0  0  0  0  0
   -4.6545   -2.8860   -1.1702 H   0  0  0  0  0  0  0  0  0  0  0  0
   -4.7158   -2.6420    0.5917 H   0  0  0  0  0  0  0  0  0  0  0  0
   -3.4819   -3.6819   -0.1187 H   0  0  0  0  0  0  0  0  0  0  0  0
    1.0721   -1.1422    0.3409 H   0  0  0  0  0  0  0  0  0  0  0  0
    1.0446   -1.3449   -1.4559 H   0  0  0  0  0  0  0  0  0  0  0  0
   -7.3300    0.0864    2.7751 H   0  0  0  0  0  0  0  0  0  0  0  0
   -8.4696    1.2287    2.0324 H   0  0  0  0  0  0  0  0  0  0  0  0
   -6.8917    1.8177    2.5971 H   0  0  0  0  0  0  0  0  0  0  0  0
    2.7974   -2.5096   -0.3627 H   0  0  0  0  0  0  0  0  0  0  0  0
    4.7695   -3.4392    0.7626 H   0  0  0  0  0  0  0  0  0  0  0  0
    6.5459   -1.8735    1.5646 H   0  0  0  0  0  0  0  0  0  0  0  0
  1 15  1  0  0  0  0
  1 20  1  0  0  0  0
  2 18  1  0  0  0  0
  2 19  1  0  0  0  0
  3 17  2  0  0  0  0
  4  8  1  0  0  0  0
  5  8  2  0  0  0  0
  6  9  1  0  0  0  0
  6 10  1  0  0  0  0
  6 12  1  0  0  0  0
  7 21  1  0  0  0  0
  7 24  2  0  0  0  0
  8 21  1  0  0  0  0
  9 11  2  0  0  0  0
  9 14  1  0  0  0  0
 10 13  2  0  0  0  0
 10 16  1  0  0  0  0
 11 13  1  0  0  0  0
 11 17  1  0  0  0  0
 12 15  1  0  0  0  0
 12 25  1  0  0  0  0
 12 26  1  0  0  0  0
 13 27  1  0  0  0  0
 14 28  1  0  0  0  0
 14 29  1  0  0  0  0
 14 30  1  0  0  0  0
 15 31  1  0  0  0  0
 15 32  1  0  0  0  0
 16 33  1  0  0  0  0
 16 34  1  0  0  0  0
 16 35  1  0  0  0  0
 17 18  1  0  0  0  0
 18 36  1  0  0  0  0
 18 37  1  0  0  0  0
 19 21  2  0  0  0  0
 19 22  1  0  0  0  0
 20 38  1  0  0  0  0
 20 39  1  0  0  0  0
 20 40  1  0  0  0  0
 22 23  2  0  0  0  0
 22 41  1  0  0  0  0
 23 24  1  0  0  0  0
 23 42  1  0  0  0  0
 24 43  1  0  0  0  0
M  CHG  2   4  -1   8   1
M  END
> <PUBCHEM_COMPOUND_CID>
4355998

> <PUBCHEM_CONFORMER_RMSD>
1

> <PUBCHEM_CONFORMER_DIVERSEORDER>
1
571
393
5
254
288
44
118
579
160
150
147
433
688
329
478
256
663
68
723
14
639
212
643
336
31
531
368
213
23
97
168
159
469
52
4
674
86
583
21
158
192
218
387
448
197
348
98
489
415
24
421
412
12
257
28
517
265
175
604
312
381
3
453
618
272
704
115
572
656
61
33
78
6
7
20
479
55
679
680
694
173
255
672
123
309
184
38
522
338
47
42
411
64
163
520
252
496
384
154
500
361
616
46
82
600
149
228
219
320
476
425
75
162
461
119
142
57
206
199
231
50
229
503
11
402
185
721
165
563
37
314
330
8
294
562
65
584
238
647
660
287
152
441
27
104
717
625
129
62
102
170
546
101
103
220
178
439
51
576
166
541
378
19
84
432
459
407
53
286
686
295
40
171
67
34
73

> <PUBCHEM_MMFF94_PARTIAL_CHARGES>
28
1 -0.56
10 -0.33
11 -0.09
12 0.26
13 -0.15
14 0.18
15 0.28
16 0.18
17 0.6
18 0.34
19 0.08
2 -0.36
20 0.28
21 0.44
22 -0.15
23 -0.15
24 0.16
27 0.15
3 -0.57
4 -0.52
41 0.15
42 0.15
43 0.15
5 -0.52
6 0.05
7 -0.62
8 0.91
9 -0.33

> <PUBCHEM_EFFECTIVE_ROTOR_COUNT>
8

> <PUBCHEM_PHARMACOPHORE_FEATURES>
10
1 1 acceptor
1 2 acceptor
1 3 acceptor
1 4 acceptor
1 4 anion
1 5 acceptor
1 6 cation
1 7 acceptor
5 6 9 10 11 13 rings
6 7 19 21 22 23 24 rings

> <PUBCHEM_HEAVY_ATOM_COUNT>
24

> <PUBCHEM_ATOM_DEF_STEREO_COUNT>
0

> <PUBCHEM_ATOM_UDEF_STEREO_COUNT>
0

> <PUBCHEM_BOND_DEF_STEREO_COUNT>
0

> <PUBCHEM_BOND_UDEF_STEREO_COUNT>
0

> <PUBCHEM_ISOTOPIC_ATOM_COUNT>
0

> <PUBCHEM_COMPONENT_COUNT>
1

> <PUBCHEM_CACTVS_TAUTO_COUNT>
2

> <PUBCHEM_CONFORMER_ID>
0042779E00000001

> <PUBCHEM_MMFF94_ENERGY>
63.1017

> <PUBCHEM_FEATURE_SELFOVERLAP>
50.887

> <PUBCHEM_SHAPE_FINGERPRINT>
10 15 18409456899261415609
10906281 52 17703523146607691493
11405975 8 18410852161757003674
117890 112 17203329988062691835
12107183 9 17978504231292372922
12596602 18 18411142450497255939
12616971 3 18272360975762626630
13073987 5 18339361984755262319
13167823 11 18336536179789886710
13533116 47 18260830367357835490
13540713 5 18192722365685180887
13668630 136 14490473054281564986
13782708 43 15140970599379152809
14251764 18 18272933843465459983
14341114 176 18409165494003824868
14849402 71 18264199374972320368
15196674 1 18336540607605652982
15238133 3 17203327797207319688
15348495 7 18187932810944926139
15475509 35 16878210971509301498
17492 89 18409441484476818134
17844677 252 18408884001752429476
17980427 23 18201439225035012253
1813 80 16805038515023904468
19141452 34 18410292523566532087
21033648 29 16845276238222383290
21065198 48 18341046423341085790
21065198 57 18336818702764491342
21130935 74 18410857672627910299
21150785 3 10663809768359335753
21267235 1 18261114015872853958
21424621 283 15912782575038440883
21637258 2 15068628236261611497
21792934 111 18260265210377033405
21859007 373 17751347392589836213
220451 1 18334298686169126454
22122407 14 16702303485772256371
22224240 67 18340778066375898699
23081809 10 18060695117797119679
23559900 14 18409156719512148774
312425 54 18334857242318412571
3663271 9 18341333379070560683
3680242 22 18410863161279271953
4073 2 18114182007676320074
4214541 1 18336256860691027862
5104073 3 18338517542497432179
5924683 9 18270389603196939535
9709674 26 18260265287259098578

> <PUBCHEM_SHAPE_MULTIPOLES>
449.62
17.46
2.51
1.16
8.1
0.18
0.48
-1.74
9.93
-1.7
-0.03
1.45
-0.19
-1.34

> <PUBCHEM_SHAPE_SELFOVERLAP>
948.341

> <PUBCHEM_SHAPE_VOLUME>
253.7

> <PUBCHEM_COORDINATE_TYPE>
2
5
10

$$$$
