3865136
  -OEChem-01171809373D

 40 41  0     0  0  0  0  0  0999 V2000
   -6.6465   -1.0075    0.8815 Cl  0  0  0  0  0  0  0  0  0  0  0  0
    1.6808    1.1317    1.2599 S   0  0  0  0  0  0  0  0  0  0  0  0
    2.3059    2.4284    1.1094 O   0  0  0  0  0  0  0  0  0  0  0  0
    1.3871    0.5936    2.5712 O   0  0  0  0  0  0  0  0  0  0  0  0
   -4.7373   -0.0754   -1.2971 O   0  0  0  0  0  0  0  0  0  0  0  0
    2.5745   -0.0274    0.3698 N   0  0  0  0  0  0  0  0  0  0  0  0
   -3.0586   -0.5929    0.2693 N   0  0  0  0  0  0  0  0  0  0  0  0
    1.9697   -1.3885    0.2860 C   0  0  0  0  0  0  0  0  0  0  0  0
    3.1155    0.4324   -0.9401 C   0  0  0  0  0  0  0  0  0  0  0  0
    3.0445   -2.4694    0.3180 C   0  0  0  0  0  0  0  0  0  0  0  0
    4.6097    0.1567   -1.0285 C   0  0  0  0  0  0  0  0  0  0  0  0
    4.0959   -2.3734   -0.7911 C   0  0  0  0  0  0  0  0  0  0  0  0
    5.0834   -1.2268   -0.5781 C   0  0  0  0  0  0  0  0  0  0  0  0
    0.1802    1.1452    0.3299 C   0  0  0  0  0  0  0  0  0  0  0  0
   -0.8382    0.2710    0.6726 C   0  0  0  0  0  0  0  0  0  0  0  0
    0.0465    2.0296   -0.7278 C   0  0  0  0  0  0  0  0  0  0  0  0
   -2.0233    0.2814   -0.0629 C   0  0  0  0  0  0  0  0  0  0  0  0
   -1.1386    2.0402   -1.4634 C   0  0  0  0  0  0  0  0  0  0  0  0
   -2.1735    1.1661   -1.1309 C   0  0  0  0  0  0  0  0  0  0  0  0
   -4.3101   -0.7267   -0.3475 C   0  0  0  0  0  0  0  0  0  0  0  0
   -5.1676   -1.7883    0.2999 C   0  0  0  0  0  0  0  0  0  0  0  0
    1.3553   -1.4867   -0.6160 H   0  0  0  0  0  0  0  0  0  0  0  0
    1.3187   -1.5720    1.1465 H   0  0  0  0  0  0  0  0  0  0  0  0
    2.9656    1.5055   -1.0905 H   0  0  0  0  0  0  0  0  0  0  0  0
    2.5889   -0.0572   -1.7677 H   0  0  0  0  0  0  0  0  0  0  0  0
    2.5465   -3.4436    0.2367 H   0  0  0  0  0  0  0  0  0  0  0  0
    3.5444   -2.4597    1.2949 H   0  0  0  0  0  0  0  0  0  0  0  0
    5.1519    0.9081   -0.4399 H   0  0  0  0  0  0  0  0  0  0  0  0
    4.9192    0.3145   -2.0696 H   0  0  0  0  0  0  0  0  0  0  0  0
    3.6234   -2.3108   -1.7779 H   0  0  0  0  0  0  0  0  0  0  0  0
    4.6676   -3.3103   -0.7794 H   0  0  0  0  0  0  0  0  0  0  0  0
    5.3654   -1.1820    0.4816 H   0  0  0  0  0  0  0  0  0  0  0  0
    6.0107   -1.4540   -1.1193 H   0  0  0  0  0  0  0  0  0  0  0  0
   -0.7329   -0.4174    1.5062 H   0  0  0  0  0  0  0  0  0  0  0  0
    0.8379    2.7191   -1.0041 H   0  0  0  0  0  0  0  0  0  0  0  0
   -1.2543    2.7293   -2.2951 H   0  0  0  0  0  0  0  0  0  0  0  0
   -3.0583    1.2332   -1.7479 H   0  0  0  0  0  0  0  0  0  0  0  0
   -2.8651   -1.2060    1.0581 H   0  0  0  0  0  0  0  0  0  0  0  0
   -4.6759   -2.2726    1.1467 H   0  0  0  0  0  0  0  0  0  0  0  0
   -5.4303   -2.5451   -0.4443 H   0  0  0  0  0  0  0  0  0  0  0  0
  1 21  1  0  0  0  0
  2  3  2  0  0  0  0
  2  4  2  0  0  0  0
  2  6  1  0  0  0  0
  2 14  1  0  0  0  0
  5 20  2  0  0  0  0
  6  8  1  0  0  0  0
  6  9  1  0  0  0  0
  7 17  1  0  0  0  0
  7 20  1  0  0  0  0
  7 38  1  0  0  0  0
  8 10  1  0  0  0  0
  8 22  1  0  0  0  0
  8 23  1  0  0  0  0
  9 11  1  0  0  0  0
  9 24  1  0  0  0  0
  9 25  1  0  0  0  0
 10 12  1  0  0  0  0
 10 26  1  0  0  0  0
 10 27  1  0  0  0  0
 11 13  1  0  0  0  0
 11 28  1  0  0  0  0
 11 29  1  0  0  0  0
 12 13  1  0  0  0  0
 12 30  1  0  0  0  0
 12 31  1  0  0  0  0
 13 32  1  0  0  0  0
 13 33  1  0  0  0  0
 14 15  1  0  0  0  0
 14 16  2  0  0  0  0
 15 17  2  0  0  0  0
 15 34  1  0  0  0  0
 16 18  1  0  0  0  0
 16 35  1  0  0  0  0
 17 19  1  0  0  0  0
 18 19  2  0  0  0  0
 18 36  1  0  0  0  0
 19 37  1  0  0  0  0
 20 21  1  0  0  0  0
 21 39  1  0  0  0  0
 21 40  1  0  0  0  0
M  END
> <PUBCHEM_COMPOUND_CID>
3865136

> <PUBCHEM_CONFORMER_RMSD>
0.8

> <PUBCHEM_CONFORMER_DIVERSEORDER>
3
24
55
41
65
64
45
44
49
75
9
32
21
17
90
33
28
36
26
59
69
40
12
66
29
80
74
35
60
52
4
7
84
88
38
51
83
67
91
54
72
82
8
89
16
53
10
5
25
56
77
58
2
27
30
62
11
31
63
81
42
79
73
93
71
92
48
87
6
78
20
19
85
94
57
15
76
39
46
47
13
18
70
68
61
14
34
86
43
1
37
22
50
23

> <PUBCHEM_MMFF94_PARTIAL_CHARGES>
22
1 -0.29
14 -0.01
15 -0.15
16 -0.15
17 0.12
18 -0.15
19 -0.15
2 1.45
20 0.57
21 0.35
3 -0.65
34 0.15
35 0.15
36 0.15
37 0.15
38 0.37
4 -0.65
5 -0.57
6 -0.85
7 -0.55
8 0.36
9 0.36

> <PUBCHEM_EFFECTIVE_ROTOR_COUNT>
6.4

> <PUBCHEM_PHARMACOPHORE_FEATURES>
6
1 3 acceptor
1 4 acceptor
1 5 acceptor
1 7 donor
6 14 15 16 17 18 19 rings
7 6 8 9 10 11 12 13 rings

> <PUBCHEM_HEAVY_ATOM_COUNT>
21

> <PUBCHEM_ATOM_DEF_STEREO_COUNT>
0

> <PUBCHEM_ATOM_UDEF_STEREO_COUNT>
0

> <PUBCHEM_BOND_DEF_STEREO_COUNT>
0

> <PUBCHEM_BOND_UDEF_STEREO_COUNT>
0

> <PUBCHEM_ISOTOPIC_ATOM_COUNT>
0

> <PUBCHEM_COMPONENT_COUNT>
1

> <PUBCHEM_CACTVS_TAUTO_COUNT>
2

> <PUBCHEM_CONFORMER_ID>
003AFA3000000003

> <PUBCHEM_MMFF94_ENERGY>
41.0576

> <PUBCHEM_FEATURE_SELFOVERLAP>
30.465

> <PUBCHEM_SHAPE_FINGERPRINT>
12553582 1 18042111202471749207
12596602 18 15482662507274614223
12633257 1 16988562424769662543
12670546 177 17458344134660198413
12778500 126 17703243866316889843
12824470 246 18200035023736254984
13103583 49 17346329202059635227
13402501 40 18408327687534588431
13464513 79 18343304790412883198
13533116 47 18130226068690421579
13955234 65 18058164114828665488
14251758 9 15769780113645431321
14251764 30 17346046567368051694
14252887 29 18261948661014721121
15061688 2 8574706897121370093
15537594 2 18343022220088026895
15664445 248 17676486193840039844
17492 54 18043271187354922556
17492 89 18118965785185089738
17980427 23 11311474901608189192
1813 80 17603581959206424989
19784866 140 17530966882407639401
20281475 54 18339924792810875432
20626108 58 17751345193793290506
20645477 70 18409444829722727827
20871999 31 18040996189879773229
21033650 10 16443623481065325989
21403212 168 10879717516140614286
21521721 280 18199472237355984040
21713013 43 18262801740187663326
2215653 11 18409439290048573983
22182313 1 18264463183619394869
22950370 63 18335145280442546191
23557571 272 18114729491157368920
23559900 14 18261101959493420605
23622692 88 14261352453119271360
239999 70 17823131383840685945
2838139 119 10953740044837308879
2871803 45 18187646881950199926
314194 84 18131068220913584047
3286 77 18131630079965826272
329604 57 18335424530642457086
3323516 105 18411416211522570752
33382 64 18413113844295750746
345986 75 17560520599326334763
351380 180 9799693684021407519
46194498 28 17386292115906584879
465052 167 18059863878089896199
8509985 295 11743844642291145710

> <PUBCHEM_SHAPE_MULTIPOLES>
410.32
12.03
2.49
1.47
13.17
0.21
0.54
9.02
-1.6
-1.32
-0.2
-0.39
-0.59
1.34

> <PUBCHEM_SHAPE_SELFOVERLAP>
821.593

> <PUBCHEM_SHAPE_VOLUME>
240.6

> <PUBCHEM_COORDINATE_TYPE>
2
5
10

$$$$
