72699
  -OEChem-01171809313D

 25 26  0     0  0  0  0  0  0999 V2000
   -1.5069   -2.4938    0.1471 O   0  0  0  0  0  0  0  0  0  0  0  0
   -3.2943   -0.6892   -0.6127 O   0  0  0  0  0  0  0  0  0  0  0  0
   -2.9138    1.3899    0.3441 N   0  0  0  0  0  0  0  0  0  0  0  0
   -4.2530    1.7290    0.3225 N   0  0  0  0  0  0  0  0  0  0  0  0
    1.2177    0.6569   -0.0789 C   0  0  0  0  0  0  0  0  0  0  0  0
    1.6764   -0.6739    0.0679 C   0  0  0  0  0  0  0  0  0  0  0  0
   -1.0785   -0.1463   -0.0716 C   0  0  0  0  0  0  0  0  0  0  0  0
   -0.1632    0.9038   -0.1471 C   0  0  0  0  0  0  0  0  0  0  0  0
    0.7408   -1.7185    0.1423 C   0  0  0  0  0  0  0  0  0  0  0  0
   -0.6274   -1.4550    0.0728 C   0  0  0  0  0  0  0  0  0  0  0  0
    2.1534    1.7016   -0.1533 C   0  0  0  0  0  0  0  0  0  0  0  0
    3.0573   -0.9208    0.1362 C   0  0  0  0  0  0  0  0  0  0  0  0
    3.5217    1.4380   -0.0838 C   0  0  0  0  0  0  0  0  0  0  0  0
    3.9727    0.1294    0.0607 C   0  0  0  0  0  0  0  0  0  0  0  0
   -2.5028    0.1488   -0.1462 C   0  0  0  0  0  0  0  0  0  0  0  0
   -0.4954    1.9298   -0.2909 H   0  0  0  0  0  0  0  0  0  0  0  0
    1.0779   -2.7475    0.2551 H   0  0  0  0  0  0  0  0  0  0  0  0
    1.8242    2.7324   -0.2661 H   0  0  0  0  0  0  0  0  0  0  0  0
    3.4326   -1.9358    0.2492 H   0  0  0  0  0  0  0  0  0  0  0  0
    4.2349    2.2550   -0.1425 H   0  0  0  0  0  0  0  0  0  0  0  0
    5.0381   -0.0751    0.1149 H   0  0  0  0  0  0  0  0  0  0  0  0
   -2.2802    2.0518    0.7801 H   0  0  0  0  0  0  0  0  0  0  0  0
   -2.4201   -2.1695    0.1902 H   0  0  0  0  0  0  0  0  0  0  0  0
   -4.5251    1.9193    1.2860 H   0  0  0  0  0  0  0  0  0  0  0  0
   -4.3242    2.6180   -0.1708 H   0  0  0  0  0  0  0  0  0  0  0  0
  1 10  1  0  0  0  0
  1 23  1  0  0  0  0
  2 15  2  0  0  0  0
  3  4  1  0  0  0  0
  3 15  1  0  0  0  0
  3 22  1  0  0  0  0
  4 24  1  0  0  0  0
  4 25  1  0  0  0  0
  5  6  1  0  0  0  0
  5  8  1  0  0  0  0
  5 11  2  0  0  0  0
  6  9  1  0  0  0  0
  6 12  2  0  0  0  0
  7  8  2  0  0  0  0
  7 10  1  0  0  0  0
  7 15  1  0  0  0  0
  8 16  1  0  0  0  0
  9 10  2  0  0  0  0
  9 17  1  0  0  0  0
 11 13  1  0  0  0  0
 11 18  1  0  0  0  0
 12 14  1  0  0  0  0
 12 19  1  0  0  0  0
 13 14  2  0  0  0  0
 13 20  1  0  0  0  0
 14 21  1  0  0  0  0
M  END
> <PUBCHEM_COMPOUND_CID>
72699

> <PUBCHEM_CONFORMER_RMSD>
0.6

> <PUBCHEM_CONFORMER_DIVERSEORDER>
1
2

> <PUBCHEM_MMFF94_PARTIAL_CHARGES>
23
1 -0.53
10 0.08
11 -0.15
12 -0.15
13 -0.15
14 -0.15
15 0.54
16 0.15
17 0.15
18 0.15
19 0.15
2 -0.57
20 0.15
21 0.15
22 0.37
23 0.45
24 0.36
25 0.36
3 -0.42
4 -0.73
7 0.09
8 -0.15
9 -0.15

> <PUBCHEM_EFFECTIVE_ROTOR_COUNT>
2

> <PUBCHEM_PHARMACOPHORE_FEATURES>
6
1 1 donor
1 2 acceptor
1 3 donor
1 4 donor
6 5 6 11 12 13 14 rings
6 5 6 7 8 9 10 rings

> <PUBCHEM_HEAVY_ATOM_COUNT>
15

> <PUBCHEM_ATOM_DEF_STEREO_COUNT>
0

> <PUBCHEM_ATOM_UDEF_STEREO_COUNT>
0

> <PUBCHEM_BOND_DEF_STEREO_COUNT>
0

> <PUBCHEM_BOND_UDEF_STEREO_COUNT>
0

> <PUBCHEM_ISOTOPIC_ATOM_COUNT>
0

> <PUBCHEM_COMPONENT_COUNT>
1

> <PUBCHEM_CACTVS_TAUTO_COUNT>
7

> <PUBCHEM_CONFORMER_ID>
00011BFB00000001

> <PUBCHEM_MMFF94_ENERGY>
46.0117

> <PUBCHEM_FEATURE_SELFOVERLAP>
31.978

> <PUBCHEM_SHAPE_FINGERPRINT>
10465860 228 18198069066670251081
10608611 8 18340203115271242608
10967382 1 18337953376951974220
10980938 120 18333727992574065626
11132069 177 18341325622058871992
11471102 20 18337387136911244500
11543360 7 16128361718560285580
12491281 212 18335707186365480296
12932764 1 17313089865818487318
13140716 1 18335416889784549658
13380535 21 18335429001492123198
13380535 76 18410853282770036630
14144814 61 18408884048859750664
14325111 11 18410574002378962028
14897335 6 18410569621691564238
15196674 1 18410573989720777004
15442244 35 18410007707046976290
15536298 74 18343019978346621766
15775835 57 18410015416096547645
16945 1 18335132064643696414
18186145 218 18410571747616103412
20510252 161 18125445464556536362
21267235 1 18410018766334796190
21501502 16 18335979891251204382
21524375 3 18411697673487817959
2334 1 18192149528147441718
23402539 116 18273205387871289884
23402655 69 18342734113491536629
23463225 33 18334853922672247310
23559900 14 18343303678781172932
25 1 18409728422107739852
2748010 2 18265054815612085182
335352 9 18338517409437712054
5104073 3 18409164428762226496
528886 8 18409724097460801186
53812653 166 18411416194221434368
69090 78 18411414037942259815
7364860 26 18197780994655662566
74978 22 18337955696355626852
7832392 63 18410572916153071812
9709674 26 18342461477758208566

> <PUBCHEM_SHAPE_MULTIPOLES>
286.99
6.6
2.11
0.63
1.53
0.43
-0.01
-2.83
0.16
0.61
0.13
0.04
-0.01
-0.36

> <PUBCHEM_SHAPE_SELFOVERLAP>
629.804

> <PUBCHEM_SHAPE_VOLUME>
155.6

> <PUBCHEM_COORDINATE_TYPE>
2
5
10

$$$$
