991372
  -OEChem-01171810083D

 54 57  0     0  0  0  0  0  0999 V2000
    0.0015    2.3861   -0.4545 O   0  0  0  0  0  0  0  0  0  0  0  0
   -2.6535   -0.8793    1.7678 O   0  0  0  0  0  0  0  0  0  0  0  0
    2.6535   -0.8835    1.7654 O   0  0  0  0  0  0  0  0  0  0  0  0
   -0.0022   -2.6985    2.2454 O   0  0  0  0  0  0  0  0  0  0  0  0
   -0.0042   -5.0833   -1.8807 O   0  0  0  0  0  0  0  0  0  0  0  0
   -3.7054    1.8179   -0.4640 C   0  0  0  0  0  0  0  0  0  0  0  0
    3.7080    1.8139   -0.4638 C   0  0  0  0  0  0  0  0  0  0  0  0
    0.0001   -0.1520    0.9183 C   0  0  0  0  0  0  0  0  0  0  0  0
   -2.4024    2.6397   -0.4114 C   0  0  0  0  0  0  0  0  0  0  0  0
    2.4056    2.6366   -0.4126 C   0  0  0  0  0  0  0  0  0  0  0  0
   -1.2521    0.6506    0.6176 C   0  0  0  0  0  0  0  0  0  0  0  0
    1.2532    0.6490    0.6171 C   0  0  0  0  0  0  0  0  0  0  0  0
   -1.1985    1.8235   -0.0386 C   0  0  0  0  0  0  0  0  0  0  0  0
    1.2009    1.8218   -0.0392 C   0  0  0  0  0  0  0  0  0  0  0  0
   -3.8189    0.9729    0.8140 C   0  0  0  0  0  0  0  0  0  0  0  0
    3.8200    0.9694    0.8147 C   0  0  0  0  0  0  0  0  0  0  0  0
   -2.5768    0.1510    1.0988 C   0  0  0  0  0  0  0  0  0  0  0  0
    2.5775    0.1478    1.0979 C   0  0  0  0  0  0  0  0  0  0  0  0
   -4.9053    2.7784   -0.5464 C   0  0  0  0  0  0  0  0  0  0  0  0
   -3.7325    0.9116   -1.7128 C   0  0  0  0  0  0  0  0  0  0  0  0
    3.7354    0.9070   -1.7123 C   0  0  0  0  0  0  0  0  0  0  0  0
    4.9087    2.7735   -0.5455 C   0  0  0  0  0  0  0  0  0  0  0  0
   -0.0010   -1.4867    0.1774 C   0  0  0  0  0  0  0  0  0  0  0  0
   -0.0018   -2.6859    0.8829 C   0  0  0  0  0  0  0  0  0  0  0  0
   -0.0012   -1.4860   -1.2142 C   0  0  0  0  0  0  0  0  0  0  0  0
   -0.0029   -3.8966    0.1902 C   0  0  0  0  0  0  0  0  0  0  0  0
   -0.0023   -2.6968   -1.9068 C   0  0  0  0  0  0  0  0  0  0  0  0
   -0.0031   -3.9021   -1.2046 C   0  0  0  0  0  0  0  0  0  0  0  0
    0.0002   -0.3178    2.0042 H   0  0  0  0  0  0  0  0  0  0  0  0
   -2.2340    3.1150   -1.3868 H   0  0  0  0  0  0  0  0  0  0  0  0
   -2.4937    3.4537    0.3199 H   0  0  0  0  0  0  0  0  0  0  0  0
    2.4973    3.4513    0.3178 H   0  0  0  0  0  0  0  0  0  0  0  0
    2.2378    3.1110   -1.3884 H   0  0  0  0  0  0  0  0  0  0  0  0
   -4.6710    0.2867    0.7352 H   0  0  0  0  0  0  0  0  0  0  0  0
   -3.9857    1.6126    1.6898 H   0  0  0  0  0  0  0  0  0  0  0  0
    3.9859    1.6092    1.6906 H   0  0  0  0  0  0  0  0  0  0  0  0
    4.6721    0.2830    0.7370 H   0  0  0  0  0  0  0  0  0  0  0  0
   -4.8497    3.4043   -1.4442 H   0  0  0  0  0  0  0  0  0  0  0  0
   -4.9413    3.4457    0.3221 H   0  0  0  0  0  0  0  0  0  0  0  0
   -5.8517    2.2271   -0.5800 H   0  0  0  0  0  0  0  0  0  0  0  0
   -3.6631    1.5071   -2.6302 H   0  0  0  0  0  0  0  0  0  0  0  0
   -4.6659    0.3391   -1.7610 H   0  0  0  0  0  0  0  0  0  0  0  0
   -2.9077    0.1924   -1.7265 H   0  0  0  0  0  0  0  0  0  0  0  0
    3.6675    1.5024   -2.6299 H   0  0  0  0  0  0  0  0  0  0  0  0
    2.9099    0.1887   -1.7265 H   0  0  0  0  0  0  0  0  0  0  0  0
    4.6683    0.3336   -1.7593 H   0  0  0  0  0  0  0  0  0  0  0  0
    4.9445    3.4410    0.3229 H   0  0  0  0  0  0  0  0  0  0  0  0
    4.8542    3.3992   -1.4435 H   0  0  0  0  0  0  0  0  0  0  0  0
    5.8547    2.2215   -0.5783 H   0  0  0  0  0  0  0  0  0  0  0  0
   -0.0007   -0.5606   -1.7831 H   0  0  0  0  0  0  0  0  0  0  0  0
   -0.0036   -4.8368    0.7366 H   0  0  0  0  0  0  0  0  0  0  0  0
   -0.0025   -2.6947   -2.9934 H   0  0  0  0  0  0  0  0  0  0  0  0
   -0.0030   -3.6204    2.5549 H   0  0  0  0  0  0  0  0  0  0  0  0
   -0.0046   -5.8143   -1.2391 H   0  0  0  0  0  0  0  0  0  0  0  0
  1 13  1  0  0  0  0
  1 14  1  0  0  0  0
  2 17  2  0  0  0  0
  3 18  2  0  0  0  0
  4 24  1  0  0  0  0
  4 53  1  0  0  0  0
  5 28  1  0  0  0  0
  5 54  1  0  0  0  0
  6  9  1  0  0  0  0
  6 15  1  0  0  0  0
  6 19  1  0  0  0  0
  6 20  1  0  0  0  0
  7 10  1  0  0  0  0
  7 16  1  0  0  0  0
  7 21  1  0  0  0  0
  7 22  1  0  0  0  0
  8 11  1  0  0  0  0
  8 12  1  0  0  0  0
  8 23  1  0  0  0  0
  8 29  1  0  0  0  0
  9 13  1  0  0  0  0
  9 30  1  0  0  0  0
  9 31  1  0  0  0  0
 10 14  1  0  0  0  0
 10 32  1  0  0  0  0
 10 33  1  0  0  0  0
 11 13  2  0  0  0  0
 11 17  1  0  0  0  0
 12 14  2  0  0  0  0
 12 18  1  0  0  0  0
 15 17  1  0  0  0  0
 15 34  1  0  0  0  0
 15 35  1  0  0  0  0
 16 18  1  0  0  0  0
 16 36  1  0  0  0  0
 16 37  1  0  0  0  0
 19 38  1  0  0  0  0
 19 39  1  0  0  0  0
 19 40  1  0  0  0  0
 20 41  1  0  0  0  0
 20 42  1  0  0  0  0
 20 43  1  0  0  0  0
 21 44  1  0  0  0  0
 21 45  1  0  0  0  0
 21 46  1  0  0  0  0
 22 47  1  0  0  0  0
 22 48  1  0  0  0  0
 22 49  1  0  0  0  0
 23 24  2  0  0  0  0
 23 25  1  0  0  0  0
 24 26  1  0  0  0  0
 25 27  2  0  0  0  0
 25 50  1  0  0  0  0
 26 28  2  0  0  0  0
 26 51  1  0  0  0  0
 27 28  1  0  0  0  0
 27 52  1  0  0  0  0
M  END
> <PUBCHEM_COMPOUND_CID>
991372

> <PUBCHEM_CONFORMER_RMSD>
0.6

> <PUBCHEM_CONFORMER_DIVERSEORDER>
5
4
1
8
2
7
6
3

> <PUBCHEM_MMFF94_PARTIAL_CHARGES>
27
1 -0.15
10 0.14
11 -0.12
12 -0.12
13 -0.06
14 -0.06
15 0.06
16 0.06
17 0.49
18 0.49
2 -0.57
23 -0.14
24 0.08
25 -0.15
26 -0.15
27 -0.15
28 0.08
3 -0.57
4 -0.53
5 -0.53
50 0.15
51 0.15
52 0.15
53 0.45
54 0.45
8 0.42
9 0.14

> <PUBCHEM_EFFECTIVE_ROTOR_COUNT>
2.6

> <PUBCHEM_PHARMACOPHORE_FEATURES>
11
1 1 acceptor
1 2 acceptor
1 3 acceptor
1 4 donor
1 5 donor
3 6 19 20 hydrophobe
3 7 21 22 hydrophobe
6 1 8 11 12 13 14 rings
6 23 24 25 26 27 28 rings
6 6 9 11 13 15 17 rings
6 7 10 12 14 16 18 rings

> <PUBCHEM_HEAVY_ATOM_COUNT>
28

> <PUBCHEM_ATOM_DEF_STEREO_COUNT>
0

> <PUBCHEM_ATOM_UDEF_STEREO_COUNT>
0

> <PUBCHEM_BOND_DEF_STEREO_COUNT>
0

> <PUBCHEM_BOND_UDEF_STEREO_COUNT>
0

> <PUBCHEM_ISOTOPIC_ATOM_COUNT>
0

> <PUBCHEM_COMPONENT_COUNT>
1

> <PUBCHEM_CACTVS_TAUTO_COUNT>
135

> <PUBCHEM_CONFORMER_ID>
000F208C00000005

> <PUBCHEM_MMFF94_ENERGY>
63.603

> <PUBCHEM_FEATURE_SELFOVERLAP>
55.861

> <PUBCHEM_SHAPE_FINGERPRINT>
107951 10 18041863782275261486
10906281 52 18115324336276278993
11045515 52 17186995939299058166
11115154 58 17259889149711765815
11421498 54 17917437480351514953
11488393 25 18196106455652952283
121448 382 17987787631156525661
12156800 1 16698598131370587534
12160290 23 18126001813076970483
12422481 6 17259578627527840826
12553582 1 16824759664991354080
12788726 201 18049147071334645686
13140716 1 18187644661141157864
13149001 5 17630599235600909584
13383661 66 17487332901231346943
133893 2 17840322029244961193
13681431 1 17693660316204381163
14955137 171 16755528318475306177
15163728 17 18042710337045014077
16752209 62 18197485423363943891
17138139 8 17555413514334294399
1813 80 17333929755977211631
18603816 31 16700925772317977876
20567600 347 18410294670780693597
20600515 1 16679478384304377496
20602899 9 18130517391600049272
20775438 99 17050448621412027509
20905425 154 17400914203264393482
21033648 144 17968087599559659261
21033648 29 18270958050244672536
21344244 181 18130521802273129974
21860390 5 17902778670426958863
22033318 11 16683767064143751859
23227448 37 18047761674200023708
23419403 2 17265314977079224790
23559900 14 18046907078496430955
23598288 3 18190736625852092354
238 59 18270410368972821270
26353 1 17045973681632047710
3298306 158 18336835190737895204
3380486 77 16238668247338535152
376196 1 18114449072938064825
4017518 198 18129932392123982542
4280585 95 17474945424637428383
46194498 28 17830147149354322469
6438718 38 18124886912955613594
6669772 16 18343588413121149166
70251023 43 17693945090375150207
81228 2 17692523833608651043

> <PUBCHEM_SHAPE_MULTIPOLES>
546.88
7.13
5.31
1.75
0.02
6.9
0.06
-9.61
1.06
-0.01
2.32
0
1.38
0

> <PUBCHEM_SHAPE_SELFOVERLAP>
1196.289

> <PUBCHEM_SHAPE_VOLUME>
294.8

> <PUBCHEM_COORDINATE_TYPE>
2
5
10

$$$$
