721101
  -OEChem-01171810203D

 30 32  0     0  0  0  0  0  0999 V2000
   -5.3700   -0.4122   -0.0010 O   0  0  0  0  0  0  0  0  0  0  0  0
    0.1470    0.0176    0.0010 N   0  0  0  0  0  0  0  0  0  0  0  0
    0.9086   -1.0793    0.0007 N   0  0  0  0  0  0  0  0  0  0  0  0
    0.7295    1.2193    0.0005 N   0  0  0  0  0  0  0  0  0  0  0  0
    5.8042   -0.9281   -0.0007 N   0  0  0  0  0  0  0  0  0  0  0  0
    2.1489   -0.5637    0.0004 C   0  0  0  0  0  0  0  0  0  0  0  0
    2.0347    0.9020   -0.0001 C   0  0  0  0  0  0  0  0  0  0  0  0
   -1.2419   -0.0906    0.0007 C   0  0  0  0  0  0  0  0  0  0  0  0
    3.3944   -1.2188    0.0002 C   0  0  0  0  0  0  0  0  0  0  0  0
    3.1636    1.7422   -0.0004 C   0  0  0  0  0  0  0  0  0  0  0  0
    4.5050   -0.3552   -0.0005 C   0  0  0  0  0  0  0  0  0  0  0  0
   -1.8332   -1.3482    0.0002 C   0  0  0  0  0  0  0  0  0  0  0  0
   -2.0209    1.0605    0.0008 C   0  0  0  0  0  0  0  0  0  0  0  0
    4.3947    1.0612   -0.0007 C   0  0  0  0  0  0  0  0  0  0  0  0
   -4.0131   -0.3064   -0.0001 C   0  0  0  0  0  0  0  0  0  0  0  0
   -3.2238   -1.4565   -0.0004 C   0  0  0  0  0  0  0  0  0  0  0  0
   -3.4115    0.9522    0.0003 C   0  0  0  0  0  0  0  0  0  0  0  0
   -6.1161    0.8040   -0.0008 C   0  0  0  0  0  0  0  0  0  0  0  0
    3.4874   -2.2980    0.0004 H   0  0  0  0  0  0  0  0  0  0  0  0
    3.1013    2.8230   -0.0005 H   0  0  0  0  0  0  0  0  0  0  0  0
   -1.2564   -2.2690    0.0000 H   0  0  0  0  0  0  0  0  0  0  0  0
   -1.5922    2.0591    0.0012 H   0  0  0  0  0  0  0  0  0  0  0  0
    5.3043    1.6620   -0.0011 H   0  0  0  0  0  0  0  0  0  0  0  0
   -3.6873   -2.4394   -0.0010 H   0  0  0  0  0  0  0  0  0  0  0  0
   -3.9644    1.8854    0.0004 H   0  0  0  0  0  0  0  0  0  0  0  0
    5.9115   -1.9338   -0.0012 H   0  0  0  0  0  0  0  0  0  0  0  0
    6.6198   -0.3302   -0.0018 H   0  0  0  0  0  0  0  0  0  0  0  0
   -7.1769    0.5325   -0.0012 H   0  0  0  0  0  0  0  0  0  0  0  0
   -5.9358    1.3865    0.9091 H   0  0  0  0  0  0  0  0  0  0  0  0
   -5.9351    1.3873   -0.9100 H   0  0  0  0  0  0  0  0  0  0  0  0
  1 15  1  0  0  0  0
  1 18  1  0  0  0  0
  2  3  1  0  0  0  0
  2  4  1  0  0  0  0
  2  8  1  0  0  0  0
  3  6  2  0  0  0  0
  4  7  2  0  0  0  0
  5 11  1  0  0  0  0
  5 26  1  0  0  0  0
  5 27  1  0  0  0  0
  6  7  1  0  0  0  0
  6  9  1  0  0  0  0
  7 10  1  0  0  0  0
  8 12  2  0  0  0  0
  8 13  1  0  0  0  0
  9 11  2  0  0  0  0
  9 19  1  0  0  0  0
 10 14  2  0  0  0  0
 10 20  1  0  0  0  0
 11 14  1  0  0  0  0
 12 16  1  0  0  0  0
 12 21  1  0  0  0  0
 13 17  2  0  0  0  0
 13 22  1  0  0  0  0
 14 23  1  0  0  0  0
 15 16  2  0  0  0  0
 15 17  1  0  0  0  0
 16 24  1  0  0  0  0
 17 25  1  0  0  0  0
 18 28  1  0  0  0  0
 18 29  1  0  0  0  0
 18 30  1  0  0  0  0
M  END
> <PUBCHEM_COMPOUND_CID>
721101

> <PUBCHEM_CONFORMER_RMSD>
0.6

> <PUBCHEM_CONFORMER_DIVERSEORDER>
1

> <PUBCHEM_MMFF94_PARTIAL_CHARGES>
27
1 -0.36
10 -0.15
11 0.1
12 -0.15
13 -0.15
14 -0.15
15 0.08
16 -0.15
17 -0.15
18 0.28
19 0.15
2 0.86
20 0.15
21 0.15
22 0.15
23 0.15
24 0.15
25 0.15
26 0.4
27 0.4
3 -0.71
4 -0.71
5 -0.9
6 0.29
7 0.29
8 -0.02
9 -0.15

> <PUBCHEM_EFFECTIVE_ROTOR_COUNT>
2

> <PUBCHEM_PHARMACOPHORE_FEATURES>
8
1 1 acceptor
1 3 acceptor
1 4 acceptor
1 5 cation
1 5 donor
5 2 3 4 6 7 rings
6 6 7 9 10 11 14 rings
6 8 12 13 15 16 17 rings

> <PUBCHEM_HEAVY_ATOM_COUNT>
18

> <PUBCHEM_ATOM_DEF_STEREO_COUNT>
0

> <PUBCHEM_ATOM_UDEF_STEREO_COUNT>
0

> <PUBCHEM_BOND_DEF_STEREO_COUNT>
0

> <PUBCHEM_BOND_UDEF_STEREO_COUNT>
0

> <PUBCHEM_ISOTOPIC_ATOM_COUNT>
0

> <PUBCHEM_COMPONENT_COUNT>
1

> <PUBCHEM_CACTVS_TAUTO_COUNT>
2

> <PUBCHEM_CONFORMER_ID>
000B00CD00000001

> <PUBCHEM_MMFF94_ENERGY>
73.625

> <PUBCHEM_FEATURE_SELFOVERLAP>
40.775

> <PUBCHEM_SHAPE_FINGERPRINT>
11089746 13 17418087724275733529
11471102 20 18410855482172788460
12107183 9 17691127037097692283
12236239 1 18131631192541593535
12403259 415 18260537922676188741
13167823 11 18411697716168705910
13533116 47 13973695983714739772
14341114 176 18408610278864549377
15196674 1 18338516451253647331
15536298 74 18341331171467724744
17834072 33 18343300400797927663
18186145 218 17749380499004059314
18522853 276 18343021090337132041
19141452 34 18411418444863633215
19489759 90 15554450682841235835
200 152 18060416928507280867
20612939 158 18260556645087251076
20645477 70 18341614789459413326
21267235 1 18410582776960250458
221490 88 18263651830258838130
23402539 116 18201995534815720237
23402655 69 18413107290017213284
23557571 272 17603584084513590837
23559900 14 18340482365365210368
26918003 58 18413388743598293211
29717793 49 17918278636346959684
300161 21 18342733048323653737
3004659 81 18334577928268933198
335352 9 18410855460133501951
351380 180 18411980277850971385
3545911 37 18410293613986616821
4073 2 18040721419268137530
42 15 18408324393003723102
4214541 1 18410856547008368097
42788 4 18410575089374751621
474 4 17604435235716267084
5104073 3 18338517542243958715
542803 24 14056998317323831701
59755656 215 18335985268118015374
59755656 520 17095240328594158859
633830 44 17677046961996936362
69090 78 18412823603544035575
7495541 125 17346030190230139259
77779 3 18410293639766976580
9709674 26 18411143566709145958
9981440 41 17254276138266877280

> <PUBCHEM_SHAPE_MULTIPOLES>
344.64
12.63
1.57
0.59
4.09
0.08
0
0.18
0.01
-0.45
0
0.01
0.01
0

> <PUBCHEM_SHAPE_SELFOVERLAP>
758.898

> <PUBCHEM_SHAPE_VOLUME>
187.3

> <PUBCHEM_COORDINATE_TYPE>
2
5
10

$$$$
