3147219
  -OEChem-01171809213D

 36 39  0     0  0  0  0  0  0999 V2000
   -0.3765    2.3605   -0.9931 O   0  0  0  0  0  0  0  0  0  0  0  0
    0.6142    0.4516   -0.2926 N   0  0  0  0  0  0  0  0  0  0  0  0
   -5.8536   -0.2506    0.7910 N   0  0  0  0  0  0  0  0  0  0  0  0
    1.8956    0.9525   -0.0359 C   0  0  0  0  0  0  0  0  0  0  0  0
    0.6767   -0.9455   -0.3147 C   0  0  0  0  0  0  0  0  0  0  0  0
    2.7451   -0.1337    0.1865 C   0  0  0  0  0  0  0  0  0  0  0  0
    1.9811   -1.3218    0.0181 C   0  0  0  0  0  0  0  0  0  0  0  0
   -0.5382    1.2444   -0.5087 C   0  0  0  0  0  0  0  0  0  0  0  0
    2.3757    2.2734    0.0728 C   0  0  0  0  0  0  0  0  0  0  0  0
   -0.2862   -1.9222   -0.6390 C   0  0  0  0  0  0  0  0  0  0  0  0
    4.1029    0.1014    0.5002 C   0  0  0  0  0  0  0  0  0  0  0  0
    2.3088   -2.6942    0.0976 C   0  0  0  0  0  0  0  0  0  0  0  0
   -1.9191    0.8548   -0.1717 C   0  0  0  0  0  0  0  0  0  0  0  0
    3.7231    2.4817    0.3829 C   0  0  0  0  0  0  0  0  0  0  0  0
    0.0613   -3.2741   -0.5587 C   0  0  0  0  0  0  0  0  0  0  0  0
    4.5789    1.4100    0.5930 C   0  0  0  0  0  0  0  0  0  0  0  0
    1.3406   -3.6585   -0.1849 C   0  0  0  0  0  0  0  0  0  0  0  0
   -2.1582   -0.0011    0.9023 C   0  0  0  0  0  0  0  0  0  0  0  0
   -2.9841    1.3440   -0.9269 C   0  0  0  0  0  0  0  0  0  0  0  0
   -3.4653   -0.3688    1.2218 C   0  0  0  0  0  0  0  0  0  0  0  0
   -4.2911    0.9763   -0.6073 C   0  0  0  0  0  0  0  0  0  0  0  0
   -4.5317    0.1199    0.4672 C   0  0  0  0  0  0  0  0  0  0  0  0
    1.7272    3.1316   -0.0677 H   0  0  0  0  0  0  0  0  0  0  0  0
   -1.2790   -1.6604   -0.9863 H   0  0  0  0  0  0  0  0  0  0  0  0
    4.7820   -0.7301    0.6699 H   0  0  0  0  0  0  0  0  0  0  0  0
    3.3155   -3.0066    0.3626 H   0  0  0  0  0  0  0  0  0  0  0  0
    4.1014    3.4973    0.4657 H   0  0  0  0  0  0  0  0  0  0  0  0
   -0.6786   -4.0315   -0.8044 H   0  0  0  0  0  0  0  0  0  0  0  0
    5.6228    1.5882    0.8348 H   0  0  0  0  0  0  0  0  0  0  0  0
    1.5968   -4.7127   -0.1298 H   0  0  0  0  0  0  0  0  0  0  0  0
   -1.3542   -0.3623    1.5372 H   0  0  0  0  0  0  0  0  0  0  0  0
   -2.8173    2.0076   -1.7713 H   0  0  0  0  0  0  0  0  0  0  0  0
   -3.6407   -1.0290    2.0674 H   0  0  0  0  0  0  0  0  0  0  0  0
   -5.1137    1.3628   -1.2036 H   0  0  0  0  0  0  0  0  0  0  0  0
   -6.6268    0.1021    0.2429 H   0  0  0  0  0  0  0  0  0  0  0  0
   -6.0286   -0.8732    1.5684 H   0  0  0  0  0  0  0  0  0  0  0  0
  1  8  2  0  0  0  0
  2  4  1  0  0  0  0
  2  5  1  0  0  0  0
  2  8  1  0  0  0  0
  3 22  1  0  0  0  0
  3 35  1  0  0  0  0
  3 36  1  0  0  0  0
  4  6  1  0  0  0  0
  4  9  2  0  0  0  0
  5  7  1  0  0  0  0
  5 10  2  0  0  0  0
  6  7  1  0  0  0  0
  6 11  2  0  0  0  0
  7 12  2  0  0  0  0
  8 13  1  0  0  0  0
  9 14  1  0  0  0  0
  9 23  1  0  0  0  0
 10 15  1  0  0  0  0
 10 24  1  0  0  0  0
 11 16  1  0  0  0  0
 11 25  1  0  0  0  0
 12 17  1  0  0  0  0
 12 26  1  0  0  0  0
 13 18  2  0  0  0  0
 13 19  1  0  0  0  0
 14 16  2  0  0  0  0
 14 27  1  0  0  0  0
 15 17  2  0  0  0  0
 15 28  1  0  0  0  0
 16 29  1  0  0  0  0
 17 30  1  0  0  0  0
 18 20  1  0  0  0  0
 18 31  1  0  0  0  0
 19 21  2  0  0  0  0
 19 32  1  0  0  0  0
 20 22  2  0  0  0  0
 20 33  1  0  0  0  0
 21 22  1  0  0  0  0
 21 34  1  0  0  0  0
M  END
> <PUBCHEM_COMPOUND_CID>
3147219

> <PUBCHEM_CONFORMER_RMSD>
0.6

> <PUBCHEM_CONFORMER_DIVERSEORDER>
1
4
2
3

> <PUBCHEM_MMFF94_PARTIAL_CHARGES>
34
1 -0.57
10 -0.15
11 -0.15
12 -0.15
13 0.09
14 -0.15
15 -0.15
16 -0.15
17 -0.15
18 -0.15
19 -0.15
2 0.29
20 -0.15
21 -0.15
22 0.1
23 0.15
24 0.15
25 0.15
26 0.15
27 0.15
28 0.15
29 0.15
3 -0.9
30 0.15
31 0.15
32 0.15
33 0.15
34 0.15
35 0.4
36 0.4
4 -0.15
5 -0.15
8 0.49
9 -0.15

> <PUBCHEM_EFFECTIVE_ROTOR_COUNT>
2

> <PUBCHEM_PHARMACOPHORE_FEATURES>
7
1 1 acceptor
1 3 cation
1 3 donor
5 2 4 5 6 7 rings
6 13 18 19 20 21 22 rings
6 4 6 9 11 14 16 rings
6 5 7 10 12 15 17 rings

> <PUBCHEM_HEAVY_ATOM_COUNT>
22

> <PUBCHEM_ATOM_DEF_STEREO_COUNT>
0

> <PUBCHEM_ATOM_UDEF_STEREO_COUNT>
0

> <PUBCHEM_BOND_DEF_STEREO_COUNT>
0

> <PUBCHEM_BOND_UDEF_STEREO_COUNT>
0

> <PUBCHEM_ISOTOPIC_ATOM_COUNT>
0

> <PUBCHEM_COMPONENT_COUNT>
1

> <PUBCHEM_CACTVS_TAUTO_COUNT>
2

> <PUBCHEM_CONFORMER_ID>
003005D300000001

> <PUBCHEM_MMFF94_ENERGY>
79.4059

> <PUBCHEM_FEATURE_SELFOVERLAP>
35.691

> <PUBCHEM_SHAPE_FINGERPRINT>
10165383 225 18341335599547865392
10411042 1 17619627986383047078
10493431 412 18268989954779781016
10871710 139 16964089752562119284
10906281 52 17968680266834594437
10967382 1 18411412878670127678
1100329 8 18125158496517789552
11370993 70 18411698811485307683
114674 6 18188498956217560827
11578080 2 16010980979836480774
11582403 64 16669865676386611701
12035758 1 18341601587399897634
12107183 9 17551243865684149849
12236239 1 17418094313103770381
12390115 104 17982461687374460720
12403259 226 17973724679605232207
12553582 1 17259908421002499758
12592029 89 18411136926699703962
12596602 18 17489317390980661227
12788726 201 17476367574234334222
13140716 1 18266733757188291882
13583140 156 16807261766242966724
138480 1 17979633433913553894
14223421 5 18264487278306576589
14787075 74 17916864763330842129
14790565 3 18338244850929951268
14863182 85 18261971694449491559
14866123 147 18338788040055068954
15309172 13 18412542128361557548
15375358 24 18260264131854529417
15635459 17 18261400992433580603
16945 1 18411127014326537310
17138139 8 17341777318483945967
19591789 44 18410855499294810902
20028762 73 18201714110725217358
20261772 1 18336827601646695000
204376 136 18341331188215057768
20645477 70 18336536111064589735
20739085 24 18335150760441754836
21033648 29 18269537464168245608
21197605 99 18193566781846932923
21731228 192 18339641260629316930
221490 88 18121217580333880198
22182313 1 18188485779120181429
22224240 67 18270959154134773265
23557571 272 17313667045220451357
23558518 356 17972043539422637769
23559900 14 18119802517400565265
25222932 49 17386573595363269179
2748010 2 18336841869470218542
283562 15 16752960464834579480
3178227 256 18410018719522283304
335352 9 18412544332444489910
33824 294 18410293592543649811
350125 39 18410293571754388150
3729539 64 18124622837498263086
42630746 31 18343304760147489527
4340502 62 18201443618321987411
465052 167 17967252005308394144
474 4 18343019999388863785
49207404 50 18335143093781959715
495365 180 18269251513951149929
5104073 3 18263088730361480689
58807428 26 18338784715549415322
621550 34 18335420149643771021
633830 44 17917725586082418629
6438718 38 17700134593082976374
6669772 16 18272940423413757286
7364860 26 18267582416740055582
81228 2 17617638291717262210
8272917 22 18271246002257924381
9709674 26 18119524341412444829

> <PUBCHEM_SHAPE_MULTIPOLES>
436.92
8.84
3.49
0.93
7.58
2.95
0.06
-4.05
2.58
-3.19
-0.63
0.62
-0.09
0.76

> <PUBCHEM_SHAPE_SELFOVERLAP>
989.863

> <PUBCHEM_SHAPE_VOLUME>
229.5

> <PUBCHEM_COORDINATE_TYPE>
2
5
10

$$$$
