8142978
  -OEChem-01171809563D

 29 30  0     0  0  0  0  0  0999 V2000
    1.5619    1.1051    1.3247 S   0  0  0  0  0  0  0  0  0  0  0  0
   -1.8301    3.0465   -0.5834 O   0  5  0  0  0  0  0  0  0  0  0  0
    0.1836    3.0391    0.2909 O   0  0  0  0  0  0  0  0  0  0  0  0
   -3.4659   -2.9499    0.0651 O   0  5  0  0  0  0  0  0  0  0  0  0
   -4.3904   -1.1317   -0.7464 O   0  0  0  0  0  0  0  0  0  0  0  0
   -0.0487   -0.9899    1.1021 N   0  0  0  0  0  0  0  0  0  0  0  0
   -0.8739    2.4519   -0.0347 N   0  3  0  0  0  0  0  0  0  0  0  0
   -3.4298   -1.7231   -0.1968 N   0  3  0  0  0  0  0  0  0  0  0  0
   -2.1563    0.3797   -0.1210 C   0  0  0  0  0  0  0  0  0  0  0  0
   -0.9936    1.0571    0.2292 C   0  0  0  0  0  0  0  0  0  0  0  0
   -2.2665   -0.9817    0.1395 C   0  0  0  0  0  0  0  0  0  0  0  0
    0.0377    0.3410    0.8379 C   0  0  0  0  0  0  0  0  0  0  0  0
   -3.2892    1.1084   -0.7769 C   0  0  0  0  0  0  0  0  0  0  0  0
   -1.1941   -1.6145    0.7474 C   0  0  0  0  0  0  0  0  0  0  0  0
    2.7570    0.1914    0.3687 C   0  0  0  0  0  0  0  0  0  0  0  0
    2.6832    0.1921   -1.0242 C   0  0  0  0  0  0  0  0  0  0  0  0
    3.7663   -0.5237    1.0133 C   0  0  0  0  0  0  0  0  0  0  0  0
    3.6188   -0.5223   -1.7725 C   0  0  0  0  0  0  0  0  0  0  0  0
    4.7018   -1.2381    0.2649 C   0  0  0  0  0  0  0  0  0  0  0  0
    4.6282   -1.2374   -1.1280 C   0  0  0  0  0  0  0  0  0  0  0  0
   -4.1760    0.6799   -1.2182 H   0  0  0  0  0  0  0  0  0  0  0  0
   -3.7043    1.8421   -0.0740 H   0  0  0  0  0  0  0  0  0  0  0  0
   -2.9064    1.5780   -1.6934 H   0  0  0  0  0  0  0  0  0  0  0  0
   -1.1972   -2.6738    0.9857 H   0  0  0  0  0  0  0  0  0  0  0  0
    1.9090    0.7467   -1.5486 H   0  0  0  0  0  0  0  0  0  0  0  0
    3.8395   -0.5364    2.0980 H   0  0  0  0  0  0  0  0  0  0  0  0
    3.5623   -0.5207   -2.8571 H   0  0  0  0  0  0  0  0  0  0  0  0
    5.4877   -1.7951    0.7666 H   0  0  0  0  0  0  0  0  0  0  0  0
    5.3568   -1.7934   -1.7106 H   0  0  0  0  0  0  0  0  0  0  0  0
  1 12  1  0  0  0  0
  1 15  1  0  0  0  0
  2  7  1  0  0  0  0
  3  7  2  0  0  0  0
  4  8  1  0  0  0  0
  5  8  2  0  0  0  0
  6 12  2  0  0  0  0
  6 14  1  0  0  0  0
  7 10  1  0  0  0  0
  8 11  1  0  0  0  0
  9 10  2  0  0  0  0
  9 11  1  0  0  0  0
  9 13  1  0  0  0  0
 10 12  1  0  0  0  0
 11 14  2  0  0  0  0
 13 21  1  0  0  0  0
 13 22  1  0  0  0  0
 13 23  1  0  0  0  0
 14 24  1  0  0  0  0
 15 16  2  0  0  0  0
 15 17  1  0  0  0  0
 16 18  1  0  0  0  0
 16 25  1  0  0  0  0
 17 19  2  0  0  0  0
 17 26  1  0  0  0  0
 18 20  2  0  0  0  0
 18 27  1  0  0  0  0
 19 20  1  0  0  0  0
 19 28  1  0  0  0  0
 20 29  1  0  0  0  0
M  CHG  4   2  -1   4  -1   7   1   8   1
M  END
> <PUBCHEM_COMPOUND_CID>
8142978

> <PUBCHEM_CONFORMER_RMSD>
0.6

> <PUBCHEM_CONFORMER_DIVERSEORDER>
1
5
3
4
2

> <PUBCHEM_MMFF94_PARTIAL_CHARGES>
26
1 -0.2
10 0.13
11 0.13
12 0.41
13 0.14
14 0.16
15 0.1
16 -0.15
17 -0.15
18 -0.15
19 -0.15
2 -0.52
20 -0.15
24 0.15
25 0.15
26 0.15
27 0.15
28 0.15
29 0.15
3 -0.52
4 -0.52
5 -0.52
6 -0.62
7 0.91
8 0.91
9 -0.14

> <PUBCHEM_EFFECTIVE_ROTOR_COUNT>
4

> <PUBCHEM_PHARMACOPHORE_FEATURES>
9
1 2 acceptor
1 2 anion
1 3 acceptor
1 4 acceptor
1 4 anion
1 5 acceptor
1 6 acceptor
6 15 16 17 18 19 20 rings
6 6 9 10 11 12 14 rings

> <PUBCHEM_HEAVY_ATOM_COUNT>
20

> <PUBCHEM_ATOM_DEF_STEREO_COUNT>
0

> <PUBCHEM_ATOM_UDEF_STEREO_COUNT>
0

> <PUBCHEM_BOND_DEF_STEREO_COUNT>
0

> <PUBCHEM_BOND_UDEF_STEREO_COUNT>
0

> <PUBCHEM_ISOTOPIC_ATOM_COUNT>
0

> <PUBCHEM_COMPONENT_COUNT>
1

> <PUBCHEM_CACTVS_TAUTO_COUNT>
1

> <PUBCHEM_CONFORMER_ID>
007C408200000001

> <PUBCHEM_MMFF94_ENERGY>
101.8102

> <PUBCHEM_FEATURE_SELFOVERLAP>
45.837

> <PUBCHEM_SHAPE_FINGERPRINT>
10062212 137 17969216742361320114
11582403 64 15968977449855077648
12251169 10 10231741289298383386
12363563 72 18343589559581926558
12553582 1 18335994145889191450
14251764 30 18042703864988482091
14386348 63 17846498102302006870
14790565 3 17836084472994006961
15475509 8 18342745083681827925
16752209 62 18260542295126553642
17357779 13 18272359893230420773
17870717 6 18270131097720664910
1813 80 18268722756258349643
19141452 34 17917712444015340375
19862831 5 17603586326781859306
20374829 77 18413105073846087699
20600515 1 18121463974092226768
20871999 31 18335144201915222492
22182313 1 18192973023892045801
23402539 116 18335976485262855100
23419403 2 17559653166198304424
23557571 272 18341323461954176976
23559900 14 18340480089681292480
27216 239 11531350912288941718
2748010 2 18119508072187422113
3082319 5 17676497133532620582
3286 77 17346598611971830810
4921388 177 18198911322642021860
7364860 26 17764306536955485921
81228 2 18409737256903369752
84936 182 8068103633511436711
84936 31 17343774074011686736
9709674 26 18412542128661984730

> <PUBCHEM_SHAPE_MULTIPOLES>
377.02
8.51
2.72
1.26
4.44
1.05
-0.15
-5.11
-2.64
-2.95
-0.04
1.11
-0.04
0.63

> <PUBCHEM_SHAPE_SELFOVERLAP>
803.163

> <PUBCHEM_SHAPE_VOLUME>
211.4

> <PUBCHEM_COORDINATE_TYPE>
2
5
10

$$$$
