725903
  -OEChem-01171809443D

 23 24  0     0  0  0  0  0  0999 V2000
   -0.4892    3.2401    0.0145 O   0  0  0  0  0  0  0  0  0  0  0  0
   -2.8139   -1.2778   -1.1305 O   0  0  0  0  0  0  0  0  0  0  0  0
    1.4230    1.8530    0.0293 N   0  0  0  0  0  0  0  0  0  0  0  0
    0.4230   -0.2174   -0.0167 C   0  0  0  0  0  0  0  0  0  0  0  0
    1.6397    0.4706    0.0142 C   0  0  0  0  0  0  0  0  0  0  0  0
   -0.6134    0.8093   -0.0211 C   0  0  0  0  0  0  0  0  0  0  0  0
    0.0569    2.1524    0.0091 C   0  0  0  0  0  0  0  0  0  0  0  0
    0.3941   -1.5989   -0.0368 C   0  0  0  0  0  0  0  0  0  0  0  0
    2.8574   -0.1809    0.0264 C   0  0  0  0  0  0  0  0  0  0  0  0
   -1.9384    0.6531   -0.0471 C   0  0  0  0  0  0  0  0  0  0  0  0
    1.6166   -2.2791   -0.0251 C   0  0  0  0  0  0  0  0  0  0  0  0
    2.8362   -1.5769    0.0063 C   0  0  0  0  0  0  0  0  0  0  0  0
   -2.5454   -0.7054   -0.0768 C   0  0  0  0  0  0  0  0  0  0  0  0
   -2.8467   -1.3422    1.2543 C   0  0  0  0  0  0  0  0  0  0  0  0
    2.1706    2.5364    0.0519 H   0  0  0  0  0  0  0  0  0  0  0  0
   -0.5138   -2.1829   -0.0706 H   0  0  0  0  0  0  0  0  0  0  0  0
    3.7958    0.3611    0.0502 H   0  0  0  0  0  0  0  0  0  0  0  0
   -2.6249    1.4919   -0.0538 H   0  0  0  0  0  0  0  0  0  0  0  0
    1.6273   -3.3659   -0.0425 H   0  0  0  0  0  0  0  0  0  0  0  0
    3.7717   -2.1301    0.0142 H   0  0  0  0  0  0  0  0  0  0  0  0
   -2.2736   -0.8678    2.0558 H   0  0  0  0  0  0  0  0  0  0  0  0
   -3.9137   -1.2391    1.4677 H   0  0  0  0  0  0  0  0  0  0  0  0
   -2.5767   -2.4012    1.2233 H   0  0  0  0  0  0  0  0  0  0  0  0
  1  7  2  0  0  0  0
  2 13  2  0  0  0  0
  3  5  1  0  0  0  0
  3  7  1  0  0  0  0
  3 15  1  0  0  0  0
  4  5  1  0  0  0  0
  4  6  1  0  0  0  0
  4  8  2  0  0  0  0
  5  9  2  0  0  0  0
  6  7  1  0  0  0  0
  6 10  2  0  0  0  0
  8 11  1  0  0  0  0
  8 16  1  0  0  0  0
  9 12  1  0  0  0  0
  9 17  1  0  0  0  0
 10 13  1  0  0  0  0
 10 18  1  0  0  0  0
 11 12  2  0  0  0  0
 11 19  1  0  0  0  0
 12 20  1  0  0  0  0
 13 14  1  0  0  0  0
 14 21  1  0  0  0  0
 14 22  1  0  0  0  0
 14 23  1  0  0  0  0
M  END
> <PUBCHEM_COMPOUND_CID>
725903

> <PUBCHEM_CONFORMER_RMSD>
0.4

> <PUBCHEM_CONFORMER_DIVERSEORDER>
1
2
3

> <PUBCHEM_MMFF94_PARTIAL_CHARGES>
20
1 -0.57
10 -0.14
11 -0.15
12 -0.15
13 0.49
14 0.06
15 0.37
16 0.15
17 0.15
18 0.15
19 0.15
2 -0.57
20 0.15
3 -0.55
4 0.03
5 0.12
6 -0.01
7 0.62
8 -0.15
9 -0.15

> <PUBCHEM_EFFECTIVE_ROTOR_COUNT>
1.2

> <PUBCHEM_PHARMACOPHORE_FEATURES>
5
1 1 acceptor
1 2 acceptor
1 3 donor
5 3 4 5 6 7 rings
6 4 5 8 9 11 12 rings

> <PUBCHEM_HEAVY_ATOM_COUNT>
14

> <PUBCHEM_ATOM_DEF_STEREO_COUNT>
0

> <PUBCHEM_ATOM_UDEF_STEREO_COUNT>
0

> <PUBCHEM_BOND_DEF_STEREO_COUNT>
1

> <PUBCHEM_BOND_UDEF_STEREO_COUNT>
0

> <PUBCHEM_ISOTOPIC_ATOM_COUNT>
0

> <PUBCHEM_COMPONENT_COUNT>
1

> <PUBCHEM_CACTVS_TAUTO_COUNT>
9

> <PUBCHEM_CONFORMER_ID>
000B138F00000001

> <PUBCHEM_MMFF94_ENERGY>
48.7428

> <PUBCHEM_FEATURE_SELFOVERLAP>
25.46

> <PUBCHEM_SHAPE_FINGERPRINT>
10967382 1 18266740379616483342
11471102 22 18336840795628116075
11578080 2 17272819157477611921
13140716 1 18410857629181962552
13380535 76 17475787654859578566
16945 1 18194402418576754594
17990270 104 18336262444064246395
193761 8 18266740177885194540
19591789 44 17254856680500333164
20201158 50 18334010601317017691
20645476 183 16818870130598852974
20645477 70 18119799473044790719
20871998 184 17983016652518902943
21501502 16 18049162168534782450
2334 1 18410575127671008016
23388829 49 18341327868258111468
23552423 10 18117566124019621262
23559900 14 17334494901150597422
2748010 2 18410847780848267780
81228 2 18192427459491563113
8809292 202 18189903002210964626

> <PUBCHEM_SHAPE_MULTIPOLES>
271.39
4.24
2.85
0.78
0.44
1.68
-0.04
-2.52
-0.13
0.05
-0.07
0.5
-0.29
0.12

> <PUBCHEM_SHAPE_SELFOVERLAP>
590.607

> <PUBCHEM_SHAPE_VOLUME>
149

> <PUBCHEM_COORDINATE_TYPE>
2
5
10

$$$$
