282082
  -OEChem-01171810173D

 39 43  0     1  0  0  0  0  0999 V2000
   -1.5280   -2.7042    1.7501 O   0  5  0  0  0  0  0  0  0  0  0  0
    0.1799   -3.7710    0.8561 O   0  0  0  0  0  0  0  0  0  0  0  0
   -0.3876   -2.7153    1.2270 N   0  3  0  0  0  0  0  0  0  0  0  0
   -0.3176   -0.3679    0.1859 C   0  0  0  0  0  0  0  0  0  0  0  0
    0.8157   -1.1865   -0.3651 C   0  0  2  0  0  0  0  0  0  0  0  0
    0.2966   -1.4546    1.0226 C   0  0  2  0  0  0  0  0  0  0  0  0
   -1.7302   -0.4635   -0.3611 C   0  0  0  0  0  0  0  0  0  0  0  0
   -0.1666    1.1036    0.5265 C   0  0  0  0  0  0  0  0  0  0  0  0
    2.1943   -0.6688   -0.5422 C   0  0  0  0  0  0  0  0  0  0  0  0
   -2.3330    0.8266   -0.3372 C   0  0  0  0  0  0  0  0  0  0  0  0
   -1.3743    1.7876    0.2072 C   0  0  0  0  0  0  0  0  0  0  0  0
   -2.4483   -1.5519   -0.8403 C   0  0  0  0  0  0  0  0  0  0  0  0
    0.9042    1.8082    1.0628 C   0  0  0  0  0  0  0  0  0  0  0  0
    2.5052    0.1504   -1.6320 C   0  0  0  0  0  0  0  0  0  0  0  0
    3.1931   -0.9967    0.3798 C   0  0  0  0  0  0  0  0  0  0  0  0
   -3.6309    1.0233   -0.7848 C   0  0  0  0  0  0  0  0  0  0  0  0
   -1.5077    3.1513    0.4210 C   0  0  0  0  0  0  0  0  0  0  0  0
   -3.7559   -1.3541   -1.2914 C   0  0  0  0  0  0  0  0  0  0  0  0
    0.7700    3.1823    1.2781 C   0  0  0  0  0  0  0  0  0  0  0  0
   -4.3409   -0.0791   -1.2639 C   0  0  0  0  0  0  0  0  0  0  0  0
   -0.4240    3.8468    0.9602 C   0  0  0  0  0  0  0  0  0  0  0  0
    3.8020    0.6369   -1.7980 C   0  0  0  0  0  0  0  0  0  0  0  0
    4.4898   -0.5102    0.2139 C   0  0  0  0  0  0  0  0  0  0  0  0
    4.7942    0.3066   -0.8752 C   0  0  0  0  0  0  0  0  0  0  0  0
    0.5315   -1.9062   -1.1337 H   0  0  0  0  0  0  0  0  0  0  0  0
    0.8515   -1.1504    1.9011 H   0  0  0  0  0  0  0  0  0  0  0  0
   -2.0122   -2.5420   -0.9091 H   0  0  0  0  0  0  0  0  0  0  0  0
    1.8275    1.3202    1.3486 H   0  0  0  0  0  0  0  0  0  0  0  0
    1.7401    0.4144   -2.3577 H   0  0  0  0  0  0  0  0  0  0  0  0
    2.9920   -1.6460    1.2271 H   0  0  0  0  0  0  0  0  0  0  0  0
   -4.0956    2.0036   -0.7697 H   0  0  0  0  0  0  0  0  0  0  0  0
   -2.4251    3.6779    0.1803 H   0  0  0  0  0  0  0  0  0  0  0  0
   -4.3251   -2.1960   -1.6766 H   0  0  0  0  0  0  0  0  0  0  0  0
    1.5979    3.7432    1.7038 H   0  0  0  0  0  0  0  0  0  0  0  0
   -5.3588    0.0508   -1.6221 H   0  0  0  0  0  0  0  0  0  0  0  0
   -0.5055    4.9158    1.1382 H   0  0  0  0  0  0  0  0  0  0  0  0
    4.0389    1.2730   -2.6459 H   0  0  0  0  0  0  0  0  0  0  0  0
    5.2637   -0.7707    0.9300 H   0  0  0  0  0  0  0  0  0  0  0  0
    5.8040    0.6846   -1.0049 H   0  0  0  0  0  0  0  0  0  0  0  0
  1  3  1  0  0  0  0
  2  3  2  0  0  0  0
  3  6  1  0  0  0  0
  4  5  1  0  0  0  0
  4  6  1  0  0  0  0
  4  7  1  0  0  0  0
  4  8  1  0  0  0  0
  5  6  1  0  0  0  0
  5  9  1  0  0  0  0
  5 25  1  0  0  0  0
  6 26  1  0  0  0  0
  7 10  1  0  0  0  0
  7 12  2  0  0  0  0
  8 11  1  0  0  0  0
  8 13  2  0  0  0  0
  9 14  2  0  0  0  0
  9 15  1  0  0  0  0
 10 11  1  0  0  0  0
 10 16  2  0  0  0  0
 11 17  2  0  0  0  0
 12 18  1  0  0  0  0
 12 27  1  0  0  0  0
 13 19  1  0  0  0  0
 13 28  1  0  0  0  0
 14 22  1  0  0  0  0
 14 29  1  0  0  0  0
 15 23  2  0  0  0  0
 15 30  1  0  0  0  0
 16 20  1  0  0  0  0
 16 31  1  0  0  0  0
 17 21  1  0  0  0  0
 17 32  1  0  0  0  0
 18 20  2  0  0  0  0
 18 33  1  0  0  0  0
 19 21  2  0  0  0  0
 19 34  1  0  0  0  0
 20 35  1  0  0  0  0
 21 36  1  0  0  0  0
 22 24  2  0  0  0  0
 22 37  1  0  0  0  0
 23 24  1  0  0  0  0
 23 38  1  0  0  0  0
 24 39  1  0  0  0  0
M  CHG  2   1  -1   3   1
M  END
> <PUBCHEM_COMPOUND_CID>
282082

> <PUBCHEM_CONFORMER_RMSD>
0.6

> <PUBCHEM_CONFORMER_DIVERSEORDER>
1
6
2
4
5
3

> <PUBCHEM_MMFF94_PARTIAL_CHARGES>
37
1 -0.52
12 -0.15
13 -0.15
14 -0.15
15 -0.15
16 -0.15
17 -0.15
18 -0.15
19 -0.15
2 -0.52
20 -0.15
21 -0.15
22 -0.15
23 -0.15
24 -0.15
25 0.1
26 0.1
27 0.15
28 0.15
29 0.15
3 0.87
30 0.15
31 0.15
32 0.15
33 0.15
34 0.15
35 0.15
36 0.15
37 0.15
38 0.15
39 0.15
4 0.06
5 -0.07
6 0.07
7 -0.03
8 -0.03
9 -0.03

> <PUBCHEM_EFFECTIVE_ROTOR_COUNT>
2.4

> <PUBCHEM_PHARMACOPHORE_FEATURES>
7
1 1 acceptor
1 1 anion
1 2 acceptor
5 4 7 8 10 11 rings
6 7 10 12 16 18 20 rings
6 8 11 13 17 19 21 rings
6 9 14 15 22 23 24 rings

> <PUBCHEM_HEAVY_ATOM_COUNT>
24

> <PUBCHEM_ATOM_DEF_STEREO_COUNT>
0

> <PUBCHEM_ATOM_UDEF_STEREO_COUNT>
2

> <PUBCHEM_BOND_DEF_STEREO_COUNT>
0

> <PUBCHEM_BOND_UDEF_STEREO_COUNT>
0

> <PUBCHEM_ISOTOPIC_ATOM_COUNT>
0

> <PUBCHEM_COMPONENT_COUNT>
1

> <PUBCHEM_CACTVS_TAUTO_COUNT>
2

> <PUBCHEM_CONFORMER_ID>
00044DE200000001

> <PUBCHEM_MMFF94_ENERGY>
87.2027

> <PUBCHEM_FEATURE_SELFOVERLAP>
35.752

> <PUBCHEM_SHAPE_FINGERPRINT>
10006869 2 17765170375580966489
10764073 3 15681757485954861738
10906281 52 18271818968254726848
11578080 2 17755592885645661493
11640471 11 17972616398144861196
12035758 1 18194683889300774819
121448 382 18338801113386385088
12293681 160 18410286982763210489
12553582 1 18271536358989502781
12592029 89 16588298337496872314
12788726 201 18340210700220287272
13009979 54 17975115557793793114
13140716 1 18341046397961665769
13149001 5 18194678391716255039
133893 2 17483693559932944337
13402501 40 18058434578079129824
13583140 156 16226062101675393800
13965767 371 14522838965693336584
14787075 74 18410006645746728365
14790565 3 17625829258129335129
14943834 7 17689150110991078099
15420108 30 16754086841503183154
15475509 8 17559690460143276629
16945 1 18201439125638626029
17349148 13 18334575699128477542
192875 21 18334295345122361612
19319366 153 18189332360751740435
19765921 60 18041842792416158025
20510252 161 18336282179507621266
20691752 17 18262784259570885649
20775438 99 17262129928354708431
21033648 29 11818994071658188431
21033650 10 18055941830557511972
21524375 3 17475541385957003696
22182313 1 17905608057368718219
22907989 373 18048636786707616852
23352939 185 17846500365333222641
23402539 116 18412820266401724814
23419403 2 17833286576472016395
23557571 272 17703507671629657340
23558518 356 18051705343050871758
23559900 14 18410011061970140454
2748010 2 17834676376117220905
34934 24 18199459970733941365
352729 6 18260844678199675122
3633792 109 18041550322771686302
394222 165 17385996213728609843
4340502 62 17314810498874923361
474 4 17968946253763259142
6992083 37 16607156894611558035
7164475 11 18198903600517449918
7226269 152 18409722959405192056
81228 2 18128838372993960808
9709674 26 17909254021163376527
9981440 41 18410577245818093626

> <PUBCHEM_SHAPE_MULTIPOLES>
477.19
6.98
3.86
1.51
3.58
1.79
-0.1
-1.26
-4.2
-1.56
2.4
0.29
-0.4
-0.35

> <PUBCHEM_SHAPE_SELFOVERLAP>
1081.024

> <PUBCHEM_SHAPE_VOLUME>
249.9

> <PUBCHEM_COORDINATE_TYPE>
2
5
10

$$$$
