2987363
  -OEChem-01171809413D

 29 30  0     0  0  0  0  0  0999 V2000
   -2.2704   -2.6295    0.1531 S   0  0  0  0  0  0  0  0  0  0  0  0
   -1.7876    3.5581   -0.1562 F   0  0  0  0  0  0  0  0  0  0  0  0
   -3.3324    2.4325   -1.1814 F   0  0  0  0  0  0  0  0  0  0  0  0
   -3.3156    2.5204    0.9914 F   0  0  0  0  0  0  0  0  0  0  0  0
    6.0055    0.0981   -0.0110 F   0  0  0  0  0  0  0  0  0  0  0  0
   -2.3620   -3.0326    1.5557 O   0  0  0  0  0  0  0  0  0  0  0  0
   -3.4887   -2.6081   -0.6569 O   0  0  0  0  0  0  0  0  0  0  0  0
   -0.1438   -1.1009    0.0657 N   0  0  0  0  0  0  0  0  0  0  0  0
   -2.2931   -0.0120    0.0192 N   0  0  0  0  0  0  0  0  0  0  0  0
    0.4296    0.1173    0.0053 C   0  0  0  0  0  0  0  0  0  0  0  0
   -1.4904   -1.0923    0.0691 C   0  0  0  0  0  0  0  0  0  0  0  0
    1.8764    0.1115    0.0018 C   0  0  0  0  0  0  0  0  0  0  0  0
   -1.6502    1.1726   -0.0398 C   0  0  0  0  0  0  0  0  0  0  0  0
   -0.2761    1.2996   -0.0495 C   0  0  0  0  0  0  0  0  0  0  0  0
   -1.1506   -3.7601   -0.6529 C   0  0  0  0  0  0  0  0  0  0  0  0
    2.5792    1.1828    0.5533 C   0  0  0  0  0  0  0  0  0  0  0  0
    2.5687   -0.9644   -0.5540 C   0  0  0  0  0  0  0  0  0  0  0  0
   -2.5023    2.3958   -0.0974 C   0  0  0  0  0  0  0  0  0  0  0  0
    3.9740    1.1781    0.5492 C   0  0  0  0  0  0  0  0  0  0  0  0
    3.9635   -0.9691   -0.5581 C   0  0  0  0  0  0  0  0  0  0  0  0
    4.6662    0.1023   -0.0066 C   0  0  0  0  0  0  0  0  0  0  0  0
    0.1939    2.2721   -0.1228 H   0  0  0  0  0  0  0  0  0  0  0  0
   -0.9733   -3.4165   -1.6738 H   0  0  0  0  0  0  0  0  0  0  0  0
   -0.2183   -3.8106   -0.0875 H   0  0  0  0  0  0  0  0  0  0  0  0
   -1.6231   -4.7448   -0.6701 H   0  0  0  0  0  0  0  0  0  0  0  0
    2.0817    2.0285    1.0203 H   0  0  0  0  0  0  0  0  0  0  0  0
    2.0519   -1.8097   -1.0018 H   0  0  0  0  0  0  0  0  0  0  0  0
    4.5220    2.0091    0.9836 H   0  0  0  0  0  0  0  0  0  0  0  0
    4.5031   -1.8053   -0.9929 H   0  0  0  0  0  0  0  0  0  0  0  0
  1  6  2  0  0  0  0
  1  7  2  0  0  0  0
  1 11  1  0  0  0  0
  1 15  1  0  0  0  0
  2 18  1  0  0  0  0
  3 18  1  0  0  0  0
  4 18  1  0  0  0  0
  5 21  1  0  0  0  0
  8 10  1  0  0  0  0
  8 11  2  0  0  0  0
  9 11  1  0  0  0  0
  9 13  2  0  0  0  0
 10 12  1  0  0  0  0
 10 14  2  0  0  0  0
 12 16  2  0  0  0  0
 12 17  1  0  0  0  0
 13 14  1  0  0  0  0
 13 18  1  0  0  0  0
 14 22  1  0  0  0  0
 15 23  1  0  0  0  0
 15 24  1  0  0  0  0
 15 25  1  0  0  0  0
 16 19  1  0  0  0  0
 16 26  1  0  0  0  0
 17 20  2  0  0  0  0
 17 27  1  0  0  0  0
 19 21  2  0  0  0  0
 19 28  1  0  0  0  0
 20 21  1  0  0  0  0
 20 29  1  0  0  0  0
M  END
> <PUBCHEM_COMPOUND_CID>
2987363

> <PUBCHEM_CONFORMER_RMSD>
0.6

> <PUBCHEM_CONFORMER_DIVERSEORDER>
1
3
6
5
4
8
2
7

> <PUBCHEM_MMFF94_PARTIAL_CHARGES>
25
1 1.2
10 0.31
11 0.61
13 0.17
14 -0.15
15 0.11
16 -0.15
17 -0.15
18 1.16
19 -0.15
2 -0.34
20 -0.15
21 0.19
22 0.15
26 0.15
27 0.15
28 0.15
29 0.15
3 -0.34
4 -0.34
5 -0.19
6 -0.65
7 -0.65
8 -0.62
9 -0.62

> <PUBCHEM_EFFECTIVE_ROTOR_COUNT>
3

> <PUBCHEM_PHARMACOPHORE_FEATURES>
6
1 6 acceptor
1 7 acceptor
1 9 acceptor
3 8 9 11 cation
6 12 16 17 19 20 21 rings
6 8 9 10 11 13 14 rings

> <PUBCHEM_HEAVY_ATOM_COUNT>
21

> <PUBCHEM_ATOM_DEF_STEREO_COUNT>
0

> <PUBCHEM_ATOM_UDEF_STEREO_COUNT>
0

> <PUBCHEM_BOND_DEF_STEREO_COUNT>
0

> <PUBCHEM_BOND_UDEF_STEREO_COUNT>
0

> <PUBCHEM_ISOTOPIC_ATOM_COUNT>
0

> <PUBCHEM_COMPONENT_COUNT>
1

> <PUBCHEM_CACTVS_TAUTO_COUNT>
1

> <PUBCHEM_CONFORMER_ID>
002D956300000001

> <PUBCHEM_MMFF94_ENERGY>
43.285

> <PUBCHEM_FEATURE_SELFOVERLAP>
30.465

> <PUBCHEM_SHAPE_FINGERPRINT>
10319926 262 18269534136596154994
10411042 1 18050005789942702263
10608611 8 18342453751470719480
10616163 171 18410857681170144478
11056379 131 18339091483593826342
11578080 2 16915640687442995811
116883 192 18339360897658784934
11833330 49 18263638631586953969
12173636 292 18266176132446224309
12403259 226 18127968814104824456
12500047 106 18410571743674479332
12553582 1 17906466767360570302
12643181 29 18267871567689176478
12730499 353 17831864552020253005
12788726 201 18262225716222391931
13004483 165 18196644314344074547
13140716 1 18193286414707131003
138480 1 16682038034578127863
14178342 30 18335688452229922714
14508225 48 18267009743038783349
15042514 8 18335991942961046723
17357779 13 18197481034197472703
17539 30 18340194302161758503
18186145 218 18127974100998965212
19141452 34 17986117528845021391
19591789 44 18050572846047628819
20510252 161 18342739602702295073
20645477 56 18410296865488291704
20645477 70 17059778785385994574
20681677 76 18200020863340311000
21033648 29 18265603287115616712
21041028 32 18046359792584468603
21065198 57 18411980248519423368
21065201 7 18410853257701456786
21339142 126 18269273628463502431
21426921 1 18410293635825404734
21524375 3 18045783381992291385
22182313 1 17917163736336795518
22182937 141 18271813388664844265
22224240 67 18269005194015136713
2306618 200 18202008745517886099
23402539 116 18271238426262882975
23419403 2 17344894433763671385
23557571 272 18342463659785879868
23558518 356 18333454265702792610
23559900 14 18268700779095617704
23845131 108 17978244768477293937
3071541 12 17258781417336391861
3084891 72 18053096221075694080
3091708 16 9129066362221518033
352729 6 18340771425074512111
4214541 1 18411700976602615584
5104073 3 18412541021003593248
532947 4 17620474610436258694
559249 180 18263355907360764602
58779409 54 18410845590641527511
59755656 520 18262230006741408365
633830 44 17769656391021467397
7364860 26 17329992391847670981
81228 2 18335138751923470841
9709674 26 18271810094910101486

> <PUBCHEM_SHAPE_MULTIPOLES>
385.22
8.34
4.06
0.86
11.23
0.31
-0.1
0.11
0
-6.49
0.18
-0.4
0.18
0.74

> <PUBCHEM_SHAPE_SELFOVERLAP>
821.989

> <PUBCHEM_SHAPE_VOLUME>
217.7

> <PUBCHEM_COORDINATE_TYPE>
2
5
10

$$$$
