887759
  -OEChem-01171809293D

 31 32  0     0  0  0  0  0  0999 V2000
   -3.3103    0.8888   -0.5398 O   0  0  0  0  0  0  0  0  0  0  0  0
    5.3408    1.0208   -0.7612 O   0  5  0  0  0  0  0  0  0  0  0  0
    4.7245   -0.0871    1.0399 O   0  0  0  0  0  0  0  0  0  0  0  0
    4.4916    0.4722   -0.0425 N   0  3  0  0  0  0  0  0  0  0  0  0
   -0.0101   -0.6530    0.0734 C   0  0  0  0  0  0  0  0  0  0  0  0
   -1.3985   -0.5426   -0.1772 C   0  0  0  0  0  0  0  0  0  0  0  0
    0.7606    0.5146    0.1970 C   0  0  0  0  0  0  0  0  0  0  0  0
   -1.9754    0.7323   -0.2967 C   0  0  0  0  0  0  0  0  0  0  0  0
    0.1708    1.7732    0.0755 C   0  0  0  0  0  0  0  0  0  0  0  0
   -1.1948    1.8819   -0.1706 C   0  0  0  0  0  0  0  0  0  0  0  0
    0.5671   -1.9277    0.1927 C   0  0  0  0  0  0  0  0  0  0  0  0
   -2.1689   -1.7102   -0.3011 C   0  0  0  0  0  0  0  0  0  0  0  0
   -0.2135   -3.0772    0.0671 C   0  0  0  0  0  0  0  0  0  0  0  0
   -1.5790   -2.9686   -0.1795 C   0  0  0  0  0  0  0  0  0  0  0  0
    2.1988    0.4929    0.4551 C   0  0  0  0  0  0  0  0  0  0  0  0
   -4.0628    1.6076    0.4331 C   0  0  0  0  0  0  0  0  0  0  0  0
   -5.4881    1.0974    0.4297 C   0  0  0  0  0  0  0  0  0  0  0  0
    3.1471    0.4848   -0.4949 C   0  0  0  0  0  0  0  0  0  0  0  0
    0.7612    2.6821    0.1688 H   0  0  0  0  0  0  0  0  0  0  0  0
   -1.6352    2.8701   -0.2725 H   0  0  0  0  0  0  0  0  0  0  0  0
    1.6281   -2.0626    0.3881 H   0  0  0  0  0  0  0  0  0  0  0  0
   -3.2384   -1.6608   -0.4935 H   0  0  0  0  0  0  0  0  0  0  0  0
    0.2447   -4.0574    0.1625 H   0  0  0  0  0  0  0  0  0  0  0  0
   -2.1861   -3.8640   -0.2770 H   0  0  0  0  0  0  0  0  0  0  0  0
    2.4375    0.4776    1.5169 H   0  0  0  0  0  0  0  0  0  0  0  0
   -3.6369    1.4781    1.4360 H   0  0  0  0  0  0  0  0  0  0  0  0
   -4.0508    2.6730    0.1787 H   0  0  0  0  0  0  0  0  0  0  0  0
   -6.0986    1.6372    1.1589 H   0  0  0  0  0  0  0  0  0  0  0  0
   -5.9371    1.2134   -0.5622 H   0  0  0  0  0  0  0  0  0  0  0  0
   -5.5151    0.0289    0.6681 H   0  0  0  0  0  0  0  0  0  0  0  0
    3.0288    0.5413   -1.5664 H   0  0  0  0  0  0  0  0  0  0  0  0
  1  8  1  0  0  0  0
  1 16  1  0  0  0  0
  2  4  1  0  0  0  0
  3  4  2  0  0  0  0
  4 18  1  0  0  0  0
  5  6  1  0  0  0  0
  5  7  1  0  0  0  0
  5 11  2  0  0  0  0
  6  8  1  0  0  0  0
  6 12  2  0  0  0  0
  7  9  2  0  0  0  0
  7 15  1  0  0  0  0
  8 10  2  0  0  0  0
  9 10  1  0  0  0  0
  9 19  1  0  0  0  0
 10 20  1  0  0  0  0
 11 13  1  0  0  0  0
 11 21  1  0  0  0  0
 12 14  1  0  0  0  0
 12 22  1  0  0  0  0
 13 14  2  0  0  0  0
 13 23  1  0  0  0  0
 14 24  1  0  0  0  0
 15 18  2  0  0  0  0
 15 25  1  0  0  0  0
 16 17  1  0  0  0  0
 16 26  1  0  0  0  0
 16 27  1  0  0  0  0
 17 28  1  0  0  0  0
 17 29  1  0  0  0  0
 17 30  1  0  0  0  0
 18 31  1  0  0  0  0
M  CHG  2   2  -1   4   1
M  END
> <PUBCHEM_COMPOUND_CID>
887759

> <PUBCHEM_CONFORMER_RMSD>
0.6

> <PUBCHEM_CONFORMER_DIVERSEORDER>
1
5
10
2
6
12
9
3
7
11
8
4

> <PUBCHEM_MMFF94_PARTIAL_CHARGES>
23
1 -0.36
10 -0.15
11 -0.15
12 -0.15
13 -0.15
14 -0.15
15 -0.18
16 0.28
18 0.05
19 0.15
2 -0.52
20 0.15
21 0.15
22 0.15
23 0.15
24 0.15
25 0.15
3 -0.52
31 0.15
4 0.84
7 0.03
8 0.08
9 -0.15

> <PUBCHEM_EFFECTIVE_ROTOR_COUNT>
4

> <PUBCHEM_PHARMACOPHORE_FEATURES>
6
1 1 acceptor
1 2 acceptor
1 2 anion
1 3 acceptor
6 5 6 11 12 13 14 rings
6 5 6 7 8 9 10 rings

> <PUBCHEM_HEAVY_ATOM_COUNT>
18

> <PUBCHEM_ATOM_DEF_STEREO_COUNT>
0

> <PUBCHEM_ATOM_UDEF_STEREO_COUNT>
0

> <PUBCHEM_BOND_DEF_STEREO_COUNT>
1

> <PUBCHEM_BOND_UDEF_STEREO_COUNT>
0

> <PUBCHEM_ISOTOPIC_ATOM_COUNT>
0

> <PUBCHEM_COMPONENT_COUNT>
1

> <PUBCHEM_CACTVS_TAUTO_COUNT>
2

> <PUBCHEM_CONFORMER_ID>
000D8BCF00000001

> <PUBCHEM_MMFF94_ENERGY>
65.1214

> <PUBCHEM_FEATURE_SELFOVERLAP>
30.551

> <PUBCHEM_SHAPE_FINGERPRINT>
10062212 137 18261380183359346418
10319926 262 18126539406724975744
10411042 1 17690280834073237447
10493431 412 18412266121083930145
10616163 171 18338237184692434958
10967382 1 18338795594216252983
1100329 8 18339926016871838785
12403814 3 17603299354183888557
12592029 89 18261674749179889898
12644460 14 18116998784372455027
13140716 1 18338514265416409585
13544592 145 18201450134003614534
13583140 156 16515952680049737733
14790565 3 18339370677479594745
14866123 147 18338797922358280595
15042514 8 18335702775276162563
16752209 62 18266444576555462026
16945 1 18338782447506099693
19591789 44 18195811764950627511
200 152 11095882653065106193
204376 136 18409168779553462473
20645477 56 18410576197365875572
20739085 24 17976279949324168513
20871999 31 18338518672210623612
21041028 32 17758126169448426803
22182313 1 18198367137538198319
22224240 67 18412830179698076921
23402539 116 18343576356530738029
23419403 2 17268402367602867695
23557571 272 18200325440987856774
23558518 356 17974568297081148657
23559900 14 18343864433948335660
25147074 1 18266720455543447647
2748010 2 17545306944869660223
293599 30 18411703162393043469
335352 9 18411136914299994862
350125 39 18265900331748590953
366044 4 18410293597054764993
3759504 43 18186524319243424339
458136 41 18268433434492466243
474229 33 18408604743221326121
5104073 3 18335975480657532320
559249 180 18335695040936952146
58807428 26 18336535036953994586
59554788 170 18123477081081657373
7364860 26 18053380998629281599
81228 2 17903339748043560499
9709674 26 18343024419712396126

> <PUBCHEM_SHAPE_MULTIPOLES>
347.84
8.63
2.89
0.75
4.54
2.69
-0.03
-5.65
-0.52
-1.74
0.05
0.23
-0.05
-0.49

> <PUBCHEM_SHAPE_SELFOVERLAP>
747.405

> <PUBCHEM_SHAPE_VOLUME>
193.3

> <PUBCHEM_COORDINATE_TYPE>
2
5
10

$$$$
