2990902
  -OEChem-01171809573D

 36 37  0     0  0  0  0  0  0999 V2000
    0.5681    3.8730    0.5533 Cl  0  0  0  0  0  0  0  0  0  0  0  0
    3.8480   -1.2444   -0.1960 S   0  0  0  0  0  0  0  0  0  0  0  0
    4.2526   -1.3390   -1.5982 O   0  0  0  0  0  0  0  0  0  0  0  0
    4.8761   -1.3189    0.8425 O   0  0  0  0  0  0  0  0  0  0  0  0
   -0.9635    1.8523   -1.2994 O   0  0  0  0  0  0  0  0  0  0  0  0
    1.6001    0.1011   -0.2721 N   0  0  0  0  0  0  0  0  0  0  0  0
   -1.2231    0.1741    0.3267 N   0  0  0  0  0  0  0  0  0  0  0  0
    3.5751    1.2812    0.4447 N   0  0  0  0  0  0  0  0  0  0  0  0
    2.7150   -2.5850    0.1217 C   0  0  0  0  0  0  0  0  0  0  0  0
    2.9129    0.1904    0.0143 C   0  0  0  0  0  0  0  0  0  0  0  0
    3.3917   -3.9296   -0.0245 C   0  0  0  0  0  0  0  0  0  0  0  0
    0.9303    1.2443   -0.0930 C   0  0  0  0  0  0  0  0  0  0  0  0
   -2.5725   -0.1659    0.2259 C   0  0  0  0  0  0  0  0  0  0  0  0
   -0.5165    1.1304   -0.4145 C   0  0  0  0  0  0  0  0  0  0  0  0
    1.4606    2.4258    0.3362 C   0  0  0  0  0  0  0  0  0  0  0  0
   -5.2707   -0.8451    0.0234 C   0  0  0  0  0  0  0  0  0  0  0  0
   -3.3868    0.4807   -0.7040 C   0  0  0  0  0  0  0  0  0  0  0  0
   -3.1073   -1.1522    1.0545 C   0  0  0  0  0  0  0  0  0  0  0  0
    2.8152    2.3860    0.5953 C   0  0  0  0  0  0  0  0  0  0  0  0
   -4.7359    0.1412   -0.8051 C   0  0  0  0  0  0  0  0  0  0  0  0
   -4.4565   -1.4918    0.9533 C   0  0  0  0  0  0  0  0  0  0  0  0
   -6.7130   -1.2087   -0.0850 C   0  0  0  0  0  0  0  0  0  0  0  0
    2.3277   -2.4603    1.1374 H   0  0  0  0  0  0  0  0  0  0  0  0
    1.8901   -2.5083   -0.5927 H   0  0  0  0  0  0  0  0  0  0  0  0
    2.6794   -4.7370    0.1712 H   0  0  0  0  0  0  0  0  0  0  0  0
    3.7902   -4.0652   -1.0350 H   0  0  0  0  0  0  0  0  0  0  0  0
    4.2240   -4.0335    0.6790 H   0  0  0  0  0  0  0  0  0  0  0  0
   -0.6930   -0.3442    1.0244 H   0  0  0  0  0  0  0  0  0  0  0  0
   -3.0482    1.2531   -1.3800 H   0  0  0  0  0  0  0  0  0  0  0  0
   -2.4842   -1.6647    1.7831 H   0  0  0  0  0  0  0  0  0  0  0  0
    3.3553    3.2615    0.9424 H   0  0  0  0  0  0  0  0  0  0  0  0
   -5.3607    0.6502   -1.5344 H   0  0  0  0  0  0  0  0  0  0  0  0
   -4.8612   -2.2633    1.6031 H   0  0  0  0  0  0  0  0  0  0  0  0
   -7.1102   -1.5421    0.8798 H   0  0  0  0  0  0  0  0  0  0  0  0
   -7.3147   -0.3490   -0.3988 H   0  0  0  0  0  0  0  0  0  0  0  0
   -6.8436   -2.0136   -0.8151 H   0  0  0  0  0  0  0  0  0  0  0  0
  1 15  1  0  0  0  0
  2  3  2  0  0  0  0
  2  4  2  0  0  0  0
  2  9  1  0  0  0  0
  2 10  1  0  0  0  0
  5 14  2  0  0  0  0
  6 10  1  0  0  0  0
  6 12  2  0  0  0  0
  7 13  1  0  0  0  0
  7 14  1  0  0  0  0
  7 28  1  0  0  0  0
  8 10  2  0  0  0  0
  8 19  1  0  0  0  0
  9 11  1  0  0  0  0
  9 23  1  0  0  0  0
  9 24  1  0  0  0  0
 11 25  1  0  0  0  0
 11 26  1  0  0  0  0
 11 27  1  0  0  0  0
 12 14  1  0  0  0  0
 12 15  1  0  0  0  0
 13 17  2  0  0  0  0
 13 18  1  0  0  0  0
 15 19  2  0  0  0  0
 16 20  2  0  0  0  0
 16 21  1  0  0  0  0
 16 22  1  0  0  0  0
 17 20  1  0  0  0  0
 17 29  1  0  0  0  0
 18 21  2  0  0  0  0
 18 30  1  0  0  0  0
 19 31  1  0  0  0  0
 20 32  1  0  0  0  0
 21 33  1  0  0  0  0
 22 34  1  0  0  0  0
 22 35  1  0  0  0  0
 22 36  1  0  0  0  0
M  END
> <PUBCHEM_COMPOUND_CID>
2990902

> <PUBCHEM_CONFORMER_RMSD>
0.8

> <PUBCHEM_CONFORMER_DIVERSEORDER>
1
17
10
2
6
4
11
5
9
8
3
7
13
14
12
15
16
18

> <PUBCHEM_MMFF94_PARTIAL_CHARGES>
27
1 -0.18
10 0.61
12 0.4
13 0.12
14 0.54
15 0.18
16 -0.14
17 -0.15
18 -0.15
19 0.16
2 1.2
20 -0.15
21 -0.15
22 0.14
28 0.37
29 0.15
3 -0.65
30 0.15
31 0.15
32 0.15
33 0.15
4 -0.65
5 -0.57
6 -0.62
7 -0.55
8 -0.62
9 0.11

> <PUBCHEM_EFFECTIVE_ROTOR_COUNT>
5

> <PUBCHEM_PHARMACOPHORE_FEATURES>
8
1 3 acceptor
1 4 acceptor
1 5 acceptor
1 6 acceptor
1 7 donor
3 6 8 10 cation
6 13 16 17 18 20 21 rings
6 6 8 10 12 15 19 rings

> <PUBCHEM_HEAVY_ATOM_COUNT>
22

> <PUBCHEM_ATOM_DEF_STEREO_COUNT>
0

> <PUBCHEM_ATOM_UDEF_STEREO_COUNT>
0

> <PUBCHEM_BOND_DEF_STEREO_COUNT>
0

> <PUBCHEM_BOND_UDEF_STEREO_COUNT>
0

> <PUBCHEM_ISOTOPIC_ATOM_COUNT>
0

> <PUBCHEM_COMPONENT_COUNT>
1

> <PUBCHEM_CACTVS_TAUTO_COUNT>
2

> <PUBCHEM_CONFORMER_ID>
002DA33600000001

> <PUBCHEM_MMFF94_ENERGY>
53.2797

> <PUBCHEM_FEATURE_SELFOVERLAP>
40.615

> <PUBCHEM_SHAPE_FINGERPRINT>
114674 6 18334574672220071362
11595378 159 15339125610764324699
12107183 9 18127702526412294593
12403259 327 13973957688957045182
12506688 2 18409733937141166496
12553582 1 18267319659262541002
12596602 18 16845567664437968995
12617007 42 17168145680171776397
13402501 40 18259985989398245170
13533116 47 18271809068560344329
13544592 145 18187080685301884451
13544653 18 18410296921375523105
13583140 156 17841996878002463241
13631057 29 18265340495958124510
13911852 28 18340204073007037519
13955234 65 18198903802165005473
14790565 3 17616252924247186084
14863182 85 18337674234738987700
14866123 147 17691406304762074665
15352361 1 18337108951974759322
15422964 175 18339071597800390840
15635459 17 18334297565082623770
15664445 248 17313106379941815588
15927050 60 17764305438229802388
17349148 13 17275108353513098589
17844677 252 18412830192292964441
17859628 70 18412826884909657602
17980427 23 12894772771187942385
1813 80 18059307477929725404
18222031 100 18202569458036068926
19427546 62 17906731754142616792
20369508 70 18411699898175304270
20403669 9 18334858303270273147
20645477 70 18409163346140238707
21033650 10 16298663863685327541
21065198 57 18338236085148924721
21065201 7 17531236305938349625
21197605 99 18051415368355793411
21250096 35 18410855421515979027
21279426 13 18189889834605996445
21285901 2 17822004320097595557
21344244 78 17989196066759949201
21478907 32 18267304227070701449
2215653 11 18261106388184886351
22224240 67 18128807737430121128
23559900 14 18187927347799552021
23569914 152 17544435728661647695
23845131 108 17478035524625928624
239999 70 17968373550065754824
3004659 81 17894913993019551954
314173 41 18412269445283096366
33824 294 18411416254493303824
3421961 26 18412260644800070328
345986 75 17846499188459170115
46194498 28 17676490596186240997
463206 1 18408604759848164915
465052 167 18272657856544603895
5104073 3 18343580724723897345
5309563 4 18269275660125646774
59682541 52 18336535067699111247
6443956 14 18409168822292424656
9709674 26 18116716412132707595

> <PUBCHEM_SHAPE_MULTIPOLES>
425.92
12.31
3.84
0.99
14.46
0.32
0.12
-9.05
0.1
-5.32
-0.55
0.07
-0.03
1.15

> <PUBCHEM_SHAPE_SELFOVERLAP>
882.294

> <PUBCHEM_SHAPE_VOLUME>
244.6

> <PUBCHEM_COORDINATE_TYPE>
2
5
10

$$$$
