1433876
  -OEChem-01171809443D

 45 47  0     0  0  0  0  0  0999 V2000
   -0.8124    1.1341   -0.3626 S   0  0  0  0  0  0  0  0  0  0  0  0
    6.9881   -0.7946   -0.1739 O   0  0  0  0  0  0  0  0  0  0  0  0
   -9.0981   -0.3908   -0.2115 O   0  0  0  0  0  0  0  0  0  0  0  0
   -7.2777    0.9265   -0.5361 O   0  0  0  0  0  0  0  0  0  0  0  0
    1.5024   -0.1566   -0.4191 N   0  0  0  0  0  0  0  0  0  0  0  0
    0.6867    4.5710    0.2736 N   0  0  0  0  0  0  0  0  0  0  0  0
    3.6895    0.8130   -0.1283 C   0  0  0  0  0  0  0  0  0  0  0  0
   -2.7483   -0.7274    0.2649 C   0  0  0  0  0  0  0  0  0  0  0  0
    2.8407   -0.2906   -0.3555 C   0  0  0  0  0  0  0  0  0  0  0  0
   -1.2600   -0.5123    0.2511 C   0  0  0  0  0  0  0  0  0  0  0  0
   -5.4971   -1.1243    0.2911 C   0  0  0  0  0  0  0  0  0  0  0  0
    0.9751    1.0786   -0.2582 C   0  0  0  0  0  0  0  0  0  0  0  0
    5.0822    0.6365   -0.0677 C   0  0  0  0  0  0  0  0  0  0  0  0
    3.1018    2.0748    0.0334 C   0  0  0  0  0  0  0  0  0  0  0  0
   -3.3745   -1.2593   -0.8548 C   0  0  0  0  0  0  0  0  0  0  0  0
   -3.4783   -0.3915    1.3976 C   0  0  0  0  0  0  0  0  0  0  0  0
    5.6395   -0.6284   -0.2317 C   0  0  0  0  0  0  0  0  0  0  0  0
    1.7231    2.2162   -0.0317 C   0  0  0  0  0  0  0  0  0  0  0  0
    3.4249   -1.5442   -0.5156 C   0  0  0  0  0  0  0  0  0  0  0  0
   -4.7550   -1.4585   -0.8417 C   0  0  0  0  0  0  0  0  0  0  0  0
   -4.8587   -0.5908    1.4107 C   0  0  0  0  0  0  0  0  0  0  0  0
   -6.9729   -1.3384    0.3053 C   0  0  0  0  0  0  0  0  0  0  0  0
    4.8096   -1.7197   -0.4560 C   0  0  0  0  0  0  0  0  0  0  0  0
    7.4688   -2.0515    0.3015 C   0  0  0  0  0  0  0  0  0  0  0  0
   -7.7618   -0.1428   -0.1912 C   0  0  0  0  0  0  0  0  0  0  0  0
    1.1508    3.5165    0.1370 C   0  0  0  0  0  0  0  0  0  0  0  0
    8.8115   -1.8454    0.9693 C   0  0  0  0  0  0  0  0  0  0  0  0
   -0.8553   -0.6458    1.2615 H   0  0  0  0  0  0  0  0  0  0  0  0
   -0.7971   -1.2835   -0.3758 H   0  0  0  0  0  0  0  0  0  0  0  0
    5.7365    1.4883    0.1078 H   0  0  0  0  0  0  0  0  0  0  0  0
    3.7314    2.9457    0.2105 H   0  0  0  0  0  0  0  0  0  0  0  0
   -2.8068   -1.5218   -1.7431 H   0  0  0  0  0  0  0  0  0  0  0  0
   -2.9916    0.0261    2.2747 H   0  0  0  0  0  0  0  0  0  0  0  0
    2.7961   -2.4139   -0.6981 H   0  0  0  0  0  0  0  0  0  0  0  0
   -5.2407   -1.8730   -1.7213 H   0  0  0  0  0  0  0  0  0  0  0  0
   -5.4259   -0.3244    2.2987 H   0  0  0  0  0  0  0  0  0  0  0  0
   -7.3070   -1.5681    1.3243 H   0  0  0  0  0  0  0  0  0  0  0  0
   -7.2284   -2.2011   -0.3219 H   0  0  0  0  0  0  0  0  0  0  0  0
    5.1968   -2.7214   -0.6174 H   0  0  0  0  0  0  0  0  0  0  0  0
    6.7943   -2.4906    1.0473 H   0  0  0  0  0  0  0  0  0  0  0  0
    7.5770   -2.7386   -0.5450 H   0  0  0  0  0  0  0  0  0  0  0  0
    9.2156   -2.7928    1.3373 H   0  0  0  0  0  0  0  0  0  0  0  0
    9.5277   -1.4054    0.2674 H   0  0  0  0  0  0  0  0  0  0  0  0
    8.7216   -1.1491    1.8098 H   0  0  0  0  0  0  0  0  0  0  0  0
   -9.6083    0.3833   -0.5322 H   0  0  0  0  0  0  0  0  0  0  0  0
  1 10  1  0  0  0  0
  1 12  1  0  0  0  0
  2 17  1  0  0  0  0
  2 24  1  0  0  0  0
  3 25  1  0  0  0  0
  3 45  1  0  0  0  0
  4 25  2  0  0  0  0
  5  9  2  0  0  0  0
  5 12  1  0  0  0  0
  6 26  3  0  0  0  0
  7  9  1  0  0  0  0
  7 13  1  0  0  0  0
  7 14  2  0  0  0  0
  8 10  1  0  0  0  0
  8 15  2  0  0  0  0
  8 16  1  0  0  0  0
  9 19  1  0  0  0  0
 10 28  1  0  0  0  0
 10 29  1  0  0  0  0
 11 20  2  0  0  0  0
 11 21  1  0  0  0  0
 11 22  1  0  0  0  0
 12 18  2  0  0  0  0
 13 17  2  0  0  0  0
 13 30  1  0  0  0  0
 14 18  1  0  0  0  0
 14 31  1  0  0  0  0
 15 20  1  0  0  0  0
 15 32  1  0  0  0  0
 16 21  2  0  0  0  0
 16 33  1  0  0  0  0
 17 23  1  0  0  0  0
 18 26  1  0  0  0  0
 19 23  2  0  0  0  0
 19 34  1  0  0  0  0
 20 35  1  0  0  0  0
 21 36  1  0  0  0  0
 22 25  1  0  0  0  0
 22 37  1  0  0  0  0
 22 38  1  0  0  0  0
 23 39  1  0  0  0  0
 24 27  1  0  0  0  0
 24 40  1  0  0  0  0
 24 41  1  0  0  0  0
 27 42  1  0  0  0  0
 27 43  1  0  0  0  0
 27 44  1  0  0  0  0
M  END
> <PUBCHEM_COMPOUND_CID>
1433876

> <PUBCHEM_CONFORMER_RMSD>
0.8

> <PUBCHEM_CONFORMER_DIVERSEORDER>
1
31
35
55
16
72
81
76
20
49
40
77
36
69
66
18
23
37
68
62
19
6
15
71
70
50
43
51
44
65
17
2
24
56
10
13
38
9
60
73
29
21
75
27
28
59
34
4
39
47
42
3
5
58
11
26
85
53
57
30
64
54
48
14
32
7
78
63
86
82
46
80
25
61
33
83
45
12
67
22
41
84
74
52
79
8

> <PUBCHEM_MMFF94_PARTIAL_CHARGES>
34
1 -0.33
10 0.37
11 -0.14
12 0.41
13 -0.15
14 -0.15
15 -0.15
16 -0.15
17 0.08
18 0.07
19 -0.15
2 -0.36
20 -0.15
21 -0.15
22 0.2
23 -0.15
24 0.28
25 0.66
26 0.48
3 -0.65
30 0.15
31 0.15
32 0.15
33 0.15
34 0.15
35 0.15
36 0.15
39 0.15
4 -0.57
45 0.5
5 -0.62
6 -0.56
8 -0.14
9 0.31

> <PUBCHEM_EFFECTIVE_ROTOR_COUNT>
7

> <PUBCHEM_PHARMACOPHORE_FEATURES>
9
1 2 acceptor
1 3 acceptor
1 4 acceptor
1 5 acceptor
1 6 acceptor
3 3 4 25 anion
6 5 7 9 12 14 18 rings
6 7 9 13 17 19 23 rings
6 8 11 15 16 20 21 rings

> <PUBCHEM_HEAVY_ATOM_COUNT>
27

> <PUBCHEM_ATOM_DEF_STEREO_COUNT>
0

> <PUBCHEM_ATOM_UDEF_STEREO_COUNT>
0

> <PUBCHEM_BOND_DEF_STEREO_COUNT>
0

> <PUBCHEM_BOND_UDEF_STEREO_COUNT>
0

> <PUBCHEM_ISOTOPIC_ATOM_COUNT>
0

> <PUBCHEM_COMPONENT_COUNT>
1

> <PUBCHEM_CACTVS_TAUTO_COUNT>
1

> <PUBCHEM_CONFORMER_ID>
0015E11400000001

> <PUBCHEM_MMFF94_ENERGY>
70.3936

> <PUBCHEM_FEATURE_SELFOVERLAP>
45.763

> <PUBCHEM_SHAPE_FINGERPRINT>
10 15 12751234805336614958
10411042 1 18410575055611644908
106641 1 13901902315069250419
10670039 82 16226038964981982991
10674148 151 16950562177178689416
10917259 69 18192427477642597157
11297750 10 18335127692557900300
11456790 92 18271258174991788273
12166972 35 18131354145950939953
12202916 173 18409731746814328202
12236239 1 18060142089492672767
12516196 113 18411702088793358462
12539745 222 17774162284978382944
12592606 108 18411698811965862063
12760667 363 18334577919621197410
13540713 4 17699573533838117046
13673619 4 18113335314554952740
13914758 101 18342743997155374305
14117953 113 18273218586052752455
14216079 64 18409730638775523390
15183329 4 18260546715344012545
15419008 47 17967809458073416317
16087824 20 18412546491932227612
16992610 120 9871458869055888426
18335252 114 18411692206706749925
19301679 30 18268147553238662102
20028762 73 18202003227224298390
20511986 3 17774431810970973007
21267235 1 18411985737651398550
21315763 28 18340769347407762231
21792934 111 18341041965729554496
21792961 116 18187636956365162294
221357 26 18334575750383287389
22224240 67 15410892955450144302
23522609 53 18122098435562420732
23559900 14 18267301113657028097
249057 3 18343302591585020879
2838139 119 18411980279112176613
3004659 81 18040434399878621484
3103668 31 18188206473261094525
335352 9 18410577305177326942
4073 2 17970350523749707947
4112364 45 13686002246942589098
439807 62 17967814925418849826
5219985 9 18410294705594378620
58083652 198 18336273404842327032
58902169 19 18130498743695972109
6126387 218 18201433658329705929
6371380 46 18259984890413884787
6691757 9 16559036021499662167
9663363 56 18408600353833470826

> <PUBCHEM_SHAPE_MULTIPOLES>
531.93
24.4
3.07
0.92
13.06
4.26
-0.18
-17.5
-1.92
-3.68
-0.21
0.53
-0.24
-0.31

> <PUBCHEM_SHAPE_SELFOVERLAP>
1134.049

> <PUBCHEM_SHAPE_VOLUME>
296.5

> <PUBCHEM_COORDINATE_TYPE>
2
5
10

$$$$
