11958802
  -OEChem-01171809283D

 37 39  0     0  0  0  0  0  0999 V2000
   -0.4824    1.2274    2.0423 Cl  0  0  0  0  0  0  0  0  0  0  0  0
   -5.5732    1.1140    1.1333 F   0  0  0  0  0  0  0  0  0  0  0  0
   -5.7087    1.1600   -1.0360 F   0  0  0  0  0  0  0  0  0  0  0  0
   -5.8269   -0.7434    0.0201 F   0  0  0  0  0  0  0  0  0  0  0  0
    3.3528    1.6232    1.0986 O   0  0  0  0  0  0  0  0  0  0  0  0
    0.3458   -0.2365   -0.4731 N   0  0  0  0  0  0  0  0  0  0  0  0
   -1.8059   -0.5359   -1.3084 N   0  0  0  0  0  0  0  0  0  0  0  0
    1.0621   -1.3226   -0.0229 C   0  0  0  0  0  0  0  0  0  0  0  0
    2.3944   -1.1159   -0.3870 C   0  0  0  0  0  0  0  0  0  0  0  0
    2.4518    0.1311   -1.0702 C   0  0  0  0  0  0  0  0  0  0  0  0
    1.1770    0.6474   -1.1073 C   0  0  0  0  0  0  0  0  0  0  0  0
   -1.0300   -0.0457   -0.3205 C   0  0  0  0  0  0  0  0  0  0  0  0
    0.6368   -2.4608    0.6714 C   0  0  0  0  0  0  0  0  0  0  0  0
    3.3508   -2.0914   -0.0424 C   0  0  0  0  0  0  0  0  0  0  0  0
    3.5853    0.7647   -1.6253 C   0  0  0  0  0  0  0  0  0  0  0  0
    1.6033   -3.4145    1.0029 C   0  0  0  0  0  0  0  0  0  0  0  0
    2.9401   -3.2348    0.6525 C   0  0  0  0  0  0  0  0  0  0  0  0
   -1.5048    0.6133    0.7973 C   0  0  0  0  0  0  0  0  0  0  0  0
   -3.7194    0.2930   -0.0849 C   0  0  0  0  0  0  0  0  0  0  0  0
   -2.8804    0.7823    0.9102 C   0  0  0  0  0  0  0  0  0  0  0  0
   -3.1375   -0.3529   -1.1641 C   0  0  0  0  0  0  0  0  0  0  0  0
    4.4389    1.6408   -1.0267 C   0  0  0  0  0  0  0  0  0  0  0  0
   -5.1949    0.4575    0.0062 C   0  0  0  0  0  0  0  0  0  0  0  0
    4.2582    2.0620    0.3931 C   0  0  0  0  0  0  0  0  0  0  0  0
    5.2666    3.0378    0.9406 C   0  0  0  0  0  0  0  0  0  0  0  0
    0.7960    1.5683   -1.5319 H   0  0  0  0  0  0  0  0  0  0  0  0
   -0.4018   -2.6091    0.9480 H   0  0  0  0  0  0  0  0  0  0  0  0
    4.3970   -1.9669   -0.3074 H   0  0  0  0  0  0  0  0  0  0  0  0
    3.8031    0.5182   -2.6632 H   0  0  0  0  0  0  0  0  0  0  0  0
    1.3062   -4.3102    1.5425 H   0  0  0  0  0  0  0  0  0  0  0  0
    3.6734   -3.9904    0.9213 H   0  0  0  0  0  0  0  0  0  0  0  0
   -3.2954    1.2953    1.7743 H   0  0  0  0  0  0  0  0  0  0  0  0
   -3.7414   -0.7558   -1.9714 H   0  0  0  0  0  0  0  0  0  0  0  0
    5.2763    2.0502   -1.5809 H   0  0  0  0  0  0  0  0  0  0  0  0
    4.7487    3.7848    1.5489 H   0  0  0  0  0  0  0  0  0  0  0  0
    5.9953    2.4994    1.5517 H   0  0  0  0  0  0  0  0  0  0  0  0
    5.7873    3.5638    0.1359 H   0  0  0  0  0  0  0  0  0  0  0  0
  1 18  1  0  0  0  0
  2 23  1  0  0  0  0
  3 23  1  0  0  0  0
  4 23  1  0  0  0  0
  5 24  2  0  0  0  0
  6  8  1  0  0  0  0
  6 11  1  0  0  0  0
  6 12  1  0  0  0  0
  7 12  1  0  0  0  0
  7 21  2  0  0  0  0
  8  9  1  0  0  0  0
  8 13  2  0  0  0  0
  9 10  1  0  0  0  0
  9 14  2  0  0  0  0
 10 11  2  0  0  0  0
 10 15  1  0  0  0  0
 11 26  1  0  0  0  0
 12 18  2  0  0  0  0
 13 16  1  0  0  0  0
 13 27  1  0  0  0  0
 14 17  1  0  0  0  0
 14 28  1  0  0  0  0
 15 22  2  0  0  0  0
 15 29  1  0  0  0  0
 16 17  2  0  0  0  0
 16 30  1  0  0  0  0
 17 31  1  0  0  0  0
 18 20  1  0  0  0  0
 19 20  2  0  0  0  0
 19 21  1  0  0  0  0
 19 23  1  0  0  0  0
 20 32  1  0  0  0  0
 21 33  1  0  0  0  0
 22 24  1  0  0  0  0
 22 34  1  0  0  0  0
 24 25  1  0  0  0  0
 25 35  1  0  0  0  0
 25 36  1  0  0  0  0
 25 37  1  0  0  0  0
M  END
> <PUBCHEM_COMPOUND_CID>
11958802

> <PUBCHEM_CONFORMER_RMSD>
0.8

> <PUBCHEM_CONFORMER_DIVERSEORDER>
1
13
16
14
12
11
2
17
15
6
9
4
8
3
10
5
7

> <PUBCHEM_MMFF94_PARTIAL_CHARGES>
33
1 -0.18
10 -0.05
11 -0.3
12 0.29
13 -0.15
14 -0.15
15 -0.1
16 -0.15
17 -0.15
18 0.18
19 -0.14
2 -0.34
20 -0.15
21 0.16
22 -0.14
23 1.16
24 0.49
25 0.06
26 0.15
27 0.15
28 0.15
29 0.15
3 -0.34
30 0.15
31 0.15
32 0.15
33 0.15
34 0.15
4 -0.34
5 -0.57
6 0.33
7 -0.62
8 -0.15

> <PUBCHEM_EFFECTIVE_ROTOR_COUNT>
4

> <PUBCHEM_PHARMACOPHORE_FEATURES>
6
1 5 acceptor
1 6 cation
1 7 acceptor
5 6 8 9 10 11 rings
6 7 12 18 19 20 21 rings
6 8 9 13 14 16 17 rings

> <PUBCHEM_HEAVY_ATOM_COUNT>
25

> <PUBCHEM_ATOM_DEF_STEREO_COUNT>
0

> <PUBCHEM_ATOM_UDEF_STEREO_COUNT>
0

> <PUBCHEM_BOND_DEF_STEREO_COUNT>
1

> <PUBCHEM_BOND_UDEF_STEREO_COUNT>
0

> <PUBCHEM_ISOTOPIC_ATOM_COUNT>
0

> <PUBCHEM_COMPONENT_COUNT>
1

> <PUBCHEM_CACTVS_TAUTO_COUNT>
2

> <PUBCHEM_CONFORMER_ID>
00B67A1200000001

> <PUBCHEM_MMFF94_ENERGY>
77.4321

> <PUBCHEM_FEATURE_SELFOVERLAP>
30.538

> <PUBCHEM_SHAPE_FINGERPRINT>
10692045 39 18338782482593527210
11475781 23 16444167765750385919
12107183 9 17543071178490378297
12236239 1 18272092638932846007
12597179 24 18041000686721192626
12730499 353 18261123975284743923
12788726 201 17346324756588999977
13009979 54 17697882471268400762
13533116 47 18335708183067139139
13631057 29 18196089083059009111
13726171 33 17488753397001884259
13955234 65 18334858264663190162
14251764 30 9943264635527931896
14461889 52 17968667120097632867
146900 427 18271257061977943131
14739800 52 17988632008952930568
14787075 74 17913208946865414866
14849402 71 18410013235192203664
15142526 21 18126840727980929240
17913733 40 18336841869338343739
1813 80 17908429056841553894
18681886 176 18130222632559056470
19784866 34 18411978104555321596
20511986 3 18130495392909727005
20567600 254 18340201994606713608
20645477 70 17895198748992639231
21033648 29 17385721353771694237
21049683 118 18051107462571473352
21120745 212 17258789118798978878
21403212 168 18338504306194001536
21452121 103 18260822679323969628
22149856 69 18042712588609586811
23419403 2 13555075601609453514
23558518 356 17550090907114063580
23559900 14 15358276891517825146
268830 7 18201442416053313673
312423 11 18128828442807669059
34934 24 17988641938611272405
4340502 62 18335704978578457059
469060 322 17827936327164133739
474 4 18340208608645417852
495365 180 18259707774501860282
5104073 3 18334863784133482955
58807428 26 18114451366903586490
5895379 119 17057820503236722336
59755656 520 18339639057616952262
633830 44 18200028577175343516
67856867 119 18338232669905989635
6913067 236 17676479601333733063
70251023 43 18125451816966504918
84936 182 18412547579060139264
9981440 41 17557416889372119152

> <PUBCHEM_SHAPE_MULTIPOLES>
478.71
11.37
3.17
1.47
12.86
2.2
0.13
-7.34
-0.36
-5.53
1.44
-0.26
-0.48
-0.22

> <PUBCHEM_SHAPE_SELFOVERLAP>
1047.066

> <PUBCHEM_SHAPE_VOLUME>
264.1

> <PUBCHEM_COORDINATE_TYPE>
2
5
10

$$$$
