1317387
  -OEChem-01171809233D

 52 54  0     0  0  0  0  0  0999 V2000
    0.4273    3.7285   -0.2478 S   0  0  0  0  0  0  0  0  0  0  0  0
    6.5095   -4.2942    0.2432 F   0  0  0  0  0  0  0  0  0  0  0  0
    0.3662    4.2737   -1.5869 O   0  0  0  0  0  0  0  0  0  0  0  0
    0.5723    4.5925    0.9039 O   0  0  0  0  0  0  0  0  0  0  0  0
   -4.3742    0.4035    0.5671 O   0  0  0  0  0  0  0  0  0  0  0  0
   -5.6222   -2.7213   -0.6443 O   0  0  0  0  0  0  0  0  0  0  0  0
   -5.6647   -1.7808    1.4633 O   0  0  0  0  0  0  0  0  0  0  0  0
    1.6400    2.5199   -0.1917 N   0  0  0  0  0  0  0  0  0  0  0  0
    3.1702    0.1349   -0.0741 N   0  0  0  0  0  0  0  0  0  0  0  0
    1.7138    1.7470    1.0805 C   0  0  0  0  0  0  0  0  0  0  0  0
    1.6928    1.6119   -1.3720 C   0  0  0  0  0  0  0  0  0  0  0  0
    3.0260    0.9695    1.1272 C   0  0  0  0  0  0  0  0  0  0  0  0
    3.0024    0.8278   -1.3568 C   0  0  0  0  0  0  0  0  0  0  0  0
    4.0110   -0.9810    0.0057 C   0  0  0  0  0  0  0  0  0  0  0  0
   -1.0101    2.7334   -0.0037 C   0  0  0  0  0  0  0  0  0  0  0  0
    3.7619   -2.0115    0.9333 C   0  0  0  0  0  0  0  0  0  0  0  0
    5.1315   -1.1060   -0.8391 C   0  0  0  0  0  0  0  0  0  0  0  0
   -1.6594    2.1982   -1.1044 C   0  0  0  0  0  0  0  0  0  0  0  0
   -1.4657    2.5038    1.2843 C   0  0  0  0  0  0  0  0  0  0  0  0
    4.6006   -3.1234    1.0131 C   0  0  0  0  0  0  0  0  0  0  0  0
    5.9699   -2.2179   -0.7594 C   0  0  0  0  0  0  0  0  0  0  0  0
   -2.7954    1.4119   -0.9117 C   0  0  0  0  0  0  0  0  0  0  0  0
   -2.6015    1.7174    1.4771 C   0  0  0  0  0  0  0  0  0  0  0  0
   -3.2663    1.1715    0.3789 C   0  0  0  0  0  0  0  0  0  0  0  0
    5.7045   -3.2265    0.1668 C   0  0  0  0  0  0  0  0  0  0  0  0
   -4.6252   -0.6205   -0.3942 C   0  0  0  0  0  0  0  0  0  0  0  0
   -5.3589   -1.7503    0.2790 C   0  0  0  0  0  0  0  0  0  0  0  0
   -6.3215   -3.8680   -0.1499 C   0  0  0  0  0  0  0  0  0  0  0  0
   -6.5347   -4.8439   -1.2874 C   0  0  0  0  0  0  0  0  0  0  0  0
    0.8824    1.0373    1.1451 H   0  0  0  0  0  0  0  0  0  0  0  0
    1.6755    2.4220    1.9412 H   0  0  0  0  0  0  0  0  0  0  0  0
    1.6433    2.1861   -2.3023 H   0  0  0  0  0  0  0  0  0  0  0  0
    0.8514    0.9111   -1.3466 H   0  0  0  0  0  0  0  0  0  0  0  0
    3.0378    0.3701    2.0447 H   0  0  0  0  0  0  0  0  0  0  0  0
    3.8739    1.6642    1.1816 H   0  0  0  0  0  0  0  0  0  0  0  0
    3.8449    1.5124   -1.5177 H   0  0  0  0  0  0  0  0  0  0  0  0
    2.9803    0.1123   -2.1880 H   0  0  0  0  0  0  0  0  0  0  0  0
    2.9000   -1.9588    1.5947 H   0  0  0  0  0  0  0  0  0  0  0  0
    5.3777   -0.3338   -1.5636 H   0  0  0  0  0  0  0  0  0  0  0  0
   -1.3104    2.3751   -2.1171 H   0  0  0  0  0  0  0  0  0  0  0  0
   -0.9628    2.9177    2.1529 H   0  0  0  0  0  0  0  0  0  0  0  0
    4.3928   -3.9103    1.7320 H   0  0  0  0  0  0  0  0  0  0  0  0
    6.8312   -2.2975   -1.4160 H   0  0  0  0  0  0  0  0  0  0  0  0
   -3.2985    1.0268   -1.7937 H   0  0  0  0  0  0  0  0  0  0  0  0
   -2.9634    1.5326    2.4849 H   0  0  0  0  0  0  0  0  0  0  0  0
   -3.6931   -1.0437   -0.7883 H   0  0  0  0  0  0  0  0  0  0  0  0
   -5.2547   -0.2162   -1.1935 H   0  0  0  0  0  0  0  0  0  0  0  0
   -7.2900   -3.5573    0.2578 H   0  0  0  0  0  0  0  0  0  0  0  0
   -5.7298   -4.3438    0.6401 H   0  0  0  0  0  0  0  0  0  0  0  0
   -5.5754   -5.1498   -1.7176 H   0  0  0  0  0  0  0  0  0  0  0  0
   -7.1098   -4.3764   -2.0935 H   0  0  0  0  0  0  0  0  0  0  0  0
   -7.0679   -5.7346   -0.9437 H   0  0  0  0  0  0  0  0  0  0  0  0
  1  3  2  0  0  0  0
  1  4  2  0  0  0  0
  1  8  1  0  0  0  0
  1 15  1  0  0  0  0
  2 25  1  0  0  0  0
  5 24  1  0  0  0  0
  5 26  1  0  0  0  0
  6 27  1  0  0  0  0
  6 28  1  0  0  0  0
  7 27  2  0  0  0  0
  8 10  1  0  0  0  0
  8 11  1  0  0  0  0
  9 12  1  0  0  0  0
  9 13  1  0  0  0  0
  9 14  1  0  0  0  0
 10 12  1  0  0  0  0
 10 30  1  0  0  0  0
 10 31  1  0  0  0  0
 11 13  1  0  0  0  0
 11 32  1  0  0  0  0
 11 33  1  0  0  0  0
 12 34  1  0  0  0  0
 12 35  1  0  0  0  0
 13 36  1  0  0  0  0
 13 37  1  0  0  0  0
 14 16  2  0  0  0  0
 14 17  1  0  0  0  0
 15 18  2  0  0  0  0
 15 19  1  0  0  0  0
 16 20  1  0  0  0  0
 16 38  1  0  0  0  0
 17 21  2  0  0  0  0
 17 39  1  0  0  0  0
 18 22  1  0  0  0  0
 18 40  1  0  0  0  0
 19 23  2  0  0  0  0
 19 41  1  0  0  0  0
 20 25  2  0  0  0  0
 20 42  1  0  0  0  0
 21 25  1  0  0  0  0
 21 43  1  0  0  0  0
 22 24  2  0  0  0  0
 22 44  1  0  0  0  0
 23 24  1  0  0  0  0
 23 45  1  0  0  0  0
 26 27  1  0  0  0  0
 26 46  1  0  0  0  0
 26 47  1  0  0  0  0
 28 29  1  0  0  0  0
 28 48  1  0  0  0  0
 28 49  1  0  0  0  0
 29 50  1  0  0  0  0
 29 51  1  0  0  0  0
 29 52  1  0  0  0  0
M  END
> <PUBCHEM_COMPOUND_CID>
1317387

> <PUBCHEM_CONFORMER_RMSD>
1

> <PUBCHEM_CONFORMER_DIVERSEORDER>
1
31
23
33
58
39
4
56
53
38
11
5
26
18
25
3
54
19
40
35
59
20
14
32
43
49
30
46
24
55
27
50
6
16
61
13
22
48
37
51
34
29
36
17
62
41
15
57
60
8
7
47
9
45
42
63
10
44
21
52
28
2
12

> <PUBCHEM_MMFF94_PARTIAL_CHARGES>
36
1 1.45
10 0.36
11 0.36
12 0.37
13 0.37
14 0.1
15 -0.01
16 -0.15
17 -0.15
18 -0.15
19 -0.15
2 -0.19
20 -0.15
21 -0.15
22 -0.15
23 -0.15
24 0.08
25 0.19
26 0.34
27 0.66
28 0.28
3 -0.65
38 0.15
39 0.15
4 -0.65
40 0.15
41 0.15
42 0.15
43 0.15
44 0.15
45 0.15
5 -0.36
6 -0.43
7 -0.57
8 -0.85
9 -0.84

> <PUBCHEM_EFFECTIVE_ROTOR_COUNT>
9.2

> <PUBCHEM_PHARMACOPHORE_FEATURES>
8
1 3 acceptor
1 4 acceptor
1 5 acceptor
1 7 acceptor
1 9 cation
6 14 16 17 20 21 25 rings
6 15 18 19 22 23 24 rings
6 8 9 10 11 12 13 rings

> <PUBCHEM_HEAVY_ATOM_COUNT>
29

> <PUBCHEM_ATOM_DEF_STEREO_COUNT>
0

> <PUBCHEM_ATOM_UDEF_STEREO_COUNT>
0

> <PUBCHEM_BOND_DEF_STEREO_COUNT>
0

> <PUBCHEM_BOND_UDEF_STEREO_COUNT>
0

> <PUBCHEM_ISOTOPIC_ATOM_COUNT>
0

> <PUBCHEM_COMPONENT_COUNT>
1

> <PUBCHEM_CACTVS_TAUTO_COUNT>
1

> <PUBCHEM_CONFORMER_ID>
00141A0B00000001

> <PUBCHEM_MMFF94_ENERGY>
72.7831

> <PUBCHEM_FEATURE_SELFOVERLAP>
40.622

> <PUBCHEM_SHAPE_FINGERPRINT>
10042902 136 18338519638515162880
10074138 170 17201095690447136513
10319688 140 18191872446669418269
10622 236 18341049709507986343
11069576 57 18118969328363758749
11409948 35 18194680600781301111
11497681 19 18336273332740187654
11552529 35 17976820879328513720
11607047 403 18267293413408615632
117089 54 18410580608239993795
11796584 16 18122628241421276900
12107183 9 18270415923305045393
12633257 1 15984810549921884244
13103583 49 18058178219422189576
131258 38 17838325642657717879
1361 4 18267588997247833198
13690498 29 17749957631019081477
13911852 28 18339641265393711167
13965767 371 12175628351824508096
14026016 60 17909808158673245247
14251740 57 18341609381915817403
14429380 30 18335426725133466066
14950920 106 17632296757084124545
15142526 21 10807945868583996525
15250474 111 17537436224485057442
15475509 35 17770497848872411897
155225 6 8790619117135475775
15803439 3 16740557436507008437
17138139 8 18041278751968753866
17492 89 18340204193550828417
19315092 285 17916592075714840513
19319366 153 17765154269058123221
19438510 23 9332145614337111097
20775438 99 17902786702253738219
20775530 9 18410287004042510755
20843269 155 18411138009137282030
21307412 95 18263914463551826733
21585483 132 17984412208339364911
22956985 138 18411693301776379944
24893989 43 17411911960573164503
25222932 49 18268995456511548988
2748736 6 9151176415754199339
2835820 82 18194680600338072519
2838139 119 8574713494259981713
32027 91 18340479050241171477
4017518 198 17327739500775157005
44062 13 18261670381678541773
463206 1 18334019367313270035
484985 159 18048877394770585101
5047190 6 17701230725331711663
6058803 2 18196959818953943833
6201320 221 17842820391186439951
6201460 15 17913202350313900055
6441014 3 18339637832850672234
7288768 16 11599710775413355149
7970288 3 18410293571037294634
9980921 52 17914879071629365527

> <PUBCHEM_SHAPE_MULTIPOLES>
554.07
16.59
7.07
1.41
7.99
2.58
-0.02
32.79
-0.83
2.62
-0.8
0.16
-0.45
-2.13

> <PUBCHEM_SHAPE_SELFOVERLAP>
1154.013

> <PUBCHEM_SHAPE_VOLUME>
317.7

> <PUBCHEM_COORDINATE_TYPE>
2
5
10

$$$$
