2873368
  -OEChem-01171809463D

 44 47  0     0  0  0  0  0  0999 V2000
    5.5199   -1.2237    0.1240 O   0  0  0  0  0  0  0  0  0  0  0  0
    3.3335    0.5714   -0.1909 N   0  0  0  0  0  0  0  0  0  0  0  0
   -1.5164    0.3256    0.0509 C   0  0  0  0  0  0  0  0  0  0  0  0
   -3.1225   -1.5642    0.5619 C   0  0  0  0  0  0  0  0  0  0  0  0
   -3.9017    0.8267    0.7377 C   0  0  0  0  0  0  0  0  0  0  0  0
   -3.4329   -0.1831   -1.5239 C   0  0  0  0  0  0  0  0  0  0  0  0
   -1.6612   -1.0905    0.6531 C   0  0  0  0  0  0  0  0  0  0  0  0
   -2.4377    1.2930    0.8284 C   0  0  0  0  0  0  0  0  0  0  0  0
   -1.9706    0.2863   -1.4260 C   0  0  0  0  0  0  0  0  0  0  0  0
   -4.0211   -0.5850    1.3362 C   0  0  0  0  0  0  0  0  0  0  0  0
   -3.5547   -1.5897   -0.9139 C   0  0  0  0  0  0  0  0  0  0  0  0
   -4.3299    0.7889   -0.7391 C   0  0  0  0  0  0  0  0  0  0  0  0
   -0.1155    0.7754    0.1402 C   0  0  0  0  0  0  0  0  0  0  0  0
    1.0258    1.1424    0.2125 C   0  0  0  0  0  0  0  0  0  0  0  0
    2.4167    1.5961    0.3040 C   0  0  0  0  0  0  0  0  0  0  0  0
    3.2056   -0.6655    0.5922 C   0  0  0  0  0  0  0  0  0  0  0  0
    4.7221    1.0506   -0.1518 C   0  0  0  0  0  0  0  0  0  0  0  0
    4.1803   -1.7152    0.0660 C   0  0  0  0  0  0  0  0  0  0  0  0
    5.6604   -0.0395   -0.6616 C   0  0  0  0  0  0  0  0  0  0  0  0
   -3.2132   -2.5681    0.9914 H   0  0  0  0  0  0  0  0  0  0  0  0
   -4.5452    1.5190    1.2918 H   0  0  0  0  0  0  0  0  0  0  0  0
   -3.7439   -0.2073   -2.5743 H   0  0  0  0  0  0  0  0  0  0  0  0
   -1.3359   -1.0960    1.7022 H   0  0  0  0  0  0  0  0  0  0  0  0
   -1.0092   -1.7999    0.1256 H   0  0  0  0  0  0  0  0  0  0  0  0
   -2.3493    2.3119    0.4278 H   0  0  0  0  0  0  0  0  0  0  0  0
   -2.1328    1.3491    1.8822 H   0  0  0  0  0  0  0  0  0  0  0  0
   -1.3267   -0.3876   -2.0073 H   0  0  0  0  0  0  0  0  0  0  0  0
   -1.8700    1.2793   -1.8847 H   0  0  0  0  0  0  0  0  0  0  0  0
   -5.0642   -0.9220    1.2953 H   0  0  0  0  0  0  0  0  0  0  0  0
   -3.7329   -0.5689    2.3945 H   0  0  0  0  0  0  0  0  0  0  0  0
   -2.9310   -2.2966   -1.4747 H   0  0  0  0  0  0  0  0  0  0  0  0
   -4.5895   -1.9444   -0.9948 H   0  0  0  0  0  0  0  0  0  0  0  0
   -5.3785    0.4764   -0.8169 H   0  0  0  0  0  0  0  0  0  0  0  0
   -4.2640    1.7938   -1.1741 H   0  0  0  0  0  0  0  0  0  0  0  0
    2.6487    1.8704    1.3410 H   0  0  0  0  0  0  0  0  0  0  0  0
    2.5227    2.5057   -0.2998 H   0  0  0  0  0  0  0  0  0  0  0  0
    2.2000   -1.0937    0.5232 H   0  0  0  0  0  0  0  0  0  0  0  0
    3.4206   -0.4698    1.6512 H   0  0  0  0  0  0  0  0  0  0  0  0
    5.0025    1.3221    0.8743 H   0  0  0  0  0  0  0  0  0  0  0  0
    4.8358    1.9401   -0.7818 H   0  0  0  0  0  0  0  0  0  0  0  0
    4.1300   -2.6154    0.6870 H   0  0  0  0  0  0  0  0  0  0  0  0
    3.9421   -2.0089   -0.9637 H   0  0  0  0  0  0  0  0  0  0  0  0
    5.4722   -0.2751   -1.7162 H   0  0  0  0  0  0  0  0  0  0  0  0
    6.6997    0.2941   -0.5773 H   0  0  0  0  0  0  0  0  0  0  0  0
  1 18  1  0  0  0  0
  1 19  1  0  0  0  0
  2 15  1  0  0  0  0
  2 16  1  0  0  0  0
  2 17  1  0  0  0  0
  3  7  1  0  0  0  0
  3  8  1  0  0  0  0
  3  9  1  0  0  0  0
  3 13  1  0  0  0  0
  4  7  1  0  0  0  0
  4 10  1  0  0  0  0
  4 11  1  0  0  0  0
  4 20  1  0  0  0  0
  5  8  1  0  0  0  0
  5 10  1  0  0  0  0
  5 12  1  0  0  0  0
  5 21  1  0  0  0  0
  6  9  1  0  0  0  0
  6 11  1  0  0  0  0
  6 12  1  0  0  0  0
  6 22  1  0  0  0  0
  7 23  1  0  0  0  0
  7 24  1  0  0  0  0
  8 25  1  0  0  0  0
  8 26  1  0  0  0  0
  9 27  1  0  0  0  0
  9 28  1  0  0  0  0
 10 29  1  0  0  0  0
 10 30  1  0  0  0  0
 11 31  1  0  0  0  0
 11 32  1  0  0  0  0
 12 33  1  0  0  0  0
 12 34  1  0  0  0  0
 13 14  3  0  0  0  0
 14 15  1  0  0  0  0
 15 35  1  0  0  0  0
 15 36  1  0  0  0  0
 16 18  1  0  0  0  0
 16 37  1  0  0  0  0
 16 38  1  0  0  0  0
 17 19  1  0  0  0  0
 17 39  1  0  0  0  0
 17 40  1  0  0  0  0
 18 41  1  0  0  0  0
 18 42  1  0  0  0  0
 19 43  1  0  0  0  0
 19 44  1  0  0  0  0
M  END
> <PUBCHEM_COMPOUND_CID>
2873368

> <PUBCHEM_CONFORMER_RMSD>
0.6

> <PUBCHEM_CONFORMER_DIVERSEORDER>
1
3
2

> <PUBCHEM_MMFF94_PARTIAL_CHARGES>
10
1 -0.56
13 -0.2
14 -0.2
15 0.47
16 0.27
17 0.27
18 0.28
19 0.28
2 -0.81
3 0.2

> <PUBCHEM_EFFECTIVE_ROTOR_COUNT>
3.4

> <PUBCHEM_PHARMACOPHORE_FEATURES>
7
1 1 acceptor
1 2 cation
6 1 2 16 17 18 19 rings
6 3 4 5 7 8 10 rings
6 3 4 6 7 9 11 rings
6 3 5 6 8 9 12 rings
6 4 5 6 10 11 12 rings

> <PUBCHEM_HEAVY_ATOM_COUNT>
19

> <PUBCHEM_ATOM_DEF_STEREO_COUNT>
0

> <PUBCHEM_ATOM_UDEF_STEREO_COUNT>
0

> <PUBCHEM_BOND_DEF_STEREO_COUNT>
0

> <PUBCHEM_BOND_UDEF_STEREO_COUNT>
0

> <PUBCHEM_ISOTOPIC_ATOM_COUNT>
0

> <PUBCHEM_COMPONENT_COUNT>
1

> <PUBCHEM_CACTVS_TAUTO_COUNT>
1

> <PUBCHEM_CONFORMER_ID>
002BD81800000001

> <PUBCHEM_MMFF94_ENERGY>
37.5435

> <PUBCHEM_FEATURE_SELFOVERLAP>
48.051

> <PUBCHEM_SHAPE_FINGERPRINT>
10062212 137 17989484134664192327
10670039 82 10447652456976676962
10680689 15 17022903458227955853
11128504 68 15213309638038882710
11315181 36 15985383404196023088
12107183 9 17694511342910555016
12236239 1 17989488528157448545
12523318 42 15266762408207072423
12555020 224 18411128130844266423
12596602 18 15482382115151674130
128620 24 14490191617927768176
13024252 1 12180111095960405737
13167823 11 18201719570028823020
13288520 33 18408888460139206267
13533116 47 18127406963578556705
13914758 101 15841272537326843409
15188451 53 15554149441776228509
15196674 1 18409450297627773138
15239154 128 8142088671495827934
15788980 27 18272088301226665580
15880784 105 16916780821056177010
17349148 13 14189288287665452985
17834072 33 18413109481052044160
17844677 252 18408609171111634012
17857418 61 18341607101715424922
18186145 218 17749103409162707832
19489759 90 14836404714037366729
200 152 18130782382407732285
20281475 54 18412824711540044356
20325693 3 16515400768452345927
20645477 70 18335423457069158770
21250096 35 18201717336793606696
2215653 11 18409158900996839197
22646028 1 18060416928312231940
22646028 28 18343580737835054086
2306618 200 16272215193484201665
23402539 116 17917710188999306209
235170 7 16877659046288892534
23559900 14 18341884246901514528
2838139 119 17988077782727576737
300161 21 18409442592424834496
3004659 81 18113900421526195170
3268164 11 15430028872630386263
34797466 226 15647349532489283110
351380 3 18202848747238396702
4214541 1 18410577262380738416
4921388 177 16805610303919891251
5104073 3 17632014251183309490
5281201 14 17385445440513972116
542803 24 13190340167083202864
559249 180 18200028430602889085
573450 72 17131832075160017193
59755656 520 18408600341402022389
633830 44 17313100869113541856
9709674 26 18189898797569642930

> <PUBCHEM_SHAPE_MULTIPOLES>
380.16
12.41
1.69
1.18
15.46
0.32
0.21
2.34
0.96
0.3
-0.17
-1.37
0.07
-0.14

> <PUBCHEM_SHAPE_SELFOVERLAP>
811.038

> <PUBCHEM_SHAPE_VOLUME>
204.2

> <PUBCHEM_COORDINATE_TYPE>
2
5
10

$$$$
