2530952
  -OEChem-01171809493D

 29 31  0     0  0  0  0  0  0999 V2000
    4.6675    2.0080   -0.6446 Br  0  0  0  0  0  0  0  0  0  0  0  0
   -3.8290   -2.8436    0.1386 Cl  0  0  0  0  0  0  0  0  0  0  0  0
   -5.6421   -0.9094   -1.8009 Cl  0  0  0  0  0  0  0  0  0  0  0  0
    0.7731    0.4154    0.8235 O   0  0  0  0  0  0  0  0  0  0  0  0
   -1.8279   -1.2379    1.5339 O   0  0  0  0  0  0  0  0  0  0  0  0
   -2.3478    0.8480    0.6740 N   0  0  0  0  0  0  0  0  0  0  0  0
   -3.1119    1.6371   -0.1383 N   0  0  0  0  0  0  0  0  0  0  0  0
    0.4119    2.3918   -0.1604 N   0  0  0  0  0  0  0  0  0  0  0  0
    1.6238    1.9045   -0.6129 N   0  0  0  0  0  0  0  0  0  0  0  0
   -1.2952    1.4822    1.4509 C   0  0  0  0  0  0  0  0  0  0  0  0
   -0.0230    1.4904    0.6592 C   0  0  0  0  0  0  0  0  0  0  0  0
    1.7939    0.7498   -0.0125 C   0  0  0  0  0  0  0  0  0  0  0  0
    2.8684   -0.1958   -0.1015 C   0  0  0  0  0  0  0  0  0  0  0  0
   -2.5179   -0.5275    0.8016 C   0  0  0  0  0  0  0  0  0  0  0  0
    4.1884    0.1888   -0.3723 C   0  0  0  0  0  0  0  0  0  0  0  0
    2.5790   -1.5527    0.0907 C   0  0  0  0  0  0  0  0  0  0  0  0
   -3.6083   -1.1388   -0.0112 C   0  0  0  0  0  0  0  0  0  0  0  0
   -4.3566   -0.3741   -0.8053 C   0  0  0  0  0  0  0  0  0  0  0  0
   -4.0410    1.0568   -0.8194 C   0  0  0  0  0  0  0  0  0  0  0  0
    5.2009   -0.7677   -0.4496 C   0  0  0  0  0  0  0  0  0  0  0  0
    3.5915   -2.5090    0.0133 C   0  0  0  0  0  0  0  0  0  0  0  0
    4.9025   -2.1165   -0.2568 C   0  0  0  0  0  0  0  0  0  0  0  0
   -1.1481    0.9545    2.3996 H   0  0  0  0  0  0  0  0  0  0  0  0
   -1.5984    2.5089    1.6847 H   0  0  0  0  0  0  0  0  0  0  0  0
    1.5665   -1.8953    0.2936 H   0  0  0  0  0  0  0  0  0  0  0  0
   -4.6641    1.6837   -1.4786 H   0  0  0  0  0  0  0  0  0  0  0  0
    6.2288   -0.4822   -0.6591 H   0  0  0  0  0  0  0  0  0  0  0  0
    3.3592   -3.5595    0.1612 H   0  0  0  0  0  0  0  0  0  0  0  0
    5.6905   -2.8614   -0.3175 H   0  0  0  0  0  0  0  0  0  0  0  0
  1 15  1  0  0  0  0
  2 17  1  0  0  0  0
  3 18  1  0  0  0  0
  4 11  1  0  0  0  0
  4 12  1  0  0  0  0
  5 14  2  0  0  0  0
  6  7  1  0  0  0  0
  6 10  1  0  0  0  0
  6 14  1  0  0  0  0
  7 19  2  0  0  0  0
  8  9  1  0  0  0  0
  8 11  2  0  0  0  0
  9 12  2  0  0  0  0
 10 11  1  0  0  0  0
 10 23  1  0  0  0  0
 10 24  1  0  0  0  0
 12 13  1  0  0  0  0
 13 15  1  0  0  0  0
 13 16  2  0  0  0  0
 14 17  1  0  0  0  0
 15 20  2  0  0  0  0
 16 21  1  0  0  0  0
 16 25  1  0  0  0  0
 17 18  2  0  0  0  0
 18 19  1  0  0  0  0
 19 26  1  0  0  0  0
 20 22  1  0  0  0  0
 20 27  1  0  0  0  0
 21 22  2  0  0  0  0
 21 28  1  0  0  0  0
 22 29  1  0  0  0  0
M  END
> <PUBCHEM_COMPOUND_CID>
2530952

> <PUBCHEM_CONFORMER_RMSD>
0.6

> <PUBCHEM_CONFORMER_DIVERSEORDER>
1
197
48
210
41
208
132
111
152
187
120
37
169
162
17
209
161
47
109
207
123
188
43
42
114
170
198
15
177
112
191
124
135
178
49
165
122
110
63
168
50
136
189
107
181
38
145
203
105
182
146
54
150
204
185
113
53
115
118
39
190
134
186
149
133
26
65
45
147
34
193
151
160
46
148
159
84
192
32
131
211
56
40
44
91
31
156
174
205
33
55
139
97
69
92
36
140
35
196
103
66
137
171
14
184
138
82
183
13
81
104
195
153
108
101
206
83
61
106
212
95
154
155
163
18
121
88
87
20
67
102
164
142
119
68
99
141
100
19
98
16
96
157
200
3
144
129
71
11
29
199
202
130
12
158
30
64
143
201
125
62
176
28
77
175
27
80
10
4
173
60
76
127
79
172
194
25
9
128
2
94
93
7
73
126
5
58
74
85
86
179
51
24
6
8
180
70
72
23
52
117
116
21
22
90
89
59
57
167
166
78
75

> <PUBCHEM_MMFF94_PARTIAL_CHARGES>
27
1 -0.11
10 0.48
11 0.3
12 0.43
13 0.05
14 0.62
15 0.11
16 -0.15
17 0.15
18 0.15
19 0.38
2 -0.14
20 -0.15
21 -0.15
22 -0.15
25 0.15
26 0.06
27 0.15
28 0.15
29 0.15
3 -0.14
4 -0.28
5 -0.57
6 -0.3
7 -0.51
8 -0.34
9 -0.34

> <PUBCHEM_EFFECTIVE_ROTOR_COUNT>
3

> <PUBCHEM_PHARMACOPHORE_FEATURES>
6
1 1 hydrophobe
1 5 acceptor
1 7 acceptor
5 4 8 9 11 12 rings
6 13 15 16 20 21 22 rings
6 6 7 14 17 18 19 rings

> <PUBCHEM_HEAVY_ATOM_COUNT>
22

> <PUBCHEM_ATOM_DEF_STEREO_COUNT>
0

> <PUBCHEM_ATOM_UDEF_STEREO_COUNT>
0

> <PUBCHEM_BOND_DEF_STEREO_COUNT>
0

> <PUBCHEM_BOND_UDEF_STEREO_COUNT>
0

> <PUBCHEM_ISOTOPIC_ATOM_COUNT>
0

> <PUBCHEM_COMPONENT_COUNT>
1

> <PUBCHEM_CACTVS_TAUTO_COUNT>
1

> <PUBCHEM_CONFORMER_ID>
00269E8800000001

> <PUBCHEM_MMFF94_ENERGY>
48.2274

> <PUBCHEM_FEATURE_SELFOVERLAP>
30.447

> <PUBCHEM_SHAPE_FINGERPRINT>
10447042 23 18342735243384297166
10616163 171 18270688567032201854
12596602 18 16415473857364544402
12633257 1 14692280776881260703
12670546 177 18187081758521703004
12788726 201 17702957920095185977
12892183 10 11455903485416744677
13544653 18 18202284701588396944
14576447 43 18341894095593274676
14931854 50 18335696109777420671
15163728 17 15431420743573577231
15183329 4 18335412423261265357
15196674 1 18410578383446044562
15209294 21 8574423236180242801
15238133 3 13262664937777089517
15352361 1 18412545405226523079
15537594 2 18058456572005031791
15880784 105 17418093196322576970
1798214 20 18341890783725206950
19141452 34 18267875977391039385
200 152 18272651233678483832
20028762 73 18200307711675141246
20281475 54 18343025454266790400
20645477 70 18334297569841359728
20775530 9 17056381551880612719
20871999 31 18259984847094835921
21250096 35 18272931613475333890
21503847 285 9583526408345724116
21756936 100 7853557003514831010
221357 26 18335132094972042989
221490 88 18264213667393671682
22393880 68 18113612382969005202
23403322 49 18343019986852153803
23559900 14 18338228392282547961
27216 239 9439403523751601835
2871803 45 18334577910994319930
3004659 81 18333729087827753230
314194 84 18272936050192517770
339767 52 18341322340830802578
351380 3 17703787046277520975
4280585 95 18261106315091353378
439807 62 18270109258329540479
46194498 28 17604713429342770927
463206 1 18059284487460894055
4921388 177 16950857976293208899
5283173 99 18114738231484407764
59682541 52 18334562547700981143
6913067 236 18260539044511926772
7808743 9 11169920480682424031
960060 61 18335421266224219004
9709674 26 18189058744879282051

> <PUBCHEM_SHAPE_MULTIPOLES>
430.77
12.6
2.86
1.17
0.62
0.71
-0.01
5.1
-5.19
-1.21
0.04
1.3
-0.07
-0.43

> <PUBCHEM_SHAPE_SELFOVERLAP>
907.187

> <PUBCHEM_SHAPE_VOLUME>
248.3

> <PUBCHEM_COORDINATE_TYPE>
2
5
10

$$$$
