44142175
  -OEChem-01171810113D

 42 44  0     1  0  0  0  0  0999 V2000
    0.6520    2.6745    2.0421 Br  0  0  0  0  0  0  0  0  0  0  0  0
   -2.7888    0.6285    0.8691 S   0  0  0  0  0  0  0  0  0  0  0  0
   -2.7980   -0.3234   -2.4273 O   0  0  0  0  0  0  0  0  0  0  0  0
   -2.7357    0.0455    2.1973 O   0  0  0  0  0  0  0  0  0  0  0  0
   -3.2790    1.9773    0.6641 O   0  0  0  0  0  0  0  0  0  0  0  0
   -1.2141    0.4423    0.1303 N   0  0  1  0  0  0  0  0  0  0  0  0
   -1.2125   -0.8473   -0.6814 C   0  0  2  0  0  0  0  0  0  0  0  0
   -2.6580   -1.0511   -1.2087 C   0  0  1  0  0  0  0  0  0  0  0  0
   -3.5975   -0.4819   -0.1900 C   0  0  0  0  0  0  0  0  0  0  0  0
   -0.7499   -1.9853    0.2241 C   0  0  0  0  0  0  0  0  0  0  0  0
   -0.7044    1.5998   -0.6501 C   0  0  0  0  0  0  0  0  0  0  0  0
    0.7460   -1.9964    0.3821 C   0  0  0  0  0  0  0  0  0  0  0  0
    0.8001    1.6566   -0.6509 C   0  0  0  0  0  0  0  0  0  0  0  0
   -4.8759   -0.7933    0.0300 C   0  0  0  0  0  0  0  0  0  0  0  0
    1.5354   -2.7271   -0.5060 C   0  0  0  0  0  0  0  0  0  0  0  0
    1.3438   -1.2760    1.4161 C   0  0  0  0  0  0  0  0  0  0  0  0
    1.5212    2.1041    0.4559 C   0  0  0  0  0  0  0  0  0  0  0  0
    1.4726    1.2449   -1.8015 C   0  0  0  0  0  0  0  0  0  0  0  0
    2.9227   -2.7376   -0.3599 C   0  0  0  0  0  0  0  0  0  0  0  0
    2.7309   -1.2864    1.5622 C   0  0  0  0  0  0  0  0  0  0  0  0
    2.9150    2.1401    0.4122 C   0  0  0  0  0  0  0  0  0  0  0  0
    2.8664    1.2809   -1.8454 C   0  0  0  0  0  0  0  0  0  0  0  0
    3.5203   -2.0172    0.6742 C   0  0  0  0  0  0  0  0  0  0  0  0
    3.5876    1.7285   -0.7385 C   0  0  0  0  0  0  0  0  0  0  0  0
   -0.5363   -0.7586   -1.5391 H   0  0  0  0  0  0  0  0  0  0  0  0
   -2.8723   -2.1038   -1.4203 H   0  0  0  0  0  0  0  0  0  0  0  0
   -1.0523   -2.9492   -0.2066 H   0  0  0  0  0  0  0  0  0  0  0  0
   -1.2224   -1.9505    1.2130 H   0  0  0  0  0  0  0  0  0  0  0  0
   -1.0809    2.5460   -0.2482 H   0  0  0  0  0  0  0  0  0  0  0  0
   -1.0896    1.5625   -1.6763 H   0  0  0  0  0  0  0  0  0  0  0  0
   -2.1909   -0.7190   -3.0758 H   0  0  0  0  0  0  0  0  0  0  0  0
   -5.4469   -0.3370    0.8314 H   0  0  0  0  0  0  0  0  0  0  0  0
   -5.3829   -1.5187   -0.5974 H   0  0  0  0  0  0  0  0  0  0  0  0
    1.0822   -3.2898   -1.3178 H   0  0  0  0  0  0  0  0  0  0  0  0
    0.7393   -0.7123    2.1210 H   0  0  0  0  0  0  0  0  0  0  0  0
    0.9281    0.8948   -2.6745 H   0  0  0  0  0  0  0  0  0  0  0  0
    3.5375   -3.3053   -1.0521 H   0  0  0  0  0  0  0  0  0  0  0  0
    3.1960   -0.7272    2.3687 H   0  0  0  0  0  0  0  0  0  0  0  0
    3.4941    2.4844    1.2652 H   0  0  0  0  0  0  0  0  0  0  0  0
    3.3902    0.9596   -2.7408 H   0  0  0  0  0  0  0  0  0  0  0  0
    4.6004   -2.0244    0.7877 H   0  0  0  0  0  0  0  0  0  0  0  0
    4.6728    1.7550   -0.7722 H   0  0  0  0  0  0  0  0  0  0  0  0
  1 17  1  0  0  0  0
  2  4  2  0  0  0  0
  2  5  2  0  0  0  0
  2  6  1  0  0  0  0
  2  9  1  0  0  0  0
  3  8  1  0  0  0  0
  3 31  1  0  0  0  0
  6  7  1  0  0  0  0
  6 11  1  0  0  0  0
  7  8  1  0  0  0  0
  7 10  1  0  0  0  0
  7 25  1  0  0  0  0
  8  9  1  0  0  0  0
  8 26  1  0  0  0  0
  9 14  2  0  0  0  0
 10 12  1  0  0  0  0
 10 27  1  0  0  0  0
 10 28  1  0  0  0  0
 11 13  1  0  0  0  0
 11 29  1  0  0  0  0
 11 30  1  0  0  0  0
 12 15  2  0  0  0  0
 12 16  1  0  0  0  0
 13 17  1  0  0  0  0
 13 18  2  0  0  0  0
 14 32  1  0  0  0  0
 14 33  1  0  0  0  0
 15 19  1  0  0  0  0
 15 34  1  0  0  0  0
 16 20  2  0  0  0  0
 16 35  1  0  0  0  0
 17 21  2  0  0  0  0
 18 22  1  0  0  0  0
 18 36  1  0  0  0  0
 19 23  2  0  0  0  0
 19 37  1  0  0  0  0
 20 23  1  0  0  0  0
 20 38  1  0  0  0  0
 21 24  1  0  0  0  0
 21 39  1  0  0  0  0
 22 24  2  0  0  0  0
 22 40  1  0  0  0  0
 23 41  1  0  0  0  0
 24 42  1  0  0  0  0
M  END
> <PUBCHEM_COMPOUND_CID>
44142175

> <PUBCHEM_CONFORMER_RMSD>
0.8

> <PUBCHEM_CONFORMER_DIVERSEORDER>
1
18
19
34
43
41
32
39
13
20
44
35
30
42
26
27
31
21
9
40
29
3
4
25
23
8
36
14
33
12
37
11
7
28
10
16
15
24
17
5
22
38
6
2

> <PUBCHEM_MMFF94_PARTIAL_CHARGES>
36
1 -0.11
10 0.14
11 0.5
12 -0.14
13 -0.14
14 -0.3
15 -0.15
16 -0.15
17 0.11
18 -0.15
19 -0.15
2 1.45
20 -0.15
21 -0.15
22 -0.15
23 -0.15
24 -0.15
3 -0.68
31 0.4
32 0.15
33 0.15
34 0.15
35 0.15
36 0.15
37 0.15
38 0.15
39 0.15
4 -0.65
40 0.15
41 0.15
42 0.15
5 -0.65
6 -0.85
7 0.36
8 0.42
9 -0.16

> <PUBCHEM_EFFECTIVE_ROTOR_COUNT>
4.6

> <PUBCHEM_PHARMACOPHORE_FEATURES>
8
1 1 hydrophobe
1 3 acceptor
1 3 donor
1 4 acceptor
1 5 acceptor
5 2 6 7 8 9 rings
6 12 15 16 19 20 23 rings
6 13 17 18 21 22 24 rings

> <PUBCHEM_HEAVY_ATOM_COUNT>
24

> <PUBCHEM_ATOM_DEF_STEREO_COUNT>
2

> <PUBCHEM_ATOM_UDEF_STEREO_COUNT>
0

> <PUBCHEM_BOND_DEF_STEREO_COUNT>
0

> <PUBCHEM_BOND_UDEF_STEREO_COUNT>
0

> <PUBCHEM_ISOTOPIC_ATOM_COUNT>
0

> <PUBCHEM_COMPONENT_COUNT>
1

> <PUBCHEM_CACTVS_TAUTO_COUNT>
1

> <PUBCHEM_CONFORMER_ID>
02A18E5F00000001

> <PUBCHEM_MMFF94_ENERGY>
62.7276

> <PUBCHEM_FEATURE_SELFOVERLAP>
40.614

> <PUBCHEM_SHAPE_FINGERPRINT>
10989021 7 18337103475875431327
1100329 8 18051702044605633393
11578080 2 17386276597920790751
11582403 64 16052628590880044016
12422481 6 18116125850187981640
12592029 89 17677607734291097253
13140716 1 18264204712545439697
133893 2 18186235125893763726
14181834 199 18261387836911641046
14955137 171 18125738789295522355
16945 1 18264220277396124748
17357779 13 18048008832107983990
17492 54 17822590338990575502
1813 80 18192432970251290198
18336668 15 18334851676652284664
20600515 1 17685185310884666328
20691752 17 16950568740057379657
20905425 154 18409735070933476694
21421861 104 18270413710410229601
22112679 90 18059859424240120501
23419403 2 17038594537376305064
23559900 14 15502378906929120503
238 59 18264494051416995352
35225 105 17323827897869844402
5895379 119 17487914314478571865
6287921 2 18201149984209076334
7364860 26 18412823603285520710
81228 2 17471560036940699666

> <PUBCHEM_SHAPE_MULTIPOLES>
481.11
6.75
3.44
1.9
4.87
0.42
-0.06
0.72
-0.37
-3.12
0.68
-0.12
-0.64
-1.14

> <PUBCHEM_SHAPE_SELFOVERLAP>
1000.612

> <PUBCHEM_SHAPE_VOLUME>
278.9

> <PUBCHEM_COORDINATE_TYPE>
2
5
10

$$$$
