1518867
  -OEChem-01171809473D

 38 40  0     0  0  0  0  0  0999 V2000
    0.8939    0.9923   -0.1408 S   0  0  0  0  0  0  0  0  0  0  0  0
    5.8619   -1.4330    0.6581 F   0  0  0  0  0  0  0  0  0  0  0  0
   -3.6568   -1.2582    0.5393 O   0  0  0  0  0  0  0  0  0  0  0  0
   -3.3736    1.1843   -1.1904 O   0  0  0  0  0  0  0  0  0  0  0  0
   -0.5927    4.3571    0.8129 O   0  0  0  0  0  0  0  0  0  0  0  0
    1.5562    3.9273    0.0666 O   0  0  0  0  0  0  0  0  0  0  0  0
   -1.4569   -0.1440   -0.9557 N   0  0  0  0  0  0  0  0  0  0  0  0
    0.5077   -1.4849   -0.7148 N   0  0  0  0  0  0  0  0  0  0  0  0
   -2.2067   -1.3321   -1.3754 C   0  0  0  0  0  0  0  0  0  0  0  0
   -2.8174   -2.0179   -0.1848 C   0  0  0  0  0  0  0  0  0  0  0  0
   -0.0977   -0.3432   -0.6485 C   0  0  0  0  0  0  0  0  0  0  0  0
   -2.1800    1.0619   -0.9070 C   0  0  0  0  0  0  0  0  0  0  0  0
   -1.4589    2.2852   -0.4846 C   0  0  0  0  0  0  0  0  0  0  0  0
   -0.1710    2.3189   -0.1512 C   0  0  0  0  0  0  0  0  0  0  0  0
   -2.6835   -3.2706    0.3066 C   0  0  0  0  0  0  0  0  0  0  0  0
    1.8675   -1.4716   -0.3664 C   0  0  0  0  0  0  0  0  0  0  0  0
   -3.5167   -3.3082    1.4501 C   0  0  0  0  0  0  0  0  0  0  0  0
   -4.0865   -2.0602    1.5486 C   0  0  0  0  0  0  0  0  0  0  0  0
    0.3898    3.6146    0.2435 C   0  0  0  0  0  0  0  0  0  0  0  0
    2.2451   -1.6870    0.9561 C   0  0  0  0  0  0  0  0  0  0  0  0
    2.8309   -1.2429   -1.3451 C   0  0  0  0  0  0  0  0  0  0  0  0
    3.5961   -1.6737    1.3027 C   0  0  0  0  0  0  0  0  0  0  0  0
    4.1821   -1.2296   -0.9986 C   0  0  0  0  0  0  0  0  0  0  0  0
    4.5646   -1.4449    0.3253 C   0  0  0  0  0  0  0  0  0  0  0  0
   -0.1977    5.6604    1.2537 C   0  0  0  0  0  0  0  0  0  0  0  0
   -1.5533   -2.0269   -1.9147 H   0  0  0  0  0  0  0  0  0  0  0  0
   -3.0066   -1.0454   -2.0681 H   0  0  0  0  0  0  0  0  0  0  0  0
   -2.0828    3.1754   -0.4966 H   0  0  0  0  0  0  0  0  0  0  0  0
   -2.0717   -4.0686   -0.0883 H   0  0  0  0  0  0  0  0  0  0  0  0
   -3.6811   -4.1406    2.1189 H   0  0  0  0  0  0  0  0  0  0  0  0
   -4.7804   -1.6077    2.2419 H   0  0  0  0  0  0  0  0  0  0  0  0
    1.4984   -1.8705    1.7244 H   0  0  0  0  0  0  0  0  0  0  0  0
    2.5435   -1.0784   -2.3804 H   0  0  0  0  0  0  0  0  0  0  0  0
    3.8944   -1.8423    2.3331 H   0  0  0  0  0  0  0  0  0  0  0  0
    4.9363   -1.0525   -1.7595 H   0  0  0  0  0  0  0  0  0  0  0  0
    0.5798    5.5816    2.0196 H   0  0  0  0  0  0  0  0  0  0  0  0
    0.1535    6.2563    0.4059 H   0  0  0  0  0  0  0  0  0  0  0  0
   -1.0719    6.1512    1.6897 H   0  0  0  0  0  0  0  0  0  0  0  0
  1 11  1  0  0  0  0
  1 14  1  0  0  0  0
  2 24  1  0  0  0  0
  3 10  1  0  0  0  0
  3 18  1  0  0  0  0
  4 12  2  0  0  0  0
  5 19  1  0  0  0  0
  5 25  1  0  0  0  0
  6 19  2  0  0  0  0
  7  9  1  0  0  0  0
  7 11  1  0  0  0  0
  7 12  1  0  0  0  0
  8 11  2  0  0  0  0
  8 16  1  0  0  0  0
  9 10  1  0  0  0  0
  9 26  1  0  0  0  0
  9 27  1  0  0  0  0
 10 15  2  0  0  0  0
 12 13  1  0  0  0  0
 13 14  2  0  0  0  0
 13 28  1  0  0  0  0
 14 19  1  0  0  0  0
 15 17  1  0  0  0  0
 15 29  1  0  0  0  0
 16 20  2  0  0  0  0
 16 21  1  0  0  0  0
 17 18  2  0  0  0  0
 17 30  1  0  0  0  0
 18 31  1  0  0  0  0
 20 22  1  0  0  0  0
 20 32  1  0  0  0  0
 21 23  2  0  0  0  0
 21 33  1  0  0  0  0
 22 24  2  0  0  0  0
 22 34  1  0  0  0  0
 23 24  1  0  0  0  0
 23 35  1  0  0  0  0
 25 36  1  0  0  0  0
 25 37  1  0  0  0  0
 25 38  1  0  0  0  0
M  END
> <PUBCHEM_COMPOUND_CID>
1518867

> <PUBCHEM_CONFORMER_RMSD>
0.8

> <PUBCHEM_CONFORMER_DIVERSEORDER>
1
21
11
17
10
7
9
14
18
12
15
13
20
8
2
16
19
4
5
3
6

> <PUBCHEM_MMFF94_PARTIAL_CHARGES>
33
1 -0.24
10 -0.04
11 0.65
12 0.62
13 -0.14
14 0.12
15 -0.15
16 0.18
17 -0.15
18 -0.01
19 0.71
2 -0.19
20 -0.15
21 -0.15
22 -0.15
23 -0.15
24 0.19
25 0.28
28 0.15
29 0.15
3 -0.28
30 0.15
31 0.15
32 0.15
33 0.15
34 0.15
35 0.15
4 -0.57
5 -0.43
6 -0.57
7 -0.42
8 -0.63
9 0.48

> <PUBCHEM_EFFECTIVE_ROTOR_COUNT>
5

> <PUBCHEM_PHARMACOPHORE_FEATURES>
6
1 3 acceptor
1 4 acceptor
1 6 acceptor
5 3 10 15 17 18 rings
6 1 7 11 12 13 14 rings
6 16 20 21 22 23 24 rings

> <PUBCHEM_HEAVY_ATOM_COUNT>
25

> <PUBCHEM_ATOM_DEF_STEREO_COUNT>
0

> <PUBCHEM_ATOM_UDEF_STEREO_COUNT>
0

> <PUBCHEM_BOND_DEF_STEREO_COUNT>
0

> <PUBCHEM_BOND_UDEF_STEREO_COUNT>
0

> <PUBCHEM_ISOTOPIC_ATOM_COUNT>
0

> <PUBCHEM_COMPONENT_COUNT>
1

> <PUBCHEM_CACTVS_TAUTO_COUNT>
1

> <PUBCHEM_CONFORMER_ID>
00172D1300000001

> <PUBCHEM_MMFF94_ENERGY>
73.848

> <PUBCHEM_FEATURE_SELFOVERLAP>
30.449

> <PUBCHEM_SHAPE_FINGERPRINT>
10074138 170 18049708638635464256
10382601 240 17835537285443188127
10906281 52 18199189486352013061
1100329 8 18409449146513429085
11036077 51 17759797044474716666
11578080 2 17604976178283242055
12160290 23 18121775024065109279
12293681 160 17904733641167606181
12293681 4 18338234843180540361
12549972 3 17896311601527204691
12553582 1 18409171042875556095
12633257 1 18267606692291098715
12788726 201 18122891041505384745
13009979 54 18188497874428737790
13140716 1 18411138021874224556
13149001 5 18118373268781525597
133893 2 17838878679647083335
13533116 47 17903368340211562771
14363568 33 18051412065715294824
14787075 74 17970921183264273598
14790565 3 17182791402856382933
14844126 61 18262787489202118098
15420108 30 17553493873911137031
15475509 84 18267327437896889393
15775530 1 18190445246781141085
19591789 44 17328862609058440268
20101258 96 18412827975836339968
20510252 161 17838888248707656756
20600515 1 18263377923051374911
21041028 32 18411707603130414044
21796203 349 18048348766001092370
22956985 138 17682953654589464274
23557571 272 18339637833409133582
23559900 14 17751072720962647631
23845131 108 17401496944243011833
238918 7 16461662463888826826
283562 15 17907005189267603581
3057174 1 8913736922548047432
3091708 16 8992534509831484340
3178227 256 18263650555392640005
3418910 222 18335146406536776932
392239 28 18334007329010757746
5171179 24 18266730471601789167
58807428 26 16968852269860116474
69474 34 18411427228330313619
79837 15 17761496889619699730
81228 2 18055067666524651549

> <PUBCHEM_SHAPE_MULTIPOLES>
477.62
7.87
6.3
1.38
4.48
11.62
0.11
-10.23
1.89
-0.83
3.08
-0.38
-0.35
1.14

> <PUBCHEM_SHAPE_SELFOVERLAP>
1028.628

> <PUBCHEM_SHAPE_VOLUME>
265.5

> <PUBCHEM_COORDINATE_TYPE>
2
5
10

$$$$
