1042545
  -OEChem-01171809273D

 36 38  0     0  0  0  0  0  0999 V2000
    0.7792    0.0749   -1.3807 S   0  0  0  0  0  0  0  0  0  0  0  0
   -5.7585    0.7991   -0.4231 O   0  0  0  0  0  0  0  0  0  0  0  0
   -5.5278   -1.0093    0.9824 O   0  0  0  0  0  0  0  0  0  0  0  0
   -0.9802   -2.8231    1.3772 O   0  5  0  0  0  0  0  0  0  0  0  0
    0.7020   -1.9464    0.2724 O   0  0  0  0  0  0  0  0  0  0  0  0
    2.5715    1.1663    0.3701 N   0  0  0  0  0  0  0  0  0  0  0  0
   -0.5115   -1.9759    0.5822 N   0  3  0  0  0  0  0  0  0  0  0  0
    2.6620    2.1119    1.3156 N   0  0  0  0  0  0  0  0  0  0  0  0
    0.6010    2.0666    0.4666 N   0  0  0  0  0  0  0  0  0  0  0  0
    1.4540    2.6594    1.3700 N   0  0  0  0  0  0  0  0  0  0  0  0
   -0.9376   -0.0400   -0.8824 C   0  0  0  0  0  0  0  0  0  0  0  0
   -1.3898   -1.0120    0.0099 C   0  0  0  0  0  0  0  0  0  0  0  0
   -3.6335   -0.1346   -0.1715 C   0  0  0  0  0  0  0  0  0  0  0  0
    3.6695    0.3781    0.0410 C   0  0  0  0  0  0  0  0  0  0  0  0
   -2.7378   -1.0594    0.3654 C   0  0  0  0  0  0  0  0  0  0  0  0
   -1.8333    0.8846   -1.4193 C   0  0  0  0  0  0  0  0  0  0  0  0
   -3.1813    0.8375   -1.0638 C   0  0  0  0  0  0  0  0  0  0  0  0
    1.3277    1.1749   -0.1078 C   0  0  0  0  0  0  0  0  0  0  0  0
    3.8007   -0.1150   -1.2528 C   0  0  0  0  0  0  0  0  0  0  0  0
    4.6265    0.0907    1.0083 C   0  0  0  0  0  0  0  0  0  0  0  0
    4.9022   -0.9046   -1.5833 C   0  0  0  0  0  0  0  0  0  0  0  0
    5.7279   -0.6988    0.6779 C   0  0  0  0  0  0  0  0  0  0  0  0
   -5.0388   -0.1838    0.1998 C   0  0  0  0  0  0  0  0  0  0  0  0
    5.8656   -1.1965   -0.6179 C   0  0  0  0  0  0  0  0  0  0  0  0
   -7.1600    0.8554   -0.1362 C   0  0  0  0  0  0  0  0  0  0  0  0
   -3.1125   -1.8083    1.0592 H   0  0  0  0  0  0  0  0  0  0  0  0
   -1.5027    1.6506   -2.1170 H   0  0  0  0  0  0  0  0  0  0  0  0
   -3.8420    1.5775   -1.5064 H   0  0  0  0  0  0  0  0  0  0  0  0
    3.1782    0.1804   -2.0866 H   0  0  0  0  0  0  0  0  0  0  0  0
    4.5413    0.4558    2.0286 H   0  0  0  0  0  0  0  0  0  0  0  0
    5.0272   -1.2665   -2.5998 H   0  0  0  0  0  0  0  0  0  0  0  0
    6.4780   -0.9270    1.4294 H   0  0  0  0  0  0  0  0  0  0  0  0
    6.7268   -1.8055   -0.8769 H   0  0  0  0  0  0  0  0  0  0  0  0
   -7.5906    1.6845   -0.7037 H   0  0  0  0  0  0  0  0  0  0  0  0
   -7.3192    1.0377    0.9306 H   0  0  0  0  0  0  0  0  0  0  0  0
   -7.6458   -0.0744   -0.4464 H   0  0  0  0  0  0  0  0  0  0  0  0
  1 11  1  0  0  0  0
  1 18  1  0  0  0  0
  2 23  1  0  0  0  0
  2 25  1  0  0  0  0
  3 23  2  0  0  0  0
  4  7  1  0  0  0  0
  5  7  2  0  0  0  0
  6  8  1  0  0  0  0
  6 14  1  0  0  0  0
  6 18  1  0  0  0  0
  7 12  1  0  0  0  0
  8 10  2  0  0  0  0
  9 10  1  0  0  0  0
  9 18  2  0  0  0  0
 11 12  2  0  0  0  0
 11 16  1  0  0  0  0
 12 15  1  0  0  0  0
 13 15  2  0  0  0  0
 13 17  1  0  0  0  0
 13 23  1  0  0  0  0
 14 19  2  0  0  0  0
 14 20  1  0  0  0  0
 15 26  1  0  0  0  0
 16 17  2  0  0  0  0
 16 27  1  0  0  0  0
 17 28  1  0  0  0  0
 19 21  1  0  0  0  0
 19 29  1  0  0  0  0
 20 22  2  0  0  0  0
 20 30  1  0  0  0  0
 21 24  2  0  0  0  0
 21 31  1  0  0  0  0
 22 24  1  0  0  0  0
 22 32  1  0  0  0  0
 24 33  1  0  0  0  0
 25 34  1  0  0  0  0
 25 35  1  0  0  0  0
 25 36  1  0  0  0  0
M  CHG  2   4  -1   7   1
M  END
> <PUBCHEM_COMPOUND_CID>
1042545

> <PUBCHEM_CONFORMER_RMSD>
0.8

> <PUBCHEM_CONFORMER_DIVERSEORDER>
6
53
66
45
31
23
57
44
3
65
54
56
49
62
41
10
50
8
35
28
60
40
29
2
64
48
55
7
42
63
67
61
20
34
5
43
24
27
38
26
9
37
30
46
58
4
22
25
36
51
59
33
1
13
19
18
39
21
32
17
52
47
16
14
15
11
12

> <PUBCHEM_MMFF94_PARTIAL_CHARGES>
32
1 -0.16
11 0.1
12 0.13
13 0.09
14 -0.02
15 -0.15
16 -0.15
17 -0.15
18 0.24
19 -0.15
2 -0.43
20 -0.15
21 -0.15
22 -0.15
23 0.63
24 -0.15
25 0.28
26 0.15
27 0.15
28 0.15
29 0.15
3 -0.57
30 0.15
31 0.15
32 0.15
33 0.15
4 -0.52
5 -0.52
6 0.59
7 0.91
8 -0.42
9 -0.34

> <PUBCHEM_EFFECTIVE_ROTOR_COUNT>
6

> <PUBCHEM_PHARMACOPHORE_FEATURES>
8
1 3 acceptor
1 4 acceptor
1 4 anion
1 5 acceptor
3 6 9 18 cation
5 6 8 9 10 18 rings
6 11 12 13 15 16 17 rings
6 14 19 20 21 22 24 rings

> <PUBCHEM_HEAVY_ATOM_COUNT>
25

> <PUBCHEM_ATOM_DEF_STEREO_COUNT>
0

> <PUBCHEM_ATOM_UDEF_STEREO_COUNT>
0

> <PUBCHEM_BOND_DEF_STEREO_COUNT>
0

> <PUBCHEM_BOND_UDEF_STEREO_COUNT>
0

> <PUBCHEM_ISOTOPIC_ATOM_COUNT>
0

> <PUBCHEM_COMPONENT_COUNT>
1

> <PUBCHEM_CACTVS_TAUTO_COUNT>
1

> <PUBCHEM_CONFORMER_ID>
000FE87100000006

> <PUBCHEM_MMFF94_ENERGY>
96.0358

> <PUBCHEM_FEATURE_SELFOVERLAP>
40.678

> <PUBCHEM_SHAPE_FINGERPRINT>
11045977 3 18410576219204436123
11089746 13 18273209799409357933
11545043 162 18261679267996973643
11578080 2 18044385056964098700
11646440 116 18201727249055743937
12011746 2 18259984864453903871
12236239 1 15482671264559313831
12403259 415 18260256452368829517
12507560 18 18412263934591973528
12596602 18 15123499346634055062
12633257 1 18341053007578587498
12788726 201 18271533013943780760
13402501 40 18408605855217143478
13533116 47 14189305824675935972
13544592 145 18409730694351258608
13782708 43 18267029525880214283
14115302 16 18187367645131180292
14617045 38 18040153998559702906
14840074 17 10953462929251943043
15295992 7 18270118053561894057
17804303 29 18260548969495155894
18769570 83 14117524233589311579
19141452 34 17560794455167822558
192875 21 17060346248738302416
20511986 3 14979664460539144566
20832881 197 18342739602512390856
21033648 29 18262221296917399677
21279426 13 18195808462326369220
21285901 2 18059304154078842724
21781051 124 17822305612491688643
221357 26 18271806787363374637
23175994 123 18272655644989828436
23559900 14 18335703904915891108
23569943 247 17629496189352887734
24893992 56 18409731760632257169
2838139 119 17704070673666473185
3004659 81 18259708887557597726
345986 75 17059211428691229762
350125 39 18186801349050231653
351380 180 18131631205585017257
38695281 34 18131632262300434255
4325135 7 11239995655102588345
465052 167 16660371393780802477
5104073 3 17702662310285865747
5265222 85 18114194076777041126
5385378 56 18189337870983966819
59755656 215 18335137558028265415
633830 44 18340756148366626405
7399639 24 17118596416452097050

> <PUBCHEM_SHAPE_MULTIPOLES>
469.96
14.41
2.09
1.36
8.39
0.03
0.17
-1.13
0.18
-0.47
-1.06
-0.87
0.09
1.53

> <PUBCHEM_SHAPE_SELFOVERLAP>
1013.836

> <PUBCHEM_SHAPE_VOLUME>
259.1

> <PUBCHEM_COORDINATE_TYPE>
2
5
10

$$$$
