5760485
  -OEChem-01171809323D

 43 45  0     0  0  0  0  0  0999 V2000
   -8.1469   -0.1636    1.0334 Cl  0  0  0  0  0  0  0  0  0  0  0  0
   -4.7678   -4.0960   -0.4180 Cl  0  0  0  0  0  0  0  0  0  0  0  0
    7.2858    0.7233    0.6626 S   0  0  0  0  0  0  0  0  0  0  0  0
   -5.8453    1.6249    0.3859 O   0  0  0  0  0  0  0  0  0  0  0  0
   -1.3229    2.7801   -1.0975 O   0  0  0  0  0  0  0  0  0  0  0  0
    4.5796   -1.8217   -0.3711 O   0  0  0  0  0  0  0  0  0  0  0  0
    4.4999    0.4717    0.0345 N   0  0  0  0  0  0  0  0  0  0  0  0
    0.4463    1.3512   -0.5212 C   0  0  0  0  0  0  0  0  0  0  0  0
    3.1486    0.7644   -0.1513 C   0  0  0  0  0  0  0  0  0  0  0  0
   -4.3578   -0.1320   -0.2545 C   0  0  0  0  0  0  0  0  0  0  0  0
    0.9043    0.0432   -0.6801 C   0  0  0  0  0  0  0  0  0  0  0  0
    1.3397    2.3659   -0.1774 C   0  0  0  0  0  0  0  0  0  0  0  0
    2.2553   -0.2502   -0.4950 C   0  0  0  0  0  0  0  0  0  0  0  0
    2.6907    2.0725    0.0074 C   0  0  0  0  0  0  0  0  0  0  0  0
   -5.5962    0.2951    0.2000 C   0  0  0  0  0  0  0  0  0  0  0  0
   -0.9624    1.6572   -0.7134 C   0  0  0  0  0  0  0  0  0  0  0  0
   -3.2895    0.8406   -0.5439 C   0  0  0  0  0  0  0  0  0  0  0  0
   -1.9785    0.5930   -0.4069 C   0  0  0  0  0  0  0  0  0  0  0  0
   -4.0897   -1.4789   -0.4488 C   0  0  0  0  0  0  0  0  0  0  0  0
   -6.5902   -0.6465    0.4665 C   0  0  0  0  0  0  0  0  0  0  0  0
   -5.0837   -2.4205   -0.1824 C   0  0  0  0  0  0  0  0  0  0  0  0
   -6.3340   -2.0043    0.2751 C   0  0  0  0  0  0  0  0  0  0  0  0
    5.1510   -0.7737   -0.0781 C   0  0  0  0  0  0  0  0  0  0  0  0
    6.5924   -0.7550    0.2245 C   0  0  0  0  0  0  0  0  0  0  0  0
    7.4483   -1.7975    0.1947 C   0  0  0  0  0  0  0  0  0  0  0  0
    8.7619   -1.3763    0.5514 C   0  0  0  0  0  0  0  0  0  0  0  0
    8.8150   -0.0284    0.8306 C   0  0  0  0  0  0  0  0  0  0  0  0
   -5.5541    2.1617    1.6730 C   0  0  0  0  0  0  0  0  0  0  0  0
    0.2496   -0.7689   -0.9825 H   0  0  0  0  0  0  0  0  0  0  0  0
    1.0015    3.3903   -0.0448 H   0  0  0  0  0  0  0  0  0  0  0  0
    2.5270   -1.2848   -0.6458 H   0  0  0  0  0  0  0  0  0  0  0  0
    3.3756    2.8727    0.2763 H   0  0  0  0  0  0  0  0  0  0  0  0
   -3.6253    1.8107   -0.9019 H   0  0  0  0  0  0  0  0  0  0  0  0
   -1.6283   -0.3503   -0.0057 H   0  0  0  0  0  0  0  0  0  0  0  0
   -3.1302   -1.8253   -0.8249 H   0  0  0  0  0  0  0  0  0  0  0  0
    5.0811    1.2675    0.2888 H   0  0  0  0  0  0  0  0  0  0  0  0
   -7.1084   -2.7398    0.4824 H   0  0  0  0  0  0  0  0  0  0  0  0
    7.1832   -2.8149   -0.0628 H   0  0  0  0  0  0  0  0  0  0  0  0
    9.6241   -2.0286    0.6006 H   0  0  0  0  0  0  0  0  0  0  0  0
    9.6787    0.5508    1.1252 H   0  0  0  0  0  0  0  0  0  0  0  0
   -4.4789    2.1241    1.8733 H   0  0  0  0  0  0  0  0  0  0  0  0
   -6.0957    1.6242    2.4576 H   0  0  0  0  0  0  0  0  0  0  0  0
   -5.8723    3.2078    1.6863 H   0  0  0  0  0  0  0  0  0  0  0  0
  1 20  1  0  0  0  0
  2 21  1  0  0  0  0
  3 24  1  0  0  0  0
  3 27  1  0  0  0  0
  4 15  1  0  0  0  0
  4 28  1  0  0  0  0
  5 16  2  0  0  0  0
  6 23  2  0  0  0  0
  7  9  1  0  0  0  0
  7 23  1  0  0  0  0
  7 36  1  0  0  0  0
  8 11  2  0  0  0  0
  8 12  1  0  0  0  0
  8 16  1  0  0  0  0
  9 13  2  0  0  0  0
  9 14  1  0  0  0  0
 10 15  2  0  0  0  0
 10 17  1  0  0  0  0
 10 19  1  0  0  0  0
 11 13  1  0  0  0  0
 11 29  1  0  0  0  0
 12 14  2  0  0  0  0
 12 30  1  0  0  0  0
 13 31  1  0  0  0  0
 14 32  1  0  0  0  0
 15 20  1  0  0  0  0
 16 18  1  0  0  0  0
 17 18  2  0  0  0  0
 17 33  1  0  0  0  0
 18 34  1  0  0  0  0
 19 21  2  0  0  0  0
 19 35  1  0  0  0  0
 20 22  2  0  0  0  0
 21 22  1  0  0  0  0
 22 37  1  0  0  0  0
 23 24  1  0  0  0  0
 24 25  2  0  0  0  0
 25 26  1  0  0  0  0
 25 38  1  0  0  0  0
 26 27  2  0  0  0  0
 26 39  1  0  0  0  0
 27 40  1  0  0  0  0
 28 41  1  0  0  0  0
 28 42  1  0  0  0  0
 28 43  1  0  0  0  0
M  END
> <PUBCHEM_COMPOUND_CID>
5760485

> <PUBCHEM_CONFORMER_RMSD>
0.8

> <PUBCHEM_CONFORMER_DIVERSEORDER>
1
28
11
102
98
75
18
26
4
16
99
118
12
5
48
27
21
46
108
53
126
73
81
2
38
14
112
56
34
89
78
52
42
58
30
116
115
110
29
63
23
125
7
19
61
111
54
3
96
132
120
13
49
59
95
87
25
119
44
134
101
15
82
6
31
80
113
85
57
50
106
124
67
22
135
77
55
9
51
121
94
24
66
68
45
20
86
33
138
127
136
104
97
90
10
72
8
131
47
117
123
17
41
62
84
60
100
137
114
130
32
70
133
76
71
69
105
43
109
37
91
39
122
107
139
83
65
74
36
92
88
35
64
79
128
40
93
129
103

> <PUBCHEM_MMFF94_PARTIAL_CHARGES>
40
1 -0.18
10 0.03
11 -0.15
12 -0.15
13 -0.15
14 -0.15
15 0.08
16 0.47
17 -0.18
18 -0.14
19 -0.15
2 -0.18
20 0.18
21 0.18
22 -0.15
23 0.71
24 -0.05
25 -0.15
26 -0.15
27 -0.11
28 0.28
29 0.15
3 -0.08
30 0.15
31 0.15
32 0.15
33 0.15
34 0.15
35 0.15
36 0.37
37 0.15
38 0.15
39 0.15
4 -0.36
40 0.15
5 -0.57
6 -0.57
7 -0.55
8 0.09
9 0.12

> <PUBCHEM_EFFECTIVE_ROTOR_COUNT>
7

> <PUBCHEM_PHARMACOPHORE_FEATURES>
7
1 4 acceptor
1 5 acceptor
1 6 acceptor
1 7 donor
5 3 24 25 26 27 rings
6 10 15 19 20 21 22 rings
6 8 9 11 12 13 14 rings

> <PUBCHEM_HEAVY_ATOM_COUNT>
28

> <PUBCHEM_ATOM_DEF_STEREO_COUNT>
0

> <PUBCHEM_ATOM_UDEF_STEREO_COUNT>
0

> <PUBCHEM_BOND_DEF_STEREO_COUNT>
1

> <PUBCHEM_BOND_UDEF_STEREO_COUNT>
0

> <PUBCHEM_ISOTOPIC_ATOM_COUNT>
0

> <PUBCHEM_COMPONENT_COUNT>
1

> <PUBCHEM_CACTVS_TAUTO_COUNT>
5

> <PUBCHEM_CONFORMER_ID>
0057E5E500000001

> <PUBCHEM_MMFF94_ENERGY>
92.5512

> <PUBCHEM_FEATURE_SELFOVERLAP>
35.522

> <PUBCHEM_SHAPE_FINGERPRINT>
10 15 17275384309251287016
10299344 5 18334016099154302740
10625338 86 15195284201310482954
10674148 151 17603866694068990729
11135926 11 18334005073747134879
11181472 205 11527950089377063410
11211813 163 10809345546385177448
11456790 92 17988376940278759225
11963148 33 18262226743358417922
11973863 73 17604425185118131481
11991303 11 14129350623290703120
12107183 9 18339933610938488169
12522641 126 17969787569971110524
12643181 29 18335415751797466807
13248334 5 18045785851990105076
13673619 4 17894629253540792268
13685833 64 18408321082137994708
13690498 29 17749098976967546357
13974486 27 17622168957787168478
14178184 131 18271801380021375990
14251764 18 18412545418633456604
14344974 204 18199186363558186278
14394314 77 18334858264573304737
14420673 8 18408042935950985407
14556957 393 15285647534406482134
14849402 71 18271806899629338152
15021287 119 17603594032169869557
15183329 4 15574431020809714522
15301273 46 17346323661810208516
15352257 5 18408321086354029114
17492 89 18048880990359455063
1754911 235 8430316818897234131
17780758 139 18272652333934059497
18335252 98 18410291394791557418
18608769 82 18410287009049686562
21033648 29 15625960715957490457
21049683 271 18409166637294268692
21130935 74 18268991062659550682
21150785 3 13623530151824615992
21267235 1 18259705596731992532
21424621 283 11167946870327616436
22149856 69 18202005392092712216
22864921 47 17750775724190498330
23522609 53 18118154478310148916
23576562 1 8934412122027323626
2747138 104 18272649040021119864
2838139 119 9367338245647955212
3178227 256 18060135449615411008
3383291 50 18186522132905228586
4073 2 18189340250052470179
437795 83 8286207162470717119
445580 204 9439406830444110975
5104073 3 18201720686530942513
54039377 194 17967537873736026359
559249 180 18408042914755360085
5758199 1 11959732672478870468
59682541 35 18272081713458925384
636775 8 18339366271976649622
6691757 9 15913320325853942391
68570916 9 18339080509836541804
99344 41 18342458131725840863
9953998 17 18201999928335064291
999808 66 18409163312055106158

> <PUBCHEM_SHAPE_MULTIPOLES>
561.23
27.9
3.12
0.96
28.99
1.6
-0.17
13.53
-10.39
-4.05
0.31
-0.66
-0.32
-1.14

> <PUBCHEM_SHAPE_SELFOVERLAP>
1186.48

> <PUBCHEM_SHAPE_VOLUME>
316.1

> <PUBCHEM_COORDINATE_TYPE>
2
5
10

$$$$
