7314627
  -OEChem-01171809203D

 43 44  0     0  0  0  0  0  0999 V2000
   -6.0942    2.0449    0.9757 Br  0  0  0  0  0  0  0  0  0  0  0  0
    2.4517    1.8126   -1.9066 O   0  0  0  0  0  0  0  0  0  0  0  0
    5.2640   -1.5734    1.4156 O   0  0  0  0  0  0  0  0  0  0  0  0
   -1.6041   -1.6096    1.3069 O   0  0  0  0  0  0  0  0  0  0  0  0
   -1.0831    2.2990    1.5873 O   0  0  0  0  0  0  0  0  0  0  0  0
   -2.3794   -2.6414   -1.1587 N   0  0  0  0  0  0  0  0  0  0  0  0
    2.6413    0.6388    0.1816 C   0  0  0  0  0  0  0  0  0  0  0  0
   -2.3203    0.5367    0.6390 C   0  0  0  0  0  0  0  0  0  0  0  0
    3.1318    0.9776   -1.0697 C   0  0  0  0  0  0  0  0  0  0  0  0
    3.3428   -0.2121    1.0224 C   0  0  0  0  0  0  0  0  0  0  0  0
   -3.0541   -1.6082   -0.5670 C   0  0  0  0  0  0  0  0  0  0  0  0
    1.3529    1.1798    0.6502 C   0  0  0  0  0  0  0  0  0  0  0  0
   -2.3134   -0.9486    0.5508 C   0  0  0  0  0  0  0  0  0  0  0  0
    4.5646   -0.7367    0.6009 C   0  0  0  0  0  0  0  0  0  0  0  0
   -1.0721    1.2536    0.9502 C   0  0  0  0  0  0  0  0  0  0  0  0
    4.3536    0.4530   -1.4911 C   0  0  0  0  0  0  0  0  0  0  0  0
    0.1606    0.6053    0.4339 C   0  0  0  0  0  0  0  0  0  0  0  0
    5.0701   -0.4042   -0.6558 C   0  0  0  0  0  0  0  0  0  0  0  0
   -3.4064    1.3124    0.5056 C   0  0  0  0  0  0  0  0  0  0  0  0
   -4.2887   -1.2308   -0.9345 C   0  0  0  0  0  0  0  0  0  0  0  0
   -4.7731    0.8749    0.3113 C   0  0  0  0  0  0  0  0  0  0  0  0
   -5.1461   -0.2462   -0.3232 C   0  0  0  0  0  0  0  0  0  0  0  0
   -2.5392   -2.9971   -2.5425 C   0  0  0  0  0  0  0  0  0  0  0  0
    3.0512    2.0914   -3.1695 C   0  0  0  0  0  0  0  0  0  0  0  0
    4.6896   -1.8717    2.6870 C   0  0  0  0  0  0  0  0  0  0  0  0
    2.9045   -0.4369    1.9895 H   0  0  0  0  0  0  0  0  0  0  0  0
    1.4377    2.1033    1.2176 H   0  0  0  0  0  0  0  0  0  0  0  0
    4.8109    0.6639   -2.4514 H   0  0  0  0  0  0  0  0  0  0  0  0
    0.0961   -0.3041   -0.1528 H   0  0  0  0  0  0  0  0  0  0  0  0
    6.0215   -0.8106   -0.9885 H   0  0  0  0  0  0  0  0  0  0  0  0
   -3.2977    2.3942    0.5821 H   0  0  0  0  0  0  0  0  0  0  0  0
   -4.7867   -1.7664   -1.7416 H   0  0  0  0  0  0  0  0  0  0  0  0
   -6.2072   -0.4620   -0.4419 H   0  0  0  0  0  0  0  0  0  0  0  0
   -1.5150   -2.9278   -0.7084 H   0  0  0  0  0  0  0  0  0  0  0  0
   -2.4483   -2.1221   -3.1947 H   0  0  0  0  0  0  0  0  0  0  0  0
   -3.5050   -3.4810   -2.7191 H   0  0  0  0  0  0  0  0  0  0  0  0
   -1.7590   -3.7089   -2.8310 H   0  0  0  0  0  0  0  0  0  0  0  0
    3.1407    1.1887   -3.7836 H   0  0  0  0  0  0  0  0  0  0  0  0
    4.0046    2.6190   -3.0577 H   0  0  0  0  0  0  0  0  0  0  0  0
    2.3763    2.7696   -3.7024 H   0  0  0  0  0  0  0  0  0  0  0  0
    4.6010   -0.9746    3.3094 H   0  0  0  0  0  0  0  0  0  0  0  0
    5.3784   -2.5499    3.2014 H   0  0  0  0  0  0  0  0  0  0  0  0
    3.7369   -2.4024    2.5842 H   0  0  0  0  0  0  0  0  0  0  0  0
  1 21  1  0  0  0  0
  2  9  1  0  0  0  0
  2 24  1  0  0  0  0
  3 14  1  0  0  0  0
  3 25  1  0  0  0  0
  4 13  2  0  0  0  0
  5 15  2  0  0  0  0
  6 11  1  0  0  0  0
  6 23  1  0  0  0  0
  6 34  1  0  0  0  0
  7  9  2  0  0  0  0
  7 10  1  0  0  0  0
  7 12  1  0  0  0  0
  8 13  1  0  0  0  0
  8 15  1  0  0  0  0
  8 19  2  0  0  0  0
  9 16  1  0  0  0  0
 10 14  2  0  0  0  0
 10 26  1  0  0  0  0
 11 13  1  0  0  0  0
 11 20  2  0  0  0  0
 12 17  2  0  0  0  0
 12 27  1  0  0  0  0
 14 18  1  0  0  0  0
 15 17  1  0  0  0  0
 16 18  2  0  0  0  0
 16 28  1  0  0  0  0
 17 29  1  0  0  0  0
 18 30  1  0  0  0  0
 19 21  1  0  0  0  0
 19 31  1  0  0  0  0
 20 22  1  0  0  0  0
 20 32  1  0  0  0  0
 21 22  2  0  0  0  0
 22 33  1  0  0  0  0
 23 35  1  0  0  0  0
 23 36  1  0  0  0  0
 23 37  1  0  0  0  0
 24 38  1  0  0  0  0
 24 39  1  0  0  0  0
 24 40  1  0  0  0  0
 25 41  1  0  0  0  0
 25 42  1  0  0  0  0
 25 43  1  0  0  0  0
M  END
> <PUBCHEM_COMPOUND_CID>
7314627

> <PUBCHEM_CONFORMER_RMSD>
0.8

> <PUBCHEM_CONFORMER_DIVERSEORDER>
8
59
36
105
27
213
180
28
95
13
100
170
206
39
164
65
130
86
212
194
202
91
160
11
158
12
25
41
214
76
210
205
177
115
82
124
209
199
181
132
90
18
207
198
69
6
37
208
74
75
102
156
137
112
10
51
150
34
149
144
192
215
50
138
157
31
203
4
53
19
88
171
152
61
79
42
218
142
62
33
44
110
162
108
109
29
87
58
188
211
200
166
101
217
84
49
47
40
131
165
55
17
73
72
126
107
204
141
15
201
190
14
80
128
154
185
24
116
119
179
23
136
161
216
26
189
89
151
182
196
143
22
169
125
134
155
168
219
178
16
163
111
46
191
30
43
172
94
45
83
184
167
98
148
117
123
197
70
145
139
193
195
63
186
64
176
66
81
121
78
140
96
57
85
56
21
118
127
146
1
159
97
35
114
147
52
77
106
129
113
135
120
103
2
99
20
5
92
93
133
68
173
32
71
122
174
54
38
175
9
187
67
153
60
48
104
183
7
3

> <PUBCHEM_MMFF94_PARTIAL_CHARGES>
34
1 -0.11
10 -0.15
11 0.11
12 -0.18
13 0.54
14 0.08
15 0.54
16 -0.15
17 -0.14
18 -0.15
19 -0.15
2 -0.36
20 -0.15
21 0.11
22 -0.15
23 0.37
24 0.28
25 0.28
26 0.15
27 0.15
28 0.15
29 0.15
3 -0.36
30 0.15
31 0.15
32 0.15
33 0.15
34 0.4
4 -0.57
5 -0.57
6 -0.87
7 0.03
8 0.03
9 0.08

> <PUBCHEM_EFFECTIVE_ROTOR_COUNT>
6

> <PUBCHEM_PHARMACOPHORE_FEATURES>
10
1 1 hydrophobe
1 2 acceptor
1 3 acceptor
1 4 acceptor
1 5 acceptor
1 6 cation
1 6 donor
1 8 anion
6 7 9 10 14 16 18 rings
7 8 11 13 19 20 21 22 rings

> <PUBCHEM_HEAVY_ATOM_COUNT>
25

> <PUBCHEM_ATOM_DEF_STEREO_COUNT>
0

> <PUBCHEM_ATOM_UDEF_STEREO_COUNT>
0

> <PUBCHEM_BOND_DEF_STEREO_COUNT>
1

> <PUBCHEM_BOND_UDEF_STEREO_COUNT>
0

> <PUBCHEM_ISOTOPIC_ATOM_COUNT>
0

> <PUBCHEM_COMPONENT_COUNT>
1

> <PUBCHEM_CACTVS_TAUTO_COUNT>
1

> <PUBCHEM_CONFORMER_ID>
006F9CC300000008

> <PUBCHEM_MMFF94_ENERGY>
106.7669

> <PUBCHEM_FEATURE_SELFOVERLAP>
50.746

> <PUBCHEM_SHAPE_FINGERPRINT>
10366900 7 15267074648567202088
11112241 14 14476952420024838327
11135609 149 16951945316442558138
11135926 11 17458346360508532546
11796584 16 18272093803195907230
12236239 1 18333734602281029001
12363563 72 17775012318371256128
12616971 3 18114181917149424489
12788726 201 18340500958226355320
13726171 33 17770250410757953113
15183329 4 18334575720355218861
17349148 13 18410575063372936928
17809404 112 16630527366394741870
18186145 218 15864350293697409496
18335252 114 17385713665791082805
20511986 3 18336255812809002900
21781051 124 18340211916535217647
221357 26 16588021282115446772
23536364 44 15503758708491391858
23557571 272 17060067986577042368
23559900 14 17846780732482846560
23572383 38 16343981429282364935
3004659 81 18410579474457428028
3383291 50 17774996926037064799
338550 245 18411983533510613198
44062 13 18130787918969139527
46194498 28 14851615358286819366
497634 4 17313671585122377223
5281201 14 14996283609132290166
5385378 56 17772487698910379905
559249 180 18341608183868082443
574716 61 17895760741109981053
602551 16 17846782910125814442

> <PUBCHEM_SHAPE_MULTIPOLES>
491.97
13.67
2.73
2.36
0.06
1.43
1.08
-0.13
-1.77
-2.87
0.96
3.75
0.22
-4.25

> <PUBCHEM_SHAPE_SELFOVERLAP>
1030.095

> <PUBCHEM_SHAPE_VOLUME>
282.2

> <PUBCHEM_COORDINATE_TYPE>
2
5
10

$$$$
