9587530
  -OEChem-01171809323D

 41 42  0     0  0  0  0  0  0999 V2000
   -5.4812    2.7795    0.1069 Cl  0  0  0  0  0  0  0  0  0  0  0  0
   -6.8748    0.8881    2.3327 Cl  0  0  0  0  0  0  0  0  0  0  0  0
    4.9798   -1.7512    0.3310 O   0  0  0  0  0  0  0  0  0  0  0  0
    6.2474    0.5807    1.1557 O   0  0  0  0  0  0  0  0  0  0  0  0
    0.4176   -0.3428   -0.7645 O   0  0  0  0  0  0  0  0  0  0  0  0
    0.6759    1.7691   -1.6593 O   0  0  0  0  0  0  0  0  0  0  0  0
   -0.8652   -0.2549   -1.3226 N   0  0  0  0  0  0  0  0  0  0  0  0
   -1.1032   -2.4453   -0.3749 N   0  0  0  0  0  0  0  0  0  0  0  0
   -3.9368   -0.8104   -0.6265 C   0  0  0  0  0  0  0  0  0  0  0  0
   -2.9572   -1.3991   -1.6080 C   0  0  0  0  0  0  0  0  0  0  0  0
   -4.2344    0.5433   -0.6878 C   0  0  0  0  0  0  0  0  0  0  0  0
   -4.5271   -1.6312    0.3236 C   0  0  0  0  0  0  0  0  0  0  0  0
    2.4584    0.7416   -0.4563 C   0  0  0  0  0  0  0  0  0  0  0  0
   -1.5340   -1.3433   -1.0765 C   0  0  0  0  0  0  0  0  0  0  0  0
    4.3588   -0.5450    0.2079 C   0  0  0  0  0  0  0  0  0  0  0  0
    4.9948    0.6252    0.6225 C   0  0  0  0  0  0  0  0  0  0  0  0
    3.0763   -0.4861   -0.3374 C   0  0  0  0  0  0  0  0  0  0  0  0
    3.0657    1.9131   -0.0540 C   0  0  0  0  0  0  0  0  0  0  0  0
    4.3482    1.8542    0.4916 C   0  0  0  0  0  0  0  0  0  0  0  0
   -5.1421    1.0881    0.2206 C   0  0  0  0  0  0  0  0  0  0  0  0
   -5.4345   -1.0864    1.2321 C   0  0  0  0  0  0  0  0  0  0  0  0
   -5.7421    0.2732    1.1806 C   0  0  0  0  0  0  0  0  0  0  0  0
    1.0923    0.8044   -1.0361 C   0  0  0  0  0  0  0  0  0  0  0  0
    4.7753   -2.4642    1.5492 C   0  0  0  0  0  0  0  0  0  0  0  0
    7.3423    0.6994    0.2493 C   0  0  0  0  0  0  0  0  0  0  0  0
   -3.2246   -2.4386   -1.8352 H   0  0  0  0  0  0  0  0  0  0  0  0
   -3.0062   -0.8589   -2.5619 H   0  0  0  0  0  0  0  0  0  0  0  0
   -3.7620    1.1731   -1.4379 H   0  0  0  0  0  0  0  0  0  0  0  0
   -4.2943   -2.6912    0.3725 H   0  0  0  0  0  0  0  0  0  0  0  0
    2.6034   -1.4068   -0.6677 H   0  0  0  0  0  0  0  0  0  0  0  0
    2.5712    2.8753   -0.1473 H   0  0  0  0  0  0  0  0  0  0  0  0
    4.8371    2.7697    0.8139 H   0  0  0  0  0  0  0  0  0  0  0  0
   -5.8927   -1.7361    1.9736 H   0  0  0  0  0  0  0  0  0  0  0  0
   -0.1680   -2.4803    0.0165 H   0  0  0  0  0  0  0  0  0  0  0  0
   -1.6996   -3.2515   -0.2215 H   0  0  0  0  0  0  0  0  0  0  0  0
    3.7148   -2.7011    1.6812 H   0  0  0  0  0  0  0  0  0  0  0  0
    5.1397   -1.8828    2.4020 H   0  0  0  0  0  0  0  0  0  0  0  0
    5.3389   -3.3997    1.4973 H   0  0  0  0  0  0  0  0  0  0  0  0
    8.2707    0.6381    0.8237 H   0  0  0  0  0  0  0  0  0  0  0  0
    7.3282   -0.1156   -0.4811 H   0  0  0  0  0  0  0  0  0  0  0  0
    7.3116    1.6655   -0.2644 H   0  0  0  0  0  0  0  0  0  0  0  0
  1 20  1  0  0  0  0
  2 22  1  0  0  0  0
  3 15  1  0  0  0  0
  3 24  1  0  0  0  0
  4 16  1  0  0  0  0
  4 25  1  0  0  0  0
  5  7  1  0  0  0  0
  5 23  1  0  0  0  0
  6 23  2  0  0  0  0
  7 14  2  0  0  0  0
  8 14  1  0  0  0  0
  8 34  1  0  0  0  0
  8 35  1  0  0  0  0
  9 10  1  0  0  0  0
  9 11  2  0  0  0  0
  9 12  1  0  0  0  0
 10 14  1  0  0  0  0
 10 26  1  0  0  0  0
 10 27  1  0  0  0  0
 11 20  1  0  0  0  0
 11 28  1  0  0  0  0
 12 21  2  0  0  0  0
 12 29  1  0  0  0  0
 13 17  2  0  0  0  0
 13 18  1  0  0  0  0
 13 23  1  0  0  0  0
 15 16  2  0  0  0  0
 15 17  1  0  0  0  0
 16 19  1  0  0  0  0
 17 30  1  0  0  0  0
 18 19  2  0  0  0  0
 18 31  1  0  0  0  0
 19 32  1  0  0  0  0
 20 22  2  0  0  0  0
 21 22  1  0  0  0  0
 21 33  1  0  0  0  0
 24 36  1  0  0  0  0
 24 37  1  0  0  0  0
 24 38  1  0  0  0  0
 25 39  1  0  0  0  0
 25 40  1  0  0  0  0
 25 41  1  0  0  0  0
M  END
> <PUBCHEM_COMPOUND_CID>
9587530

> <PUBCHEM_CONFORMER_RMSD>
1.2

> <PUBCHEM_CONFORMER_DIVERSEORDER>
1
98
135
30
17
55
4
113
128
15
78
71
57
99
14
140
70
77
16
139
144
110
27
108
132
32
51
95
109
21
46
88
20
43
24
133
120
47
123
117
73
122
126
86
58
22
40
5
104
42
35
19
52
94
38
89
131
68
116
9
115
87
81
134
25
49
76
23
124
53
12
59
143
2
142
13
93
118
127
29
45
100
65
39
63
11
61
80
129
67
37
102
136
105
26
48
112
74
8
41
84
50
91
54
72
130
92
107
141
66
97
64
3
103
137
36
125
106
6
62
79
28
44
85
119
18
10
138
31
111
69
82
90
114
7
56
33
83
96
101
75
121
60
34

> <PUBCHEM_MMFF94_PARTIAL_CHARGES>
33
1 -0.18
10 0.2
11 -0.15
12 -0.15
13 0.09
14 0.44
15 0.08
16 0.08
17 -0.15
18 -0.15
19 -0.15
2 -0.18
20 0.18
21 -0.15
22 0.18
23 0.63
24 0.28
25 0.28
28 0.15
29 0.15
3 -0.36
30 0.15
31 0.15
32 0.15
33 0.15
34 0.4
35 0.4
4 -0.36
5 -0.09
6 -0.57
7 -0.51
8 -0.85
9 -0.14

> <PUBCHEM_EFFECTIVE_ROTOR_COUNT>
7

> <PUBCHEM_PHARMACOPHORE_FEATURES>
7
1 3 acceptor
1 4 acceptor
1 6 acceptor
1 8 donor
3 7 8 14 cation
6 13 15 16 17 18 19 rings
6 9 11 12 20 21 22 rings

> <PUBCHEM_HEAVY_ATOM_COUNT>
25

> <PUBCHEM_ATOM_DEF_STEREO_COUNT>
0

> <PUBCHEM_ATOM_UDEF_STEREO_COUNT>
0

> <PUBCHEM_BOND_DEF_STEREO_COUNT>
1

> <PUBCHEM_BOND_UDEF_STEREO_COUNT>
0

> <PUBCHEM_ISOTOPIC_ATOM_COUNT>
0

> <PUBCHEM_COMPONENT_COUNT>
1

> <PUBCHEM_CACTVS_TAUTO_COUNT>
2

> <PUBCHEM_CONFORMER_ID>
00924B4A00000001

> <PUBCHEM_MMFF94_ENERGY>
87.9456

> <PUBCHEM_FEATURE_SELFOVERLAP>
35.526

> <PUBCHEM_SHAPE_FINGERPRINT>
10 15 18341619205096769467
10319926 262 18041858233493668887
105312 117 15626226844704570053
10554248 39 13470416608486420048
10692045 39 18201727193300985119
10763959 59 14476960121201621130
10906281 52 17968944214529382964
10928967 22 15502367972068349585
11089746 13 16773790446213036444
12107183 9 18268705017790456402
12422481 6 18339638932535516191
12596602 18 18411138051997070507
12778500 126 18060422409154595840
13673619 4 15574716919597413575
13690498 29 7925633264119288363
13782708 43 14995997744234617368
13785724 45 17912088248819057286
14251758 9 18409167684289303671
14251764 18 18343580776231485615
14251764 30 15140680284768876849
14466204 15 18272089379490479073
14528608 73 11384115245393367550
14767858 380 8430310247090836034
14849402 71 17970071247886482524
14951699 99 18058165214461930800
15183329 4 18273489083018810870
15238133 3 17846223310231436496
15348495 7 18334297616859218441
15461852 350 17846492669374106597
15475509 84 18201713999736517136
16110190 28 18335422399895553949
16993427 108 17906736161718696099
17780758 139 17894912945332108533
1813 80 16805318894831446950
20567600 247 13190329176098830104
21033648 29 15697707182300368850
21054139 6 10737278048416096672
21196832 93 9366474008525187313
21307412 95 7853276577460369745
21315759 148 17022619762594878212
21521721 280 18189049967111113776
21623969 137 17240197738276401922
2303208 19 16660355965931487474
23522609 53 18114477742203365028
23559900 14 16629978680401867566
2748736 6 17346323648851551297
2838139 119 15985104119673875649
3117164 225 18408603660572984983
312425 54 18041001730714678499
3663271 9 18340769329304870219
3680242 22 18272943712757279977
3737641 26 17168977889998796546
4325135 7 8718833097572331834
4938544 92 16805597020245720405
5104073 3 18340766030764828963
7226269 152 17632578245066990969
7495541 125 13767921343194284462
7918774 8 15864072052878259523
999808 66 16515681152132934378

> <PUBCHEM_SHAPE_MULTIPOLES>
484.79
19.74
2.47
1.57
3.27
0.03
-0.32
-4.48
-11.02
-0.45
-0.16
-1.6
0.16
-1.41

> <PUBCHEM_SHAPE_SELFOVERLAP>
1009.202

> <PUBCHEM_SHAPE_VOLUME>
278.5

> <PUBCHEM_COORDINATE_TYPE>
2
5
10

$$$$
