16193374
  -OEChem-01171809463D

 51 53  0     1  0  0  0  0  0999 V2000
    2.1098   -0.6114    1.4659 S   0  0  0  0  0  0  0  0  0  0  0  0
    0.0397    0.7224   -1.8062 O   0  0  0  0  0  0  0  0  0  0  0  0
   -1.6265   -3.3309    1.0200 O   0  0  0  0  0  0  0  0  0  0  0  0
   -4.9177   -1.0652   -0.8770 O   0  0  0  0  0  0  0  0  0  0  0  0
   -0.7772   -0.1077    0.2502 N   0  0  0  0  0  0  0  0  0  0  0  0
   -2.3021   -2.1751   -0.8747 N   0  0  0  0  0  0  0  0  0  0  0  0
   -0.2784   -1.4659    0.2492 C   0  0  1  0  0  0  0  0  0  0  0  0
   -1.5723    0.4088    1.3579 C   0  0  0  0  0  0  0  0  0  0  0  0
   -1.8454    1.8062    0.9168 C   0  0  0  0  0  0  0  0  0  0  0  0
   -1.2565    2.0497   -0.3249 C   0  0  0  0  0  0  0  0  0  0  0  0
   -0.5703    0.8273   -0.7580 C   0  0  0  0  0  0  0  0  0  0  0  0
    0.6767   -1.7365    1.4143 C   0  0  0  0  0  0  0  0  0  0  0  0
   -1.4636   -2.4281    0.2016 C   0  0  0  0  0  0  0  0  0  0  0  0
   -2.5613    2.8004    1.5562 C   0  0  0  0  0  0  0  0  0  0  0  0
   -1.3520    3.2670   -0.9704 C   0  0  0  0  0  0  0  0  0  0  0  0
   -2.6731    4.0433    0.9240 C   0  0  0  0  0  0  0  0  0  0  0  0
   -2.0735    4.2742   -0.3279 C   0  0  0  0  0  0  0  0  0  0  0  0
   -3.4789   -2.9664   -1.1483 C   0  0  0  0  0  0  0  0  0  0  0  0
    3.0840   -1.3783    0.1524 C   0  0  0  0  0  0  0  0  0  0  0  0
   -4.7037   -2.4042   -0.4500 C   0  0  0  0  0  0  0  0  0  0  0  0
    4.3888   -0.6664   -0.0759 C   0  0  0  0  0  0  0  0  0  0  0  0
    5.5271   -1.0525    0.6319 C   0  0  0  0  0  0  0  0  0  0  0  0
    4.4612    0.3799   -0.9957 C   0  0  0  0  0  0  0  0  0  0  0  0
    6.7376   -0.3925    0.4203 C   0  0  0  0  0  0  0  0  0  0  0  0
    5.6717    1.0398   -1.2074 C   0  0  0  0  0  0  0  0  0  0  0  0
    6.8098    0.6536   -0.4994 C   0  0  0  0  0  0  0  0  0  0  0  0
   -6.0538   -0.4917   -0.2448 C   0  0  0  0  0  0  0  0  0  0  0  0
    0.2625   -1.6254   -0.6925 H   0  0  0  0  0  0  0  0  0  0  0  0
   -2.4957   -0.1685    1.4559 H   0  0  0  0  0  0  0  0  0  0  0  0
   -0.9884    0.3944    2.2813 H   0  0  0  0  0  0  0  0  0  0  0  0
    0.1506   -1.6307    2.3697 H   0  0  0  0  0  0  0  0  0  0  0  0
    1.0364   -2.7715    1.3857 H   0  0  0  0  0  0  0  0  0  0  0  0
   -3.0257    2.6281    2.5209 H   0  0  0  0  0  0  0  0  0  0  0  0
   -0.8897    3.4423   -1.9347 H   0  0  0  0  0  0  0  0  0  0  0  0
   -2.0921   -1.4021   -1.4992 H   0  0  0  0  0  0  0  0  0  0  0  0
   -3.2306    4.8428    1.4052 H   0  0  0  0  0  0  0  0  0  0  0  0
   -2.1752    5.2486   -0.7981 H   0  0  0  0  0  0  0  0  0  0  0  0
   -3.6196   -2.9432   -2.2340 H   0  0  0  0  0  0  0  0  0  0  0  0
   -3.3048   -4.0020   -0.8391 H   0  0  0  0  0  0  0  0  0  0  0  0
    2.5133   -1.3834   -0.7823 H   0  0  0  0  0  0  0  0  0  0  0  0
    3.2791   -2.4262    0.4084 H   0  0  0  0  0  0  0  0  0  0  0  0
   -5.5796   -3.0145   -0.6975 H   0  0  0  0  0  0  0  0  0  0  0  0
   -4.5584   -2.4194    0.6368 H   0  0  0  0  0  0  0  0  0  0  0  0
    5.4842   -1.8655    1.3520 H   0  0  0  0  0  0  0  0  0  0  0  0
    3.5814    0.6914   -1.5527 H   0  0  0  0  0  0  0  0  0  0  0  0
    7.6237   -0.6929    0.9716 H   0  0  0  0  0  0  0  0  0  0  0  0
    5.7280    1.8548   -1.9231 H   0  0  0  0  0  0  0  0  0  0  0  0
    7.7522    1.1677   -0.6642 H   0  0  0  0  0  0  0  0  0  0  0  0
   -6.9574   -1.0573   -0.4919 H   0  0  0  0  0  0  0  0  0  0  0  0
   -5.9131   -0.4592    0.8399 H   0  0  0  0  0  0  0  0  0  0  0  0
   -6.1712    0.5317   -0.6114 H   0  0  0  0  0  0  0  0  0  0  0  0
  1 12  1  0  0  0  0
  1 19  1  0  0  0  0
  2 11  2  0  0  0  0
  3 13  2  0  0  0  0
  4 20  1  0  0  0  0
  4 27  1  0  0  0  0
  5  7  1  0  0  0  0
  5  8  1  0  0  0  0
  5 11  1  0  0  0  0
  6 13  1  0  0  0  0
  6 18  1  0  0  0  0
  6 35  1  0  0  0  0
  7 12  1  0  0  0  0
  7 13  1  0  0  0  0
  7 28  1  0  0  0  0
  8  9  1  0  0  0  0
  8 29  1  0  0  0  0
  8 30  1  0  0  0  0
  9 10  1  0  0  0  0
  9 14  2  0  0  0  0
 10 11  1  0  0  0  0
 10 15  2  0  0  0  0
 12 31  1  0  0  0  0
 12 32  1  0  0  0  0
 14 16  1  0  0  0  0
 14 33  1  0  0  0  0
 15 17  1  0  0  0  0
 15 34  1  0  0  0  0
 16 17  2  0  0  0  0
 16 36  1  0  0  0  0
 17 37  1  0  0  0  0
 18 20  1  0  0  0  0
 18 38  1  0  0  0  0
 18 39  1  0  0  0  0
 19 21  1  0  0  0  0
 19 40  1  0  0  0  0
 19 41  1  0  0  0  0
 20 42  1  0  0  0  0
 20 43  1  0  0  0  0
 21 22  2  0  0  0  0
 21 23  1  0  0  0  0
 22 24  1  0  0  0  0
 22 44  1  0  0  0  0
 23 25  2  0  0  0  0
 23 45  1  0  0  0  0
 24 26  2  0  0  0  0
 24 46  1  0  0  0  0
 25 26  1  0  0  0  0
 25 47  1  0  0  0  0
 26 48  1  0  0  0  0
 27 49  1  0  0  0  0
 27 50  1  0  0  0  0
 27 51  1  0  0  0  0
M  END
> <PUBCHEM_COMPOUND_CID>
16193374

> <PUBCHEM_CONFORMER_RMSD>
1

> <PUBCHEM_CONFORMER_DIVERSEORDER>
1
92
120
69
111
127
122
116
67
105
70
39
110
60
106
129
100
11
98
2
41
86
95
125
96
79
75
63
94
68
83
81
101
59
78
93
123
119
76
17
126
65
43
30
27
37
15
74
103
85
80
56
130
10
61
77
18
89
109
55
24
20
47
8
73
40
36
90
38
42
16
131
114
118
108
35
23
54
128
62
71
44
112
104
6
13
102
22
9
5
12
66
32
51
124
7
45
97
3
88
48
121
34
25
28
57
31
29
72
14
115
99
4
19
87
107
91
33
52
113
46
82
50
117
64
58
49
53
26
84
21

> <PUBCHEM_MMFF94_PARTIAL_CHARGES>
37
1 -0.46
10 0.09
11 0.54
12 0.23
13 0.57
14 -0.15
15 -0.15
16 -0.15
17 -0.15
18 0.3
19 0.37
2 -0.57
20 0.28
21 -0.14
22 -0.15
23 -0.15
24 -0.15
25 -0.15
26 -0.15
27 0.28
3 -0.57
33 0.15
34 0.15
35 0.37
36 0.15
37 0.15
4 -0.56
44 0.15
45 0.15
46 0.15
47 0.15
48 0.15
5 -0.66
6 -0.73
7 0.36
8 0.44
9 -0.14

> <PUBCHEM_EFFECTIVE_ROTOR_COUNT>
10.4

> <PUBCHEM_PHARMACOPHORE_FEATURES>
7
1 2 acceptor
1 3 acceptor
1 4 acceptor
1 6 donor
5 5 8 9 10 11 rings
6 21 22 23 24 25 26 rings
6 9 10 14 15 16 17 rings

> <PUBCHEM_HEAVY_ATOM_COUNT>
27

> <PUBCHEM_ATOM_DEF_STEREO_COUNT>
1

> <PUBCHEM_ATOM_UDEF_STEREO_COUNT>
0

> <PUBCHEM_BOND_DEF_STEREO_COUNT>
0

> <PUBCHEM_BOND_UDEF_STEREO_COUNT>
0

> <PUBCHEM_ISOTOPIC_ATOM_COUNT>
0

> <PUBCHEM_COMPONENT_COUNT>
1

> <PUBCHEM_CACTVS_TAUTO_COUNT>
2

> <PUBCHEM_CONFORMER_ID>
00F7175E00000001

> <PUBCHEM_MMFF94_ENERGY>
66.4255

> <PUBCHEM_FEATURE_SELFOVERLAP>
35.61

> <PUBCHEM_SHAPE_FINGERPRINT>
10871710 139 18335987484684656203
10940486 97 17843678013986283663
11578080 2 16485035495577318199
11582403 64 15002443945107092941
12293681 160 18041266776982948707
12788726 201 18409438181187635659
12954195 1 18343301431595457386
13004483 165 18269834383751439126
14068700 675 18337667632709290988
14294032 229 18340210674187148993
14840074 17 18338525145127466961
14910302 57 17917726681868921910
14955137 171 18122909991260551147
15276724 80 18341894095134293157
15420108 30 18047473313963404589
16087824 20 18339641149883638501
16992727 255 18188197729213309261
21033648 29 13407361858658402382
21120745 212 18339653350587968592
22907989 373 18339908330027176279
23558518 356 18046335349636132027
23559900 14 18196929092150421656
25147074 1 18115858629870285130
283562 15 18408880720366143651
3918712 181 17756151443024894212
57527295 17 17546462523174241415
6371009 1 18187643652810020004
7226269 152 18410291424075899335
7808743 9 18338235947630928280

> <PUBCHEM_SHAPE_MULTIPOLES>
531.93
13.49
4.69
1.43
21.33
3.33
0.12
-2.71
-2.78
-8.14
0.1
-0.11
0.19
-2.21

> <PUBCHEM_SHAPE_SELFOVERLAP>
1108.787

> <PUBCHEM_SHAPE_VOLUME>
303.8

> <PUBCHEM_COORDINATE_TYPE>
2
5
10

$$$$
