1759638
  -OEChem-01171810073D

 69 74  0     0  0  0  0  0  0999 V2000
    7.2866   -0.0828    1.1947 O   0  0  0  0  0  0  0  0  0  0  0  0
   -6.4697    0.3337    2.5226 O   0  0  0  0  0  0  0  0  0  0  0  0
   -6.9855   -1.5364    1.3256 O   0  0  0  0  0  0  0  0  0  0  0  0
   -2.4089   -2.7216   -2.0452 O   0  0  0  0  0  0  0  0  0  0  0  0
    3.2820   -2.7319    0.7644 O   0  0  0  0  0  0  0  0  0  0  0  0
    1.3999   -3.9800    0.5405 O   0  0  0  0  0  0  0  0  0  0  0  0
   -3.4812   -1.6826   -0.2661 N   0  0  0  0  0  0  0  0  0  0  0  0
   -5.6346    0.2291    0.2980 C   0  0  0  0  0  0  0  0  0  0  0  0
   -4.2019    0.3787    0.8617 C   0  0  0  0  0  0  0  0  0  0  0  0
   -5.6213   -0.6709   -0.9570 C   0  0  0  0  0  0  0  0  0  0  0  0
   -3.4603   -0.9528    1.0022 C   0  0  0  0  0  0  0  0  0  0  0  0
   -4.8196   -1.9621   -0.7757 C   0  0  0  0  0  0  0  0  0  0  0  0
   -6.3746    1.5451    0.0406 C   0  0  0  0  0  0  0  0  0  0  0  0
   -6.4401   -0.4464    1.4145 C   0  0  0  0  0  0  0  0  0  0  0  0
   -2.3598   -2.1071   -0.9766 C   0  0  0  0  0  0  0  0  0  0  0  0
   -1.0161   -1.7781   -0.3770 C   0  0  0  0  0  0  0  0  0  0  0  0
    6.6318    1.5968   -0.1691 C   0  0  0  0  0  0  0  0  0  0  0  0
    6.7756    2.8822   -0.9023 C   0  0  0  0  0  0  0  0  0  0  0  0
   -7.7057    1.5214   -0.3645 C   0  0  0  0  0  0  0  0  0  0  0  0
   -5.7110    2.7560    0.2131 C   0  0  0  0  0  0  0  0  0  0  0  0
    7.9395    3.7165   -0.3233 C   0  0  0  0  0  0  0  0  0  0  0  0
    7.6308    1.1012    0.6378 C   0  0  0  0  0  0  0  0  0  0  0  0
    9.1991    2.8658   -0.0512 C   0  0  0  0  0  0  0  0  0  0  0  0
    8.9348    1.7228    0.9504 C   0  0  0  0  0  0  0  0  0  0  0  0
    5.5829    0.6436   -0.1184 C   0  0  0  0  0  0  0  0  0  0  0  0
    0.1146   -2.2953   -1.2480 C   0  0  0  0  0  0  0  0  0  0  0  0
    6.0331   -0.3657    0.7302 C   0  0  0  0  0  0  0  0  0  0  0  0
    1.4674   -1.9391   -0.6858 C   0  0  0  0  0  0  0  0  0  0  0  0
    3.5025   -0.6088   -0.4068 C   0  0  0  0  0  0  0  0  0  0  0  0
    4.3019    0.5167   -0.6960 C   0  0  0  0  0  0  0  0  0  0  0  0
    2.1500   -0.8102   -0.9732 C   0  0  0  0  0  0  0  0  0  0  0  0
   -8.3796    2.7201   -0.5995 C   0  0  0  0  0  0  0  0  0  0  0  0
   -6.3848    3.9546   -0.0215 C   0  0  0  0  0  0  0  0  0  0  0  0
    4.0251   -1.5790    0.4480 C   0  0  0  0  0  0  0  0  0  0  0  0
    5.2911   -1.4978    1.0442 C   0  0  0  0  0  0  0  0  0  0  0  0
   -7.7190    3.9365   -0.4279 C   0  0  0  0  0  0  0  0  0  0  0  0
    2.0235   -2.9669    0.2394 C   0  0  0  0  0  0  0  0  0  0  0  0
    1.6017    0.2948   -1.8428 C   0  0  0  0  0  0  0  0  0  0  0  0
   -3.6073    0.9886    0.1671 H   0  0  0  0  0  0  0  0  0  0  0  0
   -4.1807    0.8959    1.8290 H   0  0  0  0  0  0  0  0  0  0  0  0
   -6.6361   -0.9413   -1.2737 H   0  0  0  0  0  0  0  0  0  0  0  0
   -5.1795   -0.1051   -1.7893 H   0  0  0  0  0  0  0  0  0  0  0  0
   -2.4438   -0.7603    1.3494 H   0  0  0  0  0  0  0  0  0  0  0  0
   -3.9362   -1.5898    1.7566 H   0  0  0  0  0  0  0  0  0  0  0  0
   -4.7641   -2.4854   -1.7361 H   0  0  0  0  0  0  0  0  0  0  0  0
   -5.3012   -2.6504   -0.0741 H   0  0  0  0  0  0  0  0  0  0  0  0
   -0.9396   -0.6897   -0.2723 H   0  0  0  0  0  0  0  0  0  0  0  0
   -0.9557   -2.2345    0.6179 H   0  0  0  0  0  0  0  0  0  0  0  0
    6.9752    2.6667   -1.9589 H   0  0  0  0  0  0  0  0  0  0  0  0
    5.8476    3.4623   -0.8529 H   0  0  0  0  0  0  0  0  0  0  0  0
   -8.2425    0.5871   -0.5016 H   0  0  0  0  0  0  0  0  0  0  0  0
   -4.6774    2.8266    0.5313 H   0  0  0  0  0  0  0  0  0  0  0  0
    7.6190    4.1821    0.6179 H   0  0  0  0  0  0  0  0  0  0  0  0
    8.1823    4.5304   -1.0158 H   0  0  0  0  0  0  0  0  0  0  0  0
   10.0064    3.5029    0.3275 H   0  0  0  0  0  0  0  0  0  0  0  0
    9.5473    2.4412   -1.0020 H   0  0  0  0  0  0  0  0  0  0  0  0
    8.9054    2.1269    1.9687 H   0  0  0  0  0  0  0  0  0  0  0  0
    9.7447    0.9878    0.9035 H   0  0  0  0  0  0  0  0  0  0  0  0
    0.0188   -1.9094   -2.2707 H   0  0  0  0  0  0  0  0  0  0  0  0
    0.0289   -3.3827   -1.3758 H   0  0  0  0  0  0  0  0  0  0  0  0
    3.9587    1.3037   -1.3607 H   0  0  0  0  0  0  0  0  0  0  0  0
   -9.4188    2.7063   -0.9148 H   0  0  0  0  0  0  0  0  0  0  0  0
   -5.8716    4.9023    0.1130 H   0  0  0  0  0  0  0  0  0  0  0  0
   -6.9821   -0.0811    3.2488 H   0  0  0  0  0  0  0  0  0  0  0  0
    5.6704   -2.2674    1.7057 H   0  0  0  0  0  0  0  0  0  0  0  0
   -8.2438    4.8698   -0.6102 H   0  0  0  0  0  0  0  0  0  0  0  0
    2.1948    0.3939   -2.7583 H   0  0  0  0  0  0  0  0  0  0  0  0
    1.6118    1.2502   -1.3060 H   0  0  0  0  0  0  0  0  0  0  0  0
    0.5647    0.1383   -2.1492 H   0  0  0  0  0  0  0  0  0  0  0  0
  1 22  1  0  0  0  0
  1 27  1  0  0  0  0
  2 14  1  0  0  0  0
  2 64  1  0  0  0  0
  3 14  2  0  0  0  0
  4 15  2  0  0  0  0
  5 34  1  0  0  0  0
  5 37  1  0  0  0  0
  6 37  2  0  0  0  0
  7 11  1  0  0  0  0
  7 12  1  0  0  0  0
  7 15  1  0  0  0  0
  8  9  1  0  0  0  0
  8 10  1  0  0  0  0
  8 13  1  0  0  0  0
  8 14  1  0  0  0  0
  9 11  1  0  0  0  0
  9 39  1  0  0  0  0
  9 40  1  0  0  0  0
 10 12  1  0  0  0  0
 10 41  1  0  0  0  0
 10 42  1  0  0  0  0
 11 43  1  0  0  0  0
 11 44  1  0  0  0  0
 12 45  1  0  0  0  0
 12 46  1  0  0  0  0
 13 19  2  0  0  0  0
 13 20  1  0  0  0  0
 15 16  1  0  0  0  0
 16 26  1  0  0  0  0
 16 47  1  0  0  0  0
 16 48  1  0  0  0  0
 17 18  1  0  0  0  0
 17 22  2  0  0  0  0
 17 25  1  0  0  0  0
 18 21  1  0  0  0  0
 18 49  1  0  0  0  0
 18 50  1  0  0  0  0
 19 32  1  0  0  0  0
 19 51  1  0  0  0  0
 20 33  2  0  0  0  0
 20 52  1  0  0  0  0
 21 23  1  0  0  0  0
 21 53  1  0  0  0  0
 21 54  1  0  0  0  0
 22 24  1  0  0  0  0
 23 24  1  0  0  0  0
 23 55  1  0  0  0  0
 23 56  1  0  0  0  0
 24 57  1  0  0  0  0
 24 58  1  0  0  0  0
 25 27  2  0  0  0  0
 25 30  1  0  0  0  0
 26 28  1  0  0  0  0
 26 59  1  0  0  0  0
 26 60  1  0  0  0  0
 27 35  1  0  0  0  0
 28 31  2  0  0  0  0
 28 37  1  0  0  0  0
 29 30  2  0  0  0  0
 29 31  1  0  0  0  0
 29 34  1  0  0  0  0
 30 61  1  0  0  0  0
 31 38  1  0  0  0  0
 32 36  2  0  0  0  0
 32 62  1  0  0  0  0
 33 36  1  0  0  0  0
 33 63  1  0  0  0  0
 34 35  2  0  0  0  0
 35 65  1  0  0  0  0
 36 66  1  0  0  0  0
 38 67  1  0  0  0  0
 38 68  1  0  0  0  0
 38 69  1  0  0  0  0
M  END
> <PUBCHEM_COMPOUND_CID>
1759638

> <PUBCHEM_CONFORMER_RMSD>
1

> <PUBCHEM_CONFORMER_DIVERSEORDER>
3
231
67
196
50
166
229
162
84
64
179
17
27
226
95
115
63
11
121
201
227
62
39
165
158
240
13
80
71
149
209
197
206
94
215
7
41
103
185
22
212
257
104
66
190
129
148
207
102
107
4
247
186
83
205
106
21
200
19
55
61
54
9
152
246
123
155
234
176
24
239
202
138
259
252
30
20
211
26
232
214
36
33
81
222
99
173
217
96
23
243
163
98
248
18
2
29
10
78
6
180
233
16
108
72
160
89
46
125
184
235
31
65
85
210
120
145
12
218
219
113
144
43
77
40
213
15
48
178
70
124
47
181
122
171
139
28
53
68
133
100
242
14
112
208
224
90
1
195
87
114
140
249
119
56
172
111
82
86
230
237
255
101
258
192
76
241
127
91
146
188
189
42
69
34
141
130
135
154
5
157
194
253
147
88
245
191
44
228
198
58
92
32
57
52
25
236
60
164
8
161
116
110
136
73
118
244
134
143
97
45
187
256
59
167
254
93
75
105
225
170
216
168
137
223
159
260
51
35
126
175
193
109
250
150
142
199
131
182
151
38
74
251
221
174
220
156
183
49
128
79
238
117
169
177
203
132
204
153
37

> <PUBCHEM_MMFF94_PARTIAL_CHARGES>
41
1 -0.28
11 0.3
12 0.3
13 -0.14
14 0.66
15 0.57
16 0.06
17 -0.18
18 0.18
19 -0.15
2 -0.65
20 -0.15
22 -0.04
24 0.18
26 0.14
27 0.14
28 -0.12
29 0.03
3 -0.57
30 -0.15
31 -0.17
32 -0.15
33 -0.15
34 0.08
35 -0.15
36 -0.15
37 0.71
38 0.14
4 -0.57
5 -0.23
51 0.15
52 0.15
6 -0.57
61 0.15
62 0.15
63 0.15
64 0.5
65 0.15
66 0.15
7 -0.66
8 0.2

> <PUBCHEM_EFFECTIVE_ROTOR_COUNT>
8

> <PUBCHEM_PHARMACOPHORE_FEATURES>
12
1 1 acceptor
1 2 acceptor
1 3 acceptor
1 4 acceptor
1 6 acceptor
3 2 3 14 anion
5 1 17 22 25 27 rings
6 13 19 20 32 33 36 rings
6 17 18 21 22 23 24 rings
6 25 27 29 30 34 35 rings
6 5 28 29 31 34 37 rings
6 7 8 9 10 11 12 rings

> <PUBCHEM_HEAVY_ATOM_COUNT>
38

> <PUBCHEM_ATOM_DEF_STEREO_COUNT>
0

> <PUBCHEM_ATOM_UDEF_STEREO_COUNT>
0

> <PUBCHEM_BOND_DEF_STEREO_COUNT>
0

> <PUBCHEM_BOND_UDEF_STEREO_COUNT>
0

> <PUBCHEM_ISOTOPIC_ATOM_COUNT>
0

> <PUBCHEM_COMPONENT_COUNT>
1

> <PUBCHEM_CACTVS_TAUTO_COUNT>
1

> <PUBCHEM_CONFORMER_ID>
001AD99600000003

> <PUBCHEM_MMFF94_ENERGY>
101.8805

> <PUBCHEM_FEATURE_SELFOVERLAP>
61.179

> <PUBCHEM_SHAPE_FINGERPRINT>
10280341 67 18058717113975903824
10533779 1 18343291561602972952
10554248 39 17059776589867149679
10625338 131 18410851054083183928
10693767 8 10592049055461776006
10930396 42 17095241398769119701
10939801 23 18411136926631424349
11061554 47 17917425489077312792
11421887 103 18339349765611306901
11456790 92 18334286601022660552
11578821 258 18343021090654572473
11621639 254 18201707450623365621
12013929 112 18271824440960402268
12013929 27 10592041371042831080
12133447 93 18340217353620826532
12522641 68 18131067160188947190
12539765 74 18201726171942846510
12975358 362 18197800846422273193
131241 285 18337659885200927213
13248334 5 18124032330339487550
13627175 4 11602833414749303561
13782708 43 12540691535541856086
14340393 91 10015859882134865543
14347424 109 18188768319391667242
14394314 77 18335417993280382628
14849402 71 18265051512755776284
15131766 46 18341038688031165102
15274700 208 17345452917152247280
15320294 125 12468359059423304323
15347591 1 18412261697511247967
15350500 55 18408884006110661341
15439362 3 18343587331091051894
1577012 14 18343579668420469702
15840311 113 18408604730394641790
16067689 134 18190187961361578340
16989713 51 16987144145191616055
16994733 274 18408599279827630546
18603816 31 12901822896017771059
19303781 99 7853570175889494915
2026 5 9511460030920905845
20511986 3 18343014463556327339
20691028 202 18338512053903624384
20982279 24 15069445053416551776
21130935 74 18041279889692644691
21298829 104 18409728456446444341
21585482 111 18410011018451424652
21647283 7 18260551099645863547
21781055 127 18114465652750874684
23516275 100 18267302041487100173
23522609 53 17387703936919994686
23576562 1 15194704852776350945
24771293 8 18335699503196638910
25025965 108 12540975261493302881
3504750 166 9078024868140427062
3525247 18 17905603307780019829
3711267 37 18413112775223758936
3918712 181 18342457045584346992
406291 66 8430314640795004560
4169191 19 18409441505439198551
4366758 26 18336269063047674108
4403749 210 18410293623542682099
4461854 278 13623536749058440360
44802255 64 17489587904863677807
45377200 153 13117996674859184792
4756326 101 17677600970941986389
54039377 194 8430314653674547336
5911458 16 18341897445973714128
6036956 94 18127415558183487913
6201320 221 15553071870228927476
6201320 82 18201168646232711985
6289498 60 18411980278263130408
636775 72 18411417302793040757
6698420 124 18187925127934840066
99344 41 18408603664847528884
999808 66 11314317144114818001

> <PUBCHEM_SHAPE_MULTIPOLES>
741.83
31.79
4.79
1.4
9.88
2.3
0.12
36.9
6.34
-1.47
-0.73
-0.99
-0.49
-0.57

> <PUBCHEM_SHAPE_SELFOVERLAP>
1639.73

> <PUBCHEM_SHAPE_VOLUME>
394

> <PUBCHEM_COORDINATE_TYPE>
2
5
10

$$$$
