1380035
  -OEChem-01171809293D

 36 37  0     0  0  0  0  0  0999 V2000
   -1.8444   -4.0711   -0.7283 Cl  0  0  0  0  0  0  0  0  0  0  0  0
    0.8415   -3.5648   -1.7043 Cl  0  0  0  0  0  0  0  0  0  0  0  0
   -1.7139   -1.2908    0.9960 S   0  0  0  0  0  0  0  0  0  0  0  0
   -2.9130   -2.0916    0.8305 O   0  0  0  0  0  0  0  0  0  0  0  0
   -1.1805   -1.0642    2.3272 O   0  0  0  0  0  0  0  0  0  0  0  0
    1.0459    0.0208    1.8735 O   0  0  0  0  0  0  0  0  0  0  0  0
    0.7828   -1.0852   -0.1759 N   0  0  0  0  0  0  0  0  0  0  0  0
   -2.1997    0.2850    0.3328 C   0  0  0  0  0  0  0  0  0  0  0  0
   -0.3886   -1.8245   -0.0395 C   0  0  0  0  0  0  0  0  0  0  0  0
   -3.1728    0.3243   -0.6442 C   0  0  0  0  0  0  0  0  0  0  0  0
   -1.5910    1.4263    0.8121 C   0  0  0  0  0  0  0  0  0  0  0  0
   -2.9543    2.7295   -0.6980 C   0  0  0  0  0  0  0  0  0  0  0  0
   -3.5543    1.5605   -1.1655 C   0  0  0  0  0  0  0  0  0  0  0  0
   -1.9728    2.6626    0.2909 C   0  0  0  0  0  0  0  0  0  0  0  0
    1.4086   -0.2462    0.7338 C   0  0  0  0  0  0  0  0  0  0  0  0
    2.6939    0.3298    0.2600 C   0  0  0  0  0  0  0  0  0  0  0  0
   -3.3624    4.0517   -1.2548 C   0  0  0  0  0  0  0  0  0  0  0  0
   -0.4966   -2.9832   -0.7318 C   0  0  0  0  0  0  0  0  0  0  0  0
    3.1086    1.5418    0.7714 C   0  0  0  0  0  0  0  0  0  0  0  0
    3.4308   -0.3663   -0.6752 C   0  0  0  0  0  0  0  0  0  0  0  0
    4.3152    2.0824    0.3270 C   0  0  0  0  0  0  0  0  0  0  0  0
    4.6375    0.1744   -1.1195 C   0  0  0  0  0  0  0  0  0  0  0  0
    5.0796    1.3988   -0.6183 C   0  0  0  0  0  0  0  0  0  0  0  0
   -3.6437   -0.5734   -1.0318 H   0  0  0  0  0  0  0  0  0  0  0  0
   -0.8555    1.4137    1.6048 H   0  0  0  0  0  0  0  0  0  0  0  0
   -4.3170    1.5995   -1.9388 H   0  0  0  0  0  0  0  0  0  0  0  0
   -1.5029    3.5671    0.6678 H   0  0  0  0  0  0  0  0  0  0  0  0
    1.2733   -1.3081   -1.0360 H   0  0  0  0  0  0  0  0  0  0  0  0
   -2.7344    4.3072   -2.1140 H   0  0  0  0  0  0  0  0  0  0  0  0
   -4.4093    4.0392   -1.5767 H   0  0  0  0  0  0  0  0  0  0  0  0
   -3.2682    4.8428   -0.5031 H   0  0  0  0  0  0  0  0  0  0  0  0
    2.5220    2.0893    1.5031 H   0  0  0  0  0  0  0  0  0  0  0  0
    3.1654   -1.3453   -1.0569 H   0  0  0  0  0  0  0  0  0  0  0  0
    4.6593    3.0362    0.7165 H   0  0  0  0  0  0  0  0  0  0  0  0
    5.2397   -0.3634   -1.8461 H   0  0  0  0  0  0  0  0  0  0  0  0
    6.0204    1.8185   -0.9622 H   0  0  0  0  0  0  0  0  0  0  0  0
  1 18  1  0  0  0  0
  2 18  1  0  0  0  0
  3  4  2  0  0  0  0
  3  5  2  0  0  0  0
  3  8  1  0  0  0  0
  3  9  1  0  0  0  0
  6 15  2  0  0  0  0
  7  9  1  0  0  0  0
  7 15  1  0  0  0  0
  7 28  1  0  0  0  0
  8 10  2  0  0  0  0
  8 11  1  0  0  0  0
  9 18  2  0  0  0  0
 10 13  1  0  0  0  0
 10 24  1  0  0  0  0
 11 14  2  0  0  0  0
 11 25  1  0  0  0  0
 12 13  2  0  0  0  0
 12 14  1  0  0  0  0
 12 17  1  0  0  0  0
 13 26  1  0  0  0  0
 14 27  1  0  0  0  0
 15 16  1  0  0  0  0
 16 19  2  0  0  0  0
 16 20  1  0  0  0  0
 17 29  1  0  0  0  0
 17 30  1  0  0  0  0
 17 31  1  0  0  0  0
 19 21  1  0  0  0  0
 19 32  1  0  0  0  0
 20 22  2  0  0  0  0
 20 33  1  0  0  0  0
 21 23  2  0  0  0  0
 21 34  1  0  0  0  0
 22 23  1  0  0  0  0
 22 35  1  0  0  0  0
 23 36  1  0  0  0  0
M  END
> <PUBCHEM_COMPOUND_CID>
1380035

> <PUBCHEM_CONFORMER_RMSD>
0.8

> <PUBCHEM_CONFORMER_DIVERSEORDER>
1
5
6
17
14
8
10
4
2
11
16
9
12
15
13
3
7

> <PUBCHEM_MMFF94_PARTIAL_CHARGES>
33
1 -0.14
10 -0.15
11 -0.15
12 -0.14
13 -0.15
14 -0.15
15 0.54
16 0.09
17 0.14
18 0.28
19 -0.15
2 -0.14
20 -0.15
21 -0.15
22 -0.15
23 -0.15
24 0.15
25 0.15
26 0.15
27 0.15
28 0.37
3 1.33
32 0.15
33 0.15
34 0.15
35 0.15
36 0.15
4 -0.65
5 -0.65
6 -0.57
7 -0.54
8 -0.01
9 0.09

> <PUBCHEM_EFFECTIVE_ROTOR_COUNT>
5

> <PUBCHEM_PHARMACOPHORE_FEATURES>
6
1 4 acceptor
1 5 acceptor
1 6 acceptor
1 7 donor
6 16 19 20 21 22 23 rings
6 8 10 11 12 13 14 rings

> <PUBCHEM_HEAVY_ATOM_COUNT>
23

> <PUBCHEM_ATOM_DEF_STEREO_COUNT>
0

> <PUBCHEM_ATOM_UDEF_STEREO_COUNT>
0

> <PUBCHEM_BOND_DEF_STEREO_COUNT>
0

> <PUBCHEM_BOND_UDEF_STEREO_COUNT>
0

> <PUBCHEM_ISOTOPIC_ATOM_COUNT>
0

> <PUBCHEM_COMPONENT_COUNT>
1

> <PUBCHEM_CACTVS_TAUTO_COUNT>
2

> <PUBCHEM_CONFORMER_ID>
00150EC300000001

> <PUBCHEM_MMFF94_ENERGY>
68.2498

> <PUBCHEM_FEATURE_SELFOVERLAP>
30.483

> <PUBCHEM_SHAPE_FINGERPRINT>
10165383 225 18200896026960633329
10498660 4 18335696148136557772
11045515 52 17834107932990812087
11221954 11 18190182286980954193
11370993 70 18341047432874561316
11477941 20 17976550730059439004
11640471 11 17385998434311344449
11833330 49 17978218692897194463
12160290 23 17987217006002107603
12173636 292 18409442596281744373
12788726 201 18116418427001427187
13134695 92 16163823945506344923
14251751 93 18411986896802230602
14468879 13 18335426746312487603
15163728 17 18190752928999510381
15463212 79 18263074560968932626
15961568 22 17544749497038935512
16988056 13 16966592777639406412
17357779 13 17626931320798126183
17492 54 18190717878562367239
17980427 23 17470965278643880187
1813 80 17548410865920896602
20775438 99 16908578601488054983
21524375 3 18189045400326040571
21860390 5 17548686392330317102
22907989 373 18339927137604614933
23557571 272 18125444352502858710
23559900 14 17910098123522418825
238 59 18058444301066929518
26353 1 17192887079587660430
4028521 119 18407476669713235840
474 4 17975125440661201185
531348 171 18409453605264157470
81228 2 17695338566117520586
9981440 41 18337383847003225939

> <PUBCHEM_SHAPE_MULTIPOLES>
458.33
8.12
4.9
1.52
8.85
2.25
-0.34
-7.41
2.48
-4.53
2.35
-0.32
0.31
1.65

> <PUBCHEM_SHAPE_SELFOVERLAP>
948.495

> <PUBCHEM_SHAPE_VOLUME>
261.8

> <PUBCHEM_COORDINATE_TYPE>
2
5
10

$$$$
