1238357
  -OEChem-01171809343D

 41 43  0     0  0  0  0  0  0999 V2000
   -3.0411   -2.2706   -0.7397 S   0  0  0  0  0  0  0  0  0  0  0  0
    2.3669    0.5094   -1.7869 S   0  0  0  0  0  0  0  0  0  0  0  0
   -0.1295   -2.9060    0.1513 O   0  0  0  0  0  0  0  0  0  0  0  0
   -2.7595    0.2681   -1.4443 N   0  0  0  0  0  0  0  0  0  0  0  0
    0.4579   -1.2406   -1.4141 N   0  0  0  0  0  0  0  0  0  0  0  0
    2.2418   -1.1319    0.1987 N   0  0  0  0  0  0  0  0  0  0  0  0
   -2.8469   -1.6826    2.9792 N   0  0  0  0  0  0  0  0  0  0  0  0
   -2.4850    2.1426    0.0580 C   0  0  0  0  0  0  0  0  0  0  0  0
   -2.5520    1.2858    1.1510 C   0  0  0  0  0  0  0  0  0  0  0  0
   -2.5931    1.5888   -1.2077 C   0  0  0  0  0  0  0  0  0  0  0  0
   -2.7226   -0.0792    0.9480 C   0  0  0  0  0  0  0  0  0  0  0  0
   -2.8229   -0.5550   -0.3621 C   0  0  0  0  0  0  0  0  0  0  0  0
   -2.3038    3.6127    0.2407 C   0  0  0  0  0  0  0  0  0  0  0  0
   -2.4391    1.8475    2.5347 C   0  0  0  0  0  0  0  0  0  0  0  0
   -2.5288    2.4592   -2.4198 C   0  0  0  0  0  0  0  0  0  0  0  0
   -1.5545   -2.5663   -1.7269 C   0  0  0  0  0  0  0  0  0  0  0  0
    3.6361    0.5746   -0.6216 C   0  0  0  0  0  0  0  0  0  0  0  0
    3.3958   -0.3814    0.3700 C   0  0  0  0  0  0  0  0  0  0  0  0
    1.6274   -0.7499   -0.8965 C   0  0  0  0  0  0  0  0  0  0  0  0
   -0.3384   -2.2668   -0.8763 C   0  0  0  0  0  0  0  0  0  0  0  0
    4.7631    1.4114   -0.5873 C   0  0  0  0  0  0  0  0  0  0  0  0
    4.3178   -0.5022    1.4323 C   0  0  0  0  0  0  0  0  0  0  0  0
   -2.7914   -0.9663    2.0719 C   0  0  0  0  0  0  0  0  0  0  0  0
    5.6598    1.2713    0.4749 C   0  0  0  0  0  0  0  0  0  0  0  0
    5.4419    0.3276    1.4727 C   0  0  0  0  0  0  0  0  0  0  0  0
   -1.8938    4.1136   -0.6403 H   0  0  0  0  0  0  0  0  0  0  0  0
   -3.2633    4.0823    0.4811 H   0  0  0  0  0  0  0  0  0  0  0  0
   -1.5896    3.8305    1.0422 H   0  0  0  0  0  0  0  0  0  0  0  0
   -2.9753    2.7982    2.6272 H   0  0  0  0  0  0  0  0  0  0  0  0
   -2.8829    1.2051    3.3007 H   0  0  0  0  0  0  0  0  0  0  0  0
   -1.3861    2.0051    2.7906 H   0  0  0  0  0  0  0  0  0  0  0  0
   -1.5325    2.8990   -2.5293 H   0  0  0  0  0  0  0  0  0  0  0  0
   -2.7260    1.8736   -3.3248 H   0  0  0  0  0  0  0  0  0  0  0  0
   -3.2841    3.2504   -2.3780 H   0  0  0  0  0  0  0  0  0  0  0  0
   -1.5801   -1.9666   -2.6412 H   0  0  0  0  0  0  0  0  0  0  0  0
   -1.5165   -3.6197   -2.0214 H   0  0  0  0  0  0  0  0  0  0  0  0
    0.1566   -0.7967   -2.2776 H   0  0  0  0  0  0  0  0  0  0  0  0
    4.9396    2.1504   -1.3628 H   0  0  0  0  0  0  0  0  0  0  0  0
    4.1573   -1.2360    2.2171 H   0  0  0  0  0  0  0  0  0  0  0  0
    6.5386    1.9091    0.5204 H   0  0  0  0  0  0  0  0  0  0  0  0
    6.1502    0.2331    2.2912 H   0  0  0  0  0  0  0  0  0  0  0  0
  1 12  1  0  0  0  0
  1 16  1  0  0  0  0
  2 17  1  0  0  0  0
  2 19  1  0  0  0  0
  3 20  2  0  0  0  0
  4 10  2  0  0  0  0
  4 12  1  0  0  0  0
  5 19  1  0  0  0  0
  5 20  1  0  0  0  0
  5 37  1  0  0  0  0
  6 18  1  0  0  0  0
  6 19  2  0  0  0  0
  7 23  3  0  0  0  0
  8  9  2  0  0  0  0
  8 10  1  0  0  0  0
  8 13  1  0  0  0  0
  9 11  1  0  0  0  0
  9 14  1  0  0  0  0
 10 15  1  0  0  0  0
 11 12  2  0  0  0  0
 11 23  1  0  0  0  0
 13 26  1  0  0  0  0
 13 27  1  0  0  0  0
 13 28  1  0  0  0  0
 14 29  1  0  0  0  0
 14 30  1  0  0  0  0
 14 31  1  0  0  0  0
 15 32  1  0  0  0  0
 15 33  1  0  0  0  0
 15 34  1  0  0  0  0
 16 20  1  0  0  0  0
 16 35  1  0  0  0  0
 16 36  1  0  0  0  0
 17 18  1  0  0  0  0
 17 21  2  0  0  0  0
 18 22  2  0  0  0  0
 21 24  1  0  0  0  0
 21 38  1  0  0  0  0
 22 25  1  0  0  0  0
 22 39  1  0  0  0  0
 24 25  2  0  0  0  0
 24 40  1  0  0  0  0
 25 41  1  0  0  0  0
M  END
> <PUBCHEM_COMPOUND_CID>
1238357

> <PUBCHEM_CONFORMER_RMSD>
0.8

> <PUBCHEM_CONFORMER_DIVERSEORDER>
2
19
130
55
189
155
143
43
42
153
83
137
138
29
57
73
188
118
179
23
126
167
90
108
48
22
158
123
103
132
78
159
31
148
141
165
12
4
35
131
72
95
146
76
36
119
172
154
125
192
52
1
38
177
10
97
128
161
68
39
49
21
84
41
104
65
25
152
105
8
9
69
33
77
121
62
53
71
11
66
187
74
134
63
3
183
117
186
79
50
120
181
26
60
111
18
30
133
82
139
113
6
140
156
109
61
40
7
64
86
46
136
58
166
20
88
56
135
85
191
150
173
101
176
174
93
163
45
47
190
144
51
89
100
59
180
5
151
145
116
99
164
175
149
170
16
160
124
129
107
96
169
67
171
102
13
70
182
37
17
162
147
168
14
44
184
115
185
122
91
28
27
127
94
80
157
106
34
81
110
32
54
92
15
112
75
114
178
142
87
24
98

> <PUBCHEM_MMFF94_PARTIAL_CHARGES>
30
1 -0.33
10 0.17
11 0.07
12 0.41
13 0.14
14 0.14
15 0.14
16 0.29
17 0.04
18 0.23
19 0.44
2 -0.08
20 0.57
21 -0.15
22 -0.15
23 0.48
24 -0.15
25 -0.15
3 -0.57
37 0.37
38 0.15
39 0.15
4 -0.62
40 0.15
41 0.15
5 -0.49
6 -0.57
7 -0.56
8 -0.14
9 -0.14

> <PUBCHEM_EFFECTIVE_ROTOR_COUNT>
5

> <PUBCHEM_PHARMACOPHORE_FEATURES>
7
1 3 acceptor
1 4 acceptor
1 5 donor
1 7 acceptor
5 2 6 17 18 19 rings
6 17 18 21 22 24 25 rings
6 4 8 9 10 11 12 rings

> <PUBCHEM_HEAVY_ATOM_COUNT>
25

> <PUBCHEM_ATOM_DEF_STEREO_COUNT>
0

> <PUBCHEM_ATOM_UDEF_STEREO_COUNT>
0

> <PUBCHEM_BOND_DEF_STEREO_COUNT>
0

> <PUBCHEM_BOND_UDEF_STEREO_COUNT>
0

> <PUBCHEM_ISOTOPIC_ATOM_COUNT>
0

> <PUBCHEM_COMPONENT_COUNT>
1

> <PUBCHEM_CACTVS_TAUTO_COUNT>
3

> <PUBCHEM_CONFORMER_ID>
0012E55500000002

> <PUBCHEM_MMFF94_ENERGY>
58.7975

> <PUBCHEM_FEATURE_SELFOVERLAP>
35.593

> <PUBCHEM_SHAPE_FINGERPRINT>
10670039 82 18200885071185025836
107951 10 9942988709732603967
11370993 144 16226598573255577520
11552529 35 16878507955048811410
11578080 2 11669299966875834019
11595378 159 18336271244679186526
12633257 1 17987529267267069960
12655364 131 17462806984397975218
13224815 77 18342461417739273564
13583140 156 18113332033711725544
14142880 1 18131077043461679195
14468879 13 18268436728769390201
15021287 119 18113612384013431956
15475509 35 14569629289131786809
20600515 1 17986115343080942055
21623110 236 17842557632521143561
21860390 5 14822099767228686537
22956985 138 16393220072810454806
23419403 2 17055804278332142431
27216 239 18410296874257210617
341906 21 18130495419048249984
445580 44 18262231230712089964
460360 51 18337953394659799670
469060 322 18270408329164516587
58260988 587 12316414198055483075
9981440 41 18338224956482388019

> <PUBCHEM_SHAPE_MULTIPOLES>
496.39
10
3.34
2.45
16.82
0.44
0.9
3.55
2.96
-3.86
-0.67
-2
0.24
0.14

> <PUBCHEM_SHAPE_SELFOVERLAP>
1046.154

> <PUBCHEM_SHAPE_VOLUME>
282.5

> <PUBCHEM_COORDINATE_TYPE>
2
5
10

$$$$
