2868490
  -OEChem-01171809573D

 56 57  0     0  0  0  0  0  0999 V2000
    4.0475    1.2242   -0.0168 O   0  0  0  0  0  0  0  0  0  0  0  0
   -4.5554   -0.0272   -1.8595 O   0  0  0  0  0  0  0  0  0  0  0  0
   -5.6822    0.2671    0.6643 O   0  0  0  0  0  0  0  0  0  0  0  0
    4.4280   -1.5736   -0.2326 C   0  0  0  0  0  0  0  0  0  0  0  0
    1.6437    2.6941    0.2627 C   0  0  0  0  0  0  0  0  0  0  0  0
    3.0775   -0.9443   -0.0890 C   0  0  0  0  0  0  0  0  0  0  0  0
    1.6775    1.2015    0.1598 C   0  0  0  0  0  0  0  0  0  0  0  0
    3.0208    0.5506    0.0154 C   0  0  0  0  0  0  0  0  0  0  0  0
    5.2901   -1.2158    0.9888 C   0  0  0  0  0  0  0  0  0  0  0  0
    5.1133   -1.0562   -1.5088 C   0  0  0  0  0  0  0  0  0  0  0  0
    4.2856   -3.1025   -0.3251 C   0  0  0  0  0  0  0  0  0  0  0  0
    2.2613    3.3073   -1.0045 C   0  0  0  0  0  0  0  0  0  0  0  0
    2.4456    3.1523    1.4928 C   0  0  0  0  0  0  0  0  0  0  0  0
    0.1897    3.1761    0.4049 C   0  0  0  0  0  0  0  0  0  0  0  0
    1.9386   -1.6537   -0.0511 C   0  0  0  0  0  0  0  0  0  0  0  0
    0.5730    0.4392    0.1916 C   0  0  0  0  0  0  0  0  0  0  0  0
    0.6459   -1.0073    0.0893 C   0  0  0  0  0  0  0  0  0  0  0  0
   -0.4770   -1.7441    0.1242 C   0  0  0  0  0  0  0  0  0  0  0  0
   -1.8415   -1.2170    0.2619 C   0  0  0  0  0  0  0  0  0  0  0  0
   -2.5573   -0.8693   -0.8747 C   0  0  0  0  0  0  0  0  0  0  0  0
   -2.3933   -1.0741    1.5270 C   0  0  0  0  0  0  0  0  0  0  0  0
   -3.8524   -0.3679   -0.7434 C   0  0  0  0  0  0  0  0  0  0  0  0
   -3.6881   -0.5729    1.6584 C   0  0  0  0  0  0  0  0  0  0  0  0
   -4.4178   -0.2199    0.5232 C   0  0  0  0  0  0  0  0  0  0  0  0
   -4.4266    1.3159   -2.3217 C   0  0  0  0  0  0  0  0  0  0  0  0
   -6.7464   -0.6825    0.6629 C   0  0  0  0  0  0  0  0  0  0  0  0
    5.5986   -0.1676    1.0247 H   0  0  0  0  0  0  0  0  0  0  0  0
    6.2173   -1.8024    0.9855 H   0  0  0  0  0  0  0  0  0  0  0  0
    4.7692   -1.4447    1.9265 H   0  0  0  0  0  0  0  0  0  0  0  0
    6.0303   -1.6247   -1.7074 H   0  0  0  0  0  0  0  0  0  0  0  0
    4.4647   -1.1748   -2.3852 H   0  0  0  0  0  0  0  0  0  0  0  0
    5.4149   -0.0066   -1.4564 H   0  0  0  0  0  0  0  0  0  0  0  0
    3.7113   -3.4195   -1.2041 H   0  0  0  0  0  0  0  0  0  0  0  0
    3.8434   -3.5394    0.5785 H   0  0  0  0  0  0  0  0  0  0  0  0
    5.2751   -3.5668   -0.4293 H   0  0  0  0  0  0  0  0  0  0  0  0
    3.3432    3.1714   -1.0834 H   0  0  0  0  0  0  0  0  0  0  0  0
    2.0919    4.3911   -1.0247 H   0  0  0  0  0  0  0  0  0  0  0  0
    1.8040    2.8945   -1.9118 H   0  0  0  0  0  0  0  0  0  0  0  0
    2.2977    4.2253    1.6674 H   0  0  0  0  0  0  0  0  0  0  0  0
    2.1169    2.6301    2.3995 H   0  0  0  0  0  0  0  0  0  0  0  0
    3.5252    3.0085    1.3978 H   0  0  0  0  0  0  0  0  0  0  0  0
   -0.2913    2.8030    1.3173 H   0  0  0  0  0  0  0  0  0  0  0  0
   -0.4264    2.9213   -0.4661 H   0  0  0  0  0  0  0  0  0  0  0  0
    0.1630    4.2712    0.4791 H   0  0  0  0  0  0  0  0  0  0  0  0
    1.9073   -2.7346   -0.1213 H   0  0  0  0  0  0  0  0  0  0  0  0
   -0.4118    0.8720    0.2955 H   0  0  0  0  0  0  0  0  0  0  0  0
   -0.4311   -2.8292    0.0495 H   0  0  0  0  0  0  0  0  0  0  0  0
   -2.1222   -0.9837   -1.8648 H   0  0  0  0  0  0  0  0  0  0  0  0
   -1.8354   -1.3453    2.4194 H   0  0  0  0  0  0  0  0  0  0  0  0
   -4.1221   -0.4595    2.6481 H   0  0  0  0  0  0  0  0  0  0  0  0
   -5.0461    1.4316   -3.2153 H   0  0  0  0  0  0  0  0  0  0  0  0
   -3.3866    1.5325   -2.5858 H   0  0  0  0  0  0  0  0  0  0  0  0
   -4.7755    2.0205   -1.5602 H   0  0  0  0  0  0  0  0  0  0  0  0
   -6.7707   -1.2330   -0.2828 H   0  0  0  0  0  0  0  0  0  0  0  0
   -7.6892   -0.1405    0.7762 H   0  0  0  0  0  0  0  0  0  0  0  0
   -6.6399   -1.3788    1.5008 H   0  0  0  0  0  0  0  0  0  0  0  0
  1  8  2  0  0  0  0
  2 22  1  0  0  0  0
  2 25  1  0  0  0  0
  3 24  1  0  0  0  0
  3 26  1  0  0  0  0
  4  6  1  0  0  0  0
  4  9  1  0  0  0  0
  4 10  1  0  0  0  0
  4 11  1  0  0  0  0
  5  7  1  0  0  0  0
  5 12  1  0  0  0  0
  5 13  1  0  0  0  0
  5 14  1  0  0  0  0
  6  8  1  0  0  0  0
  6 15  2  0  0  0  0
  7  8  1  0  0  0  0
  7 16  2  0  0  0  0
  9 27  1  0  0  0  0
  9 28  1  0  0  0  0
  9 29  1  0  0  0  0
 10 30  1  0  0  0  0
 10 31  1  0  0  0  0
 10 32  1  0  0  0  0
 11 33  1  0  0  0  0
 11 34  1  0  0  0  0
 11 35  1  0  0  0  0
 12 36  1  0  0  0  0
 12 37  1  0  0  0  0
 12 38  1  0  0  0  0
 13 39  1  0  0  0  0
 13 40  1  0  0  0  0
 13 41  1  0  0  0  0
 14 42  1  0  0  0  0
 14 43  1  0  0  0  0
 14 44  1  0  0  0  0
 15 17  1  0  0  0  0
 15 45  1  0  0  0  0
 16 17  1  0  0  0  0
 16 46  1  0  0  0  0
 17 18  2  0  0  0  0
 18 19  1  0  0  0  0
 18 47  1  0  0  0  0
 19 20  2  0  0  0  0
 19 21  1  0  0  0  0
 20 22  1  0  0  0  0
 20 48  1  0  0  0  0
 21 23  2  0  0  0  0
 21 49  1  0  0  0  0
 22 24  2  0  0  0  0
 23 24  1  0  0  0  0
 23 50  1  0  0  0  0
 25 51  1  0  0  0  0
 25 52  1  0  0  0  0
 25 53  1  0  0  0  0
 26 54  1  0  0  0  0
 26 55  1  0  0  0  0
 26 56  1  0  0  0  0
M  END
> <PUBCHEM_COMPOUND_CID>
2868490

> <PUBCHEM_CONFORMER_RMSD>
0.8

> <PUBCHEM_CONFORMER_DIVERSEORDER>
1
4
2
3

> <PUBCHEM_MMFF94_PARTIAL_CHARGES>
25
1 -0.57
15 -0.15
16 -0.15
18 -0.18
19 0.03
2 -0.36
20 -0.15
21 -0.15
22 0.08
23 -0.15
24 0.08
25 0.28
26 0.28
3 -0.36
4 0.14
45 0.15
46 0.15
47 0.15
48 0.15
49 0.15
5 0.14
50 0.15
6 -0.12
7 -0.12
8 0.54

> <PUBCHEM_EFFECTIVE_ROTOR_COUNT>
5

> <PUBCHEM_PHARMACOPHORE_FEATURES>
7
1 1 acceptor
1 2 acceptor
1 3 acceptor
4 4 9 10 11 hydrophobe
4 5 12 13 14 hydrophobe
6 19 20 21 22 23 24 rings
6 6 7 8 15 16 17 rings

> <PUBCHEM_HEAVY_ATOM_COUNT>
26

> <PUBCHEM_ATOM_DEF_STEREO_COUNT>
0

> <PUBCHEM_ATOM_UDEF_STEREO_COUNT>
0

> <PUBCHEM_BOND_DEF_STEREO_COUNT>
0

> <PUBCHEM_BOND_UDEF_STEREO_COUNT>
0

> <PUBCHEM_ISOTOPIC_ATOM_COUNT>
0

> <PUBCHEM_COMPONENT_COUNT>
1

> <PUBCHEM_CACTVS_TAUTO_COUNT>
1

> <PUBCHEM_CONFORMER_ID>
002BC50A00000001

> <PUBCHEM_MMFF94_ENERGY>
110.1008

> <PUBCHEM_FEATURE_SELFOVERLAP>
35.526

> <PUBCHEM_SHAPE_FINGERPRINT>
10074138 170 15737656472464752419
10366900 7 17530966891240459891
10411042 1 18267591200391651290
10673678 19 17242760781896317412
10688039 33 18187650163199829620
10906281 52 18265339576834934952
11045977 3 18114753719742924435
11421498 54 13190331344988204092
11456790 92 18261118413977173969
11545043 162 17385724694881814155
11578080 2 14708926348661727484
12156800 1 17905578052775175320
12166972 35 18060422413048799131
12236239 1 17561085800312006547
12403259 415 18040711477051381935
12516196 113 18412827954346120858
12553582 1 18340779165276031678
12616971 3 17846500357381305407
12788726 201 18263926528120404698
13134695 92 18272369789109636960
13140716 1 18267583692456372498
13402501 40 18259981553097649789
13583140 156 18260834825513342067
13726171 33 16081646669193940317
13782708 43 17894918434084698243
13944108 23 17035261711791273621
14170010 4 18341896311342751459
14294032 229 16413258251730341659
14347329 18 16951674806005794861
14790565 3 17689439704105721016
15042514 8 17978796701686216826
15081414 286 18411138065140759420
15420108 30 17700114789726940632
15775530 1 17755596175849508754
17349148 13 17418379099015080223
17357779 13 18339357474812546988
17844677 252 16950573159425889838
17980427 23 17060334132445552040
1813 80 18129959874875261566
18222031 100 18202291264783916566
18335252 114 18341323398073025277
192875 21 18060426815210786537
20511986 3 17417796362183983234
21033648 144 18269547398553181805
21033648 29 17968084344464422413
21133410 90 17059484133413749449
21279426 13 18190457164676746021
21478907 32 18051416171851748618
21641784 216 18044680641124291660
21792961 116 18041006086133737230
22122407 14 18200615635233878561
221357 26 18335699421397003021
22182313 1 18264467564934475068
22224240 67 8358247108498315382
23175994 123 18335710403306846211
23536364 44 18046623404406891766
23559900 14 18342737459556026810
23569943 247 17627530245261462814
24771293 8 17988628741015288776
2838139 119 18271806762749215841
340366 18 18201721781568183671
46194498 28 17822297941163120221
474 4 18342462590339101211
5081480 168 18410302414401526493
508706 21 17749655330283854125
5104073 3 18338797939353150803
513532 50 17631744888568702948
57724786 102 18262245520485502269
6823239 73 17240766211283582821
7164475 11 18121506752762546766
7399639 24 17472142155201346778
7471813 234 17775563134926067408
7495541 125 18188219783200668291
9971528 1 18060139834497614418
9981440 41 17479441791634286208

> <PUBCHEM_SHAPE_MULTIPOLES>
517.46
12.95
3.38
1.49
11.54
3.04
0.42
-5.16
1.02
-4.67
-0.19
1.46
0.37
1.38

> <PUBCHEM_SHAPE_SELFOVERLAP>
1094.411

> <PUBCHEM_SHAPE_VOLUME>
293

> <PUBCHEM_COORDINATE_TYPE>
2
5
10

$$$$
