1507407
  -OEChem-01171809463D

 25 27  0     0  0  0  0  0  0999 V2000
    0.2615    3.4217    0.0014 Cl  0  0  0  0  0  0  0  0  0  0  0  0
   -4.5243    1.1933   -0.0021 F   0  0  0  0  0  0  0  0  0  0  0  0
   -4.6526   -1.5200    0.0008 F   0  0  0  0  0  0  0  0  0  0  0  0
    0.3718    0.6718    0.0001 N   0  0  0  0  0  0  0  0  0  0  0  0
    0.2046   -1.5721    0.0009 N   0  0  0  0  0  0  0  0  0  0  0  0
    3.7272   -2.8223   -0.0012 N   0  0  0  0  0  0  0  0  0  0  0  0
   -0.9877    0.3713   -0.0002 C   0  0  0  0  0  0  0  0  0  0  0  0
    1.0434   -0.5580    0.0003 C   0  0  0  0  0  0  0  0  0  0  0  0
   -1.0469   -1.0234    0.0007 C   0  0  0  0  0  0  0  0  0  0  0  0
    2.4772   -0.5580    0.0000 C   0  0  0  0  0  0  0  0  0  0  0  0
    1.0642    1.8941    0.0005 C   0  0  0  0  0  0  0  0  0  0  0  0
    3.1447    0.6197    0.0000 C   0  0  0  0  0  0  0  0  0  0  0  0
   -2.1595    1.1441   -0.0013 C   0  0  0  0  0  0  0  0  0  0  0  0
    2.4092    1.8822    0.0006 C   0  0  0  0  0  0  0  0  0  0  0  0
   -2.2921   -1.6782    0.0013 C   0  0  0  0  0  0  0  0  0  0  0  0
   -3.3910    0.4778   -0.0010 C   0  0  0  0  0  0  0  0  0  0  0  0
   -3.4590   -0.9119    0.0005 C   0  0  0  0  0  0  0  0  0  0  0  0
    4.6426    0.7743   -0.0008 C   0  0  0  0  0  0  0  0  0  0  0  0
    3.1666   -1.8066   -0.0006 C   0  0  0  0  0  0  0  0  0  0  0  0
   -2.1474    2.2262   -0.0024 H   0  0  0  0  0  0  0  0  0  0  0  0
    2.9838    2.8041    0.0010 H   0  0  0  0  0  0  0  0  0  0  0  0
   -2.3495   -2.7623    0.0022 H   0  0  0  0  0  0  0  0  0  0  0  0
    5.1777   -0.1793   -0.0014 H   0  0  0  0  0  0  0  0  0  0  0  0
    4.9685    1.3270    0.8876 H   0  0  0  0  0  0  0  0  0  0  0  0
    4.9675    1.3276   -0.8891 H   0  0  0  0  0  0  0  0  0  0  0  0
  1 11  1  0  0  0  0
  2 16  1  0  0  0  0
  3 17  1  0  0  0  0
  4  7  1  0  0  0  0
  4  8  1  0  0  0  0
  4 11  1  0  0  0  0
  5  8  2  0  0  0  0
  5  9  1  0  0  0  0
  6 19  3  0  0  0  0
  7  9  1  0  0  0  0
  7 13  2  0  0  0  0
  8 10  1  0  0  0  0
  9 15  2  0  0  0  0
 10 12  2  0  0  0  0
 10 19  1  0  0  0  0
 11 14  2  0  0  0  0
 12 14  1  0  0  0  0
 12 18  1  0  0  0  0
 13 16  1  0  0  0  0
 13 20  1  0  0  0  0
 14 21  1  0  0  0  0
 15 17  1  0  0  0  0
 15 22  1  0  0  0  0
 16 17  2  0  0  0  0
 18 23  1  0  0  0  0
 18 24  1  0  0  0  0
 18 25  1  0  0  0  0
M  END
> <PUBCHEM_COMPOUND_CID>
1507407

> <PUBCHEM_CONFORMER_RMSD>
0.4

> <PUBCHEM_CONFORMER_DIVERSEORDER>
1

> <PUBCHEM_MMFF94_PARTIAL_CHARGES>
22
1 -0.14
10 0.11
11 0.11
12 -0.14
13 -0.15
14 -0.15
15 -0.15
16 0.19
17 0.19
18 0.14
19 0.49
2 -0.19
20 0.15
21 0.15
22 0.15
3 -0.19
4 0.33
5 -0.57
6 -0.56
7 -0.15
8 0.14
9 0.23

> <PUBCHEM_EFFECTIVE_ROTOR_COUNT>
0

> <PUBCHEM_PHARMACOPHORE_FEATURES>
5
1 6 acceptor
3 4 5 8 cation
5 4 5 7 8 9 rings
6 4 8 10 11 12 14 rings
6 7 9 13 15 16 17 rings

> <PUBCHEM_HEAVY_ATOM_COUNT>
19

> <PUBCHEM_ATOM_DEF_STEREO_COUNT>
0

> <PUBCHEM_ATOM_UDEF_STEREO_COUNT>
0

> <PUBCHEM_BOND_DEF_STEREO_COUNT>
0

> <PUBCHEM_BOND_UDEF_STEREO_COUNT>
0

> <PUBCHEM_ISOTOPIC_ATOM_COUNT>
0

> <PUBCHEM_COMPONENT_COUNT>
1

> <PUBCHEM_CACTVS_TAUTO_COUNT>
1

> <PUBCHEM_CONFORMER_ID>
0017004F00000001

> <PUBCHEM_MMFF94_ENERGY>
38.846

> <PUBCHEM_FEATURE_SELFOVERLAP>
25.582

> <PUBCHEM_SHAPE_FINGERPRINT>
10608611 8 18337669827648718253
10616163 171 18268994365400393031
10967382 1 18338799030073856838
1100329 8 16464452362642342186
11471102 20 18410569565635384958
11578080 2 17169813502431029684
116883 192 18125726686446680998
12032990 46 18410577245042496622
12403259 226 18408036321463959933
13140716 1 18339925887832279330
138480 1 18338797926394654824
14178342 30 17982429792751934082
14866123 147 17476081220095725418
15042514 8 17545034902052711730
15196674 1 18410855443122534823
15442244 35 18340207392773514560
15536298 74 18341894078371369722
16945 1 18122625212857130436
17492 89 18411699919746073671
1813 80 17458344109581374046
18186145 218 17749385940738439207
19591789 44 18337390439941671947
200 152 18059572533589153023
20559304 39 18338236084584435256
20645477 70 18412543180481222558
21267235 1 18338807813250569014
21421861 104 17969493815307730546
21501502 16 18411702114494506039
221490 88 18335709389647143675
2255824 54 18120374517193379988
2334 1 18410855477550741038
23402539 116 18271800241859472452
23463225 33 18411138026216489262
23558518 356 18118411631540319032
23559900 14 18340484474531769074
2748010 2 18411413999398200540
335352 9 18194683670510597885
34934 24 18412257355108173094
350125 39 18337959020971816681
5104073 3 18411419492698445603
54173680 148 17978509733198382024
7364860 26 18196090173310509608
7832392 63 18341046419014261868
9709674 26 18336550516021572539
9981440 41 17545313541739272809

> <PUBCHEM_SHAPE_MULTIPOLES>
363.39
7.89
2.95
0.59
2.56
0.92
0
-2.18
0
-1.47
0
-0.04
0.03
0

> <PUBCHEM_SHAPE_SELFOVERLAP>
804.929

> <PUBCHEM_SHAPE_VOLUME>
196.3

> <PUBCHEM_COORDINATE_TYPE>
2
5
10

$$$$
