2745313
  -OEChem-01171809553D

 44 46  0     0  0  0  0  0  0999 V2000
   -1.2749    3.8046   -0.0266 S   0  0  0  0  0  0  0  0  0  0  0  0
    3.1645    2.3610    0.0626 O   0  0  0  0  0  0  0  0  0  0  0  0
    3.9330   -2.0431   -0.0369 O   0  0  0  0  0  0  0  0  0  0  0  0
    5.8741   -0.8249    0.0518 O   0  0  0  0  0  0  0  0  0  0  0  0
   -2.7950    1.6244   -0.1309 N   0  0  0  0  0  0  0  0  0  0  0  0
   -0.4467    1.3561   -0.0689 N   0  0  0  0  0  0  0  0  0  0  0  0
    4.2671    1.5152    0.0710 N   0  0  0  0  0  0  0  0  0  0  0  0
   -3.2617    0.2920   -0.0495 C   0  0  0  0  0  0  0  0  0  0  0  0
   -3.5360   -0.4233   -1.2152 C   0  0  0  0  0  0  0  0  0  0  0  0
   -3.4482   -0.3068    1.1964 C   0  0  0  0  0  0  0  0  0  0  0  0
   -4.1829   -2.3364    0.1109 C   0  0  0  0  0  0  0  0  0  0  0  0
   -3.9966   -1.7375   -1.1349 C   0  0  0  0  0  0  0  0  0  0  0  0
   -3.9088   -1.6210    1.2766 C   0  0  0  0  0  0  0  0  0  0  0  0
   -3.3457    0.1917   -2.5638 C   0  0  0  0  0  0  0  0  0  0  0  0
   -3.1636    0.4346    2.4623 C   0  0  0  0  0  0  0  0  0  0  0  0
   -1.5190    2.1101   -0.0800 C   0  0  0  0  0  0  0  0  0  0  0  0
   -4.6751   -3.7418    0.1968 C   0  0  0  0  0  0  0  0  0  0  0  0
    0.6660    2.1727   -0.0138 C   0  0  0  0  0  0  0  0  0  0  0  0
    2.0314    1.6169    0.0105 C   0  0  0  0  0  0  0  0  0  0  0  0
    0.4173    3.5289    0.0158 C   0  0  0  0  0  0  0  0  0  0  0  0
    2.3516    0.2863   -0.0162 C   0  0  0  0  0  0  0  0  0  0  0  0
    3.7567    0.2814    0.0233 C   0  0  0  0  0  0  0  0  0  0  0  0
    4.6310   -0.8551    0.0157 C   0  0  0  0  0  0  0  0  0  0  0  0
    4.7019   -3.2514   -0.0487 C   0  0  0  0  0  0  0  0  0  0  0  0
    3.7597   -4.4348   -0.1082 C   0  0  0  0  0  0  0  0  0  0  0  0
   -4.2092   -2.3003   -2.0408 H   0  0  0  0  0  0  0  0  0  0  0  0
   -4.0527   -2.0933    2.2455 H   0  0  0  0  0  0  0  0  0  0  0  0
   -3.5570    2.2957   -0.1866 H   0  0  0  0  0  0  0  0  0  0  0  0
   -3.9262    1.1162   -2.6512 H   0  0  0  0  0  0  0  0  0  0  0  0
   -2.2870    0.4109   -2.7372 H   0  0  0  0  0  0  0  0  0  0  0  0
   -3.6789   -0.4746   -3.3670 H   0  0  0  0  0  0  0  0  0  0  0  0
   -2.0872    0.5993    2.5744 H   0  0  0  0  0  0  0  0  0  0  0  0
   -3.6821    1.3992    2.4735 H   0  0  0  0  0  0  0  0  0  0  0  0
   -3.5061   -0.1198    3.3430 H   0  0  0  0  0  0  0  0  0  0  0  0
   -5.2627   -3.9000    1.1075 H   0  0  0  0  0  0  0  0  0  0  0  0
   -5.3260   -3.9852   -0.6499 H   0  0  0  0  0  0  0  0  0  0  0  0
   -3.8292   -4.4363    0.1999 H   0  0  0  0  0  0  0  0  0  0  0  0
    1.1171    4.3522    0.0588 H   0  0  0  0  0  0  0  0  0  0  0  0
    1.6725   -0.5536   -0.0585 H   0  0  0  0  0  0  0  0  0  0  0  0
    5.3591   -3.2553   -0.9251 H   0  0  0  0  0  0  0  0  0  0  0  0
    5.3084   -3.3049    0.8620 H   0  0  0  0  0  0  0  0  0  0  0  0
    4.3149   -5.3768   -0.1185 H   0  0  0  0  0  0  0  0  0  0  0  0
    3.0832   -4.4322    0.7529 H   0  0  0  0  0  0  0  0  0  0  0  0
    3.1330   -4.3835   -1.0047 H   0  0  0  0  0  0  0  0  0  0  0  0
  1 16  1  0  0  0  0
  1 20  1  0  0  0  0
  2  7  1  0  0  0  0
  2 19  1  0  0  0  0
  3 23  1  0  0  0  0
  3 24  1  0  0  0  0
  4 23  2  0  0  0  0
  5  8  1  0  0  0  0
  5 16  1  0  0  0  0
  5 28  1  0  0  0  0
  6 16  2  0  0  0  0
  6 18  1  0  0  0  0
  7 22  2  0  0  0  0
  8  9  2  0  0  0  0
  8 10  1  0  0  0  0
  9 12  1  0  0  0  0
  9 14  1  0  0  0  0
 10 13  2  0  0  0  0
 10 15  1  0  0  0  0
 11 12  2  0  0  0  0
 11 13  1  0  0  0  0
 11 17  1  0  0  0  0
 12 26  1  0  0  0  0
 13 27  1  0  0  0  0
 14 29  1  0  0  0  0
 14 30  1  0  0  0  0
 14 31  1  0  0  0  0
 15 32  1  0  0  0  0
 15 33  1  0  0  0  0
 15 34  1  0  0  0  0
 17 35  1  0  0  0  0
 17 36  1  0  0  0  0
 17 37  1  0  0  0  0
 18 19  1  0  0  0  0
 18 20  2  0  0  0  0
 19 21  2  0  0  0  0
 20 38  1  0  0  0  0
 21 22  1  0  0  0  0
 21 39  1  0  0  0  0
 22 23  1  0  0  0  0
 24 25  1  0  0  0  0
 24 40  1  0  0  0  0
 24 41  1  0  0  0  0
 25 42  1  0  0  0  0
 25 43  1  0  0  0  0
 25 44  1  0  0  0  0
M  END
> <PUBCHEM_COMPOUND_CID>
2745313

> <PUBCHEM_CONFORMER_RMSD>
0.8

> <PUBCHEM_CONFORMER_DIVERSEORDER>
1
58
64
14
21
70
55
75
22
10
41
60
18
15
56
62
31
71
83
35
78
39
54
59
52
37
23
72
34
7
13
66
68
50
74
53
32
24
17
20
69
11
57
36
30
73
45
5
28
25
67
29
16
48
27
47
3
40
33
43
80
51
46
12
63
61
44
2
79
26
77
4
6
84
81
8
65
19
49
9
76
38
82
42

> <PUBCHEM_MMFF94_PARTIAL_CHARGES>
29
1 -0.08
10 -0.14
11 -0.14
12 -0.15
13 -0.15
14 0.14
15 0.14
16 0.46
17 0.14
18 0.23
19 0.14
2 -0.02
20 -0.11
21 -0.15
22 0.2
23 0.81
24 0.28
26 0.15
27 0.15
28 0.4
3 -0.43
38 0.15
39 0.15
4 -0.57
5 -0.58
6 -0.57
7 -0.41
8 0.1
9 -0.14

> <PUBCHEM_EFFECTIVE_ROTOR_COUNT>
6

> <PUBCHEM_PHARMACOPHORE_FEATURES>
7
1 4 acceptor
1 5 donor
1 7 acceptor
3 5 6 16 cation
5 1 6 16 18 20 rings
5 2 7 19 21 22 rings
6 8 9 10 11 12 13 rings

> <PUBCHEM_HEAVY_ATOM_COUNT>
25

> <PUBCHEM_ATOM_DEF_STEREO_COUNT>
0

> <PUBCHEM_ATOM_UDEF_STEREO_COUNT>
0

> <PUBCHEM_BOND_DEF_STEREO_COUNT>
0

> <PUBCHEM_BOND_UDEF_STEREO_COUNT>
0

> <PUBCHEM_ISOTOPIC_ATOM_COUNT>
0

> <PUBCHEM_COMPONENT_COUNT>
1

> <PUBCHEM_CACTVS_TAUTO_COUNT>
2

> <PUBCHEM_CONFORMER_ID>
0029E3E100000001

> <PUBCHEM_MMFF94_ENERGY>
56.1946

> <PUBCHEM_FEATURE_SELFOVERLAP>
35.524

> <PUBCHEM_SHAPE_FINGERPRINT>
10254770 206 16964058416412526530
10622 236 17629738305491293751
10928967 22 18342749549730768206
11136131 41 18334003979448567338
11186622 123 18189050902691506034
12107183 9 18341349842234094609
12174731 88 17541371350483553946
12633257 1 15194732362606286689
13103583 49 18059313009942801649
13544653 18 18408887368780390892
13911987 19 17033896624966273461
14866123 147 18196373624589368121
14950920 106 17132111347024071730
15352361 1 18409729594602247505
15475509 35 17049930803481945307
16628084 112 17541370246824034533
16994733 274 14116123331960004785
17492 89 18410572856123944846
17780758 139 17775008972422856297
19315092 285 17130399471691243347
21033650 10 16878489168835770653
21315759 227 18334283258868359582
21864079 5 9078849471331646789
221490 88 18410012118210816096
22393880 68 17822275895005850849
23379529 103 18124040027315598126
235170 7 17095240354115724308
23559900 14 18337100194884959688
24893989 43 16763399180567704351
27216 239 11023834998251342925
2838139 119 8502367815954857850
314194 84 18268711799554262317
3246872 21 18125435560568615462
325973 47 17691124834002184294
3552219 110 12036034343642334461
3737641 26 18340498811042601094
46194498 28 17243571185852810453
463206 1 17905046959126755330
484985 159 18408601427585590917
5309563 4 18339926012265427182
5365585 94 18261118443345884834
56633871 153 18339936939310795739
613672 6 18266435724521856672
6431902 208 18410008815275366534
7970288 3 18339360880685059563
9709674 26 18265332816076440736

> <PUBCHEM_SHAPE_MULTIPOLES>
485.79
12.26
5.29
1.39
9.8
2.11
0.07
12.46
-0.06
2.01
-0.01
-2.59
0.08
0.27

> <PUBCHEM_SHAPE_SELFOVERLAP>
1028.81

> <PUBCHEM_SHAPE_VOLUME>
276.2

> <PUBCHEM_COORDINATE_TYPE>
2
5
10

$$$$
