1097565
  -OEChem-01171809413D

 33 34  0     0  0  0  0  0  0999 V2000
   -3.4813    4.2121   -1.2926 Cl  0  0  0  0  0  0  0  0  0  0  0  0
   -1.7892   -4.0979   -0.7539 Cl  0  0  0  0  0  0  0  0  0  0  0  0
    0.8872   -3.5477   -1.7321 Cl  0  0  0  0  0  0  0  0  0  0  0  0
   -1.6915   -1.3303    0.9929 S   0  0  0  0  0  0  0  0  0  0  0  0
   -2.8802   -2.1456    0.8236 O   0  0  0  0  0  0  0  0  0  0  0  0
   -1.1579   -1.1075    2.3246 O   0  0  0  0  0  0  0  0  0  0  0  0
    1.0527    0.0109    1.8746 O   0  0  0  0  0  0  0  0  0  0  0  0
    0.7993   -1.0817   -0.1832 N   0  0  0  0  0  0  0  0  0  0  0  0
   -2.2000    0.2443    0.3438 C   0  0  0  0  0  0  0  0  0  0  0  0
   -0.3618   -1.8378   -0.0502 C   0  0  0  0  0  0  0  0  0  0  0  0
   -3.1758    0.2792   -0.6305 C   0  0  0  0  0  0  0  0  0  0  0  0
   -1.6053    1.3893    0.8315 C   0  0  0  0  0  0  0  0  0  0  0  0
    2.6924    0.3551    0.2597 C   0  0  0  0  0  0  0  0  0  0  0  0
    1.4160   -0.2420    0.7318 C   0  0  0  0  0  0  0  0  0  0  0  0
   -3.5751    1.5148   -1.1399 C   0  0  0  0  0  0  0  0  0  0  0  0
   -2.0044    2.6250    0.3221 C   0  0  0  0  0  0  0  0  0  0  0  0
   -2.9893    2.6877   -0.6638 C   0  0  0  0  0  0  0  0  0  0  0  0
   -0.4561   -2.9920   -0.7517 C   0  0  0  0  0  0  0  0  0  0  0  0
    3.0940    1.5678    0.7799 C   0  0  0  0  0  0  0  0  0  0  0  0
    3.4354   -0.3242   -0.6831 C   0  0  0  0  0  0  0  0  0  0  0  0
    4.2931    2.1263    0.3374 C   0  0  0  0  0  0  0  0  0  0  0  0
    4.6346    0.2345   -1.1256 C   0  0  0  0  0  0  0  0  0  0  0  0
    5.0633    1.4597   -0.6153 C   0  0  0  0  0  0  0  0  0  0  0  0
   -3.6362   -0.6212   -1.0245 H   0  0  0  0  0  0  0  0  0  0  0  0
   -0.8681    1.3796    1.6226 H   0  0  0  0  0  0  0  0  0  0  0  0
    1.2902   -1.2908   -1.0465 H   0  0  0  0  0  0  0  0  0  0  0  0
   -4.3417    1.5484   -1.9099 H   0  0  0  0  0  0  0  0  0  0  0  0
   -1.5453    3.5314    0.7084 H   0  0  0  0  0  0  0  0  0  0  0  0
    2.5027    2.1021    1.5176 H   0  0  0  0  0  0  0  0  0  0  0  0
    3.1814   -1.3033   -1.0722 H   0  0  0  0  0  0  0  0  0  0  0  0
    4.6267    3.0809    0.7340 H   0  0  0  0  0  0  0  0  0  0  0  0
    5.2415   -0.2901   -1.8580 H   0  0  0  0  0  0  0  0  0  0  0  0
    5.9983    1.8934   -0.9578 H   0  0  0  0  0  0  0  0  0  0  0  0
  1 17  1  0  0  0  0
  2 18  1  0  0  0  0
  3 18  1  0  0  0  0
  4  5  2  0  0  0  0
  4  6  2  0  0  0  0
  4  9  1  0  0  0  0
  4 10  1  0  0  0  0
  7 14  2  0  0  0  0
  8 10  1  0  0  0  0
  8 14  1  0  0  0  0
  8 26  1  0  0  0  0
  9 11  2  0  0  0  0
  9 12  1  0  0  0  0
 10 18  2  0  0  0  0
 11 15  1  0  0  0  0
 11 24  1  0  0  0  0
 12 16  2  0  0  0  0
 12 25  1  0  0  0  0
 13 14  1  0  0  0  0
 13 19  2  0  0  0  0
 13 20  1  0  0  0  0
 15 17  2  0  0  0  0
 15 27  1  0  0  0  0
 16 17  1  0  0  0  0
 16 28  1  0  0  0  0
 19 21  1  0  0  0  0
 19 29  1  0  0  0  0
 20 22  2  0  0  0  0
 20 30  1  0  0  0  0
 21 23  2  0  0  0  0
 21 31  1  0  0  0  0
 22 23  1  0  0  0  0
 22 32  1  0  0  0  0
 23 33  1  0  0  0  0
M  END
> <PUBCHEM_COMPOUND_CID>
1097565

> <PUBCHEM_CONFORMER_RMSD>
0.8

> <PUBCHEM_CONFORMER_DIVERSEORDER>
1
17
10
5
8
14
12
6
2
11
16
9
4
15
7
3
13

> <PUBCHEM_MMFF94_PARTIAL_CHARGES>
33
1 -0.18
10 0.09
11 -0.15
12 -0.15
13 0.09
14 0.54
15 -0.15
16 -0.15
17 0.18
18 0.28
19 -0.15
2 -0.14
20 -0.15
21 -0.15
22 -0.15
23 -0.15
24 0.15
25 0.15
26 0.37
27 0.15
28 0.15
29 0.15
3 -0.14
30 0.15
31 0.15
32 0.15
33 0.15
4 1.33
5 -0.65
6 -0.65
7 -0.57
8 -0.54
9 -0.01

> <PUBCHEM_EFFECTIVE_ROTOR_COUNT>
5

> <PUBCHEM_PHARMACOPHORE_FEATURES>
6
1 5 acceptor
1 6 acceptor
1 7 acceptor
1 8 donor
6 13 19 20 21 22 23 rings
6 9 11 12 15 16 17 rings

> <PUBCHEM_HEAVY_ATOM_COUNT>
23

> <PUBCHEM_ATOM_DEF_STEREO_COUNT>
0

> <PUBCHEM_ATOM_UDEF_STEREO_COUNT>
0

> <PUBCHEM_BOND_DEF_STEREO_COUNT>
0

> <PUBCHEM_BOND_UDEF_STEREO_COUNT>
0

> <PUBCHEM_ISOTOPIC_ATOM_COUNT>
0

> <PUBCHEM_COMPONENT_COUNT>
1

> <PUBCHEM_CACTVS_TAUTO_COUNT>
2

> <PUBCHEM_CONFORMER_ID>
0010BF5D00000001

> <PUBCHEM_MMFF94_ENERGY>
66.4518

> <PUBCHEM_FEATURE_SELFOVERLAP>
30.483

> <PUBCHEM_SHAPE_FINGERPRINT>
10165383 225 18129119912294564667
10498660 4 18408035221446183140
11045515 52 17762330718702404311
11221954 11 18190463761941827601
11370993 70 18341330011694718860
11477941 20 17976832209320567444
11640471 11 17385997334799703689
11833330 49 17978500167868630367
12173636 292 18409724071263742781
12788726 201 18116418427022519707
13134695 92 16235881543833984891
14251751 93 18411985801596126170
14468879 13 18335708225594741043
15163728 17 18189907400326132325
15463212 79 18263074560974213874
15961568 22 17472972282750508280
16988056 13 17038932950444809324
17357779 13 17627212800059267631
17492 54 18190717882852066247
17980427 23 17471245658403910873
1813 80 17476634751175752114
20775438 99 16908860076454203135
21524375 3 18189045404615746115
21860390 5 17620743990652643342
22907989 373 18340208616881554669
23419403 2 17472467224323030131
23557571 272 18125725831774543166
23559900 14 17693638335141924589
238 59 18058444301082760247
26353 1 17192887079550698198
4028521 119 18407758148979632552
474 4 17974843965705615537
531348 171 18409735084541090670
81228 2 17695901516086779130
9981440 41 18337665326269629139

> <PUBCHEM_SHAPE_MULTIPOLES>
460.2
8.17
5.03
1.54
8.08
2.18
-0.32
-8.23
2.6
-4.47
2.43
-0.28
0.34
1.73

> <PUBCHEM_SHAPE_SELFOVERLAP>
945.362

> <PUBCHEM_SHAPE_VOLUME>
265.2

> <PUBCHEM_COORDINATE_TYPE>
2
5
10

$$$$
