6378950
  -OEChem-01171809353D

 49 52  0     0  0  0  0  0  0999 V2000
   -4.2256    0.2439    0.9089 O   0  0  0  0  0  0  0  0  0  0  0  0
   -0.9674   -3.0956   -0.9775 O   0  0  0  0  0  0  0  0  0  0  0  0
   -1.4704    0.0406    0.6778 N   0  0  0  0  0  0  0  0  0  0  0  0
   -2.2927   -0.4520   -2.8408 N   0  0  0  0  0  0  0  0  0  0  0  0
   -1.2668    3.8847   -2.2802 N   0  0  0  0  0  0  0  0  0  0  0  0
   -1.8421   -1.1302    0.0575 C   0  0  0  0  0  0  0  0  0  0  0  0
    0.6627   -1.5458   -0.3171 C   0  0  0  0  0  0  0  0  0  0  0  0
   -0.7397   -2.0073   -0.4574 C   0  0  0  0  0  0  0  0  0  0  0  0
    3.2738   -0.6876   -0.0560 C   0  0  0  0  0  0  0  0  0  0  0  0
   -1.3501    1.2850   -0.0106 C   0  0  0  0  0  0  0  0  0  0  0  0
    1.3659   -1.8808    0.8229 C   0  0  0  0  0  0  0  0  0  0  0  0
    1.2243   -0.7951   -1.3306 C   0  0  0  0  0  0  0  0  0  0  0  0
    4.6425   -0.2382    0.0804 C   0  0  0  0  0  0  0  0  0  0  0  0
    2.6851   -1.4471    0.9549 C   0  0  0  0  0  0  0  0  0  0  0  0
    2.5435   -0.3616   -1.1988 C   0  0  0  0  0  0  0  0  0  0  0  0
   -3.0789   -1.6340   -0.1152 C   0  0  0  0  0  0  0  0  0  0  0  0
   -1.1941    0.0188    2.0536 C   0  0  0  0  0  0  0  0  0  0  0  0
   -0.9410    2.4548    0.7906 C   0  0  0  0  0  0  0  0  0  0  0  0
   -4.2681   -0.9702    0.3186 C   0  0  0  0  0  0  0  0  0  0  0  0
   -0.8225    1.0866    2.7746 C   0  0  0  0  0  0  0  0  0  0  0  0
   -0.6925    2.3570    2.1064 C   0  0  0  0  0  0  0  0  0  0  0  0
    4.9166    0.9900    0.6820 C   0  0  0  0  0  0  0  0  0  0  0  0
    5.6876   -1.0334   -0.3895 C   0  0  0  0  0  0  0  0  0  0  0  0
   -1.5716    1.5070   -1.3219 C   0  0  0  0  0  0  0  0  0  0  0  0
   -5.5492   -1.4318    0.2080 C   0  0  0  0  0  0  0  0  0  0  0  0
    6.2360    1.4232    0.8137 C   0  0  0  0  0  0  0  0  0  0  0  0
    7.0069   -0.6003   -0.2578 C   0  0  0  0  0  0  0  0  0  0  0  0
    7.2811    0.6279    0.3438 C   0  0  0  0  0  0  0  0  0  0  0  0
   -6.3672   -0.4251    0.7741 C   0  0  0  0  0  0  0  0  0  0  0  0
   -5.5148    0.5729    1.1856 C   0  0  0  0  0  0  0  0  0  0  0  0
   -1.9686    0.4260   -2.1546 C   0  0  0  0  0  0  0  0  0  0  0  0
   -1.4027    2.8174   -1.8454 C   0  0  0  0  0  0  0  0  0  0  0  0
    0.9146   -2.4751    1.6120 H   0  0  0  0  0  0  0  0  0  0  0  0
    0.6778   -0.5545   -2.2356 H   0  0  0  0  0  0  0  0  0  0  0  0
    3.2402   -1.7106    1.8521 H   0  0  0  0  0  0  0  0  0  0  0  0
    2.9888    0.2256   -1.9985 H   0  0  0  0  0  0  0  0  0  0  0  0
   -3.2327   -2.5914   -0.6067 H   0  0  0  0  0  0  0  0  0  0  0  0
   -1.3073   -0.9537    2.5232 H   0  0  0  0  0  0  0  0  0  0  0  0
   -0.8207    3.4433    0.3630 H   0  0  0  0  0  0  0  0  0  0  0  0
   -0.6212    1.0203    3.8365 H   0  0  0  0  0  0  0  0  0  0  0  0
   -0.3920    3.2196    2.6900 H   0  0  0  0  0  0  0  0  0  0  0  0
    4.1135    1.6222    1.0537 H   0  0  0  0  0  0  0  0  0  0  0  0
    5.4915   -1.9936   -0.8610 H   0  0  0  0  0  0  0  0  0  0  0  0
   -5.8720   -2.3696   -0.2224 H   0  0  0  0  0  0  0  0  0  0  0  0
    6.4496    2.3795    1.2821 H   0  0  0  0  0  0  0  0  0  0  0  0
    7.8209   -1.2194   -0.6235 H   0  0  0  0  0  0  0  0  0  0  0  0
    8.3084    0.9651    0.4463 H   0  0  0  0  0  0  0  0  0  0  0  0
   -7.4433   -0.4265    0.8699 H   0  0  0  0  0  0  0  0  0  0  0  0
   -5.6596    1.5293    1.6663 H   0  0  0  0  0  0  0  0  0  0  0  0
  1 19  1  0  0  0  0
  1 30  1  0  0  0  0
  2  8  2  0  0  0  0
  3  6  1  0  0  0  0
  3 10  1  0  0  0  0
  3 17  1  0  0  0  0
  4 31  3  0  0  0  0
  5 32  3  0  0  0  0
  6  8  1  0  0  0  0
  6 16  2  0  0  0  0
  7  8  1  0  0  0  0
  7 11  2  0  0  0  0
  7 12  1  0  0  0  0
  9 13  1  0  0  0  0
  9 14  2  0  0  0  0
  9 15  1  0  0  0  0
 10 18  1  0  0  0  0
 10 24  2  0  0  0  0
 11 14  1  0  0  0  0
 11 33  1  0  0  0  0
 12 15  2  0  0  0  0
 12 34  1  0  0  0  0
 13 22  2  0  0  0  0
 13 23  1  0  0  0  0
 14 35  1  0  0  0  0
 15 36  1  0  0  0  0
 16 19  1  0  0  0  0
 16 37  1  0  0  0  0
 17 20  2  0  0  0  0
 17 38  1  0  0  0  0
 18 21  2  0  0  0  0
 18 39  1  0  0  0  0
 19 25  2  0  0  0  0
 20 21  1  0  0  0  0
 20 40  1  0  0  0  0
 21 41  1  0  0  0  0
 22 26  1  0  0  0  0
 22 42  1  0  0  0  0
 23 27  2  0  0  0  0
 23 43  1  0  0  0  0
 24 31  1  0  0  0  0
 24 32  1  0  0  0  0
 25 29  1  0  0  0  0
 25 44  1  0  0  0  0
 26 28  2  0  0  0  0
 26 45  1  0  0  0  0
 27 28  1  0  0  0  0
 27 46  1  0  0  0  0
 28 47  1  0  0  0  0
 29 30  2  0  0  0  0
 29 48  1  0  0  0  0
 30 49  1  0  0  0  0
M  END
> <PUBCHEM_COMPOUND_CID>
6378950

> <PUBCHEM_CONFORMER_RMSD>
0.8

> <PUBCHEM_CONFORMER_DIVERSEORDER>
1
6
18
24
12
8
20
23
14
17
11
9
25
15
10
19
13
4
3
16
22
7
21
2
5

> <PUBCHEM_MMFF94_PARTIAL_CHARGES>
47
1 -0.28
10 0.1
11 -0.15
12 -0.15
14 -0.15
15 -0.15
16 -0.11
17 -0.05
18 -0.15
19 0.09
2 -0.57
20 -0.15
21 -0.15
22 -0.15
23 -0.15
24 0.13
25 -0.15
26 -0.15
27 -0.15
28 -0.15
29 -0.15
3 -0.3
30 -0.01
31 0.49
32 0.49
33 0.15
34 0.15
35 0.15
36 0.15
37 0.15
38 0.15
39 0.15
4 -0.56
40 0.15
41 0.15
42 0.15
43 0.15
44 0.15
45 0.15
46 0.15
47 0.15
48 0.15
49 0.15
5 -0.56
6 0.11
7 0.09
8 0.47

> <PUBCHEM_EFFECTIVE_ROTOR_COUNT>
5.2

> <PUBCHEM_PHARMACOPHORE_FEATURES>
9
1 1 acceptor
1 2 acceptor
1 3 cation
1 4 acceptor
1 5 acceptor
5 1 19 25 29 30 rings
6 13 22 23 26 27 28 rings
6 3 10 17 18 20 21 rings
6 7 9 11 12 14 15 rings

> <PUBCHEM_HEAVY_ATOM_COUNT>
32

> <PUBCHEM_ATOM_DEF_STEREO_COUNT>
0

> <PUBCHEM_ATOM_UDEF_STEREO_COUNT>
0

> <PUBCHEM_BOND_DEF_STEREO_COUNT>
1

> <PUBCHEM_BOND_UDEF_STEREO_COUNT>
0

> <PUBCHEM_ISOTOPIC_ATOM_COUNT>
0

> <PUBCHEM_COMPONENT_COUNT>
1

> <PUBCHEM_CACTVS_TAUTO_COUNT>
1

> <PUBCHEM_CONFORMER_ID>
006155C600000001

> <PUBCHEM_MMFF94_ENERGY>
117.3502

> <PUBCHEM_FEATURE_SELFOVERLAP>
45.674

> <PUBCHEM_SHAPE_FINGERPRINT>
10290309 65 18337947887968712414
10930396 42 18189599700658901288
11135609 99 17915174853363626439
11578080 2 18192708939322514313
12011746 2 11600009838460003483
12107698 1 17458062681570163980
12166972 35 18261115184251690492
12664476 115 18343300388952463680
12788726 201 17417816088805328722
13533116 47 18040995099454543970
14415361 192 18115567319424222272
14674994 50 14852189358584017016
14840074 17 18334300898087638220
15219462 58 17171259325197899611
15840311 113 17914639184883629065
15849732 13 16415478272954401671
18336668 15 18341899640670334489
19319366 153 15051740746559595196
20600515 1 18340220686056265239
25019877 29 17846506958192763191
3383291 50 11241968196248826176
460360 51 18119811314417377366
469060 322 18186813464746954024
497634 4 18201165364708061360
57527306 92 16773799186265821169
57527585 21 17344616037841395449
58260988 393 17458341901567646625
59755656 520 18272086110757149262

> <PUBCHEM_SHAPE_MULTIPOLES>
631.86
14.1
2.85
2.14
17.75
1.56
-0.48
-1.24
3.2
-1.33
-0.91
-1.72
1.43
0.64

> <PUBCHEM_SHAPE_SELFOVERLAP>
1407.376

> <PUBCHEM_SHAPE_VOLUME>
330.5

> <PUBCHEM_COORDINATE_TYPE>
2
5
10

$$$$
