3132120
  -OEChem-01171809283D

 46 48  0     0  0  0  0  0  0999 V2000
    5.7590   -1.3237    0.0233 Br  0  0  0  0  0  0  0  0  0  0  0  0
    0.0860    0.9806   -1.7448 S   0  0  0  0  0  0  0  0  0  0  0  0
   -5.7337    0.0180    0.0882 S   0  0  0  0  0  0  0  0  0  0  0  0
   -2.4643   -2.0704    0.1851 O   0  0  0  0  0  0  0  0  0  0  0  0
   -3.7404    2.3352    0.5309 O   0  0  0  0  0  0  0  0  0  0  0  0
   -0.5674   -3.9207   -0.5381 O   0  0  0  0  0  0  0  0  0  0  0  0
   -3.2974   -0.6469    1.7940 O   0  0  0  0  0  0  0  0  0  0  0  0
   -0.7922    2.3533    0.2545 N   0  0  0  0  0  0  0  0  0  0  0  0
   -2.4386    1.2506   -1.1117 N   0  0  0  0  0  0  0  0  0  0  0  0
    1.2518    1.7772   -0.7553 C   0  0  0  0  0  0  0  0  0  0  0  0
    0.5906    2.4641    0.2675 C   0  0  0  0  0  0  0  0  0  0  0  0
    3.3875    2.5216    0.0620 C   0  0  0  0  0  0  0  0  0  0  0  0
    2.6507    1.7933   -0.8756 C   0  0  0  0  0  0  0  0  0  0  0  0
    1.3591    3.1920    1.2017 C   0  0  0  0  0  0  0  0  0  0  0  0
    2.7522    3.2126    1.0879 C   0  0  0  0  0  0  0  0  0  0  0  0
   -1.1634    1.6007   -0.7548 C   0  0  0  0  0  0  0  0  0  0  0  0
    4.8762    2.5566   -0.0413 C   0  0  0  0  0  0  0  0  0  0  0  0
   -3.6296    1.6268   -0.4663 C   0  0  0  0  0  0  0  0  0  0  0  0
   -4.8594    1.0374   -1.1236 C   0  0  0  0  0  0  0  0  0  0  0  0
    1.2373   -2.5286    0.0533 C   0  0  0  0  0  0  0  0  0  0  0  0
   -1.1845   -2.0431    0.8256 C   0  0  0  0  0  0  0  0  0  0  0  0
   -0.2036   -2.9131    0.0641 C   0  0  0  0  0  0  0  0  0  0  0  0
   -4.7082   -1.4676   -0.0198 C   0  0  0  0  0  0  0  0  0  0  0  0
    1.7850   -1.8475    1.1405 C   0  0  0  0  0  0  0  0  0  0  0  0
    2.0374   -2.8505   -1.0430 C   0  0  0  0  0  0  0  0  0  0  0  0
   -3.4399   -1.3190    0.7822 C   0  0  0  0  0  0  0  0  0  0  0  0
    3.1326   -1.4880    1.1312 C   0  0  0  0  0  0  0  0  0  0  0  0
    3.3851   -2.4909   -1.0523 C   0  0  0  0  0  0  0  0  0  0  0  0
    3.9326   -1.8097    0.0347 C   0  0  0  0  0  0  0  0  0  0  0  0
    3.1410    1.2502   -1.6784 H   0  0  0  0  0  0  0  0  0  0  0  0
    0.8730    3.7350    2.0073 H   0  0  0  0  0  0  0  0  0  0  0  0
    3.3328    3.7764    1.8140 H   0  0  0  0  0  0  0  0  0  0  0  0
    5.3266    2.0668    0.8281 H   0  0  0  0  0  0  0  0  0  0  0  0
    5.2363    2.0462   -0.9408 H   0  0  0  0  0  0  0  0  0  0  0  0
    5.2292    3.5921   -0.0891 H   0  0  0  0  0  0  0  0  0  0  0  0
   -2.5012    0.6522   -1.9311 H   0  0  0  0  0  0  0  0  0  0  0  0
   -5.5066    1.8687   -1.4217 H   0  0  0  0  0  0  0  0  0  0  0  0
   -4.6269    0.4638   -2.0249 H   0  0  0  0  0  0  0  0  0  0  0  0
   -1.2731   -2.4383    1.8433 H   0  0  0  0  0  0  0  0  0  0  0  0
   -0.8307   -1.0082    0.8470 H   0  0  0  0  0  0  0  0  0  0  0  0
   -5.2655   -2.3138    0.3933 H   0  0  0  0  0  0  0  0  0  0  0  0
   -4.4849   -1.6846   -1.0688 H   0  0  0  0  0  0  0  0  0  0  0  0
    1.1887   -1.5961    2.0131 H   0  0  0  0  0  0  0  0  0  0  0  0
    1.6263   -3.3766   -1.9005 H   0  0  0  0  0  0  0  0  0  0  0  0
    3.5444   -0.9586    1.9866 H   0  0  0  0  0  0  0  0  0  0  0  0
    3.9946   -2.7476   -1.9149 H   0  0  0  0  0  0  0  0  0  0  0  0
  1 29  1  0  0  0  0
  2 10  1  0  0  0  0
  2 16  1  0  0  0  0
  3 19  1  0  0  0  0
  3 23  1  0  0  0  0
  4 21  1  0  0  0  0
  4 26  1  0  0  0  0
  5 18  2  0  0  0  0
  6 22  2  0  0  0  0
  7 26  2  0  0  0  0
  8 11  1  0  0  0  0
  8 16  2  0  0  0  0
  9 16  1  0  0  0  0
  9 18  1  0  0  0  0
  9 36  1  0  0  0  0
 10 11  2  0  0  0  0
 10 13  1  0  0  0  0
 11 14  1  0  0  0  0
 12 13  2  0  0  0  0
 12 15  1  0  0  0  0
 12 17  1  0  0  0  0
 13 30  1  0  0  0  0
 14 15  2  0  0  0  0
 14 31  1  0  0  0  0
 15 32  1  0  0  0  0
 17 33  1  0  0  0  0
 17 34  1  0  0  0  0
 17 35  1  0  0  0  0
 18 19  1  0  0  0  0
 19 37  1  0  0  0  0
 19 38  1  0  0  0  0
 20 22  1  0  0  0  0
 20 24  2  0  0  0  0
 20 25  1  0  0  0  0
 21 22  1  0  0  0  0
 21 39  1  0  0  0  0
 21 40  1  0  0  0  0
 23 26  1  0  0  0  0
 23 41  1  0  0  0  0
 23 42  1  0  0  0  0
 24 27  1  0  0  0  0
 24 43  1  0  0  0  0
 25 28  2  0  0  0  0
 25 44  1  0  0  0  0
 27 29  2  0  0  0  0
 27 45  1  0  0  0  0
 28 29  1  0  0  0  0
 28 46  1  0  0  0  0
M  END
> <PUBCHEM_COMPOUND_CID>
3132120

> <PUBCHEM_CONFORMER_RMSD>
1.2

> <PUBCHEM_CONFORMER_DIVERSEORDER>
1
5
87
86
137
56
59
74
141
15
57
98
111
60
54
42
108
65
51
13
115
81
82
47
92
104
53
30
49
97
22
58
73
16
63
138
50
122
14
72
46
71
2
66
143
123
100
113
70
68
105
23
80
6
116
17
124
40
32
145
39
77
84
125
129
10
75
48
101
8
99
118
18
89
95
35
144
114
34
133
139
132
43
131
142
4
83
21
126
52
135
120
134
37
61
94
36
28
90
93
109
31
91
25
7
112
136
76
117
78
79
11
9
64
140
27
24
88
102
12
67
20
26
33
103
127
106
128
41
29
55
3
44
121
119
19
45
38
110
69
96
107
130
62
85

> <PUBCHEM_MMFF94_PARTIAL_CHARGES>
37
1 -0.11
10 0.04
11 0.23
12 -0.14
13 -0.15
14 -0.15
15 -0.15
16 0.44
17 0.14
18 0.57
19 0.29
2 -0.08
20 0.09
21 0.34
22 0.42
23 0.29
24 -0.15
25 -0.15
26 0.66
27 -0.15
28 -0.15
29 0.11
3 -0.46
30 0.15
31 0.15
32 0.15
36 0.37
4 -0.43
43 0.15
44 0.15
45 0.15
46 0.15
5 -0.57
6 -0.57
7 -0.57
8 -0.57
9 -0.49

> <PUBCHEM_EFFECTIVE_ROTOR_COUNT>
10

> <PUBCHEM_PHARMACOPHORE_FEATURES>
8
1 1 hydrophobe
1 5 acceptor
1 6 acceptor
1 7 acceptor
1 9 donor
5 2 8 10 11 16 rings
6 10 11 12 13 14 15 rings
6 20 24 25 27 28 29 rings

> <PUBCHEM_HEAVY_ATOM_COUNT>
29

> <PUBCHEM_ATOM_DEF_STEREO_COUNT>
0

> <PUBCHEM_ATOM_UDEF_STEREO_COUNT>
0

> <PUBCHEM_BOND_DEF_STEREO_COUNT>
0

> <PUBCHEM_BOND_UDEF_STEREO_COUNT>
0

> <PUBCHEM_ISOTOPIC_ATOM_COUNT>
0

> <PUBCHEM_COMPONENT_COUNT>
1

> <PUBCHEM_CACTVS_TAUTO_COUNT>
6

> <PUBCHEM_CONFORMER_ID>
002FCAD800000001

> <PUBCHEM_MMFF94_ENERGY>
56.5551

> <PUBCHEM_FEATURE_SELFOVERLAP>
40.668

> <PUBCHEM_SHAPE_FINGERPRINT>
10498660 4 18192435160389257503
10864689 126 18123469371984801630
1100329 8 18410849933138332630
11513181 2 18272653488552788911
12422481 6 18191847107053040256
13140716 1 18335423422266243777
13402501 40 18335136470953107486
13533116 47 18341890793112031805
14725015 67 18188198793974788339
15927050 60 18197492029688101908
16067689 134 17403741052008276813
17492 54 18042420040975071516
20691752 17 16877660158305341105
20721686 56 18261957461471503339
20764821 26 18410006637172630734
20905425 154 18265063615794560982
23559900 14 18334570239919524613
3027735 51 17980466086612485143
3298306 158 18339078318880883773
338550 245 18187648071851320052
350125 39 18408044013196187125
3680242 22 17972319512313620907
392239 28 18194967348948157458
5265222 85 17757845794147095372
59755656 215 18335984284575577748
6433294 58 18410856576988710676

> <PUBCHEM_SHAPE_MULTIPOLES>
577.01
10.64
5.08
1.3
5.42
0.2
-0.03
0.14
0.14
-3.65
0.37
0.06
-0.13
1.14

> <PUBCHEM_SHAPE_SELFOVERLAP>
1190.693

> <PUBCHEM_SHAPE_VOLUME>
337.2

> <PUBCHEM_COORDINATE_TYPE>
2
5
10

$$$$
