2930286
  -OEChem-01171810123D

 62 67  0     0  0  0  0  0  0999 V2000
    5.6270    0.3237   -0.3648 O   0  0  0  0  0  0  0  0  0  0  0  0
    2.4477    0.8614    0.7691 N   0  0  0  0  0  0  0  0  0  0  0  0
   -2.0424    1.7982   -0.1114 N   0  0  0  0  0  0  0  0  0  0  0  0
    1.8222    3.1864    0.8997 N   0  0  0  0  0  0  0  0  0  0  0  0
   -0.5354    3.5643    0.4235 N   0  0  0  0  0  0  0  0  0  0  0  0
   -6.0110    0.1413    0.1001 N   0  0  0  0  0  0  0  0  0  0  0  0
   -8.1535   -0.3605   -0.0320 N   0  0  0  0  0  0  0  0  0  0  0  0
    1.8174   -0.3249    0.4930 C   0  0  0  0  0  0  0  0  0  0  0  0
    0.4909   -0.0543    0.2317 C   0  0  0  0  0  0  0  0  0  0  0  0
    0.3094    1.3472    0.3536 C   0  0  0  0  0  0  0  0  0  0  0  0
    1.5448    1.8880    0.6885 C   0  0  0  0  0  0  0  0  0  0  0  0
    3.8501    1.0219    1.0943 C   0  0  0  0  0  0  0  0  0  0  0  0
   -0.7505    2.2434    0.2236 C   0  0  0  0  0  0  0  0  0  0  0  0
    2.5208   -1.5926    0.5031 C   0  0  0  0  0  0  0  0  0  0  0  0
   -0.4670   -1.0745   -0.0994 C   0  0  0  0  0  0  0  0  0  0  0  0
   -3.1595    2.6826   -0.2554 C   0  0  0  0  0  0  0  0  0  0  0  0
    4.6687    1.2404   -0.1480 C   0  0  0  0  0  0  0  0  0  0  0  0
   -4.4214    1.9043   -0.6152 C   0  0  0  0  0  0  0  0  0  0  0  0
   -4.7978    0.8735    0.4514 C   0  0  0  0  0  0  0  0  0  0  0  0
    3.1138   -2.0613   -0.6650 C   0  0  0  0  0  0  0  0  0  0  0  0
    2.5972   -2.3311    1.6797 C   0  0  0  0  0  0  0  0  0  0  0  0
   -0.6696   -1.4321   -1.4312 C   0  0  0  0  0  0  0  0  0  0  0  0
   -1.1906   -1.7034    0.9123 C   0  0  0  0  0  0  0  0  0  0  0  0
    0.7205    3.9486    0.7448 C   0  0  0  0  0  0  0  0  0  0  0  0
    4.6270    2.1956   -1.1042 C   0  0  0  0  0  0  0  0  0  0  0  0
    3.7899   -3.2813   -0.6565 C   0  0  0  0  0  0  0  0  0  0  0  0
    3.2734   -3.5511    1.6882 C   0  0  0  0  0  0  0  0  0  0  0  0
   -1.5989   -2.4214   -1.7524 C   0  0  0  0  0  0  0  0  0  0  0  0
   -2.1198   -2.6929    0.5910 C   0  0  0  0  0  0  0  0  0  0  0  0
    3.8697   -4.0261    0.5200 C   0  0  0  0  0  0  0  0  0  0  0  0
   -2.3240   -3.0518   -0.7414 C   0  0  0  0  0  0  0  0  0  0  0  0
    5.6561    1.8518   -2.0128 C   0  0  0  0  0  0  0  0  0  0  0  0
    6.2346    0.7059   -1.5187 C   0  0  0  0  0  0  0  0  0  0  0  0
   -6.0611   -1.0138   -0.6087 C   0  0  0  0  0  0  0  0  0  0  0  0
   -7.2766    0.5037    0.4288 C   0  0  0  0  0  0  0  0  0  0  0  0
   -7.4023   -1.3093   -0.6793 C   0  0  0  0  0  0  0  0  0  0  0  0
    3.9524    1.8847    1.7623 H   0  0  0  0  0  0  0  0  0  0  0  0
    4.1941    0.1489    1.6571 H   0  0  0  0  0  0  0  0  0  0  0  0
   -2.1601    0.8161   -0.3224 H   0  0  0  0  0  0  0  0  0  0  0  0
   -3.3286    3.2359    0.6762 H   0  0  0  0  0  0  0  0  0  0  0  0
   -2.9600    3.4156   -1.0459 H   0  0  0  0  0  0  0  0  0  0  0  0
   -4.2780    1.3972   -1.5784 H   0  0  0  0  0  0  0  0  0  0  0  0
   -5.2489    2.6108   -0.7556 H   0  0  0  0  0  0  0  0  0  0  0  0
   -4.0135    0.1240    0.5992 H   0  0  0  0  0  0  0  0  0  0  0  0
   -4.9806    1.3590    1.4171 H   0  0  0  0  0  0  0  0  0  0  0  0
    3.0596   -1.4922   -1.5898 H   0  0  0  0  0  0  0  0  0  0  0  0
    2.1372   -1.9737    2.5977 H   0  0  0  0  0  0  0  0  0  0  0  0
   -0.1130   -0.9497   -2.2313 H   0  0  0  0  0  0  0  0  0  0  0  0
   -1.0445   -1.4341    1.9557 H   0  0  0  0  0  0  0  0  0  0  0  0
    0.8597    5.0133    0.8981 H   0  0  0  0  0  0  0  0  0  0  0  0
    3.9572    3.0409   -1.1647 H   0  0  0  0  0  0  0  0  0  0  0  0
    4.2544   -3.6510   -1.5659 H   0  0  0  0  0  0  0  0  0  0  0  0
    3.3357   -4.1312    2.6042 H   0  0  0  0  0  0  0  0  0  0  0  0
   -1.7586   -2.7003   -2.7898 H   0  0  0  0  0  0  0  0  0  0  0  0
   -2.6857   -3.1827    1.3780 H   0  0  0  0  0  0  0  0  0  0  0  0
    4.3963   -4.9760    0.5266 H   0  0  0  0  0  0  0  0  0  0  0  0
   -3.0486   -3.8210   -0.9915 H   0  0  0  0  0  0  0  0  0  0  0  0
    5.9409    2.3739   -2.9147 H   0  0  0  0  0  0  0  0  0  0  0  0
    7.0442    0.0732   -1.8522 H   0  0  0  0  0  0  0  0  0  0  0  0
   -5.1828   -1.5128   -0.9931 H   0  0  0  0  0  0  0  0  0  0  0  0
   -7.5088    1.3945    0.9965 H   0  0  0  0  0  0  0  0  0  0  0  0
   -7.8649   -2.1563   -1.1645 H   0  0  0  0  0  0  0  0  0  0  0  0
  1 17  1  0  0  0  0
  1 33  1  0  0  0  0
  2  8  1  0  0  0  0
  2 11  1  0  0  0  0
  2 12  1  0  0  0  0
  3 13  1  0  0  0  0
  3 16  1  0  0  0  0
  3 39  1  0  0  0  0
  4 11  2  0  0  0  0
  4 24  1  0  0  0  0
  5 13  1  0  0  0  0
  5 24  2  0  0  0  0
  6 19  1  0  0  0  0
  6 34  1  0  0  0  0
  6 35  1  0  0  0  0
  7 35  2  0  0  0  0
  7 36  1  0  0  0  0
  8  9  2  0  0  0  0
  8 14  1  0  0  0  0
  9 10  1  0  0  0  0
  9 15  1  0  0  0  0
 10 11  1  0  0  0  0
 10 13  2  0  0  0  0
 12 17  1  0  0  0  0
 12 37  1  0  0  0  0
 12 38  1  0  0  0  0
 14 20  2  0  0  0  0
 14 21  1  0  0  0  0
 15 22  2  0  0  0  0
 15 23  1  0  0  0  0
 16 18  1  0  0  0  0
 16 40  1  0  0  0  0
 16 41  1  0  0  0  0
 17 25  2  0  0  0  0
 18 19  1  0  0  0  0
 18 42  1  0  0  0  0
 18 43  1  0  0  0  0
 19 44  1  0  0  0  0
 19 45  1  0  0  0  0
 20 26  1  0  0  0  0
 20 46  1  0  0  0  0
 21 27  2  0  0  0  0
 21 47  1  0  0  0  0
 22 28  1  0  0  0  0
 22 48  1  0  0  0  0
 23 29  2  0  0  0  0
 23 49  1  0  0  0  0
 24 50  1  0  0  0  0
 25 32  1  0  0  0  0
 25 51  1  0  0  0  0
 26 30  2  0  0  0  0
 26 52  1  0  0  0  0
 27 30  1  0  0  0  0
 27 53  1  0  0  0  0
 28 31  2  0  0  0  0
 28 54  1  0  0  0  0
 29 31  1  0  0  0  0
 29 55  1  0  0  0  0
 30 56  1  0  0  0  0
 31 57  1  0  0  0  0
 32 33  2  0  0  0  0
 32 58  1  0  0  0  0
 33 59  1  0  0  0  0
 34 36  2  0  0  0  0
 34 60  1  0  0  0  0
 35 61  1  0  0  0  0
 36 62  1  0  0  0  0
M  END
> <PUBCHEM_COMPOUND_CID>
2930286

> <PUBCHEM_CONFORMER_RMSD>
1

> <PUBCHEM_CONFORMER_DIVERSEORDER>
1
43
62
24
64
34
44
48
5
65
38
15
16
22
33
14
49
10
51
18
46
30
12
23
2
21
42
8
26
13
60
55
40
39
56
52
61
11
7
27
57
32
36
17
45
54
25
20
4
35
58
66
63
53
28
47
19
50
6
9
29
59
31
37
41
3

> <PUBCHEM_MMFF94_PARTIAL_CHARGES>
52
1 -0.28
11 0.11
12 0.44
13 0.41
14 0.05
15 0.05
16 0.37
17 -0.04
19 0.26
2 0.05
20 -0.15
21 -0.15
22 -0.15
23 -0.15
24 0.47
25 -0.15
26 -0.15
27 -0.15
28 -0.15
29 -0.15
3 -0.87
30 -0.15
31 -0.15
32 -0.15
33 -0.01
34 -0.3
35 0.04
36 0.08
39 0.4
4 -0.57
46 0.15
47 0.15
48 0.15
49 0.15
5 -0.62
50 0.15
51 0.15
52 0.15
53 0.15
54 0.15
55 0.15
56 0.15
57 0.15
58 0.15
59 0.15
6 0.05
60 0.15
61 0.15
62 0.15
7 -0.57
8 -0.2
9 -0.05

> <PUBCHEM_EFFECTIVE_ROTOR_COUNT>
9

> <PUBCHEM_PHARMACOPHORE_FEATURES>
12
1 1 acceptor
1 3 cation
1 3 donor
3 2 4 11 cation
3 4 5 24 cation
3 6 7 35 cation
5 1 17 25 32 33 rings
5 2 8 9 10 11 rings
5 6 7 34 35 36 rings
6 14 20 21 26 27 30 rings
6 15 22 23 28 29 31 rings
6 4 5 10 11 13 24 rings

> <PUBCHEM_HEAVY_ATOM_COUNT>
36

> <PUBCHEM_ATOM_DEF_STEREO_COUNT>
0

> <PUBCHEM_ATOM_UDEF_STEREO_COUNT>
0

> <PUBCHEM_BOND_DEF_STEREO_COUNT>
0

> <PUBCHEM_BOND_UDEF_STEREO_COUNT>
0

> <PUBCHEM_ISOTOPIC_ATOM_COUNT>
0

> <PUBCHEM_COMPONENT_COUNT>
1

> <PUBCHEM_CACTVS_TAUTO_COUNT>
4

> <PUBCHEM_CONFORMER_ID>
002CB66E00000001

> <PUBCHEM_MMFF94_ENERGY>
75.2249

> <PUBCHEM_FEATURE_SELFOVERLAP>
61.178

> <PUBCHEM_SHAPE_FINGERPRINT>
10190108 129 18046365272825738083
10673678 19 17823429364672316180
10675989 125 18265893739058792060
11963148 33 18410002252264885251
12128747 34 18113903792949526603
12788726 201 17916588622503553520
13140716 1 18196919175372109712
15131766 46 15938112212795403452
15439362 3 17548138183079941864
1577012 14 18202560684293790623
16112460 7 18270973358282380243
19319366 153 18187363233672922130
22311459 1 18410011082475137305
25222932 49 18343016700833180741
58260988 647 16199611099012251444
59755656 215 18410577318056661380

> <PUBCHEM_SHAPE_MULTIPOLES>
705.11
15.81
5.06
1.39
25.39
0.67
-0.26
0.06
-4.31
-3.9
0.8
-1.52
0.4
-2.04

> <PUBCHEM_SHAPE_SELFOVERLAP>
1573.92

> <PUBCHEM_SHAPE_VOLUME>
375.5

> <PUBCHEM_COORDINATE_TYPE>
2
5
10

$$$$
