15945382
  -OEChem-01171809393D

 55 57  0     0  0  0  0  0  0999 V2000
    5.9616    0.4352   -0.1909 S   0  0  0  0  0  0  0  0  0  0  0  0
    7.1263   -0.0859   -0.8819 O   0  0  0  0  0  0  0  0  0  0  0  0
    6.1338    1.2746    0.9791 O   0  0  0  0  0  0  0  0  0  0  0  0
   -7.1856    0.2041    1.4610 O   0  0  0  0  0  0  0  0  0  0  0  0
   -4.6915   -2.1158   -1.9058 O   0  0  0  0  0  0  0  0  0  0  0  0
   -6.9993   -1.8394   -0.3994 O   0  0  0  0  0  0  0  0  0  0  0  0
   -0.6413    3.5666    0.7420 O   0  0  0  0  0  0  0  0  0  0  0  0
    4.9355    1.2174   -1.3325 N   0  0  0  0  0  0  0  0  0  0  0  0
    4.9808   -0.9594    0.2843 C   0  0  0  0  0  0  0  0  0  0  0  0
    3.5979    1.5373   -0.9492 C   0  0  0  0  0  0  0  0  0  0  0  0
    4.1133   -0.8400    1.3548 C   0  0  0  0  0  0  0  0  0  0  0  0
    5.1021   -2.1404   -0.4252 C   0  0  0  0  0  0  0  0  0  0  0  0
    3.4485   -3.1394    1.0253 C   0  0  0  0  0  0  0  0  0  0  0  0
    0.9842    2.1603   -0.1984 C   0  0  0  0  0  0  0  0  0  0  0  0
    3.3668    2.3860    0.1335 C   0  0  0  0  0  0  0  0  0  0  0  0
    2.5221    1.0001   -1.6563 C   0  0  0  0  0  0  0  0  0  0  0  0
    3.3405   -1.9395    1.7285 C   0  0  0  0  0  0  0  0  0  0  0  0
    4.3292   -3.2398   -0.0514 C   0  0  0  0  0  0  0  0  0  0  0  0
    2.0599    2.6975    0.5088 C   0  0  0  0  0  0  0  0  0  0  0  0
    1.2153    1.3117   -1.2810 C   0  0  0  0  0  0  0  0  0  0  0  0
   -3.8485    0.7852    0.1259 C   0  0  0  0  0  0  0  0  0  0  0  0
   -0.3781    2.4863    0.1922 C   0  0  0  0  0  0  0  0  0  0  0  0
    2.6224   -4.3148    1.4255 C   0  0  0  0  0  0  0  0  0  0  0  0
   -3.7366   -0.2303   -0.8096 C   0  0  0  0  0  0  0  0  0  0  0  0
   -4.9945    0.9396    0.8892 C   0  0  0  0  0  0  0  0  0  0  0  0
   -2.7255    1.7206    0.3135 C   0  0  0  0  0  0  0  0  0  0  0  0
   -6.0577    0.0541    0.7120 C   0  0  0  0  0  0  0  0  0  0  0  0
   -4.7997   -1.1158   -0.9870 C   0  0  0  0  0  0  0  0  0  0  0  0
   -1.4601    1.4728   -0.0555 C   0  0  0  0  0  0  0  0  0  0  0  0
   -5.9603   -0.9737   -0.2262 C   0  0  0  0  0  0  0  0  0  0  0  0
   -8.2108    1.0405    0.9285 C   0  0  0  0  0  0  0  0  0  0  0  0
   -4.1506   -3.3555   -1.4535 C   0  0  0  0  0  0  0  0  0  0  0  0
    5.0461    0.9218   -2.3114 H   0  0  0  0  0  0  0  0  0  0  0  0
    4.0190    0.0807    1.9213 H   0  0  0  0  0  0  0  0  0  0  0  0
    5.7757   -2.2363   -1.2710 H   0  0  0  0  0  0  0  0  0  0  0  0
    4.1850    2.8399    0.6837 H   0  0  0  0  0  0  0  0  0  0  0  0
    2.6908    0.3423   -2.5051 H   0  0  0  0  0  0  0  0  0  0  0  0
    2.6600   -1.8498    2.5711 H   0  0  0  0  0  0  0  0  0  0  0  0
    4.4222   -4.1691   -0.6071 H   0  0  0  0  0  0  0  0  0  0  0  0
    1.9001    3.3620    1.3540 H   0  0  0  0  0  0  0  0  0  0  0  0
    0.4097    0.9003   -1.8817 H   0  0  0  0  0  0  0  0  0  0  0  0
    3.1558   -4.9126    2.1712 H   0  0  0  0  0  0  0  0  0  0  0  0
    2.3954   -4.9508    0.5629 H   0  0  0  0  0  0  0  0  0  0  0  0
    1.6638   -3.9974    1.8499 H   0  0  0  0  0  0  0  0  0  0  0  0
   -2.8598   -0.3589   -1.4372 H   0  0  0  0  0  0  0  0  0  0  0  0
   -5.0776    1.7368    1.6240 H   0  0  0  0  0  0  0  0  0  0  0  0
   -2.9837    2.6685    0.7796 H   0  0  0  0  0  0  0  0  0  0  0  0
   -1.1679    0.5169   -0.4704 H   0  0  0  0  0  0  0  0  0  0  0  0
   -7.6982   -1.6175    0.2396 H   0  0  0  0  0  0  0  0  0  0  0  0
   -9.0579    1.0263    1.6198 H   0  0  0  0  0  0  0  0  0  0  0  0
   -7.8523    2.0706    0.8355 H   0  0  0  0  0  0  0  0  0  0  0  0
   -8.5477    0.6714   -0.0453 H   0  0  0  0  0  0  0  0  0  0  0  0
   -4.7715   -3.7804   -0.6586 H   0  0  0  0  0  0  0  0  0  0  0  0
   -4.1375   -4.0515   -2.2967 H   0  0  0  0  0  0  0  0  0  0  0  0
   -3.1248   -3.2186   -1.0967 H   0  0  0  0  0  0  0  0  0  0  0  0
  1  2  2  0  0  0  0
  1  3  2  0  0  0  0
  1  8  1  0  0  0  0
  1  9  1  0  0  0  0
  4 27  1  0  0  0  0
  4 31  1  0  0  0  0
  5 28  1  0  0  0  0
  5 32  1  0  0  0  0
  6 30  1  0  0  0  0
  6 49  1  0  0  0  0
  7 22  2  0  0  0  0
  8 10  1  0  0  0  0
  8 33  1  0  0  0  0
  9 11  2  0  0  0  0
  9 12  1  0  0  0  0
 10 15  2  0  0  0  0
 10 16  1  0  0  0  0
 11 17  1  0  0  0  0
 11 34  1  0  0  0  0
 12 18  2  0  0  0  0
 12 35  1  0  0  0  0
 13 17  2  0  0  0  0
 13 18  1  0  0  0  0
 13 23  1  0  0  0  0
 14 19  2  0  0  0  0
 14 20  1  0  0  0  0
 14 22  1  0  0  0  0
 15 19  1  0  0  0  0
 15 36  1  0  0  0  0
 16 20  2  0  0  0  0
 16 37  1  0  0  0  0
 17 38  1  0  0  0  0
 18 39  1  0  0  0  0
 19 40  1  0  0  0  0
 20 41  1  0  0  0  0
 21 24  2  0  0  0  0
 21 25  1  0  0  0  0
 21 26  1  0  0  0  0
 22 29  1  0  0  0  0
 23 42  1  0  0  0  0
 23 43  1  0  0  0  0
 23 44  1  0  0  0  0
 24 28  1  0  0  0  0
 24 45  1  0  0  0  0
 25 27  2  0  0  0  0
 25 46  1  0  0  0  0
 26 29  2  0  0  0  0
 26 47  1  0  0  0  0
 27 30  1  0  0  0  0
 28 30  2  0  0  0  0
 29 48  1  0  0  0  0
 31 50  1  0  0  0  0
 31 51  1  0  0  0  0
 31 52  1  0  0  0  0
 32 53  1  0  0  0  0
 32 54  1  0  0  0  0
 32 55  1  0  0  0  0
M  END
> <PUBCHEM_COMPOUND_CID>
15945382

> <PUBCHEM_CONFORMER_RMSD>
1

> <PUBCHEM_CONFORMER_DIVERSEORDER>
1
65
28
26
57
19
4
90
125
59
77
7
40
10
71
13
16
109
54
76
34
12
48
116
21
126
24
62
112
79
25
97
3
11
115
53
36
80
88
8
86
50
87
39
101
33
81
18
78
100
117
124
23
58
47
98
121
92
108
22
30
27
119
41
113
70
43
83
105
94
82
15
123
6
56
52
72
85
49
64
55
29
42
51
67
9
95
46
17
103
69
122
37
31
63
107
45
61
35
60
32
120
93
96
118
2
44
104
20
99
114
38
75
110
91
66
14
68
5
102
106
111
84
89
74
73

> <PUBCHEM_MMFF94_PARTIAL_CHARGES>
46
1 1.45
10 0.2
11 -0.15
12 -0.15
13 -0.14
14 0.09
15 -0.15
16 -0.15
17 -0.15
18 -0.15
19 -0.15
2 -0.65
20 -0.15
21 0.03
22 0.47
23 0.14
24 -0.15
25 -0.15
26 -0.18
27 0.08
28 0.08
29 -0.14
3 -0.65
30 0.08
31 0.28
32 0.28
33 0.42
34 0.15
35 0.15
36 0.15
37 0.15
38 0.15
39 0.15
4 -0.36
40 0.15
41 0.15
45 0.15
46 0.15
47 0.15
48 0.15
49 0.45
5 -0.36
6 -0.53
7 -0.57
8 -0.76
9 -0.01

> <PUBCHEM_EFFECTIVE_ROTOR_COUNT>
8

> <PUBCHEM_PHARMACOPHORE_FEATURES>
10
1 2 acceptor
1 3 acceptor
1 4 acceptor
1 5 acceptor
1 6 donor
1 7 acceptor
1 8 donor
6 10 14 15 16 19 20 rings
6 21 24 25 27 28 30 rings
6 9 11 12 13 17 18 rings

> <PUBCHEM_HEAVY_ATOM_COUNT>
32

> <PUBCHEM_ATOM_DEF_STEREO_COUNT>
0

> <PUBCHEM_ATOM_UDEF_STEREO_COUNT>
0

> <PUBCHEM_BOND_DEF_STEREO_COUNT>
1

> <PUBCHEM_BOND_UDEF_STEREO_COUNT>
0

> <PUBCHEM_ISOTOPIC_ATOM_COUNT>
0

> <PUBCHEM_COMPONENT_COUNT>
1

> <PUBCHEM_CACTVS_TAUTO_COUNT>
8

> <PUBCHEM_CONFORMER_ID>
00F34EA600000001

> <PUBCHEM_MMFF94_ENERGY>
110.3326

> <PUBCHEM_FEATURE_SELFOVERLAP>
50.767

> <PUBCHEM_SHAPE_FINGERPRINT>
10622 236 18044644309368342778
10677351 27 18191047714211635655
117089 54 17839753564992382462
12107183 9 18272660030826963457
12144603 126 18340218439556825301
12596602 18 17775565364552099256
13533116 47 18408325475367396664
1361 2 18334014969451849450
13692114 37 18338234973390406124
14347332 77 18334573512737416445
14394314 77 18341897381354662721
14480069 147 18187927240240551887
15001296 14 18335979869428435590
15119646 104 18334580126838768113
15183329 4 16153702124454542309
15250474 111 18341044215954619127
15347590 135 18130776898510788024
15352257 5 17749678484425952155
15537594 2 18411704296163832221
15776043 110 18270135552002730065
15799311 1 18337402612021335819
17492 89 18120090581537629130
20554085 129 15985106263548085503
21315763 178 18410854377828259669
21585483 132 17985247807074494647
21781055 127 17203059474760328323
23522609 53 18123787306876766253
25222932 49 18342452652001095348
25269216 80 15936985045820174421
3680242 22 18342464737933395335
4073 2 18123753320704730689
46194498 28 16950286230173075020
463206 1 18336545026905344043
50080093 196 18337377284521154763
5104073 3 17559681818521286593

> <PUBCHEM_SHAPE_MULTIPOLES>
622.2
20.74
4.44
1.49
23.82
3.12
-0.15
6.49
1.73
-3.51
0.6
0.17
0.62
-3.5

> <PUBCHEM_SHAPE_SELFOVERLAP>
1326.427

> <PUBCHEM_SHAPE_VOLUME>
347

> <PUBCHEM_COORDINATE_TYPE>
2
5
10

$$$$
