3689411
  -OEChem-01171809333D

 49 51  0     1  0  0  0  0  0999 V2000
    4.0439   -3.1191   -1.5992 Cl  0  0  0  0  0  0  0  0  0  0  0  0
   -3.3485   -4.3522    1.0703 Cl  0  0  0  0  0  0  0  0  0  0  0  0
    3.6332    0.4926    2.0043 S   0  0  0  0  0  0  0  0  0  0  0  0
    0.4543    1.5629   -1.5411 O   0  0  0  0  0  0  0  0  0  0  0  0
    2.8759   -0.4363   -1.8598 O   0  0  0  0  0  0  0  0  0  0  0  0
    1.2336   -0.7264   -0.1741 N   0  0  0  0  0  0  0  0  0  0  0  0
   -0.0827    2.5334    0.4971 N   0  0  0  0  0  0  0  0  0  0  0  0
    1.2969    0.5491    0.4912 C   0  0  1  0  0  0  0  0  0  0  0  0
    2.7332    0.9882    0.6345 C   0  0  0  0  0  0  0  0  0  0  0  0
    0.5135    1.5769   -0.3132 C   0  0  0  0  0  0  0  0  0  0  0  0
   -0.8501    3.6334   -0.0378 C   0  0  0  0  0  0  0  0  0  0  0  0
    0.1115   -1.6153    0.1307 C   0  0  0  0  0  0  0  0  0  0  0  0
   -2.2949    3.6343    0.4557 C   0  0  0  0  0  0  0  0  0  0  0  0
    2.2146   -1.1677   -1.1192 C   0  0  0  0  0  0  0  0  0  0  0  0
    3.4783    1.7741   -0.2170 C   0  0  0  0  0  0  0  0  0  0  0  0
   -3.0384    2.3696    0.1026 C   0  0  0  0  0  0  0  0  0  0  0  0
   -0.0907   -2.0604    1.4371 C   0  0  0  0  0  0  0  0  0  0  0  0
   -0.7562   -2.0166   -0.8851 C   0  0  0  0  0  0  0  0  0  0  0  0
    4.8056    1.9718    0.2616 C   0  0  0  0  0  0  0  0  0  0  0  0
    2.3715   -2.6766   -1.1963 C   0  0  0  0  0  0  0  0  0  0  0  0
    5.0245    1.3298    1.4604 C   0  0  0  0  0  0  0  0  0  0  0  0
   -3.7368    2.2843   -1.1019 C   0  0  0  0  0  0  0  0  0  0  0  0
   -3.0270    1.2855    0.9803 C   0  0  0  0  0  0  0  0  0  0  0  0
   -1.1606   -2.9070    1.7276 C   0  0  0  0  0  0  0  0  0  0  0  0
   -1.8259   -2.8631   -0.5946 C   0  0  0  0  0  0  0  0  0  0  0  0
   -2.0283   -3.3083    0.7117 C   0  0  0  0  0  0  0  0  0  0  0  0
   -4.4239    1.1152   -1.4285 C   0  0  0  0  0  0  0  0  0  0  0  0
   -3.7140    0.1163    0.6536 C   0  0  0  0  0  0  0  0  0  0  0  0
   -4.4125    0.0313   -0.5509 C   0  0  0  0  0  0  0  0  0  0  0  0
    0.8424    0.4657    1.4863 H   0  0  0  0  0  0  0  0  0  0  0  0
   -0.8231    3.6128   -1.1328 H   0  0  0  0  0  0  0  0  0  0  0  0
   -0.3529    4.5538    0.2867 H   0  0  0  0  0  0  0  0  0  0  0  0
    0.0577    2.4992    1.5025 H   0  0  0  0  0  0  0  0  0  0  0  0
   -2.8239    4.5014    0.0406 H   0  0  0  0  0  0  0  0  0  0  0  0
   -2.3145    3.7674    1.5454 H   0  0  0  0  0  0  0  0  0  0  0  0
    3.1074    2.2001   -1.1404 H   0  0  0  0  0  0  0  0  0  0  0  0
    0.5827   -1.7672    2.2380 H   0  0  0  0  0  0  0  0  0  0  0  0
   -0.6154   -1.6700   -1.9056 H   0  0  0  0  0  0  0  0  0  0  0  0
    5.5612    2.5561   -0.2471 H   0  0  0  0  0  0  0  0  0  0  0  0
    1.7205   -3.0750   -1.9784 H   0  0  0  0  0  0  0  0  0  0  0  0
    2.1527   -3.1610   -0.2429 H   0  0  0  0  0  0  0  0  0  0  0  0
    5.9348    1.3123    2.0429 H   0  0  0  0  0  0  0  0  0  0  0  0
   -3.7510    3.1214   -1.7948 H   0  0  0  0  0  0  0  0  0  0  0  0
   -2.4892    1.3384    1.9233 H   0  0  0  0  0  0  0  0  0  0  0  0
   -1.3048   -3.2478    2.7497 H   0  0  0  0  0  0  0  0  0  0  0  0
   -2.4956   -3.1652   -1.3957 H   0  0  0  0  0  0  0  0  0  0  0  0
   -4.9672    1.0485   -2.3665 H   0  0  0  0  0  0  0  0  0  0  0  0
   -3.7121   -0.7236    1.3413 H   0  0  0  0  0  0  0  0  0  0  0  0
   -4.9480   -0.8789   -0.8044 H   0  0  0  0  0  0  0  0  0  0  0  0
  1 20  1  0  0  0  0
  2 26  1  0  0  0  0
  3  9  1  0  0  0  0
  3 21  1  0  0  0  0
  4 10  2  0  0  0  0
  5 14  2  0  0  0  0
  6  8  1  0  0  0  0
  6 12  1  0  0  0  0
  6 14  1  0  0  0  0
  7 10  1  0  0  0  0
  7 11  1  0  0  0  0
  7 33  1  0  0  0  0
  8  9  1  0  0  0  0
  8 10  1  0  0  0  0
  8 30  1  0  0  0  0
  9 15  2  0  0  0  0
 11 13  1  0  0  0  0
 11 31  1  0  0  0  0
 11 32  1  0  0  0  0
 12 17  2  0  0  0  0
 12 18  1  0  0  0  0
 13 16  1  0  0  0  0
 13 34  1  0  0  0  0
 13 35  1  0  0  0  0
 14 20  1  0  0  0  0
 15 19  1  0  0  0  0
 15 36  1  0  0  0  0
 16 22  2  0  0  0  0
 16 23  1  0  0  0  0
 17 24  1  0  0  0  0
 17 37  1  0  0  0  0
 18 25  2  0  0  0  0
 18 38  1  0  0  0  0
 19 21  2  0  0  0  0
 19 39  1  0  0  0  0
 20 40  1  0  0  0  0
 20 41  1  0  0  0  0
 21 42  1  0  0  0  0
 22 27  1  0  0  0  0
 22 43  1  0  0  0  0
 23 28  2  0  0  0  0
 23 44  1  0  0  0  0
 24 26  2  0  0  0  0
 24 45  1  0  0  0  0
 25 26  1  0  0  0  0
 25 46  1  0  0  0  0
 27 29  2  0  0  0  0
 27 47  1  0  0  0  0
 28 29  1  0  0  0  0
 28 48  1  0  0  0  0
 29 49  1  0  0  0  0
M  END
> <PUBCHEM_COMPOUND_CID>
3689411

> <PUBCHEM_CONFORMER_RMSD>
1

> <PUBCHEM_CONFORMER_DIVERSEORDER>
2
111
205
19
155
152
107
188
184
85
33
39
103
31
144
187
88
74
169
26
158
48
185
46
202
29
154
157
20
54
76
106
63
43
95
174
57
91
122
146
200
179
171
163
40
165
145
130
99
195
97
96
166
129
28
186
127
206
15
50
116
6
101
139
108
133
77
182
135
49
69
25
160
191
68
30
126
178
124
7
45
38
147
109
168
62
81
44
198
16
47
102
79
193
32
14
192
12
89
13
82
56
183
36
78
140
196
37
132
159
199
190
87
203
161
177
93
5
156
80
24
176
148
73
164
35
104
51
94
64
21
11
23
167
118
115
41
98
22
58
141
53
125
92
61
143
180
90
83
136
162
27
34
52
153
172
142
134
117
71
100
137
84
201
17
60
65
204
128
151
112
42
189
149
120
9
3
10
114
197
55
8
72
113
86
4
59
207
123
75
131
110
170
121
1
105
138
18
150
181
119
67
66
70
175
194
173

> <PUBCHEM_MMFF94_PARTIAL_CHARGES>
42
1 -0.29
10 0.57
11 0.3
12 0.12
13 0.14
14 0.57
15 -0.15
16 -0.14
17 -0.15
18 -0.15
19 -0.15
2 -0.18
20 0.35
21 -0.11
22 -0.15
23 -0.15
24 -0.15
25 -0.15
26 0.18
27 -0.15
28 -0.15
29 -0.15
3 -0.08
33 0.37
36 0.15
37 0.15
38 0.15
39 0.15
4 -0.57
42 0.15
43 0.15
44 0.15
45 0.15
46 0.15
47 0.15
48 0.15
49 0.15
5 -0.57
6 -0.48
7 -0.73
8 0.54
9 -0.14

> <PUBCHEM_EFFECTIVE_ROTOR_COUNT>
10

> <PUBCHEM_PHARMACOPHORE_FEATURES>
6
1 4 acceptor
1 5 acceptor
1 7 donor
5 3 9 15 19 21 rings
6 12 17 18 24 25 26 rings
6 16 22 23 27 28 29 rings

> <PUBCHEM_HEAVY_ATOM_COUNT>
29

> <PUBCHEM_ATOM_DEF_STEREO_COUNT>
0

> <PUBCHEM_ATOM_UDEF_STEREO_COUNT>
1

> <PUBCHEM_BOND_DEF_STEREO_COUNT>
0

> <PUBCHEM_BOND_UDEF_STEREO_COUNT>
0

> <PUBCHEM_ISOTOPIC_ATOM_COUNT>
0

> <PUBCHEM_COMPONENT_COUNT>
1

> <PUBCHEM_CACTVS_TAUTO_COUNT>
2

> <PUBCHEM_CONFORMER_ID>
00384BC300000002

> <PUBCHEM_MMFF94_ENERGY>
89.5597

> <PUBCHEM_FEATURE_SELFOVERLAP>
30.447

> <PUBCHEM_SHAPE_FINGERPRINT>
10074138 170 17978191106823114288
10119406 146 18340207385159753358
10675989 125 17541358165350692941
108634 29 18410011069800770783
11578080 2 17986978369281784762
12422481 6 18052837011410127571
12608794 3 17840896008474608146
12788726 201 17899705840291005050
13140716 1 18123188175954488529
13149001 5 18055649313182843030
14787075 74 18201426000018804624
15219462 58 17203061733016450586
15775530 1 18270418126269495330
17909252 39 17917151576688287918
20764821 26 18194141795882680663
20775438 99 18270944779148850623
21796203 349 16827588124214936281
22182313 1 18129397036617506590
22393880 68 18121775028877268357
23419403 2 17128498373422177804
23559900 14 18127974096872497916
3052486 1 18187368778538452406
45266715 3 18264471915404192671
463206 1 17257944693034799179
469060 322 18051712223678443859

> <PUBCHEM_SHAPE_MULTIPOLES>
582.69
8.87
5.5
1.69
3.06
2.39
-0.03
-2.72
0.02
-3.49
-0.45
0.88
0.8
2.87

> <PUBCHEM_SHAPE_SELFOVERLAP>
1210.071

> <PUBCHEM_SHAPE_VOLUME>
333.1

> <PUBCHEM_COORDINATE_TYPE>
2
5
10

$$$$
