5715188
  -OEChem-01171809223D

 38 39  0     0  0  0  0  0  0999 V2000
   -3.3982   -0.1532   -1.7034 O   0  0  0  0  0  0  0  0  0  0  0  0
    5.2579   -0.6454    1.1119 O   0  5  0  0  0  0  0  0  0  0  0  0
    3.4981   -1.5835    2.0400 O   0  0  0  0  0  0  0  0  0  0  0  0
   -1.2096    1.3397    0.1532 N   0  0  0  0  0  0  0  0  0  0  0  0
   -0.0475    1.9368    0.3400 N   0  0  0  0  0  0  0  0  0  0  0  0
   -1.8034    3.1095    1.2196 N   0  0  0  0  0  0  0  0  0  0  0  0
    4.0347   -0.9222    1.1192 N   0  3  0  0  0  0  0  0  0  0  0  0
   -3.3166   -1.4696    0.3399 C   0  0  0  0  0  0  0  0  0  0  0  0
   -2.7422   -0.4936   -0.7160 C   0  0  0  0  0  0  0  0  0  0  0  0
   -2.2684   -1.6381    1.4530 C   0  0  0  0  0  0  0  0  0  0  0  0
   -4.6414   -1.0153    0.9685 C   0  0  0  0  0  0  0  0  0  0  0  0
   -3.5367   -2.8358   -0.3325 C   0  0  0  0  0  0  0  0  0  0  0  0
   -1.3691    0.0968   -0.5226 C   0  0  0  0  0  0  0  0  0  0  0  0
   -0.3539   -0.6216   -1.0540 C   0  0  0  0  0  0  0  0  0  0  0  0
    1.0851   -0.3124   -1.0322 C   0  0  0  0  0  0  0  0  0  0  0  0
    1.8620   -0.7616    0.0244 C   0  0  0  0  0  0  0  0  0  0  0  0
   -2.2525    2.0096    0.6610 C   0  0  0  0  0  0  0  0  0  0  0  0
    1.6379    0.4223   -2.0698 C   0  0  0  0  0  0  0  0  0  0  0  0
    3.2257   -0.4687    0.0438 C   0  0  0  0  0  0  0  0  0  0  0  0
    3.0013    0.7151   -2.0503 C   0  0  0  0  0  0  0  0  0  0  0  0
    3.7954    0.2696   -0.9936 C   0  0  0  0  0  0  0  0  0  0  0  0
   -0.4585    3.0216    0.9999 C   0  0  0  0  0  0  0  0  0  0  0  0
   -2.0551   -0.6994    1.9745 H   0  0  0  0  0  0  0  0  0  0  0  0
   -2.6391   -2.3343    2.2163 H   0  0  0  0  0  0  0  0  0  0  0  0
   -1.3270   -2.0641    1.0906 H   0  0  0  0  0  0  0  0  0  0  0  0
   -4.5187   -0.0728    1.5115 H   0  0  0  0  0  0  0  0  0  0  0  0
   -5.4019   -0.8470    0.1979 H   0  0  0  0  0  0  0  0  0  0  0  0
   -5.0301   -1.7593    1.6724 H   0  0  0  0  0  0  0  0  0  0  0  0
   -3.8738   -3.5888    0.3884 H   0  0  0  0  0  0  0  0  0  0  0  0
   -2.6138   -3.2029   -0.7962 H   0  0  0  0  0  0  0  0  0  0  0  0
   -4.2905   -2.7670   -1.1252 H   0  0  0  0  0  0  0  0  0  0  0  0
   -0.5772   -1.5568   -1.5670 H   0  0  0  0  0  0  0  0  0  0  0  0
    1.3949   -1.3358    0.8215 H   0  0  0  0  0  0  0  0  0  0  0  0
   -3.2922    1.7186    0.6154 H   0  0  0  0  0  0  0  0  0  0  0  0
    1.0298    0.7750   -2.8987 H   0  0  0  0  0  0  0  0  0  0  0  0
    3.4445    1.2902   -2.8581 H   0  0  0  0  0  0  0  0  0  0  0  0
    4.8537    0.5169   -1.0124 H   0  0  0  0  0  0  0  0  0  0  0  0
    0.2441    3.7717    1.3310 H   0  0  0  0  0  0  0  0  0  0  0  0
  1  9  2  0  0  0  0
  2  7  1  0  0  0  0
  3  7  2  0  0  0  0
  4  5  1  0  0  0  0
  4 13  1  0  0  0  0
  4 17  1  0  0  0  0
  5 22  2  0  0  0  0
  6 17  2  0  0  0  0
  6 22  1  0  0  0  0
  7 19  1  0  0  0  0
  8  9  1  0  0  0  0
  8 10  1  0  0  0  0
  8 11  1  0  0  0  0
  8 12  1  0  0  0  0
  9 13  1  0  0  0  0
 10 23  1  0  0  0  0
 10 24  1  0  0  0  0
 10 25  1  0  0  0  0
 11 26  1  0  0  0  0
 11 27  1  0  0  0  0
 11 28  1  0  0  0  0
 12 29  1  0  0  0  0
 12 30  1  0  0  0  0
 12 31  1  0  0  0  0
 13 14  2  0  0  0  0
 14 15  1  0  0  0  0
 14 32  1  0  0  0  0
 15 16  2  0  0  0  0
 15 18  1  0  0  0  0
 16 19  1  0  0  0  0
 16 33  1  0  0  0  0
 17 34  1  0  0  0  0
 18 20  2  0  0  0  0
 18 35  1  0  0  0  0
 19 21  2  0  0  0  0
 20 21  1  0  0  0  0
 20 36  1  0  0  0  0
 21 37  1  0  0  0  0
 22 38  1  0  0  0  0
M  CHG  2   2  -1   7   1
M  END
> <PUBCHEM_COMPOUND_CID>
5715188

> <PUBCHEM_CONFORMER_RMSD>
0.8

> <PUBCHEM_CONFORMER_DIVERSEORDER>
1
15
9
12
7
14
6
8
13
16
11
10
5
3
2
4

> <PUBCHEM_MMFF94_PARTIAL_CHARGES>
26
1 -0.57
13 -0.02
14 -0.18
15 0.03
16 -0.15
17 0.04
18 -0.15
19 0.13
2 -0.52
20 -0.15
21 -0.15
22 0.37
3 -0.52
32 0.15
33 0.15
34 0.15
35 0.15
36 0.15
37 0.15
38 0.15
4 0.6
5 -0.71
6 -0.57
7 0.91
8 0.06
9 0.49

> <PUBCHEM_EFFECTIVE_ROTOR_COUNT>
5

> <PUBCHEM_PHARMACOPHORE_FEATURES>
9
1 1 acceptor
1 2 acceptor
1 2 anion
1 3 acceptor
3 4 6 17 cation
3 5 6 22 cation
4 8 10 11 12 hydrophobe
5 4 5 6 17 22 rings
6 15 16 18 19 20 21 rings

> <PUBCHEM_HEAVY_ATOM_COUNT>
22

> <PUBCHEM_ATOM_DEF_STEREO_COUNT>
0

> <PUBCHEM_ATOM_UDEF_STEREO_COUNT>
0

> <PUBCHEM_BOND_DEF_STEREO_COUNT>
1

> <PUBCHEM_BOND_UDEF_STEREO_COUNT>
0

> <PUBCHEM_ISOTOPIC_ATOM_COUNT>
0

> <PUBCHEM_COMPONENT_COUNT>
1

> <PUBCHEM_CACTVS_TAUTO_COUNT>
1

> <PUBCHEM_CONFORMER_ID>
005734F400000001

> <PUBCHEM_MMFF94_ENERGY>
75.2217

> <PUBCHEM_FEATURE_SELFOVERLAP>
48.544

> <PUBCHEM_SHAPE_FINGERPRINT>
11132069 177 17203890772983285629
11578080 2 17970042604174390909
12160290 23 17986402079097300869
12363563 72 18271523199426070215
12553582 1 18272099335108678935
12596599 1 17896038750507357178
12596602 18 18333728040362089816
12633257 1 18126588897316875355
12788726 201 18338255802916493625
12824470 246 18113341933225921875
12892183 10 18270666586027806642
13009979 54 18262242110570943956
133893 2 17697016399744983165
13583140 156 17416954046647536254
13631057 29 17462587296472610850
13764800 53 17773047366401289929
14081887 123 18130233657422925337
14178342 30 18192998119233053510
14251757 17 15719389581280001675
14787075 74 17831870409954036244
15375462 189 18189628309341042055
15475509 35 17681292267161756323
173720 79 18118127974783830677
17974551 9 17338126639068631234
1813 80 17846225509185672341
18219364 16 16343408528068930362
18222031 100 17845377807274985391
18981168 100 15912770445085302586
200 152 17894914057101027214
20097449 115 18200885087932436365
20600515 1 18059859531582836451
21069387 34 16298109786907343110
21304303 282 17905302058540925373
21486144 27 15482674576237587814
21524375 3 17193494641777964789
23366157 5 17832710445649397357
23419403 2 18122596557068070845
23557571 272 17845950536568181108
23558518 356 18121229683768179955
23559900 14 17386280004014446118
23598288 3 18412543189223683511
312423 11 18188507804108003494
33382 64 17096384984696821683
3411729 13 17769661119885961953
392239 28 18266444572782247826
5902787 121 18197504128315880791
6049 1 16988015885822910652
633830 44 13038894574008851002
7097593 13 17974288720933852082
7615 1 18115037320290525068
81228 2 18058466308917398557
9981440 41 17199930177581609178

> <PUBCHEM_SHAPE_MULTIPOLES>
415.22
8.48
2.74
1.82
3.62
2.1
-0.18
-4.99
1.85
-2.47
1.4
1.3
-0.2
-1.33

> <PUBCHEM_SHAPE_SELFOVERLAP>
885.18

> <PUBCHEM_SHAPE_VOLUME>
233.1

> <PUBCHEM_COORDINATE_TYPE>
2
5
10

$$$$
