2087586
  -OEChem-01171809503D

 34 35  0     0  0  0  0  0  0999 V2000
    0.7051   -0.1034    1.2877 S   0  0  0  0  0  0  0  0  0  0  0  0
    3.4479   -1.3828    1.4760 S   0  0  0  0  0  0  0  0  0  0  0  0
   -4.5413   -0.0970   -0.1508 O   0  0  0  0  0  0  0  0  0  0  0  0
   -4.0851    2.0690    0.5003 O   0  0  0  0  0  0  0  0  0  0  0  0
   -6.1907   -2.1252   -0.7796 O   0  0  0  0  0  0  0  0  0  0  0  0
    2.8694    0.5319   -0.1524 N   0  0  0  0  0  0  0  0  0  0  0  0
   -8.0819   -0.8651   -0.4176 N   0  0  0  0  0  0  0  0  0  0  0  0
   -1.3031    1.6227    0.3877 C   0  0  0  0  0  0  0  0  0  0  0  0
   -2.2834    0.4923    0.0672 C   0  0  0  0  0  0  0  0  0  0  0  0
    0.1646    1.2431    0.1938 C   0  0  0  0  0  0  0  0  0  0  0  0
    4.7052   -0.8113    0.4437 C   0  0  0  0  0  0  0  0  0  0  0  0
    4.2047    0.2181   -0.3594 C   0  0  0  0  0  0  0  0  0  0  0  0
    2.3908   -0.2445    0.7803 C   0  0  0  0  0  0  0  0  0  0  0  0
   -3.7220    0.9482    0.1708 C   0  0  0  0  0  0  0  0  0  0  0  0
    6.0382   -1.2429    0.3510 C   0  0  0  0  0  0  0  0  0  0  0  0
    5.0714    0.8358   -1.2870 C   0  0  0  0  0  0  0  0  0  0  0  0
    6.8746   -0.6148   -0.5752 C   0  0  0  0  0  0  0  0  0  0  0  0
    6.3996    0.4113   -1.3846 C   0  0  0  0  0  0  0  0  0  0  0  0
   -5.9446    0.1773   -0.0864 C   0  0  0  0  0  0  0  0  0  0  0  0
   -6.7193   -1.0627   -0.4655 C   0  0  0  0  0  0  0  0  0  0  0  0
   -1.5217    2.4808   -0.2613 H   0  0  0  0  0  0  0  0  0  0  0  0
   -1.4650    1.9737    1.4153 H   0  0  0  0  0  0  0  0  0  0  0  0
   -2.1537   -0.3415    0.7645 H   0  0  0  0  0  0  0  0  0  0  0  0
   -2.1124    0.1364   -0.9550 H   0  0  0  0  0  0  0  0  0  0  0  0
    0.3239    0.9458   -0.8488 H   0  0  0  0  0  0  0  0  0  0  0  0
    0.7815    2.1269    0.3909 H   0  0  0  0  0  0  0  0  0  0  0  0
    6.4160   -2.0434    0.9797 H   0  0  0  0  0  0  0  0  0  0  0  0
    4.7107    1.6383   -1.9243 H   0  0  0  0  0  0  0  0  0  0  0  0
    7.9100   -0.9337   -0.6629 H   0  0  0  0  0  0  0  0  0  0  0  0
    7.0649    0.8880   -2.0992 H   0  0  0  0  0  0  0  0  0  0  0  0
   -6.2172    0.4662    0.9349 H   0  0  0  0  0  0  0  0  0  0  0  0
   -6.1961    0.9798   -0.7889 H   0  0  0  0  0  0  0  0  0  0  0  0
   -8.7264   -1.6141   -0.6478 H   0  0  0  0  0  0  0  0  0  0  0  0
   -8.4923    0.0252   -0.1540 H   0  0  0  0  0  0  0  0  0  0  0  0
  1 10  1  0  0  0  0
  1 13  1  0  0  0  0
  2 11  1  0  0  0  0
  2 13  1  0  0  0  0
  3 14  1  0  0  0  0
  3 19  1  0  0  0  0
  4 14  2  0  0  0  0
  5 20  2  0  0  0  0
  6 12  1  0  0  0  0
  6 13  2  0  0  0  0
  7 20  1  0  0  0  0
  7 33  1  0  0  0  0
  7 34  1  0  0  0  0
  8  9  1  0  0  0  0
  8 10  1  0  0  0  0
  8 21  1  0  0  0  0
  8 22  1  0  0  0  0
  9 14  1  0  0  0  0
  9 23  1  0  0  0  0
  9 24  1  0  0  0  0
 10 25  1  0  0  0  0
 10 26  1  0  0  0  0
 11 12  1  0  0  0  0
 11 15  2  0  0  0  0
 12 16  2  0  0  0  0
 15 17  1  0  0  0  0
 15 27  1  0  0  0  0
 16 18  1  0  0  0  0
 16 28  1  0  0  0  0
 17 18  2  0  0  0  0
 17 29  1  0  0  0  0
 18 30  1  0  0  0  0
 19 20  1  0  0  0  0
 19 31  1  0  0  0  0
 19 32  1  0  0  0  0
M  END
> <PUBCHEM_COMPOUND_CID>
2087586

> <PUBCHEM_CONFORMER_RMSD>
0.8

> <PUBCHEM_CONFORMER_DIVERSEORDER>
1
267
222
200
369
191
166
352
342
49
339
180
251
334
14
48
188
248
68
26
258
330
62
247
60
151
393
85
65
172
317
353
243
275
349
253
266
43
234
283
398
376
289
182
155
130
347
382
246
67
30
217
104
83
346
297
354
401
323
368
168
254
263
379
212
344
397
391
388
4
359
389
42
241
34
127
59
5
364
384
337
282
394
20
400
79
216
124
303
82
215
70
321
154
250
345
201
132
69
307
51
138
325
204
290
375
371
137
147
15
181
264
213
228
336
58
115
35
171
370
114
41
186
196
3
298
189
120
47
6
53
296
363
244
95
193
195
270
126
12
304
301
357
125
33
152
320
281
198
338
396
29
333
399
27
144
175
286
71
73
238
54
329
220
358
381
99
230
170
227
77
402
387
102
156
377
205
169
158
78
322
98
256
219
106
326
374
133
194
116
121
324
211
225
378
74
134
360
404
315
19
94
343
40
38
17
327
16
24
294
249
55
39
174
37
88
367
192
288
84
299
119
135
148
50
7
164
350
109
184
316
107
255
300
269
86
312
10
162
140
277
153
23
165
110
72
150
36
362
355
280
235
332
284
160
122
226
13
87
386
142
239
96
21
395
103
292
314
44
224
203
18
259
405
240
76
383
340
199
287
92
157
273
365
372
80
279
31
117
9
123
2
45
218
313
75
25
293
177
149
8
93
351
91
231
136
311
245
108
274
366
61
385
214
221
278
302
118
272
361
57
28
308
64
331
113
285
229
185
237
318
163
310
348
105
305
309
131
190
257
187
206
207
209
380
202
161
335
97
210
56
271
265
112
146
22
208
129
32
167
100
52
81
392
46
183
328
111
11
390
252
291
176
159
101
173
223
233
141
373
341
260
128
276
319
242
262
143
66
90
306
178
261
89
63
236
197
268
145
295
403
179
139
356
232

> <PUBCHEM_MMFF94_PARTIAL_CHARGES>
25
1 -0.29
10 0.23
11 0.04
12 0.23
13 0.43
14 0.66
15 -0.15
16 -0.15
17 -0.15
18 -0.15
19 0.34
2 -0.08
20 0.57
27 0.15
28 0.15
29 0.15
3 -0.43
30 0.15
33 0.37
34 0.37
4 -0.57
5 -0.57
6 -0.57
7 -0.8
9 0.06

> <PUBCHEM_EFFECTIVE_ROTOR_COUNT>
8

> <PUBCHEM_PHARMACOPHORE_FEATURES>
7
1 4 acceptor
1 5 acceptor
1 6 acceptor
1 7 donor
4 1 8 9 10 hydrophobe
5 2 6 11 12 13 rings
6 11 12 15 16 17 18 rings

> <PUBCHEM_HEAVY_ATOM_COUNT>
20

> <PUBCHEM_ATOM_DEF_STEREO_COUNT>
0

> <PUBCHEM_ATOM_UDEF_STEREO_COUNT>
0

> <PUBCHEM_BOND_DEF_STEREO_COUNT>
0

> <PUBCHEM_BOND_UDEF_STEREO_COUNT>
0

> <PUBCHEM_ISOTOPIC_ATOM_COUNT>
0

> <PUBCHEM_COMPONENT_COUNT>
1

> <PUBCHEM_CACTVS_TAUTO_COUNT>
2

> <PUBCHEM_CONFORMER_ID>
001FDAA200000001

> <PUBCHEM_MMFF94_ENERGY>
28.0718

> <PUBCHEM_FEATURE_SELFOVERLAP>
35.594

> <PUBCHEM_SHAPE_FINGERPRINT>
10 15 10592043583525643669
10299344 5 18409732850751778513
10595046 47 18260830354467678264
10693767 8 18046067061211391674
11524674 6 16200430291346837447
11646440 116 15626506094555833434
11761917 142 11747753410671576623
117890 112 10881402032299741944
11963148 33 18272925020823043343
12236239 1 18335423422535444472
13288520 33 18343581842143042993
13668630 136 18272936003137638950
13673619 4 17704069603691777713
13685833 64 16200434667295836928
14123256 10 18113056043054492475
14123256 34 17703792526402563161
1420 363 16702020863865092880
14251764 30 17632577145328470641
14341114 176 13758354462514321368
14344974 204 16414339264939872287
14347424 109 10015586086992040478
14528608 73 18041001726393382368
14729087 3 11746934296030204335
14767858 380 18113900463515570952
15003188 100 16805326621572648628
15183329 4 18259703402325477395
15238133 3 8502364551632247354
15348495 7 14476666559817680479
15352257 5 17632863018536835439
16079462 125 14129058127385581621
18335252 114 16732996327972703126
18335252 98 17632859724966305598
20157964 124 16443064985140384714
20281389 69 10592045760895091459
21054139 6 18335420145264479274
21150785 3 18187365441027025677
21196832 93 17823426079212479315
21267235 1 18342177787137139433
21315759 40 18410294675334273002
21344244 181 16200444550680620878
21521239 73 18187650163864532970
21591340 7 10375870763210899817
21623969 137 16200156482174437308
21774942 28 13696133077549173598
220451 1 18409449142397582905
221357 26 17530964670652840060
22956985 138 17698453126641500478
2297311 6 17846501413669369673
2303208 19 16988841665935896593
23035841 295 18272652350971237507
23081809 10 18114181891290216440
23522609 53 18195275293487411025
23559900 14 18265327499286853713
246663 6 17418097619695617735
2767999 5 11819272252695701535
300161 21 12829206672304422649
3004659 81 18334852840224574273
3009799 131 14490190509979089479
34797466 226 17632861953986286632
351380 3 18342452647405193743
4325135 7 18113618984233486494
465052 167 17989205962232606140
5104073 3 12966575176013545274
5283384 27 15647060404081181516
5385378 56 9583250434885178548
57634706 306 15937262243231069276
59682541 52 14779537942974496352
8863177 126 17774714385264463851

> <PUBCHEM_SHAPE_MULTIPOLES>
391.72
22.65
1.63
1.16
24.69
0.08
0.02
7.57
-9.09
1.02
0.09
-0.88
0.12
-2.41

> <PUBCHEM_SHAPE_SELFOVERLAP>
789.49

> <PUBCHEM_SHAPE_VOLUME>
229.8

> <PUBCHEM_COORDINATE_TYPE>
2
5
10

$$$$
