46902349
  -OEChem-01171810173D

 94100  0     1  0  0  0  0  0999 V2000
   -3.0224   -2.1071    1.0139 O   0  0  0  0  0  0  0  0  0  0  0  0
   -1.6603    0.2132   -0.6980 O   0  0  0  0  0  0  0  0  0  0  0  0
   -2.6790   -0.0840    2.0230 O   0  0  0  0  0  0  0  0  0  0  0  0
    1.2309   -2.9800    0.2455 N   0  0  1  0  0  0  0  0  0  0  0  0
   -2.3315   -1.7579   -1.7112 N   0  0  0  0  0  0  0  0  0  0  0  0
    2.8982   -0.4292   -1.9289 N   0  0  0  0  0  0  0  0  0  0  0  0
   -3.7429    0.1450   -1.7330 N   0  0  0  0  0  0  0  0  0  0  0  0
   -4.8033   -0.7714    1.3195 N   0  0  0  0  0  0  0  0  0  0  0  0
    1.3810   -2.3075   -1.0763 C   0  0  1  0  0  0  0  0  0  0  0  0
   -1.2155   -3.2604   -0.0697 C   0  0  1  0  0  0  0  0  0  0  0  0
   -1.1208   -2.4747   -1.3948 C   0  0  2  0  0  0  0  0  0  0  0  0
    0.0948   -1.5403   -1.4182 C   0  0  0  0  0  0  0  0  0  0  0  0
    0.1330   -3.9548    0.2123 C   0  0  0  0  0  0  0  0  0  0  0  0
    2.5880   -1.4207   -1.0421 C   0  0  0  0  0  0  0  0  0  0  0  0
    2.4958   -3.6023    0.6913 C   0  0  0  0  0  0  0  0  0  0  0  0
   -1.6371   -2.3949    1.1277 C   0  0  2  0  0  0  0  0  0  0  0  0
    3.6184   -1.5240   -0.1311 C   0  0  0  0  0  0  0  0  0  0  0  0
    3.5816   -2.5339    0.9627 C   0  0  0  0  0  0  0  0  0  0  0  0
    4.5841   -0.5340   -0.4567 C   0  0  0  0  0  0  0  0  0  0  0  0
    4.1080    0.1387   -1.5875 C   0  0  0  0  0  0  0  0  0  0  0  0
   -1.3656   -3.1004    2.4411 C   0  0  0  0  0  0  0  0  0  0  0  0
   -3.3526   -2.5043   -2.4559 C   0  0  0  0  0  0  0  0  0  0  0  0
   -2.5251   -0.4040   -1.3235 C   0  0  0  0  0  0  0  0  0  0  0  0
    5.8200   -0.1411    0.0949 C   0  0  0  0  0  0  0  0  0  0  0  0
    4.8121    1.1860   -2.1927 C   0  0  0  0  0  0  0  0  0  0  0  0
    6.5328    0.9056   -0.5006 C   0  0  0  0  0  0  0  0  0  0  0  0
    6.0350    1.5574   -1.6267 C   0  0  0  0  0  0  0  0  0  0  0  0
   -3.4402   -0.8934    1.5074 C   0  0  0  0  0  0  0  0  0  0  0  0
    7.8031    1.3138    0.0617 C   0  0  0  0  0  0  0  0  0  0  0  0
   -4.2208    1.4587   -1.5010 C   0  0  0  0  0  0  0  0  0  0  0  0
    8.0370    1.1761    1.4298 C   0  0  0  0  0  0  0  0  0  0  0  0
    8.7927    1.8455   -0.7652 C   0  0  0  0  0  0  0  0  0  0  0  0
   -5.4687    1.8605   -1.9777 C   0  0  0  0  0  0  0  0  0  0  0  0
   -3.4261    2.3543   -0.7856 C   0  0  0  0  0  0  0  0  0  0  0  0
   -5.6376    0.3119    1.6770 C   0  0  0  0  0  0  0  0  0  0  0  0
    9.2607    1.5701    1.9713 C   0  0  0  0  0  0  0  0  0  0  0  0
   10.0162    2.2398   -0.2238 C   0  0  0  0  0  0  0  0  0  0  0  0
   -5.9218    3.1580   -1.7389 C   0  0  0  0  0  0  0  0  0  0  0  0
   -6.3413    0.9224   -2.7468 C   0  0  0  0  0  0  0  0  0  0  0  0
   10.2504    2.1019    1.1444 C   0  0  0  0  0  0  0  0  0  0  0  0
   -3.8791    3.6519   -0.5468 C   0  0  0  0  0  0  0  0  0  0  0  0
   -7.0072    0.2769    1.4148 C   0  0  0  0  0  0  0  0  0  0  0  0
   -5.0750    1.4260    2.3000 C   0  0  0  0  0  0  0  0  0  0  0  0
   -5.1268    4.0537   -1.0236 C   0  0  0  0  0  0  0  0  0  0  0  0
    9.5112    1.4245    3.4346 C   0  0  0  0  0  0  0  0  0  0  0  0
   -7.8141    1.3561    1.7756 C   0  0  0  0  0  0  0  0  0  0  0  0
   -7.6372   -0.9031    0.7489 C   0  0  0  0  0  0  0  0  0  0  0  0
   -5.8818    2.5051    2.6607 C   0  0  0  0  0  0  0  0  0  0  0  0
   -7.2513    2.4703    2.3983 C   0  0  0  0  0  0  0  0  0  0  0  0
    1.5585   -3.0662   -1.8527 H   0  0  0  0  0  0  0  0  0  0  0  0
   -1.9767   -4.0425   -0.2032 H   0  0  0  0  0  0  0  0  0  0  0  0
   -0.9552   -3.2006   -2.2040 H   0  0  0  0  0  0  0  0  0  0  0  0
    0.1784   -1.0595   -2.4012 H   0  0  0  0  0  0  0  0  0  0  0  0
    0.0835   -0.7510   -0.6684 H   0  0  0  0  0  0  0  0  0  0  0  0
    0.3211   -4.6857   -0.5877 H   0  0  0  0  0  0  0  0  0  0  0  0
    0.0989   -4.5570    1.1254 H   0  0  0  0  0  0  0  0  0  0  0  0
    2.8526   -4.3174   -0.0621 H   0  0  0  0  0  0  0  0  0  0  0  0
    2.3398   -4.1621    1.6216 H   0  0  0  0  0  0  0  0  0  0  0  0
   -1.0463   -1.4729    1.1343 H   0  0  0  0  0  0  0  0  0  0  0  0
    3.3612   -2.0212    1.9072 H   0  0  0  0  0  0  0  0  0  0  0  0
    4.5567   -3.0221    1.0681 H   0  0  0  0  0  0  0  0  0  0  0  0
    2.3320   -0.1477   -2.7174 H   0  0  0  0  0  0  0  0  0  0  0  0
   -1.7894   -4.1111    2.4487 H   0  0  0  0  0  0  0  0  0  0  0  0
   -1.8561   -2.5680    3.2647 H   0  0  0  0  0  0  0  0  0  0  0  0
   -0.3024   -3.1465    2.6929 H   0  0  0  0  0  0  0  0  0  0  0  0
   -3.0669   -3.5536   -2.5721 H   0  0  0  0  0  0  0  0  0  0  0  0
   -4.3008   -2.4667   -1.9110 H   0  0  0  0  0  0  0  0  0  0  0  0
   -3.4723   -2.0514   -3.4443 H   0  0  0  0  0  0  0  0  0  0  0  0
    6.1936   -0.6916    0.9528 H   0  0  0  0  0  0  0  0  0  0  0  0
    4.4222    1.6989   -3.0657 H   0  0  0  0  0  0  0  0  0  0  0  0
    6.5523    2.3945   -2.0894 H   0  0  0  0  0  0  0  0  0  0  0  0
   -4.3691   -0.4433   -2.2680 H   0  0  0  0  0  0  0  0  0  0  0  0
   -5.2525   -1.5632    0.8689 H   0  0  0  0  0  0  0  0  0  0  0  0
    7.2768    0.7981    2.1088 H   0  0  0  0  0  0  0  0  0  0  0  0
    8.6692    1.9423   -1.8403 H   0  0  0  0  0  0  0  0  0  0  0  0
   -2.4528    2.1349   -0.3744 H   0  0  0  0  0  0  0  0  0  0  0  0
   10.7897    2.6476   -0.8681 H   0  0  0  0  0  0  0  0  0  0  0  0
   -6.8916    3.4876   -2.1020 H   0  0  0  0  0  0  0  0  0  0  0  0
   -7.3067    1.3775   -2.9944 H   0  0  0  0  0  0  0  0  0  0  0  0
   -6.5535    0.0206   -2.1659 H   0  0  0  0  0  0  0  0  0  0  0  0
   -5.8619    0.6425   -3.6908 H   0  0  0  0  0  0  0  0  0  0  0  0
   11.2080    2.4132    1.5534 H   0  0  0  0  0  0  0  0  0  0  0  0
   -3.2626    4.3498    0.0124 H   0  0  0  0  0  0  0  0  0  0  0  0
   -4.0260    1.5310    2.5368 H   0  0  0  0  0  0  0  0  0  0  0  0
   -5.4800    5.0635   -0.8361 H   0  0  0  0  0  0  0  0  0  0  0  0
    9.0551    0.5062    3.8198 H   0  0  0  0  0  0  0  0  0  0  0  0
    9.0933    2.2802    3.9742 H   0  0  0  0  0  0  0  0  0  0  0  0
   10.5830    1.3657    3.6527 H   0  0  0  0  0  0  0  0  0  0  0  0
   -8.8829    1.3458    1.5787 H   0  0  0  0  0  0  0  0  0  0  0  0
   -7.1578   -1.1144   -0.2114 H   0  0  0  0  0  0  0  0  0  0  0  0
   -7.5641   -1.7863    1.3921 H   0  0  0  0  0  0  0  0  0  0  0  0
   -8.7002   -0.7341    0.5446 H   0  0  0  0  0  0  0  0  0  0  0  0
   -5.4446    3.3738    3.1445 H   0  0  0  0  0  0  0  0  0  0  0  0
   -7.8792    3.3111    2.6783 H   0  0  0  0  0  0  0  0  0  0  0  0
  1 16  1  0  0  0  0
  1 28  1  0  0  0  0
  2 23  2  0  0  0  0
  3 28  2  0  0  0  0
  4  9  1  0  0  0  0
  4 13  1  0  0  0  0
  4 15  1  0  0  0  0
  5 11  1  0  0  0  0
  5 22  1  0  0  0  0
  5 23  1  0  0  0  0
  6 14  1  0  0  0  0
  6 20  1  0  0  0  0
  6 62  1  0  0  0  0
  7 23  1  0  0  0  0
  7 30  1  0  0  0  0
  7 72  1  0  0  0  0
  8 28  1  0  0  0  0
  8 35  1  0  0  0  0
  8 73  1  0  0  0  0
  9 12  1  0  0  0  0
  9 14  1  0  0  0  0
  9 50  1  0  0  0  0
 10 11  1  0  0  0  0
 10 13  1  0  0  0  0
 10 16  1  0  0  0  0
 10 51  1  0  0  0  0
 11 12  1  0  0  0  0
 11 52  1  0  0  0  0
 12 53  1  0  0  0  0
 12 54  1  0  0  0  0
 13 55  1  0  0  0  0
 13 56  1  0  0  0  0
 14 17  2  0  0  0  0
 15 18  1  0  0  0  0
 15 57  1  0  0  0  0
 15 58  1  0  0  0  0
 16 21  1  0  0  0  0
 16 59  1  0  0  0  0
 17 18  1  0  0  0  0
 17 19  1  0  0  0  0
 18 60  1  0  0  0  0
 18 61  1  0  0  0  0
 19 20  2  0  0  0  0
 19 24  1  0  0  0  0
 20 25  1  0  0  0  0
 21 63  1  0  0  0  0
 21 64  1  0  0  0  0
 21 65  1  0  0  0  0
 22 66  1  0  0  0  0
 22 67  1  0  0  0  0
 22 68  1  0  0  0  0
 24 26  2  0  0  0  0
 24 69  1  0  0  0  0
 25 27  2  0  0  0  0
 25 70  1  0  0  0  0
 26 27  1  0  0  0  0
 26 29  1  0  0  0  0
 27 71  1  0  0  0  0
 29 31  1  0  0  0  0
 29 32  2  0  0  0  0
 30 33  1  0  0  0  0
 30 34  2  0  0  0  0
 31 36  2  0  0  0  0
 31 74  1  0  0  0  0
 32 37  1  0  0  0  0
 32 75  1  0  0  0  0
 33 38  2  0  0  0  0
 33 39  1  0  0  0  0
 34 41  1  0  0  0  0
 34 76  1  0  0  0  0
 35 42  1  0  0  0  0
 35 43  2  0  0  0  0
 36 40  1  0  0  0  0
 36 45  1  0  0  0  0
 37 40  2  0  0  0  0
 37 77  1  0  0  0  0
 38 44  1  0  0  0  0
 38 78  1  0  0  0  0
 39 79  1  0  0  0  0
 39 80  1  0  0  0  0
 39 81  1  0  0  0  0
 40 82  1  0  0  0  0
 41 44  2  0  0  0  0
 41 83  1  0  0  0  0
 42 46  2  0  0  0  0
 42 47  1  0  0  0  0
 43 48  1  0  0  0  0
 43 84  1  0  0  0  0
 44 85  1  0  0  0  0
 45 86  1  0  0  0  0
 45 87  1  0  0  0  0
 45 88  1  0  0  0  0
 46 49  1  0  0  0  0
 46 89  1  0  0  0  0
 47 90  1  0  0  0  0
 47 91  1  0  0  0  0
 47 92  1  0  0  0  0
 48 49  2  0  0  0  0
 48 93  1  0  0  0  0
 49 94  1  0  0  0  0
M  END
> <PUBCHEM_COMPOUND_CID>
46902349

> <PUBCHEM_CONFORMER_RMSD>
1.2

> <PUBCHEM_CONFORMER_DIVERSEORDER>
1
12
11
22
3
31
9
15
4
29
17
7
33
27
26
8
19
32
2
34
10
16
25
24
20
21
23
14
13
28
6
30
5
18

> <PUBCHEM_MMFF94_PARTIAL_CHARGES>
61
1 -0.43
11 0.3
13 0.27
14 -0.33
15 0.27
16 0.28
17 -0.18
18 0.18
2 -0.57
20 -0.15
22 0.3
23 0.69
24 -0.15
25 -0.15
27 -0.15
28 0.78
3 -0.57
30 0.12
31 -0.15
32 -0.15
33 -0.14
34 -0.15
35 0.12
36 -0.14
37 -0.15
38 -0.15
39 0.14
4 -0.81
40 -0.15
41 -0.15
42 -0.14
43 -0.15
44 -0.15
45 0.14
46 -0.15
47 0.14
48 -0.15
49 -0.15
5 -0.66
6 0.03
62 0.27
69 0.15
7 -0.55
70 0.15
71 0.15
72 0.37
73 0.37
74 0.15
75 0.15
76 0.15
77 0.15
78 0.15
8 -0.55
82 0.15
83 0.15
84 0.15
85 0.15
89 0.15
9 0.45
93 0.15
94 0.15

> <PUBCHEM_EFFECTIVE_ROTOR_COUNT>
11.2

> <PUBCHEM_PHARMACOPHORE_FEATURES>
14
1 2 acceptor
1 3 acceptor
1 4 cation
1 6 cation
1 6 donor
1 7 donor
1 8 donor
5 6 14 17 19 20 rings
6 19 20 24 25 26 27 rings
6 29 31 32 36 37 40 rings
6 30 33 34 38 41 44 rings
6 35 42 43 46 48 49 rings
6 4 9 10 11 12 13 rings
6 4 9 14 15 17 18 rings

> <PUBCHEM_HEAVY_ATOM_COUNT>
49

> <PUBCHEM_ATOM_DEF_STEREO_COUNT>
4

> <PUBCHEM_ATOM_UDEF_STEREO_COUNT>
0

> <PUBCHEM_BOND_DEF_STEREO_COUNT>
0

> <PUBCHEM_BOND_UDEF_STEREO_COUNT>
0

> <PUBCHEM_ISOTOPIC_ATOM_COUNT>
0

> <PUBCHEM_COMPONENT_COUNT>
1

> <PUBCHEM_CACTVS_TAUTO_COUNT>
4

> <PUBCHEM_CONFORMER_ID>
02CBAC4D00000001

> <PUBCHEM_MMFF94_ENERGY>
158.3558

> <PUBCHEM_FEATURE_SELFOVERLAP>
71.249

> <PUBCHEM_SHAPE_FINGERPRINT>
10533779 1 18342738494485312168
10838868 160 18409453557740339089
10930396 42 17967539008435509497
10952577 141 15194744328585621451
11135609 201 18341334418183659595
11479125 193 18265896861188305481
117089 54 9655569708178914952
11828042 74 10952058857614809259
12061779 8 17559402349125719313
13690498 29 12175625083512112174
13782708 43 11746924409732900926
14415361 349 8718562618239763920
15131766 46 17987241028518546097
15145343 59 16845575310175873476
15448158 71 18335424577892320422
15510800 12 7853574621518431392
15513586 35 18127699214977347553
16067689 68 13695872524028139385
19246450 95 17095233709547908278
19304671 126 17774452568748466036
21867018 265 13973681767230999900
25269216 80 15769766979609157933
3918712 181 17774732939433727017
44802255 64 17489298750638273606
5776283 40 18270666645561672056
5937810 71 17060337422459728480
6691757 9 18261105318284557102

> <PUBCHEM_SHAPE_MULTIPOLES>
965.88
29.97
4.73
3.01
60.29
1.33
-0.89
-34.2
-14.42
-3.05
-0.08
-2.29
-1.07
1.1

> <PUBCHEM_SHAPE_SELFOVERLAP>
2126.678

> <PUBCHEM_SHAPE_VOLUME>
518.1

> <PUBCHEM_COORDINATE_TYPE>
2
5
10

$$$$
