1862923
  -OEChem-01171809523D

 40 43  0     0  0  0  0  0  0999 V2000
   -4.5259    2.4830    0.1399 Cl  0  0  0  0  0  0  0  0  0  0  0  0
   -1.4608    1.5840    0.3307 O   0  0  0  0  0  0  0  0  0  0  0  0
    0.9024    1.4561    0.5587 N   0  0  0  0  0  0  0  0  0  0  0  0
   -2.7400   -1.6497   -0.3239 N   0  0  0  0  0  0  0  0  0  0  0  0
   -4.6221   -0.0970   -0.2831 N   0  0  0  0  0  0  0  0  0  0  0  0
    1.8361   -0.7942    0.2847 C   0  0  0  0  0  0  0  0  0  0  0  0
    0.5617   -1.3643    0.0881 C   0  0  0  0  0  0  0  0  0  0  0  0
    3.0879   -1.6327    0.3134 C   0  0  0  0  0  0  0  0  0  0  0  0
    0.4085   -2.8407   -0.1857 C   0  0  0  0  0  0  0  0  0  0  0  0
    2.9032   -3.0140   -0.3106 C   0  0  0  0  0  0  0  0  0  0  0  0
    1.6304   -3.6654    0.2129 C   0  0  0  0  0  0  0  0  0  0  0  0
    1.9282    0.5788    0.5199 C   0  0  0  0  0  0  0  0  0  0  0  0
   -0.5387   -0.4774    0.1071 C   0  0  0  0  0  0  0  0  0  0  0  0
    3.2669    1.2112    0.7490 C   0  0  0  0  0  0  0  0  0  0  0  0
    3.6354    2.3056   -0.2786 C   0  0  0  0  0  0  0  0  0  0  0  0
   -0.2915    0.8766    0.3442 C   0  0  0  0  0  0  0  0  0  0  0  0
   -1.9454   -0.5824   -0.0653 C   0  0  0  0  0  0  0  0  0  0  0  0
   -2.4562    0.6974    0.0820 C   0  0  0  0  0  0  0  0  0  0  0  0
    3.5733    1.7826   -1.7159 C   0  0  0  0  0  0  0  0  0  0  0  0
    2.7002    3.5079   -0.1270 C   0  0  0  0  0  0  0  0  0  0  0  0
   -3.8076    0.9504   -0.0261 C   0  0  0  0  0  0  0  0  0  0  0  0
   -4.0459   -1.3157   -0.4144 C   0  0  0  0  0  0  0  0  0  0  0  0
    3.8912   -1.1625   -0.2632 H   0  0  0  0  0  0  0  0  0  0  0  0
    3.4158   -1.7441    1.3541 H   0  0  0  0  0  0  0  0  0  0  0  0
   -0.4662   -3.2297    0.3478 H   0  0  0  0  0  0  0  0  0  0  0  0
    0.2218   -2.9659   -1.2596 H   0  0  0  0  0  0  0  0  0  0  0  0
    2.8477   -2.9280   -1.4035 H   0  0  0  0  0  0  0  0  0  0  0  0
    3.7719   -3.6415   -0.0818 H   0  0  0  0  0  0  0  0  0  0  0  0
    1.6836   -3.7513    1.3056 H   0  0  0  0  0  0  0  0  0  0  0  0
    1.5340   -4.6817   -0.1853 H   0  0  0  0  0  0  0  0  0  0  0  0
    3.2420    1.6632    1.7511 H   0  0  0  0  0  0  0  0  0  0  0  0
    4.1003    0.5090    0.8065 H   0  0  0  0  0  0  0  0  0  0  0  0
    4.6587    2.6372   -0.0624 H   0  0  0  0  0  0  0  0  0  0  0  0
    3.9209    2.5517   -2.4143 H   0  0  0  0  0  0  0  0  0  0  0  0
    4.2211    0.9080   -1.8371 H   0  0  0  0  0  0  0  0  0  0  0  0
    2.5588    1.5011   -2.0160 H   0  0  0  0  0  0  0  0  0  0  0  0
    2.5367    3.7705    0.9233 H   0  0  0  0  0  0  0  0  0  0  0  0
    1.7347    3.3732   -0.6227 H   0  0  0  0  0  0  0  0  0  0  0  0
    3.1597    4.3818   -0.6050 H   0  0  0  0  0  0  0  0  0  0  0  0
   -4.7266   -2.1348   -0.6205 H   0  0  0  0  0  0  0  0  0  0  0  0
  1 21  1  0  0  0  0
  2 16  1  0  0  0  0
  2 18  1  0  0  0  0
  3 12  2  0  0  0  0
  3 16  1  0  0  0  0
  4 17  1  0  0  0  0
  4 22  2  0  0  0  0
  5 21  2  0  0  0  0
  5 22  1  0  0  0  0
  6  7  2  0  0  0  0
  6  8  1  0  0  0  0
  6 12  1  0  0  0  0
  7  9  1  0  0  0  0
  7 13  1  0  0  0  0
  8 10  1  0  0  0  0
  8 23  1  0  0  0  0
  8 24  1  0  0  0  0
  9 11  1  0  0  0  0
  9 25  1  0  0  0  0
  9 26  1  0  0  0  0
 10 11  1  0  0  0  0
 10 27  1  0  0  0  0
 10 28  1  0  0  0  0
 11 29  1  0  0  0  0
 11 30  1  0  0  0  0
 12 14  1  0  0  0  0
 13 16  2  0  0  0  0
 13 17  1  0  0  0  0
 14 15  1  0  0  0  0
 14 31  1  0  0  0  0
 14 32  1  0  0  0  0
 15 19  1  0  0  0  0
 15 20  1  0  0  0  0
 15 33  1  0  0  0  0
 17 18  2  0  0  0  0
 18 21  1  0  0  0  0
 19 34  1  0  0  0  0
 19 35  1  0  0  0  0
 19 36  1  0  0  0  0
 20 37  1  0  0  0  0
 20 38  1  0  0  0  0
 20 39  1  0  0  0  0
 22 40  1  0  0  0  0
M  END
> <PUBCHEM_COMPOUND_CID>
1862923

> <PUBCHEM_CONFORMER_RMSD>
0.6

> <PUBCHEM_CONFORMER_DIVERSEORDER>
1
2

> <PUBCHEM_MMFF94_PARTIAL_CHARGES>
17
1 -0.18
12 0.17
14 0.14
16 0.4
17 0.26
18 0.14
2 -0.28
21 0.49
22 0.47
3 -0.57
4 -0.57
40 0.15
5 -0.62
6 -0.14
7 -0.14
8 0.14
9 0.14

> <PUBCHEM_EFFECTIVE_ROTOR_COUNT>
2.8

> <PUBCHEM_PHARMACOPHORE_FEATURES>
9
1 2 acceptor
1 3 acceptor
1 5 acceptor
3 15 19 20 hydrophobe
3 4 5 22 cation
5 2 13 16 17 18 rings
6 3 6 7 12 13 16 rings
6 4 5 17 18 21 22 rings
6 6 7 8 9 10 11 rings

> <PUBCHEM_HEAVY_ATOM_COUNT>
22

> <PUBCHEM_ATOM_DEF_STEREO_COUNT>
0

> <PUBCHEM_ATOM_UDEF_STEREO_COUNT>
0

> <PUBCHEM_BOND_DEF_STEREO_COUNT>
0

> <PUBCHEM_BOND_UDEF_STEREO_COUNT>
0

> <PUBCHEM_ISOTOPIC_ATOM_COUNT>
0

> <PUBCHEM_COMPONENT_COUNT>
1

> <PUBCHEM_CACTVS_TAUTO_COUNT>
5

> <PUBCHEM_CONFORMER_ID>
001C6D0B00000001

> <PUBCHEM_MMFF94_ENERGY>
46.4476

> <PUBCHEM_FEATURE_SELFOVERLAP>
45.969

> <PUBCHEM_SHAPE_FINGERPRINT>
10411042 1 17762617291879505483
10616163 171 18339921627457135267
10967382 1 18412539924858783506
11578080 2 17460300071351541502
12173636 292 18050564350576229780
12553582 1 17906729207073918978
12788726 201 17273988952077021849
13004483 165 17471282964311190658
13140716 1 18339634560163830954
138480 1 18267020549155407050
14790565 3 18122634013567704985
15196674 1 18341045234099108395
15442244 35 18198058067427577275
15475509 35 13470413305123170877
15475509 8 17125099550867605149
15502722 9 18411139129986219466
15536298 74 18272082773324310771
16087824 20 17330557544988427265
16945 1 18195806262944527666
17134986 127 18264774431826171100
17492 89 18411697669404594291
18681886 176 18341323436395538546
19591789 44 17545887486887715723
20645477 70 18336256873644767619
21267235 1 18342179904361344039
21501502 16 18413103940396402939
21524375 3 18115019852816625192
21709351 56 18338787927641594831
221490 88 18410579457177786931
22393880 68 18343589550670180556
2255824 54 18409449150771486114
2334 1 18340484555714037778
23366157 5 18188207602525574274
23559900 14 18269265777252437163
25147074 1 18059573556313758265
3060560 45 18335705000707616476
3071541 37 18409168831024543718
3091708 16 9330894915718723906
314173 41 18124037819011532415
335352 9 18053098424436024143
350125 39 18410292476242484416
352729 6 18050006898333759066
3886686 26 15667852864748271618
394222 165 18042394893546233328
4280585 95 17911530796471053070
458136 41 18338530719182555666
474 4 18334011700575041672
5104073 3 18412260597982731251
543358 83 18268433438370533203
58051976 378 18340764961164718468
6138700 20 18411705345080364406
633830 44 17967532329413256265
6443956 14 18194401096085465132
7364860 26 18411980222317167890
7808743 9 17689150536642084360
8272917 22 18411983542041914647
84936 182 18271804652838598808
9709674 26 18410011014198512387
9981440 41 18265047118872260544

> <PUBCHEM_SHAPE_MULTIPOLES>
433.81
8.17
4.16
0.84
7.41
0.91
-0.2
-3.63
-1.08
-3.82
-0.31
-0.59
-0.28
-0.77

> <PUBCHEM_SHAPE_SELFOVERLAP>
949.362

> <PUBCHEM_SHAPE_VOLUME>
237.4

> <PUBCHEM_COORDINATE_TYPE>
2
5
10

$$$$
