2767825
  -OEChem-01171810003D

 39 41  0     0  0  0  0  0  0999 V2000
    4.0630   -0.8371   -0.5486 O   0  0  0  0  0  0  0  0  0  0  0  0
    7.3786    0.3198    0.1282 O   0  0  0  0  0  0  0  0  0  0  0  0
    6.4167   -1.7649    0.3675 O   0  0  0  0  0  0  0  0  0  0  0  0
   -2.1369    0.1800    0.0044 N   0  0  0  0  0  0  0  0  0  0  0  0
   -1.2765    2.4085    0.3214 N   0  0  0  0  0  0  0  0  0  0  0  0
   -5.6181    0.1924   -0.3985 N   0  0  0  0  0  0  0  0  0  0  0  0
    0.1957    0.5926   -0.0714 C   0  0  0  0  0  0  0  0  0  0  0  0
   -1.1528    1.0901    0.0938 C   0  0  0  0  0  0  0  0  0  0  0  0
    1.1835    1.4190   -0.6069 C   0  0  0  0  0  0  0  0  0  0  0  0
    0.5076   -0.7141    0.3042 C   0  0  0  0  0  0  0  0  0  0  0  0
    2.7952   -0.3679   -0.3915 C   0  0  0  0  0  0  0  0  0  0  0  0
   -3.3807    0.6772    0.1663 C   0  0  0  0  0  0  0  0  0  0  0  0
    2.4833    0.9386   -0.7671 C   0  0  0  0  0  0  0  0  0  0  0  0
    1.8074   -1.1943    0.1442 C   0  0  0  0  0  0  0  0  0  0  0  0
   -4.4457   -0.2923    0.0688 C   0  0  0  0  0  0  0  0  0  0  0  0
   -3.6486    2.0097    0.4057 C   0  0  0  0  0  0  0  0  0  0  0  0
   -2.5467    2.8374    0.4736 C   0  0  0  0  0  0  0  0  0  0  0  0
   -4.2437   -1.6127    0.4369 C   0  0  0  0  0  0  0  0  0  0  0  0
    5.1234    0.1132   -0.4555 C   0  0  0  0  0  0  0  0  0  0  0  0
   -5.3140   -2.4924    0.3178 C   0  0  0  0  0  0  0  0  0  0  0  0
   -6.5360   -2.0313   -0.1588 C   0  0  0  0  0  0  0  0  0  0  0  0
   -6.6354   -0.6921   -0.5002 C   0  0  0  0  0  0  0  0  0  0  0  0
    6.3554   -0.5819    0.0612 C   0  0  0  0  0  0  0  0  0  0  0  0
    8.6252   -0.1976    0.6046 C   0  0  0  0  0  0  0  0  0  0  0  0
    0.9681    2.4366   -0.9239 H   0  0  0  0  0  0  0  0  0  0  0  0
   -0.2373   -1.3798    0.7335 H   0  0  0  0  0  0  0  0  0  0  0  0
    3.2162    1.6037   -1.2144 H   0  0  0  0  0  0  0  0  0  0  0  0
    2.0454   -2.2123    0.4404 H   0  0  0  0  0  0  0  0  0  0  0  0
   -4.6459    2.4084    0.5441 H   0  0  0  0  0  0  0  0  0  0  0  0
   -2.6575    3.9003    0.6598 H   0  0  0  0  0  0  0  0  0  0  0  0
   -3.2956   -1.9776    0.8185 H   0  0  0  0  0  0  0  0  0  0  0  0
    5.3347    0.5140   -1.4521 H   0  0  0  0  0  0  0  0  0  0  0  0
    4.8907    0.9112    0.2605 H   0  0  0  0  0  0  0  0  0  0  0  0
   -5.1967   -3.5349    0.5981 H   0  0  0  0  0  0  0  0  0  0  0  0
   -7.3841   -2.6989   -0.2592 H   0  0  0  0  0  0  0  0  0  0  0  0
   -7.5669   -0.2826   -0.8767 H   0  0  0  0  0  0  0  0  0  0  0  0
    8.9870   -0.9866   -0.0616 H   0  0  0  0  0  0  0  0  0  0  0  0
    8.5132   -0.5743    1.6258 H   0  0  0  0  0  0  0  0  0  0  0  0
    9.3526    0.6186    0.6094 H   0  0  0  0  0  0  0  0  0  0  0  0
  1 11  1  0  0  0  0
  1 19  1  0  0  0  0
  2 23  1  0  0  0  0
  2 24  1  0  0  0  0
  3 23  2  0  0  0  0
  4  8  1  0  0  0  0
  4 12  2  0  0  0  0
  5  8  2  0  0  0  0
  5 17  1  0  0  0  0
  6 15  1  0  0  0  0
  6 22  2  0  0  0  0
  7  8  1  0  0  0  0
  7  9  2  0  0  0  0
  7 10  1  0  0  0  0
  9 13  1  0  0  0  0
  9 25  1  0  0  0  0
 10 14  2  0  0  0  0
 10 26  1  0  0  0  0
 11 13  2  0  0  0  0
 11 14  1  0  0  0  0
 12 15  1  0  0  0  0
 12 16  1  0  0  0  0
 13 27  1  0  0  0  0
 14 28  1  0  0  0  0
 15 18  2  0  0  0  0
 16 17  2  0  0  0  0
 16 29  1  0  0  0  0
 17 30  1  0  0  0  0
 18 20  1  0  0  0  0
 18 31  1  0  0  0  0
 19 23  1  0  0  0  0
 19 32  1  0  0  0  0
 19 33  1  0  0  0  0
 20 21  2  0  0  0  0
 20 34  1  0  0  0  0
 21 22  1  0  0  0  0
 21 35  1  0  0  0  0
 22 36  1  0  0  0  0
 24 37  1  0  0  0  0
 24 38  1  0  0  0  0
 24 39  1  0  0  0  0
M  END
> <PUBCHEM_COMPOUND_CID>
2767825

> <PUBCHEM_CONFORMER_RMSD>
0.8

> <PUBCHEM_CONFORMER_DIVERSEORDER>
1
64
47
23
34
20
13
36
79
29
42
46
37
75
55
78
49
61
15
77
5
76
30
24
66
27
31
2
63
73
32
58
74
54
83
11
12
48
52
10
9
38
16
35
8
7
39
3
72
33
62
14
50
43
70
4
67
25
21
40
60
28
81
51
26
18
59
53
71
56
17
69
80
19
41
45
44
65
82
68
22
6
57

> <PUBCHEM_MMFF94_PARTIAL_CHARGES>
33
1 -0.36
10 -0.15
11 0.08
12 0.31
13 -0.15
14 -0.15
15 0.31
16 -0.15
17 0.16
18 -0.15
19 0.34
2 -0.43
20 -0.15
21 -0.15
22 0.16
23 0.66
24 0.28
25 0.15
26 0.15
27 0.15
28 0.15
29 0.15
3 -0.57
30 0.15
31 0.15
34 0.15
35 0.15
36 0.15
4 -0.62
5 -0.62
6 -0.62
8 0.62
9 -0.15

> <PUBCHEM_EFFECTIVE_ROTOR_COUNT>
6

> <PUBCHEM_PHARMACOPHORE_FEATURES>
8
1 1 acceptor
1 3 acceptor
1 4 acceptor
1 6 acceptor
3 4 5 8 cation
6 4 5 8 12 16 17 rings
6 6 15 18 20 21 22 rings
6 7 9 10 11 13 14 rings

> <PUBCHEM_HEAVY_ATOM_COUNT>
24

> <PUBCHEM_ATOM_DEF_STEREO_COUNT>
0

> <PUBCHEM_ATOM_UDEF_STEREO_COUNT>
0

> <PUBCHEM_BOND_DEF_STEREO_COUNT>
0

> <PUBCHEM_BOND_UDEF_STEREO_COUNT>
0

> <PUBCHEM_ISOTOPIC_ATOM_COUNT>
0

> <PUBCHEM_COMPONENT_COUNT>
1

> <PUBCHEM_CACTVS_TAUTO_COUNT>
1

> <PUBCHEM_CONFORMER_ID>
002A3BD100000001

> <PUBCHEM_MMFF94_ENERGY>
73.7656

> <PUBCHEM_FEATURE_SELFOVERLAP>
40.605

> <PUBCHEM_SHAPE_FINGERPRINT>
10 15 18131626808150143698
10411042 1 18339924948215629577
10595046 47 18408606929475613880
106641 1 15841549708477226719
11135609 99 18263647423327532662
11135926 11 18260263019648241631
11315181 36 18408044013676436457
11724838 91 18335139800691991596
12166972 35 17894915160844598708
12236239 1 18333171665143749332
12760667 363 18413673526543820919
13288520 33 18411982464611836789
13631057 29 18412261731627106921
13862211 1 18335141990297202318
13911882 115 17774734077362605438
13914758 101 16226038960233386452
14211702 104 18339089198392188950
14251732 16 18413670206354629672
14251764 18 18113902663641347004
14461889 52 18343579638840910994
15183329 4 11458419125145250308
15419008 47 17846775213629239392
15461852 350 18409174303530213030
15475509 8 10591766511101525146
15728490 51 18412260666850173078
16087824 20 18338237039323442901
1768 4 16558454388864875008
17780758 139 17775292655940892603
18335252 98 18060422409387048486
18681886 176 18336541706942876216
19427546 20 18336265644364112333
20028762 73 18412546526556392150
21054139 6 18259704497394496554
21130935 74 18270117899766517282
21236236 1 18411421678667753091
21267235 1 18409736188115596627
21315763 28 18410855444035015016
21365058 27 15554448509371383836
21792961 116 18113334220488278499
22224240 67 16630524051091316078
22896161 15 18413107269222800172
23081809 10 17822304448676591108
23402539 116 18335139778093671917
23559900 14 18337104691942247209
23569917 315 18261118448501533338
249057 25 18113629971456584540
3004659 81 18114176475953289907
335352 9 18411133633651953349
34797466 226 17275390924181561076
4280585 95 18334294292802665349
4325135 7 18412262839776174558
4938544 92 16701753653091912713
5104073 3 18059018250790363490
5283156 175 18334296461539467191
5385378 56 8357995393624363757
559249 180 18409167697849353991
59682541 35 18060132176823964658
6376802 137 18273223005637449209
67856867 119 18335144227949478644
7495541 125 17775284993012718344

> <PUBCHEM_SHAPE_MULTIPOLES>
461.36
20.83
2.38
0.74
28.22
0.66
-0.02
-11.2
1.19
-3.63
0.37
0.11
0.04
-0.5

> <PUBCHEM_SHAPE_SELFOVERLAP>
1005.203

> <PUBCHEM_SHAPE_VOLUME>
248.9

> <PUBCHEM_COORDINATE_TYPE>
2
5
10

$$$$
