3499691
  -OEChem-01171809353D

 44 46  0     1  0  0  0  0  0999 V2000
    3.2889   -2.5370   -1.2391 F   0  0  0  0  0  0  0  0  0  0  0  0
    5.0934   -1.3692   -1.5666 F   0  0  0  0  0  0  0  0  0  0  0  0
    4.7232   -2.2745    0.3821 F   0  0  0  0  0  0  0  0  0  0  0  0
   -5.3763   -2.0068    0.7743 O   0  0  0  0  0  0  0  0  0  0  0  0
   -6.5035    0.4106   -0.0039 O   0  0  0  0  0  0  0  0  0  0  0  0
    6.0639    1.5268    1.2167 O   0  5  0  0  0  0  0  0  0  0  0  0
    6.1132   -0.4569    0.2778 O   0  0  0  0  0  0  0  0  0  0  0  0
   -0.0827    0.9153   -0.2122 N   0  0  3  0  0  0  0  0  0  0  0  0
    5.4913    0.5656    0.6509 N   0  3  0  0  0  0  0  0  0  0  0  0
   -0.7479    2.2217   -0.1909 C   0  0  0  0  0  0  0  0  0  0  0  0
   -2.0447    2.2044   -0.9970 C   0  0  0  0  0  0  0  0  0  0  0  0
   -0.8816   -0.3209   -0.2258 C   0  0  0  0  0  0  0  0  0  0  0  0
   -2.9467    1.1117   -0.5086 C   0  0  0  0  0  0  0  0  0  0  0  0
   -2.3730   -0.1061   -0.1193 C   0  0  0  0  0  0  0  0  0  0  0  0
    1.2989    0.8232   -0.0013 C   0  0  0  0  0  0  0  0  0  0  0  0
   -4.3361    1.2751   -0.4747 C   0  0  0  0  0  0  0  0  0  0  0  0
   -3.2044   -1.1514    0.3053 C   0  0  0  0  0  0  0  0  0  0  0  0
   -5.1532    0.2331   -0.0381 C   0  0  0  0  0  0  0  0  0  0  0  0
   -4.5879   -0.9787    0.3527 C   0  0  0  0  0  0  0  0  0  0  0  0
    2.0321   -0.3155   -0.4100 C   0  0  0  0  0  0  0  0  0  0  0  0
    2.0180    1.8653    0.6297 C   0  0  0  0  0  0  0  0  0  0  0  0
    3.4079   -0.4072   -0.1995 C   0  0  0  0  0  0  0  0  0  0  0  0
    3.3939    1.7736    0.8401 C   0  0  0  0  0  0  0  0  0  0  0  0
    4.0888    0.6374    0.4255 C   0  0  0  0  0  0  0  0  0  0  0  0
    4.1229   -1.6380   -0.6555 C   0  0  0  0  0  0  0  0  0  0  0  0
   -5.6666   -2.0711    2.1692 C   0  0  0  0  0  0  0  0  0  0  0  0
   -7.2319    0.0698   -1.1818 C   0  0  0  0  0  0  0  0  0  0  0  0
   -0.1062    2.9952   -0.6305 H   0  0  0  0  0  0  0  0  0  0  0  0
   -0.9543    2.5044    0.8495 H   0  0  0  0  0  0  0  0  0  0  0  0
   -1.8328    2.0364   -2.0601 H   0  0  0  0  0  0  0  0  0  0  0  0
   -2.5347    3.1805   -0.9045 H   0  0  0  0  0  0  0  0  0  0  0  0
   -0.5716   -0.9562    0.6142 H   0  0  0  0  0  0  0  0  0  0  0  0
   -0.6989   -0.8635   -1.1615 H   0  0  0  0  0  0  0  0  0  0  0  0
   -4.7817    2.2164   -0.7871 H   0  0  0  0  0  0  0  0  0  0  0  0
   -2.7711   -2.1060    0.5949 H   0  0  0  0  0  0  0  0  0  0  0  0
    1.5189   -1.1326   -0.9106 H   0  0  0  0  0  0  0  0  0  0  0  0
    1.5143    2.7606    0.9857 H   0  0  0  0  0  0  0  0  0  0  0  0
    3.8877    2.6066    1.3341 H   0  0  0  0  0  0  0  0  0  0  0  0
   -6.1991   -1.1716    2.4939 H   0  0  0  0  0  0  0  0  0  0  0  0
   -4.7450   -2.1918    2.7473 H   0  0  0  0  0  0  0  0  0  0  0  0
   -6.3069   -2.9395    2.3461 H   0  0  0  0  0  0  0  0  0  0  0  0
   -7.1022   -0.9902   -1.4222 H   0  0  0  0  0  0  0  0  0  0  0  0
   -6.9090    0.6888   -2.0248 H   0  0  0  0  0  0  0  0  0  0  0  0
   -8.2926    0.2586   -0.9952 H   0  0  0  0  0  0  0  0  0  0  0  0
  1 25  1  0  0  0  0
  2 25  1  0  0  0  0
  3 25  1  0  0  0  0
  4 19  1  0  0  0  0
  4 26  1  0  0  0  0
  5 18  1  0  0  0  0
  5 27  1  0  0  0  0
  6  9  1  0  0  0  0
  7  9  2  0  0  0  0
  8 10  1  0  0  0  0
  8 12  1  0  0  0  0
  8 15  1  0  0  0  0
  9 24  1  0  0  0  0
 10 11  1  0  0  0  0
 10 28  1  0  0  0  0
 10 29  1  0  0  0  0
 11 13  1  0  0  0  0
 11 30  1  0  0  0  0
 11 31  1  0  0  0  0
 12 14  1  0  0  0  0
 12 32  1  0  0  0  0
 12 33  1  0  0  0  0
 13 14  1  0  0  0  0
 13 16  2  0  0  0  0
 14 17  2  0  0  0  0
 15 20  2  0  0  0  0
 15 21  1  0  0  0  0
 16 18  1  0  0  0  0
 16 34  1  0  0  0  0
 17 19  1  0  0  0  0
 17 35  1  0  0  0  0
 18 19  2  0  0  0  0
 20 22  1  0  0  0  0
 20 36  1  0  0  0  0
 21 23  2  0  0  0  0
 21 37  1  0  0  0  0
 22 24  2  0  0  0  0
 22 25  1  0  0  0  0
 23 24  1  0  0  0  0
 23 38  1  0  0  0  0
 26 39  1  0  0  0  0
 26 40  1  0  0  0  0
 26 41  1  0  0  0  0
 27 42  1  0  0  0  0
 27 43  1  0  0  0  0
 27 44  1  0  0  0  0
M  CHG  2   6  -1   9   1
M  END
> <PUBCHEM_COMPOUND_CID>
3499691

> <PUBCHEM_CONFORMER_RMSD>
0.8

> <PUBCHEM_CONFORMER_DIVERSEORDER>
1
14
9
8
5
13
3
17
15
4
18
2
20
6
10
7
12
19
16
11

> <PUBCHEM_MMFF94_PARTIAL_CHARGES>
32
1 -0.34
10 0.37
11 0.14
12 0.51
13 -0.14
14 -0.14
15 0.1
16 -0.15
17 -0.15
18 0.08
19 0.08
2 -0.34
20 -0.15
21 -0.15
22 -0.14
23 -0.15
24 0.13
25 1.16
26 0.28
27 0.28
3 -0.34
34 0.15
35 0.15
36 0.15
37 0.15
38 0.15
4 -0.36
5 -0.36
6 -0.52
7 -0.52
8 -0.84
9 0.91

> <PUBCHEM_EFFECTIVE_ROTOR_COUNT>
5.8

> <PUBCHEM_PHARMACOPHORE_FEATURES>
9
1 4 acceptor
1 5 acceptor
1 6 acceptor
1 6 anion
1 7 acceptor
1 8 cation
6 13 14 16 17 18 19 rings
6 15 20 21 22 23 24 rings
6 8 10 11 12 13 14 rings

> <PUBCHEM_HEAVY_ATOM_COUNT>
27

> <PUBCHEM_ATOM_DEF_STEREO_COUNT>
0

> <PUBCHEM_ATOM_UDEF_STEREO_COUNT>
0

> <PUBCHEM_BOND_DEF_STEREO_COUNT>
0

> <PUBCHEM_BOND_UDEF_STEREO_COUNT>
0

> <PUBCHEM_ISOTOPIC_ATOM_COUNT>
0

> <PUBCHEM_COMPONENT_COUNT>
1

> <PUBCHEM_CACTVS_TAUTO_COUNT>
1

> <PUBCHEM_CONFORMER_ID>
003566AB00000001

> <PUBCHEM_MMFF94_ENERGY>
115.7979

> <PUBCHEM_FEATURE_SELFOVERLAP>
45.781

> <PUBCHEM_SHAPE_FINGERPRINT>
10 15 18339347665835516512
10673678 19 18117848917974363708
10835480 77 18340477898489056693
11796584 16 17894908555637999707
11963148 33 18335695096450319354
12236239 1 16056881333867292005
12516196 113 18272366477742631661
12596602 18 16415478285180290947
12633257 1 16774076293271308293
12730499 353 18272089427135916152
12788726 201 15502647153775624085
13073987 5 18130505236684644952
13402501 40 18410576184175109458
13533116 47 17704351052471032890
13617811 41 17240201011072987325
13685833 64 18411983550874565765
13914758 101 17704075054617075753
14341114 176 18201725058770258400
14856354 85 14779556673812202825
14910302 57 17749947752393626263
15361156 5 18261961846490226549
15537594 2 17775001314918180196
17844677 252 18059580152487076961
1813 80 17530683229529394229
19141452 34 18272086136853325015
19377110 9 16056885732362131047
20281389 69 11383835973787542693
20645477 70 18059572443627000702
21033650 10 17024882446520609532
21065201 7 18113611266520341689
21130935 74 18131351891209244503
21267235 1 18410577275181179260
21279426 13 18267862775110022925
21623969 137 18272369780619701734
21682296 61 18130232549595936103
22122407 14 16702030819994892617
2215653 11 18410570674364649559
22224240 67 17988630948570521336
23559900 14 18334289899140902617
239999 70 18411139126361295174
3004659 81 17894636963001358956
3178227 256 18201712995214979104
335352 9 18259700117445551437
3383291 50 18041002903837421411
3633792 109 18201715116728070149
4073 2 18261113006022477971
439807 62 18187364277544894082
46194498 28 18333449867999608484
5104073 3 18271242712450230280
59755656 215 18114175307659115747
8863177 126 18410580603749393002
9995097 60 18342737416284262285

> <PUBCHEM_SHAPE_MULTIPOLES>
500.39
17.49
2.41
1.17
4.45
0.42
0.18
5.42
1.55
-0.37
0.13
0.31
0.43
3.22

> <PUBCHEM_SHAPE_SELFOVERLAP>
1089.175

> <PUBCHEM_SHAPE_VOLUME>
274.6

> <PUBCHEM_COORDINATE_TYPE>
2
5
10

$$$$
