2470212
  -OEChem-01171809513D

 36 37  0     0  0  0  0  0  0999 V2000
    5.1448    2.6641   -0.6190 Cl  0  0  0  0  0  0  0  0  0  0  0  0
    7.2145    0.1395   -0.2544 Cl  0  0  0  0  0  0  0  0  0  0  0  0
    1.3135   -1.7293   -1.0697 O   0  0  0  0  0  0  0  0  0  0  0  0
    2.4457    1.8386    0.1309 O   0  0  0  0  0  0  0  0  0  0  0  0
   -5.5064    0.2753    1.4782 O   0  0  0  0  0  0  0  0  0  0  0  0
    2.8687   -0.3633    0.7084 N   0  0  0  0  0  0  0  0  0  0  0  0
   -4.7421    0.1640   -0.7450 N   0  0  0  0  0  0  0  0  0  0  0  0
    3.7439   -1.4021    0.8540 N   0  0  0  0  0  0  0  0  0  0  0  0
    1.4717   -0.5939    1.0388 C   0  0  0  0  0  0  0  0  0  0  0  0
   -0.7004   -0.7524   -0.3427 C   0  0  0  0  0  0  0  0  0  0  0  0
    0.7316   -1.0779   -0.2010 C   0  0  0  0  0  0  0  0  0  0  0  0
   -3.3879   -0.1432   -0.6098 C   0  0  0  0  0  0  0  0  0  0  0  0
   -1.4776   -0.6096    0.7940 C   0  0  0  0  0  0  0  0  0  0  0  0
   -1.2361   -0.5976   -1.6099 C   0  0  0  0  0  0  0  0  0  0  0  0
   -2.8317   -0.3028    0.6593 C   0  0  0  0  0  0  0  0  0  0  0  0
   -2.5902   -0.2905   -1.7444 C   0  0  0  0  0  0  0  0  0  0  0  0
    3.2358    0.9029    0.2624 C   0  0  0  0  0  0  0  0  0  0  0  0
   -7.0633    0.6725   -0.3154 C   0  0  0  0  0  0  0  0  0  0  0  0
   -5.6959    0.3502    0.2687 C   0  0  0  0  0  0  0  0  0  0  0  0
    4.6774    1.0982   -0.0651 C   0  0  0  0  0  0  0  0  0  0  0  0
    4.9788   -1.1786    0.5564 C   0  0  0  0  0  0  0  0  0  0  0  0
    5.5355    0.0886    0.0750 C   0  0  0  0  0  0  0  0  0  0  0  0
   -8.1304    0.8473    0.7503 C   0  0  0  0  0  0  0  0  0  0  0  0
    1.4084   -1.3607    1.8180 H   0  0  0  0  0  0  0  0  0  0  0  0
    1.0321    0.3364    1.4112 H   0  0  0  0  0  0  0  0  0  0  0  0
   -1.0735   -0.7457    1.7925 H   0  0  0  0  0  0  0  0  0  0  0  0
   -0.6269   -0.7047   -2.5029 H   0  0  0  0  0  0  0  0  0  0  0  0
   -3.3850   -0.2088    1.5832 H   0  0  0  0  0  0  0  0  0  0  0  0
   -3.0100   -0.1678   -2.7396 H   0  0  0  0  0  0  0  0  0  0  0  0
   -5.0701    0.2641   -1.7035 H   0  0  0  0  0  0  0  0  0  0  0  0
   -6.9789    1.5922   -0.9052 H   0  0  0  0  0  0  0  0  0  0  0  0
   -7.3518   -0.1397   -0.9924 H   0  0  0  0  0  0  0  0  0  0  0  0
    5.6944   -2.0097    0.6699 H   0  0  0  0  0  0  0  0  0  0  0  0
   -8.2425   -0.0636    1.3475 H   0  0  0  0  0  0  0  0  0  0  0  0
   -9.0962    1.0748    0.2888 H   0  0  0  0  0  0  0  0  0  0  0  0
   -7.8756    1.6659    1.4314 H   0  0  0  0  0  0  0  0  0  0  0  0
  1 20  1  0  0  0  0
  2 22  1  0  0  0  0
  3 11  2  0  0  0  0
  4 17  2  0  0  0  0
  5 19  2  0  0  0  0
  6  8  1  0  0  0  0
  6  9  1  0  0  0  0
  6 17  1  0  0  0  0
  7 12  1  0  0  0  0
  7 19  1  0  0  0  0
  7 30  1  0  0  0  0
  8 21  2  0  0  0  0
  9 11  1  0  0  0  0
  9 24  1  0  0  0  0
  9 25  1  0  0  0  0
 10 11  1  0  0  0  0
 10 13  2  0  0  0  0
 10 14  1  0  0  0  0
 12 15  2  0  0  0  0
 12 16  1  0  0  0  0
 13 15  1  0  0  0  0
 13 26  1  0  0  0  0
 14 16  2  0  0  0  0
 14 27  1  0  0  0  0
 15 28  1  0  0  0  0
 16 29  1  0  0  0  0
 17 20  1  0  0  0  0
 18 19  1  0  0  0  0
 18 23  1  0  0  0  0
 18 31  1  0  0  0  0
 18 32  1  0  0  0  0
 20 22  2  0  0  0  0
 21 22  1  0  0  0  0
 21 33  1  0  0  0  0
 23 34  1  0  0  0  0
 23 35  1  0  0  0  0
 23 36  1  0  0  0  0
M  END
> <PUBCHEM_COMPOUND_CID>
2470212

> <PUBCHEM_CONFORMER_RMSD>
0.8

> <PUBCHEM_CONFORMER_DIVERSEORDER>
2
65
77
43
48
17
98
29
81
80
89
57
24
103
9
25
47
55
42
90
84
71
86
61
16
8
52
11
101
34
92
59
50
46
38
4
19
74
73
58
72
99
62
69
95
5
36
44
82
15
37
94
13
53
6
40
56
104
51
85
27
49
102
35
75
30
41
22
3
68
54
33
70
91
60
78
39
31
64
14
100
93
1
83
45
28
97
21
67
23
18
32
20
26
96
63
88
7
76
87
10
12
66
79

> <PUBCHEM_MMFF94_PARTIAL_CHARGES>
28
1 -0.14
10 0.09
11 0.42
12 0.12
13 -0.15
14 -0.15
15 -0.15
16 -0.15
17 0.62
18 0.06
19 0.57
2 -0.14
20 0.15
21 0.38
22 0.15
26 0.15
27 0.15
28 0.15
29 0.15
3 -0.57
30 0.37
33 0.06
4 -0.57
5 -0.57
6 -0.3
7 -0.55
8 -0.51
9 0.36

> <PUBCHEM_EFFECTIVE_ROTOR_COUNT>
6

> <PUBCHEM_PHARMACOPHORE_FEATURES>
8
1 23 hydrophobe
1 3 acceptor
1 4 acceptor
1 5 acceptor
1 7 donor
1 8 acceptor
6 10 12 13 14 15 16 rings
6 6 8 17 20 21 22 rings

> <PUBCHEM_HEAVY_ATOM_COUNT>
23

> <PUBCHEM_ATOM_DEF_STEREO_COUNT>
0

> <PUBCHEM_ATOM_UDEF_STEREO_COUNT>
0

> <PUBCHEM_BOND_DEF_STEREO_COUNT>
0

> <PUBCHEM_BOND_UDEF_STEREO_COUNT>
0

> <PUBCHEM_ISOTOPIC_ATOM_COUNT>
0

> <PUBCHEM_COMPONENT_COUNT>
1

> <PUBCHEM_CACTVS_TAUTO_COUNT>
9

> <PUBCHEM_CONFORMER_ID>
0025B14400000002

> <PUBCHEM_MMFF94_ENERGY>
61.2866

> <PUBCHEM_FEATURE_SELFOVERLAP>
40.597

> <PUBCHEM_SHAPE_FINGERPRINT>
10 15 16370725954648777564
10165383 225 17240486910314567610
10354089 29 18335136492760078074
10411042 1 17902788562776800890
106641 1 14490477499609418420
10670039 82 16128382532630893393
11045977 3 17967536796252928433
11796584 16 15195564632900212934
12236239 1 17989201568549582046
12403259 415 17458334226376446183
12516196 113 15647055954378965967
12596602 18 18187086161569862161
12730499 353 17531243942485271170
13167372 99 18341331089705448121
13533116 47 17822285730518376362
13685833 64 9655575223560091765
13955234 65 17822278047396922978
14123256 10 16630807699795952465
14294032 229 16915677895056353289
14341114 176 17967250888263436444
14933364 13 18259985968323867377
15183329 4 15123795067516171831
15475509 35 15502917642521196168
15690457 1 11386369257337029345
17834072 8 15339117948415989602
17857418 61 10881400933136260685
18335252 114 18131061615744317629
20281389 69 18202278091918701561
20567600 247 9007051349781050809
21033648 29 17531508949834734405
21150785 3 12463565176252429789
22122407 14 18339936982007858977
22224240 67 17749107795073494411
23402539 116 14979950376243000824
23559900 14 9582933771721089831
2838139 119 18059849554991388873
29717793 49 17632582660900051948
3004659 81 16272204202356988082
3009799 131 14333407852513216138
3472631 163 17060051605244435144
3545911 37 17676203576728477782
397830 11 17895769507802701459
4073 2 17749676301865388002
4325135 7 18060419097872168113
4340502 62 16877656868919568626
5104073 3 18115857680861497010
542803 24 18342171167806695495
5718773 13 11599467771049773036
57724786 102 18262518216612409356
59682541 35 15719399455235754173
59755656 215 15626230100025743620
59755656 520 18410005555179236135
8272917 22 18411697660930554870

> <PUBCHEM_SHAPE_MULTIPOLES>
444.52
19.86
1.6
1.23
16.7
0.77
0.28
7.83
-3.03
-2.7
0.11
1.07
-0.19
-0.82

> <PUBCHEM_SHAPE_SELFOVERLAP>
922.151

> <PUBCHEM_SHAPE_VOLUME>
253.7

> <PUBCHEM_COORDINATE_TYPE>
2
5
10

$$$$
