24982674
  -OEChem-01171810083D

 56 58  0     0  0  0  0  0  0999 V2000
    2.3514   -0.6108   -0.3976 O   0  0  0  0  0  0  0  0  0  0  0  0
    0.2660    0.7331    0.3610 O   0  0  0  0  0  0  0  0  0  0  0  0
   -0.8506    2.4894    1.3443 O   0  0  0  0  0  0  0  0  0  0  0  0
    3.9459    0.9366    0.2794 N   0  0  0  0  0  0  0  0  0  0  0  0
   -2.3339   -0.7120    0.9020 N   0  0  0  0  0  0  0  0  0  0  0  0
   -3.0151   -1.6693    0.2572 N   0  0  0  0  0  0  0  0  0  0  0  0
   -2.3001   -2.4276    2.2280 N   0  0  0  0  0  0  0  0  0  0  0  0
   -2.9907   -2.7163    1.0728 N   0  0  0  0  0  0  0  0  0  0  0  0
    5.0507    0.1419   -0.2003 C   0  0  0  0  0  0  0  0  0  0  0  0
    5.1129   -1.1997    0.5348 C   0  0  0  0  0  0  0  0  0  0  0  0
    4.9510   -0.0569   -1.7146 C   0  0  0  0  0  0  0  0  0  0  0  0
    6.2423   -2.0791    0.0049 C   0  0  0  0  0  0  0  0  0  0  0  0
    6.0797   -0.9391   -2.2419 C   0  0  0  0  0  0  0  0  0  0  0  0
    6.1421   -2.2742   -1.5052 C   0  0  0  0  0  0  0  0  0  0  0  0
    4.3070    2.2199    0.8900 C   0  0  0  0  0  0  0  0  0  0  0  0
    2.6328    0.4688    0.1318 C   0  0  0  0  0  0  0  0  0  0  0  0
    4.3635    3.3284   -0.1407 C   0  0  0  0  0  0  0  0  0  0  0  0
    1.5073    1.3435    0.6425 C   0  0  0  0  0  0  0  0  0  0  0  0
   -0.8537    1.4116    0.7664 C   0  0  0  0  0  0  0  0  0  0  0  0
   -2.0864    0.6505    0.3923 C   0  0  0  0  0  0  0  0  0  0  0  0
   -2.9447    1.2789   -0.4368 C   0  0  0  0  0  0  0  0  0  0  0  0
   -4.2179    0.7306   -0.9260 C   0  0  0  0  0  0  0  0  0  0  0  0
   -1.9022   -1.1827    2.1010 C   0  0  0  0  0  0  0  0  0  0  0  0
   -4.2479   -0.0219   -2.1002 C   0  0  0  0  0  0  0  0  0  0  0  0
   -5.3961    0.9627   -0.2163 C   0  0  0  0  0  0  0  0  0  0  0  0
   -1.1193   -0.3966    3.0720 C   0  0  0  0  0  0  0  0  0  0  0  0
   -5.4559   -0.5420   -2.5648 C   0  0  0  0  0  0  0  0  0  0  0  0
   -6.6042    0.4425   -0.6809 C   0  0  0  0  0  0  0  0  0  0  0  0
   -6.6340   -0.3098   -1.8551 C   0  0  0  0  0  0  0  0  0  0  0  0
    5.9891    0.6764   -0.0005 H   0  0  0  0  0  0  0  0  0  0  0  0
    4.1820   -1.7683    0.4503 H   0  0  0  0  0  0  0  0  0  0  0  0
    5.2638   -1.0253    1.6076 H   0  0  0  0  0  0  0  0  0  0  0  0
    4.9889    0.9158   -2.2206 H   0  0  0  0  0  0  0  0  0  0  0  0
    4.0051   -0.5157   -2.0175 H   0  0  0  0  0  0  0  0  0  0  0  0
    6.2183   -3.0536    0.5057 H   0  0  0  0  0  0  0  0  0  0  0  0
    7.2078   -1.6193    0.2497 H   0  0  0  0  0  0  0  0  0  0  0  0
    7.0362   -0.4144   -2.1265 H   0  0  0  0  0  0  0  0  0  0  0  0
    5.9411   -1.1153   -3.3146 H   0  0  0  0  0  0  0  0  0  0  0  0
    7.0029   -2.8516   -1.8605 H   0  0  0  0  0  0  0  0  0  0  0  0
    5.2449   -2.8610   -1.7381 H   0  0  0  0  0  0  0  0  0  0  0  0
    3.5655    2.4818    1.6499 H   0  0  0  0  0  0  0  0  0  0  0  0
    5.2636    2.1217    1.4152 H   0  0  0  0  0  0  0  0  0  0  0  0
    5.1416    3.1314   -0.8853 H   0  0  0  0  0  0  0  0  0  0  0  0
    3.4152    3.4355   -0.6756 H   0  0  0  0  0  0  0  0  0  0  0  0
    4.5929    4.2837    0.3413 H   0  0  0  0  0  0  0  0  0  0  0  0
    1.6160    1.4559    1.7262 H   0  0  0  0  0  0  0  0  0  0  0  0
    1.5548    2.3179    0.1478 H   0  0  0  0  0  0  0  0  0  0  0  0
   -2.7254    2.2824   -0.7960 H   0  0  0  0  0  0  0  0  0  0  0  0
   -3.3383   -0.2103   -2.6654 H   0  0  0  0  0  0  0  0  0  0  0  0
   -5.3885    1.5470    0.7006 H   0  0  0  0  0  0  0  0  0  0  0  0
   -0.0754   -0.3003    2.7644 H   0  0  0  0  0  0  0  0  0  0  0  0
   -1.5536    0.5906    3.2524 H   0  0  0  0  0  0  0  0  0  0  0  0
   -1.1137   -0.9135    4.0386 H   0  0  0  0  0  0  0  0  0  0  0  0
   -5.4793   -1.1277   -3.4790 H   0  0  0  0  0  0  0  0  0  0  0  0
   -7.5216    0.6230   -0.1282 H   0  0  0  0  0  0  0  0  0  0  0  0
   -7.5746   -0.7149   -2.2167 H   0  0  0  0  0  0  0  0  0  0  0  0
  1 16  2  0  0  0  0
  2 18  1  0  0  0  0
  2 19  1  0  0  0  0
  3 19  2  0  0  0  0
  4  9  1  0  0  0  0
  4 15  1  0  0  0  0
  4 16  1  0  0  0  0
  5  6  1  0  0  0  0
  5 20  1  0  0  0  0
  5 23  1  0  0  0  0
  6  8  2  0  0  0  0
  7  8  1  0  0  0  0
  7 23  2  0  0  0  0
  9 10  1  0  0  0  0
  9 11  1  0  0  0  0
  9 30  1  0  0  0  0
 10 12  1  0  0  0  0
 10 31  1  0  0  0  0
 10 32  1  0  0  0  0
 11 13  1  0  0  0  0
 11 33  1  0  0  0  0
 11 34  1  0  0  0  0
 12 14  1  0  0  0  0
 12 35  1  0  0  0  0
 12 36  1  0  0  0  0
 13 14  1  0  0  0  0
 13 37  1  0  0  0  0
 13 38  1  0  0  0  0
 14 39  1  0  0  0  0
 14 40  1  0  0  0  0
 15 17  1  0  0  0  0
 15 41  1  0  0  0  0
 15 42  1  0  0  0  0
 16 18  1  0  0  0  0
 17 43  1  0  0  0  0
 17 44  1  0  0  0  0
 17 45  1  0  0  0  0
 18 46  1  0  0  0  0
 18 47  1  0  0  0  0
 19 20  1  0  0  0  0
 20 21  2  0  0  0  0
 21 22  1  0  0  0  0
 21 48  1  0  0  0  0
 22 24  2  0  0  0  0
 22 25  1  0  0  0  0
 23 26  1  0  0  0  0
 24 27  1  0  0  0  0
 24 49  1  0  0  0  0
 25 28  2  0  0  0  0
 25 50  1  0  0  0  0
 26 51  1  0  0  0  0
 26 52  1  0  0  0  0
 26 53  1  0  0  0  0
 27 29  2  0  0  0  0
 27 54  1  0  0  0  0
 28 29  1  0  0  0  0
 28 55  1  0  0  0  0
 29 56  1  0  0  0  0
M  END
> <PUBCHEM_COMPOUND_CID>
24982674

> <PUBCHEM_CONFORMER_RMSD>
1.4

> <PUBCHEM_CONFORMER_DIVERSEORDER>
1
11
13
19
48
36
22
29
37
39
33
42
4
44
38
5
20
12
6
35
17
21
27
23
8
41
30
16
47
25
49
28
32
40
34
26
7
50
10
18
2
46
3
45
15
43
31
24
9
14

> <PUBCHEM_MMFF94_PARTIAL_CHARGES>
28
1 -0.57
15 0.3
16 0.57
18 0.34
19 0.71
2 -0.43
20 -0.02
21 -0.18
22 0.03
23 0.01
24 -0.15
25 -0.15
26 0.18
27 -0.15
28 -0.15
29 -0.15
3 -0.57
4 -0.66
48 0.15
49 0.15
5 0.6
50 0.15
54 0.15
55 0.15
56 0.15
6 -0.42
7 -0.34
9 0.3

> <PUBCHEM_EFFECTIVE_ROTOR_COUNT>
10.2

> <PUBCHEM_PHARMACOPHORE_FEATURES>
6
1 1 acceptor
1 3 acceptor
3 5 7 23 cation
5 5 6 7 8 23 rings
6 22 24 25 27 28 29 rings
6 9 10 11 12 13 14 rings

> <PUBCHEM_HEAVY_ATOM_COUNT>
29

> <PUBCHEM_ATOM_DEF_STEREO_COUNT>
0

> <PUBCHEM_ATOM_UDEF_STEREO_COUNT>
0

> <PUBCHEM_BOND_DEF_STEREO_COUNT>
1

> <PUBCHEM_BOND_UDEF_STEREO_COUNT>
0

> <PUBCHEM_ISOTOPIC_ATOM_COUNT>
0

> <PUBCHEM_COMPONENT_COUNT>
1

> <PUBCHEM_CACTVS_TAUTO_COUNT>
1

> <PUBCHEM_CONFORMER_ID>
017D349200000001

> <PUBCHEM_MMFF94_ENERGY>
72.6187

> <PUBCHEM_FEATURE_SELFOVERLAP>
30.447

> <PUBCHEM_SHAPE_FINGERPRINT>
10674148 151 18343015550441406009
107951 10 16660368069328923683
12166972 35 17489863834905258808
12373685 5 18192408948809940354
12539765 74 14346340231887668977
12596602 18 15267339587930840382
1361 4 17844515802927601727
1361 87 18265354905352135766
13782708 43 17989199365500248471
14068700 686 16522468647875812324
14347332 77 18129941165903027868
15082195 135 18042132114604652276
15183329 4 18113615651407520794
15188451 53 16630522891492226838
15392192 104 9727056724670730773
18393751 57 9295282863824783253
19377110 9 14549015494709671674
19958102 18 18114174216315358127
20028762 73 17346597440047529702
20691028 202 12685095873611245198
21344244 181 18339634633801227947
21756936 100 14345799370017354721
21792934 111 11743846880791922891
22393880 68 18041283248725555482
22849339 104 17968099771702438043
23522609 53 17631191825593619753
23559900 14 18334575772085074896
23569943 247 18129942265731484863
3004659 81 18060415816084676724
3729539 64 17896309225872154963
392239 28 13038891266309091895
4015057 19 18341890831149741337
44249763 50 16443917192630573612
5104073 3 10879730749161524710
59682541 52 18188481381131861214
59755656 520 18187090508071672585

> <PUBCHEM_SHAPE_MULTIPOLES>
554.29
18.26
2.67
2.41
4.01
0.78
0.86
-6.85
-11.9
3.65
0.35
-2.35
-1.27
1

> <PUBCHEM_SHAPE_SELFOVERLAP>
1156.989

> <PUBCHEM_SHAPE_VOLUME>
311.6

> <PUBCHEM_COORDINATE_TYPE>
2
5
10

$$$$
