5303777
  -OEChem-01171809583D

 26 27  0     0  0  0  0  0  0999 V2000
    1.5763    1.8571   -0.2622 O   0  0  0  0  0  0  0  0  0  0  0  0
    1.4384   -2.2919    0.1177 O   0  5  0  0  0  0  0  0  0  0  0  0
    3.6229   -2.1346    0.2668 O   0  0  0  0  0  0  0  0  0  0  0  0
    2.9555    2.0028   -0.1751 N   0  0  0  0  0  0  0  0  0  0  0  0
    2.4903   -1.5949    0.1319 N   0  3  0  0  0  0  0  0  0  0  0  0
   -2.7328   -0.8912   -0.3621 N   0  0  0  0  0  0  0  0  0  0  0  0
    2.3990   -0.1991   -0.0050 C   0  0  0  0  0  0  0  0  0  0  0  0
    1.3127    0.5600   -0.1573 C   0  0  0  0  0  0  0  0  0  0  0  0
    3.4251    0.7614   -0.0218 C   0  0  0  0  0  0  0  0  0  0  0  0
   -0.0845    0.0954   -0.2146 C   0  0  0  0  0  0  0  0  0  0  0  0
    4.8768    0.5453    0.1046 C   0  0  0  0  0  0  0  0  0  0  0  0
   -1.1644    0.8208    0.1617 C   0  0  0  0  0  0  0  0  0  0  0  0
   -2.5449    0.3699    0.0874 C   0  0  0  0  0  0  0  0  0  0  0  0
   -3.5718    1.2196    0.4660 C   0  0  0  0  0  0  0  0  0  0  0  0
   -4.8756    0.7447    0.3774 C   0  0  0  0  0  0  0  0  0  0  0  0
   -5.1093   -0.5473   -0.0806 C   0  0  0  0  0  0  0  0  0  0  0  0
   -4.0136   -1.3181   -0.4348 C   0  0  0  0  0  0  0  0  0  0  0  0
   -0.2498   -0.8943   -0.6274 H   0  0  0  0  0  0  0  0  0  0  0  0
    5.2464   -0.0940   -0.7036 H   0  0  0  0  0  0  0  0  0  0  0  0
    5.4319    1.4886    0.0561 H   0  0  0  0  0  0  0  0  0  0  0  0
    5.1175    0.0725    1.0623 H   0  0  0  0  0  0  0  0  0  0  0  0
   -1.0089    1.8225    0.5574 H   0  0  0  0  0  0  0  0  0  0  0  0
   -3.3862    2.2277    0.8228 H   0  0  0  0  0  0  0  0  0  0  0  0
   -5.7081    1.3799    0.6645 H   0  0  0  0  0  0  0  0  0  0  0  0
   -6.1173   -0.9386   -0.1580 H   0  0  0  0  0  0  0  0  0  0  0  0
   -4.1421   -2.3323   -0.7980 H   0  0  0  0  0  0  0  0  0  0  0  0
  1  4  1  0  0  0  0
  1  8  1  0  0  0  0
  2  5  1  0  0  0  0
  3  5  2  0  0  0  0
  4  9  2  0  0  0  0
  5  7  1  0  0  0  0
  6 13  1  0  0  0  0
  6 17  2  0  0  0  0
  7  8  2  0  0  0  0
  7  9  1  0  0  0  0
  8 10  1  0  0  0  0
  9 11  1  0  0  0  0
 10 12  2  0  0  0  0
 10 18  1  0  0  0  0
 11 19  1  0  0  0  0
 11 20  1  0  0  0  0
 11 21  1  0  0  0  0
 12 13  1  0  0  0  0
 12 22  1  0  0  0  0
 13 14  2  0  0  0  0
 14 15  1  0  0  0  0
 14 23  1  0  0  0  0
 15 16  2  0  0  0  0
 15 24  1  0  0  0  0
 16 17  1  0  0  0  0
 16 25  1  0  0  0  0
 17 26  1  0  0  0  0
M  CHG  2   2  -1   5   1
M  END
> <PUBCHEM_COMPOUND_CID>
5303777

> <PUBCHEM_CONFORMER_RMSD>
0.6

> <PUBCHEM_CONFORMER_DIVERSEORDER>
1
6
2
5
3
4

> <PUBCHEM_MMFF94_PARTIAL_CHARGES>
23
1 -0.02
10 -0.11
11 0.18
12 -0.18
13 0.34
14 -0.15
15 -0.15
16 -0.15
17 0.16
18 0.15
2 -0.52
22 0.15
23 0.15
24 0.15
25 0.15
26 0.15
3 -0.52
4 -0.41
5 0.96
6 -0.62
7 0.08
8 0.09
9 0.11

> <PUBCHEM_EFFECTIVE_ROTOR_COUNT>
3

> <PUBCHEM_PHARMACOPHORE_FEATURES>
7
1 2 acceptor
1 2 anion
1 3 acceptor
1 4 acceptor
1 6 acceptor
5 1 4 7 8 9 rings
6 6 13 14 15 16 17 rings

> <PUBCHEM_HEAVY_ATOM_COUNT>
17

> <PUBCHEM_ATOM_DEF_STEREO_COUNT>
0

> <PUBCHEM_ATOM_UDEF_STEREO_COUNT>
0

> <PUBCHEM_BOND_DEF_STEREO_COUNT>
1

> <PUBCHEM_BOND_UDEF_STEREO_COUNT>
0

> <PUBCHEM_ISOTOPIC_ATOM_COUNT>
0

> <PUBCHEM_COMPONENT_COUNT>
1

> <PUBCHEM_CACTVS_TAUTO_COUNT>
1

> <PUBCHEM_CONFORMER_ID>
0050EDE100000001

> <PUBCHEM_MMFF94_ENERGY>
43.9835

> <PUBCHEM_FEATURE_SELFOVERLAP>
35.605

> <PUBCHEM_SHAPE_FINGERPRINT>
10616163 171 18270120244270125703
11471102 20 18408322176953644116
12107183 9 17836652916114914161
12236239 1 18060139846913056756
13167823 11 18413952784826867935
13760787 19 18272090513229664677
13836976 161 18261115218394839540
13862211 1 18335700504214330962
14251717 144 18408321090353402378
15196674 1 18411418393244943079
15242433 33 18412546509481192743
15442244 35 18267587905444606761
15536298 74 18413389812976707851
17492 89 18341334414168767383
17834072 33 18412544331563599541
1813 80 17240207603415354517
18186145 218 17458343031370522147
19050596 39 18412826910573823505
19422 9 18341895182267453747
200 152 18343864437504720785
20279233 1 16587744239597518601
20281475 54 18342451565326681727
20645477 70 18410292475905088815
21065198 48 18343023268312728065
21267235 1 18412554218636395639
21709351 56 18409162242344628964
221490 88 18335428983959157627
22485316 2 18412543210983330061
2255824 54 18335426780893635620
22646028 1 18343299267206045245
23402539 116 18114174250859920669
23402655 69 18410575067726179725
23559900 14 18412821387182668417
26918003 58 18187364354822410049
300161 21 18342733010138576393
33824 294 18335137600962003682
3421961 26 18267302032875403434
3545911 37 18410857672474370505
42 15 18409168792512269333
4214541 1 18411982434331067153
474 4 18116717506880233244
4990 188 17988937673296020476
5104073 3 18412265013040189491
573450 72 18131631158667152001
602551 16 15697703926213992807
77779 3 18411139138903253649
8272917 22 18411424985692435182
9709674 26 18408891754237223779

> <PUBCHEM_SHAPE_MULTIPOLES>
317.3
10.88
1.95
0.64
4.84
0.69
0
0.2
0.46
-1.39
0.05
0.15
-0.02
-0.7

> <PUBCHEM_SHAPE_SELFOVERLAP>
681.766

> <PUBCHEM_SHAPE_VOLUME>
175.7

> <PUBCHEM_COORDINATE_TYPE>
2
5
10

$$$$
