2946220
  -OEChem-01171809233D

 41 44  0     1  0  0  0  0  0999 V2000
    4.2114    0.0128    0.6244 S   0  0  0  0  0  0  0  0  0  0  0  0
   -1.2860   -2.6939    0.5636 O   0  0  0  0  0  0  0  0  0  0  0  0
    2.0552   -2.2482    0.7604 N   0  0  0  0  0  0  0  0  0  0  0  0
    0.9688   -3.0028    1.0325 N   0  0  0  0  0  0  0  0  0  0  0  0
   -3.5054   -2.4799   -0.0655 N   0  0  0  0  0  0  0  0  0  0  0  0
   -3.8157    0.5786   -1.9411 N   0  0  0  0  0  0  0  0  0  0  0  0
   -0.5376    1.2297    0.0434 C   0  0  0  0  0  0  0  0  0  0  0  0
   -0.5456   -0.1127   -0.6857 C   0  0  1  0  0  0  0  0  0  0  0  0
   -1.4966    2.2191   -0.6323 C   0  0  0  0  0  0  0  0  0  0  0  0
   -0.8973    1.0445    1.5238 C   0  0  0  0  0  0  0  0  0  0  0  0
   -1.5463    3.5523    0.1103 C   0  0  0  0  0  0  0  0  0  0  0  0
   -0.9482    2.3798    2.2628 C   0  0  0  0  0  0  0  0  0  0  0  0
   -1.8955    3.3635    1.5833 C   0  0  0  0  0  0  0  0  0  0  0  0
    0.4078   -1.0681   -0.0664 C   0  0  0  0  0  0  0  0  0  0  0  0
   -1.9592   -0.7224   -0.6819 C   0  0  0  0  0  0  0  0  0  0  0  0
   -0.0110   -2.2673    0.5160 C   0  0  0  0  0  0  0  0  0  0  0  0
    1.7717   -1.0819    0.0981 C   0  0  0  0  0  0  0  0  0  0  0  0
   -2.2587   -1.9131   -0.0871 C   0  0  0  0  0  0  0  0  0  0  0  0
    2.7717   -0.1612   -0.2910 C   0  0  0  0  0  0  0  0  0  0  0  0
   -2.9852   -0.0034   -1.3779 C   0  0  0  0  0  0  0  0  0  0  0  0
    2.7554    0.6829   -1.3835 C   0  0  0  0  0  0  0  0  0  0  0  0
    3.9350    1.4775   -1.4679 C   0  0  0  0  0  0  0  0  0  0  0  0
    4.8113    1.2140   -0.4383 C   0  0  0  0  0  0  0  0  0  0  0  0
    0.4671    1.6683   -0.0010 H   0  0  0  0  0  0  0  0  0  0  0  0
   -0.2543    0.0326   -1.7347 H   0  0  0  0  0  0  0  0  0  0  0  0
   -2.5335    1.9327   -0.5302 H   0  0  0  0  0  0  0  0  0  0  0  0
   -1.2448    2.3772   -1.6859 H   0  0  0  0  0  0  0  0  0  0  0  0
   -0.1641    0.4117    2.0358 H   0  0  0  0  0  0  0  0  0  0  0  0
   -1.8738    0.5599    1.6406 H   0  0  0  0  0  0  0  0  0  0  0  0
   -2.2831    4.2140   -0.3599 H   0  0  0  0  0  0  0  0  0  0  0  0
   -0.5728    4.0510    0.0263 H   0  0  0  0  0  0  0  0  0  0  0  0
    0.0592    2.8123    2.3039 H   0  0  0  0  0  0  0  0  0  0  0  0
   -1.2674    2.2168    3.2985 H   0  0  0  0  0  0  0  0  0  0  0  0
   -1.8538    4.3300    2.0981 H   0  0  0  0  0  0  0  0  0  0  0  0
   -2.9264    2.9992    1.6728 H   0  0  0  0  0  0  0  0  0  0  0  0
    2.9611   -2.5934    1.0530 H   0  0  0  0  0  0  0  0  0  0  0  0
   -4.2952   -2.0208   -0.4999 H   0  0  0  0  0  0  0  0  0  0  0  0
   -3.6271   -3.3714    0.3980 H   0  0  0  0  0  0  0  0  0  0  0  0
    1.9503    0.7349   -2.1048 H   0  0  0  0  0  0  0  0  0  0  0  0
    4.1319    2.2039   -2.2456 H   0  0  0  0  0  0  0  0  0  0  0  0
    5.7753    1.6690   -0.2596 H   0  0  0  0  0  0  0  0  0  0  0  0
  1 19  1  0  0  0  0
  1 23  1  0  0  0  0
  2 16  1  0  0  0  0
  2 18  1  0  0  0  0
  3  4  1  0  0  0  0
  3 17  1  0  0  0  0
  3 36  1  0  0  0  0
  4 16  2  0  0  0  0
  5 18  1  0  0  0  0
  5 37  1  0  0  0  0
  5 38  1  0  0  0  0
  6 20  3  0  0  0  0
  7  8  1  0  0  0  0
  7  9  1  0  0  0  0
  7 10  1  0  0  0  0
  7 24  1  0  0  0  0
  8 14  1  0  0  0  0
  8 15  1  0  0  0  0
  8 25  1  0  0  0  0
  9 11  1  0  0  0  0
  9 26  1  0  0  0  0
  9 27  1  0  0  0  0
 10 12  1  0  0  0  0
 10 28  1  0  0  0  0
 10 29  1  0  0  0  0
 11 13  1  0  0  0  0
 11 30  1  0  0  0  0
 11 31  1  0  0  0  0
 12 13  1  0  0  0  0
 12 32  1  0  0  0  0
 12 33  1  0  0  0  0
 13 34  1  0  0  0  0
 13 35  1  0  0  0  0
 14 16  1  0  0  0  0
 14 17  2  0  0  0  0
 15 18  2  0  0  0  0
 15 20  1  0  0  0  0
 17 19  1  0  0  0  0
 19 21  2  0  0  0  0
 21 22  1  0  0  0  0
 21 39  1  0  0  0  0
 22 23  2  0  0  0  0
 22 40  1  0  0  0  0
 23 41  1  0  0  0  0
M  END
> <PUBCHEM_COMPOUND_CID>
2946220

> <PUBCHEM_CONFORMER_RMSD>
0.6

> <PUBCHEM_CONFORMER_DIVERSEORDER>
2
5
6
1
4
3

> <PUBCHEM_MMFF94_PARTIAL_CHARGES>
23
1 -0.08
14 -0.18
15 -0.07
16 0.35
17 -0.15
18 0.18
19 0.04
2 -0.14
20 0.49
21 -0.15
22 -0.15
23 -0.11
3 0.3
36 0.27
37 0.4
38 0.4
39 0.15
4 -0.71
40 0.15
41 0.15
5 -0.9
6 -0.56
8 0.32

> <PUBCHEM_EFFECTIVE_ROTOR_COUNT>
3.6

> <PUBCHEM_PHARMACOPHORE_FEATURES>
8
1 3 donor
1 5 cation
1 5 donor
1 6 acceptor
5 1 19 21 22 23 rings
5 3 4 14 16 17 rings
6 2 8 14 15 16 18 rings
6 7 9 10 11 12 13 rings

> <PUBCHEM_HEAVY_ATOM_COUNT>
23

> <PUBCHEM_ATOM_DEF_STEREO_COUNT>
0

> <PUBCHEM_ATOM_UDEF_STEREO_COUNT>
1

> <PUBCHEM_BOND_DEF_STEREO_COUNT>
0

> <PUBCHEM_BOND_UDEF_STEREO_COUNT>
0

> <PUBCHEM_ISOTOPIC_ATOM_COUNT>
0

> <PUBCHEM_COMPONENT_COUNT>
1

> <PUBCHEM_CACTVS_TAUTO_COUNT>
4

> <PUBCHEM_CONFORMER_ID>
002CF4AC00000002

> <PUBCHEM_MMFF94_ENERGY>
48.3759

> <PUBCHEM_FEATURE_SELFOVERLAP>
40.717

> <PUBCHEM_SHAPE_FINGERPRINT>
1100329 8 18267882746750108337
11112241 14 15474801261419496888
11640471 11 17982732974324631424
12293681 160 18341317942799966297
12788726 201 18267601267362268524
12954195 1 18270977756218316094
13027679 85 18195530513612792639
13140716 1 18266462198705700152
13149001 5 17691681607591563310
13965767 371 16107522292426796091
14123250 116 18200601276293316512
14142880 1 18409739447426529836
14787075 74 18120373413049220438
14955137 171 17765183899916360627
15420108 30 15895582617195118896
16945 1 18336816529247340687
17980427 23 17695034749105609482
192875 21 18337658776961623036
20510252 161 18337113483391759050
20642791 239 17320442493125837076
20715895 44 17753023065168480989
20739085 24 15752339337809087169
22182313 1 16819662316121961775
23419403 2 17698999905604389505
23557571 272 18270693081243180046
23558518 356 18266751194413154794
23559900 14 18411133684853840196
2748010 2 17980183511612086115
283562 15 18411142475992732986
350125 39 18266192629716093434
394222 165 17604693487514430803
469060 322 18115888432337011513
474 4 18116434726428331452
5048184 11 18266753380847063384
6034566 193 17896061938614049028
6786 2 15405320505844906035
6992083 37 17114933397400574882
81228 2 18196681650642082016

> <PUBCHEM_SHAPE_MULTIPOLES>
451.39
6.62
3.95
1.63
6.51
0.81
0.13
1.29
-2.5
-2.88
1.77
-0.61
0.9
-1.4

> <PUBCHEM_SHAPE_SELFOVERLAP>
980.513

> <PUBCHEM_SHAPE_VOLUME>
248

> <PUBCHEM_COORDINATE_TYPE>
2
5
10

$$$$
