14314897
  -OEChem-01171809543D

 39 40  0     1  0  0  0  0  0999 V2000
   -2.2241    1.3040    0.6691 O   0  0  0  0  0  0  0  0  0  0  0  0
   -0.7380    1.9026   -0.9937 O   0  0  0  0  0  0  0  0  0  0  0  0
    3.0665   -2.3572   -0.5473 O   0  0  0  0  0  0  0  0  0  0  0  0
    0.7457   -2.4211    1.5064 O   0  0  0  0  0  0  0  0  0  0  0  0
    4.5551    2.1619   -0.5384 O   0  0  0  0  0  0  0  0  0  0  0  0
   -3.5665    0.2773   -1.1022 C   0  0  0  0  0  0  0  0  0  0  0  0
   -3.3540    1.5089   -0.2063 C   0  0  1  0  0  0  0  0  0  0  0  0
   -3.9074   -1.0291   -0.3610 C   0  0  0  0  0  0  0  0  0  0  0  0
   -2.9873   -2.1964   -0.7428 C   0  0  0  0  0  0  0  0  0  0  0  0
   -4.5645    1.8351    0.6612 C   0  0  0  0  0  0  0  0  0  0  0  0
    1.3639    0.7251    0.5805 C   0  0  0  0  0  0  0  0  0  0  0  0
    0.0680    1.2130    1.1855 C   0  0  0  0  0  0  0  0  0  0  0  0
    1.6045   -0.6282    0.2764 C   0  0  0  0  0  0  0  0  0  0  0  0
   -1.7230   -2.1912    0.0673 C   0  0  0  0  0  0  0  0  0  0  0  0
   -0.9806    1.5151    0.1418 C   0  0  0  0  0  0  0  0  0  0  0  0
    0.5994   -1.6655    0.5558 C   0  0  0  0  0  0  0  0  0  0  0  0
   -0.5572   -1.7006   -0.3710 C   0  0  0  0  0  0  0  0  0  0  0  0
    2.3738    1.6547    0.2889 C   0  0  0  0  0  0  0  0  0  0  0  0
    2.8241   -1.0463   -0.2655 C   0  0  0  0  0  0  0  0  0  0  0  0
    3.5880    1.2429   -0.2659 C   0  0  0  0  0  0  0  0  0  0  0  0
    3.8136   -0.1051   -0.5388 C   0  0  0  0  0  0  0  0  0  0  0  0
   -2.6707    0.1340   -1.7171 H   0  0  0  0  0  0  0  0  0  0  0  0
   -4.3813    0.4977   -1.8039 H   0  0  0  0  0  0  0  0  0  0  0  0
   -3.1620    2.3818   -0.8436 H   0  0  0  0  0  0  0  0  0  0  0  0
   -4.9346   -1.3064   -0.6305 H   0  0  0  0  0  0  0  0  0  0  0  0
   -3.9018   -0.8955    0.7264 H   0  0  0  0  0  0  0  0  0  0  0  0
   -2.7748   -2.1908   -1.8184 H   0  0  0  0  0  0  0  0  0  0  0  0
   -3.5051   -3.1417   -0.5386 H   0  0  0  0  0  0  0  0  0  0  0  0
   -4.3891    2.7664    1.2113 H   0  0  0  0  0  0  0  0  0  0  0  0
   -5.4668    1.9575    0.0546 H   0  0  0  0  0  0  0  0  0  0  0  0
   -4.7464    1.0657    1.4178 H   0  0  0  0  0  0  0  0  0  0  0  0
   -0.3104    0.4647    1.8914 H   0  0  0  0  0  0  0  0  0  0  0  0
    0.2375    2.1273    1.7666 H   0  0  0  0  0  0  0  0  0  0  0  0
   -1.8056   -2.5857    1.0775 H   0  0  0  0  0  0  0  0  0  0  0  0
   -0.4575   -1.2543   -1.3539 H   0  0  0  0  0  0  0  0  0  0  0  0
    2.2092    2.7093    0.5008 H   0  0  0  0  0  0  0  0  0  0  0  0
    4.7646   -0.4127   -0.9671 H   0  0  0  0  0  0  0  0  0  0  0  0
    3.9616   -2.4441   -0.9176 H   0  0  0  0  0  0  0  0  0  0  0  0
    4.2322    3.0443   -0.2875 H   0  0  0  0  0  0  0  0  0  0  0  0
  1  7  1  0  0  0  0
  1 15  1  0  0  0  0
  2 15  2  0  0  0  0
  3 19  1  0  0  0  0
  3 38  1  0  0  0  0
  4 16  2  0  0  0  0
  5 20  1  0  0  0  0
  5 39  1  0  0  0  0
  6  7  1  0  0  0  0
  6  8  1  0  0  0  0
  6 22  1  0  0  0  0
  6 23  1  0  0  0  0
  7 10  1  0  0  0  0
  7 24  1  0  0  0  0
  8  9  1  0  0  0  0
  8 25  1  0  0  0  0
  8 26  1  0  0  0  0
  9 14  1  0  0  0  0
  9 27  1  0  0  0  0
  9 28  1  0  0  0  0
 10 29  1  0  0  0  0
 10 30  1  0  0  0  0
 10 31  1  0  0  0  0
 11 12  1  0  0  0  0
 11 13  2  0  0  0  0
 11 18  1  0  0  0  0
 12 15  1  0  0  0  0
 12 32  1  0  0  0  0
 12 33  1  0  0  0  0
 13 16  1  0  0  0  0
 13 19  1  0  0  0  0
 14 17  2  0  0  0  0
 14 34  1  0  0  0  0
 16 17  1  0  0  0  0
 17 35  1  0  0  0  0
 18 20  2  0  0  0  0
 18 36  1  0  0  0  0
 19 21  2  0  0  0  0
 20 21  1  0  0  0  0
 21 37  1  0  0  0  0
M  END
> <PUBCHEM_COMPOUND_CID>
14314897

> <PUBCHEM_CONFORMER_RMSD>
0.6

> <PUBCHEM_CONFORMER_DIVERSEORDER>
1
2

> <PUBCHEM_MMFF94_PARTIAL_CHARGES>
24
1 -0.43
11 -0.14
12 0.2
13 0.09
14 -0.29
15 0.66
16 0.47
17 -0.14
18 -0.15
19 0.08
2 -0.57
20 0.08
21 -0.15
3 -0.53
34 0.15
35 0.15
36 0.15
37 0.15
38 0.45
39 0.45
4 -0.57
5 -0.53
7 0.28
9 0.14

> <PUBCHEM_EFFECTIVE_ROTOR_COUNT>
1.2

> <PUBCHEM_PHARMACOPHORE_FEATURES>
5
1 2 acceptor
1 3 donor
1 4 acceptor
1 5 donor
6 11 13 18 19 20 21 rings

> <PUBCHEM_HEAVY_ATOM_COUNT>
21

> <PUBCHEM_ATOM_DEF_STEREO_COUNT>
0

> <PUBCHEM_ATOM_UDEF_STEREO_COUNT>
1

> <PUBCHEM_BOND_DEF_STEREO_COUNT>
1

> <PUBCHEM_BOND_UDEF_STEREO_COUNT>
0

> <PUBCHEM_ISOTOPIC_ATOM_COUNT>
0

> <PUBCHEM_COMPONENT_COUNT>
1

> <PUBCHEM_CACTVS_TAUTO_COUNT>
100

> <PUBCHEM_CONFORMER_ID>
00DA6D9100000001

> <PUBCHEM_MMFF94_ENERGY>
54.6972

> <PUBCHEM_FEATURE_SELFOVERLAP>
25.371

> <PUBCHEM_SHAPE_FINGERPRINT>
104564 63 18269273624590106003
10498660 4 18187352234377202293
10616163 171 18343021142024348391
10756046 5 18341336625955020942
10759866 29 18260258659733937098
10863032 1 18342455954192395157
1100329 8 18266739078178459794
12553582 1 18123740968441733609
13140716 1 18409724041199121202
13464514 151 18409450319123844914
13583140 156 15936684994762060576
14251745 187 18339354292004196081
14363568 33 16171460676251802211
14790565 3 18126858084144583225
15196674 1 18412262826843864647
15415430 112 18341894104162220621
16945 1 18190732034025462170
17357779 13 18124018294575177023
18186145 218 18336543820050942012
19591789 44 18410856517028051579
20691752 17 17894908508140248835
20871999 31 18339083820960914660
21501502 16 18411698798885378458
21634736 98 18340486677660107454
221357 26 18200873001968312111
221490 88 18411143515301075858
23402539 116 18192139611321052574
23558518 356 18118966033944429480
23559900 14 18272930480369105498
23566358 2 18342179972774437342
238 59 17613120033224359333
2748010 2 17114663476117862850
2838139 119 17023476369002250876
2871803 45 18337661005970216487
3323516 105 18272647995341831376
335352 9 18196653995036479047
4280585 95 17769109943113353654
5104073 3 18411134736155548770
59554788 170 18264497173895759820
9709674 26 18341899618752717718
9981440 41 18191301796519831954

> <PUBCHEM_SHAPE_MULTIPOLES>
402.82
7.99
3.02
1.01
0.64
0.8
0.11
-2.71
-1.78
0.44
0.13
0.16
0.05
-0.63

> <PUBCHEM_SHAPE_SELFOVERLAP>
847.151

> <PUBCHEM_SHAPE_VOLUME>
224

> <PUBCHEM_COORDINATE_TYPE>
2
5
10

$$$$
