2799527
  -OEChem-01171809553D

 28 30  0     0  0  0  0  0  0999 V2000
   -0.8750   -0.3171   -2.0945 S   0  0  0  0  0  0  0  0  0  0  0  0
   -3.0952    1.1628   -0.6280 S   0  0  0  0  0  0  0  0  0  0  0  0
    2.6316   -1.0838    0.7459 N   0  0  0  0  0  0  0  0  0  0  0  0
   -2.3051   -1.1916    0.0037 N   0  0  0  0  0  0  0  0  0  0  0  0
   -3.3139   -0.8826    0.8994 N   0  0  0  0  0  0  0  0  0  0  0  0
   -4.8101    0.8894    1.3989 N   0  0  0  0  0  0  0  0  0  0  0  0
    1.2699    0.5130   -0.4387 C   0  0  0  0  0  0  0  0  0  0  0  0
    2.3341    0.1907    0.4292 C   0  0  0  0  0  0  0  0  0  0  0  0
    0.5141   -0.5384   -0.9748 C   0  0  0  0  0  0  0  0  0  0  0  0
    1.8778   -2.0693    0.2070 C   0  0  0  0  0  0  0  0  0  0  0  0
    0.8183   -1.8526   -0.6504 C   0  0  0  0  0  0  0  0  0  0  0  0
    0.9873    1.8545   -0.7474 C   0  0  0  0  0  0  0  0  0  0  0  0
    3.0843    1.2357    0.9616 C   0  0  0  0  0  0  0  0  0  0  0  0
    1.7539    2.8795   -0.2007 C   0  0  0  0  0  0  0  0  0  0  0  0
    2.8037    2.5694    0.6548 C   0  0  0  0  0  0  0  0  0  0  0  0
    2.2418   -3.4666    0.5842 C   0  0  0  0  0  0  0  0  0  0  0  0
   -2.1067   -0.2091   -0.8308 C   0  0  0  0  0  0  0  0  0  0  0  0
   -3.8110    0.3159    0.6806 C   0  0  0  0  0  0  0  0  0  0  0  0
    0.2544   -2.6906   -1.0492 H   0  0  0  0  0  0  0  0  0  0  0  0
    0.1803    2.1436   -1.4142 H   0  0  0  0  0  0  0  0  0  0  0  0
    3.9121    1.0190    1.6345 H   0  0  0  0  0  0  0  0  0  0  0  0
    1.5337    3.9149   -0.4421 H   0  0  0  0  0  0  0  0  0  0  0  0
    3.4073    3.3629    1.0857 H   0  0  0  0  0  0  0  0  0  0  0  0
    3.0988   -3.4798    1.2656 H   0  0  0  0  0  0  0  0  0  0  0  0
    1.4022   -3.9556    1.0885 H   0  0  0  0  0  0  0  0  0  0  0  0
    2.5100   -4.0439   -0.3063 H   0  0  0  0  0  0  0  0  0  0  0  0
   -5.1558    1.8195    1.1863 H   0  0  0  0  0  0  0  0  0  0  0  0
   -5.2510    0.4116    2.1779 H   0  0  0  0  0  0  0  0  0  0  0  0
  1  9  1  0  0  0  0
  1 17  1  0  0  0  0
  2 17  1  0  0  0  0
  2 18  1  0  0  0  0
  3  8  1  0  0  0  0
  3 10  2  0  0  0  0
  4  5  1  0  0  0  0
  4 17  2  0  0  0  0
  5 18  2  0  0  0  0
  6 18  1  0  0  0  0
  6 27  1  0  0  0  0
  6 28  1  0  0  0  0
  7  8  1  0  0  0  0
  7  9  1  0  0  0  0
  7 12  2  0  0  0  0
  8 13  2  0  0  0  0
  9 11  2  0  0  0  0
 10 11  1  0  0  0  0
 10 16  1  0  0  0  0
 11 19  1  0  0  0  0
 12 14  1  0  0  0  0
 12 20  1  0  0  0  0
 13 15  1  0  0  0  0
 13 21  1  0  0  0  0
 14 15  2  0  0  0  0
 14 22  1  0  0  0  0
 15 23  1  0  0  0  0
 16 24  1  0  0  0  0
 16 25  1  0  0  0  0
 16 26  1  0  0  0  0
M  END
> <PUBCHEM_COMPOUND_CID>
2799527

> <PUBCHEM_CONFORMER_RMSD>
0.6

> <PUBCHEM_CONFORMER_DIVERSEORDER>
1
16
7
6
18
9
15
8
17
14
12
11
10
2
5
3
4
13

> <PUBCHEM_MMFF94_PARTIAL_CHARGES>
24
1 -0.16
10 0.17
11 -0.15
12 -0.15
13 -0.15
14 -0.15
15 -0.15
16 0.14
17 0.43
18 0.46
19 0.15
2 -0.08
20 0.15
21 0.15
22 0.15
23 0.15
27 0.4
28 0.4
3 -0.62
4 -0.34
5 -0.34
6 -0.88
8 0.31
9 0.1

> <PUBCHEM_EFFECTIVE_ROTOR_COUNT>
2

> <PUBCHEM_PHARMACOPHORE_FEATURES>
7
1 3 acceptor
1 4 acceptor
1 6 donor
3 5 6 18 cation
5 2 4 5 17 18 rings
6 3 7 8 9 10 11 rings
6 7 8 12 13 14 15 rings

> <PUBCHEM_HEAVY_ATOM_COUNT>
18

> <PUBCHEM_ATOM_DEF_STEREO_COUNT>
0

> <PUBCHEM_ATOM_UDEF_STEREO_COUNT>
0

> <PUBCHEM_BOND_DEF_STEREO_COUNT>
0

> <PUBCHEM_BOND_UDEF_STEREO_COUNT>
0

> <PUBCHEM_ISOTOPIC_ATOM_COUNT>
0

> <PUBCHEM_COMPONENT_COUNT>
1

> <PUBCHEM_CACTVS_TAUTO_COUNT>
2

> <PUBCHEM_CONFORMER_ID>
002AB7A700000001

> <PUBCHEM_MMFF94_ENERGY>
44.8524

> <PUBCHEM_FEATURE_SELFOVERLAP>
35.553

> <PUBCHEM_SHAPE_FINGERPRINT>
10064457 181 18120940761328285816
10366900 7 18187936113758926055
10382601 240 18412538804341557816
10465860 228 18343024406057152672
10498660 4 15626231221360536425
11086676 242 18198895921026084696
11471102 22 18261100894241083124
11640471 11 17775275110282212709
12553582 1 18123458389622134838
12633257 1 18041270054089870849
12788726 201 17039772977444155698
13140716 1 18339356499865494280
13533116 47 18334584521344835515
14178342 30 18337944718166270771
14223421 5 18334574659461301885
14787075 74 17261866062970030247
14790565 3 18336545032023848148
15309172 13 18119234306344412668
15527383 91 18338517426443559578
15775835 57 17846216725772076801
16945 1 18265872766474457702
17357990 137 17561362876661587263
1813 80 17772195206778676406
18219364 16 18117532215068391796
19049666 15 17897993656105433309
201361 129 18341893038772882888
20157964 124 18411693276164117133
20510252 161 16317505503229776004
20681677 76 18335974295130234189
20715895 44 17626112945588859161
20739085 24 18334009510870305536
21041028 32 18051123701647698054
21503847 285 18131081415089494612
21524375 3 17984698080601826580
21665062 11 18341055107722526313
21731228 192 18194678404754130992
21756936 100 17838058465775146244
23557571 272 13541880478760401333
2748010 2 17693057836126211726
2838139 119 15265916966029380160
305870 269 18340197604680346540
31174 14 18334295331926223095
3797600 57 17701271458215314179
458136 41 18261679263512095668
474 4 18340200907584108489
49207404 50 18191036783772880547
633830 44 18200597033013243540
7097593 13 18410855426132686647
7364860 26 18412547595786223798
7615 1 17845915391146015359
81228 2 17187272479695650446
960060 61 10809917357609731489

> <PUBCHEM_SHAPE_MULTIPOLES>
358.21
6.6
3.2
1.37
7.59
0.67
-0.36
-1.58
3.47
-3.85
0.49
0.81
0.01
-0.15

> <PUBCHEM_SHAPE_SELFOVERLAP>
760.777

> <PUBCHEM_SHAPE_VOLUME>
202.3

> <PUBCHEM_COORDINATE_TYPE>
2
5
10

$$$$
