5210284
  -OEChem-01171809463D

 30 32  0     0  0  0  0  0  0999 V2000
    4.8173    1.0501    0.0023 Cl  0  0  0  0  0  0  0  0  0  0  0  0
   -5.7772   -0.9575    0.0014 Cl  0  0  0  0  0  0  0  0  0  0  0  0
    2.1412    0.6517   -0.0001 N   0  0  0  0  0  0  0  0  0  0  0  0
    1.8334    1.9782    0.0001 N   0  0  0  0  0  0  0  0  0  0  0  0
    1.0415   -1.4917   -0.0018 N   0  0  0  0  0  0  0  0  0  0  0  0
   -0.0786    0.7424   -0.0011 C   0  0  0  0  0  0  0  0  0  0  0  0
    0.9851   -0.1309   -0.0012 C   0  0  0  0  0  0  0  0  0  0  0  0
    0.5022    2.0161    0.0000 C   0  0  0  0  0  0  0  0  0  0  0  0
   -1.4519    0.3338   -0.0006 C   0  0  0  0  0  0  0  0  0  0  0  0
    3.4051    0.0572    0.0006 C   0  0  0  0  0  0  0  0  0  0  0  0
    2.2266   -2.0291   -0.0009 C   0  0  0  0  0  0  0  0  0  0  0  0
   -0.1811    3.3227    0.0009 C   0  0  0  0  0  0  0  0  0  0  0  0
    3.5178   -1.2772    0.0002 C   0  0  0  0  0  0  0  0  0  0  0  0
   -2.1247    0.1354   -1.2082 C   0  0  0  0  0  0  0  0  0  0  0  0
   -2.1221    0.1311    1.2076 C   0  0  0  0  0  0  0  0  0  0  0  0
    2.3134   -3.5349   -0.0009 C   0  0  0  0  0  0  0  0  0  0  0  0
   -3.4612   -0.2638   -1.2075 C   0  0  0  0  0  0  0  0  0  0  0  0
   -3.4587   -0.2681    1.2084 C   0  0  0  0  0  0  0  0  0  0  0  0
   -4.1282   -0.4655    0.0008 C   0  0  0  0  0  0  0  0  0  0  0  0
   -0.8149    3.4241    0.8881 H   0  0  0  0  0  0  0  0  0  0  0  0
    0.5296    4.1559    0.0019 H   0  0  0  0  0  0  0  0  0  0  0  0
   -0.8144    3.4256   -0.8864 H   0  0  0  0  0  0  0  0  0  0  0  0
    4.4599   -1.8089    0.0008 H   0  0  0  0  0  0  0  0  0  0  0  0
   -1.6199    0.2883   -2.1594 H   0  0  0  0  0  0  0  0  0  0  0  0
   -1.6152    0.2806    2.1583 H   0  0  0  0  0  0  0  0  0  0  0  0
    3.3505   -3.8796   -0.0002 H   0  0  0  0  0  0  0  0  0  0  0  0
    1.8110   -3.9245    0.8893 H   0  0  0  0  0  0  0  0  0  0  0  0
    1.8123   -3.9244   -0.8920 H   0  0  0  0  0  0  0  0  0  0  0  0
   -3.9702   -0.4137   -2.1561 H   0  0  0  0  0  0  0  0  0  0  0  0
   -3.9657   -0.4215    2.1575 H   0  0  0  0  0  0  0  0  0  0  0  0
  1 10  1  0  0  0  0
  2 19  1  0  0  0  0
  3  4  1  0  0  0  0
  3  7  1  0  0  0  0
  3 10  1  0  0  0  0
  4  8  2  0  0  0  0
  5  7  1  0  0  0  0
  5 11  2  0  0  0  0
  6  7  2  0  0  0  0
  6  8  1  0  0  0  0
  6  9  1  0  0  0  0
  8 12  1  0  0  0  0
  9 14  2  0  0  0  0
  9 15  1  0  0  0  0
 10 13  2  0  0  0  0
 11 13  1  0  0  0  0
 11 16  1  0  0  0  0
 12 20  1  0  0  0  0
 12 21  1  0  0  0  0
 12 22  1  0  0  0  0
 13 23  1  0  0  0  0
 14 17  1  0  0  0  0
 14 24  1  0  0  0  0
 15 18  2  0  0  0  0
 15 25  1  0  0  0  0
 16 26  1  0  0  0  0
 16 27  1  0  0  0  0
 16 28  1  0  0  0  0
 17 19  2  0  0  0  0
 17 29  1  0  0  0  0
 18 19  1  0  0  0  0
 18 30  1  0  0  0  0
M  END
> <PUBCHEM_COMPOUND_CID>
5210284

> <PUBCHEM_CONFORMER_RMSD>
0.6

> <PUBCHEM_CONFORMER_DIVERSEORDER>
1

> <PUBCHEM_MMFF94_PARTIAL_CHARGES>
24
1 -0.14
10 0.11
11 0.37
12 0.18
13 -0.14
14 -0.15
15 -0.15
16 0.06
17 -0.15
18 -0.15
19 0.18
2 -0.18
23 0.15
24 0.15
25 0.15
29 0.15
3 0.6
30 0.15
4 -0.71
5 -0.58
6 -0.05
7 -0.03
8 0.11
9 0.05

> <PUBCHEM_EFFECTIVE_ROTOR_COUNT>
1

> <PUBCHEM_PHARMACOPHORE_FEATURES>
5
1 4 acceptor
1 5 acceptor
5 3 4 6 7 8 rings
6 3 5 7 10 11 13 rings
6 9 14 15 17 18 19 rings

> <PUBCHEM_HEAVY_ATOM_COUNT>
19

> <PUBCHEM_ATOM_DEF_STEREO_COUNT>
0

> <PUBCHEM_ATOM_UDEF_STEREO_COUNT>
0

> <PUBCHEM_BOND_DEF_STEREO_COUNT>
0

> <PUBCHEM_BOND_UDEF_STEREO_COUNT>
0

> <PUBCHEM_ISOTOPIC_ATOM_COUNT>
0

> <PUBCHEM_COMPONENT_COUNT>
1

> <PUBCHEM_CACTVS_TAUTO_COUNT>
1

> <PUBCHEM_CONFORMER_ID>
004F80AC00000001

> <PUBCHEM_MMFF94_ENERGY>
46.0243

> <PUBCHEM_FEATURE_SELFOVERLAP>
25.498

> <PUBCHEM_SHAPE_FINGERPRINT>
10090160 65 18333449863661708726
10967382 1 18410574011390818278
11471102 20 18409167735596854164
12107183 9 17766572248594965657
12236239 1 17775570861946402017
12553582 1 18341603802674431934
12596602 18 17346320444394485067
13083527 12 18189600654347420890
13140716 1 18195803192617833216
13544653 18 18334582299865191045
13836976 161 18261958556434475550
13862211 1 18410291402833099738
13911987 19 18117294729505630988
14251717 144 18410856581120134690
14252887 29 18060147526409495350
14386348 63 17894633664693380627
14576447 43 18271517693288780335
14790565 3 18266752440260171276
14863182 85 18410582794620460350
15375462 189 18060133223936329931
15635459 17 18260831479522438547
16945 1 18410856551572191844
17492 89 18121776136763124050
1813 80 18201174173438208724
200 152 18343580763810566721
20279233 1 17749112196802912955
20645477 70 18334009501673306635
21267235 1 18341056241900165838
21285901 2 17821721715750253495
21501502 16 18122345675459478416
221490 88 18193839241575947470
22224240 67 18271798090645145424
2255824 54 18268432506352457260
2334 1 17978228593297640276
23526113 38 17967812730379007377
23557571 272 17095517388117350061
23558518 356 17972607580571454984
23559900 14 17977090276635278170
2748010 2 18051687751186424956
2871803 45 18409168771111331454
33824 294 18409166619137875202
350125 39 17760656158187238874
46194498 28 17749389321220262061
474 4 17771896401276591000
474229 33 18408885166200016146
5104073 3 18340483352991274801
5486654 2 18338804532744946060
602551 16 15195274382888721495
77492 1 17703793651937228161
81228 2 18045219336701507536
8272917 22 18411425033438131397
9709674 26 17907292161553851190

> <PUBCHEM_SHAPE_MULTIPOLES>
379.81
9.07
2.86
0.92
6.06
0.23
0
3.03
0
-2.86
0
0.88
0.02
0

> <PUBCHEM_SHAPE_SELFOVERLAP>
815.134

> <PUBCHEM_SHAPE_VOLUME>
212.9

> <PUBCHEM_COORDINATE_TYPE>
2
5
10

$$$$
