2196572
  -OEChem-01171809303D

 36 38  0     0  0  0  0  0  0999 V2000
   -0.9185   -0.1956    0.7759 S   0  0  0  0  0  0  0  0  0  0  0  0
   -0.1233   -0.0201   -0.6543 O   0  0  0  0  0  0  0  0  0  0  0  0
   -0.6232   -1.5233    1.2814 O   0  0  0  0  0  0  0  0  0  0  0  0
   -0.6932    0.9891    1.5814 O   0  0  0  0  0  0  0  0  0  0  0  0
    1.5926    2.2903   -0.2734 O   0  0  0  0  0  0  0  0  0  0  0  0
    1.6656   -2.3020   -0.7961 O   0  0  0  0  0  0  0  0  0  0  0  0
    1.2485   -0.0158   -0.5008 N   0  0  0  0  0  0  0  0  0  0  0  0
   -2.6332   -0.1750    0.3556 C   0  0  0  0  0  0  0  0  0  0  0  0
   -3.2404    0.9935   -0.0795 C   0  0  0  0  0  0  0  0  0  0  0  0
    3.3320    0.6732   -0.1015 C   0  0  0  0  0  0  0  0  0  0  0  0
    3.3540   -0.7110   -0.2591 C   0  0  0  0  0  0  0  0  0  0  0  0
    1.9511    1.1292   -0.2901 C   0  0  0  0  0  0  0  0  0  0  0  0
    1.9875   -1.1562   -0.5503 C   0  0  0  0  0  0  0  0  0  0  0  0
   -3.3522   -1.3558    0.4727 C   0  0  0  0  0  0  0  0  0  0  0  0
   -4.5967    0.9816   -0.4049 C   0  0  0  0  0  0  0  0  0  0  0  0
   -5.3307   -0.1992   -0.2916 C   0  0  0  0  0  0  0  0  0  0  0  0
   -4.7086   -1.3679    0.1471 C   0  0  0  0  0  0  0  0  0  0  0  0
    4.4749    1.3947    0.1718 C   0  0  0  0  0  0  0  0  0  0  0  0
    4.5200   -1.4392   -0.1508 C   0  0  0  0  0  0  0  0  0  0  0  0
   -2.4826    2.2739   -0.2125 C   0  0  0  0  0  0  0  0  0  0  0  0
    5.6676    0.6748    0.2888 C   0  0  0  0  0  0  0  0  0  0  0  0
    5.6900   -0.7269    0.1293 C   0  0  0  0  0  0  0  0  0  0  0  0
   -6.7813   -0.2124   -0.6391 C   0  0  0  0  0  0  0  0  0  0  0  0
   -2.8978   -2.2826    0.8078 H   0  0  0  0  0  0  0  0  0  0  0  0
   -5.0870    1.8899   -0.7475 H   0  0  0  0  0  0  0  0  0  0  0  0
   -5.2691   -2.2946    0.2372 H   0  0  0  0  0  0  0  0  0  0  0  0
    4.4594    2.4714    0.2917 H   0  0  0  0  0  0  0  0  0  0  0  0
    4.5388   -2.5153   -0.2760 H   0  0  0  0  0  0  0  0  0  0  0  0
   -1.5402    2.1433   -0.7509 H   0  0  0  0  0  0  0  0  0  0  0  0
   -3.0539    3.0068   -0.7951 H   0  0  0  0  0  0  0  0  0  0  0  0
   -2.3029    2.7243    0.7682 H   0  0  0  0  0  0  0  0  0  0  0  0
    6.5940    1.2011    0.5046 H   0  0  0  0  0  0  0  0  0  0  0  0
    6.6331   -1.2588    0.2247 H   0  0  0  0  0  0  0  0  0  0  0  0
   -6.9095   -0.4066   -1.7086 H   0  0  0  0  0  0  0  0  0  0  0  0
   -7.3173   -0.9845   -0.0766 H   0  0  0  0  0  0  0  0  0  0  0  0
   -7.2528    0.7459   -0.3960 H   0  0  0  0  0  0  0  0  0  0  0  0
  1  2  1  0  0  0  0
  1  3  2  0  0  0  0
  1  4  2  0  0  0  0
  1  8  1  0  0  0  0
  2  7  1  0  0  0  0
  5 12  2  0  0  0  0
  6 13  2  0  0  0  0
  7 12  1  0  0  0  0
  7 13  1  0  0  0  0
  8  9  2  0  0  0  0
  8 14  1  0  0  0  0
  9 15  1  0  0  0  0
  9 20  1  0  0  0  0
 10 11  1  0  0  0  0
 10 12  1  0  0  0  0
 10 18  2  0  0  0  0
 11 13  1  0  0  0  0
 11 19  2  0  0  0  0
 14 17  2  0  0  0  0
 14 24  1  0  0  0  0
 15 16  2  0  0  0  0
 15 25  1  0  0  0  0
 16 17  1  0  0  0  0
 16 23  1  0  0  0  0
 17 26  1  0  0  0  0
 18 21  1  0  0  0  0
 18 27  1  0  0  0  0
 19 22  1  0  0  0  0
 19 28  1  0  0  0  0
 20 29  1  0  0  0  0
 20 30  1  0  0  0  0
 20 31  1  0  0  0  0
 21 22  2  0  0  0  0
 21 32  1  0  0  0  0
 22 33  1  0  0  0  0
 23 34  1  0  0  0  0
 23 35  1  0  0  0  0
 23 36  1  0  0  0  0
M  END
> <PUBCHEM_COMPOUND_CID>
2196572

> <PUBCHEM_CONFORMER_RMSD>
0.6

> <PUBCHEM_CONFORMER_DIVERSEORDER>
1
5
2
6
4
3

> <PUBCHEM_MMFF94_PARTIAL_CHARGES>
30
1 1.49
10 0.09
11 0.09
12 0.54
13 0.54
14 -0.15
15 -0.15
16 -0.14
17 -0.15
18 -0.15
19 -0.15
2 -0.22
20 0.14
21 -0.15
22 -0.15
23 0.14
24 0.15
25 0.15
26 0.15
27 0.15
28 0.15
3 -0.65
32 0.15
33 0.15
4 -0.65
5 -0.57
6 -0.57
7 -0.08
8 -0.01
9 -0.14

> <PUBCHEM_EFFECTIVE_ROTOR_COUNT>
3.2

> <PUBCHEM_PHARMACOPHORE_FEATURES>
7
1 3 acceptor
1 4 acceptor
1 5 acceptor
1 6 acceptor
5 7 10 11 12 13 rings
6 10 11 18 19 21 22 rings
6 8 9 14 15 16 17 rings

> <PUBCHEM_HEAVY_ATOM_COUNT>
23

> <PUBCHEM_ATOM_DEF_STEREO_COUNT>
0

> <PUBCHEM_ATOM_UDEF_STEREO_COUNT>
0

> <PUBCHEM_BOND_DEF_STEREO_COUNT>
0

> <PUBCHEM_BOND_UDEF_STEREO_COUNT>
0

> <PUBCHEM_ISOTOPIC_ATOM_COUNT>
0

> <PUBCHEM_COMPONENT_COUNT>
1

> <PUBCHEM_CACTVS_TAUTO_COUNT>
1

> <PUBCHEM_CONFORMER_ID>
0021845C00000001

> <PUBCHEM_MMFF94_ENERGY>
59.0504

> <PUBCHEM_FEATURE_SELFOVERLAP>
35.635

> <PUBCHEM_SHAPE_FINGERPRINT>
10 15 18341601664814628792
10447042 23 18201716249792308502
10906281 52 18263385666666613604
11370993 70 18409730664250025527
11719270 70 18272082777925720502
11796584 16 16588310501319067218
12011746 2 18410864265618344206
12107183 9 17615685137853627992
12166972 35 18272371979548499336
12236239 1 17489588948149761286
12403260 363 18408042918048449228
12516196 113 17489867150635705657
12596602 18 15792021120419322128
128620 24 17489873725871913493
13402501 40 18407758144663299965
13533116 47 18272369742202684914
14251764 18 18260545624417096400
14341114 176 18408890645755372580
15183329 4 18186517683196958499
15196674 1 18410576167169177188
15788980 27 18341613732607054571
17349148 13 18412549794967722072
17492 89 17914901932906350983
19489759 90 18186519899479256361
200 152 18060419105786713617
20645477 70 18271528602801150262
21033648 29 17631716197801829664
21267235 1 18341338816393512718
221357 26 18410008827859594597
23402539 116 18260826033767215967
23536379 177 18410572873081975729
23559900 14 18336823199463712633
26918003 58 18412827996989552851
3004659 81 18186239524620860768
34797466 226 16487258802873620680
351380 180 18335138713010354069
3545911 37 18409449185125508021
4073 2 18040721410736231618
4214541 1 18409450258725199493
4325135 7 18059853974095394735
439807 62 18128812140051642263
5104073 3 18411984628584310288
5283173 99 18335698287146400181
542803 24 17203613678973436955
59755656 215 18187362108349006543
59755656 520 16588020238976607235
67856867 119 18263927802960891293
7495541 125 17561078154742361379
9709674 26 18409740555612442735
9971528 1 17894352185527146068

> <PUBCHEM_SHAPE_MULTIPOLES>
442.85
14.27
1.97
0.89
4.01
0.27
-0.18
-1.07
1.44
-0.35
0.1
0.22
-0.08
0.51

> <PUBCHEM_SHAPE_SELFOVERLAP>
964.452

> <PUBCHEM_SHAPE_VOLUME>
243.9

> <PUBCHEM_COORDINATE_TYPE>
2
5
10

$$$$
