3005734
  -OEChem-01171810163D

 33 34  0     0  0  0  0  0  0999 V2000
   -6.2959    0.3487    1.1287 Cl  0  0  0  0  0  0  0  0  0  0  0  0
   -1.9738    3.0427   -0.3795 S   0  0  0  0  0  0  0  0  0  0  0  0
   -1.3359    0.3499   -0.1341 N   0  0  0  0  0  0  0  0  0  0  0  0
    0.3848    1.9084   -0.2565 N   0  0  0  0  0  0  0  0  0  0  0  0
    1.2539    0.8775   -0.1466 N   0  0  0  0  0  0  0  0  0  0  0  0
    4.6203    0.3265    0.6237 N   0  0  0  0  0  0  0  0  0  0  0  0
   -2.5736   -0.3400   -0.1140 C   0  0  0  0  0  0  0  0  0  0  0  0
    2.5262    1.1446   -0.1425 C   0  0  0  0  0  0  0  0  0  0  0  0
    3.4733    0.0062    0.0175 C   0  0  0  0  0  0  0  0  0  0  0  0
   -3.6839    0.2786    0.4337 C   0  0  0  0  0  0  0  0  0  0  0  0
   -2.6430   -1.6168   -0.6438 C   0  0  0  0  0  0  0  0  0  0  0  0
   -4.9021   -0.4007    0.4522 C   0  0  0  0  0  0  0  0  0  0  0  0
   -3.8611   -2.2962   -0.6252 C   0  0  0  0  0  0  0  0  0  0  0  0
    3.1105   -1.2265   -0.4504 C   0  0  0  0  0  0  0  0  0  0  0  0
   -4.9906   -1.6883   -0.0773 C   0  0  0  0  0  0  0  0  0  0  0  0
    3.1124    2.5348   -0.2898 C   0  0  0  0  0  0  0  0  0  0  0  0
   -0.9902    1.6933   -0.2417 C   0  0  0  0  0  0  0  0  0  0  0  0
    4.0315   -2.2535   -0.2764 C   0  0  0  0  0  0  0  0  0  0  0  0
    5.2466   -1.9920    0.3470 C   0  0  0  0  0  0  0  0  0  0  0  0
    5.4905   -0.6970    0.7750 C   0  0  0  0  0  0  0  0  0  0  0  0
   -3.6331    1.2492    0.9116 H   0  0  0  0  0  0  0  0  0  0  0  0
   -1.7694   -2.0985   -1.0739 H   0  0  0  0  0  0  0  0  0  0  0  0
   -0.5420   -0.2690   -0.2898 H   0  0  0  0  0  0  0  0  0  0  0  0
   -3.9300   -3.2986   -1.0376 H   0  0  0  0  0  0  0  0  0  0  0  0
    2.1661   -1.4253   -0.9433 H   0  0  0  0  0  0  0  0  0  0  0  0
   -5.9331   -2.2298   -0.0697 H   0  0  0  0  0  0  0  0  0  0  0  0
    4.2004    2.5205   -0.3884 H   0  0  0  0  0  0  0  0  0  0  0  0
    2.8487    3.1350    0.5859 H   0  0  0  0  0  0  0  0  0  0  0  0
    2.7136    3.0082   -1.1922 H   0  0  0  0  0  0  0  0  0  0  0  0
    0.7502    2.8505   -0.3299 H   0  0  0  0  0  0  0  0  0  0  0  0
    3.8039   -3.2554   -0.6277 H   0  0  0  0  0  0  0  0  0  0  0  0
    5.9797   -2.7770    0.4927 H   0  0  0  0  0  0  0  0  0  0  0  0
    6.4232   -0.4410    1.2668 H   0  0  0  0  0  0  0  0  0  0  0  0
  1 12  1  0  0  0  0
  2 17  2  0  0  0  0
  3  7  1  0  0  0  0
  3 17  1  0  0  0  0
  3 23  1  0  0  0  0
  4  5  1  0  0  0  0
  4 17  1  0  0  0  0
  4 30  1  0  0  0  0
  5  8  2  0  0  0  0
  6  9  1  0  0  0  0
  6 20  2  0  0  0  0
  7 10  2  0  0  0  0
  7 11  1  0  0  0  0
  8  9  1  0  0  0  0
  8 16  1  0  0  0  0
  9 14  2  0  0  0  0
 10 12  1  0  0  0  0
 10 21  1  0  0  0  0
 11 13  2  0  0  0  0
 11 22  1  0  0  0  0
 12 15  2  0  0  0  0
 13 15  1  0  0  0  0
 13 24  1  0  0  0  0
 14 18  1  0  0  0  0
 14 25  1  0  0  0  0
 15 26  1  0  0  0  0
 16 27  1  0  0  0  0
 16 28  1  0  0  0  0
 16 29  1  0  0  0  0
 18 19  2  0  0  0  0
 18 31  1  0  0  0  0
 19 20  1  0  0  0  0
 19 32  1  0  0  0  0
 20 33  1  0  0  0  0
M  END
> <PUBCHEM_COMPOUND_CID>
3005734

> <PUBCHEM_CONFORMER_RMSD>
0.8

> <PUBCHEM_CONFORMER_DIVERSEORDER>
1
30
124
80
36
127
130
27
138
58
70
107
90
44
143
35
71
75
109
40
135
120
132
111
37
73
122
85
49
105
87
110
22
100
31
89
43
66
28
7
139
121
113
19
39
54
92
9
53
86
123
62
20
98
126
118
101
144
4
76
119
94
47
142
103
137
83
93
81
115
42
26
133
134
21
34
99
77
63
128
112
68
69
16
131
104
147
56
13
102
145
91
136
64
108
51
148
46
106
55
25
32
67
74
59
116
140
52
114
125
117
57
78
38
10
96
72
65
82
6
141
88
45
146
97
48
129
18
84
5
29
95
61
17
79
50
23
15
33
11
8
14
60
41
12
24
2
3

> <PUBCHEM_MMFF94_PARTIAL_CHARGES>
30
1 -0.18
10 -0.15
11 -0.15
12 0.18
13 -0.15
14 -0.15
15 -0.15
16 0.06
17 0.5
18 -0.15
19 -0.15
2 -0.38
20 0.16
21 0.15
22 0.15
23 0.37
24 0.15
25 0.15
26 0.15
3 -0.55
30 0.37
31 0.15
32 0.15
33 0.15
4 -0.37
5 -0.51
6 -0.62
7 0.12
8 0.3
9 0.4

> <PUBCHEM_EFFECTIVE_ROTOR_COUNT>
5

> <PUBCHEM_PHARMACOPHORE_FEATURES>
7
1 2 acceptor
1 3 donor
1 4 donor
1 5 acceptor
1 6 acceptor
6 6 9 14 18 19 20 rings
6 7 10 11 12 13 15 rings

> <PUBCHEM_HEAVY_ATOM_COUNT>
20

> <PUBCHEM_ATOM_DEF_STEREO_COUNT>
0

> <PUBCHEM_ATOM_UDEF_STEREO_COUNT>
0

> <PUBCHEM_BOND_DEF_STEREO_COUNT>
0

> <PUBCHEM_BOND_UDEF_STEREO_COUNT>
1

> <PUBCHEM_ISOTOPIC_ATOM_COUNT>
0

> <PUBCHEM_COMPONENT_COUNT>
1

> <PUBCHEM_CACTVS_TAUTO_COUNT>
3

> <PUBCHEM_CONFORMER_ID>
002DDD2600000001

> <PUBCHEM_MMFF94_ENERGY>
70.3078

> <PUBCHEM_FEATURE_SELFOVERLAP>
35.566

> <PUBCHEM_SHAPE_FINGERPRINT>
12107183 9 18341622460645511665
12596602 18 17060057094355064474
12633257 1 18202009815138757149
12760667 363 18412821365971355213
13073987 5 18268996556576765441
13533116 47 18412266167996319697
13551218 46 18412266116841814207
1420 369 18409166606294937302
14251751 18 18411134714875896896
14251764 18 18201722881833704091
14251764 30 16950572116450210051
14341114 176 18342459210236567302
14420673 8 18338805524497594227
15042514 8 18337111142672201173
15196674 1 18339361967416884319
15250474 111 18128248085442111359
15352361 1 18410290319942113518
15475509 84 17989213611543734449
15537594 2 18410304622188568606
15885798 251 18408887347431765157
16120349 21 18198634228584369555
17492 89 18410571752364829062
17857418 61 18413105078241002487
1813 80 17676490570506250805
19141452 34 18343302578662968191
193927 3 18114189622368206712
19784866 135 18412542094154949777
1979834 28 17703800197230433342
20281475 54 18340486763369653221
20403669 9 18410859832584652622
20645477 70 18188205502671363416
21267235 1 18338241471095923158
21403212 168 18341056212652611377
21673915 165 18412823577784846210
22950370 63 18336269041323942973
23559900 14 18410844473797744484
3004659 81 18186800305230623868
3421961 26 18339640148164488344
351380 3 18187363224871666274
3680242 22 18409453557038972258
4214541 1 18411135792707226021
5104073 3 18200038468532239315
5207 217 10663811963230230577
559249 180 18261952925832752345
56633871 153 18341618096821666335
7064713 232 17561363997706613023
7164475 11 18334295370460175004
79837 15 17766851524116871761
9709674 26 18333734649699495528

> <PUBCHEM_SHAPE_MULTIPOLES>
397.39
14.6
3.06
0.83
0.48
1.1
-0.08
-7.65
-3.98
-0.38
0.68
0.34
-0.07
-0.65

> <PUBCHEM_SHAPE_SELFOVERLAP>
819.554

> <PUBCHEM_SHAPE_VOLUME>
229.5

> <PUBCHEM_COORDINATE_TYPE>
2
5
10

$$$$
