832320
  -OEChem-01171809563D

 39 40  0     0  0  0  0  0  0999 V2000
    3.3389   -2.4275    0.5812 S   0  0  0  0  0  0  0  0  0  0  0  0
   -3.0255   -0.5789   -0.3576 O   0  0  0  0  0  0  0  0  0  0  0  0
    3.2180    0.1462    0.0423 N   0  0  0  0  0  0  0  0  0  0  0  0
    3.7698    2.3130   -0.6685 C   0  0  0  0  0  0  0  0  0  0  0  0
    4.9184    1.7581    0.1689 C   0  0  0  0  0  0  0  0  0  0  0  0
    2.6006    1.4209   -0.2775 C   0  0  0  0  0  0  0  0  0  0  0  0
    4.6620    0.2581    0.1482 C   0  0  0  0  0  0  0  0  0  0  0  0
    2.5336   -1.0017    0.2207 C   0  0  0  0  0  0  0  0  0  0  0  0
    1.0634   -0.8904    0.0678 C   0  0  0  0  0  0  0  0  0  0  0  0
   -4.9563    0.8704   -0.1572 C   0  0  0  0  0  0  0  0  0  0  0  0
   -3.7038    0.3136    0.5252 C   0  0  0  0  0  0  0  0  0  0  0  0
    0.5034   -1.0853   -1.1794 C   0  0  0  0  0  0  0  0  0  0  0  0
    0.2955   -0.5947    1.1771 C   0  0  0  0  0  0  0  0  0  0  0  0
   -1.6758   -0.6826   -0.2169 C   0  0  0  0  0  0  0  0  0  0  0  0
   -5.9339   -0.2477   -0.5258 C   0  0  0  0  0  0  0  0  0  0  0  0
   -5.6402    1.8985    0.7413 C   0  0  0  0  0  0  0  0  0  0  0  0
   -0.8800   -0.9802   -1.3232 C   0  0  0  0  0  0  0  0  0  0  0  0
   -1.0879   -0.4897    1.0334 C   0  0  0  0  0  0  0  0  0  0  0  0
    3.5749    3.3720   -0.4790 H   0  0  0  0  0  0  0  0  0  0  0  0
    3.9976    2.1895   -1.7342 H   0  0  0  0  0  0  0  0  0  0  0  0
    5.9029    2.0239   -0.2256 H   0  0  0  0  0  0  0  0  0  0  0  0
    4.8437    2.1389    1.1947 H   0  0  0  0  0  0  0  0  0  0  0  0
    1.8720    1.3434   -1.0884 H   0  0  0  0  0  0  0  0  0  0  0  0
    2.1044    1.7988    0.6234 H   0  0  0  0  0  0  0  0  0  0  0  0
    5.0559   -0.2185    1.0506 H   0  0  0  0  0  0  0  0  0  0  0  0
    5.1118   -0.2024   -0.7390 H   0  0  0  0  0  0  0  0  0  0  0  0
   -4.6553    1.3632   -1.0905 H   0  0  0  0  0  0  0  0  0  0  0  0
   -3.0658    1.1671    0.7909 H   0  0  0  0  0  0  0  0  0  0  0  0
   -3.9767   -0.2283    1.4390 H   0  0  0  0  0  0  0  0  0  0  0  0
    1.1161   -1.3156   -2.0462 H   0  0  0  0  0  0  0  0  0  0  0  0
    0.7458   -0.4471    2.1545 H   0  0  0  0  0  0  0  0  0  0  0  0
   -6.8263    0.1624   -1.0105 H   0  0  0  0  0  0  0  0  0  0  0  0
   -6.2560   -0.8016    0.3626 H   0  0  0  0  0  0  0  0  0  0  0  0
   -5.4777   -0.9589   -1.2221 H   0  0  0  0  0  0  0  0  0  0  0  0
   -6.5220    2.3208    0.2480 H   0  0  0  0  0  0  0  0  0  0  0  0
   -4.9612    2.7253    0.9745 H   0  0  0  0  0  0  0  0  0  0  0  0
   -5.9639    1.4487    1.6862 H   0  0  0  0  0  0  0  0  0  0  0  0
   -1.3323   -1.1303   -2.2998 H   0  0  0  0  0  0  0  0  0  0  0  0
   -1.6723   -0.2835    1.9251 H   0  0  0  0  0  0  0  0  0  0  0  0
  1  8  2  0  0  0  0
  2 11  1  0  0  0  0
  2 14  1  0  0  0  0
  3  6  1  0  0  0  0
  3  7  1  0  0  0  0
  3  8  1  0  0  0  0
  4  5  1  0  0  0  0
  4  6  1  0  0  0  0
  4 19  1  0  0  0  0
  4 20  1  0  0  0  0
  5  7  1  0  0  0  0
  5 21  1  0  0  0  0
  5 22  1  0  0  0  0
  6 23  1  0  0  0  0
  6 24  1  0  0  0  0
  7 25  1  0  0  0  0
  7 26  1  0  0  0  0
  8  9  1  0  0  0  0
  9 12  2  0  0  0  0
  9 13  1  0  0  0  0
 10 11  1  0  0  0  0
 10 15  1  0  0  0  0
 10 16  1  0  0  0  0
 10 27  1  0  0  0  0
 11 28  1  0  0  0  0
 11 29  1  0  0  0  0
 12 17  1  0  0  0  0
 12 30  1  0  0  0  0
 13 18  2  0  0  0  0
 13 31  1  0  0  0  0
 14 17  2  0  0  0  0
 14 18  1  0  0  0  0
 15 32  1  0  0  0  0
 15 33  1  0  0  0  0
 15 34  1  0  0  0  0
 16 35  1  0  0  0  0
 16 36  1  0  0  0  0
 16 37  1  0  0  0  0
 17 38  1  0  0  0  0
 18 39  1  0  0  0  0
M  END
> <PUBCHEM_COMPOUND_CID>
832320

> <PUBCHEM_CONFORMER_RMSD>
0.8

> <PUBCHEM_CONFORMER_DIVERSEORDER>
1
14
5
16
2
15
13
8
4
18
6
7
9
12
10
17
11
3

> <PUBCHEM_MMFF94_PARTIAL_CHARGES>
17
1 -0.38
11 0.28
12 -0.15
13 -0.15
14 0.08
17 -0.15
18 -0.15
2 -0.36
3 -0.66
30 0.15
31 0.15
38 0.15
39 0.15
6 0.3
7 0.3
8 0.35
9 0.09

> <PUBCHEM_EFFECTIVE_ROTOR_COUNT>
6

> <PUBCHEM_PHARMACOPHORE_FEATURES>
5
1 1 acceptor
1 2 acceptor
3 10 15 16 hydrophobe
5 3 4 5 6 7 rings
6 9 12 13 14 17 18 rings

> <PUBCHEM_HEAVY_ATOM_COUNT>
18

> <PUBCHEM_ATOM_DEF_STEREO_COUNT>
0

> <PUBCHEM_ATOM_UDEF_STEREO_COUNT>
0

> <PUBCHEM_BOND_DEF_STEREO_COUNT>
0

> <PUBCHEM_BOND_UDEF_STEREO_COUNT>
0

> <PUBCHEM_ISOTOPIC_ATOM_COUNT>
0

> <PUBCHEM_COMPONENT_COUNT>
1

> <PUBCHEM_CACTVS_TAUTO_COUNT>
1

> <PUBCHEM_CONFORMER_ID>
000CB34000000001

> <PUBCHEM_MMFF94_ENERGY>
61.3472

> <PUBCHEM_FEATURE_SELFOVERLAP>
25.371

> <PUBCHEM_SHAPE_FINGERPRINT>
10354089 29 18335421274666499180
10595046 47 18412259571443491527
106641 1 14851897987939566324
10912923 1 18343015567668663387
11089746 13 18202278130531182868
12107183 9 17906732497387698107
12236239 1 18202560674780611938
12616999 72 17203331091568827751
12633257 1 16733819934347329720
12670543 26 15984832497336141925
12670546 56 18041837312328110043
13167372 99 18340488846687326297
13533116 47 17896036559557097754
13583140 156 18336554914357896627
13675066 3 17240487979349896103
13760787 19 18272083928744788711
13785724 45 17693096262561299310
13955234 65 18041838394169960682
1420 369 10809335642031927536
14251764 38 18265901259135369189
14528608 73 18273213118833495613
14863182 85 13479126866111931872
14911166 2 16056879152060828835
15188451 53 15647347402660226113
15342168 16 18114466781140188012
17834072 33 18411132559124314479
17844677 252 18337397028785195691
17959699 21 18412546513423063697
1813 80 17984430629538233222
20157964 124 18408601444570424247
20645476 183 17987795336238482974
20645477 56 17748824120451016127
20645477 70 18340768143931209214
21033648 29 16950557749700254397
212847 35 18130783430200391730
21452121 103 18187359909272685200
21503847 285 18334014956350175496
22079108 93 17894912966469341675
22713019 99 13183026232419227812
22956985 138 13336114427726750665
23402655 69 18343582957905852228
23559900 14 18409168775317186946
26918003 58 11891329851213154471
270888 7 18192713565108144260
2838139 119 18413666928730872925
2916195 48 18113898265136127401
3472631 163 17845371218890312692
351380 3 7925918066630224720
3759504 43 18131067173331869735
4047638 21 18333734602249367258
4325135 7 18341611555955285223
474 4 18260550064659179192
4990 188 13901907799879377535
5104073 3 18041001730698854587
633830 44 18411134702165549119
8272917 22 18410294679634885094

> <PUBCHEM_SHAPE_MULTIPOLES>
363.43
12.64
2.16
1.06
13.46
0.5
0.06
6.92
-0.63
-2.47
-0.04
0.28
-0.19
-1.13

> <PUBCHEM_SHAPE_SELFOVERLAP>
740.717

> <PUBCHEM_SHAPE_VOLUME>
215

> <PUBCHEM_COORDINATE_TYPE>
2
5
10

$$$$
