2968856
  -OEChem-01171809433D

 36 38  0     1  0  0  0  0  0999 V2000
   -6.3181    0.7017   -0.0482 O   0  0  0  0  0  0  0  0  0  0  0  0
    6.0643   -0.0371   -0.3201 O   0  5  0  0  0  0  0  0  0  0  0  0
    5.2987    1.9809    0.0804 O   0  0  0  0  0  0  0  0  0  0  0  0
   -2.9092   -0.6985   -0.1009 N   0  0  2  0  0  0  0  0  0  0  0  0
   -0.1303   -0.9246    0.0689 N   0  0  0  0  0  0  0  0  0  0  0  0
    0.2157    1.2414    0.3913 N   0  0  0  0  0  0  0  0  0  0  0  0
    5.1149    0.7545   -0.1078 N   0  3  0  0  0  0  0  0  0  0  0  0
   -2.3499   -1.9770    0.3699 C   0  0  0  0  0  0  0  0  0  0  0  0
   -0.9037   -2.1364   -0.1153 C   0  0  0  0  0  0  0  0  0  0  0  0
   -2.1750    0.4384    0.4869 C   0  0  0  0  0  0  0  0  0  0  0  0
   -0.7003    0.2994    0.3104 C   0  0  0  0  0  0  0  0  0  0  0  0
    1.2246   -0.7677   -0.0229 C   0  0  0  0  0  0  0  0  0  0  0  0
   -4.3330   -0.6057    0.2190 C   0  0  0  0  0  0  0  0  0  0  0  0
    1.4165    0.5980    0.1845 C   0  0  0  0  0  0  0  0  0  0  0  0
   -4.9336    0.6616   -0.3683 C   0  0  0  0  0  0  0  0  0  0  0  0
    2.2769   -1.6549   -0.2648 C   0  0  0  0  0  0  0  0  0  0  0  0
    2.7212    1.1199    0.1579 C   0  0  0  0  0  0  0  0  0  0  0  0
    3.5679   -1.1171   -0.2880 C   0  0  0  0  0  0  0  0  0  0  0  0
    3.7884    0.2457   -0.0799 C   0  0  0  0  0  0  0  0  0  0  0  0
   -6.9360    1.8775   -0.5531 C   0  0  0  0  0  0  0  0  0  0  0  0
   -2.9343   -2.8210   -0.0160 H   0  0  0  0  0  0  0  0  0  0  0  0
   -2.3845   -2.0306    1.4665 H   0  0  0  0  0  0  0  0  0  0  0  0
   -0.4062   -2.9445    0.4307 H   0  0  0  0  0  0  0  0  0  0  0  0
   -0.8784   -2.3611   -1.1880 H   0  0  0  0  0  0  0  0  0  0  0  0
   -2.3899    0.5421    1.5581 H   0  0  0  0  0  0  0  0  0  0  0  0
   -2.4460    1.3751   -0.0106 H   0  0  0  0  0  0  0  0  0  0  0  0
   -4.5114   -0.6387    1.3022 H   0  0  0  0  0  0  0  0  0  0  0  0
   -4.8714   -1.4650   -0.2016 H   0  0  0  0  0  0  0  0  0  0  0  0
   -4.8095    0.6762   -1.4579 H   0  0  0  0  0  0  0  0  0  0  0  0
   -4.4809    1.5631    0.0545 H   0  0  0  0  0  0  0  0  0  0  0  0
    2.1068   -2.7134   -0.4270 H   0  0  0  0  0  0  0  0  0  0  0  0
    2.8631    2.1837    0.3214 H   0  0  0  0  0  0  0  0  0  0  0  0
    4.3896   -1.8057   -0.4744 H   0  0  0  0  0  0  0  0  0  0  0  0
   -6.8498    1.9192   -1.6432 H   0  0  0  0  0  0  0  0  0  0  0  0
   -6.4892    2.7701   -0.1046 H   0  0  0  0  0  0  0  0  0  0  0  0
   -7.9965    1.8492   -0.2885 H   0  0  0  0  0  0  0  0  0  0  0  0
  1 15  1  0  0  0  0
  1 20  1  0  0  0  0
  2  7  1  0  0  0  0
  3  7  2  0  0  0  0
  4  8  1  0  0  0  0
  4 10  1  0  0  0  0
  4 13  1  0  0  0  0
  5  9  1  0  0  0  0
  5 11  1  0  0  0  0
  5 12  1  0  0  0  0
  6 11  2  0  0  0  0
  6 14  1  0  0  0  0
  7 19  1  0  0  0  0
  8  9  1  0  0  0  0
  8 21  1  0  0  0  0
  8 22  1  0  0  0  0
  9 23  1  0  0  0  0
  9 24  1  0  0  0  0
 10 11  1  0  0  0  0
 10 25  1  0  0  0  0
 10 26  1  0  0  0  0
 12 14  2  0  0  0  0
 12 16  1  0  0  0  0
 13 15  1  0  0  0  0
 13 27  1  0  0  0  0
 13 28  1  0  0  0  0
 14 17  1  0  0  0  0
 15 29  1  0  0  0  0
 15 30  1  0  0  0  0
 16 18  2  0  0  0  0
 16 31  1  0  0  0  0
 17 19  2  0  0  0  0
 17 32  1  0  0  0  0
 18 19  1  0  0  0  0
 18 33  1  0  0  0  0
 20 34  1  0  0  0  0
 20 35  1  0  0  0  0
 20 36  1  0  0  0  0
M  CHG  2   2  -1   7   1
M  END
> <PUBCHEM_COMPOUND_CID>
2968856

> <PUBCHEM_CONFORMER_RMSD>
0.6

> <PUBCHEM_CONFORMER_DIVERSEORDER>
1
8
9
16
2
13
4
15
12
5
17
11
6
10
3
14
7

> <PUBCHEM_MMFF94_PARTIAL_CHARGES>
23
1 -0.56
10 0.45
11 0.01
12 -0.15
13 0.27
14 0.23
15 0.28
16 -0.15
17 -0.15
18 -0.15
19 0.13
2 -0.52
20 0.28
3 -0.52
31 0.15
32 0.15
33 0.15
4 -0.81
5 0.05
6 -0.57
7 0.91
8 0.27
9 0.26

> <PUBCHEM_EFFECTIVE_ROTOR_COUNT>
4.8

> <PUBCHEM_PHARMACOPHORE_FEATURES>
9
1 1 acceptor
1 2 acceptor
1 2 anion
1 3 acceptor
1 4 cation
3 5 6 11 cation
5 5 6 11 12 14 rings
6 12 14 16 17 18 19 rings
6 4 5 8 9 10 11 rings

> <PUBCHEM_HEAVY_ATOM_COUNT>
20

> <PUBCHEM_ATOM_DEF_STEREO_COUNT>
0

> <PUBCHEM_ATOM_UDEF_STEREO_COUNT>
0

> <PUBCHEM_BOND_DEF_STEREO_COUNT>
0

> <PUBCHEM_BOND_UDEF_STEREO_COUNT>
0

> <PUBCHEM_ISOTOPIC_ATOM_COUNT>
0

> <PUBCHEM_COMPONENT_COUNT>
1

> <PUBCHEM_CACTVS_TAUTO_COUNT>
1

> <PUBCHEM_CONFORMER_ID>
002D4D1800000001

> <PUBCHEM_MMFF94_ENERGY>
45.2837

> <PUBCHEM_FEATURE_SELFOVERLAP>
45.962

> <PUBCHEM_SHAPE_FINGERPRINT>
10366900 7 16343988009046025483
10411042 1 17690843359125771734
106641 1 10809353251814254684
10906281 52 18130806541851934489
11089746 13 17275102842474114801
11401426 45 18343021116038266514
11471102 20 18342740710766979270
117890 112 18407759248316894668
12011746 2 18202004326160009788
12236239 1 17967532402248267650
12403259 415 18200870794486633777
12788726 201 17988363659285337905
13533116 47 17774440473382451843
15048467 5 18334295374580451573
15196674 1 18411983593524000098
18222031 100 14117795816955457739
200 152 17632860845082624139
20281389 69 18040713641609826229
20621476 66 18408888425969774781
20645477 56 18260545637001389341
20645477 70 18201441324519853382
20681677 155 18187644742877125899
21029758 11 18131634495261051553
21150785 3 16558744633500483285
21267235 1 18341344369913112642
21304253 335 18333736839869371676
21421861 104 17677316226661563914
22224240 67 13840269204255254889
23402539 116 18272366503385464919
23402655 69 18272649043698798119
23559900 14 18130500941748874320
293599 30 18408603656504870903
29717793 49 17489594428765485996
300161 21 18413103974291924194
3004659 81 18335703798095654710
335352 9 18411983555512476774
34934 24 18410570708181529890
3545911 37 18411140246619707203
4072396 5 18340758283155380498
4073 2 18040721410609676619
4340502 62 16515406244224484195
4463277 17 18410856564203918657
465052 167 8574712412070504888
495365 180 17489292122891499730
5104073 3 18410012169307235010
542803 24 16877662387446063270
59755656 215 18411704249130169214
59755656 520 17748823029835622699
7495541 125 12829503557808069821

> <PUBCHEM_SHAPE_MULTIPOLES>
374.06
14.17
1.96
0.66
10.04
0.35
0
-8.33
-2.32
0.35
-0.05
0.17
-0.01
0.67

> <PUBCHEM_SHAPE_SELFOVERLAP>
803.183

> <PUBCHEM_SHAPE_VOLUME>
208.7

> <PUBCHEM_COORDINATE_TYPE>
2
5
10

$$$$
