16023140
  -OEChem-01171810043D

 68 72  0     1  0  0  0  0  0999 V2000
   -1.0020   -2.5058   -1.4022 O   0  0  0  0  0  0  0  0  0  0  0  0
   -5.3137    2.6702    0.1201 O   0  0  0  0  0  0  0  0  0  0  0  0
    0.9876   -2.4874    0.8936 N   0  0  0  0  0  0  0  0  0  0  0  0
   -3.0547   -3.2003   -0.5517 N   0  0  0  0  0  0  0  0  0  0  0  0
    3.2461   -2.9877    0.1312 N   0  0  0  0  0  0  0  0  0  0  0  0
    2.7717    1.3628   -0.0149 N   0  0  0  0  0  0  0  0  0  0  0  0
    1.9211    0.3847    0.3562 N   0  0  0  0  0  0  0  0  0  0  0  0
    4.5718   -2.6169   -0.3638 N   0  0  0  0  0  0  0  0  0  0  0  0
   -1.0385   -3.8795    0.5532 C   0  0  2  0  0  0  0  0  0  0  0  0
   -1.5749   -3.3737    1.8914 C   0  0  0  0  0  0  0  0  0  0  0  0
    0.4877   -3.8040    0.4675 C   0  0  0  0  0  0  0  0  0  0  0  0
   -0.9998   -2.0079    2.2535 C   0  0  0  0  0  0  0  0  0  0  0  0
    0.5251   -2.0038    2.1974 C   0  0  0  0  0  0  0  0  0  0  0  0
   -1.6727   -3.1239   -0.5795 C   0  0  0  0  0  0  0  0  0  0  0  0
    2.2453   -2.0944    0.4204 C   0  0  0  0  0  0  0  0  0  0  0  0
    2.6190   -0.7523    0.1917 C   0  0  0  0  0  0  0  0  0  0  0  0
    3.9367   -0.4288   -0.2972 C   0  0  0  0  0  0  0  0  0  0  0  0
    4.0017    0.9290   -0.4177 C   0  0  0  0  0  0  0  0  0  0  0  0
    4.9489   -1.3303   -0.5897 C   0  0  0  0  0  0  0  0  0  0  0  0
   -3.9024   -2.5407   -1.5185 C   0  0  0  0  0  0  0  0  0  0  0  0
    5.0722    1.8447   -0.8631 C   0  0  0  0  0  0  0  0  0  0  0  0
    2.3480    2.6916    0.0407 C   0  0  0  0  0  0  0  0  0  0  0  0
   -4.2782   -1.1540   -1.0828 C   0  0  0  0  0  0  0  0  0  0  0  0
    6.3188   -1.0575   -1.0916 C   0  0  0  0  0  0  0  0  0  0  0  0
    3.2752    3.6957    0.2849 C   0  0  0  0  0  0  0  0  0  0  0  0
    1.0057    2.9907   -0.1499 C   0  0  0  0  0  0  0  0  0  0  0  0
   -3.4729   -0.0792   -1.4403 C   0  0  0  0  0  0  0  0  0  0  0  0
   -5.4274   -0.9595   -0.3256 C   0  0  0  0  0  0  0  0  0  0  0  0
   -3.8219    1.2090   -1.0346 C   0  0  0  0  0  0  0  0  0  0  0  0
   -5.7762    0.3286    0.0801 C   0  0  0  0  0  0  0  0  0  0  0  0
    2.8522    5.0239    0.3397 C   0  0  0  0  0  0  0  0  0  0  0  0
    0.5827    4.3187   -0.0954 C   0  0  0  0  0  0  0  0  0  0  0  0
   -4.9735    1.4129   -0.2744 C   0  0  0  0  0  0  0  0  0  0  0  0
    1.5059    5.3353    0.1495 C   0  0  0  0  0  0  0  0  0  0  0  0
   -4.2480    3.5949    0.3326 C   0  0  0  0  0  0  0  0  0  0  0  0
   -4.6661    4.5949    1.3893 C   0  0  0  0  0  0  0  0  0  0  0  0
   -1.3344   -4.9299    0.4279 H   0  0  0  0  0  0  0  0  0  0  0  0
   -2.6671   -3.3256    1.9359 H   0  0  0  0  0  0  0  0  0  0  0  0
   -1.2785   -4.0882    2.6712 H   0  0  0  0  0  0  0  0  0  0  0  0
    0.8155   -4.0321   -0.5554 H   0  0  0  0  0  0  0  0  0  0  0  0
    0.9254   -4.5716    1.1191 H   0  0  0  0  0  0  0  0  0  0  0  0
   -1.3931   -1.2504    1.5641 H   0  0  0  0  0  0  0  0  0  0  0  0
   -1.3300   -1.7239    3.2593 H   0  0  0  0  0  0  0  0  0  0  0  0
    0.8750   -0.9866    2.4031 H   0  0  0  0  0  0  0  0  0  0  0  0
    0.9337   -2.6470    2.9868 H   0  0  0  0  0  0  0  0  0  0  0  0
   -3.5149   -3.7897    0.1347 H   0  0  0  0  0  0  0  0  0  0  0  0
   -3.3927   -2.5117   -2.4890 H   0  0  0  0  0  0  0  0  0  0  0  0
   -4.7974   -3.1597   -1.6495 H   0  0  0  0  0  0  0  0  0  0  0  0
    4.7118    2.7110   -1.4243 H   0  0  0  0  0  0  0  0  0  0  0  0
    5.7208    2.1446   -0.0346 H   0  0  0  0  0  0  0  0  0  0  0  0
    5.7202    1.3574   -1.5955 H   0  0  0  0  0  0  0  0  0  0  0  0
    6.9171   -1.9750   -1.0789 H   0  0  0  0  0  0  0  0  0  0  0  0
    6.2867   -0.7043   -2.1261 H   0  0  0  0  0  0  0  0  0  0  0  0
    6.8335   -0.3291   -0.4589 H   0  0  0  0  0  0  0  0  0  0  0  0
    4.3015    3.5262    0.5799 H   0  0  0  0  0  0  0  0  0  0  0  0
    0.2639    2.2228   -0.3534 H   0  0  0  0  0  0  0  0  0  0  0  0
   -2.5779   -0.2240   -2.0386 H   0  0  0  0  0  0  0  0  0  0  0  0
   -6.0586   -1.7972   -0.0420 H   0  0  0  0  0  0  0  0  0  0  0  0
   -3.1847    2.0278   -1.3552 H   0  0  0  0  0  0  0  0  0  0  0  0
   -6.6741    0.4814    0.6727 H   0  0  0  0  0  0  0  0  0  0  0  0
    3.5644    5.8134    0.5614 H   0  0  0  0  0  0  0  0  0  0  0  0
   -0.4656    4.5614   -0.2438 H   0  0  0  0  0  0  0  0  0  0  0  0
    1.1753    6.3687    0.1991 H   0  0  0  0  0  0  0  0  0  0  0  0
   -4.0312    4.1165   -0.6061 H   0  0  0  0  0  0  0  0  0  0  0  0
   -3.3398    3.0957    0.6937 H   0  0  0  0  0  0  0  0  0  0  0  0
   -3.8743    5.3272    1.5705 H   0  0  0  0  0  0  0  0  0  0  0  0
   -5.5732    5.1251    1.0809 H   0  0  0  0  0  0  0  0  0  0  0  0
   -4.8995    4.0866    2.3307 H   0  0  0  0  0  0  0  0  0  0  0  0
  1 14  2  0  0  0  0
  2 33  1  0  0  0  0
  2 35  1  0  0  0  0
  3 11  1  0  0  0  0
  3 13  1  0  0  0  0
  3 15  1  0  0  0  0
  4 14  1  0  0  0  0
  4 20  1  0  0  0  0
  4 46  1  0  0  0  0
  5  8  1  0  0  0  0
  5 15  2  0  0  0  0
  6  7  1  0  0  0  0
  6 18  1  0  0  0  0
  6 22  1  0  0  0  0
  7 16  2  0  0  0  0
  8 19  2  0  0  0  0
  9 10  1  0  0  0  0
  9 11  1  0  0  0  0
  9 14  1  0  0  0  0
  9 37  1  0  0  0  0
 10 12  1  0  0  0  0
 10 38  1  0  0  0  0
 10 39  1  0  0  0  0
 11 40  1  0  0  0  0
 11 41  1  0  0  0  0
 12 13  1  0  0  0  0
 12 42  1  0  0  0  0
 12 43  1  0  0  0  0
 13 44  1  0  0  0  0
 13 45  1  0  0  0  0
 15 16  1  0  0  0  0
 16 17  1  0  0  0  0
 17 18  2  0  0  0  0
 17 19  1  0  0  0  0
 18 21  1  0  0  0  0
 19 24  1  0  0  0  0
 20 23  1  0  0  0  0
 20 47  1  0  0  0  0
 20 48  1  0  0  0  0
 21 49  1  0  0  0  0
 21 50  1  0  0  0  0
 21 51  1  0  0  0  0
 22 25  2  0  0  0  0
 22 26  1  0  0  0  0
 23 27  2  0  0  0  0
 23 28  1  0  0  0  0
 24 52  1  0  0  0  0
 24 53  1  0  0  0  0
 24 54  1  0  0  0  0
 25 31  1  0  0  0  0
 25 55  1  0  0  0  0
 26 32  2  0  0  0  0
 26 56  1  0  0  0  0
 27 29  1  0  0  0  0
 27 57  1  0  0  0  0
 28 30  2  0  0  0  0
 28 58  1  0  0  0  0
 29 33  2  0  0  0  0
 29 59  1  0  0  0  0
 30 33  1  0  0  0  0
 30 60  1  0  0  0  0
 31 34  2  0  0  0  0
 31 61  1  0  0  0  0
 32 34  1  0  0  0  0
 32 62  1  0  0  0  0
 34 63  1  0  0  0  0
 35 36  1  0  0  0  0
 35 64  1  0  0  0  0
 35 65  1  0  0  0  0
 36 66  1  0  0  0  0
 36 67  1  0  0  0  0
 36 68  1  0  0  0  0
M  END
> <PUBCHEM_COMPOUND_CID>
16023140

> <PUBCHEM_CONFORMER_RMSD>
1

> <PUBCHEM_CONFORMER_DIVERSEORDER>
18
226
51
166
258
141
82
328
95
149
343
191
301
27
190
374
250
88
367
289
23
185
74
272
72
125
164
83
187
334
332
92
114
224
350
189
46
327
33
237
105
365
211
53
96
150
283
259
220
90
240
246
118
241
355
337
281
174
10
133
207
186
347
57
284
108
117
203
244
363
329
195
216
41
229
48
12
43
247
148
94
1
205
113
163
161
104
111
183
194
91
265
208
147
78
280
39
158
340
137
84
273
303
351
225
223
316
64
315
31
121
277
341
168
199
134
353
115
98
37
151
366
305
297
326
106
101
172
60
182
358
212
171
219
4
9
131
198
132
47
294
276
323
180
324
364
308
25
234
155
255
287
169
233
124
256
54
311
361
49
79
140
176
339
254
279
165
17
228
370
369
184
153
112
242
197
138
321
156
357
262
26
8
362
313
142
354
253
65
218
93
200
344
196
267
11
306
135
110
175
170
275
319
81
127
322
288
100
295
30
352
214
307
55
67
260
109
167
227
42
330
14
264
296
252
21
345
317
335
86
160
145
38
338
261
45
181
119
2
372
179
300
77
63
286
232
123
102
178
263
24
285
239
116
28
231
291
40
201
312
157
209
309
129
3
333
257
152
304
359
35
318
128
188
349
139
235
360
248
120
325
154
292
210
146
103
5
271
80
346
50
89
36
348
73
270
230
192
302
59
373
274
206
13
70
122
62
107
243
32
52
238
331
278
245
34
68
268
136
56
7
266
87
15
97
44
371
159
20
215
61
222
221
71
298
213
356
314
99
249
76
6
310
251
75
19
293
144
204
66
69
16
173
126
336
58
29
130
85
22
290
320
269
162
177
217
202
236
368
342
143
193
299
282

> <PUBCHEM_MMFF94_PARTIAL_CHARGES>
42
1 -0.57
11 0.37
13 0.37
14 0.57
15 0.41
16 0.29
18 -0.33
19 0.17
2 -0.36
20 0.44
21 0.18
22 -0.02
23 -0.14
24 0.14
25 -0.15
26 -0.15
27 -0.15
28 -0.15
29 -0.15
3 -0.84
30 -0.15
31 -0.15
32 -0.15
33 0.08
34 -0.15
35 0.28
4 -0.73
46 0.37
5 -0.31
55 0.15
56 0.15
57 0.15
58 0.15
59 0.15
6 0.59
60 0.15
61 0.15
62 0.15
63 0.15
7 -0.71
8 -0.31
9 0.06

> <PUBCHEM_EFFECTIVE_ROTOR_COUNT>
9.2

> <PUBCHEM_PHARMACOPHORE_FEATURES>
11
1 1 acceptor
1 2 acceptor
1 4 donor
1 7 acceptor
1 8 acceptor
3 3 5 15 cation
5 6 7 16 17 18 rings
6 22 25 26 31 32 34 rings
6 23 27 28 29 30 33 rings
6 3 9 10 11 12 13 rings
6 5 8 15 16 17 19 rings

> <PUBCHEM_HEAVY_ATOM_COUNT>
36

> <PUBCHEM_ATOM_DEF_STEREO_COUNT>
0

> <PUBCHEM_ATOM_UDEF_STEREO_COUNT>
1

> <PUBCHEM_BOND_DEF_STEREO_COUNT>
0

> <PUBCHEM_BOND_UDEF_STEREO_COUNT>
0

> <PUBCHEM_ISOTOPIC_ATOM_COUNT>
0

> <PUBCHEM_COMPONENT_COUNT>
1

> <PUBCHEM_CACTVS_TAUTO_COUNT>
2

> <PUBCHEM_CONFORMER_ID>
00F47E6400000012

> <PUBCHEM_MMFF94_ENERGY>
124.9753

> <PUBCHEM_FEATURE_SELFOVERLAP>
55.961

> <PUBCHEM_SHAPE_FINGERPRINT>
10439779 11 18337938091537836744
10794284 68 16532283451216977171
11204353 107 18120367653931229812
11273773 38 18195525883691145877
12788726 201 18191585251555762130
13165053 182 17463445989806646340
13165054 235 17912680971506192385
14251764 38 18120927579915424968
14279260 333 18337103446644695046
14289585 56 17261905168504770259
15320291 9 18048305932329250173
15320467 1 18411417298049433773
15351339 4 18410003343107184761
15975801 100 17240749645926681094
16112460 7 18408884044570343864
19311894 1 18341325579283344087
21033648 144 17402625533273764794
21133410 58 15234689220218422844
21133410 62 17823980035772985149
325973 47 17400639819247572597
3388396 114 17694204969908131359
437795 70 18199483086153184854
437795 96 15818460312329479801
463206 1 18264773164172755528
50080093 196 17832149316693395705
50150288 127 16768497453198164393
508180 173 18341057354449559866
5776283 40 18263934396167993052
5895379 119 18267846406604477786

> <PUBCHEM_SHAPE_MULTIPOLES>
699.24
12.91
8.09
1.44
3.92
7.8
-0.53
4.18
4.08
0.05
-2.2
0.95
-1.08
-0.9

> <PUBCHEM_SHAPE_SELFOVERLAP>
1513.518

> <PUBCHEM_SHAPE_VOLUME>
381.3

> <PUBCHEM_COORDINATE_TYPE>
2
5
10

$$$$
