25161941
  -OEChem-01171810093D

 67 69  0     1  0  0  0  0  0999 V2000
   -2.4257   -1.9127   -1.2653 S   0  0  0  0  0  0  0  0  0  0  0  0
    3.8690    2.0099    1.5064 O   0  0  0  0  0  0  0  0  0  0  0  0
   -1.9776    2.8553   -0.9637 O   0  0  0  0  0  0  0  0  0  0  0  0
   -2.0551   -2.5258   -2.5265 O   0  0  0  0  0  0  0  0  0  0  0  0
   -3.6941   -2.2373   -0.6411 O   0  0  0  0  0  0  0  0  0  0  0  0
    2.1037    0.8899   -1.2223 N   0  0  0  0  0  0  0  0  0  0  0  0
   -0.2940    1.5932    0.0156 N   0  0  0  0  0  0  0  0  0  0  0  0
   -2.2992   -0.2256   -1.3968 N   0  0  0  0  0  0  0  0  0  0  0  0
    2.1406    1.9577   -0.2232 C   0  0  1  0  0  0  0  0  0  0  0  0
    1.5572    1.3918   -2.4909 C   0  0  0  0  0  0  0  0  0  0  0  0
    3.4435    0.3161   -1.4111 C   0  0  0  0  0  0  0  0  0  0  0  0
    1.4661    0.2755   -3.5323 C   0  0  0  0  0  0  0  0  0  0  0  0
    3.4138   -0.8356   -2.4172 C   0  0  0  0  0  0  0  0  0  0  0  0
    2.8189   -0.3929   -3.7490 C   0  0  0  0  0  0  0  0  0  0  0  0
    0.7473    2.5896   -0.0791 C   0  0  0  0  0  0  0  0  0  0  0  0
    2.7046    1.4461    1.0910 C   0  0  0  0  0  0  0  0  0  0  0  0
   -2.5002    0.6254   -0.1969 C   0  0  2  0  0  0  0  0  0  0  0  0
   -3.9798    1.0108   -0.1091 C   0  0  0  0  0  0  0  0  0  0  0  0
   -1.5848    1.8142   -0.4408 C   0  0  0  0  0  0  0  0  0  0  0  0
   -4.3231    1.9564    1.0598 C   0  0  0  0  0  0  0  0  0  0  0  0
    2.2784    0.4980    1.9919 C   0  0  0  0  0  0  0  0  0  0  0  0
   -3.9595    1.2883    2.3886 C   0  0  0  0  0  0  0  0  0  0  0  0
   -5.7985    2.3583    1.0720 C   0  0  0  0  0  0  0  0  0  0  0  0
    3.2431    0.4780    3.0272 C   0  0  0  0  0  0  0  0  0  0  0  0
    4.1899    1.4153    2.6854 C   0  0  0  0  0  0  0  0  0  0  0  0
   -1.1612   -2.2831   -0.0869 C   0  0  0  0  0  0  0  0  0  0  0  0
   -1.4610   -2.2992    1.2753 C   0  0  0  0  0  0  0  0  0  0  0  0
    0.1358   -2.5601   -0.5191 C   0  0  0  0  0  0  0  0  0  0  0  0
   -0.4638   -2.5925    2.2053 C   0  0  0  0  0  0  0  0  0  0  0  0
    1.1329   -2.8534    0.4111 C   0  0  0  0  0  0  0  0  0  0  0  0
    0.8332   -2.8696    1.7733 C   0  0  0  0  0  0  0  0  0  0  0  0
    1.8997   -3.1820    2.7681 C   0  0  0  0  0  0  0  0  0  0  0  0
    2.8144    2.7599   -0.5606 H   0  0  0  0  0  0  0  0  0  0  0  0
    0.5392    1.7773   -2.4034 H   0  0  0  0  0  0  0  0  0  0  0  0
    2.1782    2.2073   -2.8853 H   0  0  0  0  0  0  0  0  0  0  0  0
    4.1525    1.0818   -1.7538 H   0  0  0  0  0  0  0  0  0  0  0  0
    3.8441   -0.1060   -0.4834 H   0  0  0  0  0  0  0  0  0  0  0  0
    1.1017    0.6833   -4.4821 H   0  0  0  0  0  0  0  0  0  0  0  0
    0.7344   -0.4742   -3.2052 H   0  0  0  0  0  0  0  0  0  0  0  0
    2.8254   -1.6671   -2.0128 H   0  0  0  0  0  0  0  0  0  0  0  0
    4.4303   -1.2134   -2.5765 H   0  0  0  0  0  0  0  0  0  0  0  0
    2.7104   -1.2539   -4.4175 H   0  0  0  0  0  0  0  0  0  0  0  0
    3.5015    0.3123   -4.2387 H   0  0  0  0  0  0  0  0  0  0  0  0
    0.6934    3.1828    0.8422 H   0  0  0  0  0  0  0  0  0  0  0  0
    0.5272    3.2835   -0.8987 H   0  0  0  0  0  0  0  0  0  0  0  0
   -2.1851    0.1156    0.7106 H   0  0  0  0  0  0  0  0  0  0  0  0
   -0.0844    0.7183    0.4850 H   0  0  0  0  0  0  0  0  0  0  0  0
   -4.2886    1.4934   -1.0468 H   0  0  0  0  0  0  0  0  0  0  0  0
   -4.5955    0.1070   -0.0262 H   0  0  0  0  0  0  0  0  0  0  0  0
   -3.7379    2.8789    0.9710 H   0  0  0  0  0  0  0  0  0  0  0  0
    1.3793   -0.0920    1.9264 H   0  0  0  0  0  0  0  0  0  0  0  0
   -1.9126    0.2065   -2.2447 H   0  0  0  0  0  0  0  0  0  0  0  0
   -4.4249    0.3012    2.4816 H   0  0  0  0  0  0  0  0  0  0  0  0
   -4.2992    1.8987    3.2330 H   0  0  0  0  0  0  0  0  0  0  0  0
   -2.8775    1.1726    2.5014 H   0  0  0  0  0  0  0  0  0  0  0  0
   -6.4465    1.4831    1.1890 H   0  0  0  0  0  0  0  0  0  0  0  0
   -6.0095    3.0505    1.8939 H   0  0  0  0  0  0  0  0  0  0  0  0
   -6.0694    2.8573    0.1357 H   0  0  0  0  0  0  0  0  0  0  0  0
    3.2452   -0.1392    3.9139 H   0  0  0  0  0  0  0  0  0  0  0  0
    5.1019    1.7606    3.1498 H   0  0  0  0  0  0  0  0  0  0  0  0
   -2.4640   -2.0903    1.6366 H   0  0  0  0  0  0  0  0  0  0  0  0
    0.3903   -2.5481   -1.5748 H   0  0  0  0  0  0  0  0  0  0  0  0
   -0.7094   -2.6035    3.2639 H   0  0  0  0  0  0  0  0  0  0  0  0
    2.1397   -3.0679    0.0629 H   0  0  0  0  0  0  0  0  0  0  0  0
    1.8976   -4.2523    2.9968 H   0  0  0  0  0  0  0  0  0  0  0  0
    2.8899   -2.9083    2.3885 H   0  0  0  0  0  0  0  0  0  0  0  0
    1.7463   -2.6232    3.6975 H   0  0  0  0  0  0  0  0  0  0  0  0
  1  4  2  0  0  0  0
  1  5  2  0  0  0  0
  1  8  1  0  0  0  0
  1 26  1  0  0  0  0
  2 16  1  0  0  0  0
  2 25  1  0  0  0  0
  3 19  2  0  0  0  0
  6  9  1  0  0  0  0
  6 10  1  0  0  0  0
  6 11  1  0  0  0  0
  7 15  1  0  0  0  0
  7 19  1  0  0  0  0
  7 47  1  0  0  0  0
  8 17  1  0  0  0  0
  8 52  1  0  0  0  0
  9 15  1  0  0  0  0
  9 16  1  0  0  0  0
  9 33  1  0  0  0  0
 10 12  1  0  0  0  0
 10 34  1  0  0  0  0
 10 35  1  0  0  0  0
 11 13  1  0  0  0  0
 11 36  1  0  0  0  0
 11 37  1  0  0  0  0
 12 14  1  0  0  0  0
 12 38  1  0  0  0  0
 12 39  1  0  0  0  0
 13 14  1  0  0  0  0
 13 40  1  0  0  0  0
 13 41  1  0  0  0  0
 14 42  1  0  0  0  0
 14 43  1  0  0  0  0
 15 44  1  0  0  0  0
 15 45  1  0  0  0  0
 16 21  2  0  0  0  0
 17 18  1  0  0  0  0
 17 19  1  0  0  0  0
 17 46  1  0  0  0  0
 18 20  1  0  0  0  0
 18 48  1  0  0  0  0
 18 49  1  0  0  0  0
 20 22  1  0  0  0  0
 20 23  1  0  0  0  0
 20 50  1  0  0  0  0
 21 24  1  0  0  0  0
 21 51  1  0  0  0  0
 22 53  1  0  0  0  0
 22 54  1  0  0  0  0
 22 55  1  0  0  0  0
 23 56  1  0  0  0  0
 23 57  1  0  0  0  0
 23 58  1  0  0  0  0
 24 25  2  0  0  0  0
 24 59  1  0  0  0  0
 25 60  1  0  0  0  0
 26 27  2  0  0  0  0
 26 28  1  0  0  0  0
 27 29  1  0  0  0  0
 27 61  1  0  0  0  0
 28 30  2  0  0  0  0
 28 62  1  0  0  0  0
 29 31  2  0  0  0  0
 29 63  1  0  0  0  0
 30 31  1  0  0  0  0
 30 64  1  0  0  0  0
 31 32  1  0  0  0  0
 32 65  1  0  0  0  0
 32 66  1  0  0  0  0
 32 67  1  0  0  0  0
M  END
> <PUBCHEM_COMPOUND_CID>
25161941

> <PUBCHEM_CONFORMER_RMSD>
1.4

> <PUBCHEM_CONFORMER_DIVERSEORDER>
7
184
109
165
152
100
183
66
1
51
118
182
6
150
39
81
13
128
120
185
166
91
147
180
90
129
4
38
23
2
163
52
76
130
19
164
157
177
127
115
65
101
154
103
173
78
142
167
84
57
162
25
159
9
114
45
148
92
55
153
134
86
47
178
126
10
132
82
30
123
33
97
146
18
53
16
169
35
71
179
43
139
160
20
133
107
99
172
79
15
69
170
3
48
64
155
138
61
181
34
98
29
117
96
141
42
124
46
95
44
70
88
21
89
140
60
136
85
32
87
5
145
112
22
50
8
116
68
74
119
24
161
77
31
63
58
122
121
106
175
144
168
156
131
27
73
80
11
72
174
62
110
37
135
54
143
125
14
40
26
36
137
104
59
83
176
28
149
17
12
67
94
158
113
49
41
75
93
105
151
171
56
111
108
102

> <PUBCHEM_MMFF94_PARTIAL_CHARGES>
34
1 1.45
10 0.27
11 0.27
15 0.3
16 -0.04
17 0.42
19 0.57
2 -0.28
21 -0.15
24 -0.15
25 -0.01
26 -0.01
27 -0.15
28 -0.15
29 -0.15
3 -0.57
30 -0.15
31 -0.14
32 0.14
4 -0.65
47 0.37
5 -0.65
51 0.15
52 0.42
59 0.15
6 -0.81
60 0.15
61 0.15
62 0.15
63 0.15
64 0.15
7 -0.73
8 -0.91
9 0.45

> <PUBCHEM_EFFECTIVE_ROTOR_COUNT>
12.2

> <PUBCHEM_PHARMACOPHORE_FEATURES>
11
1 2 acceptor
1 3 acceptor
1 4 acceptor
1 5 acceptor
1 6 cation
1 7 donor
1 8 donor
3 20 22 23 hydrophobe
5 2 16 21 24 25 rings
6 26 27 28 29 30 31 rings
6 6 10 11 12 13 14 rings

> <PUBCHEM_HEAVY_ATOM_COUNT>
32

> <PUBCHEM_ATOM_DEF_STEREO_COUNT>
0

> <PUBCHEM_ATOM_UDEF_STEREO_COUNT>
2

> <PUBCHEM_BOND_DEF_STEREO_COUNT>
0

> <PUBCHEM_BOND_UDEF_STEREO_COUNT>
0

> <PUBCHEM_ISOTOPIC_ATOM_COUNT>
0

> <PUBCHEM_COMPONENT_COUNT>
1

> <PUBCHEM_CACTVS_TAUTO_COUNT>
2

> <PUBCHEM_CONFORMER_ID>
017FF0D500000007

> <PUBCHEM_MMFF94_ENERGY>
37.5756

> <PUBCHEM_FEATURE_SELFOVERLAP>
55.84

> <PUBCHEM_SHAPE_FINGERPRINT>
10816530 23 17059760234605013457
11513181 2 18125970902820410946
11578080 2 17345493637029811112
12156800 1 18117299122877184618
12422481 6 18044351873545188385
12788726 201 17908427201483688305
133893 2 17677315148540557727
14251757 17 17489603259118032507
14468879 13 17203322368664348481
14840074 17 16733247020660313632
20600515 1 17760912335938652641
20691752 17 18333731320968160989
20764821 26 17968108520408233059
25265897 201 17915446225648607798
3052486 1 18335420218004415100
3298306 158 18116170908479010061
3380486 77 17825931895980831469
35225 105 17980234020770372353
469060 322 14565921773991522179
513532 50 17775001224639470529
550186 7 17771326854559104712

> <PUBCHEM_SHAPE_MULTIPOLES>
623.97
8.01
4.16
3.87
7.4
3.21
-1.2
-5.2
3.51
0.58
1.12
-4.02
-0.09
-1.85

> <PUBCHEM_SHAPE_SELFOVERLAP>
1278.915

> <PUBCHEM_SHAPE_VOLUME>
361.6

> <PUBCHEM_COORDINATE_TYPE>
2
5
10

$$$$
