6223681
  -OEChem-01171810023D

 52 54  0     0  0  0  0  0  0999 V2000
   -4.4713    3.0006    0.8190 Br  0  0  0  0  0  0  0  0  0  0  0  0
    5.3303   -2.3642   -0.4837 O   0  0  0  0  0  0  0  0  0  0  0  0
    7.7728   -1.0764    0.3450 O   0  0  0  0  0  0  0  0  0  0  0  0
   -4.4966   -0.1086    0.7559 O   0  0  0  0  0  0  0  0  0  0  0  0
   -2.3848   -1.8084    0.2736 O   0  0  0  0  0  0  0  0  0  0  0  0
    3.1428    3.0903   -0.7852 O   0  0  0  0  0  0  0  0  0  0  0  0
   -6.8670   -1.0239    1.3072 O   0  0  0  0  0  0  0  0  0  0  0  0
   -7.6668   -1.0614   -0.8723 N   0  0  0  0  0  0  0  0  0  0  0  0
    5.4201   -1.0151   -0.2606 C   0  0  0  0  0  0  0  0  0  0  0  0
    6.6066   -0.3895    0.1304 C   0  0  0  0  0  0  0  0  0  0  0  0
    6.6191   -2.9689   -0.6220 C   0  0  0  0  0  0  0  0  0  0  0  0
    7.5474   -2.4829    0.4740 C   0  0  0  0  0  0  0  0  0  0  0  0
    4.2892    1.1177   -0.2382 C   0  0  0  0  0  0  0  0  0  0  0  0
    4.2569   -0.2636   -0.4304 C   0  0  0  0  0  0  0  0  0  0  0  0
    6.6411    0.9937    0.3092 C   0  0  0  0  0  0  0  0  0  0  0  0
    5.4808    1.7461    0.1257 C   0  0  0  0  0  0  0  0  0  0  0  0
   -0.7310    1.4227   -0.0010 C   0  0  0  0  0  0  0  0  0  0  0  0
    3.0809    1.9052   -0.4239 C   0  0  0  0  0  0  0  0  0  0  0  0
   -3.2593    0.4096    0.5064 C   0  0  0  0  0  0  0  0  0  0  0  0
   -2.1955   -0.4594    0.2637 C   0  0  0  0  0  0  0  0  0  0  0  0
   -0.9227    0.0506    0.0082 C   0  0  0  0  0  0  0  0  0  0  0  0
    0.6142    1.9605   -0.2708 C   0  0  0  0  0  0  0  0  0  0  0  0
   -1.7773    2.2987    0.2383 C   0  0  0  0  0  0  0  0  0  0  0  0
    1.7522    1.2631   -0.1388 C   0  0  0  0  0  0  0  0  0  0  0  0
   -3.0502    1.7886    0.4938 C   0  0  0  0  0  0  0  0  0  0  0  0
   -5.3442   -0.3273   -0.3689 C   0  0  0  0  0  0  0  0  0  0  0  0
   -6.6909   -0.8374    0.0993 C   0  0  0  0  0  0  0  0  0  0  0  0
   -7.5011   -0.8385   -2.3064 C   0  0  0  0  0  0  0  0  0  0  0  0
   -8.9818   -1.5441   -0.4688 C   0  0  0  0  0  0  0  0  0  0  0  0
   -2.2136   -2.4778    1.5213 C   0  0  0  0  0  0  0  0  0  0  0  0
    7.0117   -2.7326   -1.6188 H   0  0  0  0  0  0  0  0  0  0  0  0
    6.4868   -4.0532   -0.5552 H   0  0  0  0  0  0  0  0  0  0  0  0
    8.5178   -2.9836    0.3999 H   0  0  0  0  0  0  0  0  0  0  0  0
    7.1347   -2.6816    1.4708 H   0  0  0  0  0  0  0  0  0  0  0  0
    3.3579   -0.7790   -0.7567 H   0  0  0  0  0  0  0  0  0  0  0  0
    7.5624    1.4897    0.6019 H   0  0  0  0  0  0  0  0  0  0  0  0
    5.5232    2.8213    0.2795 H   0  0  0  0  0  0  0  0  0  0  0  0
   -0.1257   -0.6569   -0.1999 H   0  0  0  0  0  0  0  0  0  0  0  0
   -1.6111    3.3736    0.2294 H   0  0  0  0  0  0  0  0  0  0  0  0
    0.6423    2.9949   -0.6050 H   0  0  0  0  0  0  0  0  0  0  0  0
    1.7553    0.2510    0.2443 H   0  0  0  0  0  0  0  0  0  0  0  0
   -5.4888    0.6095   -0.9168 H   0  0  0  0  0  0  0  0  0  0  0  0
   -4.8925   -1.0814   -1.0229 H   0  0  0  0  0  0  0  0  0  0  0  0
   -7.7288   -1.7695   -2.8340 H   0  0  0  0  0  0  0  0  0  0  0  0
   -6.4907   -0.5271   -2.5717 H   0  0  0  0  0  0  0  0  0  0  0  0
   -8.2040   -0.0612   -2.6205 H   0  0  0  0  0  0  0  0  0  0  0  0
   -9.0498   -1.6907    0.6121 H   0  0  0  0  0  0  0  0  0  0  0  0
   -9.1753   -2.4982   -0.9679 H   0  0  0  0  0  0  0  0  0  0  0  0
   -9.7345   -0.8115   -0.7747 H   0  0  0  0  0  0  0  0  0  0  0  0
   -2.9241   -2.0989    2.2627 H   0  0  0  0  0  0  0  0  0  0  0  0
   -2.4043   -3.5434    1.3673 H   0  0  0  0  0  0  0  0  0  0  0  0
   -1.1886   -2.3544    1.8851 H   0  0  0  0  0  0  0  0  0  0  0  0
  1 25  1  0  0  0  0
  2  9  1  0  0  0  0
  2 11  1  0  0  0  0
  3 10  1  0  0  0  0
  3 12  1  0  0  0  0
  4 19  1  0  0  0  0
  4 26  1  0  0  0  0
  5 20  1  0  0  0  0
  5 30  1  0  0  0  0
  6 18  2  0  0  0  0
  7 27  2  0  0  0  0
  8 27  1  0  0  0  0
  8 28  1  0  0  0  0
  8 29  1  0  0  0  0
  9 10  2  0  0  0  0
  9 14  1  0  0  0  0
 10 15  1  0  0  0  0
 11 12  1  0  0  0  0
 11 31  1  0  0  0  0
 11 32  1  0  0  0  0
 12 33  1  0  0  0  0
 12 34  1  0  0  0  0
 13 14  2  0  0  0  0
 13 16  1  0  0  0  0
 13 18  1  0  0  0  0
 14 35  1  0  0  0  0
 15 16  2  0  0  0  0
 15 36  1  0  0  0  0
 16 37  1  0  0  0  0
 17 21  2  0  0  0  0
 17 22  1  0  0  0  0
 17 23  1  0  0  0  0
 18 24  1  0  0  0  0
 19 20  2  0  0  0  0
 19 25  1  0  0  0  0
 20 21  1  0  0  0  0
 21 38  1  0  0  0  0
 22 24  2  0  0  0  0
 22 40  1  0  0  0  0
 23 25  2  0  0  0  0
 23 39  1  0  0  0  0
 24 41  1  0  0  0  0
 26 27  1  0  0  0  0
 26 42  1  0  0  0  0
 26 43  1  0  0  0  0
 28 44  1  0  0  0  0
 28 45  1  0  0  0  0
 28 46  1  0  0  0  0
 29 47  1  0  0  0  0
 29 48  1  0  0  0  0
 29 49  1  0  0  0  0
 30 50  1  0  0  0  0
 30 51  1  0  0  0  0
 30 52  1  0  0  0  0
M  END
> <PUBCHEM_COMPOUND_CID>
6223681

> <PUBCHEM_CONFORMER_RMSD>
1

> <PUBCHEM_CONFORMER_DIVERSEORDER>
1
154
83
36
134
93
29
43
95
127
126
19
101
76
26
119
8
143
41
32
90
77
131
148
114
82
84
144
105
38
58
46
71
142
11
103
117
67
73
91
118
75
113
138
156
55
88
153
135
15
40
16
100
112
102
137
42
37
108
28
128
130
122
14
155
66
33
25
24
63
34
104
64
97
52
60
27
39
146
107
7
79
120
150
110
44
89
87
81
21
20
115
121
22
69
149
140
109
98
56
6
141
124
9
3
99
47
61
145
50
80
65
18
147
10
157
17
158
116
125
123
31
106
132
94
86
49
45
23
72
4
129
74
136
13
12
85
92
111
57
48
62
70
59
54
2
68
5
78
139
53
96
152
151
51
133
35
30

> <PUBCHEM_MMFF94_PARTIAL_CHARGES>
37
1 -0.11
10 0.08
11 0.28
12 0.28
13 0.09
14 -0.15
15 -0.15
16 -0.15
17 0.03
18 0.47
19 0.08
2 -0.36
20 0.08
21 -0.15
22 -0.18
23 -0.15
24 -0.14
25 0.11
26 0.34
27 0.57
28 0.3
29 0.3
3 -0.36
30 0.28
35 0.15
36 0.15
37 0.15
38 0.15
39 0.15
4 -0.36
40 0.15
41 0.15
5 -0.36
6 -0.57
7 -0.57
8 -0.66
9 0.08

> <PUBCHEM_EFFECTIVE_ROTOR_COUNT>
8.8

> <PUBCHEM_PHARMACOPHORE_FEATURES>
10
1 1 hydrophobe
1 2 acceptor
1 3 acceptor
1 4 acceptor
1 5 acceptor
1 6 acceptor
1 7 acceptor
6 17 19 20 21 23 25 rings
6 2 3 9 10 11 12 rings
6 9 10 13 14 15 16 rings

> <PUBCHEM_HEAVY_ATOM_COUNT>
30

> <PUBCHEM_ATOM_DEF_STEREO_COUNT>
0

> <PUBCHEM_ATOM_UDEF_STEREO_COUNT>
0

> <PUBCHEM_BOND_DEF_STEREO_COUNT>
1

> <PUBCHEM_BOND_UDEF_STEREO_COUNT>
0

> <PUBCHEM_ISOTOPIC_ATOM_COUNT>
0

> <PUBCHEM_COMPONENT_COUNT>
1

> <PUBCHEM_CACTVS_TAUTO_COUNT>
1

> <PUBCHEM_CONFORMER_ID>
005EF74100000001

> <PUBCHEM_MMFF94_ENERGY>
113.129

> <PUBCHEM_FEATURE_SELFOVERLAP>
50.808

> <PUBCHEM_SHAPE_FINGERPRINT>
10 15 12031792465861696933
10066227 49 18409728474170106599
10119406 146 18260272941133426747
10981352 41 18060140917051179590
12107183 9 18195256511927494776
13165053 103 17986664879729529149
13533116 47 18340770428800874752
14216079 64 18409166610494913622
14251764 18 18273219719897698528
15183329 4 17749385949233363600
15198563 99 17313372406374993525
1768 124 18131351882687823710
19301676 85 18334859415514575979
19958102 18 18187081758785356213
20165401 70 18343581824652470598
2026 5 18337951195030252655
20982279 24 17968396606099501827
21130935 74 18200595792115386648
21197605 99 18343866598443463918
21792961 116 18334572452929520333
22002106 203 18340195299032806714
23559900 14 18264205988082453945
23569943 247 18343021073880553747
3383291 50 18408886239304362283
3633792 109 18187357723704329677
3711267 37 12252176351540106559
4073 2 18260556658362257456
439807 62 18343584053117309617
5080951 261 15841251706783327645
5104073 3 18272375252751357672
559249 180 18337955592997187808
5718773 13 18411700971706177252
6081469 158 17894625950546982575
6138700 20 18407478864973890891
9555976 147 17559686039952282848
9689198 14 11024110958162861695
99344 41 18270964531755464095
9962374 69 18340760546349606366

> <PUBCHEM_SHAPE_MULTIPOLES>
583.13
26.54
3.37
1.08
5.18
0.33
0.21
-18.76
3.74
-2.1
-0.21
1.99
-0.37
-1.08

> <PUBCHEM_SHAPE_SELFOVERLAP>
1230.429

> <PUBCHEM_SHAPE_VOLUME>
335.7

> <PUBCHEM_COORDINATE_TYPE>
2
5
10

$$$$
