3629945
  -OEChem-01171810023D

 70 72  0     1  0  0  0  0  0999 V2000
    4.7126   -3.5904    0.2752 O   0  0  0  0  0  0  0  0  0  0  0  0
   -4.7061    3.5925    0.2722 O   0  0  0  0  0  0  0  0  0  0  0  0
    4.8102   -0.9742   -0.6617 O   0  0  0  0  0  0  0  0  0  0  0  0
   -4.8054    0.9764   -0.6648 O   0  0  0  0  0  0  0  0  0  0  0  0
    2.6043   -1.1440    2.0829 N   0  0  0  0  0  0  0  0  0  0  0  0
   -2.6117    1.1417    2.0898 N   0  0  0  0  0  0  0  0  0  0  0  0
    1.1594   -0.9170    2.0798 C   0  0  0  0  0  0  0  0  0  0  0  0
   -1.1675    0.9121    2.0930 C   0  0  0  0  0  0  0  0  0  0  0  0
    0.7369   -0.1560    0.8175 C   0  0  0  0  0  0  0  0  0  0  0  0
    0.7520   -0.1562    3.3464 C   0  0  0  0  0  0  0  0  0  0  0  0
   -0.7613    0.1502    0.8266 C   0  0  0  0  0  0  0  0  0  0  0  0
   -0.7462    0.1504    3.3551 C   0  0  0  0  0  0  0  0  0  0  0  0
    2.9515   -2.2688    1.2282 C   0  0  0  0  0  0  0  0  0  0  0  0
   -2.9523    2.2670    1.2334 C   0  0  0  0  0  0  0  0  0  0  0  0
    4.4635   -2.4965    1.1626 C   0  0  2  0  0  0  0  0  0  0  0  0
   -4.4635    2.4982    1.1609 C   0  0  2  0  0  0  0  0  0  0  0  0
    5.2374   -1.2787    0.6625 C   0  0  0  0  0  0  0  0  0  0  0  0
   -5.2379    1.2820    0.6574 C   0  0  0  0  0  0  0  0  0  0  0  0
    4.8534    0.3425   -1.0346 C   0  0  0  0  0  0  0  0  0  0  0  0
   -4.8499   -0.3404   -1.0377 C   0  0  0  0  0  0  0  0  0  0  0  0
    3.9501    0.8495   -1.9690 C   0  0  0  0  0  0  0  0  0  0  0  0
   -3.9434   -0.8495   -1.9677 C   0  0  0  0  0  0  0  0  0  0  0  0
    5.8149    1.1799   -0.4686 C   0  0  0  0  0  0  0  0  0  0  0  0
   -5.8159   -1.1753   -0.4760 C   0  0  0  0  0  0  0  0  0  0  0  0
    4.0083    2.1937   -2.3371 C   0  0  0  0  0  0  0  0  0  0  0  0
   -4.0031   -2.1936   -2.3359 C   0  0  0  0  0  0  0  0  0  0  0  0
    2.9143   -0.0319   -2.5852 C   0  0  0  0  0  0  0  0  0  0  0  0
   -2.9028    0.0293   -2.5794 C   0  0  0  0  0  0  0  0  0  0  0  0
    5.8730    2.5240   -0.8367 C   0  0  0  0  0  0  0  0  0  0  0  0
   -5.8753   -2.5195   -0.8441 C   0  0  0  0  0  0  0  0  0  0  0  0
    4.9698    3.0310   -1.7709 C   0  0  0  0  0  0  0  0  0  0  0  0
   -4.9691   -3.0285   -1.7741 C   0  0  0  0  0  0  0  0  0  0  0  0
    0.6320   -1.8810    2.1078 H   0  0  0  0  0  0  0  0  0  0  0  0
   -0.6383    1.8753    2.1157 H   0  0  0  0  0  0  0  0  0  0  0  0
    0.9551   -0.7350   -0.0852 H   0  0  0  0  0  0  0  0  0  0  0  0
    1.2977    0.7846    0.7366 H   0  0  0  0  0  0  0  0  0  0  0  0
    1.3116    0.7859    3.4187 H   0  0  0  0  0  0  0  0  0  0  0  0
    1.0011   -0.7429    4.2394 H   0  0  0  0  0  0  0  0  0  0  0  0
   -0.9881    0.7264   -0.0755 H   0  0  0  0  0  0  0  0  0  0  0  0
   -1.3225   -0.7909    0.7534 H   0  0  0  0  0  0  0  0  0  0  0  0
   -1.3056   -0.7914    3.4326 H   0  0  0  0  0  0  0  0  0  0  0  0
   -0.9866    0.7373    4.2502 H   0  0  0  0  0  0  0  0  0  0  0  0
    2.9243   -1.3422    3.0308 H   0  0  0  0  0  0  0  0  0  0  0  0
   -2.9342    1.3407    3.0367 H   0  0  0  0  0  0  0  0  0  0  0  0
    2.5733   -2.1362    0.2089 H   0  0  0  0  0  0  0  0  0  0  0  0
    2.4827   -3.1899    1.5994 H   0  0  0  0  0  0  0  0  0  0  0  0
   -2.5733    2.1375    0.2141 H   0  0  0  0  0  0  0  0  0  0  0  0
   -2.4834    3.1870    1.6073 H   0  0  0  0  0  0  0  0  0  0  0  0
    4.8403   -2.7854    2.1504 H   0  0  0  0  0  0  0  0  0  0  0  0
   -4.8388    2.7865    2.1501 H   0  0  0  0  0  0  0  0  0  0  0  0
    5.0808   -0.4491    1.3625 H   0  0  0  0  0  0  0  0  0  0  0  0
    6.3060   -1.5212    0.6223 H   0  0  0  0  0  0  0  0  0  0  0  0
   -5.0838    0.4522    1.3577 H   0  0  0  0  0  0  0  0  0  0  0  0
   -6.3070    1.5219    0.6142 H   0  0  0  0  0  0  0  0  0  0  0  0
    4.4270   -3.3212   -0.6147 H   0  0  0  0  0  0  0  0  0  0  0  0
   -5.6652    3.7526    0.2600 H   0  0  0  0  0  0  0  0  0  0  0  0
    6.5593    0.8219    0.2363 H   0  0  0  0  0  0  0  0  0  0  0  0
   -6.5628   -0.8157    0.2254 H   0  0  0  0  0  0  0  0  0  0  0  0
    3.3123    2.6016   -3.0654 H   0  0  0  0  0  0  0  0  0  0  0  0
   -3.3047   -2.6030   -3.0611 H   0  0  0  0  0  0  0  0  0  0  0  0
    3.3308   -0.5430   -3.4589 H   0  0  0  0  0  0  0  0  0  0  0  0
    2.5523   -0.7843   -1.8790 H   0  0  0  0  0  0  0  0  0  0  0  0
    2.0403    0.5462   -2.9049 H   0  0  0  0  0  0  0  0  0  0  0  0
   -3.3026    0.5121   -3.4767 H   0  0  0  0  0  0  0  0  0  0  0  0
   -2.5673    0.8053   -1.8858 H   0  0  0  0  0  0  0  0  0  0  0  0
   -2.0144   -0.5467   -2.8604 H   0  0  0  0  0  0  0  0  0  0  0  0
    6.6263    3.1746   -0.4022 H   0  0  0  0  0  0  0  0  0  0  0  0
   -6.6322   -3.1683   -0.4129 H   0  0  0  0  0  0  0  0  0  0  0  0
    5.0166    4.0771   -2.0591 H   0  0  0  0  0  0  0  0  0  0  0  0
   -5.0170   -4.0746   -2.0624 H   0  0  0  0  0  0  0  0  0  0  0  0
  1 15  1  0  0  0  0
  1 55  1  0  0  0  0
  2 16  1  0  0  0  0
  2 56  1  0  0  0  0
  3 17  1  0  0  0  0
  3 19  1  0  0  0  0
  4 18  1  0  0  0  0
  4 20  1  0  0  0  0
  5  7  1  0  0  0  0
  5 13  1  0  0  0  0
  5 43  1  0  0  0  0
  6  8  1  0  0  0  0
  6 14  1  0  0  0  0
  6 44  1  0  0  0  0
  7  9  1  0  0  0  0
  7 10  1  0  0  0  0
  7 33  1  0  0  0  0
  8 11  1  0  0  0  0
  8 12  1  0  0  0  0
  8 34  1  0  0  0  0
  9 11  1  0  0  0  0
  9 35  1  0  0  0  0
  9 36  1  0  0  0  0
 10 12  1  0  0  0  0
 10 37  1  0  0  0  0
 10 38  1  0  0  0  0
 11 39  1  0  0  0  0
 11 40  1  0  0  0  0
 12 41  1  0  0  0  0
 12 42  1  0  0  0  0
 13 15  1  0  0  0  0
 13 45  1  0  0  0  0
 13 46  1  0  0  0  0
 14 16  1  0  0  0  0
 14 47  1  0  0  0  0
 14 48  1  0  0  0  0
 15 17  1  0  0  0  0
 15 49  1  0  0  0  0
 16 18  1  0  0  0  0
 16 50  1  0  0  0  0
 17 51  1  0  0  0  0
 17 52  1  0  0  0  0
 18 53  1  0  0  0  0
 18 54  1  0  0  0  0
 19 21  1  0  0  0  0
 19 23  2  0  0  0  0
 20 22  1  0  0  0  0
 20 24  2  0  0  0  0
 21 25  2  0  0  0  0
 21 27  1  0  0  0  0
 22 26  2  0  0  0  0
 22 28  1  0  0  0  0
 23 29  1  0  0  0  0
 23 57  1  0  0  0  0
 24 30  1  0  0  0  0
 24 58  1  0  0  0  0
 25 31  1  0  0  0  0
 25 59  1  0  0  0  0
 26 32  1  0  0  0  0
 26 60  1  0  0  0  0
 27 61  1  0  0  0  0
 27 62  1  0  0  0  0
 27 63  1  0  0  0  0
 28 64  1  0  0  0  0
 28 65  1  0  0  0  0
 28 66  1  0  0  0  0
 29 31  2  0  0  0  0
 29 67  1  0  0  0  0
 30 32  2  0  0  0  0
 30 68  1  0  0  0  0
 31 69  1  0  0  0  0
 32 70  1  0  0  0  0
M  END
> <PUBCHEM_COMPOUND_CID>
3629945

> <PUBCHEM_CONFORMER_RMSD>
1.4

> <PUBCHEM_CONFORMER_DIVERSEORDER>
1
41
37
20
29
77
47
14
49
23
44
65
30
15
62
60
72
3
12
43
34
52
38
68
59
35
24
56
74
69
46
73
19
53
28
70
13
76
32
50
39
45
22
54
11
40
21
42
16
51
31
9
10
55
25
6
18
33
66
48
57
8
58
2
26
75
5
67
71
27
63
61
17
4
36
64
7

> <PUBCHEM_MMFF94_PARTIAL_CHARGES>
40
1 -0.68
13 0.27
14 0.27
15 0.28
16 0.28
17 0.28
18 0.28
19 0.08
2 -0.68
20 0.08
21 -0.14
22 -0.14
23 -0.15
24 -0.15
25 -0.15
26 -0.15
27 0.14
28 0.14
29 -0.15
3 -0.36
30 -0.15
31 -0.15
32 -0.15
4 -0.36
43 0.36
44 0.36
5 -0.9
55 0.4
56 0.4
57 0.15
58 0.15
59 0.15
6 -0.9
60 0.15
67 0.15
68 0.15
69 0.15
7 0.27
70 0.15
8 0.27

> <PUBCHEM_EFFECTIVE_ROTOR_COUNT>
13.2

> <PUBCHEM_PHARMACOPHORE_FEATURES>
13
1 1 acceptor
1 1 donor
1 2 acceptor
1 2 donor
1 3 acceptor
1 4 acceptor
1 5 cation
1 5 donor
1 6 cation
1 6 donor
6 19 21 23 25 29 31 rings
6 20 22 24 26 30 32 rings
6 7 8 9 10 11 12 rings

> <PUBCHEM_HEAVY_ATOM_COUNT>
32

> <PUBCHEM_ATOM_DEF_STEREO_COUNT>
0

> <PUBCHEM_ATOM_UDEF_STEREO_COUNT>
2

> <PUBCHEM_BOND_DEF_STEREO_COUNT>
0

> <PUBCHEM_BOND_UDEF_STEREO_COUNT>
0

> <PUBCHEM_ISOTOPIC_ATOM_COUNT>
0

> <PUBCHEM_COMPONENT_COUNT>
1

> <PUBCHEM_CACTVS_TAUTO_COUNT>
1

> <PUBCHEM_CONFORMER_ID>
0037637900000001

> <PUBCHEM_MMFF94_ENERGY>
71.8197

> <PUBCHEM_FEATURE_SELFOVERLAP>
65.981

> <PUBCHEM_SHAPE_FINGERPRINT>
10462674 369 17984695890132563051
11135609 99 17201067081992145918
13383661 66 16887528533506760395
15320295 44 18411702079844604782
15406563 228 18262231123718664530
15530120 55 18410856581114633333
15721738 202 15984554428970636856
15799311 1 17846224323706588315
21033648 29 15502380010497773621
21223535 225 17387407943930735468
4015057 19 17821733801693343824
4371632 12 17677617634175468552
508706 21 15068618236744368807
574716 61 18261110759976212533
58902169 19 18264490585885120786
613672 6 15697708229660323619
6679774 75 12312209544867546226
7918774 8 15770061648155409923
86090 222 16225759727208655110

> <PUBCHEM_SHAPE_MULTIPOLES>
625.11
17.25
3.7
3.52
0.04
0.01
1.04
0.01
-9.37
0
-0.42
0
0
-6.62

> <PUBCHEM_SHAPE_SELFOVERLAP>
1289.3

> <PUBCHEM_SHAPE_VOLUME>
357.5

> <PUBCHEM_COORDINATE_TYPE>
2
5
10

$$$$
