5726165
  -OEChem-01171809293D

 40 41  0     0  0  0  0  0  0999 V2000
    2.5578    0.0259   -2.3993 O   0  0  0  0  0  0  0  0  0  0  0  0
    1.4340   -2.5238   -0.4047 O   0  0  0  0  0  0  0  0  0  0  0  0
    4.2051    0.9832   -1.1220 N   0  0  0  0  0  0  0  0  0  0  0  0
    3.1478   -0.2657    1.1187 C   0  0  0  0  0  0  0  0  0  0  0  0
    2.5346   -0.4717   -0.0668 C   0  0  0  0  0  0  0  0  0  0  0  0
    4.8157    1.1873    0.0915 C   0  0  0  0  0  0  0  0  0  0  0  0
    4.3224    0.5949    1.1876 C   0  0  0  0  0  0  0  0  0  0  0  0
   -4.9609    0.4411    0.2925 C   0  0  0  0  0  0  0  0  0  0  0  0
    3.0871    0.1914   -1.3018 C   0  0  0  0  0  0  0  0  0  0  0  0
   -6.3156    1.0482    0.4342 C   0  0  0  0  0  0  0  0  0  0  0  0
   -2.4438   -0.6855    0.0280 C   0  0  0  0  0  0  0  0  0  0  0  0
    1.3388   -1.3231   -0.1842 C   0  0  0  0  0  0  0  0  0  0  0  0
    2.7612   -0.8418    2.4555 C   0  0  0  0  0  0  0  0  0  0  0  0
   -3.8445    1.0988    0.8090 C   0  0  0  0  0  0  0  0  0  0  0  0
   -4.8099   -0.7839   -0.3571 C   0  0  0  0  0  0  0  0  0  0  0  0
   -2.5771    0.5317    0.6758 C   0  0  0  0  0  0  0  0  0  0  0  0
   -3.5425   -1.3512   -0.4904 C   0  0  0  0  0  0  0  0  0  0  0  0
   -1.1047   -1.2848   -0.1126 C   0  0  0  0  0  0  0  0  0  0  0  0
    0.0484   -0.6073   -0.0135 C   0  0  0  0  0  0  0  0  0  0  0  0
    6.0160    2.0786    0.0992 C   0  0  0  0  0  0  0  0  0  0  0  0
   -6.6701    1.9577   -0.7395 C   0  0  0  0  0  0  0  0  0  0  0  0
    4.7925    0.7458    2.1550 H   0  0  0  0  0  0  0  0  0  0  0  0
   -7.0721    0.2586    0.5240 H   0  0  0  0  0  0  0  0  0  0  0  0
   -6.3736    1.6207    1.3684 H   0  0  0  0  0  0  0  0  0  0  0  0
    4.6028    1.4457   -1.9347 H   0  0  0  0  0  0  0  0  0  0  0  0
    1.8937   -1.5051    2.3895 H   0  0  0  0  0  0  0  0  0  0  0  0
    2.5080   -0.0420    3.1602 H   0  0  0  0  0  0  0  0  0  0  0  0
    3.5857   -1.4287    2.8754 H   0  0  0  0  0  0  0  0  0  0  0  0
   -3.9498    2.0525    1.3197 H   0  0  0  0  0  0  0  0  0  0  0  0
   -5.6715   -1.3052   -0.7658 H   0  0  0  0  0  0  0  0  0  0  0  0
   -1.7402    1.0682    1.1114 H   0  0  0  0  0  0  0  0  0  0  0  0
   -3.4407   -2.3053   -1.0006 H   0  0  0  0  0  0  0  0  0  0  0  0
   -1.0942   -2.3524   -0.3204 H   0  0  0  0  0  0  0  0  0  0  0  0
    0.0995    0.4604    0.1653 H   0  0  0  0  0  0  0  0  0  0  0  0
    6.4386    2.1864    1.1037 H   0  0  0  0  0  0  0  0  0  0  0  0
    5.7524    3.0788   -0.2604 H   0  0  0  0  0  0  0  0  0  0  0  0
    6.7988    1.6723   -0.5499 H   0  0  0  0  0  0  0  0  0  0  0  0
   -5.9573    2.7845   -0.8292 H   0  0  0  0  0  0  0  0  0  0  0  0
   -7.6688    2.3831   -0.5994 H   0  0  0  0  0  0  0  0  0  0  0  0
   -6.6652    1.4045   -1.6848 H   0  0  0  0  0  0  0  0  0  0  0  0
  1  9  2  0  0  0  0
  2 12  2  0  0  0  0
  3  6  1  0  0  0  0
  3  9  1  0  0  0  0
  3 25  1  0  0  0  0
  4  5  2  0  0  0  0
  4  7  1  0  0  0  0
  4 13  1  0  0  0  0
  5  9  1  0  0  0  0
  5 12  1  0  0  0  0
  6  7  2  0  0  0  0
  6 20  1  0  0  0  0
  7 22  1  0  0  0  0
  8 10  1  0  0  0  0
  8 14  2  0  0  0  0
  8 15  1  0  0  0  0
 10 21  1  0  0  0  0
 10 23  1  0  0  0  0
 10 24  1  0  0  0  0
 11 16  2  0  0  0  0
 11 17  1  0  0  0  0
 11 18  1  0  0  0  0
 12 19  1  0  0  0  0
 13 26  1  0  0  0  0
 13 27  1  0  0  0  0
 13 28  1  0  0  0  0
 14 16  1  0  0  0  0
 14 29  1  0  0  0  0
 15 17  2  0  0  0  0
 15 30  1  0  0  0  0
 16 31  1  0  0  0  0
 17 32  1  0  0  0  0
 18 19  2  0  0  0  0
 18 33  1  0  0  0  0
 19 34  1  0  0  0  0
 20 35  1  0  0  0  0
 20 36  1  0  0  0  0
 20 37  1  0  0  0  0
 21 38  1  0  0  0  0
 21 39  1  0  0  0  0
 21 40  1  0  0  0  0
M  END
> <PUBCHEM_COMPOUND_CID>
5726165

> <PUBCHEM_CONFORMER_RMSD>
0.6

> <PUBCHEM_CONFORMER_DIVERSEORDER>
1
39
42
12
24
17
13
9
36
4
43
14
30
35
37
3
10
16
5
40
41
18
33
15
25
22
26
7
20
44
19
23
2
38
31
8
27
32
6
11
34
21
29
28

> <PUBCHEM_MMFF94_PARTIAL_CHARGES>
28
1 -0.57
10 0.14
11 0.03
12 0.54
13 0.14
14 -0.15
15 -0.15
16 -0.15
17 -0.15
18 -0.18
19 -0.14
2 -0.57
20 0.14
22 0.15
25 0.37
29 0.15
3 -0.54
30 0.15
31 0.15
32 0.15
33 0.15
34 0.15
4 -0.14
5 0.03
6 -0.03
7 -0.15
8 -0.14
9 0.62

> <PUBCHEM_EFFECTIVE_ROTOR_COUNT>
4

> <PUBCHEM_PHARMACOPHORE_FEATURES>
7
1 1 acceptor
1 2 acceptor
1 21 hydrophobe
1 3 donor
1 5 anion
6 3 4 5 6 7 9 rings
6 8 11 14 15 16 17 rings

> <PUBCHEM_HEAVY_ATOM_COUNT>
21

> <PUBCHEM_ATOM_DEF_STEREO_COUNT>
0

> <PUBCHEM_ATOM_UDEF_STEREO_COUNT>
0

> <PUBCHEM_BOND_DEF_STEREO_COUNT>
1

> <PUBCHEM_BOND_UDEF_STEREO_COUNT>
0

> <PUBCHEM_ISOTOPIC_ATOM_COUNT>
0

> <PUBCHEM_COMPONENT_COUNT>
1

> <PUBCHEM_CACTVS_TAUTO_COUNT>
13

> <PUBCHEM_CONFORMER_ID>
00575FD500000001

> <PUBCHEM_MMFF94_ENERGY>
59.267

> <PUBCHEM_FEATURE_SELFOVERLAP>
35.52

> <PUBCHEM_SHAPE_FINGERPRINT>
10366900 7 16415764128133272299
10498660 4 18131072631907728913
10670039 82 18199763456954339876
10693767 8 13470147159328546172
114674 6 14635422732991268328
11724838 91 17894915174114290619
11796584 16 8068657779203718904
12236239 1 18260261966721546562
12596602 18 17967813855855579113
12633257 1 15792009043129353296
12730499 353 16558753446420070382
13533116 47 16371285507288213275
13668630 136 11815898963748831177
13675066 3 14129058123454936035
13685833 64 7853574612596128772
14341114 176 14779266427741867668
14341114 328 17895187839870224506
14528608 73 17561076999897253321
14576447 43 12679193699978602364
15188451 53 13118284823808559553
15210252 30 18202005447400449016
15238133 3 17822299010942130308
15348495 7 14562823170353138661
18222031 100 11455886949597690595
19377110 9 17894917369111792947
193927 3 8502367854398553949
19427546 20 18271237335816034639
19784866 240 9655581815849581451
20511986 3 18260816120856232533
21150785 3 17704065210451670341
21637258 2 10663556872221742948
221357 26 15698005123680507080
22289505 5 16917069949553794168
23557571 272 17632015364002175975
23559900 14 17989210312997833110
26918003 58 14418125244855302990
270888 7 18338796822872604104
2748736 6 18192139397016696021
2838139 119 17841146972911170952
300161 21 18335137588187741527
3060560 45 15195567927235054260
312425 54 15502377795049367737
341906 21 18342170068426716025
3472631 163 18342739658326068156
34797466 226 17632582673521268205
465052 167 8790879705226562569
474 4 18187370947212210771
5104073 3 17676204697372246483
5281201 14 15410902824936492939
542803 24 18261109681881418251
5924683 9 15430612774167384171
59682541 52 16415204416521986253
7808743 9 18271241741718893066
7970288 3 9439411219732460637
960060 61 13686295772974902619

> <PUBCHEM_SHAPE_MULTIPOLES>
415.45
15.76
1.88
1.49
11.86
0.02
-0.1
11.02
-0.03
0.01
0.18
-1.84
-0.09
-0.47

> <PUBCHEM_SHAPE_SELFOVERLAP>
879.612

> <PUBCHEM_SHAPE_VOLUME>
232.7

> <PUBCHEM_COORDINATE_TYPE>
2
5
10

$$$$
