5767688
  -OEChem-01171810133D

 52 55  0     0  0  0  0  0  0999 V2000
    9.2523    0.5629   -0.5727 Cl  0  0  0  0  0  0  0  0  0  0  0  0
    0.0200    1.0277    0.5703 S   0  0  0  0  0  0  0  0  0  0  0  0
    2.7566   -0.8598   -0.4878 O   0  0  0  0  0  0  0  0  0  0  0  0
    1.2202    1.7021    0.1174 O   0  0  0  0  0  0  0  0  0  0  0  0
   -0.0187    0.4036    1.8777 O   0  0  0  0  0  0  0  0  0  0  0  0
   -1.7293    0.7552   -2.4508 O   0  0  0  0  0  0  0  0  0  0  0  0
   -2.8294   -0.5014   -0.8405 N   0  0  0  0  0  0  0  0  0  0  0  0
   -6.3488   -3.2034   -0.1716 N   0  0  0  0  0  0  0  0  0  0  0  0
   -0.4678   -0.1189   -0.6336 C   0  0  0  0  0  0  0  0  0  0  0  0
   -1.3079    2.1941    0.5145 C   0  0  0  0  0  0  0  0  0  0  0  0
    0.3708   -1.1521   -0.8213 C   0  0  0  0  0  0  0  0  0  0  0  0
    1.5719   -1.3658   -0.0793 C   0  0  0  0  0  0  0  0  0  0  0  0
   -1.7228    0.1009   -1.4118 C   0  0  0  0  0  0  0  0  0  0  0  0
    3.6724   -1.2491    0.4378 C   0  0  0  0  0  0  0  0  0  0  0  0
   -4.1456   -0.4170   -1.4297 C   0  0  0  0  0  0  0  0  0  0  0  0
    1.7022   -2.0706    1.0849 C   0  0  0  0  0  0  0  0  0  0  0  0
   -2.4059    2.0063    1.3354 C   0  0  0  0  0  0  0  0  0  0  0  0
   -1.2244    3.2713   -0.3500 C   0  0  0  0  0  0  0  0  0  0  0  0
    3.0738   -1.9962    1.4253 C   0  0  0  0  0  0  0  0  0  0  0  0
    5.0181   -0.8127    0.1938 C   0  0  0  0  0  0  0  0  0  0  0  0
   -5.1725   -1.1531   -0.6187 C   0  0  0  0  0  0  0  0  0  0  0  0
   -3.4543    2.9254    1.2903 C   0  0  0  0  0  0  0  0  0  0  0  0
   -2.2726    4.1905   -0.3950 C   0  0  0  0  0  0  0  0  0  0  0  0
   -3.3876    4.0175    0.4252 C   0  0  0  0  0  0  0  0  0  0  0  0
    6.0418   -1.1561    1.0821 C   0  0  0  0  0  0  0  0  0  0  0  0
    5.3146   -0.0405   -0.9336 C   0  0  0  0  0  0  0  0  0  0  0  0
   -5.8694   -0.5066    0.3862 C   0  0  0  0  0  0  0  0  0  0  0  0
   -5.4374   -2.4835   -0.8635 C   0  0  0  0  0  0  0  0  0  0  0  0
    7.3493   -0.7315    0.8453 C   0  0  0  0  0  0  0  0  0  0  0  0
    6.6220    0.3840   -1.1704 C   0  0  0  0  0  0  0  0  0  0  0  0
    7.6394    0.0385   -0.2809 C   0  0  0  0  0  0  0  0  0  0  0  0
   -6.8154   -1.2138    1.1202 C   0  0  0  0  0  0  0  0  0  0  0  0
   -7.0160   -2.5480    0.8047 C   0  0  0  0  0  0  0  0  0  0  0  0
    0.1307   -1.8948   -1.5777 H   0  0  0  0  0  0  0  0  0  0  0  0
   -4.0929   -0.8176   -2.4493 H   0  0  0  0  0  0  0  0  0  0  0  0
   -4.4115    0.6426   -1.5267 H   0  0  0  0  0  0  0  0  0  0  0  0
   -2.7156   -1.0208    0.0262 H   0  0  0  0  0  0  0  0  0  0  0  0
    0.9201   -2.5796    1.6311 H   0  0  0  0  0  0  0  0  0  0  0  0
   -2.4810    1.1586    2.0093 H   0  0  0  0  0  0  0  0  0  0  0  0
   -0.3685    3.4187   -1.0013 H   0  0  0  0  0  0  0  0  0  0  0  0
    3.5508   -2.4387    2.2884 H   0  0  0  0  0  0  0  0  0  0  0  0
   -4.3239    2.7889    1.9265 H   0  0  0  0  0  0  0  0  0  0  0  0
   -2.2219    5.0397   -1.0702 H   0  0  0  0  0  0  0  0  0  0  0  0
   -4.2044    4.7322    0.3890 H   0  0  0  0  0  0  0  0  0  0  0  0
    5.8485   -1.7547    1.9687 H   0  0  0  0  0  0  0  0  0  0  0  0
    4.5499    0.2500   -1.6498 H   0  0  0  0  0  0  0  0  0  0  0  0
   -5.6896    0.5406    0.6104 H   0  0  0  0  0  0  0  0  0  0  0  0
   -4.9167   -3.0356   -1.6394 H   0  0  0  0  0  0  0  0  0  0  0  0
    8.1322   -1.0080    1.5470 H   0  0  0  0  0  0  0  0  0  0  0  0
    6.8338    0.9838   -2.0519 H   0  0  0  0  0  0  0  0  0  0  0  0
   -7.3777   -0.7357    1.9140 H   0  0  0  0  0  0  0  0  0  0  0  0
   -7.7424   -3.1438    1.3475 H   0  0  0  0  0  0  0  0  0  0  0  0
  1 31  1  0  0  0  0
  2  4  2  0  0  0  0
  2  5  2  0  0  0  0
  2  9  1  0  0  0  0
  2 10  1  0  0  0  0
  3 12  1  0  0  0  0
  3 14  1  0  0  0  0
  6 13  2  0  0  0  0
  7 13  1  0  0  0  0
  7 15  1  0  0  0  0
  7 37  1  0  0  0  0
  8 28  1  0  0  0  0
  8 33  2  0  0  0  0
  9 11  2  0  0  0  0
  9 13  1  0  0  0  0
 10 17  2  0  0  0  0
 10 18  1  0  0  0  0
 11 12  1  0  0  0  0
 11 34  1  0  0  0  0
 12 16  2  0  0  0  0
 14 19  2  0  0  0  0
 14 20  1  0  0  0  0
 15 21  1  0  0  0  0
 15 35  1  0  0  0  0
 15 36  1  0  0  0  0
 16 19  1  0  0  0  0
 16 38  1  0  0  0  0
 17 22  1  0  0  0  0
 17 39  1  0  0  0  0
 18 23  2  0  0  0  0
 18 40  1  0  0  0  0
 19 41  1  0  0  0  0
 20 25  2  0  0  0  0
 20 26  1  0  0  0  0
 21 27  1  0  0  0  0
 21 28  2  0  0  0  0
 22 24  2  0  0  0  0
 22 42  1  0  0  0  0
 23 24  1  0  0  0  0
 23 43  1  0  0  0  0
 24 44  1  0  0  0  0
 25 29  1  0  0  0  0
 25 45  1  0  0  0  0
 26 30  2  0  0  0  0
 26 46  1  0  0  0  0
 27 32  2  0  0  0  0
 27 47  1  0  0  0  0
 28 48  1  0  0  0  0
 29 31  2  0  0  0  0
 29 49  1  0  0  0  0
 30 31  1  0  0  0  0
 30 50  1  0  0  0  0
 32 33  1  0  0  0  0
 32 51  1  0  0  0  0
 33 52  1  0  0  0  0
M  END
> <PUBCHEM_COMPOUND_CID>
5767688

> <PUBCHEM_CONFORMER_RMSD>
1

> <PUBCHEM_CONFORMER_DIVERSEORDER>
1
3
39
90
55
29
97
107
109
88
89
16
105
31
53
70
47
37
21
67
80
102
98
23
112
20
61
6
24
104
56
95
62
69
59
18
7
51
13
101
48
42
46
92
100
75
54
114
52
86
34
93
84
71
43
32
66
26
49
91
110
17
25
87
73
94
78
33
106
15
4
72
65
108
77
35
85
9
82
57
83
41
60
63
2
111
74
30
22
58
99
38
40
12
113
68
96
27
79
44
14
103
81
45
76
5
28
64
11
19
50
8
36
10

> <PUBCHEM_MMFF94_PARTIAL_CHARGES>
49
1 -0.18
10 -0.01
11 -0.11
12 0.09
13 0.62
14 0.09
15 0.44
16 -0.15
17 -0.15
18 -0.15
19 -0.15
2 1.33
20 0.05
21 -0.14
22 -0.15
23 -0.15
24 -0.15
25 -0.15
26 -0.15
27 -0.15
28 0.16
29 -0.15
3 -0.28
30 -0.15
31 0.18
32 -0.15
33 0.16
34 0.15
37 0.37
38 0.15
39 0.15
4 -0.65
40 0.15
41 0.15
42 0.15
43 0.15
44 0.15
45 0.15
46 0.15
47 0.15
48 0.15
49 0.15
5 -0.65
50 0.15
51 0.15
52 0.15
6 -0.57
7 -0.73
8 -0.62

> <PUBCHEM_EFFECTIVE_ROTOR_COUNT>
8

> <PUBCHEM_PHARMACOPHORE_FEATURES>
10
1 3 acceptor
1 4 acceptor
1 5 acceptor
1 6 acceptor
1 7 donor
1 8 acceptor
5 3 12 14 16 19 rings
6 10 17 18 22 23 24 rings
6 20 25 26 29 30 31 rings
6 8 21 27 28 32 33 rings

> <PUBCHEM_HEAVY_ATOM_COUNT>
33

> <PUBCHEM_ATOM_DEF_STEREO_COUNT>
0

> <PUBCHEM_ATOM_UDEF_STEREO_COUNT>
0

> <PUBCHEM_BOND_DEF_STEREO_COUNT>
1

> <PUBCHEM_BOND_UDEF_STEREO_COUNT>
0

> <PUBCHEM_ISOTOPIC_ATOM_COUNT>
0

> <PUBCHEM_COMPONENT_COUNT>
1

> <PUBCHEM_CACTVS_TAUTO_COUNT>
2

> <PUBCHEM_CONFORMER_ID>
0058020800000001

> <PUBCHEM_MMFF94_ENERGY>
79.0778

> <PUBCHEM_FEATURE_SELFOVERLAP>
50.768

> <PUBCHEM_SHAPE_FINGERPRINT>
10050765 1 18195247711613182430
10076449 9 18336267937195958290
10190108 129 18341621425231144323
10290309 65 17703230585640447974
10577160 103 15213595570711631591
10674148 151 15647051556949562029
11101153 10 18409168839847243068
12104220 1 18410014347035027467
12107183 9 10375870771041282986
12422481 6 17489871540445755237
12788726 201 18410847733772575787
13631057 29 18411133632575773739
14068700 675 18335702788382409269
14150022 121 18272938197940157225
14294032 229 18343587317867571362
14400156 188 17975704102122183579
14856354 85 18272087236228368231
15183329 4 12751243601229612534
15338160 23 18270119007324753953
15347591 1 18267585698564886454
15444296 121 18198908187854700239
15538507 32 18267022946063669260
1577012 14 18336547106903514744
16992752 21 18411987982996108805
17686467 74 18339639040432132880
18608769 82 18343300375223296232
19377110 9 18260828142617270562
19427546 20 18337950091529288157
21796203 349 18193297388797686283
21927370 108 18260558809307656281
2747138 104 18341890835597221810
2838139 119 9727633908552069515
3552219 110 18260838115320569229
4015057 19 14851617578510339399
469060 322 18340498785188453609
504843 32 18049717422245270853
5219985 9 18410008879836805415
5381727 24 17748819736418503042
550186 72 18338234869135830784
58260988 393 18411138009242342124
5912855 24 18265612078955174675
5969126 39 18410013238859235401
6673363 416 18340777009561509164

> <PUBCHEM_SHAPE_MULTIPOLES>
651.4
21.38
3.96
1.5
28.24
3.95
-0.14
-11.56
-0.02
-8.34
0.7
-0.45
-0.02
-1.56

> <PUBCHEM_SHAPE_SELFOVERLAP>
1408.486

> <PUBCHEM_SHAPE_VOLUME>
357.3

> <PUBCHEM_COORDINATE_TYPE>
2
5
10

$$$$
