9550611
  -OEChem-01171810133D

 40 43  0     1  0  0  0  0  0999 V2000
    0.7896   -2.1487    1.8943 S   0  0  0  0  0  0  0  0  0  0  0  0
    3.6519   -1.1521    1.7999 S   0  0  0  0  0  0  0  0  0  0  0  0
   -2.7573   -3.4871   -0.6374 O   0  0  0  0  0  0  0  0  0  0  0  0
    0.2342    3.9433    1.2747 O   0  0  0  0  0  0  0  0  0  0  0  0
   -4.6867   -0.0323   -1.5643 O   0  5  0  0  0  0  0  0  0  0  0  0
   -3.9762    1.9283   -0.8787 O   0  0  0  0  0  0  0  0  0  0  0  0
   -1.8581    2.1522    0.5662 N   0  0  3  0  0  0  0  0  0  0  0  0
   -3.8617    0.6776   -0.9352 N   0  3  0  0  0  0  0  0  0  0  0  0
   -3.3621   -2.2733   -0.9155 N   0  0  0  0  0  0  0  0  0  0  0  0
   -1.6240   -3.3319    0.1423 N   0  0  0  0  0  0  0  0  0  0  0  0
    2.0016   -0.9567   -0.1726 N   0  0  0  0  0  0  0  0  0  0  0  0
   -1.7919    0.7353    0.4625 C   0  0  0  0  0  0  0  0  0  0  0  0
   -2.7775    0.0534   -0.2740 C   0  0  0  0  0  0  0  0  0  0  0  0
   -1.1852    2.9798   -0.4064 C   0  0  0  0  0  0  0  0  0  0  0  0
   -0.7160    0.0802    1.1173 C   0  0  0  0  0  0  0  0  0  0  0  0
   -2.6121   -1.3434   -0.3113 C   0  0  0  0  0  0  0  0  0  0  0  0
   -0.5570   -1.2984    1.0776 C   0  0  0  0  0  0  0  0  0  0  0  0
   -1.5072   -2.0162    0.3611 C   0  0  0  0  0  0  0  0  0  0  0  0
   -2.5866    2.7635    1.6522 C   0  0  0  0  0  0  0  0  0  0  0  0
    0.2438    3.2446    0.0362 C   0  0  0  0  0  0  0  0  0  0  0  0
    2.1262   -1.3840    1.0622 C   0  0  0  0  0  0  0  0  0  0  0  0
    4.2271   -0.4099    0.3538 C   0  0  0  0  0  0  0  0  0  0  0  0
    3.1985   -0.3953   -0.5930 C   0  0  0  0  0  0  0  0  0  0  0  0
    5.4972    0.1212    0.0771 C   0  0  0  0  0  0  0  0  0  0  0  0
    3.4526    0.1716   -1.8608 C   0  0  0  0  0  0  0  0  0  0  0  0
    5.7223    0.6763   -1.1851 C   0  0  0  0  0  0  0  0  0  0  0  0
    4.7146    0.7021   -2.1430 C   0  0  0  0  0  0  0  0  0  0  0  0
   -1.7170    3.9325   -0.5182 H   0  0  0  0  0  0  0  0  0  0  0  0
   -1.1811    2.5036   -1.3944 H   0  0  0  0  0  0  0  0  0  0  0  0
   -0.0057    0.6831    1.6825 H   0  0  0  0  0  0  0  0  0  0  0  0
   -2.0830    2.5732    2.6062 H   0  0  0  0  0  0  0  0  0  0  0  0
   -3.6033    2.3632    1.7284 H   0  0  0  0  0  0  0  0  0  0  0  0
   -2.6708    3.8487    1.5315 H   0  0  0  0  0  0  0  0  0  0  0  0
    0.7466    3.8804   -0.6993 H   0  0  0  0  0  0  0  0  0  0  0  0
    0.8360    2.3314    0.1443 H   0  0  0  0  0  0  0  0  0  0  0  0
    6.2886    0.1045    0.8200 H   0  0  0  0  0  0  0  0  0  0  0  0
    2.6722    0.1976   -2.6161 H   0  0  0  0  0  0  0  0  0  0  0  0
    0.0049    3.3020    1.9679 H   0  0  0  0  0  0  0  0  0  0  0  0
    6.6983    1.0930   -1.4197 H   0  0  0  0  0  0  0  0  0  0  0  0
    4.9080    1.1382   -3.1193 H   0  0  0  0  0  0  0  0  0  0  0  0
  1 17  1  0  0  0  0
  1 21  1  0  0  0  0
  2 21  1  0  0  0  0
  2 22  1  0  0  0  0
  3  9  1  0  0  0  0
  3 10  1  0  0  0  0
  4 20  1  0  0  0  0
  4 38  1  0  0  0  0
  5  8  1  0  0  0  0
  6  8  2  0  0  0  0
  7 12  1  0  0  0  0
  7 14  1  0  0  0  0
  7 19  1  0  0  0  0
  8 13  1  0  0  0  0
  9 16  2  0  0  0  0
 10 18  2  0  0  0  0
 11 21  2  0  0  0  0
 11 23  1  0  0  0  0
 12 13  2  0  0  0  0
 12 15  1  0  0  0  0
 13 16  1  0  0  0  0
 14 20  1  0  0  0  0
 14 28  1  0  0  0  0
 14 29  1  0  0  0  0
 15 17  2  0  0  0  0
 15 30  1  0  0  0  0
 16 18  1  0  0  0  0
 17 18  1  0  0  0  0
 19 31  1  0  0  0  0
 19 32  1  0  0  0  0
 19 33  1  0  0  0  0
 20 34  1  0  0  0  0
 20 35  1  0  0  0  0
 22 23  1  0  0  0  0
 22 24  2  0  0  0  0
 23 25  2  0  0  0  0
 24 26  1  0  0  0  0
 24 36  1  0  0  0  0
 25 27  1  0  0  0  0
 25 37  1  0  0  0  0
 26 27  2  0  0  0  0
 26 39  1  0  0  0  0
 27 40  1  0  0  0  0
M  CHG  2   5  -1   8   1
M  END
> <PUBCHEM_COMPOUND_CID>
9550611

> <PUBCHEM_CONFORMER_RMSD>
0.8

> <PUBCHEM_CONFORMER_DIVERSEORDER>
1
66
82
88
29
84
17
33
39
50
8
27
42
25
48
7
28
64
76
79
49
20
58
77
11
67
45
62
41
70
75
22
40
24
78
83
35
57
47
15
26
2
87
18
86
14
21
43
63
10
9
61
44
65
34
60
32
13
72
12
23
80
59
38
69
52
73
3
30
31
4
81
53
46
85
51
37
74
56
19
68
71
36
6
5
55
54
16

> <PUBCHEM_MMFF94_PARTIAL_CHARGES>
33
1 -0.16
10 -0.41
11 -0.57
12 0.1
13 0.13
14 0.37
15 -0.15
16 0.29
17 0.1
18 0.29
19 0.37
2 -0.08
20 0.28
21 0.43
22 0.04
23 0.23
24 -0.15
25 -0.15
26 -0.15
27 -0.15
3 0.24
30 0.15
36 0.15
37 0.15
38 0.4
39 0.15
4 -0.68
40 0.15
5 -0.52
6 -0.52
7 -0.84
8 0.91
9 -0.41

> <PUBCHEM_EFFECTIVE_ROTOR_COUNT>
6

> <PUBCHEM_PHARMACOPHORE_FEATURES>
13
1 10 acceptor
1 11 acceptor
1 4 acceptor
1 4 donor
1 5 acceptor
1 5 anion
1 6 acceptor
1 7 cation
1 9 acceptor
5 2 11 21 22 23 rings
5 3 9 10 16 18 rings
6 12 13 15 16 17 18 rings
6 22 23 24 25 26 27 rings

> <PUBCHEM_HEAVY_ATOM_COUNT>
27

> <PUBCHEM_ATOM_DEF_STEREO_COUNT>
0

> <PUBCHEM_ATOM_UDEF_STEREO_COUNT>
0

> <PUBCHEM_BOND_DEF_STEREO_COUNT>
0

> <PUBCHEM_BOND_UDEF_STEREO_COUNT>
0

> <PUBCHEM_ISOTOPIC_ATOM_COUNT>
0

> <PUBCHEM_COMPONENT_COUNT>
1

> <PUBCHEM_CACTVS_TAUTO_COUNT>
1

> <PUBCHEM_CONFORMER_ID>
0091BB1300000001

> <PUBCHEM_MMFF94_ENERGY>
96.7855

> <PUBCHEM_FEATURE_SELFOVERLAP>
66.308

> <PUBCHEM_SHAPE_FINGERPRINT>
10498660 4 18411420626780716446
10670039 82 18336839589512198740
10673678 19 17681821913944039117
10871710 139 18338518508960317665
10937287 8 17909277875006076417
11049842 53 17769087947958141218
11488393 25 16609699609946630578
11640471 11 17968382251695980594
12156800 1 15509061756014584852
12553582 1 18413112779043420403
12788726 201 18340484456919467729
13009979 54 18115007620792458730
13583140 156 15936702471173678000
13994607 96 17895778238727460880
14739800 52 18264191669700427400
14787075 74 17894640274880385763
14790565 3 18196655086507454457
14840074 17 18115886108855071717
14931854 50 18334855000292554916
15064981 113 18270117903976862110
15420108 30 17109577694174575858
15475509 8 17917158213066699117
17492 54 18262225647892882757
17818456 19 18193262010898653834
19319366 153 17895465943435336323
20511986 3 17894898621331534908
20642791 239 18261384585911756185
20642791 35 18339640152596391561
20715895 44 17463953680188298349
21033648 29 13046210667776007534
21864079 5 17970640575723166120
235170 7 17632027415943886606
23557571 272 18272367611524203754
23559900 14 18198894988823613464
2838139 119 16517911945752198983
3178227 256 18337404768854762465
469060 322 17024620938387701241
474 4 17530680979293630450
57724786 102 15502384435084631878
6034566 193 16806756012484896070

> <PUBCHEM_SHAPE_MULTIPOLES>
514.96
9.94
3.99
1.79
9.61
1.4
0.02
1.08
-4.9
-3.95
1.01
0.88
0.1
-2.06

> <PUBCHEM_SHAPE_SELFOVERLAP>
1103.404

> <PUBCHEM_SHAPE_VOLUME>
286.4

> <PUBCHEM_COORDINATE_TYPE>
2
5
10

$$$$
