5505332
  -OEChem-01171809333D

 52 55  0     0  0  0  0  0  0999 V2000
    4.7235    0.6021    2.7654 Cl  0  0  0  0  0  0  0  0  0  0  0  0
   -3.5313   -0.9349    1.4988 S   0  0  0  0  0  0  0  0  0  0  0  0
    0.8393   -1.5273    0.0553 O   0  0  0  0  0  0  0  0  0  0  0  0
   -3.5975   -0.1295    2.7018 O   0  0  0  0  0  0  0  0  0  0  0  0
   -3.9732   -2.3151    1.5179 O   0  0  0  0  0  0  0  0  0  0  0  0
   -0.3176    0.2591    2.2113 O   0  0  0  0  0  0  0  0  0  0  0  0
   -1.1106    1.3453    0.3210 N   0  0  0  0  0  0  0  0  0  0  0  0
    3.3755    2.8164   -0.1528 N   0  0  0  0  0  0  0  0  0  0  0  0
   -1.9255   -0.8497    0.8538 C   0  0  0  0  0  0  0  0  0  0  0  0
   -4.4663   -0.1099    0.2450 C   0  0  0  0  0  0  0  0  0  0  0  0
   -1.5617   -1.8793    0.0705 C   0  0  0  0  0  0  0  0  0  0  0  0
   -0.2732   -2.0271   -0.5268 C   0  0  0  0  0  0  0  0  0  0  0  0
   -1.0335    0.2921    1.2143 C   0  0  0  0  0  0  0  0  0  0  0  0
    1.8717   -1.8436   -0.7697 C   0  0  0  0  0  0  0  0  0  0  0  0
   -0.3301    2.5508    0.4783 C   0  0  0  0  0  0  0  0  0  0  0  0
    0.0170   -2.6567   -1.7052 C   0  0  0  0  0  0  0  0  0  0  0  0
   -4.9944   -0.8484   -0.7994 C   0  0  0  0  0  0  0  0  0  0  0  0
   -4.6517    1.2588    0.3318 C   0  0  0  0  0  0  0  0  0  0  0  0
    1.4181   -2.5384   -1.8667 C   0  0  0  0  0  0  0  0  0  0  0  0
    3.1659   -1.4004   -0.3345 C   0  0  0  0  0  0  0  0  0  0  0  0
    0.9981    2.4545   -0.2151 C   0  0  0  0  0  0  0  0  0  0  0  0
   -5.7315   -0.1975   -1.7887 C   0  0  0  0  0  0  0  0  0  0  0  0
   -5.3890    1.9096   -0.6575 C   0  0  0  0  0  0  0  0  0  0  0  0
   -5.9287    1.1814   -1.7177 C   0  0  0  0  0  0  0  0  0  0  0  0
    3.3029   -0.6951    0.8651 C   0  0  0  0  0  0  0  0  0  0  0  0
    4.2993   -1.6715   -1.1074 C   0  0  0  0  0  0  0  0  0  0  0  0
    1.0857    1.9438   -1.4976 C   0  0  0  0  0  0  0  0  0  0  0  0
    2.1499    2.8745    0.4149 C   0  0  0  0  0  0  0  0  0  0  0  0
    4.5608   -0.2651    1.2877 C   0  0  0  0  0  0  0  0  0  0  0  0
    5.5571   -1.2416   -0.6850 C   0  0  0  0  0  0  0  0  0  0  0  0
    5.6880   -0.5385    0.5126 C   0  0  0  0  0  0  0  0  0  0  0  0
    2.3293    1.8679   -2.1151 C   0  0  0  0  0  0  0  0  0  0  0  0
    3.4334    2.3133   -1.4064 C   0  0  0  0  0  0  0  0  0  0  0  0
   -2.2741   -2.6588   -0.1868 H   0  0  0  0  0  0  0  0  0  0  0  0
   -0.2011    2.7480    1.5486 H   0  0  0  0  0  0  0  0  0  0  0  0
   -0.9063    3.3776    0.0491 H   0  0  0  0  0  0  0  0  0  0  0  0
   -1.7262    1.2762   -0.4846 H   0  0  0  0  0  0  0  0  0  0  0  0
   -0.6788   -3.1429   -2.3747 H   0  0  0  0  0  0  0  0  0  0  0  0
   -4.8478   -1.9212   -0.8767 H   0  0  0  0  0  0  0  0  0  0  0  0
   -4.2344    1.8438    1.1455 H   0  0  0  0  0  0  0  0  0  0  0  0
    2.0087   -2.9184   -2.6883 H   0  0  0  0  0  0  0  0  0  0  0  0
   -6.1505   -0.7640   -2.6153 H   0  0  0  0  0  0  0  0  0  0  0  0
   -5.5411    2.9836   -0.6035 H   0  0  0  0  0  0  0  0  0  0  0  0
   -6.5018    1.6883   -2.4885 H   0  0  0  0  0  0  0  0  0  0  0  0
    2.4399   -0.4696    1.4877 H   0  0  0  0  0  0  0  0  0  0  0  0
    4.2309   -2.2163   -2.0456 H   0  0  0  0  0  0  0  0  0  0  0  0
    0.2060    1.6072   -2.0382 H   0  0  0  0  0  0  0  0  0  0  0  0
    2.1363    3.2820    1.4205 H   0  0  0  0  0  0  0  0  0  0  0  0
    6.4348   -1.4537   -1.2886 H   0  0  0  0  0  0  0  0  0  0  0  0
    6.6743   -0.2092    0.8290 H   0  0  0  0  0  0  0  0  0  0  0  0
    2.4312    1.4719   -3.1189 H   0  0  0  0  0  0  0  0  0  0  0  0
    4.4262    2.2736   -1.8424 H   0  0  0  0  0  0  0  0  0  0  0  0
  1 29  1  0  0  0  0
  2  4  2  0  0  0  0
  2  5  2  0  0  0  0
  2  9  1  0  0  0  0
  2 10  1  0  0  0  0
  3 12  1  0  0  0  0
  3 14  1  0  0  0  0
  6 13  2  0  0  0  0
  7 13  1  0  0  0  0
  7 15  1  0  0  0  0
  7 37  1  0  0  0  0
  8 28  1  0  0  0  0
  8 33  2  0  0  0  0
  9 11  2  0  0  0  0
  9 13  1  0  0  0  0
 10 17  2  0  0  0  0
 10 18  1  0  0  0  0
 11 12  1  0  0  0  0
 11 34  1  0  0  0  0
 12 16  2  0  0  0  0
 14 19  2  0  0  0  0
 14 20  1  0  0  0  0
 15 21  1  0  0  0  0
 15 35  1  0  0  0  0
 15 36  1  0  0  0  0
 16 19  1  0  0  0  0
 16 38  1  0  0  0  0
 17 22  1  0  0  0  0
 17 39  1  0  0  0  0
 18 23  2  0  0  0  0
 18 40  1  0  0  0  0
 19 41  1  0  0  0  0
 20 25  2  0  0  0  0
 20 26  1  0  0  0  0
 21 27  1  0  0  0  0
 21 28  2  0  0  0  0
 22 24  2  0  0  0  0
 22 42  1  0  0  0  0
 23 24  1  0  0  0  0
 23 43  1  0  0  0  0
 24 44  1  0  0  0  0
 25 29  1  0  0  0  0
 25 45  1  0  0  0  0
 26 30  2  0  0  0  0
 26 46  1  0  0  0  0
 27 32  2  0  0  0  0
 27 47  1  0  0  0  0
 28 48  1  0  0  0  0
 29 31  2  0  0  0  0
 30 31  1  0  0  0  0
 30 49  1  0  0  0  0
 31 50  1  0  0  0  0
 32 33  1  0  0  0  0
 32 51  1  0  0  0  0
 33 52  1  0  0  0  0
M  END
> <PUBCHEM_COMPOUND_CID>
5505332

> <PUBCHEM_CONFORMER_RMSD>
1.4

> <PUBCHEM_CONFORMER_DIVERSEORDER>
1
133
49
122
40
76
125
47
3
114
138
117
144
142
35
63
18
139
143
100
83
33
128
19
8
135
129
121
145
131
92
93
80
79
95
119
20
136
59
112
23
84
60
22
104
62
45
85
109
37
115
91
108
31
64
27
14
102
90
41
130
116
81
82
73
58
127
61
105
46
124
96
70
98
32
140
74
113
77
94
10
132
24
107
2
52
87
78
89
110
54
141
44
75
68
55
30
134
101
99
43
5
72
97
29
48
38
123
9
71
137
13
120
7
111
66
65
12
17
21
53
4
86
126
88
106
16
36
56
25
67
15
39
103
11
51
34
42
57
26
118
6
28
69
50

> <PUBCHEM_MMFF94_PARTIAL_CHARGES>
49
1 -0.18
10 -0.01
11 -0.11
12 0.09
13 0.62
14 0.09
15 0.44
16 -0.15
17 -0.15
18 -0.15
19 -0.15
2 1.33
20 0.05
21 -0.14
22 -0.15
23 -0.15
24 -0.15
25 -0.15
26 -0.15
27 -0.15
28 0.16
29 0.18
3 -0.28
30 -0.15
31 -0.15
32 -0.15
33 0.16
34 0.15
37 0.37
38 0.15
39 0.15
4 -0.65
40 0.15
41 0.15
42 0.15
43 0.15
44 0.15
45 0.15
46 0.15
47 0.15
48 0.15
49 0.15
5 -0.65
50 0.15
51 0.15
52 0.15
6 -0.57
7 -0.73
8 -0.62

> <PUBCHEM_EFFECTIVE_ROTOR_COUNT>
8

> <PUBCHEM_PHARMACOPHORE_FEATURES>
10
1 3 acceptor
1 4 acceptor
1 5 acceptor
1 6 acceptor
1 7 donor
1 8 acceptor
5 3 12 14 16 19 rings
6 10 17 18 22 23 24 rings
6 20 25 26 29 30 31 rings
6 8 21 27 28 32 33 rings

> <PUBCHEM_HEAVY_ATOM_COUNT>
33

> <PUBCHEM_ATOM_DEF_STEREO_COUNT>
0

> <PUBCHEM_ATOM_UDEF_STEREO_COUNT>
0

> <PUBCHEM_BOND_DEF_STEREO_COUNT>
1

> <PUBCHEM_BOND_UDEF_STEREO_COUNT>
0

> <PUBCHEM_ISOTOPIC_ATOM_COUNT>
0

> <PUBCHEM_COMPONENT_COUNT>
1

> <PUBCHEM_CACTVS_TAUTO_COUNT>
2

> <PUBCHEM_CONFORMER_ID>
0054013400000001

> <PUBCHEM_MMFF94_ENERGY>
68.4673

> <PUBCHEM_FEATURE_SELFOVERLAP>
50.768

> <PUBCHEM_SHAPE_FINGERPRINT>
10763959 59 18409733932951967350
11093857 51 18200330882996725886
11112662 9 16056871438578913244
11513181 2 16700347299688259367
11578080 2 15937278714314325758
12166972 35 18202562877914225003
12422481 6 18335689581542785200
13402501 40 18334854970533784069
14068700 675 18059289856006100000
15183329 4 17748822999501624677
15238133 3 17821731628851536358
15463212 79 17038116571566834317
17349148 13 18201446878165209297
20715895 44 18262798458975287989
21033648 29 18201708540521373386
21315764 371 17060618910363077799
23559900 14 18337401426278656730
4144715 1 18187657941343840018
460360 51 18187936122396418161
508706 21 18186801332034120301
5265222 85 17541673046451384100
6086070 43 17458615757388412279

> <PUBCHEM_SHAPE_MULTIPOLES>
651.4
13.05
3.37
2.24
7.59
0.95
-0.68
0.42
0.59
-1.64
1.31
-0.07
0.01
0.99

> <PUBCHEM_SHAPE_SELFOVERLAP>
1408.184

> <PUBCHEM_SHAPE_VOLUME>
358.2

> <PUBCHEM_COORDINATE_TYPE>
2
5
10

$$$$
