1069531
  -OEChem-01171809253D

 48 51  0     0  0  0  0  0  0999 V2000
    1.2169   -3.9581    0.5426 O   0  0  0  0  0  0  0  0  0  0  0  0
    3.3298   -1.1166    1.7315 O   0  0  0  0  0  0  0  0  0  0  0  0
    0.0452    3.0335   -0.2940 O   0  0  0  0  0  0  0  0  0  0  0  0
   -1.0157    0.9810    0.0873 N   0  0  0  0  0  0  0  0  0  0  0  0
    1.2861    1.0976    0.1323 N   0  0  0  0  0  0  0  0  0  0  0  0
    3.4192   -1.5799   -0.5387 N   0  0  0  0  0  0  0  0  0  0  0  0
   -3.3794    0.3373    0.1455 C   0  0  0  0  0  0  0  0  0  0  0  0
   -2.3739    1.3041   -0.0181 C   0  0  0  0  0  0  0  0  0  0  0  0
   -4.7359    0.7230    0.0271 C   0  0  0  0  0  0  0  0  0  0  0  0
    2.6200    1.5662    0.0777 C   0  0  0  0  0  0  0  0  0  0  0  0
    3.6786    0.6955    0.2848 C   0  0  0  0  0  0  0  0  0  0  0  0
   -2.7011    2.6319   -0.2947 C   0  0  0  0  0  0  0  0  0  0  0  0
   -3.0685   -1.0037    0.4242 C   0  0  0  0  0  0  0  0  0  0  0  0
   -5.0470    2.0639   -0.2513 C   0  0  0  0  0  0  0  0  0  0  0  0
   -5.7415   -0.2436    0.1908 C   0  0  0  0  0  0  0  0  0  0  0  0
   -4.0351    3.0112   -0.4108 C   0  0  0  0  0  0  0  0  0  0  0  0
    0.1037    1.8324   -0.0506 C   0  0  0  0  0  0  0  0  0  0  0  0
    3.1970   -3.0037   -0.4281 C   0  0  0  0  0  0  0  0  0  0  0  0
    3.4714   -0.7204    0.5629 C   0  0  0  0  0  0  0  0  0  0  0  0
   -4.0804   -1.9507    0.5835 C   0  0  0  0  0  0  0  0  0  0  0  0
   -5.4144   -1.5715    0.4670 C   0  0  0  0  0  0  0  0  0  0  0  0
    2.8362    2.9106   -0.1851 C   0  0  0  0  0  0  0  0  0  0  0  0
    4.9852    1.1803    0.2275 C   0  0  0  0  0  0  0  0  0  0  0  0
    1.7294   -3.3170   -0.5216 C   0  0  0  0  0  0  0  0  0  0  0  0
    4.1428    3.3954   -0.2423 C   0  0  0  0  0  0  0  0  0  0  0  0
    5.2172    2.5303   -0.0360 C   0  0  0  0  0  0  0  0  0  0  0  0
    0.8107   -3.0755   -1.4840 C   0  0  0  0  0  0  0  0  0  0  0  0
   -0.3980   -3.6142   -0.9825 C   0  0  0  0  0  0  0  0  0  0  0  0
   -0.0985   -4.1393    0.2530 C   0  0  0  0  0  0  0  0  0  0  0  0
   -1.9984    3.4378   -0.4351 H   0  0  0  0  0  0  0  0  0  0  0  0
   -2.0518   -1.3656    0.5327 H   0  0  0  0  0  0  0  0  0  0  0  0
   -6.0829    2.3828   -0.3465 H   0  0  0  0  0  0  0  0  0  0  0  0
   -0.7825    0.0158    0.2865 H   0  0  0  0  0  0  0  0  0  0  0  0
   -6.7909    0.0303    0.1041 H   0  0  0  0  0  0  0  0  0  0  0  0
   -4.2914    4.0447   -0.6259 H   0  0  0  0  0  0  0  0  0  0  0  0
    1.1715    0.1068    0.3264 H   0  0  0  0  0  0  0  0  0  0  0  0
    3.7318   -3.4876   -1.2516 H   0  0  0  0  0  0  0  0  0  0  0  0
    3.6148   -3.3666    0.5169 H   0  0  0  0  0  0  0  0  0  0  0  0
   -3.8269   -2.9847    0.7995 H   0  0  0  0  0  0  0  0  0  0  0  0
   -6.2017   -2.3094    0.5913 H   0  0  0  0  0  0  0  0  0  0  0  0
    2.0694    3.6498   -0.3565 H   0  0  0  0  0  0  0  0  0  0  0  0
    5.8313    0.5166    0.3867 H   0  0  0  0  0  0  0  0  0  0  0  0
    3.5228   -1.1875   -1.4704 H   0  0  0  0  0  0  0  0  0  0  0  0
    4.3255    4.4464   -0.4474 H   0  0  0  0  0  0  0  0  0  0  0  0
    6.2346    2.9080   -0.0806 H   0  0  0  0  0  0  0  0  0  0  0  0
    0.9662   -2.5780   -2.4304 H   0  0  0  0  0  0  0  0  0  0  0  0
   -1.3668   -3.6179   -1.4607 H   0  0  0  0  0  0  0  0  0  0  0  0
   -0.6785   -4.6462    1.0103 H   0  0  0  0  0  0  0  0  0  0  0  0
  1 24  1  0  0  0  0
  1 29  1  0  0  0  0
  2 19  2  0  0  0  0
  3 17  2  0  0  0  0
  4  8  1  0  0  0  0
  4 17  1  0  0  0  0
  4 33  1  0  0  0  0
  5 10  1  0  0  0  0
  5 17  1  0  0  0  0
  5 36  1  0  0  0  0
  6 18  1  0  0  0  0
  6 19  1  0  0  0  0
  6 43  1  0  0  0  0
  7  8  1  0  0  0  0
  7  9  1  0  0  0  0
  7 13  2  0  0  0  0
  8 12  2  0  0  0  0
  9 14  1  0  0  0  0
  9 15  2  0  0  0  0
 10 11  1  0  0  0  0
 10 22  2  0  0  0  0
 11 19  1  0  0  0  0
 11 23  2  0  0  0  0
 12 16  1  0  0  0  0
 12 30  1  0  0  0  0
 13 20  1  0  0  0  0
 13 31  1  0  0  0  0
 14 16  2  0  0  0  0
 14 32  1  0  0  0  0
 15 21  1  0  0  0  0
 15 34  1  0  0  0  0
 16 35  1  0  0  0  0
 18 24  1  0  0  0  0
 18 37  1  0  0  0  0
 18 38  1  0  0  0  0
 20 21  2  0  0  0  0
 20 39  1  0  0  0  0
 21 40  1  0  0  0  0
 22 25  1  0  0  0  0
 22 41  1  0  0  0  0
 23 26  1  0  0  0  0
 23 42  1  0  0  0  0
 24 27  2  0  0  0  0
 25 26  2  0  0  0  0
 25 44  1  0  0  0  0
 26 45  1  0  0  0  0
 27 28  1  0  0  0  0
 27 46  1  0  0  0  0
 28 29  2  0  0  0  0
 28 47  1  0  0  0  0
 29 48  1  0  0  0  0
M  END
> <PUBCHEM_COMPOUND_CID>
1069531

> <PUBCHEM_CONFORMER_RMSD>
1

> <PUBCHEM_CONFORMER_DIVERSEORDER>
1
83
68
65
30
27
94
31
93
101
4
103
80
56
57
88
22
102
25
98
106
82
6
90
96
78
97
17
39
87
12
75
35
28
70
60
61
32
81
45
10
79
21
73
84
48
15
52
54
40
76
99
9
74
66
91
85
51
29
24
77
49
71
23
36
55
47
92
63
11
62
34
58
13
50
105
53
3
42
43
20
44
67
33
89
69
41
46
59
72
14
19
86
5
100
64
104
26
8
2
38
18
37
16
7
95

> <PUBCHEM_MMFF94_PARTIAL_CHARGES>
44
1 -0.28
10 0.12
11 0.09
12 -0.15
13 -0.15
14 -0.15
15 -0.15
16 -0.15
17 0.69
18 0.48
19 0.54
2 -0.57
20 -0.15
21 -0.15
22 -0.15
23 -0.15
24 -0.04
25 -0.15
26 -0.15
27 -0.15
28 -0.15
29 -0.01
3 -0.57
30 0.15
31 0.15
32 0.15
33 0.37
34 0.15
35 0.15
36 0.37
39 0.15
4 -0.55
40 0.15
41 0.15
42 0.15
43 0.37
44 0.15
45 0.15
46 0.15
47 0.15
48 0.15
5 -0.55
6 -0.73
8 0.12

> <PUBCHEM_EFFECTIVE_ROTOR_COUNT>
8

> <PUBCHEM_PHARMACOPHORE_FEATURES>
10
1 1 acceptor
1 2 acceptor
1 3 acceptor
1 4 donor
1 5 donor
1 6 donor
5 1 24 27 28 29 rings
6 10 11 22 23 25 26 rings
6 7 8 9 12 14 16 rings
6 7 9 13 15 20 21 rings

> <PUBCHEM_HEAVY_ATOM_COUNT>
29

> <PUBCHEM_ATOM_DEF_STEREO_COUNT>
0

> <PUBCHEM_ATOM_UDEF_STEREO_COUNT>
0

> <PUBCHEM_BOND_DEF_STEREO_COUNT>
0

> <PUBCHEM_BOND_UDEF_STEREO_COUNT>
0

> <PUBCHEM_ISOTOPIC_ATOM_COUNT>
0

> <PUBCHEM_COMPONENT_COUNT>
1

> <PUBCHEM_CACTVS_TAUTO_COUNT>
8

> <PUBCHEM_CONFORMER_ID>
001051DB00000001

> <PUBCHEM_MMFF94_ENERGY>
88.0837

> <PUBCHEM_FEATURE_SELFOVERLAP>
50.824

> <PUBCHEM_SHAPE_FINGERPRINT>
10616163 171 18409449210795266905
11136131 41 18334847321635386594
11513181 2 18131072666442366374
12107183 9 17837216969754319345
12788726 201 17981589778537041182
12925494 130 18123469372249045641
12978246 48 18412258454177001290
13402501 40 18410295770102910675
1361 2 18410012173527984697
138480 1 17979073782552849814
14117953 113 18268140960088692958
14790565 3 18339082704200936876
15320467 1 18122344850377637451
15400415 2 18410855511684574505
17138139 8 17557962190540017679
18681886 176 18335982073564959840
19301679 30 18262535775234644563
21197605 99 18266745860100995331
21859007 373 17315909963337765605
23559900 14 18195524788094456421
3298306 158 18413952788900172375
338550 245 18337112366689537694
3882209 13 17108715710886134291
5047190 48 18337392771892610124
5265222 85 18194692694089862676
5309563 4 17979916004080038316
5776283 40 18266761215404800206
6433294 58 18194966240434943407
6443956 14 18122347870034766548
653340 110 17550375685115751904
6608658 132 17768239476905196231
6823239 73 18197500615011708778
9709674 26 18337674101299128049
9777508 108 17766831007442850224

> <PUBCHEM_SHAPE_MULTIPOLES>
564.26
12.29
5.94
0.89
6.02
4.17
0.01
-6.49
1.36
-2.94
-1.15
-0.27
0.54
0.71

> <PUBCHEM_SHAPE_SELFOVERLAP>
1244.932

> <PUBCHEM_SHAPE_VOLUME>
302.3

> <PUBCHEM_COORDINATE_TYPE>
2
5
10

$$$$
