16682409
  -OEChem-01171809533D

 71 76  0     1  0  0  0  0  0999 V2000
   -5.7953    0.7861    1.4570 O   0  0  0  0  0  0  0  0  0  0  0  0
   -2.0292    2.6439   -1.3202 O   0  0  0  0  0  0  0  0  0  0  0  0
   -6.1112   -1.7684   -0.8822 O   0  0  0  0  0  0  0  0  0  0  0  0
    4.4953    0.8849    0.3989 N   0  0  0  0  0  0  0  0  0  0  0  0
    4.8111    2.1662    0.6858 N   0  0  0  0  0  0  0  0  0  0  0  0
   -4.0399    0.3825   -0.2559 C   0  0  1  0  0  0  0  0  0  0  0  0
   -3.0830   -0.8213   -0.4177 C   0  0  1  0  0  0  0  0  0  0  0  0
   -1.6980   -0.4475   -0.9972 C   0  0  1  0  0  0  0  0  0  0  0  0
   -1.0063    0.6796   -0.1911 C   0  0  2  0  0  0  0  0  0  0  0  0
   -5.1605   -0.2084    0.6680 C   0  0  1  0  0  0  0  0  0  0  0  0
   -3.3182    1.5792    0.4357 C   0  0  0  0  0  0  0  0  0  0  0  0
   -3.0556   -1.4508    0.9852 C   0  0  0  0  0  0  0  0  0  0  0  0
   -4.4851   -1.3073    1.5303 C   0  0  1  0  0  0  0  0  0  0  0  0
   -1.9178    1.9270   -0.1002 C   0  0  2  0  0  0  0  0  0  0  0  0
    0.4782    0.9117   -0.6578 C   0  0  2  0  0  0  0  0  0  0  0  0
   -4.6083    0.8412   -1.6153 C   0  0  0  0  0  0  0  0  0  0  0  0
   -0.8122   -1.6586   -1.1292 C   0  0  0  0  0  0  0  0  0  0  0  0
    1.2560   -0.4616   -0.5299 C   0  0  0  0  0  0  0  0  0  0  0  0
    1.1030    2.0694    0.2289 C   0  0  0  0  0  0  0  0  0  0  0  0
   -6.2989   -0.8432   -0.0938 C   0  0  0  0  0  0  0  0  0  0  0  0
   -4.4952   -1.0547    3.0352 C   0  0  0  0  0  0  0  0  0  0  0  0
    0.5135   -1.6797   -0.8990 C   0  0  0  0  0  0  0  0  0  0  0  0
    0.6044    1.3451   -2.1417 C   0  0  0  0  0  0  0  0  0  0  0  0
    2.5693    1.9257    0.3517 C   0  0  0  0  0  0  0  0  0  0  0  0
    2.5559   -0.5111   -0.1455 C   0  0  0  0  0  0  0  0  0  0  0  0
   -7.6750   -0.2902    0.1610 C   0  0  0  0  0  0  0  0  0  0  0  0
    3.1663    0.7068    0.1858 C   0  0  0  0  0  0  0  0  0  0  0  0
    1.2630   -2.9783   -1.0631 C   0  0  0  0  0  0  0  0  0  0  0  0
    3.6276    2.7951    0.6585 C   0  0  0  0  0  0  0  0  0  0  0  0
    5.5090   -0.0726    0.3383 C   0  0  0  0  0  0  0  0  0  0  0  0
    5.7429   -0.7663   -0.8492 C   0  0  0  0  0  0  0  0  0  0  0  0
    6.2907   -0.3335    1.4638 C   0  0  0  0  0  0  0  0  0  0  0  0
    6.7579   -1.7210   -0.9111 C   0  0  0  0  0  0  0  0  0  0  0  0
    7.3060   -1.2880    1.4018 C   0  0  0  0  0  0  0  0  0  0  0  0
    7.5395   -1.9818    0.2142 C   0  0  0  0  0  0  0  0  0  0  0  0
   -3.5403   -1.5554   -1.0970 H   0  0  0  0  0  0  0  0  0  0  0  0
   -1.8762   -0.0869   -2.0190 H   0  0  0  0  0  0  0  0  0  0  0  0
   -0.9127    0.3261    0.8467 H   0  0  0  0  0  0  0  0  0  0  0  0
   -3.2019    1.3588    1.5045 H   0  0  0  0  0  0  0  0  0  0  0  0
   -3.9578    2.4694    0.3764 H   0  0  0  0  0  0  0  0  0  0  0  0
   -2.7595   -2.5050    0.9416 H   0  0  0  0  0  0  0  0  0  0  0  0
   -2.3467   -0.9509    1.6512 H   0  0  0  0  0  0  0  0  0  0  0  0
   -4.9869   -2.2720    1.3734 H   0  0  0  0  0  0  0  0  0  0  0  0
   -1.4753    2.6310    0.6138 H   0  0  0  0  0  0  0  0  0  0  0  0
   -5.0237    0.0163   -2.2014 H   0  0  0  0  0  0  0  0  0  0  0  0
   -5.3938    1.5924   -1.4791 H   0  0  0  0  0  0  0  0  0  0  0  0
   -3.8373    1.2872   -2.2488 H   0  0  0  0  0  0  0  0  0  0  0  0
   -1.3051   -2.5741   -1.4514 H   0  0  0  0  0  0  0  0  0  0  0  0
    0.6913    2.0215    1.2459 H   0  0  0  0  0  0  0  0  0  0  0  0
    0.8465    3.0550   -0.1768 H   0  0  0  0  0  0  0  0  0  0  0  0
   -3.9975   -0.1140    3.2916 H   0  0  0  0  0  0  0  0  0  0  0  0
   -5.5213   -1.0141    3.4152 H   0  0  0  0  0  0  0  0  0  0  0  0
   -3.9765   -1.8619    3.5633 H   0  0  0  0  0  0  0  0  0  0  0  0
    1.6557    1.4190   -2.4459 H   0  0  0  0  0  0  0  0  0  0  0  0
    0.1277    0.6382   -2.8277 H   0  0  0  0  0  0  0  0  0  0  0  0
    0.1614    2.3288   -2.3195 H   0  0  0  0  0  0  0  0  0  0  0  0
   -5.9814    1.5568    0.8944 H   0  0  0  0  0  0  0  0  0  0  0  0
   -2.5788    3.4288   -1.1559 H   0  0  0  0  0  0  0  0  0  0  0  0
    3.1047   -1.4413   -0.0674 H   0  0  0  0  0  0  0  0  0  0  0  0
   -7.7421    0.7492   -0.1692 H   0  0  0  0  0  0  0  0  0  0  0  0
   -8.3997   -0.8695   -0.4207 H   0  0  0  0  0  0  0  0  0  0  0  0
   -7.9440   -0.3920    1.2155 H   0  0  0  0  0  0  0  0  0  0  0  0
    2.0733   -2.8710   -1.7925 H   0  0  0  0  0  0  0  0  0  0  0  0
    0.6164   -3.7865   -1.4234 H   0  0  0  0  0  0  0  0  0  0  0  0
    1.6830   -3.3082   -0.1069 H   0  0  0  0  0  0  0  0  0  0  0  0
    3.5954    3.8541    0.8701 H   0  0  0  0  0  0  0  0  0  0  0  0
    5.1534   -0.5695   -1.7416 H   0  0  0  0  0  0  0  0  0  0  0  0
    6.1201    0.1950    2.3985 H   0  0  0  0  0  0  0  0  0  0  0  0
    6.9417   -2.2592   -1.8363 H   0  0  0  0  0  0  0  0  0  0  0  0
    7.9142   -1.4919    2.2782 H   0  0  0  0  0  0  0  0  0  0  0  0
    8.3302   -2.7248    0.1659 H   0  0  0  0  0  0  0  0  0  0  0  0
  1 10  1  0  0  0  0
  1 57  1  0  0  0  0
  2 14  1  0  0  0  0
  2 58  1  0  0  0  0
  3 20  2  0  0  0  0
  4  5  1  0  0  0  0
  4 27  1  0  0  0  0
  4 30  1  0  0  0  0
  5 29  2  0  0  0  0
  6  7  1  0  0  0  0
  6 10  1  0  0  0  0
  6 11  1  0  0  0  0
  6 16  1  0  0  0  0
  7  8  1  0  0  0  0
  7 12  1  0  0  0  0
  7 36  1  0  0  0  0
  8  9  1  0  0  0  0
  8 17  1  0  0  0  0
  8 37  1  0  0  0  0
  9 14  1  0  0  0  0
  9 15  1  0  0  0  0
  9 38  1  0  0  0  0
 10 13  1  0  0  0  0
 10 20  1  0  0  0  0
 11 14  1  0  0  0  0
 11 39  1  0  0  0  0
 11 40  1  0  0  0  0
 12 13  1  0  0  0  0
 12 41  1  0  0  0  0
 12 42  1  0  0  0  0
 13 21  1  0  0  0  0
 13 43  1  0  0  0  0
 14 44  1  0  0  0  0
 15 18  1  0  0  0  0
 15 19  1  0  0  0  0
 15 23  1  0  0  0  0
 16 45  1  0  0  0  0
 16 46  1  0  0  0  0
 16 47  1  0  0  0  0
 17 22  2  0  0  0  0
 17 48  1  0  0  0  0
 18 22  1  0  0  0  0
 18 25  2  0  0  0  0
 19 24  1  0  0  0  0
 19 49  1  0  0  0  0
 19 50  1  0  0  0  0
 20 26  1  0  0  0  0
 21 51  1  0  0  0  0
 21 52  1  0  0  0  0
 21 53  1  0  0  0  0
 22 28  1  0  0  0  0
 23 54  1  0  0  0  0
 23 55  1  0  0  0  0
 23 56  1  0  0  0  0
 24 27  2  0  0  0  0
 24 29  1  0  0  0  0
 25 27  1  0  0  0  0
 25 59  1  0  0  0  0
 26 60  1  0  0  0  0
 26 61  1  0  0  0  0
 26 62  1  0  0  0  0
 28 63  1  0  0  0  0
 28 64  1  0  0  0  0
 28 65  1  0  0  0  0
 29 66  1  0  0  0  0
 30 31  2  0  0  0  0
 30 32  1  0  0  0  0
 31 33  1  0  0  0  0
 31 67  1  0  0  0  0
 32 34  2  0  0  0  0
 32 68  1  0  0  0  0
 33 35  2  0  0  0  0
 33 69  1  0  0  0  0
 34 35  1  0  0  0  0
 34 70  1  0  0  0  0
 35 71  1  0  0  0  0
M  END
> <PUBCHEM_COMPOUND_CID>
16682409

> <PUBCHEM_CONFORMER_RMSD>
0.8

> <PUBCHEM_CONFORMER_DIVERSEORDER>
2
23
1
24
19
37
14
12
18
38
6
10
31
30
34
27
9
4
35
21
26
15
7
20
36
5
40
41
29
25
22
11
33
16
8
39
32
28
13
42
17
3

> <PUBCHEM_MMFF94_PARTIAL_CHARGES>
36
1 -0.68
10 0.34
14 0.28
15 0.14
17 -0.29
18 -0.14
19 0.18
2 -0.68
20 0.45
22 -0.14
24 -0.18
25 -0.11
26 0.06
27 -0.2
28 0.14
29 0.14
3 -0.57
30 -0.02
31 -0.15
32 -0.15
33 -0.15
34 -0.15
35 -0.15
4 0.59
48 0.15
5 -0.71
57 0.4
58 0.4
59 0.15
66 0.15
67 0.15
68 0.15
69 0.15
70 0.15
71 0.15
8 0.14

> <PUBCHEM_EFFECTIVE_ROTOR_COUNT>
3.2

> <PUBCHEM_PHARMACOPHORE_FEATURES>
12
1 1 acceptor
1 1 donor
1 2 acceptor
1 2 donor
1 3 acceptor
1 5 acceptor
5 4 5 24 27 29 rings
5 6 7 10 12 13 rings
6 15 18 19 24 25 27 rings
6 30 31 32 33 34 35 rings
6 6 7 8 9 11 14 rings
6 8 9 15 17 18 22 rings

> <PUBCHEM_HEAVY_ATOM_COUNT>
35

> <PUBCHEM_ATOM_DEF_STEREO_COUNT>
3

> <PUBCHEM_ATOM_UDEF_STEREO_COUNT>
5

> <PUBCHEM_BOND_DEF_STEREO_COUNT>
0

> <PUBCHEM_BOND_UDEF_STEREO_COUNT>
0

> <PUBCHEM_ISOTOPIC_ATOM_COUNT>
0

> <PUBCHEM_COMPONENT_COUNT>
1

> <PUBCHEM_CACTVS_TAUTO_COUNT>
2

> <PUBCHEM_CONFORMER_ID>
00FE8DA900000002

> <PUBCHEM_MMFF94_ENERGY>
142.64

> <PUBCHEM_FEATURE_SELFOVERLAP>
61.182

> <PUBCHEM_SHAPE_FINGERPRINT>
10 15 18413101784734166832
10076449 9 18342750585872648342
10319926 262 17894351107195014051
10533779 47 18200329749036026235
11135926 11 18272080583830292663
11456790 92 18060148652334265715
11646440 116 17917710176535871696
11672396 43 18189340242149240579
117089 54 18046625595780327106
12035758 1 18272926108250608198
12107698 1 18335419062716299888
12128747 34 17823131233638429434
12166972 35 18113338630433690212
12236239 1 17346320427367252109
12422481 6 18341899610136116814
12633257 1 17917150610368189996
13673619 4 18187363216941231524
13782708 43 18407760322586102934
13811026 1 18411976941157527669
14028597 1 17060064709337569642
14341114 176 18408322215888294888
14347424 109 18201717380065234800
14767858 380 10953459626844312594
14849402 71 17988357195676705080
14856354 85 17095248011926679799
14955137 171 18259990409056736444
15131766 46 17698714036819067904
15183329 4 17917436449390057862
15324884 4 17971719317132634396
15352257 5 17386007252343563562
15510800 12 17604444015114970835
1577012 14 17846497092605046676
16112460 7 18131071580168385752
18222031 100 16877660175939287412
20028762 73 18060137652454268774
21033648 29 18340470249363149769
21130935 74 18201155554507092850
21267235 1 18412826863793186116
21304304 249 18334858333218947863
21403212 168 18060698368686741255
21424621 283 13614526251094124422
21682296 61 18343025450124589486
21781051 124 18335715927284031838
21792934 111 18201714042533014049
22223350 30 17701527644324729810
23522609 53 18193025710135378180
23559900 14 17313672675801250165
23569917 315 18130791204519700375
249057 25 17275109469935700209
2838139 119 14045732721317885058
3178227 256 18412266129905908426
335352 9 18343864433484034614
3383291 50 18412258437351125250
350125 39 18413672418073156052
392239 28 18060148660470895721
4093350 32 15769500829186483766
504579 68 13045939084751817162
5104073 3 18057880428238858570
5265222 85 14924235957458317299
563151 248 17275377712297578942
57527293 21 17680174003938341067
59755656 215 18186800257738440554
6081469 158 18187078456324634381
8863177 126 18187369878361460066
9896288 288 17629488493177018864
9962374 69 18341883148080385382
999808 66 18260271828625821850

> <PUBCHEM_SHAPE_MULTIPOLES>
692.71
19.26
2.65
1.67
9.33
0.59
0.56
-8.17
6.01
1.85
-0.27
-1.2
-0.34
1.16

> <PUBCHEM_SHAPE_SELFOVERLAP>
1533.402

> <PUBCHEM_SHAPE_VOLUME>
369.4

> <PUBCHEM_COORDINATE_TYPE>
2
5
10

$$$$
