1080347
  -OEChem-01171809333D

 36 38  0     0  0  0  0  0  0999 V2000
   -4.7873    2.9434    0.8030 O   0  5  0  0  0  0  0  0  0  0  0  0
   -5.4844    0.9080    0.3318 O   0  0  0  0  0  0  0  0  0  0  0  0
    0.4127   -0.4946   -0.9200 N   0  0  0  0  0  0  0  0  0  0  0  0
   -4.6089    1.7831    0.4040 N   0  3  0  0  0  0  0  0  0  0  0  0
    1.1233    3.4886   -1.1311 N   0  0  0  0  0  0  0  0  0  0  0  0
    0.1019   -1.7631   -0.4848 C   0  0  0  0  0  0  0  0  0  0  0  0
   -1.2096   -1.7234   -0.0062 C   0  0  0  0  0  0  0  0  0  0  0  0
    1.6783   -0.0883   -1.4923 C   0  0  0  0  0  0  0  0  0  0  0  0
   -1.6735   -0.3881   -0.1695 C   0  0  0  0  0  0  0  0  0  0  0  0
   -0.6537    0.3433   -0.7335 C   0  0  0  0  0  0  0  0  0  0  0  0
    2.6338    0.3862   -0.4311 C   0  0  0  0  0  0  0  0  0  0  0  0
    0.8732   -2.9308   -0.4784 C   0  0  0  0  0  0  0  0  0  0  0  0
   -1.7812   -2.9058    0.5044 C   0  0  0  0  0  0  0  0  0  0  0  0
    0.2851   -4.0912    0.0329 C   0  0  0  0  0  0  0  0  0  0  0  0
   -2.9389    0.1392    0.1694 C   0  0  0  0  0  0  0  0  0  0  0  0
   -1.0215   -4.0812    0.5173 C   0  0  0  0  0  0  0  0  0  0  0  0
    2.6782    1.7215   -0.0485 C   0  0  0  0  0  0  0  0  0  0  0  0
    3.4752   -0.5496    0.1598 C   0  0  0  0  0  0  0  0  0  0  0  0
    3.5765    2.1272    0.9386 C   0  0  0  0  0  0  0  0  0  0  0  0
    4.3734   -0.1440    1.1470 C   0  0  0  0  0  0  0  0  0  0  0  0
    4.4240    1.1944    1.5363 C   0  0  0  0  0  0  0  0  0  0  0  0
   -3.2959    1.4276   -0.0026 C   0  0  0  0  0  0  0  0  0  0  0  0
    1.8193    2.6976   -0.6466 C   0  0  0  0  0  0  0  0  0  0  0  0
    1.4828    0.6775   -2.2520 H   0  0  0  0  0  0  0  0  0  0  0  0
    2.0981   -0.9347   -2.0491 H   0  0  0  0  0  0  0  0  0  0  0  0
   -0.6069    1.3776   -1.0399 H   0  0  0  0  0  0  0  0  0  0  0  0
    1.8808   -2.9649   -0.8741 H   0  0  0  0  0  0  0  0  0  0  0  0
   -2.7981   -2.9186    0.8862 H   0  0  0  0  0  0  0  0  0  0  0  0
    0.8549   -5.0169    0.0468 H   0  0  0  0  0  0  0  0  0  0  0  0
   -3.6437   -0.5720    0.5947 H   0  0  0  0  0  0  0  0  0  0  0  0
   -1.4576   -4.9965    0.9086 H   0  0  0  0  0  0  0  0  0  0  0  0
    3.4714   -1.5914   -0.1402 H   0  0  0  0  0  0  0  0  0  0  0  0
    3.6290    3.1667    1.2536 H   0  0  0  0  0  0  0  0  0  0  0  0
    5.0369   -0.8692    1.6090 H   0  0  0  0  0  0  0  0  0  0  0  0
    5.1244    1.5104    2.3040 H   0  0  0  0  0  0  0  0  0  0  0  0
   -2.7101    2.2599   -0.3625 H   0  0  0  0  0  0  0  0  0  0  0  0
  1  4  1  0  0  0  0
  2  4  2  0  0  0  0
  3  6  1  0  0  0  0
  3  8  1  0  0  0  0
  3 10  1  0  0  0  0
  4 22  1  0  0  0  0
  5 23  3  0  0  0  0
  6  7  1  0  0  0  0
  6 12  2  0  0  0  0
  7  9  1  0  0  0  0
  7 13  2  0  0  0  0
  8 11  1  0  0  0  0
  8 24  1  0  0  0  0
  8 25  1  0  0  0  0
  9 10  2  0  0  0  0
  9 15  1  0  0  0  0
 10 26  1  0  0  0  0
 11 17  1  0  0  0  0
 11 18  2  0  0  0  0
 12 14  1  0  0  0  0
 12 27  1  0  0  0  0
 13 16  1  0  0  0  0
 13 28  1  0  0  0  0
 14 16  2  0  0  0  0
 14 29  1  0  0  0  0
 15 22  2  0  0  0  0
 15 30  1  0  0  0  0
 16 31  1  0  0  0  0
 17 19  2  0  0  0  0
 17 23  1  0  0  0  0
 18 20  1  0  0  0  0
 18 32  1  0  0  0  0
 19 21  1  0  0  0  0
 19 33  1  0  0  0  0
 20 21  2  0  0  0  0
 20 34  1  0  0  0  0
 21 35  1  0  0  0  0
 22 36  1  0  0  0  0
M  CHG  2   1  -1   4   1
M  END
> <PUBCHEM_COMPOUND_CID>
1080347

> <PUBCHEM_CONFORMER_RMSD>
0.6

> <PUBCHEM_CONFORMER_DIVERSEORDER>
2
43
26
44
1
25
10
38
31
42
4
37
32
27
41
3
17
34
9
33
18
29
14
40
30
6
39
5
13
21
19
35
20
22
36
8
16
7
15
28
11
23
24
12

> <PUBCHEM_MMFF94_PARTIAL_CHARGES>
33
1 -0.52
10 -0.3
11 -0.14
12 -0.15
13 -0.15
14 -0.15
15 -0.1
16 -0.15
17 0.07
18 -0.15
19 -0.15
2 -0.52
20 -0.15
21 -0.15
22 0.05
23 0.48
26 0.15
27 0.15
28 0.15
29 0.15
3 0.05
30 0.15
31 0.15
32 0.15
33 0.15
34 0.15
35 0.15
36 0.15
4 0.84
5 -0.56
6 -0.15
8 0.4
9 -0.05

> <PUBCHEM_EFFECTIVE_ROTOR_COUNT>
4

> <PUBCHEM_PHARMACOPHORE_FEATURES>
8
1 1 acceptor
1 1 anion
1 2 acceptor
1 3 cation
1 5 acceptor
5 3 6 7 9 10 rings
6 11 17 18 19 20 21 rings
6 6 7 12 13 14 16 rings

> <PUBCHEM_HEAVY_ATOM_COUNT>
23

> <PUBCHEM_ATOM_DEF_STEREO_COUNT>
0

> <PUBCHEM_ATOM_UDEF_STEREO_COUNT>
0

> <PUBCHEM_BOND_DEF_STEREO_COUNT>
1

> <PUBCHEM_BOND_UDEF_STEREO_COUNT>
0

> <PUBCHEM_ISOTOPIC_ATOM_COUNT>
0

> <PUBCHEM_COMPONENT_COUNT>
1

> <PUBCHEM_CACTVS_TAUTO_COUNT>
2

> <PUBCHEM_CONFORMER_ID>
00107C1B00000002

> <PUBCHEM_MMFF94_ENERGY>
55.8731

> <PUBCHEM_FEATURE_SELFOVERLAP>
40.767

> <PUBCHEM_SHAPE_FINGERPRINT>
11370993 70 18412542115370985507
11582403 64 17774708805806404711
12107183 9 18336814335099217442
12403260 363 18338508763626412047
12633257 1 18188478168702064892
12788726 201 17685784913804583682
13004483 165 17688865758429126715
13140716 1 18410289233436460030
13692114 37 18335989735876085579
13878862 14 17685209475052169325
13965767 371 18261103028818905568
14178342 30 18049143756268486648
14223421 5 17834115621414522246
14466204 15 18337387124032130601
14790565 3 18336562520803513372
15420108 30 18198889332388562399
16110190 28 18262783143649243322
16728300 4 17244114073797383290
20739085 24 18262523576647133460
21033648 29 17774428516931498096
212916 134 18342444950570676632
21731228 192 18408600366074950306
22950370 63 8790886315418575117
23419403 2 17028512968884640863
23558518 356 18191022520049762218
23559900 14 18053399969985105814
238918 7 18120355584835146932
25222932 49 15289068235624445745
352729 6 18266748072077230983
4340502 62 18411986836957271811
474 4 18340768152683985465
5104073 3 18120069914466582272
5486654 36 17896026819251518658
58807428 26 18335414638815783763
6328613 192 18341056294041484780
7097593 13 18116983584999996266
7364860 26 18050572846137825967
79837 15 18409169943748452811
84936 182 18198910206182367377
90316 7 17547578531370987227
9981440 41 18410573981584588859

> <PUBCHEM_SHAPE_MULTIPOLES>
446.65
8.35
4.89
1.11
3.02
2.83
-0.01
-8.06
3.91
3.26
0.26
-0.87
-0.28
-0.38

> <PUBCHEM_SHAPE_SELFOVERLAP>
984.011

> <PUBCHEM_SHAPE_VOLUME>
239.7

> <PUBCHEM_COORDINATE_TYPE>
2
5
10

$$$$
