839470
  -OEChem-01171809403D

 39 40  0     0  0  0  0  0  0999 V2000
    5.1633   -1.6538    1.4338 Cl  0  0  0  0  0  0  0  0  0  0  0  0
    5.4955    0.6470   -0.4720 O   0  0  0  0  0  0  0  0  0  0  0  0
    0.0396   -2.4238    0.2749 O   0  0  0  0  0  0  0  0  0  0  0  0
   -5.6284    1.4537    1.6653 O   0  0  0  0  0  0  0  0  0  0  0  0
   -5.8568    2.1400   -0.4895 O   0  0  0  0  0  0  0  0  0  0  0  0
   -0.7663   -0.2882   -0.2877 N   0  0  0  0  0  0  0  0  0  0  0  0
   -3.0284    0.5424    0.0218 C   0  0  0  0  0  0  0  0  0  0  0  0
   -2.1488   -0.4977   -0.2761 C   0  0  0  0  0  0  0  0  0  0  0  0
   -4.4040    0.3113    0.0289 C   0  0  0  0  0  0  0  0  0  0  0  0
    1.6003   -0.7516   -0.1319 C   0  0  0  0  0  0  0  0  0  0  0  0
   -2.6431   -1.7687   -0.5669 C   0  0  0  0  0  0  0  0  0  0  0  0
    0.2326   -1.2334   -0.0196 C   0  0  0  0  0  0  0  0  0  0  0  0
   -2.4981    1.9073    0.3357 C   0  0  0  0  0  0  0  0  0  0  0  0
   -4.8991   -0.9600   -0.2619 C   0  0  0  0  0  0  0  0  0  0  0  0
   -4.0187   -2.0000   -0.5599 C   0  0  0  0  0  0  0  0  0  0  0  0
    2.6155   -1.3533    0.6116 C   0  0  0  0  0  0  0  0  0  0  0  0
    1.8965    0.3129   -0.9833 C   0  0  0  0  0  0  0  0  0  0  0  0
    4.2232    0.1736   -0.3479 C   0  0  0  0  0  0  0  0  0  0  0  0
    3.9270   -0.8907    0.5036 C   0  0  0  0  0  0  0  0  0  0  0  0
    3.2079    0.7754   -1.0914 C   0  0  0  0  0  0  0  0  0  0  0  0
   -5.3486    1.3770    0.3363 C   0  0  0  0  0  0  0  0  0  0  0  0
    5.7144    2.0128   -0.1264 C   0  0  0  0  0  0  0  0  0  0  0  0
    7.1244    2.1677    0.4026 C   0  0  0  0  0  0  0  0  0  0  0  0
   -0.4774    0.6852   -0.3129 H   0  0  0  0  0  0  0  0  0  0  0  0
   -2.0017   -2.5973   -0.8478 H   0  0  0  0  0  0  0  0  0  0  0  0
   -3.2590    2.6133    0.6785 H   0  0  0  0  0  0  0  0  0  0  0  0
   -1.7549    1.8531    1.1393 H   0  0  0  0  0  0  0  0  0  0  0  0
   -2.0342    2.3441   -0.5554 H   0  0  0  0  0  0  0  0  0  0  0  0
   -5.9690   -1.1522   -0.2619 H   0  0  0  0  0  0  0  0  0  0  0  0
   -4.4052   -2.9871   -0.7963 H   0  0  0  0  0  0  0  0  0  0  0  0
    2.3893   -2.1802    1.2814 H   0  0  0  0  0  0  0  0  0  0  0  0
    1.1434    0.7882   -1.6054 H   0  0  0  0  0  0  0  0  0  0  0  0
    3.4255    1.5953   -1.7706 H   0  0  0  0  0  0  0  0  0  0  0  0
    5.5828    2.6313   -1.0209 H   0  0  0  0  0  0  0  0  0  0  0  0
    5.0039    2.3449    0.6409 H   0  0  0  0  0  0  0  0  0  0  0  0
    7.3312    3.2087    0.6663 H   0  0  0  0  0  0  0  0  0  0  0  0
    7.2740    1.5421    1.2889 H   0  0  0  0  0  0  0  0  0  0  0  0
    7.8549    1.8406   -0.3446 H   0  0  0  0  0  0  0  0  0  0  0  0
   -6.2645    2.1738    1.8634 H   0  0  0  0  0  0  0  0  0  0  0  0
  1 19  1  0  0  0  0
  2 18  1  0  0  0  0
  2 22  1  0  0  0  0
  3 12  2  0  0  0  0
  4 21  1  0  0  0  0
  4 39  1  0  0  0  0
  5 21  2  0  0  0  0
  6  8  1  0  0  0  0
  6 12  1  0  0  0  0
  6 24  1  0  0  0  0
  7  8  1  0  0  0  0
  7  9  2  0  0  0  0
  7 13  1  0  0  0  0
  8 11  2  0  0  0  0
  9 14  1  0  0  0  0
  9 21  1  0  0  0  0
 10 12  1  0  0  0  0
 10 16  2  0  0  0  0
 10 17  1  0  0  0  0
 11 15  1  0  0  0  0
 11 25  1  0  0  0  0
 13 26  1  0  0  0  0
 13 27  1  0  0  0  0
 13 28  1  0  0  0  0
 14 15  2  0  0  0  0
 14 29  1  0  0  0  0
 15 30  1  0  0  0  0
 16 19  1  0  0  0  0
 16 31  1  0  0  0  0
 17 20  2  0  0  0  0
 17 32  1  0  0  0  0
 18 19  2  0  0  0  0
 18 20  1  0  0  0  0
 20 33  1  0  0  0  0
 22 23  1  0  0  0  0
 22 34  1  0  0  0  0
 22 35  1  0  0  0  0
 23 36  1  0  0  0  0
 23 37  1  0  0  0  0
 23 38  1  0  0  0  0
M  END
> <PUBCHEM_COMPOUND_CID>
839470

> <PUBCHEM_CONFORMER_RMSD>
0.8

> <PUBCHEM_CONFORMER_DIVERSEORDER>
4
21
20
6
8
17
19
14
1
13
7
10
11
16
15
3
2
18
22
12
5
9

> <PUBCHEM_MMFF94_PARTIAL_CHARGES>
30
1 -0.18
10 0.09
11 -0.15
12 0.54
13 0.14
14 -0.15
15 -0.15
16 -0.15
17 -0.15
18 0.08
19 0.18
2 -0.36
20 -0.15
21 0.63
22 0.28
24 0.37
25 0.15
29 0.15
3 -0.57
30 0.15
31 0.15
32 0.15
33 0.15
39 0.5
4 -0.65
5 -0.57
6 -0.55
7 -0.14
8 0.12
9 0.09

> <PUBCHEM_EFFECTIVE_ROTOR_COUNT>
6

> <PUBCHEM_PHARMACOPHORE_FEATURES>
8
1 2 acceptor
1 3 acceptor
1 4 acceptor
1 5 acceptor
1 6 donor
3 4 5 21 anion
6 10 16 17 18 19 20 rings
6 7 8 9 11 14 15 rings

> <PUBCHEM_HEAVY_ATOM_COUNT>
23

> <PUBCHEM_ATOM_DEF_STEREO_COUNT>
0

> <PUBCHEM_ATOM_UDEF_STEREO_COUNT>
0

> <PUBCHEM_BOND_DEF_STEREO_COUNT>
0

> <PUBCHEM_BOND_UDEF_STEREO_COUNT>
0

> <PUBCHEM_ISOTOPIC_ATOM_COUNT>
0

> <PUBCHEM_COMPONENT_COUNT>
1

> <PUBCHEM_CACTVS_TAUTO_COUNT>
2

> <PUBCHEM_CONFORMER_ID>
000CCF2E00000004

> <PUBCHEM_MMFF94_ENERGY>
84.6235

> <PUBCHEM_FEATURE_SELFOVERLAP>
40.655

> <PUBCHEM_SHAPE_FINGERPRINT>
10 15 18261398836607749057
10411042 1 17692530431360101431
10554248 39 18270668762732227110
10595046 47 18410851105216557214
10912923 1 18408598175726142410
11524674 6 14346066560059570272
12107183 9 17759798152797520170
12236239 1 18335136488138381342
12596602 18 18113335310296681368
12616971 3 18113615659971231055
13073987 5 18334011730788090482
13167372 99 18408884001815641912
13533116 47 17895189953606297842
13668630 136 10879990250848717429
13782708 43 13262398886107403944
14341114 176 17895199861235726810
14341114 328 18413109437680163731
14394314 77 18409171017074278953
14739800 52 18270666693518105656
15196674 1 18409166610283923638
15475509 35 15502925317717223504
1577012 14 18409728456509851654
17980427 23 18410294748121929365
19427546 20 18341045320426034567
20281389 69 18334295344937758037
20511986 3 18261381235441522581
21065198 48 18408036325379229414
23081809 10 18412536617755187974
23402539 116 18413386557391420023
23559900 14 17915755192505076959
2916195 48 18271524303433222688
300161 21 18408319986367297077
3472631 163 18343867722827797908
34797466 226 17632305621991503604
3680242 22 18336270063252106432
397830 11 12540978581681766348
4073 2 18041001799666510546
474 4 17967257511203357135
5104073 3 18186518826022659322
542803 24 18411136926573246031
543368 44 18412824715966828565
5718773 13 11530774738274180297
5758199 1 18187084010023556196
59682541 35 18335151920973598571
636775 72 18125998511160359848

> <PUBCHEM_SHAPE_MULTIPOLES>
446.74
16.87
2.47
1
6.84
0.24
0.19
9.76
2.62
-0.02
0.32
0.19
0.01
-1.75

> <PUBCHEM_SHAPE_SELFOVERLAP>
946.131

> <PUBCHEM_SHAPE_VOLUME>
251.7

> <PUBCHEM_COORDINATE_TYPE>
2
5
10

$$$$
