9551422
  -OEChem-01171809243D

 31 32  0     0  0  0  0  0  0999 V2000
    4.7144    3.2183    0.3206 Cl  0  0  0  0  0  0  0  0  0  0  0  0
   -3.2015    0.1484   -0.3485 S   0  0  0  0  0  0  0  0  0  0  0  0
    0.9759   -1.8809   -0.0877 O   0  0  0  0  0  0  0  0  0  0  0  0
   -6.6556    1.8253    0.2395 O   0  0  0  0  0  0  0  0  0  0  0  0
   -5.8403    0.6860   -1.5502 O   0  0  0  0  0  0  0  0  0  0  0  0
    0.1926    0.1208    0.6157 N   0  0  0  0  0  0  0  0  0  0  0  0
   -0.8200   -0.8040    0.6235 C   0  0  0  0  0  0  0  0  0  0  0  0
   -0.3488   -2.0206    0.1969 C   0  0  0  0  0  0  0  0  0  0  0  0
    1.2188   -0.5732    0.1893 C   0  0  0  0  0  0  0  0  0  0  0  0
   -2.1781   -0.4347    1.0467 C   0  0  0  0  0  0  0  0  0  0  0  0
    2.5793   -0.1466   -0.0303 C   0  0  0  0  0  0  0  0  0  0  0  0
   -0.9380   -3.3491   -0.0018 C   0  0  0  0  0  0  0  0  0  0  0  0
    2.9455    1.1755    0.2218 C   0  0  0  0  0  0  0  0  0  0  0  0
    3.5288   -1.0571   -0.4938 C   0  0  0  0  0  0  0  0  0  0  0  0
    4.2613    1.5871    0.0102 C   0  0  0  0  0  0  0  0  0  0  0  0
    4.8447   -0.6454   -0.7054 C   0  0  0  0  0  0  0  0  0  0  0  0
   -4.7185    0.4809    0.5733 C   0  0  0  0  0  0  0  0  0  0  0  0
    5.2109    0.6766   -0.4534 C   0  0  0  0  0  0  0  0  0  0  0  0
   -5.7716    0.9929   -0.3668 C   0  0  0  0  0  0  0  0  0  0  0  0
   -2.6760   -1.2918    1.5127 H   0  0  0  0  0  0  0  0  0  0  0  0
   -2.1254    0.3638    1.7946 H   0  0  0  0  0  0  0  0  0  0  0  0
   -0.5388   -3.8219   -0.9046 H   0  0  0  0  0  0  0  0  0  0  0  0
   -0.7141   -3.9967    0.8513 H   0  0  0  0  0  0  0  0  0  0  0  0
   -2.0253   -3.2898   -0.1088 H   0  0  0  0  0  0  0  0  0  0  0  0
    2.2111    1.8923    0.5837 H   0  0  0  0  0  0  0  0  0  0  0  0
    3.2834   -2.0954   -0.7017 H   0  0  0  0  0  0  0  0  0  0  0  0
    5.5844   -1.3541   -1.0663 H   0  0  0  0  0  0  0  0  0  0  0  0
   -4.5096    1.2441    1.3289 H   0  0  0  0  0  0  0  0  0  0  0  0
   -5.0903   -0.4287    1.0525 H   0  0  0  0  0  0  0  0  0  0  0  0
    6.2399    0.9831   -0.6228 H   0  0  0  0  0  0  0  0  0  0  0  0
   -7.3418    2.1469   -0.3833 H   0  0  0  0  0  0  0  0  0  0  0  0
  1 15  1  0  0  0  0
  2 10  1  0  0  0  0
  2 17  1  0  0  0  0
  3  8  1  0  0  0  0
  3  9  1  0  0  0  0
  4 19  1  0  0  0  0
  4 31  1  0  0  0  0
  5 19  2  0  0  0  0
  6  7  1  0  0  0  0
  6  9  2  0  0  0  0
  7  8  2  0  0  0  0
  7 10  1  0  0  0  0
  8 12  1  0  0  0  0
  9 11  1  0  0  0  0
 10 20  1  0  0  0  0
 10 21  1  0  0  0  0
 11 13  2  0  0  0  0
 11 14  1  0  0  0  0
 12 22  1  0  0  0  0
 12 23  1  0  0  0  0
 12 24  1  0  0  0  0
 13 15  1  0  0  0  0
 13 25  1  0  0  0  0
 14 16  2  0  0  0  0
 14 26  1  0  0  0  0
 15 18  2  0  0  0  0
 16 18  1  0  0  0  0
 16 27  1  0  0  0  0
 17 19  1  0  0  0  0
 17 28  1  0  0  0  0
 17 29  1  0  0  0  0
 18 30  1  0  0  0  0
M  END
> <PUBCHEM_COMPOUND_CID>
9551422

> <PUBCHEM_CONFORMER_RMSD>
0.8

> <PUBCHEM_CONFORMER_DIVERSEORDER>
1
35
22
30
25
23
10
24
16
31
6
27
2
37
12
13
33
3
29
11
8
20
17
28
21
18
38
26
9
4
34
36
32
14
19
5
7
15

> <PUBCHEM_MMFF94_PARTIAL_CHARGES>
24
1 -0.18
10 0.41
11 0.05
12 0.18
13 -0.15
14 -0.15
15 0.18
16 -0.15
17 0.29
18 -0.15
19 0.66
2 -0.46
25 0.15
26 0.15
27 0.15
3 -0.28
30 0.15
31 0.5
4 -0.65
5 -0.57
6 -0.57
7 0.05
8 -0.04
9 0.43

> <PUBCHEM_EFFECTIVE_ROTOR_COUNT>
5

> <PUBCHEM_PHARMACOPHORE_FEATURES>
5
1 4 acceptor
1 5 acceptor
3 4 5 19 anion
5 3 6 7 8 9 rings
6 11 13 14 15 16 18 rings

> <PUBCHEM_HEAVY_ATOM_COUNT>
19

> <PUBCHEM_ATOM_DEF_STEREO_COUNT>
0

> <PUBCHEM_ATOM_UDEF_STEREO_COUNT>
0

> <PUBCHEM_BOND_DEF_STEREO_COUNT>
0

> <PUBCHEM_BOND_UDEF_STEREO_COUNT>
0

> <PUBCHEM_ISOTOPIC_ATOM_COUNT>
0

> <PUBCHEM_COMPONENT_COUNT>
1

> <PUBCHEM_CACTVS_TAUTO_COUNT>
1

> <PUBCHEM_CONFORMER_ID>
0091BE3E00000001

> <PUBCHEM_MMFF94_ENERGY>
28.1762

> <PUBCHEM_FEATURE_SELFOVERLAP>
25.429

> <PUBCHEM_SHAPE_FINGERPRINT>
10014705 185 18338801242224757026
10411042 1 17617660956123786858
11089746 13 18408318891525208794
11796584 16 13182733728562652045
12403259 118 17605000384523761865
12403259 415 18336838579456555235
12730499 353 18335710399381248203
12969540 114 18334283276047819751
13533116 47 17313659343995676874
13955234 65 18043810892703440107
1420 369 9655581815791695565
14528608 73 18413668002793898157
15003188 100 18410008875246653301
15885798 251 9439403536357286171
17834072 32 18409167752882296333
1813 80 12031791378723482922
193927 3 11959732702659419517
20157964 124 18343304764558462324
20645477 56 18334297608237634990
20715895 44 18411698811818123656
21033648 29 18262236728433960856
21521239 73 17703789189208076767
221357 26 18272089353367572188
22950370 63 9223231858002410403
23402539 116 18343018904267343727
23402655 69 18272649043651416231
23559900 14 18201727275854520058
266924 1 17559401236786808995
2838139 119 18335130973732689413
2916195 48 18187645825636106585
293599 30 18407761438982220239
29717793 49 17346324765120918244
335352 9 18411422791929712598
495365 180 17774998025379120754
5104073 3 18113897199467287178
53917941 68 18339352084750202047
59682541 35 18041293132178338593
60123966 16 18272942643753710556
633830 44 18413101771074292199

> <PUBCHEM_SHAPE_MULTIPOLES>
374.14
14.52
2.8
0.9
14.81
0.44
-0.1
-12.33
-3.22
-1.25
0.16
0.64
-0.07
0.91

> <PUBCHEM_SHAPE_SELFOVERLAP>
770.387

> <PUBCHEM_SHAPE_VOLUME>
218

> <PUBCHEM_COORDINATE_TYPE>
2
5
10

$$$$
