9583467
  -OEChem-01171809553D

 45 46  0     0  0  0  0  0  0999 V2000
    8.8930    0.6172   -0.0011 Cl  0  0  0  0  0  0  0  0  0  0  0  0
    0.9423   -0.7920   -0.0002 O   0  0  0  0  0  0  0  0  0  0  0  0
    2.0770    1.2018    0.0011 O   0  0  0  0  0  0  0  0  0  0  0  0
   -4.7234    0.1522    0.0000 N   0  0  0  0  0  0  0  0  0  0  0  0
   -4.3135    1.4101    0.0002 N   0  0  0  0  0  0  0  0  0  0  0  0
   -0.1783    0.0503    0.0000 N   0  0  0  0  0  0  0  0  0  0  0  0
    3.1759   -0.8637    0.0005 N   0  0  0  0  0  0  0  0  0  0  0  0
   -6.1919   -0.0935    0.0001 C   0  0  0  0  0  0  0  0  0  0  0  0
   -3.7785   -0.7949   -0.0001 C   0  0  0  0  0  0  0  0  0  0  0  0
   -6.5858   -0.8967    1.2596 C   0  0  0  0  0  0  0  0  0  0  0  0
   -6.5887   -0.8848   -1.2663 C   0  0  0  0  0  0  0  0  0  0  0  0
   -7.0456    1.1987    0.0064 C   0  0  0  0  0  0  0  0  0  0  0  0
   -2.5962   -0.0960   -0.0005 C   0  0  0  0  0  0  0  0  0  0  0  0
   -2.9867    1.2565   -0.0001 C   0  0  0  0  0  0  0  0  0  0  0  0
   -4.0559   -2.2447    0.0003 C   0  0  0  0  0  0  0  0  0  0  0  0
   -2.1192    2.4478   -0.0004 C   0  0  0  0  0  0  0  0  0  0  0  0
   -1.2814   -0.6647   -0.0008 C   0  0  0  0  0  0  0  0  0  0  0  0
    4.5442   -0.5092    0.0003 C   0  0  0  0  0  0  0  0  0  0  0  0
    2.0784   -0.0238    0.0007 C   0  0  0  0  0  0  0  0  0  0  0  0
    5.5045   -1.5084   -0.0003 C   0  0  0  0  0  0  0  0  0  0  0  0
    4.8987    0.8305    0.0007 C   0  0  0  0  0  0  0  0  0  0  0  0
    6.8548   -1.1586   -0.0005 C   0  0  0  0  0  0  0  0  0  0  0  0
    6.2491    1.1802    0.0004 C   0  0  0  0  0  0  0  0  0  0  0  0
    7.2271    0.1857   -0.0002 C   0  0  0  0  0  0  0  0  0  0  0  0
   -7.6552   -0.7803    1.4762 H   0  0  0  0  0  0  0  0  0  0  0  0
   -6.4403   -1.9731    1.1547 H   0  0  0  0  0  0  0  0  0  0  0  0
   -6.0385   -0.5536    2.1449 H   0  0  0  0  0  0  0  0  0  0  0  0
   -6.4467   -1.9625   -1.1714 H   0  0  0  0  0  0  0  0  0  0  0  0
   -7.6577   -0.7632   -1.4817 H   0  0  0  0  0  0  0  0  0  0  0  0
   -6.0404   -0.5355   -2.1487 H   0  0  0  0  0  0  0  0  0  0  0  0
   -8.1191    0.9761    0.0072 H   0  0  0  0  0  0  0  0  0  0  0  0
   -6.8370    1.8076    0.8941 H   0  0  0  0  0  0  0  0  0  0  0  0
   -6.8397    1.8148   -0.8768 H   0  0  0  0  0  0  0  0  0  0  0  0
   -3.1157   -2.8079   -0.0127 H   0  0  0  0  0  0  0  0  0  0  0  0
   -4.5573   -2.5812    0.9070 H   0  0  0  0  0  0  0  0  0  0  0  0
   -4.5803   -2.5806   -0.8930 H   0  0  0  0  0  0  0  0  0  0  0  0
   -2.7034    3.3746   -0.0006 H   0  0  0  0  0  0  0  0  0  0  0  0
   -1.4802    2.4617   -0.8892 H   0  0  0  0  0  0  0  0  0  0  0  0
   -1.4802    2.4620    0.8883 H   0  0  0  0  0  0  0  0  0  0  0  0
   -1.1962   -1.7649   -0.0011 H   0  0  0  0  0  0  0  0  0  0  0  0
    2.9772   -1.8613    0.0002 H   0  0  0  0  0  0  0  0  0  0  0  0
    5.2253   -2.5584   -0.0006 H   0  0  0  0  0  0  0  0  0  0  0  0
    4.2008    1.6550    0.0011 H   0  0  0  0  0  0  0  0  0  0  0  0
    7.6061   -1.9441   -0.0011 H   0  0  0  0  0  0  0  0  0  0  0  0
    6.5259    2.2315    0.0006 H   0  0  0  0  0  0  0  0  0  0  0  0
  1 24  1  0  0  0  0
  2  6  1  0  0  0  0
  2 19  1  0  0  0  0
  3 19  2  0  0  0  0
  4  5  1  0  0  0  0
  4  8  1  0  0  0  0
  4  9  1  0  0  0  0
  5 14  2  0  0  0  0
  6 17  2  0  0  0  0
  7 18  1  0  0  0  0
  7 19  1  0  0  0  0
  7 41  1  0  0  0  0
  8 10  1  0  0  0  0
  8 11  1  0  0  0  0
  8 12  1  0  0  0  0
  9 13  2  0  0  0  0
  9 15  1  0  0  0  0
 10 25  1  0  0  0  0
 10 26  1  0  0  0  0
 10 27  1  0  0  0  0
 11 28  1  0  0  0  0
 11 29  1  0  0  0  0
 11 30  1  0  0  0  0
 12 31  1  0  0  0  0
 12 32  1  0  0  0  0
 12 33  1  0  0  0  0
 13 14  1  0  0  0  0
 13 17  1  0  0  0  0
 14 16  1  0  0  0  0
 15 34  1  0  0  0  0
 15 35  1  0  0  0  0
 15 36  1  0  0  0  0
 16 37  1  0  0  0  0
 16 38  1  0  0  0  0
 16 39  1  0  0  0  0
 17 40  1  0  0  0  0
 18 20  2  0  0  0  0
 18 21  1  0  0  0  0
 20 22  1  0  0  0  0
 20 42  1  0  0  0  0
 21 23  2  0  0  0  0
 21 43  1  0  0  0  0
 22 24  2  0  0  0  0
 22 44  1  0  0  0  0
 23 24  1  0  0  0  0
 23 45  1  0  0  0  0
M  END
> <PUBCHEM_COMPOUND_CID>
9583467

> <PUBCHEM_CONFORMER_RMSD>
0.8

> <PUBCHEM_CONFORMER_DIVERSEORDER>
1
38
71
25
58
72
3
7
22
35
33
54
34
57
18
56
69
48
80
75
50
77
28
26
73
19
52
66
74
49
13
60
27
36
14
16
61
39
63
30
31
76
86
5
67
29
59
85
2
21
55
4
70
62
51
15
37
12
9
83
43
42
23
79
47
78
24
46
17
45
41
65
81
11
20
40
64
6
68
84
10
53
44
82
8
32

> <PUBCHEM_MMFF94_PARTIAL_CHARGES>
27
1 -0.18
13 -0.09
14 0.11
15 0.18
16 0.18
17 0.48
18 0.12
19 0.78
2 -0.09
20 -0.15
21 -0.15
22 -0.15
23 -0.15
24 0.18
3 -0.57
4 0.31
40 0.06
41 0.37
42 0.15
43 0.15
44 0.15
45 0.15
5 -0.71
6 -0.51
7 -0.55
8 0.26
9 -0.33

> <PUBCHEM_EFFECTIVE_ROTOR_COUNT>
6

> <PUBCHEM_PHARMACOPHORE_FEATURES>
7
1 3 acceptor
1 5 acceptor
1 6 acceptor
1 7 donor
4 8 10 11 12 hydrophobe
5 4 5 9 13 14 rings
6 18 20 21 22 23 24 rings

> <PUBCHEM_HEAVY_ATOM_COUNT>
24

> <PUBCHEM_ATOM_DEF_STEREO_COUNT>
0

> <PUBCHEM_ATOM_UDEF_STEREO_COUNT>
0

> <PUBCHEM_BOND_DEF_STEREO_COUNT>
1

> <PUBCHEM_BOND_UDEF_STEREO_COUNT>
0

> <PUBCHEM_ISOTOPIC_ATOM_COUNT>
0

> <PUBCHEM_COMPONENT_COUNT>
1

> <PUBCHEM_CACTVS_TAUTO_COUNT>
2

> <PUBCHEM_CONFORMER_ID>
00923B6B00000001

> <PUBCHEM_MMFF94_ENERGY>
61.1186

> <PUBCHEM_FEATURE_SELFOVERLAP>
35.538

> <PUBCHEM_SHAPE_FINGERPRINT>
10299344 5 18060138743064231198
10411042 1 18050287266085347459
10595046 47 18410292472168920466
10968037 39 18410291415670282063
11315181 36 17847063285870368563
11524674 6 16343701054049612103
11719270 70 17988923341233428982
12091667 2 18342457041684336135
12166972 35 18412546526519429904
12516196 113 18060135440577389152
13073987 5 18337108961044209224
13533116 47 17096075897306637674
14251764 18 18411418410661825348
14251764 46 18410573985156732394
14341114 176 18409171008361894804
14933364 13 18411700980791977440
15183329 4 18411418397787629186
15419008 47 17846492630709514240
15461852 350 17489583489668276277
15716309 27 18272087188519029535
17093844 174 18040716962057032193
17844677 252 18411706461281257240
20281389 69 18334293154583629716
21150785 3 18060700602702412864
21267235 1 18335988636089319305
21315763 28 18410854335690749058
21792961 116 17846785070863642546
220451 1 16487251054662734086
22224240 67 15936410061579171970
23035841 295 18410573981030752195
23536379 177 18410293593086851938
23559900 14 18338229479183307593
23569943 247 17098047231667168826
3004659 81 18259982686652777416
335352 9 18411975859374369349
34797466 226 17632583760448830388
3545911 37 18411136930809911675
4073 2 18041284365485819178
4325135 7 18410575093828143652
54039377 194 18058720456019902535
59755656 215 18409730629679342654
59755656 520 16950281827958339963
67123 10 18411418427757480423
8209 1 18411981364978785742

> <PUBCHEM_SHAPE_MULTIPOLES>
464.12
26.02
1.78
0.74
24.28
0.25
0
-0.39
0
-1.14
0
-0.91
-0.12
0

> <PUBCHEM_SHAPE_SELFOVERLAP>
965.357

> <PUBCHEM_SHAPE_VOLUME>
268.1

> <PUBCHEM_COORDINATE_TYPE>
2
5
10

$$$$
