16014208
  -OEChem-01171810053D

 47 49  0     0  0  0  0  0  0999 V2000
    1.1938   -5.3846   -0.0361 Cl  0  0  0  0  0  0  0  0  0  0  0  0
   -2.8843   -0.8444   -0.5518 S   0  0  0  0  0  0  0  0  0  0  0  0
   -2.8947   -0.3776   -1.9375 O   0  0  0  0  0  0  0  0  0  0  0  0
   -4.1463   -1.2542    0.0651 O   0  0  0  0  0  0  0  0  0  0  0  0
    4.0512    4.0214   -0.7347 O   0  0  0  0  0  0  0  0  0  0  0  0
    2.7014   -2.6446   -0.6571 O   0  0  0  0  0  0  0  0  0  0  0  0
    2.0273   -1.5731    1.2704 N   0  0  0  0  0  0  0  0  0  0  0  0
   -0.4487   -1.7446   -0.1990 N   0  0  0  0  0  0  0  0  0  0  0  0
   -2.1978   -3.3732   -0.5084 N   0  0  0  0  0  0  0  0  0  0  0  0
   -2.2420    0.4831    0.4514 C   0  0  0  0  0  0  0  0  0  0  0  0
   -3.2060    1.6260    0.3673 C   0  0  0  0  0  0  0  0  0  0  0  0
   -1.7267   -2.1158   -0.4050 C   0  0  0  0  0  0  0  0  0  0  0  0
    3.3292   -1.0589    1.6105 C   0  0  0  0  0  0  0  0  0  0  0  0
   -3.0541    2.5870   -0.6280 C   0  0  0  0  0  0  0  0  0  0  0  0
   -4.2487    1.7201    1.2847 C   0  0  0  0  0  0  0  0  0  0  0  0
    3.5203    0.2839    0.9908 C   0  0  0  0  0  0  0  0  0  0  0  0
    0.4166   -2.7671   -0.0911 C   0  0  0  0  0  0  0  0  0  0  0  0
    1.8068   -2.3464    0.1335 C   0  0  0  0  0  0  0  0  0  0  0  0
   -3.9522    3.6513   -0.7066 C   0  0  0  0  0  0  0  0  0  0  0  0
   -5.1470    2.7844    1.2060 C   0  0  0  0  0  0  0  0  0  0  0  0
    3.1464    1.4332    1.6870 C   0  0  0  0  0  0  0  0  0  0  0  0
    4.0726    0.3903   -0.2857 C   0  0  0  0  0  0  0  0  0  0  0  0
    0.0747   -4.0940   -0.1763 C   0  0  0  0  0  0  0  0  0  0  0  0
   -4.9987    3.7499    0.2104 C   0  0  0  0  0  0  0  0  0  0  0  0
   -1.2661   -4.3418   -0.3888 C   0  0  0  0  0  0  0  0  0  0  0  0
    3.3245    2.6890    1.1067 C   0  0  0  0  0  0  0  0  0  0  0  0
    4.2508    1.6463   -0.8659 C   0  0  0  0  0  0  0  0  0  0  0  0
    3.8768    2.7955   -0.1698 C   0  0  0  0  0  0  0  0  0  0  0  0
    4.6211    4.0587   -2.0423 C   0  0  0  0  0  0  0  0  0  0  0  0
   -2.1327    0.1229    1.4792 H   0  0  0  0  0  0  0  0  0  0  0  0
   -1.2572    0.7730    0.0720 H   0  0  0  0  0  0  0  0  0  0  0  0
    4.1073   -1.7577    1.2822 H   0  0  0  0  0  0  0  0  0  0  0  0
    3.3898   -1.0004    2.7029 H   0  0  0  0  0  0  0  0  0  0  0  0
   -2.2425    2.5218   -1.3476 H   0  0  0  0  0  0  0  0  0  0  0  0
   -4.3739    0.9752    2.0658 H   0  0  0  0  0  0  0  0  0  0  0  0
    1.2437   -1.3401    1.8741 H   0  0  0  0  0  0  0  0  0  0  0  0
   -3.8368    4.4033   -1.4816 H   0  0  0  0  0  0  0  0  0  0  0  0
   -5.9616    2.8614    1.9202 H   0  0  0  0  0  0  0  0  0  0  0  0
    2.7132    1.3637    2.6813 H   0  0  0  0  0  0  0  0  0  0  0  0
    4.3751   -0.4951   -0.8378 H   0  0  0  0  0  0  0  0  0  0  0  0
   -5.6980    4.5787    0.1491 H   0  0  0  0  0  0  0  0  0  0  0  0
   -1.6526   -5.3529   -0.4731 H   0  0  0  0  0  0  0  0  0  0  0  0
    3.0308    3.5807    1.6537 H   0  0  0  0  0  0  0  0  0  0  0  0
    4.6866    1.6570   -1.8591 H   0  0  0  0  0  0  0  0  0  0  0  0
    3.9778    3.5609   -2.7759 H   0  0  0  0  0  0  0  0  0  0  0  0
    5.6417    3.6613   -2.0477 H   0  0  0  0  0  0  0  0  0  0  0  0
    4.6864    5.1113   -2.3366 H   0  0  0  0  0  0  0  0  0  0  0  0
  1 23  1  0  0  0  0
  2  3  2  0  0  0  0
  2  4  2  0  0  0  0
  2 10  1  0  0  0  0
  2 12  1  0  0  0  0
  5 28  1  0  0  0  0
  5 29  1  0  0  0  0
  6 18  2  0  0  0  0
  7 13  1  0  0  0  0
  7 18  1  0  0  0  0
  7 36  1  0  0  0  0
  8 12  1  0  0  0  0
  8 17  2  0  0  0  0
  9 12  2  0  0  0  0
  9 25  1  0  0  0  0
 10 11  1  0  0  0  0
 10 30  1  0  0  0  0
 10 31  1  0  0  0  0
 11 14  2  0  0  0  0
 11 15  1  0  0  0  0
 13 16  1  0  0  0  0
 13 32  1  0  0  0  0
 13 33  1  0  0  0  0
 14 19  1  0  0  0  0
 14 34  1  0  0  0  0
 15 20  2  0  0  0  0
 15 35  1  0  0  0  0
 16 21  2  0  0  0  0
 16 22  1  0  0  0  0
 17 18  1  0  0  0  0
 17 23  1  0  0  0  0
 19 24  2  0  0  0  0
 19 37  1  0  0  0  0
 20 24  1  0  0  0  0
 20 38  1  0  0  0  0
 21 26  1  0  0  0  0
 21 39  1  0  0  0  0
 22 27  2  0  0  0  0
 22 40  1  0  0  0  0
 23 25  2  0  0  0  0
 24 41  1  0  0  0  0
 25 42  1  0  0  0  0
 26 28  2  0  0  0  0
 26 43  1  0  0  0  0
 27 28  1  0  0  0  0
 27 44  1  0  0  0  0
 29 45  1  0  0  0  0
 29 46  1  0  0  0  0
 29 47  1  0  0  0  0
M  END
> <PUBCHEM_COMPOUND_CID>
16014208

> <PUBCHEM_CONFORMER_RMSD>
1

> <PUBCHEM_CONFORMER_DIVERSEORDER>
1
145
117
43
94
106
103
12
131
41
29
70
68
139
126
77
53
127
73
60
146
27
118
86
33
85
124
92
104
62
137
105
45
15
119
112
140
80
46
138
47
17
108
52
125
142
123
20
34
98
99
57
38
113
89
7
24
69
135
88
21
28
48
134
81
50
74
19
58
102
59
109
91
18
54
72
93
22
64
55
96
61
116
40
101
129
95
111
26
76
31
128
30
10
82
132
79
67
6
23
144
120
83
11
115
97
44
87
32
65
2
136
51
90
49
37
100
107
56
36
84
141
35
13
122
25
66
130
16
143
8
75
63
78
5
133
14
71
3
110
121
114
9
39
4
42

> <PUBCHEM_MMFF94_PARTIAL_CHARGES>
40
1 -0.18
10 0.25
11 -0.14
12 0.61
13 0.44
14 -0.15
15 -0.15
16 -0.14
17 0.4
18 0.54
19 -0.15
2 1.2
20 -0.15
21 -0.15
22 -0.15
23 0.18
24 -0.15
25 0.16
26 -0.15
27 -0.15
28 0.08
29 0.28
3 -0.65
34 0.15
35 0.15
36 0.37
37 0.15
38 0.15
39 0.15
4 -0.65
40 0.15
41 0.15
42 0.15
43 0.15
44 0.15
5 -0.36
6 -0.57
7 -0.73
8 -0.62
9 -0.62

> <PUBCHEM_EFFECTIVE_ROTOR_COUNT>
8

> <PUBCHEM_PHARMACOPHORE_FEATURES>
10
1 3 acceptor
1 4 acceptor
1 5 acceptor
1 6 acceptor
1 7 donor
1 8 acceptor
3 8 9 12 cation
6 11 14 15 19 20 24 rings
6 16 21 22 26 27 28 rings
6 8 9 12 17 23 25 rings

> <PUBCHEM_HEAVY_ATOM_COUNT>
29

> <PUBCHEM_ATOM_DEF_STEREO_COUNT>
0

> <PUBCHEM_ATOM_UDEF_STEREO_COUNT>
0

> <PUBCHEM_BOND_DEF_STEREO_COUNT>
0

> <PUBCHEM_BOND_UDEF_STEREO_COUNT>
0

> <PUBCHEM_ISOTOPIC_ATOM_COUNT>
0

> <PUBCHEM_COMPONENT_COUNT>
1

> <PUBCHEM_CACTVS_TAUTO_COUNT>
2

> <PUBCHEM_CONFORMER_ID>
00F45B8000000001

> <PUBCHEM_MMFF94_ENERGY>
77.45

> <PUBCHEM_FEATURE_SELFOVERLAP>
50.766

> <PUBCHEM_SHAPE_FINGERPRINT>
10498660 4 17979063109648738130
10670039 82 18049725419442162164
10937287 8 18411418422966491544
11059048 146 18411703209616753796
11059845 2 18196061513864111104
11211813 163 18192167086802768140
11273773 38 18337956671593005292
12107183 9 18335966620409142762
12173636 292 18269259317637759870
12788726 201 17831293174870621810
12925494 130 17475230203056348417
12978246 48 18264198278605348152
13398642 44 18337963307175442729
13617811 41 18122607599982681281
13911987 19 18192977435087489431
14117953 113 18051405163533798100
14790565 3 18411986858083844745
14840074 17 18193851555278587339
14950920 106 17458337537717026379
150020 26 17905034863998086280
15082195 135 18124292949454837199
151778 21 18337954480574407936
15444296 121 18260816091462103178
15961568 22 16612220786077631512
16067690 210 17473561612213428780
161222 10 17972902498743679020
16988056 13 17834394519094240380
16992727 255 18263382360449222804
21458453 9 18190769508538319241
21860390 5 17770211657257128646
22907989 373 18051396654892576055
24180151 248 18054812816409853926
245318 6 18260840301496222973
5048184 11 18411982472511227264
53794403 172 18338240353840190381
5895379 119 18121490526333982504
6034566 193 18335423495471059869
6201320 215 17620753221593670040
6371009 1 18195499623781024258
6608658 132 17839452637464748711
6700243 42 16973684061483074518
7808743 9 18266745873201538296
9980921 221 17757856772542674268

> <PUBCHEM_SHAPE_MULTIPOLES>
564.11
11.08
7.94
1.42
5.19
4.35
0
-15.94
0.56
-2.74
-2.26
-0.83
-1.08
-2.32

> <PUBCHEM_SHAPE_SELFOVERLAP>
1192.752

> <PUBCHEM_SHAPE_VOLUME>
317.7

> <PUBCHEM_COORDINATE_TYPE>
2
5
10

$$$$
