3161446
  -OEChem-01171810043D

 44 46  0     0  0  0  0  0  0999 V2000
   -1.8217    2.8709    0.1572 Cl  0  0  0  0  0  0  0  0  0  0  0  0
   -7.9994   -0.2469   -1.2790 O   0  0  0  0  0  0  0  0  0  0  0  0
    4.8999    0.1495   -0.0102 O   0  0  0  0  0  0  0  0  0  0  0  0
    2.5841   -2.4874   -0.1335 O   0  0  0  0  0  0  0  0  0  0  0  0
    8.1786    1.3560    0.0745 O   0  5  0  0  0  0  0  0  0  0  0  0
    6.2370    2.3884    0.1186 O   0  0  0  0  0  0  0  0  0  0  0  0
   -3.3487    0.2241    0.0931 N   0  0  0  0  0  0  0  0  0  0  0  0
   -6.1703    0.2436    0.0638 N   0  0  0  0  0  0  0  0  0  0  0  0
    2.2615   -0.1814   -0.0424 N   0  0  0  0  0  0  0  0  0  0  0  0
    6.9134    1.3199    0.0648 N   0  3  0  0  0  0  0  0  0  0  0  0
   -4.0844   -0.4128    1.1941 C   0  0  0  0  0  0  0  0  0  0  0  0
   -4.0590    0.3094   -1.1933 C   0  0  0  0  0  0  0  0  0  0  0  0
   -5.4678    0.2190    1.3480 C   0  0  0  0  0  0  0  0  0  0  0  0
   -5.4395    0.9319   -0.9972 C   0  0  0  0  0  0  0  0  0  0  0  0
   -1.9515    0.1475    0.0600 C   0  0  0  0  0  0  0  0  0  0  0  0
   -7.4273   -0.3005   -0.1874 C   0  0  0  0  0  0  0  0  0  0  0  0
   -1.1192    1.2944    0.0841 C   0  0  0  0  0  0  0  0  0  0  0  0
   -1.3093   -1.1126   -0.0002 C   0  0  0  0  0  0  0  0  0  0  0  0
   -8.1040   -0.9942    0.9676 C   0  0  0  0  0  0  0  0  0  0  0  0
    0.2710    1.1858    0.0502 C   0  0  0  0  0  0  0  0  0  0  0  0
    0.0809   -1.2213   -0.0341 C   0  0  0  0  0  0  0  0  0  0  0  0
    0.8710   -0.0721   -0.0089 C   0  0  0  0  0  0  0  0  0  0  0  0
    3.0481   -1.3496   -0.1018 C   0  0  0  0  0  0  0  0  0  0  0  0
    4.5037   -1.1247   -0.0817 C   0  0  0  0  0  0  0  0  0  0  0  0
    5.5125   -2.0100   -0.1245 C   0  0  0  0  0  0  0  0  0  0  0  0
    6.6834   -1.2166   -0.0753 C   0  0  0  0  0  0  0  0  0  0  0  0
    6.2573    0.0895   -0.0064 C   0  0  0  0  0  0  0  0  0  0  0  0
   -4.1869   -1.4860    0.9904 H   0  0  0  0  0  0  0  0  0  0  0  0
   -3.5366   -0.3004    2.1374 H   0  0  0  0  0  0  0  0  0  0  0  0
   -3.4956    0.9162   -1.9123 H   0  0  0  0  0  0  0  0  0  0  0  0
   -4.1573   -0.6988   -1.6149 H   0  0  0  0  0  0  0  0  0  0  0  0
   -5.3728    1.2604    1.6793 H   0  0  0  0  0  0  0  0  0  0  0  0
   -6.0296   -0.3147    2.1165 H   0  0  0  0  0  0  0  0  0  0  0  0
   -5.9962    0.9069   -1.9392 H   0  0  0  0  0  0  0  0  0  0  0  0
   -5.3456    1.9826   -0.6970 H   0  0  0  0  0  0  0  0  0  0  0  0
   -1.9056   -2.0228   -0.0262 H   0  0  0  0  0  0  0  0  0  0  0  0
   -8.2737   -0.2887    1.7854 H   0  0  0  0  0  0  0  0  0  0  0  0
   -9.0752   -1.3797    0.6424 H   0  0  0  0  0  0  0  0  0  0  0  0
   -7.4989   -1.8385    1.3084 H   0  0  0  0  0  0  0  0  0  0  0  0
    0.8894    2.0809    0.0698 H   0  0  0  0  0  0  0  0  0  0  0  0
    0.4620   -2.2307   -0.0809 H   0  0  0  0  0  0  0  0  0  0  0  0
    2.7664    0.7023   -0.0148 H   0  0  0  0  0  0  0  0  0  0  0  0
    5.4515   -3.0871   -0.1834 H   0  0  0  0  0  0  0  0  0  0  0  0
    7.7080   -1.5608   -0.0885 H   0  0  0  0  0  0  0  0  0  0  0  0
  1 17  1  0  0  0  0
  2 16  2  0  0  0  0
  3 24  1  0  0  0  0
  3 27  1  0  0  0  0
  4 23  2  0  0  0  0
  5 10  1  0  0  0  0
  6 10  2  0  0  0  0
  7 11  1  0  0  0  0
  7 12  1  0  0  0  0
  7 15  1  0  0  0  0
  8 13  1  0  0  0  0
  8 14  1  0  0  0  0
  8 16  1  0  0  0  0
  9 22  1  0  0  0  0
  9 23  1  0  0  0  0
  9 42  1  0  0  0  0
 10 27  1  0  0  0  0
 11 13  1  0  0  0  0
 11 28  1  0  0  0  0
 11 29  1  0  0  0  0
 12 14  1  0  0  0  0
 12 30  1  0  0  0  0
 12 31  1  0  0  0  0
 13 32  1  0  0  0  0
 13 33  1  0  0  0  0
 14 34  1  0  0  0  0
 14 35  1  0  0  0  0
 15 17  2  0  0  0  0
 15 18  1  0  0  0  0
 16 19  1  0  0  0  0
 17 20  1  0  0  0  0
 18 21  2  0  0  0  0
 18 36  1  0  0  0  0
 19 37  1  0  0  0  0
 19 38  1  0  0  0  0
 19 39  1  0  0  0  0
 20 22  2  0  0  0  0
 20 40  1  0  0  0  0
 21 22  1  0  0  0  0
 21 41  1  0  0  0  0
 23 24  1  0  0  0  0
 24 25  2  0  0  0  0
 25 26  1  0  0  0  0
 25 43  1  0  0  0  0
 26 27  2  0  0  0  0
 26 44  1  0  0  0  0
M  CHG  2   5  -1  10   1
M  END
> <PUBCHEM_COMPOUND_CID>
3161446

> <PUBCHEM_CONFORMER_RMSD>
0.8

> <PUBCHEM_CONFORMER_DIVERSEORDER>
1
18
15
35
41
34
39
25
32
2
38
37
23
27
29
33
46
21
45
42
44
40
16
9
26
36
43
7
17
19
30
24
5
47
3
22
8
6
14
20
28
10
11
12
4
31
13

> <PUBCHEM_MMFF94_PARTIAL_CHARGES>
33
1 -0.18
10 0.96
11 0.37
12 0.37
13 0.3
14 0.3
15 0.1
16 0.57
17 0.18
18 -0.15
19 0.06
2 -0.57
20 -0.15
21 -0.15
22 0.12
23 0.71
24 0.05
25 -0.15
26 -0.15
27 0.22
3 -0.28
36 0.15
4 -0.57
40 0.15
41 0.15
42 0.37
43 0.15
44 0.15
5 -0.52
6 -0.52
7 -0.84
8 -0.66
9 -0.55

> <PUBCHEM_EFFECTIVE_ROTOR_COUNT>
7.2

> <PUBCHEM_PHARMACOPHORE_FEATURES>
11
1 2 acceptor
1 3 acceptor
1 4 acceptor
1 5 acceptor
1 5 anion
1 6 acceptor
1 7 cation
1 9 donor
5 3 24 25 26 27 rings
6 15 17 18 20 21 22 rings
6 7 8 11 12 13 14 rings

> <PUBCHEM_HEAVY_ATOM_COUNT>
27

> <PUBCHEM_ATOM_DEF_STEREO_COUNT>
0

> <PUBCHEM_ATOM_UDEF_STEREO_COUNT>
0

> <PUBCHEM_BOND_DEF_STEREO_COUNT>
0

> <PUBCHEM_BOND_UDEF_STEREO_COUNT>
0

> <PUBCHEM_ISOTOPIC_ATOM_COUNT>
0

> <PUBCHEM_COMPONENT_COUNT>
1

> <PUBCHEM_CACTVS_TAUTO_COUNT>
2

> <PUBCHEM_CONFORMER_ID>
00303D6600000001

> <PUBCHEM_MMFF94_ENERGY>
80.5413

> <PUBCHEM_FEATURE_SELFOVERLAP>
55.913

> <PUBCHEM_SHAPE_FINGERPRINT>
10 15 17968095343986183834
10299344 5 17632577145376157711
10638233 991 17704071811093964800
10835480 77 18261386698503104669
11101153 10 18413110545666565241
11315181 36 14996295708308110879
11638347 137 17167856444906359298
12236239 1 17703511008929892707
12516196 113 18341612598846432273
13685833 64 18410577275813948155
13899415 154 17275384304850624010
13914758 101 14056715725755954959
14170010 4 18333450958773166676
14251764 18 17846499236078284571
14251764 46 17603303752140514071
1454969 45 18272651246727020127
14840074 17 18060413603685675245
14849402 71 18130792304025520481
14856354 85 16128651968809238581
15131766 46 15794293893101705486
15419008 47 17603579733664975124
15461852 350 15984812724404372885
15849732 13 18260267451695522687
16120349 18 18411979195414107549
18006028 8 18412544297741996265
18335252 98 18408888442558761354
20157964 124 18411699873165428654
20554085 129 16588016922787029632
21049683 271 18413107290060346809
21150785 3 18131630097451657071
21236236 1 18269557144008601737
21267235 1 18341054029611972854
21315763 28 18339360765079184010
21521721 280 18413392037827867842
21792934 111 18338786837247571728
220451 1 16487251050067183823
22224240 67 18186521007618274778
23522609 53 17632035090581433856
23559900 14 18338510940916628128
249057 25 13912612615049404527
249057 3 16081094796641584463
283562 15 18265053531738662841
3009799 131 17749108881240939645
34797466 226 17846503625967534092
4073 2 18260270784559028474
4325135 7 18273495676516446428
4340502 62 17167864145408629266
5104073 3 18190461567830575584
54039377 194 17988353897922498295
59682541 35 18408324418752428338
5969126 39 18339637846531665661
6691757 9 16128658566665060383

> <PUBCHEM_SHAPE_MULTIPOLES>
508.25
24.43
2.08
0.91
1.86
0.79
0.01
-0.53
-0.04
2.78
0.07
-1.76
-0.02
0.74

> <PUBCHEM_SHAPE_SELFOVERLAP>
1077.695

> <PUBCHEM_SHAPE_VOLUME>
284.5

> <PUBCHEM_COORDINATE_TYPE>
2
5
10

$$$$
