46903213
  -OEChem-01171810173D

 84 88  0     1  0  0  0  0  0999 V2000
    4.2011    0.6443   -0.1776 S   0  0  0  0  0  0  0  0  0  0  0  0
   -1.9914    1.0574   -0.1657 O   0  0  0  0  0  0  0  0  0  0  0  0
   -2.3166   -1.4460   -1.3178 O   0  0  0  0  0  0  0  0  0  0  0  0
    1.6739    3.3898   -0.5411 O   0  0  0  0  0  0  0  0  0  0  0  0
    0.9771    0.2622   -4.7974 O   0  0  0  0  0  0  0  0  0  0  0  0
   -2.0144    1.1592    2.1287 O   0  0  0  0  0  0  0  0  0  0  0  0
   -1.5255   -3.1656   -0.0173 O   0  0  0  0  0  0  0  0  0  0  0  0
    5.0661    1.7555    0.1738 O   0  0  0  0  0  0  0  0  0  0  0  0
    3.9311    0.3647   -1.5760 O   0  0  0  0  0  0  0  0  0  0  0  0
    0.6925    1.4854   -1.4325 N   0  0  0  0  0  0  0  0  0  0  0  0
    0.4411    0.7083   -2.5852 N   0  0  0  0  0  0  0  0  0  0  0  0
    2.7112    0.7876    0.6920 N   0  0  1  0  0  0  0  0  0  0  0  0
   -3.4662    2.4244    0.8347 N   0  0  0  0  0  0  0  0  0  0  0  0
   -3.7313   -3.0992   -0.7335 N   0  0  0  0  0  0  0  0  0  0  0  0
    0.4083    0.8453   -0.1341 C   0  0  1  0  0  0  0  0  0  0  0  0
   -0.9295    0.1006   -0.1074 C   0  0  2  0  0  0  0  0  0  0  0  0
   -1.0301   -0.8391   -1.2977 C   0  0  2  0  0  0  0  0  0  0  0  0
   -0.7988   -0.0599   -2.5792 C   0  0  0  0  0  0  0  0  0  0  0  0
    1.5794   -0.0554    0.2763 C   0  0  0  0  0  0  0  0  0  0  0  0
   -4.1668    3.0946    1.9024 C   0  0  0  0  0  0  0  0  0  0  0  0
   -4.1866   -4.3223   -0.1201 C   0  0  0  0  0  0  0  0  0  0  0  0
   -5.4246    2.3387    2.3110 C   0  0  0  0  0  0  0  0  0  0  0  0
   -4.7136    4.4474    1.4623 C   0  0  0  0  0  0  0  0  0  0  0  0
   -4.7830   -4.0780    1.2610 C   0  0  0  0  0  0  0  0  0  0  0  0
   -5.3509   -4.9364   -0.8867 C   0  0  0  0  0  0  0  0  0  0  0  0
   -6.4747    2.7590    1.2864 C   0  0  0  0  0  0  0  0  0  0  0  0
   -6.0400    4.1319    0.7728 C   0  0  0  0  0  0  0  0  0  0  0  0
   -6.2279   -3.6568    0.9984 C   0  0  0  0  0  0  0  0  0  0  0  0
   -6.5780   -4.1718   -0.3980 C   0  0  0  0  0  0  0  0  0  0  0  0
    1.4574    2.6388   -1.4922 C   0  0  0  0  0  0  0  0  0  0  0  0
    1.1197    0.9270   -3.7711 C   0  0  0  0  0  0  0  0  0  0  0  0
   -2.4504    1.5144    1.0385 C   0  0  0  0  0  0  0  0  0  0  0  0
   -2.4405   -2.6252   -0.6300 C   0  0  0  0  0  0  0  0  0  0  0  0
    2.1214    2.9243   -2.7766 C   0  0  0  0  0  0  0  0  0  0  0  0
    2.0154    2.0964   -3.8119 C   0  0  0  0  0  0  0  0  0  0  0  0
    2.7997    0.9329    2.1724 C   0  0  0  0  0  0  0  0  0  0  0  0
    4.9134   -0.8184    0.5223 C   0  0  0  0  0  0  0  0  0  0  0  0
    2.9227    2.3429    2.5457 C   0  0  0  0  0  0  0  0  0  0  0  0
    6.0417   -0.7230    1.3369 C   0  0  0  0  0  0  0  0  0  0  0  0
    4.3481   -2.0655    0.2569 C   0  0  0  0  0  0  0  0  0  0  0  0
    6.6046   -1.8750    1.8861 C   0  0  0  0  0  0  0  0  0  0  0  0
    4.9110   -3.2175    0.8059 C   0  0  0  0  0  0  0  0  0  0  0  0
    6.0393   -3.1223    1.6207 C   0  0  0  0  0  0  0  0  0  0  0  0
    3.0234    3.4984    2.8558 C   0  0  0  0  0  0  0  0  0  0  0  0
    6.6413   -4.3540    2.2079 C   0  0  0  0  0  0  0  0  0  0  0  0
    0.3382    1.6602    0.5991 H   0  0  0  0  0  0  0  0  0  0  0  0
   -1.0261   -0.4955    0.8087 H   0  0  0  0  0  0  0  0  0  0  0  0
   -0.2469   -1.6062   -1.2382 H   0  0  0  0  0  0  0  0  0  0  0  0
   -0.8103   -0.7512   -3.4307 H   0  0  0  0  0  0  0  0  0  0  0  0
   -1.6213    0.6414   -2.7726 H   0  0  0  0  0  0  0  0  0  0  0  0
    1.8550   -0.6938   -0.5676 H   0  0  0  0  0  0  0  0  0  0  0  0
    1.2916   -0.7401    1.0824 H   0  0  0  0  0  0  0  0  0  0  0  0
   -3.4821    3.2018    2.7506 H   0  0  0  0  0  0  0  0  0  0  0  0
   -3.3405   -5.0155   -0.0629 H   0  0  0  0  0  0  0  0  0  0  0  0
   -5.7442    2.6652    3.3084 H   0  0  0  0  0  0  0  0  0  0  0  0
   -5.2931    1.2523    2.3386 H   0  0  0  0  0  0  0  0  0  0  0  0
   -4.0326    4.9993    0.8065 H   0  0  0  0  0  0  0  0  0  0  0  0
   -4.9086    5.0700    2.3443 H   0  0  0  0  0  0  0  0  0  0  0  0
   -5.4547   -5.9945   -0.6162 H   0  0  0  0  0  0  0  0  0  0  0  0
   -5.2371   -4.8759   -1.9737 H   0  0  0  0  0  0  0  0  0  0  0  0
   -4.2394   -3.3288    1.8455 H   0  0  0  0  0  0  0  0  0  0  0  0
   -4.7823   -5.0144    1.8327 H   0  0  0  0  0  0  0  0  0  0  0  0
   -6.7889    4.9009    0.9887 H   0  0  0  0  0  0  0  0  0  0  0  0
   -5.9099    4.0990   -0.3149 H   0  0  0  0  0  0  0  0  0  0  0  0
   -6.5017    2.0446    0.4553 H   0  0  0  0  0  0  0  0  0  0  0  0
   -7.4763    2.7860    1.7272 H   0  0  0  0  0  0  0  0  0  0  0  0
   -6.7903   -3.3262   -1.0626 H   0  0  0  0  0  0  0  0  0  0  0  0
   -6.9016   -4.0617    1.7606 H   0  0  0  0  0  0  0  0  0  0  0  0
   -7.4679   -4.8091   -0.3865 H   0  0  0  0  0  0  0  0  0  0  0  0
   -6.3206   -2.5650    1.0266 H   0  0  0  0  0  0  0  0  0  0  0  0
   -3.7565    2.5992   -0.1229 H   0  0  0  0  0  0  0  0  0  0  0  0
   -4.4019   -2.5293   -1.2408 H   0  0  0  0  0  0  0  0  0  0  0  0
    2.7549    3.8027   -2.8319 H   0  0  0  0  0  0  0  0  0  0  0  0
    2.5398    2.2984   -4.7393 H   0  0  0  0  0  0  0  0  0  0  0  0
    3.6339    0.3545    2.5773 H   0  0  0  0  0  0  0  0  0  0  0  0
    1.9011    0.5329    2.6570 H   0  0  0  0  0  0  0  0  0  0  0  0
    6.5004    0.2350    1.5625 H   0  0  0  0  0  0  0  0  0  0  0  0
    3.4827   -2.1698   -0.3887 H   0  0  0  0  0  0  0  0  0  0  0  0
    7.4821   -1.7878    2.5213 H   0  0  0  0  0  0  0  0  0  0  0  0
    4.4630   -4.1838    0.5899 H   0  0  0  0  0  0  0  0  0  0  0  0
    3.1125    4.5236    3.1297 H   0  0  0  0  0  0  0  0  0  0  0  0
    6.4878   -5.2193    1.5541 H   0  0  0  0  0  0  0  0  0  0  0  0
    6.1889   -4.5655    3.1818 H   0  0  0  0  0  0  0  0  0  0  0  0
    7.7227   -4.2408    2.3403 H   0  0  0  0  0  0  0  0  0  0  0  0
  1  8  2  0  0  0  0
  1  9  2  0  0  0  0
  1 12  1  0  0  0  0
  1 37  1  0  0  0  0
  2 16  1  0  0  0  0
  2 32  1  0  0  0  0
  3 17  1  0  0  0  0
  3 33  1  0  0  0  0
  4 30  2  0  0  0  0
  5 31  2  0  0  0  0
  6 32  2  0  0  0  0
  7 33  2  0  0  0  0
 10 11  1  0  0  0  0
 10 15  1  0  0  0  0
 10 30  1  0  0  0  0
 11 18  1  0  0  0  0
 11 31  1  0  0  0  0
 12 19  1  0  0  0  0
 12 36  1  0  0  0  0
 13 20  1  0  0  0  0
 13 32  1  0  0  0  0
 13 71  1  0  0  0  0
 14 21  1  0  0  0  0
 14 33  1  0  0  0  0
 14 72  1  0  0  0  0
 15 16  1  0  0  0  0
 15 19  1  0  0  0  0
 15 46  1  0  0  0  0
 16 17  1  0  0  0  0
 16 47  1  0  0  0  0
 17 18  1  0  0  0  0
 17 48  1  0  0  0  0
 18 49  1  0  0  0  0
 18 50  1  0  0  0  0
 19 51  1  0  0  0  0
 19 52  1  0  0  0  0
 20 22  1  0  0  0  0
 20 23  1  0  0  0  0
 20 53  1  0  0  0  0
 21 24  1  0  0  0  0
 21 25  1  0  0  0  0
 21 54  1  0  0  0  0
 22 26  1  0  0  0  0
 22 55  1  0  0  0  0
 22 56  1  0  0  0  0
 23 27  1  0  0  0  0
 23 57  1  0  0  0  0
 23 58  1  0  0  0  0
 24 28  1  0  0  0  0
 24 61  1  0  0  0  0
 24 62  1  0  0  0  0
 25 29  1  0  0  0  0
 25 59  1  0  0  0  0
 25 60  1  0  0  0  0
 26 27  1  0  0  0  0
 26 65  1  0  0  0  0
 26 66  1  0  0  0  0
 27 63  1  0  0  0  0
 27 64  1  0  0  0  0
 28 29  1  0  0  0  0
 28 68  1  0  0  0  0
 28 70  1  0  0  0  0
 29 67  1  0  0  0  0
 29 69  1  0  0  0  0
 30 34  1  0  0  0  0
 31 35  1  0  0  0  0
 34 35  2  0  0  0  0
 34 73  1  0  0  0  0
 35 74  1  0  0  0  0
 36 38  1  0  0  0  0
 36 75  1  0  0  0  0
 36 76  1  0  0  0  0
 37 39  2  0  0  0  0
 37 40  1  0  0  0  0
 38 44  3  0  0  0  0
 39 41  1  0  0  0  0
 39 77  1  0  0  0  0
 40 42  2  0  0  0  0
 40 78  1  0  0  0  0
 41 43  2  0  0  0  0
 41 79  1  0  0  0  0
 42 43  1  0  0  0  0
 42 80  1  0  0  0  0
 43 45  1  0  0  0  0
 44 81  1  0  0  0  0
 45 82  1  0  0  0  0
 45 83  1  0  0  0  0
 45 84  1  0  0  0  0
M  END
> <PUBCHEM_COMPOUND_CID>
46903213

> <PUBCHEM_CONFORMER_RMSD>
1.4

> <PUBCHEM_CONFORMER_DIVERSEORDER>
1
8
46
30
37
67
21
49
24
65
36
51
15
41
63
53
25
66
39
62
57
50
47
44
69
18
27
48
56
29
2
14
38
40
35
31
34
5
70
11
32
55
43
61
13
3
19
6
10
64
68
16
22
59
58
20
28
45
42
52
54
26
60
4
23
12
17
9
33
7

> <PUBCHEM_MMFF94_PARTIAL_CHARGES>
46
1 1.45
10 -0.36
11 -0.36
12 -0.85
13 -0.73
14 -0.73
15 0.3
16 0.28
17 0.28
18 0.3
19 0.36
2 -0.43
20 0.3
21 0.3
3 -0.43
30 0.62
31 0.62
32 0.78
33 0.78
34 -0.14
35 -0.14
36 0.56
37 -0.01
38 -0.2
39 -0.15
4 -0.57
40 -0.15
41 -0.15
42 -0.15
43 -0.14
44 -0.18
45 0.14
5 -0.57
6 -0.57
7 -0.57
71 0.37
72 0.37
73 0.15
74 0.15
77 0.15
78 0.15
79 0.15
8 -0.65
80 0.15
81 0.18
9 -0.65

> <PUBCHEM_EFFECTIVE_ROTOR_COUNT>
15.8

> <PUBCHEM_PHARMACOPHORE_FEATURES>
14
1 13 donor
1 14 donor
1 4 acceptor
1 44 hydrophobe
1 5 acceptor
1 6 acceptor
1 7 acceptor
1 8 acceptor
1 9 acceptor
5 20 22 23 26 27 rings
5 21 24 25 28 29 rings
6 10 11 15 16 17 18 rings
6 10 11 30 31 34 35 rings
6 37 39 40 41 42 43 rings

> <PUBCHEM_HEAVY_ATOM_COUNT>
45

> <PUBCHEM_ATOM_DEF_STEREO_COUNT>
3

> <PUBCHEM_ATOM_UDEF_STEREO_COUNT>
0

> <PUBCHEM_BOND_DEF_STEREO_COUNT>
0

> <PUBCHEM_BOND_UDEF_STEREO_COUNT>
0

> <PUBCHEM_ISOTOPIC_ATOM_COUNT>
0

> <PUBCHEM_COMPONENT_COUNT>
1

> <PUBCHEM_CACTVS_TAUTO_COUNT>
4

> <PUBCHEM_CONFORMER_ID>
02CBAFAD00000001

> <PUBCHEM_MMFF94_ENERGY>
85.4546

> <PUBCHEM_FEATURE_SELFOVERLAP>
71.095

> <PUBCHEM_SHAPE_FINGERPRINT>
11059845 2 18339364050797568537
11377469 6 18115292501377501807
11763715 3 18265905824542589209
12633046 712 18341315739766443624
12677640 9 18343015554593630379
12788726 201 17978813499345373151
14675020 138 17982469104999356345
15219462 58 18130213964919031428
15911013 46 18337940277392016506
17974551 9 18201428190915862208
19301679 30 18197772404953478411
22223350 30 18341892991491917505
25223398 141 18412550925071869161
3886686 26 18269837532004781891
44880168 125 17970619697892493506
70251023 43 17677606630626921190

> <PUBCHEM_SHAPE_MULTIPOLES>
858.07
16.69
7.39
3.7
2.78
5.62
-3.93
12.86
13.06
11.84
2.92
-2.72
-3.09
-6.43

> <PUBCHEM_SHAPE_SELFOVERLAP>
1798.555

> <PUBCHEM_SHAPE_VOLUME>
482.4

> <PUBCHEM_COORDINATE_TYPE>
2
5
10

$$$$
