1189521
  -OEChem-01171809433D

 41 42  0     1  0  0  0  0  0999 V2000
    5.5297    1.8450   -0.1497 S   0  0  0  0  0  0  0  0  0  0  0  0
    0.6192   -2.1179   -0.7320 S   0  0  1  0  0  0  0  0  0  0  0  0
   -2.9848   -0.5151   -0.2672 O   0  0  0  0  0  0  0  0  0  0  0  0
    6.3067    1.4472    1.0156 O   0  0  0  0  0  0  0  0  0  0  0  0
    6.1815    1.9632   -1.4469 O   0  0  0  0  0  0  0  0  0  0  0  0
    0.5669   -2.4648   -2.1890 O   0  0  0  0  0  0  0  0  0  0  0  0
   -2.3205   -2.6735   -0.7310 O   0  0  0  0  0  0  0  0  0  0  0  0
    2.7434   -1.2417    2.9746 O   0  5  0  0  0  0  0  0  0  0  0  0
    1.1929   -2.2521    1.7939 O   0  0  0  0  0  0  0  0  0  0  0  0
    2.1626   -1.4639    1.8867 N   0  3  0  0  0  0  0  0  0  0  0  0
    4.1773    0.7502   -0.2938 C   0  0  0  0  0  0  0  0  0  0  0  0
    2.0192   -0.9986   -0.5260 C   0  0  0  0  0  0  0  0  0  0  0  0
    2.6203   -0.7973    0.7152 C   0  0  0  0  0  0  0  0  0  0  0  0
    3.7002    0.0779    0.8313 C   0  0  0  0  0  0  0  0  0  0  0  0
    3.5744    0.5473   -1.5351 C   0  0  0  0  0  0  0  0  0  0  0  0
    2.4944   -0.3278   -1.6515 C   0  0  0  0  0  0  0  0  0  0  0  0
   -0.6884   -0.8960   -0.4265 C   0  0  0  0  0  0  0  0  0  0  0  0
    4.7857    3.4218    0.2017 C   0  0  0  0  0  0  0  0  0  0  0  0
   -2.0653   -1.4997   -0.5006 C   0  0  0  0  0  0  0  0  0  0  0  0
   -4.3546   -0.9288   -0.3032 C   0  0  0  0  0  0  0  0  0  0  0  0
   -5.2319    0.2575   -0.0302 C   0  0  0  0  0  0  0  0  0  0  0  0
   -5.5931    0.5603    1.2780 C   0  0  0  0  0  0  0  0  0  0  0  0
   -5.6763    1.0430   -1.0878 C   0  0  0  0  0  0  0  0  0  0  0  0
   -6.4090    1.6628    1.5318 C   0  0  0  0  0  0  0  0  0  0  0  0
   -6.4922    2.1456   -0.8340 C   0  0  0  0  0  0  0  0  0  0  0  0
   -6.8585    2.4555    0.4757 C   0  0  0  0  0  0  0  0  0  0  0  0
    4.1783    0.2562    1.7911 H   0  0  0  0  0  0  0  0  0  0  0  0
    3.9249    1.0666   -2.4226 H   0  0  0  0  0  0  0  0  0  0  0  0
    2.0404   -0.4586   -2.6298 H   0  0  0  0  0  0  0  0  0  0  0  0
   -0.5472   -0.4750    0.5731 H   0  0  0  0  0  0  0  0  0  0  0  0
   -0.6076   -0.1088   -1.1825 H   0  0  0  0  0  0  0  0  0  0  0  0
    5.5856    4.1575    0.3091 H   0  0  0  0  0  0  0  0  0  0  0  0
    4.2207    3.3481    1.1328 H   0  0  0  0  0  0  0  0  0  0  0  0
    4.1330    3.6997   -0.6280 H   0  0  0  0  0  0  0  0  0  0  0  0
   -4.5258   -1.7084    0.4497 H   0  0  0  0  0  0  0  0  0  0  0  0
   -4.5871   -1.3539   -1.2877 H   0  0  0  0  0  0  0  0  0  0  0  0
   -5.2469   -0.0491    2.1082 H   0  0  0  0  0  0  0  0  0  0  0  0
   -5.3954    0.8120   -2.1115 H   0  0  0  0  0  0  0  0  0  0  0  0
   -6.6937    1.9046    2.5516 H   0  0  0  0  0  0  0  0  0  0  0  0
   -6.8419    2.7632   -1.6561 H   0  0  0  0  0  0  0  0  0  0  0  0
   -7.4935    3.3141    0.6732 H   0  0  0  0  0  0  0  0  0  0  0  0
  1  4  2  0  0  0  0
  1  5  2  0  0  0  0
  1 11  1  0  0  0  0
  1 18  1  0  0  0  0
  2  6  2  0  0  0  0
  2 12  1  0  0  0  0
  2 17  1  0  0  0  0
  3 19  1  0  0  0  0
  3 20  1  0  0  0  0
  7 19  2  0  0  0  0
  8 10  1  0  0  0  0
  9 10  2  0  0  0  0
 10 13  1  0  0  0  0
 11 14  2  0  0  0  0
 11 15  1  0  0  0  0
 12 13  2  0  0  0  0
 12 16  1  0  0  0  0
 13 14  1  0  0  0  0
 14 27  1  0  0  0  0
 15 16  2  0  0  0  0
 15 28  1  0  0  0  0
 16 29  1  0  0  0  0
 17 19  1  0  0  0  0
 17 30  1  0  0  0  0
 17 31  1  0  0  0  0
 18 32  1  0  0  0  0
 18 33  1  0  0  0  0
 18 34  1  0  0  0  0
 20 21  1  0  0  0  0
 20 35  1  0  0  0  0
 20 36  1  0  0  0  0
 21 22  2  0  0  0  0
 21 23  1  0  0  0  0
 22 24  1  0  0  0  0
 22 37  1  0  0  0  0
 23 25  2  0  0  0  0
 23 38  1  0  0  0  0
 24 26  2  0  0  0  0
 24 39  1  0  0  0  0
 25 26  1  0  0  0  0
 25 40  1  0  0  0  0
 26 41  1  0  0  0  0
M  CHG  2   8  -1  10   1
M  END
> <PUBCHEM_COMPOUND_CID>
1189521

> <PUBCHEM_CONFORMER_RMSD>
0.8

> <PUBCHEM_CONFORMER_DIVERSEORDER>
1
22
298
224
293
203
21
157
161
125
40
243
138
270
13
66
227
141
326
20
228
341
144
71
244
36
15
291
76
222
11
201
325
258
115
338
384
289
252
152
290
46
339
26
111
232
367
208
319
356
169
142
352
166
330
48
127
218
54
38
17
355
292
354
108
231
158
140
307
327
317
41
96
312
176
4
364
350
110
121
124
190
349
377
145
147
79
5
181
314
309
137
296
42
194
74
238
179
379
53
44
343
153
93
7
212
49
340
207
191
381
306
375
113
192
177
236
143
245
9
50
223
217
196
100
304
321
134
214
281
288
3
267
75
164
318
303
23
8
202
213
210
167
277
149
2
10
324
82
239
6
91
189
336
37
159
33
128
299
380
242
251
182
45
162
77
284
58
199
331
117
165
63
302
195
368
29
34
171
374
273
156
43
311
32
241
109
278
358
19
92
235
106
174
283
342
361
216
294
136
366
172
265
254
357
24
197
233
105
371
60
333
188
262
272
271
256
123
280
360
320
297
266
230
114
347
27
25
116
279
185
30
205
168
107
119
229
78
257
234
173
84
363
81
362
130
346
246
64
175
365
12
56
220
274
348
97
263
80
259
264
198
260
332
255
215
55
52
184
285
286
16
334
376
35
83
344
310
268
248
95
269
322
353
51
305
59
300
335
18
39
133
345
103
135
72
369
370
225
249
85
237
275
102
209
47
301
193
65
98
372
308
378
221
70
68
315
226
14
316
206
86
89
247
211
61
28
129
131
337
351
62
126
180
146
359
73
139
57
101
282
154
88
178
104
150
155
253
31
163
186
382
250
132
204
112
240
120
94
328
118
99
170
67
90
219
160
261
187
295
122
183
69
151
87
276
200
287
148
323
329
373
383
313

> <PUBCHEM_MMFF94_PARTIAL_CHARGES>
34
1 1.2
10 0.91
11 -0.01
12 0.06
13 0.13
14 -0.15
15 -0.15
16 -0.15
17 0.25
18 0.11
19 0.66
2 0.24
20 0.42
21 -0.14
22 -0.15
23 -0.15
24 -0.15
25 -0.15
26 -0.15
27 0.15
28 0.15
29 0.15
3 -0.43
37 0.15
38 0.15
39 0.15
4 -0.65
40 0.15
41 0.15
5 -0.65
6 -0.5
7 -0.57
8 -0.52
9 -0.52

> <PUBCHEM_EFFECTIVE_ROTOR_COUNT>
8

> <PUBCHEM_PHARMACOPHORE_FEATURES>
9
1 4 acceptor
1 5 acceptor
1 6 acceptor
1 7 acceptor
1 8 acceptor
1 8 anion
1 9 acceptor
6 11 12 13 14 15 16 rings
6 21 22 23 24 25 26 rings

> <PUBCHEM_HEAVY_ATOM_COUNT>
26

> <PUBCHEM_ATOM_DEF_STEREO_COUNT>
0

> <PUBCHEM_ATOM_UDEF_STEREO_COUNT>
1

> <PUBCHEM_BOND_DEF_STEREO_COUNT>
0

> <PUBCHEM_BOND_UDEF_STEREO_COUNT>
0

> <PUBCHEM_ISOTOPIC_ATOM_COUNT>
0

> <PUBCHEM_COMPONENT_COUNT>
1

> <PUBCHEM_CACTVS_TAUTO_COUNT>
1

> <PUBCHEM_CONFORMER_ID>
0012269100000001

> <PUBCHEM_MMFF94_ENERGY>
65.9359

> <PUBCHEM_FEATURE_SELFOVERLAP>
45.775

> <PUBCHEM_SHAPE_FINGERPRINT>
10 15 18334866009295748529
10622 236 11383017881434402348
10674148 151 18334298713120650188
10693767 8 12895084994236536252
12596602 18 18187369814058062147
12778500 126 18335977589549543746
13782708 43 11242239775636366524
13944108 23 18058174912434677561
14123256 34 8358258155064425957
14251751 18 10665222661901304879
14251764 30 7997970163600384069
14341114 328 18113893900863987082
14347329 18 18060701697449828699
14528608 73 16414905358814081783
15183329 4 14333132944931728641
15188451 53 13190343491725370295
15210252 30 18060140937713691280
15238133 3 18272639152262736250
15519825 34 16516262859094774281
15950262 2 18125162877838034236
16989378 47 11455614356471151152
17134984 74 12895066314922625524
19377110 9 17676777543690147771
19438510 23 18335704970009414121
1979834 28 16009037150573601259
20567600 247 9871753489783078141
20715895 44 18131072671222077076
20775438 99 12174748772713295396
21637258 2 10087651368631213414
23559900 14 18127979615932626935
270888 7 18413108368354717477
2748736 6 18272365390989441837
2838139 119 18200027490342687732
312425 54 15647339577150898945
3472631 163 18341894116704159997
3633792 109 17632590336312688862
3918712 181 18270397171404432369
4340502 62 17385726893688623210
465052 167 11674887692581543067
5104073 3 17967531277083322907
5718773 13 8214149529424506053
59682541 52 15554173583908802996
7808743 9 18343580780616253327

> <PUBCHEM_SHAPE_MULTIPOLES>
496.7
18.89
3.19
1.89
18.87
0.79
-0.85
20.32
-0.95
-0.97
0.26
-1.23
-0.71
-1.25

> <PUBCHEM_SHAPE_SELFOVERLAP>
1023.236

> <PUBCHEM_SHAPE_VOLUME>
284.5

> <PUBCHEM_COORDINATE_TYPE>
2
5
10

$$$$
