4974442
  -OEChem-01171809593D

 57 61  0     1  0  0  0  0  0999 V2000
    1.2401   -1.3990    0.7570 O   0  0  0  0  0  0  0  0  0  0  0  0
   -2.7296   -0.3585    0.3000 N   0  0  0  0  0  0  0  0  0  0  0  0
   -1.0219   -1.7855    1.1789 N   0  0  0  0  0  0  0  0  0  0  0  0
   -7.0264   -1.1099    0.0800 N   0  0  0  0  0  0  0  0  0  0  0  0
   -2.1151    1.5220   -1.0696 N   0  0  0  0  0  0  0  0  0  0  0  0
    0.7171    0.9938   -0.7810 C   0  0  2  0  0  0  0  0  0  0  0  0
   -0.3561    0.1343   -0.1557 C   0  0  0  0  0  0  0  0  0  0  0  0
    2.0601    0.2907   -0.7766 C   0  0  0  0  0  0  0  0  0  0  0  0
    2.2599   -0.8546    0.0043 C   0  0  0  0  0  0  0  0  0  0  0  0
    0.8114    2.3133   -0.0741 C   0  0  0  0  0  0  0  0  0  0  0  0
   -0.0761   -0.9794    0.5635 C   0  0  0  0  0  0  0  0  0  0  0  0
   -1.8166    0.4849   -0.3412 C   0  0  0  0  0  0  0  0  0  0  0  0
   -4.1677   -0.1150    0.2118 C   0  0  0  0  0  0  0  0  0  0  0  0
    3.5191   -1.5007    0.0541 C   0  0  0  0  0  0  0  0  0  0  0  0
    3.1229    0.7856   -1.5405 C   0  0  0  0  0  0  0  0  0  0  0  0
   -4.8081   -0.8167   -0.9843 C   0  0  0  0  0  0  0  0  0  0  0  0
    4.5825   -0.9774   -0.7201 C   0  0  0  0  0  0  0  0  0  0  0  0
    4.3680    0.1593   -1.5120 C   0  0  0  0  0  0  0  0  0  0  0  0
   -2.2610   -1.4404    1.0192 C   0  0  0  0  0  0  0  0  0  0  0  0
   -6.3224   -0.6178   -1.0980 C   0  0  0  0  0  0  0  0  0  0  0  0
    0.5677    3.4897   -0.7751 C   0  0  0  0  0  0  0  0  0  0  0  0
    1.1423    2.3498    1.2762 C   0  0  0  0  0  0  0  0  0  0  0  0
    3.7669   -2.6486    0.8381 C   0  0  0  0  0  0  0  0  0  0  0  0
    5.8408   -1.6013   -0.6902 C   0  0  0  0  0  0  0  0  0  0  0  0
    0.6560    4.7169   -0.1179 C   0  0  0  0  0  0  0  0  0  0  0  0
    1.2303    3.5769    1.9334 C   0  0  0  0  0  0  0  0  0  0  0  0
    5.0232   -3.2564    0.8570 C   0  0  0  0  0  0  0  0  0  0  0  0
    6.0592   -2.7331    0.0935 C   0  0  0  0  0  0  0  0  0  0  0  0
    0.9871    4.7605    1.2364 C   0  0  0  0  0  0  0  0  0  0  0  0
   -6.7926   -2.5441    0.2588 C   0  0  0  0  0  0  0  0  0  0  0  0
   -8.4612   -0.8390   -0.0261 C   0  0  0  0  0  0  0  0  0  0  0  0
    0.4477    1.1357   -1.8373 H   0  0  0  0  0  0  0  0  0  0  0  0
   -4.3902    0.9581    0.1931 H   0  0  0  0  0  0  0  0  0  0  0  0
   -4.6363   -0.4689    1.1389 H   0  0  0  0  0  0  0  0  0  0  0  0
    2.9903    1.6686   -2.1608 H   0  0  0  0  0  0  0  0  0  0  0  0
   -4.5435   -1.8806   -0.9898 H   0  0  0  0  0  0  0  0  0  0  0  0
   -4.3541   -0.4155   -1.9006 H   0  0  0  0  0  0  0  0  0  0  0  0
    5.1734    0.5734   -2.1154 H   0  0  0  0  0  0  0  0  0  0  0  0
   -3.0570   -2.0468    1.4814 H   0  0  0  0  0  0  0  0  0  0  0  0
   -6.6810   -1.1103   -2.0114 H   0  0  0  0  0  0  0  0  0  0  0  0
   -6.5144    0.4561   -1.2192 H   0  0  0  0  0  0  0  0  0  0  0  0
    0.3104    3.4713   -1.8304 H   0  0  0  0  0  0  0  0  0  0  0  0
    1.3376    1.4447    1.8439 H   0  0  0  0  0  0  0  0  0  0  0  0
    2.9790   -3.0858    1.4481 H   0  0  0  0  0  0  0  0  0  0  0  0
    6.6664   -1.2089   -1.2809 H   0  0  0  0  0  0  0  0  0  0  0  0
   -3.1254    1.6510   -1.1394 H   0  0  0  0  0  0  0  0  0  0  0  0
    0.4671    5.6385   -0.6606 H   0  0  0  0  0  0  0  0  0  0  0  0
    1.4884    3.6112    2.9879 H   0  0  0  0  0  0  0  0  0  0  0  0
    5.1897   -4.1384    1.4684 H   0  0  0  0  0  0  0  0  0  0  0  0
    7.0375   -3.2045    0.1065 H   0  0  0  0  0  0  0  0  0  0  0  0
    1.0559    5.7160    1.7481 H   0  0  0  0  0  0  0  0  0  0  0  0
   -7.0353   -3.1218   -0.6407 H   0  0  0  0  0  0  0  0  0  0  0  0
   -7.4093   -2.9300    1.0795 H   0  0  0  0  0  0  0  0  0  0  0  0
   -5.7607   -2.7582    0.5530 H   0  0  0  0  0  0  0  0  0  0  0  0
   -8.9159   -1.3476   -0.8840 H   0  0  0  0  0  0  0  0  0  0  0  0
   -8.6435    0.2368   -0.1258 H   0  0  0  0  0  0  0  0  0  0  0  0
   -8.9825   -1.1607    0.8824 H   0  0  0  0  0  0  0  0  0  0  0  0
  1  9  1  0  0  0  0
  1 11  1  0  0  0  0
  2 12  1  0  0  0  0
  2 13  1  0  0  0  0
  2 19  1  0  0  0  0
  3 11  1  0  0  0  0
  3 19  2  0  0  0  0
  4 20  1  0  0  0  0
  4 30  1  0  0  0  0
  4 31  1  0  0  0  0
  5 12  2  0  0  0  0
  5 46  1  0  0  0  0
  6  7  1  0  0  0  0
  6  8  1  0  0  0  0
  6 10  1  0  0  0  0
  6 32  1  0  0  0  0
  7 11  2  0  0  0  0
  7 12  1  0  0  0  0
  8  9  2  0  0  0  0
  8 15  1  0  0  0  0
  9 14  1  0  0  0  0
 10 21  2  0  0  0  0
 10 22  1  0  0  0  0
 13 16  1  0  0  0  0
 13 33  1  0  0  0  0
 13 34  1  0  0  0  0
 14 17  1  0  0  0  0
 14 23  2  0  0  0  0
 15 18  2  0  0  0  0
 15 35  1  0  0  0  0
 16 20  1  0  0  0  0
 16 36  1  0  0  0  0
 16 37  1  0  0  0  0
 17 18  1  0  0  0  0
 17 24  2  0  0  0  0
 18 38  1  0  0  0  0
 19 39  1  0  0  0  0
 20 40  1  0  0  0  0
 20 41  1  0  0  0  0
 21 25  1  0  0  0  0
 21 42  1  0  0  0  0
 22 26  2  0  0  0  0
 22 43  1  0  0  0  0
 23 27  1  0  0  0  0
 23 44  1  0  0  0  0
 24 28  1  0  0  0  0
 24 45  1  0  0  0  0
 25 29  2  0  0  0  0
 25 47  1  0  0  0  0
 26 29  1  0  0  0  0
 26 48  1  0  0  0  0
 27 28  2  0  0  0  0
 27 49  1  0  0  0  0
 28 50  1  0  0  0  0
 29 51  1  0  0  0  0
 30 52  1  0  0  0  0
 30 53  1  0  0  0  0
 30 54  1  0  0  0  0
 31 55  1  0  0  0  0
 31 56  1  0  0  0  0
 31 57  1  0  0  0  0
M  END
> <PUBCHEM_COMPOUND_CID>
4974442

> <PUBCHEM_CONFORMER_RMSD>
0.8

> <PUBCHEM_CONFORMER_DIVERSEORDER>
9
7
5
21
12
18
8
16
19
4
6
13
1
15
10
2
11
14
20
3
17

> <PUBCHEM_MMFF94_PARTIAL_CHARGES>
41
1 -0.16
10 -0.14
11 0.25
12 0.49
13 0.37
15 -0.15
18 -0.15
19 0.44
2 -0.47
20 0.27
21 -0.15
22 -0.15
23 -0.15
24 -0.15
25 -0.15
26 -0.15
27 -0.15
28 -0.15
29 -0.15
3 -0.62
30 0.27
31 0.27
35 0.15
38 0.15
39 0.06
4 -0.81
42 0.15
43 0.15
44 0.15
45 0.15
46 0.4
47 0.15
48 0.15
49 0.15
5 -0.85
50 0.15
51 0.15
6 0.43
7 -0.12
8 -0.14
9 0.08

> <PUBCHEM_EFFECTIVE_ROTOR_COUNT>
5.4

> <PUBCHEM_PHARMACOPHORE_FEATURES>
10
1 1 acceptor
1 4 cation
1 5 donor
3 2 3 19 cation
3 2 5 12 cation
6 1 6 7 8 9 11 rings
6 10 21 22 25 26 29 rings
6 14 17 23 24 27 28 rings
6 2 3 7 11 12 19 rings
6 8 9 14 15 17 18 rings

> <PUBCHEM_HEAVY_ATOM_COUNT>
31

> <PUBCHEM_ATOM_DEF_STEREO_COUNT>
0

> <PUBCHEM_ATOM_UDEF_STEREO_COUNT>
1

> <PUBCHEM_BOND_DEF_STEREO_COUNT>
0

> <PUBCHEM_BOND_UDEF_STEREO_COUNT>
0

> <PUBCHEM_ISOTOPIC_ATOM_COUNT>
0

> <PUBCHEM_COMPONENT_COUNT>
1

> <PUBCHEM_CACTVS_TAUTO_COUNT>
1

> <PUBCHEM_CONFORMER_ID>
004BE76A00000009

> <PUBCHEM_MMFF94_ENERGY>
93.4479

> <PUBCHEM_FEATURE_SELFOVERLAP>
50.935

> <PUBCHEM_SHAPE_FINGERPRINT>
10411042 1 18410854317714353344
10622 236 17680694931331111922
10930396 42 18194655195647702290
11297750 10 18336816529179717725
11331351 85 17775283829181783621
11411753 29 17630887107060517410
11720765 8 18411698824397369201
12107698 1 18273216409343031229
12166972 35 18114185220042481455
12516196 113 18412542094075867138
12788726 201 18266751177697054406
13140716 1 18335996272425276722
13533116 47 18269557303243911001
13540713 4 17898296258548798467
13540713 5 17827369778835018710
13590594 115 18339649953928519689
13631057 29 18264773169432742670
13782708 43 18040435508170607667
13835254 42 18270398283452159376
13955234 65 18125438859234971281
14068700 675 18130787841727988321
14150023 79 18053095417933134120
14347329 18 16733527322847235285
14400156 413 18261103114882672797
15064986 96 18124021588963001216
15439362 3 18195523929154342457
15890870 6 18119536677424553132
15927050 60 17838052967936841638
17492 89 18049442544238021846
19301679 30 18127131870575965590
20775438 99 17834649958254347575
20832881 197 18409448077271917433
21049683 271 18408325514349423012
21304303 172 18130796594475945433
2132832 1 17918001585524401825
221357 26 18187081745921644335
23522609 53 18120970302414801333
23559900 14 18262236754709809061
244849 19 18191839358610798037
249999 5 18126279976771234065
283562 15 18192151486837346762
3004659 81 17821729412442904270
3178227 256 18410302423798647211
4408954 87 16980992055501151825
44317340 157 18267584801238234671
463206 1 18409728478175391278
508180 173 18335701607783718633
5219985 9 18341051835089250440
57527293 21 17059469921440130566
6004065 56 18411134770721475986
6086070 43 18410567363325068481
70251023 43 18130802109872901406
9962374 69 18201711916983203719

> <PUBCHEM_SHAPE_MULTIPOLES>
612.17
15.47
5.05
1.34
29.9
7.16
-0.09
-19.36
2.62
-4.63
-2.13
-0.66
0.6
-0.11

> <PUBCHEM_SHAPE_SELFOVERLAP>
1351.114

> <PUBCHEM_SHAPE_VOLUME>
326.9

> <PUBCHEM_COORDINATE_TYPE>
2
5
10

$$$$
