328144
  -OEChem-01171809533D

 46 48  0     1  0  0  0  0  0999 V2000
   -2.6411   -4.2704   -0.3341 F   0  0  0  0  0  0  0  0  0  0  0  0
   -0.9896   -4.1072   -1.7304 F   0  0  0  0  0  0  0  0  0  0  0  0
   -0.6171   -4.7178    0.3231 F   0  0  0  0  0  0  0  0  0  0  0  0
    6.4089    1.0646    1.0095 F   0  0  0  0  0  0  0  0  0  0  0  0
    6.4073    0.6375   -1.1169 F   0  0  0  0  0  0  0  0  0  0  0  0
    5.7484    2.5821   -0.4009 F   0  0  0  0  0  0  0  0  0  0  0  0
   -2.9200    0.8825    2.5731 O   0  0  0  0  0  0  0  0  0  0  0  0
   -3.5482    1.3185   -1.0374 N   0  0  0  0  0  0  0  0  0  0  0  0
    0.1164   -1.9485   -0.1140 N   0  0  0  0  0  0  0  0  0  0  0  0
   -3.3224    1.7327    0.3531 C   0  0  1  0  0  0  0  0  0  0  0  0
   -4.4921    2.5851    0.8640 C   0  0  0  0  0  0  0  0  0  0  0  0
   -4.7350    3.7901   -0.0406 C   0  0  0  0  0  0  0  0  0  0  0  0
   -3.1463    0.4890    1.2224 C   0  0  1  0  0  0  0  0  0  0  0  0
   -4.8811    3.3488   -1.4928 C   0  0  0  0  0  0  0  0  0  0  0  0
   -3.7092    2.4707   -1.9246 C   0  0  0  0  0  0  0  0  0  0  0  0
   -1.9974   -0.3692    0.7524 C   0  0  0  0  0  0  0  0  0  0  0  0
   -0.7269    0.1697    0.6903 C   0  0  0  0  0  0  0  0  0  0  0  0
   -2.2330   -1.6815    0.3903 C   0  0  0  0  0  0  0  0  0  0  0  0
    0.2932   -0.6590    0.2516 C   0  0  0  0  0  0  0  0  0  0  0  0
   -1.1455   -2.4274   -0.0350 C   0  0  0  0  0  0  0  0  0  0  0  0
    1.6514   -0.1789    0.1548 C   0  0  0  0  0  0  0  0  0  0  0  0
   -1.3458   -3.8504   -0.4375 C   0  0  0  0  0  0  0  0  0  0  0  0
    2.5151   -0.2961    1.2457 C   0  0  0  0  0  0  0  0  0  0  0  0
    2.1054    0.4041   -1.0300 C   0  0  0  0  0  0  0  0  0  0  0  0
    4.2784    0.7499   -0.0324 C   0  0  0  0  0  0  0  0  0  0  0  0
    3.8273    0.1677    1.1521 C   0  0  0  0  0  0  0  0  0  0  0  0
    3.4175    0.8680   -1.1235 C   0  0  0  0  0  0  0  0  0  0  0  0
    5.6814    1.2455   -0.1325 C   0  0  0  0  0  0  0  0  0  0  0  0
   -2.4187    2.3549    0.4003 H   0  0  0  0  0  0  0  0  0  0  0  0
   -4.2944    2.9438    1.8809 H   0  0  0  0  0  0  0  0  0  0  0  0
   -5.4082    1.9815    0.9123 H   0  0  0  0  0  0  0  0  0  0  0  0
   -3.8938    4.4887    0.0468 H   0  0  0  0  0  0  0  0  0  0  0  0
   -5.6341    4.3268    0.2814 H   0  0  0  0  0  0  0  0  0  0  0  0
   -4.0732   -0.0986    1.2263 H   0  0  0  0  0  0  0  0  0  0  0  0
   -5.8208    2.7948   -1.6133 H   0  0  0  0  0  0  0  0  0  0  0  0
   -4.9439    4.2291   -2.1423 H   0  0  0  0  0  0  0  0  0  0  0  0
   -3.8783    2.1115   -2.9455 H   0  0  0  0  0  0  0  0  0  0  0  0
   -2.7816    3.0553   -1.9475 H   0  0  0  0  0  0  0  0  0  0  0  0
   -4.3886    0.7418   -1.0843 H   0  0  0  0  0  0  0  0  0  0  0  0
   -0.5231    1.1951    0.9802 H   0  0  0  0  0  0  0  0  0  0  0  0
   -2.2444    1.5815    2.5840 H   0  0  0  0  0  0  0  0  0  0  0  0
   -3.2293   -2.1071    0.4374 H   0  0  0  0  0  0  0  0  0  0  0  0
    2.1794   -0.7478    2.1763 H   0  0  0  0  0  0  0  0  0  0  0  0
    1.4473    0.5035   -1.8901 H   0  0  0  0  0  0  0  0  0  0  0  0
    4.4829    0.0667    2.0126 H   0  0  0  0  0  0  0  0  0  0  0  0
    3.7601    1.3198   -2.0506 H   0  0  0  0  0  0  0  0  0  0  0  0
  1 22  1  0  0  0  0
  2 22  1  0  0  0  0
  3 22  1  0  0  0  0
  4 28  1  0  0  0  0
  5 28  1  0  0  0  0
  6 28  1  0  0  0  0
  7 13  1  0  0  0  0
  7 41  1  0  0  0  0
  8 10  1  0  0  0  0
  8 15  1  0  0  0  0
  8 39  1  0  0  0  0
  9 19  2  0  0  0  0
  9 20  1  0  0  0  0
 10 11  1  0  0  0  0
 10 13  1  0  0  0  0
 10 29  1  0  0  0  0
 11 12  1  0  0  0  0
 11 30  1  0  0  0  0
 11 31  1  0  0  0  0
 12 14  1  0  0  0  0
 12 32  1  0  0  0  0
 12 33  1  0  0  0  0
 13 16  1  0  0  0  0
 13 34  1  0  0  0  0
 14 15  1  0  0  0  0
 14 35  1  0  0  0  0
 14 36  1  0  0  0  0
 15 37  1  0  0  0  0
 15 38  1  0  0  0  0
 16 17  2  0  0  0  0
 16 18  1  0  0  0  0
 17 19  1  0  0  0  0
 17 40  1  0  0  0  0
 18 20  2  0  0  0  0
 18 42  1  0  0  0  0
 19 21  1  0  0  0  0
 20 22  1  0  0  0  0
 21 23  2  0  0  0  0
 21 24  1  0  0  0  0
 23 26  1  0  0  0  0
 23 43  1  0  0  0  0
 24 27  2  0  0  0  0
 24 44  1  0  0  0  0
 25 26  2  0  0  0  0
 25 27  1  0  0  0  0
 25 28  1  0  0  0  0
 26 45  1  0  0  0  0
 27 46  1  0  0  0  0
M  END
> <PUBCHEM_COMPOUND_CID>
328144

> <PUBCHEM_CONFORMER_RMSD>
0.8

> <PUBCHEM_CONFORMER_DIVERSEORDER>
1
19
16
26
31
6
21
20
29
11
22
30
13
25
32
15
27
18
8
10
12
28
23
5
14
17
2
24
3
9
4
7

> <PUBCHEM_MMFF94_PARTIAL_CHARGES>
32
1 -0.34
10 0.27
13 0.42
15 0.27
16 -0.14
17 -0.15
18 -0.15
19 0.31
2 -0.34
20 0.17
22 1.16
23 -0.15
24 -0.15
25 -0.14
26 -0.15
27 -0.15
28 1.16
3 -0.34
39 0.36
4 -0.34
40 0.15
41 0.4
42 0.15
43 0.15
44 0.15
45 0.15
46 0.15
5 -0.34
6 -0.34
7 -0.68
8 -0.9
9 -0.62

> <PUBCHEM_EFFECTIVE_ROTOR_COUNT>
6.2

> <PUBCHEM_PHARMACOPHORE_FEATURES>
8
1 7 acceptor
1 7 donor
1 8 cation
1 8 donor
1 9 acceptor
6 21 23 24 25 26 27 rings
6 8 10 11 12 14 15 rings
6 9 16 17 18 19 20 rings

> <PUBCHEM_HEAVY_ATOM_COUNT>
28

> <PUBCHEM_ATOM_DEF_STEREO_COUNT>
0

> <PUBCHEM_ATOM_UDEF_STEREO_COUNT>
2

> <PUBCHEM_BOND_DEF_STEREO_COUNT>
0

> <PUBCHEM_BOND_UDEF_STEREO_COUNT>
0

> <PUBCHEM_ISOTOPIC_ATOM_COUNT>
0

> <PUBCHEM_COMPONENT_COUNT>
1

> <PUBCHEM_CACTVS_TAUTO_COUNT>
1

> <PUBCHEM_CONFORMER_ID>
000501D000000001

> <PUBCHEM_MMFF94_ENERGY>
52.9112

> <PUBCHEM_FEATURE_SELFOVERLAP>
40.596

> <PUBCHEM_SHAPE_FINGERPRINT>
10369192 42 18339654352022425169
105312 117 18411983546242099092
12107183 9 18263353704110867138
12160290 23 18200036273598852355
12293681 160 17774440477798706921
12422481 6 17095802118927502636
12788726 201 18192979625041067355
13103583 49 8069452807731180949
13911987 19 18340767049073310009
14114206 34 17907275990855224214
14202776 33 18050300451138607356
14294032 229 18411704301112868755
14508225 48 17838327837591746943
14856354 85 16298966324130416808
15163728 17 18339081458913329981
15188451 53 13479719541809127065
15324884 4 17392231459335894289
15439362 3 18123469380100060070
15463212 79 18334288811902228058
15513586 35 17315937721020426252
16087824 20 18339643464961143139
167882 2 18121779430986904075
16988056 13 16966880849822832165
16992828 155 17968090932406938860
17980427 23 17531253837889480789
17980427 26 17341280085629479819
19784866 34 18270120085445811649
20101258 96 17903367239860522035
21033648 144 17896316922617300549
21033648 29 18412537704619674488
21304303 282 18197191781098727775
21859007 373 18044374933805037404
22393880 68 13901624078661560912
22907989 373 18267018547774390175
23559900 14 17904485099989551963
23929065 36 18055047003753469506
3057174 1 18200591367956694007
376196 1 18044371635022071729
4015057 19 16702018703844813744
5080951 261 17417235662651637055
53917941 68 18342731923005227573
59755656 520 18059871540422120659
6327066 14 18334009450355745781
633830 44 17558286340301159865
6677587 24 16959519744682798877
7399639 24 18191044326336728563
77188 2 17474671032383438103
7808743 9 18409730681493107568
7970288 3 9222931678222631961
9862522 239 18187086139652037013
9981440 41 18336268925481321289

> <PUBCHEM_SHAPE_MULTIPOLES>
516.75
12.54
5.16
1.54
14.39
6.82
-0.09
-17.26
1.05
-5.73
2.06
-1.04
-0.44
0.31

> <PUBCHEM_SHAPE_SELFOVERLAP>
1116.816

> <PUBCHEM_SHAPE_VOLUME>
284.7

> <PUBCHEM_COORDINATE_TYPE>
2
5
10

$$$$
