3808958
  -OEChem-01171809453D

 47 50  0     0  0  0  0  0  0999 V2000
    2.4709    4.9955    0.1766 O   0  0  0  0  0  0  0  0  0  0  0  0
    5.0485   -0.9268   -0.8770 O   0  0  0  0  0  0  0  0  0  0  0  0
    2.7168   -4.2322   -0.4815 O   0  5  0  0  0  0  0  0  0  0  0  0
    0.6174   -4.1178    0.1497 O   0  0  0  0  0  0  0  0  0  0  0  0
   -5.5994    1.5700   -1.6322 O   0  0  0  0  0  0  0  0  0  0  0  0
    2.1951    2.1993    0.2450 N   0  0  0  0  0  0  0  0  0  0  0  0
   -0.4984   -1.8596    0.6798 N   0  0  0  0  0  0  0  0  0  0  0  0
    4.4183    0.2706   -0.5843 N   0  0  0  0  0  0  0  0  0  0  0  0
    4.1983   -2.0083   -0.7218 N   0  0  0  0  0  0  0  0  0  0  0  0
    1.7125   -3.5653   -0.1254 N   0  3  0  0  0  0  0  0  0  0  0  0
   -5.7108    0.1241    0.2266 N   0  0  0  0  0  0  0  0  0  0  0  0
    3.4771    2.8259    0.5849 C   0  0  0  0  0  0  0  0  0  0  0  0
    1.3037    3.0133   -0.5929 C   0  0  0  0  0  0  0  0  0  0  0  0
    2.1031    0.8071    0.1478 C   0  0  0  0  0  0  0  0  0  0  0  0
    3.2375    4.2367    1.1111 C   0  0  0  0  0  0  0  0  0  0  0  0
    1.1798    4.4137   -0.0035 C   0  0  0  0  0  0  0  0  0  0  0  0
    3.1642   -0.0495   -0.2419 C   0  0  0  0  0  0  0  0  0  0  0  0
    0.9052    0.1083    0.4398 C   0  0  0  0  0  0  0  0  0  0  0  0
    0.7690   -1.3023    0.3546 C   0  0  0  0  0  0  0  0  0  0  0  0
    3.0243   -1.4981   -0.3294 C   0  0  0  0  0  0  0  0  0  0  0  0
    1.8175   -2.1571   -0.0312 C   0  0  0  0  0  0  0  0  0  0  0  0
   -1.8030   -1.3631    0.5666 C   0  0  0  0  0  0  0  0  0  0  0  0
   -2.7961   -1.7715    1.4647 C   0  0  0  0  0  0  0  0  0  0  0  0
   -2.1281   -0.4528   -0.4461 C   0  0  0  0  0  0  0  0  0  0  0  0
   -4.4112   -0.3705    0.3397 C   0  0  0  0  0  0  0  0  0  0  0  0
   -4.0955   -1.2770    1.3517 C   0  0  0  0  0  0  0  0  0  0  0  0
   -3.4274    0.0417   -0.5591 C   0  0  0  0  0  0  0  0  0  0  0  0
   -6.2120    1.0324   -0.7155 C   0  0  0  0  0  0  0  0  0  0  0  0
   -7.6775    1.3134   -0.4967 C   0  0  0  0  0  0  0  0  0  0  0  0
    4.1007    2.8858   -0.3151 H   0  0  0  0  0  0  0  0  0  0  0  0
    4.0100    2.2527    1.3523 H   0  0  0  0  0  0  0  0  0  0  0  0
    0.3032    2.5748   -0.6755 H   0  0  0  0  0  0  0  0  0  0  0  0
    1.7305    3.0706   -1.6019 H   0  0  0  0  0  0  0  0  0  0  0  0
    2.7199    4.2198    2.0780 H   0  0  0  0  0  0  0  0  0  0  0  0
    4.1940    4.7486    1.2565 H   0  0  0  0  0  0  0  0  0  0  0  0
    0.6133    5.0566   -0.6846 H   0  0  0  0  0  0  0  0  0  0  0  0
    0.6498    4.3977    0.9566 H   0  0  0  0  0  0  0  0  0  0  0  0
    0.0601    0.7026    0.7891 H   0  0  0  0  0  0  0  0  0  0  0  0
   -0.4400   -2.7614    1.1430 H   0  0  0  0  0  0  0  0  0  0  0  0
   -2.5641   -2.4771    2.2589 H   0  0  0  0  0  0  0  0  0  0  0  0
   -1.3894   -0.1326   -1.1764 H   0  0  0  0  0  0  0  0  0  0  0  0
   -4.8520   -1.6067    2.0593 H   0  0  0  0  0  0  0  0  0  0  0  0
   -3.5970    0.7355   -1.3707 H   0  0  0  0  0  0  0  0  0  0  0  0
   -6.3698   -0.2243    0.9197 H   0  0  0  0  0  0  0  0  0  0  0  0
   -8.2518    0.3899   -0.6121 H   0  0  0  0  0  0  0  0  0  0  0  0
   -8.0284    2.0446   -1.2302 H   0  0  0  0  0  0  0  0  0  0  0  0
   -7.8321    1.7173    0.5079 H   0  0  0  0  0  0  0  0  0  0  0  0
  1 15  1  0  0  0  0
  1 16  1  0  0  0  0
  2  8  1  0  0  0  0
  2  9  1  0  0  0  0
  3 10  1  0  0  0  0
  4 10  2  0  0  0  0
  5 28  2  0  0  0  0
  6 12  1  0  0  0  0
  6 13  1  0  0  0  0
  6 14  1  0  0  0  0
  7 19  1  0  0  0  0
  7 22  1  0  0  0  0
  7 39  1  0  0  0  0
  8 17  2  0  0  0  0
  9 20  2  0  0  0  0
 10 21  1  0  0  0  0
 11 25  1  0  0  0  0
 11 28  1  0  0  0  0
 11 44  1  0  0  0  0
 12 15  1  0  0  0  0
 12 30  1  0  0  0  0
 12 31  1  0  0  0  0
 13 16  1  0  0  0  0
 13 32  1  0  0  0  0
 13 33  1  0  0  0  0
 14 17  1  0  0  0  0
 14 18  2  0  0  0  0
 15 34  1  0  0  0  0
 15 35  1  0  0  0  0
 16 36  1  0  0  0  0
 16 37  1  0  0  0  0
 17 20  1  0  0  0  0
 18 19  1  0  0  0  0
 18 38  1  0  0  0  0
 19 21  2  0  0  0  0
 20 21  1  0  0  0  0
 22 23  2  0  0  0  0
 22 24  1  0  0  0  0
 23 26  1  0  0  0  0
 23 40  1  0  0  0  0
 24 27  2  0  0  0  0
 24 41  1  0  0  0  0
 25 26  2  0  0  0  0
 25 27  1  0  0  0  0
 26 42  1  0  0  0  0
 27 43  1  0  0  0  0
 28 29  1  0  0  0  0
 29 45  1  0  0  0  0
 29 46  1  0  0  0  0
 29 47  1  0  0  0  0
M  CHG  2   3  -1  10   1
M  END
> <PUBCHEM_COMPOUND_CID>
3808958

> <PUBCHEM_CONFORMER_RMSD>
0.8

> <PUBCHEM_CONFORMER_DIVERSEORDER>
1
19
14
27
18
25
29
28
21
20
15
7
5
26
8
24
2
3
17
6
23
11
16
4
9
13
22
12
10

> <PUBCHEM_MMFF94_PARTIAL_CHARGES>
36
1 -0.56
10 0.91
11 -0.55
12 0.37
13 0.37
14 0.1
15 0.28
16 0.28
17 0.29
18 -0.15
19 0.1
2 0.24
20 0.29
21 0.13
22 0.1
23 -0.15
24 -0.15
25 0.12
26 -0.15
27 -0.15
28 0.57
29 0.06
3 -0.52
38 0.15
39 0.4
4 -0.52
40 0.15
41 0.15
42 0.15
43 0.15
44 0.37
5 -0.57
6 -0.84
7 -0.6
8 -0.41
9 -0.41

> <PUBCHEM_EFFECTIVE_ROTOR_COUNT>
7.2

> <PUBCHEM_PHARMACOPHORE_FEATURES>
15
1 1 acceptor
1 11 donor
1 3 acceptor
1 3 anion
1 4 acceptor
1 5 acceptor
1 6 cation
1 7 cation
1 7 donor
1 8 acceptor
1 9 acceptor
5 2 8 9 17 20 rings
6 1 6 12 13 15 16 rings
6 14 17 18 19 20 21 rings
6 22 23 24 25 26 27 rings

> <PUBCHEM_HEAVY_ATOM_COUNT>
29

> <PUBCHEM_ATOM_DEF_STEREO_COUNT>
0

> <PUBCHEM_ATOM_UDEF_STEREO_COUNT>
0

> <PUBCHEM_BOND_DEF_STEREO_COUNT>
0

> <PUBCHEM_BOND_UDEF_STEREO_COUNT>
0

> <PUBCHEM_ISOTOPIC_ATOM_COUNT>
0

> <PUBCHEM_COMPONENT_COUNT>
1

> <PUBCHEM_CACTVS_TAUTO_COUNT>
4

> <PUBCHEM_CONFORMER_ID>
003A1EBE00000001

> <PUBCHEM_MMFF94_ENERGY>
121.6053

> <PUBCHEM_FEATURE_SELFOVERLAP>
76.387

> <PUBCHEM_SHAPE_FINGERPRINT>
10411042 1 17979353062559146702
11456790 92 17970067743282183857
12730499 353 18335145267531933291
12769317 202 18270676597000747777
12788726 201 17830457181078070562
12925494 130 18408890642463238681
13140716 1 18050854613631144954
13402501 40 18187365398425493157
13583140 156 18408895035977515583
138480 1 18411423873628273312
13944108 23 18261958427428000261
14556957 393 17203616965446923761
15003188 100 18410006663680912981
15081414 286 18339938008272511331
15082195 135 18340186571606039999
15198563 99 18124898772041268300
15326921 28 17334482200209643056
15420108 30 18051674827666891128
15439362 3 18268710696302061824
15483637 11 17905045859499804117
16988056 13 18410571760459294492
16994733 274 16226906600052864212
20715895 44 18339072791558933977
21033648 29 17968379039228969017
21033650 10 14332034588260174963
21133410 127 17681553968004080317
21344244 78 17755559578370201154
21475661 188 18261950864032302393
21709351 56 18342178903343846511
21792961 116 18116166475978211374
22122407 14 18270413707075449401
221357 26 18264768762342447663
22289505 5 18335421205815504655
23559900 14 18410009936235067555
283562 15 18122079619953683918
376196 1 18264202689584097843
495365 180 18342729749894382771
57124632 79 18196933485975922688
58902169 19 17988351599544431661
7399639 24 17902523910542988275

> <PUBCHEM_SHAPE_MULTIPOLES>
537.57
13
5.84
1.03
25.33
3.34
-0.1
5.93
3.01
-8.5
-0.41
0.7
0.07
2.83

> <PUBCHEM_SHAPE_SELFOVERLAP>
1164.368

> <PUBCHEM_SHAPE_VOLUME>
292.7

> <PUBCHEM_COORDINATE_TYPE>
2
5
10

$$$$
