798238
  -OEChem-01171809453D

 43 45  0     0  0  0  0  0  0999 V2000
    6.7023   -0.6501   -0.3272 O   0  0  0  0  0  0  0  0  0  0  0  0
    0.2854   -0.6756   -0.6209 N   0  0  0  0  0  0  0  0  0  0  0  0
   -2.9330    1.9572   -0.0521 N   0  0  0  0  0  0  0  0  0  0  0  0
   -2.0989   -0.3019   -0.1407 C   0  0  0  0  0  0  0  0  0  0  0  0
   -3.1419    0.6303    0.0408 C   0  0  0  0  0  0  0  0  0  0  0  0
   -0.8174    0.1891   -0.4244 C   0  0  0  0  0  0  0  0  0  0  0  0
   -4.4147    0.1420    0.3230 C   0  0  0  0  0  0  0  0  0  0  0  0
   -2.3527   -1.6800   -0.0369 C   0  0  0  0  0  0  0  0  0  0  0  0
   -3.6353   -2.1406    0.2460 C   0  0  0  0  0  0  0  0  0  0  0  0
   -4.6673   -1.2281    0.4265 C   0  0  0  0  0  0  0  0  0  0  0  0
   -0.5992    1.5560   -0.5207 C   0  0  0  0  0  0  0  0  0  0  0  0
   -1.6816    2.3900   -0.3277 C   0  0  0  0  0  0  0  0  0  0  0  0
    1.6622   -0.5274   -0.3819 C   0  0  0  0  0  0  0  0  0  0  0  0
   -5.5593    1.0861    0.5254 C   0  0  0  0  0  0  0  0  0  0  0  0
   -3.9003   -3.6034    0.3563 C   0  0  0  0  0  0  0  0  0  0  0  0
   -1.4941    3.8674   -0.4222 C   0  0  0  0  0  0  0  0  0  0  0  0
    2.1108    0.2955    0.6547 C   0  0  0  0  0  0  0  0  0  0  0  0
    2.5904   -1.2023   -1.1793 C   0  0  0  0  0  0  0  0  0  0  0  0
    4.4005   -0.2327    0.0938 C   0  0  0  0  0  0  0  0  0  0  0  0
    3.4774    0.4426    0.8920 C   0  0  0  0  0  0  0  0  0  0  0  0
    3.9570   -1.0552   -0.9419 C   0  0  0  0  0  0  0  0  0  0  0  0
    5.8253   -0.0799    0.3416 C   0  0  0  0  0  0  0  0  0  0  0  0
    6.2841    0.8208    1.4758 C   0  0  0  0  0  0  0  0  0  0  0  0
   -1.5612   -2.4147   -0.1617 H   0  0  0  0  0  0  0  0  0  0  0  0
   -5.6701   -1.5848    0.6500 H   0  0  0  0  0  0  0  0  0  0  0  0
    0.3717    1.9744   -0.7641 H   0  0  0  0  0  0  0  0  0  0  0  0
    0.0530   -1.5254   -1.1257 H   0  0  0  0  0  0  0  0  0  0  0  0
   -6.4954    0.5587    0.7384 H   0  0  0  0  0  0  0  0  0  0  0  0
   -5.3592    1.7513    1.3721 H   0  0  0  0  0  0  0  0  0  0  0  0
   -5.7209    1.6872   -0.3757 H   0  0  0  0  0  0  0  0  0  0  0  0
   -3.6894   -3.9477    1.3736 H   0  0  0  0  0  0  0  0  0  0  0  0
   -4.9431   -3.8386    0.1174 H   0  0  0  0  0  0  0  0  0  0  0  0
   -3.2766   -4.1695   -0.3439 H   0  0  0  0  0  0  0  0  0  0  0  0
   -2.4361    4.3958   -0.2425 H   0  0  0  0  0  0  0  0  0  0  0  0
   -0.7690    4.2077    0.3239 H   0  0  0  0  0  0  0  0  0  0  0  0
   -1.1377    4.1430   -1.4198 H   0  0  0  0  0  0  0  0  0  0  0  0
    1.4151    0.8146    1.3087 H   0  0  0  0  0  0  0  0  0  0  0  0
    2.2585   -1.8456   -1.9904 H   0  0  0  0  0  0  0  0  0  0  0  0
    3.7747    1.0885    1.7121 H   0  0  0  0  0  0  0  0  0  0  0  0
    4.6586   -1.5905   -1.5762 H   0  0  0  0  0  0  0  0  0  0  0  0
    5.9599    1.8501    1.3010 H   0  0  0  0  0  0  0  0  0  0  0  0
    7.3784    0.8189    1.5151 H   0  0  0  0  0  0  0  0  0  0  0  0
    5.9163    0.4450    2.4343 H   0  0  0  0  0  0  0  0  0  0  0  0
  1 22  2  0  0  0  0
  2  6  1  0  0  0  0
  2 13  1  0  0  0  0
  2 27  1  0  0  0  0
  3  5  1  0  0  0  0
  3 12  2  0  0  0  0
  4  5  1  0  0  0  0
  4  6  1  0  0  0  0
  4  8  2  0  0  0  0
  5  7  2  0  0  0  0
  6 11  2  0  0  0  0
  7 10  1  0  0  0  0
  7 14  1  0  0  0  0
  8  9  1  0  0  0  0
  8 24  1  0  0  0  0
  9 10  2  0  0  0  0
  9 15  1  0  0  0  0
 10 25  1  0  0  0  0
 11 12  1  0  0  0  0
 11 26  1  0  0  0  0
 12 16  1  0  0  0  0
 13 17  2  0  0  0  0
 13 18  1  0  0  0  0
 14 28  1  0  0  0  0
 14 29  1  0  0  0  0
 14 30  1  0  0  0  0
 15 31  1  0  0  0  0
 15 32  1  0  0  0  0
 15 33  1  0  0  0  0
 16 34  1  0  0  0  0
 16 35  1  0  0  0  0
 16 36  1  0  0  0  0
 17 20  1  0  0  0  0
 17 37  1  0  0  0  0
 18 21  2  0  0  0  0
 18 38  1  0  0  0  0
 19 20  2  0  0  0  0
 19 21  1  0  0  0  0
 19 22  1  0  0  0  0
 20 39  1  0  0  0  0
 21 40  1  0  0  0  0
 22 23  1  0  0  0  0
 23 41  1  0  0  0  0
 23 42  1  0  0  0  0
 23 43  1  0  0  0  0
M  END
> <PUBCHEM_COMPOUND_CID>
798238

> <PUBCHEM_CONFORMER_RMSD>
0.6

> <PUBCHEM_CONFORMER_DIVERSEORDER>
1
15
18
6
13
4
19
16
2
17
14
3
20
8
10
11
7
5
9
12

> <PUBCHEM_MMFF94_PARTIAL_CHARGES>
30
1 -0.57
10 -0.15
11 -0.15
12 0.17
13 0.1
14 0.14
15 0.14
16 0.14
17 -0.15
18 -0.15
19 0.09
2 -0.6
20 -0.15
21 -0.15
22 0.42
23 0.06
24 0.15
25 0.15
26 0.15
27 0.4
3 -0.62
37 0.15
38 0.15
39 0.15
40 0.15
5 0.31
6 0.1
7 -0.14
8 -0.15
9 -0.14

> <PUBCHEM_EFFECTIVE_ROTOR_COUNT>
3

> <PUBCHEM_PHARMACOPHORE_FEATURES>
7
1 1 acceptor
1 2 cation
1 2 donor
1 3 acceptor
6 13 17 18 19 20 21 rings
6 3 4 5 6 11 12 rings
6 4 5 7 8 9 10 rings

> <PUBCHEM_HEAVY_ATOM_COUNT>
23

> <PUBCHEM_ATOM_DEF_STEREO_COUNT>
0

> <PUBCHEM_ATOM_UDEF_STEREO_COUNT>
0

> <PUBCHEM_BOND_DEF_STEREO_COUNT>
0

> <PUBCHEM_BOND_UDEF_STEREO_COUNT>
0

> <PUBCHEM_ISOTOPIC_ATOM_COUNT>
0

> <PUBCHEM_COMPONENT_COUNT>
1

> <PUBCHEM_CACTVS_TAUTO_COUNT>
20

> <PUBCHEM_CONFORMER_ID>
000C2E1E00000001

> <PUBCHEM_MMFF94_ENERGY>
86.9296

> <PUBCHEM_FEATURE_SELFOVERLAP>
35.553

> <PUBCHEM_SHAPE_FINGERPRINT>
10 15 18200582697118739208
10319926 262 18267289951506615322
10366900 7 18130210593348312265
10411042 1 18192997243487246291
11045977 3 18201716271283040817
11056379 131 18335988566847811188
11370993 144 17631746962694722819
11595378 159 18041548149296759704
12035758 1 18338536179135599865
12107183 9 17467903078952813362
12166972 35 16805606992864129004
12236239 1 17168145628742710662
12403259 415 17988636399005443160
12596602 18 17676478459205008000
12616971 3 17240771700119762358
12788726 201 18115021909889949001
12838862 33 18335689517651057989
13140716 1 18338802324809963369
13402501 40 18273495667383030360
13540713 5 18049459316453765781
13668630 136 14707213205716916210
14341114 176 18411420588184020144
14844126 61 18334859467607655963
15042514 8 18408611370524805231
15961568 22 18262519320751625596
17349148 13 16660645154980529402
17492 89 17905047307214642507
17844677 252 18410297991465880096
1813 80 17675930910455482709
18927931 339 18408890645950993271
19141452 34 18342745126494486999
200 152 15213017141864756700
20510252 161 18197780999240786705
20600515 1 18341629113465502421
21033648 29 17560222666335197312
21033650 10 17973189269799394300
21267235 1 18335145336467395467
21792961 116 17917435273233761150
22122407 14 16056887948422838651
2297311 6 18410863152720596212
23198884 109 10519988175214762114
23366157 5 17681562755474778197
23402539 116 18333729139098517422
23557571 272 18342462495886893268
23559900 14 18413107255662717004
23845131 108 17475811853302521609
283562 15 18196370317675780385
335352 9 18408603674238725893
3383291 50 18262244430186678891
350125 39 18341614845636957224
3545911 37 18271808986908518748
3882209 13 17119423231859339278
4073 2 18411422830157403562
4409770 3 18114733838397424541
5104073 3 18340208603949186849
5364581 5 18198053879655759216
5486654 36 17896330284561193523
59755656 215 18342462491586748774
67856867 119 18115033038292715700
7226269 152 18187363216761590861

> <PUBCHEM_SHAPE_MULTIPOLES>
457.5
14.08
3.04
0.96
17.19
0.94
0.06
-3.1
3.82
-4.98
-0.25
0.97
-0.01
1.22

> <PUBCHEM_SHAPE_SELFOVERLAP>
999.833

> <PUBCHEM_SHAPE_VOLUME>
250.2

> <PUBCHEM_COORDINATE_TYPE>
2
5
10

$$$$
