9550751
  -OEChem-01171809233D

 62 65  0     0  0  0  0  0  0999 V2000
    8.1014   -0.9941    0.3613 O   0  0  0  0  0  0  0  0  0  0  0  0
    2.7879    2.0872   -1.7937 O   0  0  0  0  0  0  0  0  0  0  0  0
    6.3392   -2.4667    0.6118 O   0  0  0  0  0  0  0  0  0  0  0  0
    3.7807    0.3885   -0.5586 N   0  0  0  0  0  0  0  0  0  0  0  0
   -3.2376    0.4337   -0.3206 N   0  0  0  0  0  0  0  0  0  0  0  0
   -2.6921    2.0124    1.4019 N   0  0  0  0  0  0  0  0  0  0  0  0
   -4.2739   -0.3662   -0.7048 N   0  0  0  0  0  0  0  0  0  0  0  0
    6.0720   -0.1327    1.1488 C   0  0  0  0  0  0  0  0  0  0  0  0
    4.6457   -0.4963    1.5742 C   0  0  0  0  0  0  0  0  0  0  0  0
    6.0930    0.9521    0.0673 C   0  0  0  0  0  0  0  0  0  0  0  0
    3.7081   -0.7281    0.3885 C   0  0  0  0  0  0  0  0  0  0  0  0
    5.1216    0.6601   -1.0749 C   0  0  0  0  0  0  0  0  0  0  0  0
    2.7001    1.1595   -0.9852 C   0  0  0  0  0  0  0  0  0  0  0  0
    6.8237   -1.3454    0.6825 C   0  0  0  0  0  0  0  0  0  0  0  0
    1.3527    0.8152   -0.4022 C   0  0  0  0  0  0  0  0  0  0  0  0
    0.2809    1.7363   -0.9589 C   0  0  0  0  0  0  0  0  0  0  0  0
   -1.0771    1.4278   -0.4223 C   0  0  0  0  0  0  0  0  0  0  0  0
   -1.9836    0.5728   -0.9459 C   0  0  0  0  0  0  0  0  0  0  0  0
   -1.5314    2.1446    0.8323 C   0  0  0  0  0  0  0  0  0  0  0  0
   -3.5665    1.1508    0.8261 C   0  0  0  0  0  0  0  0  0  0  0  0
    8.9349   -2.0617   -0.1010 C   0  0  0  0  0  0  0  0  0  0  0  0
   -1.7589   -0.2713   -2.1734 C   0  0  0  0  0  0  0  0  0  0  0  0
   -0.5649    3.1045    1.4939 C   0  0  0  0  0  0  0  0  0  0  0  0
   -4.8491    0.7881    1.1678 C   0  0  0  0  0  0  0  0  0  0  0  0
   -5.2291   -0.1418    0.1948 C   0  0  0  0  0  0  0  0  0  0  0  0
   10.3107   -1.5132   -0.4137 C   0  0  0  0  0  0  0  0  0  0  0  0
   -6.4929   -0.8252    0.1045 C   0  0  0  0  0  0  0  0  0  0  0  0
   -7.2148   -1.1044    1.2627 C   0  0  0  0  0  0  0  0  0  0  0  0
   -6.9890   -1.2046   -1.1406 C   0  0  0  0  0  0  0  0  0  0  0  0
   -8.4393   -1.7669    1.1753 C   0  0  0  0  0  0  0  0  0  0  0  0
   -8.2136   -1.8669   -1.2280 C   0  0  0  0  0  0  0  0  0  0  0  0
   -8.9386   -2.1481   -0.0699 C   0  0  0  0  0  0  0  0  0  0  0  0
    6.6039    0.2304    2.0381 H   0  0  0  0  0  0  0  0  0  0  0  0
    4.6384   -1.3766    2.2278 H   0  0  0  0  0  0  0  0  0  0  0  0
    4.2457    0.3368    2.1677 H   0  0  0  0  0  0  0  0  0  0  0  0
    7.0967    1.1127   -0.3411 H   0  0  0  0  0  0  0  0  0  0  0  0
    5.7960    1.9005    0.5350 H   0  0  0  0  0  0  0  0  0  0  0  0
    2.6950   -0.8872    0.7614 H   0  0  0  0  0  0  0  0  0  0  0  0
    3.9859   -1.6342   -0.1613 H   0  0  0  0  0  0  0  0  0  0  0  0
    5.1073    1.5059   -1.7696 H   0  0  0  0  0  0  0  0  0  0  0  0
    5.4425   -0.2214   -1.6422 H   0  0  0  0  0  0  0  0  0  0  0  0
    1.1174   -0.2241   -0.6602 H   0  0  0  0  0  0  0  0  0  0  0  0
    1.4076    0.9022    0.6874 H   0  0  0  0  0  0  0  0  0  0  0  0
    0.2643    1.6601   -2.0541 H   0  0  0  0  0  0  0  0  0  0  0  0
    0.5420    2.7862   -0.7845 H   0  0  0  0  0  0  0  0  0  0  0  0
    8.4973   -2.5010   -1.0044 H   0  0  0  0  0  0  0  0  0  0  0  0
    9.0103   -2.8294    0.6772 H   0  0  0  0  0  0  0  0  0  0  0  0
   -1.9315   -1.3294   -1.9469 H   0  0  0  0  0  0  0  0  0  0  0  0
   -2.4445    0.0297   -2.9728 H   0  0  0  0  0  0  0  0  0  0  0  0
   -0.7417   -0.1978   -2.5658 H   0  0  0  0  0  0  0  0  0  0  0  0
   -0.4175    3.9805    0.8565 H   0  0  0  0  0  0  0  0  0  0  0  0
   -0.9747    3.4491    2.4491 H   0  0  0  0  0  0  0  0  0  0  0  0
    0.3914    2.6213    1.7000 H   0  0  0  0  0  0  0  0  0  0  0  0
   -5.4113    1.1664    2.0103 H   0  0  0  0  0  0  0  0  0  0  0  0
   10.9753   -2.3045   -0.7714 H   0  0  0  0  0  0  0  0  0  0  0  0
   10.2489   -0.7309   -1.1775 H   0  0  0  0  0  0  0  0  0  0  0  0
   10.7539   -1.0542    0.4762 H   0  0  0  0  0  0  0  0  0  0  0  0
   -6.8475   -0.8298    2.2481 H   0  0  0  0  0  0  0  0  0  0  0  0
   -6.4512   -0.9920   -2.0614 H   0  0  0  0  0  0  0  0  0  0  0  0
   -9.0030   -1.9882    2.0770 H   0  0  0  0  0  0  0  0  0  0  0  0
   -8.6037   -2.1623   -2.1976 H   0  0  0  0  0  0  0  0  0  0  0  0
   -9.8920   -2.6640   -0.1379 H   0  0  0  0  0  0  0  0  0  0  0  0
  1 14  1  0  0  0  0
  1 21  1  0  0  0  0
  2 13  2  0  0  0  0
  3 14  2  0  0  0  0
  4 11  1  0  0  0  0
  4 12  1  0  0  0  0
  4 13  1  0  0  0  0
  5  7  1  0  0  0  0
  5 18  1  0  0  0  0
  5 20  1  0  0  0  0
  6 19  2  0  0  0  0
  6 20  1  0  0  0  0
  7 25  2  0  0  0  0
  8  9  1  0  0  0  0
  8 10  1  0  0  0  0
  8 14  1  0  0  0  0
  8 33  1  0  0  0  0
  9 11  1  0  0  0  0
  9 34  1  0  0  0  0
  9 35  1  0  0  0  0
 10 12  1  0  0  0  0
 10 36  1  0  0  0  0
 10 37  1  0  0  0  0
 11 38  1  0  0  0  0
 11 39  1  0  0  0  0
 12 40  1  0  0  0  0
 12 41  1  0  0  0  0
 13 15  1  0  0  0  0
 15 16  1  0  0  0  0
 15 42  1  0  0  0  0
 15 43  1  0  0  0  0
 16 17  1  0  0  0  0
 16 44  1  0  0  0  0
 16 45  1  0  0  0  0
 17 18  2  0  0  0  0
 17 19  1  0  0  0  0
 18 22  1  0  0  0  0
 19 23  1  0  0  0  0
 20 24  2  0  0  0  0
 21 26  1  0  0  0  0
 21 46  1  0  0  0  0
 21 47  1  0  0  0  0
 22 48  1  0  0  0  0
 22 49  1  0  0  0  0
 22 50  1  0  0  0  0
 23 51  1  0  0  0  0
 23 52  1  0  0  0  0
 23 53  1  0  0  0  0
 24 25  1  0  0  0  0
 24 54  1  0  0  0  0
 25 27  1  0  0  0  0
 26 55  1  0  0  0  0
 26 56  1  0  0  0  0
 26 57  1  0  0  0  0
 27 28  2  0  0  0  0
 27 29  1  0  0  0  0
 28 30  1  0  0  0  0
 28 58  1  0  0  0  0
 29 31  2  0  0  0  0
 29 59  1  0  0  0  0
 30 32  2  0  0  0  0
 30 60  1  0  0  0  0
 31 32  1  0  0  0  0
 31 61  1  0  0  0  0
 32 62  1  0  0  0  0
M  END
> <PUBCHEM_COMPOUND_CID>
9550751

> <PUBCHEM_CONFORMER_RMSD>
1

> <PUBCHEM_CONFORMER_DIVERSEORDER>
1
32
35
17
47
13
33
6
50
29
23
38
36
55
42
34
31
22
18
45
39
8
48
28
11
20
25
2
51
24
52
21
46
16
53
26
40
37
19
14
10
27
15
3
54
12
30
4
43
5
7
41
49
9
44

> <PUBCHEM_MMFF94_PARTIAL_CHARGES>
35
1 -0.43
11 0.3
12 0.3
13 0.57
14 0.66
15 0.06
16 0.14
17 -0.12
18 -0.17
19 0.37
2 -0.57
20 -0.03
21 0.28
22 0.14
23 0.06
24 -0.15
25 0.23
27 0.05
28 -0.15
29 -0.15
3 -0.57
30 -0.15
31 -0.15
32 -0.15
4 -0.66
5 0.6
54 0.15
58 0.15
59 0.15
6 -0.58
60 0.15
61 0.15
62 0.15
7 -0.71
8 0.06

> <PUBCHEM_EFFECTIVE_ROTOR_COUNT>
9.2

> <PUBCHEM_PHARMACOPHORE_FEATURES>
8
1 2 acceptor
1 3 acceptor
1 6 acceptor
1 7 acceptor
5 5 7 20 24 25 rings
6 27 28 29 30 31 32 rings
6 4 8 9 10 11 12 rings
6 5 6 17 18 19 20 rings

> <PUBCHEM_HEAVY_ATOM_COUNT>
32

> <PUBCHEM_ATOM_DEF_STEREO_COUNT>
0

> <PUBCHEM_ATOM_UDEF_STEREO_COUNT>
0

> <PUBCHEM_BOND_DEF_STEREO_COUNT>
0

> <PUBCHEM_BOND_UDEF_STEREO_COUNT>
0

> <PUBCHEM_ISOTOPIC_ATOM_COUNT>
0

> <PUBCHEM_COMPONENT_COUNT>
1

> <PUBCHEM_CACTVS_TAUTO_COUNT>
1

> <PUBCHEM_CONFORMER_ID>
0091BB9F00000001

> <PUBCHEM_MMFF94_ENERGY>
69.2472

> <PUBCHEM_FEATURE_SELFOVERLAP>
40.725

> <PUBCHEM_SHAPE_FINGERPRINT>
10 15 16845287267962000320
10190206 1 14418121895303019871
10533779 47 15697736847175545414
11135609 99 18335424611719451510
11297750 10 18341321280459970081
11386260 185 15502663740754458590
11456790 92 15913609475563222898
11621639 179 9439134108811969795
11973863 73 18411146819022009539
12120059 9 17417810613776996165
12539745 222 18342739581544554369
13383668 90 16443342101327579315
13540713 5 16770688840345151037
13668630 136 17894909628794306418
13782708 43 18261673779303101813
14918687 75 18341893018068452782
14931854 50 14273450357942591872
150020 25 15936412264259214326
15064981 194 8645903629463054047
15183329 4 13406786718722994973
15188451 53 18411135835646381992
15198563 99 15936676113597674007
15320294 125 18343015623160627151
15347590 135 16773802480294980379
15510800 12 18113631079247020955
15690457 1 18408039624087906626
16728433 281 13696406830649921183
16993427 108 18342452634451934953
1818759 1 18333735714598625474
18393751 57 15626222433356594237
19302320 297 14117509966161823834
19841028 212 18259983811881039530
20105231 36 18131073689667708838
2026 5 18113897165820341579
21307412 95 16081377371013807465
21792934 111 17418096534040024761
21792938 703 18189633687352740294
21792961 116 18408882946340240797
21987483 16 17842831403133490739
22224240 67 15195291941390306109
23389318 12 17749116587055925238
23528940 14 18339074901205839314
23559900 14 14273749468535100644
23576562 1 11459006324605727251
3383291 50 18272091630249099191
3711267 37 9871475352381578291
397830 11 13038909984510135317
406291 66 18336262366871282530
4093350 32 11455899057263667348
4461854 278 18201722864148602670
44880568 143 16370719323018852709
4516262 110 10231762166786450992
474113 269 18412818097933922279
4760202 170 11314317157454271510
5028188 123 18264778671581176988
5104073 3 16915956070943797525
5385378 56 13686301249781184452
54039377 194 18407760326860250918
57303763 39 18059855138712611942
57527293 21 16773218717621197636
636783 126 17632308844008740582
6691757 9 16487243370865982813
9689198 14 11095888185399500397
9896288 288 17915464904392462209
9953998 17 14979956991410450495
9962374 69 18261108600145706806

> <PUBCHEM_SHAPE_MULTIPOLES>
621.01
31.5
2.6
1.57
16.95
0.54
-0.19
-32.23
3.53
-0.1
0.5
-0.77
0.28
-1.63

> <PUBCHEM_SHAPE_SELFOVERLAP>
1326.383

> <PUBCHEM_SHAPE_VOLUME>
341.7

> <PUBCHEM_COORDINATE_TYPE>
2
5
10

$$$$
