16410920
  -OEChem-01171809343D

 52 55  0     1  0  0  0  0  0999 V2000
    0.7358   -1.4000    1.3753 O   0  0  0  0  0  0  0  0  0  0  0  0
    0.1540    3.1197    0.3007 O   0  0  0  0  0  0  0  0  0  0  0  0
   -6.9952    0.2394   -0.9349 O   0  0  0  0  0  0  0  0  0  0  0  0
    1.7686    1.1184    1.1210 N   0  0  0  0  0  0  0  0  0  0  0  0
    0.4742    0.8644    0.8428 N   0  0  0  0  0  0  0  0  0  0  0  0
   -2.1442   -1.7353    0.7101 N   0  0  0  0  0  0  0  0  0  0  0  0
   -1.6479    1.7056    0.1308 N   0  0  0  0  0  0  0  0  0  0  0  0
    4.0791    0.6042    0.5667 C   0  0  2  0  0  0  0  0  0  0  0  0
    4.7418    1.1419   -0.7157 C   0  0  1  0  0  0  0  0  0  0  0  0
    4.6955   -0.7439    1.0068 C   0  0  1  0  0  0  0  0  0  0  0  0
    4.6713    0.1232   -1.8674 C   0  0  0  0  0  0  0  0  0  0  0  0
    4.9857   -1.2889   -1.4431 C   0  0  0  0  0  0  0  0  0  0  0  0
    5.0082   -1.6607   -0.1515 C   0  0  0  0  0  0  0  0  0  0  0  0
    4.1745    2.4947   -1.1520 C   0  0  0  0  0  0  0  0  0  0  0  0
    5.9645   -0.5266    1.8372 C   0  0  0  0  0  0  0  0  0  0  0  0
    2.5920    0.4448    0.3899 C   0  0  0  0  0  0  0  0  0  0  0  0
    5.2626   -2.2627   -2.5508 C   0  0  0  0  0  0  0  0  0  0  0  0
   -1.3687   -0.6094    0.6765 C   0  0  0  0  0  0  0  0  0  0  0  0
   -2.1622    0.4312    0.2612 C   0  0  0  0  0  0  0  0  0  0  0  0
   -3.4697   -0.0602    0.0282 C   0  0  0  0  0  0  0  0  0  0  0  0
    0.0242   -0.4714    1.0022 C   0  0  0  0  0  0  0  0  0  0  0  0
   -3.4322   -1.4292    0.3184 C   0  0  0  0  0  0  0  0  0  0  0  0
   -0.3063    1.9807    0.4156 C   0  0  0  0  0  0  0  0  0  0  0  0
   -4.6852    0.5099   -0.3992 C   0  0  0  0  0  0  0  0  0  0  0  0
   -4.5564   -2.2544    0.2001 C   0  0  0  0  0  0  0  0  0  0  0  0
   -5.8161   -0.3056   -0.5214 C   0  0  0  0  0  0  0  0  0  0  0  0
   -5.7505   -1.6658   -0.2259 C   0  0  0  0  0  0  0  0  0  0  0  0
   -6.9974    1.6361   -1.2216 C   0  0  0  0  0  0  0  0  0  0  0  0
    4.2234    1.3401    1.3701 H   0  0  0  0  0  0  0  0  0  0  0  0
    5.8045    1.3093   -0.4898 H   0  0  0  0  0  0  0  0  0  0  0  0
    3.9726   -1.2669    1.6478 H   0  0  0  0  0  0  0  0  0  0  0  0
    5.3834    0.4341   -2.6428 H   0  0  0  0  0  0  0  0  0  0  0  0
    3.6775    0.1346   -2.3322 H   0  0  0  0  0  0  0  0  0  0  0  0
    5.2466   -2.6911    0.1030 H   0  0  0  0  0  0  0  0  0  0  0  0
    3.1259    2.4181   -1.4575 H   0  0  0  0  0  0  0  0  0  0  0  0
    4.2400    3.2237   -0.3375 H   0  0  0  0  0  0  0  0  0  0  0  0
    4.7400    2.8914   -2.0021 H   0  0  0  0  0  0  0  0  0  0  0  0
    6.7499   -0.0275    1.2595 H   0  0  0  0  0  0  0  0  0  0  0  0
    5.7505    0.0877    2.7184 H   0  0  0  0  0  0  0  0  0  0  0  0
    6.3684   -1.4816    2.1923 H   0  0  0  0  0  0  0  0  0  0  0  0
    2.2540   -0.2532   -0.3986 H   0  0  0  0  0  0  0  0  0  0  0  0
    4.4026   -2.3228   -3.2256 H   0  0  0  0  0  0  0  0  0  0  0  0
    5.4621   -3.2715   -2.1747 H   0  0  0  0  0  0  0  0  0  0  0  0
    6.1364   -1.9432   -3.1279 H   0  0  0  0  0  0  0  0  0  0  0  0
   -1.8258   -2.6559    0.9800 H   0  0  0  0  0  0  0  0  0  0  0  0
   -2.2676    2.4475   -0.1788 H   0  0  0  0  0  0  0  0  0  0  0  0
   -4.6775    1.5713   -0.6149 H   0  0  0  0  0  0  0  0  0  0  0  0
   -4.5073   -3.3136    0.4295 H   0  0  0  0  0  0  0  0  0  0  0  0
   -6.6385   -2.2858   -0.3260 H   0  0  0  0  0  0  0  0  0  0  0  0
   -8.0129    1.8995   -1.5354 H   0  0  0  0  0  0  0  0  0  0  0  0
   -6.3334    1.8773   -2.0586 H   0  0  0  0  0  0  0  0  0  0  0  0
   -6.7758    2.2315   -0.3293 H   0  0  0  0  0  0  0  0  0  0  0  0
  1 21  2  0  0  0  0
  2 23  2  0  0  0  0
  3 26  1  0  0  0  0
  3 28  1  0  0  0  0
  4  5  1  0  0  0  0
  4 16  2  0  0  0  0
  5 21  1  0  0  0  0
  5 23  1  0  0  0  0
  6 18  1  0  0  0  0
  6 22  1  0  0  0  0
  6 45  1  0  0  0  0
  7 19  1  0  0  0  0
  7 23  1  0  0  0  0
  7 46  1  0  0  0  0
  8  9  1  0  0  0  0
  8 10  1  0  0  0  0
  8 16  1  0  0  0  0
  8 29  1  0  0  0  0
  9 11  1  0  0  0  0
  9 14  1  0  0  0  0
  9 30  1  0  0  0  0
 10 13  1  0  0  0  0
 10 15  1  0  0  0  0
 10 31  1  0  0  0  0
 11 12  1  0  0  0  0
 11 32  1  0  0  0  0
 11 33  1  0  0  0  0
 12 13  2  0  0  0  0
 12 17  1  0  0  0  0
 13 34  1  0  0  0  0
 14 35  1  0  0  0  0
 14 36  1  0  0  0  0
 14 37  1  0  0  0  0
 15 38  1  0  0  0  0
 15 39  1  0  0  0  0
 15 40  1  0  0  0  0
 16 41  1  0  0  0  0
 17 42  1  0  0  0  0
 17 43  1  0  0  0  0
 17 44  1  0  0  0  0
 18 19  2  0  0  0  0
 18 21  1  0  0  0  0
 19 20  1  0  0  0  0
 20 22  2  0  0  0  0
 20 24  1  0  0  0  0
 22 25  1  0  0  0  0
 24 26  2  0  0  0  0
 24 47  1  0  0  0  0
 25 27  2  0  0  0  0
 25 48  1  0  0  0  0
 26 27  1  0  0  0  0
 27 49  1  0  0  0  0
 28 50  1  0  0  0  0
 28 51  1  0  0  0  0
 28 52  1  0  0  0  0
M  END
> <PUBCHEM_COMPOUND_CID>
16410920

> <PUBCHEM_CONFORMER_RMSD>
0.8

> <PUBCHEM_CONFORMER_DIVERSEORDER>
1
13
4
10
23
2
22
12
3
15
21
18
5
20
17
7
14
9
6
8
11
24
19
16

> <PUBCHEM_MMFF94_PARTIAL_CHARGES>
31
1 -0.57
10 0.14
11 0.14
12 -0.28
13 -0.29
16 0.33
17 0.14
18 -0.24
19 0.06
2 -0.57
21 0.71
22 -0.15
23 0.69
24 -0.15
25 -0.15
26 0.08
27 -0.15
28 0.28
3 -0.36
34 0.15
4 -0.51
41 0.06
45 0.27
46 0.37
47 0.15
48 0.15
49 0.15
5 -0.06
6 0.03
7 -0.49
8 0.06

> <PUBCHEM_EFFECTIVE_ROTOR_COUNT>
3.8

> <PUBCHEM_PHARMACOPHORE_FEATURES>
11
1 1 acceptor
1 2 acceptor
1 3 acceptor
1 4 acceptor
1 6 cation
1 6 donor
1 7 donor
5 6 18 19 20 22 rings
6 20 22 24 25 26 27 rings
6 5 7 18 19 21 23 rings
6 8 9 10 11 12 13 rings

> <PUBCHEM_HEAVY_ATOM_COUNT>
28

> <PUBCHEM_ATOM_DEF_STEREO_COUNT>
1

> <PUBCHEM_ATOM_UDEF_STEREO_COUNT>
2

> <PUBCHEM_BOND_DEF_STEREO_COUNT>
1

> <PUBCHEM_BOND_UDEF_STEREO_COUNT>
0

> <PUBCHEM_ISOTOPIC_ATOM_COUNT>
0

> <PUBCHEM_COMPONENT_COUNT>
1

> <PUBCHEM_CACTVS_TAUTO_COUNT>
12

> <PUBCHEM_CONFORMER_ID>
00FA692800000001

> <PUBCHEM_MMFF94_ENERGY>
71.8872

> <PUBCHEM_FEATURE_SELFOVERLAP>
56.024

> <PUBCHEM_SHAPE_FINGERPRINT>
10 15 9223223044497573007
10670039 82 13118548607810190438
10693767 8 18202557367703761095
11796584 16 18410008862071731114
12236239 1 17603299371532374123
12596602 18 12823299000501958679
12670543 26 18409446981997176173
12730499 353 11963385215894440280
13150687 139 18054248763662252380
13533116 47 16343704322651709058
13782708 43 16917064473718424447
14251752 14 18187077339543602677
14294032 229 17752199479151390741
14528608 73 17894629283394234946
14931854 50 18188790409014482796
15183329 4 18335422348461103205
15475509 8 18341620270127891625
15510800 12 17916868985674630526
16760501 71 10665241366204713711
18222031 100 17418099844726378608
21267235 1 18334855078746736275
21279426 13 18409163316671761485
21307412 95 18272381853683685295
21637258 2 16343982485991901999
21641784 216 17676490493070641893
22061861 79 18060139842691988311
22079108 93 10737287952288408371
2215653 11 18273494580993674783
23559900 14 18270390711525043345
23569914 152 17338427888195637445
23569943 247 17916032252804468095
24771750 20 17542234896202061621
2838139 119 15140955196835171287
29717793 49 18412544305904533020
3004659 81 18260266356884757802
335352 9 18335973230152567189
34797466 226 18335711597101786031
3886686 26 12314450379439171646
4058900 60 17459184085152338355
44317340 157 14996292417930651946
474113 269 14548454657906820077
5718773 13 17916311529063664438
59755656 215 18410570644026071767
6328613 192 18186796985775292293
86090 222 16414660210285925990
8988823 20 16558744629347668290
960060 61 18338805606164639828
9658208 31 7925619025954711352

> <PUBCHEM_SHAPE_MULTIPOLES>
538.69
17.89
2.52
1.61
11.46
0.66
0.57
-3.8
7.02
-0.42
0.54
-2.88
-0.5
1.36

> <PUBCHEM_SHAPE_SELFOVERLAP>
1173.345

> <PUBCHEM_SHAPE_VOLUME>
291.7

> <PUBCHEM_COORDINATE_TYPE>
2
5
10

$$$$
