49789126
  -OEChem-01171810193D

 44 46  0     1  0  0  0  0  0999 V2000
   -1.9528    2.0128   -2.0875 S   0  0  0  0  0  0  0  0  0  0  0  0
    4.9101   -1.5237    1.5898 F   0  0  0  0  0  0  0  0  0  0  0  0
    7.0554   -1.8188    1.2962 F   0  0  0  0  0  0  0  0  0  0  0  0
    5.6735   -2.3612   -0.3075 F   0  0  0  0  0  0  0  0  0  0  0  0
    6.0471   -0.1526    0.1551 O   0  0  0  0  0  0  0  0  0  0  0  0
    1.0487   -0.8943    0.0197 O   0  0  0  0  0  0  0  0  0  0  0  0
   -3.4155   -2.5804   -2.2483 N   0  0  0  0  0  0  0  0  0  0  0  0
   -1.6924   -0.3655   -1.1084 N   0  0  0  0  0  0  0  0  0  0  0  0
    0.2808    1.0840   -0.9816 N   0  0  0  0  0  0  0  0  0  0  0  0
   -3.8844   -1.4117   -1.4613 C   0  0  1  0  0  0  0  0  0  0  0  0
   -4.1336   -1.8832    0.0073 C   0  0  0  0  0  0  0  0  0  0  0  0
   -2.9821   -0.2503   -1.5894 C   0  0  0  0  0  0  0  0  0  0  0  0
   -4.8076   -0.8240    0.8494 C   0  0  0  0  0  0  0  0  0  0  0  0
   -3.3083    0.9644   -2.1549 C   0  0  0  0  0  0  0  0  0  0  0  0
   -4.0373    0.0963    1.5602 C   0  0  0  0  0  0  0  0  0  0  0  0
   -6.1997   -0.7672    0.9157 C   0  0  0  0  0  0  0  0  0  0  0  0
   -1.0585    0.7670   -1.3174 C   0  0  0  0  0  0  0  0  0  0  0  0
   -4.6592    1.0738    2.3373 C   0  0  0  0  0  0  0  0  0  0  0  0
   -6.8216    0.2102    1.6928 C   0  0  0  0  0  0  0  0  0  0  0  0
   -6.0513    1.1308    2.4034 C   0  0  0  0  0  0  0  0  0  0  0  0
    2.5497    0.8734   -0.1642 C   0  0  0  0  0  0  0  0  0  0  0  0
    1.2379    0.2746   -0.3538 C   0  0  0  0  0  0  0  0  0  0  0  0
    3.6829    0.0631   -0.0943 C   0  0  0  0  0  0  0  0  0  0  0  0
    2.6745    2.2583   -0.0524 C   0  0  0  0  0  0  0  0  0  0  0  0
    4.9410    0.6376    0.0873 C   0  0  0  0  0  0  0  0  0  0  0  0
    3.9324    2.8327    0.1295 C   0  0  0  0  0  0  0  0  0  0  0  0
    5.0658    2.0224    0.1991 C   0  0  0  0  0  0  0  0  0  0  0  0
    5.9044   -1.4685    0.6783 C   0  0  0  0  0  0  0  0  0  0  0  0
   -4.8620   -1.1385   -1.8827 H   0  0  0  0  0  0  0  0  0  0  0  0
   -3.1870   -2.1770    0.4814 H   0  0  0  0  0  0  0  0  0  0  0  0
   -4.7607   -2.7854    0.0112 H   0  0  0  0  0  0  0  0  0  0  0  0
   -4.0929   -3.3377   -2.1633 H   0  0  0  0  0  0  0  0  0  0  0  0
   -3.3938   -2.3304   -3.2367 H   0  0  0  0  0  0  0  0  0  0  0  0
   -4.2456    1.2805   -2.5907 H   0  0  0  0  0  0  0  0  0  0  0  0
   -2.9519    0.0604    1.5250 H   0  0  0  0  0  0  0  0  0  0  0  0
   -6.8106   -1.4773    0.3647 H   0  0  0  0  0  0  0  0  0  0  0  0
   -4.0594    1.7895    2.8918 H   0  0  0  0  0  0  0  0  0  0  0  0
   -7.9056    0.2550    1.7440 H   0  0  0  0  0  0  0  0  0  0  0  0
    0.5401    2.0153   -1.2929 H   0  0  0  0  0  0  0  0  0  0  0  0
   -6.5355    1.8917    3.0084 H   0  0  0  0  0  0  0  0  0  0  0  0
    3.5699   -1.0090   -0.2297 H   0  0  0  0  0  0  0  0  0  0  0  0
    1.8192    2.9272   -0.0617 H   0  0  0  0  0  0  0  0  0  0  0  0
    4.0294    3.9103    0.2257 H   0  0  0  0  0  0  0  0  0  0  0  0
    6.0429    2.4756    0.3427 H   0  0  0  0  0  0  0  0  0  0  0  0
  1 14  1  0  0  0  0
  1 17  1  0  0  0  0
  2 28  1  0  0  0  0
  3 28  1  0  0  0  0
  4 28  1  0  0  0  0
  5 25  1  0  0  0  0
  5 28  1  0  0  0  0
  6 22  2  0  0  0  0
  7 10  1  0  0  0  0
  7 32  1  0  0  0  0
  7 33  1  0  0  0  0
  8 12  1  0  0  0  0
  8 17  2  0  0  0  0
  9 17  1  0  0  0  0
  9 22  1  0  0  0  0
  9 39  1  0  0  0  0
 10 11  1  0  0  0  0
 10 12  1  0  0  0  0
 10 29  1  0  0  0  0
 11 13  1  0  0  0  0
 11 30  1  0  0  0  0
 11 31  1  0  0  0  0
 12 14  2  0  0  0  0
 13 15  2  0  0  0  0
 13 16  1  0  0  0  0
 14 34  1  0  0  0  0
 15 18  1  0  0  0  0
 15 35  1  0  0  0  0
 16 19  2  0  0  0  0
 16 36  1  0  0  0  0
 18 20  2  0  0  0  0
 18 37  1  0  0  0  0
 19 20  1  0  0  0  0
 19 38  1  0  0  0  0
 20 40  1  0  0  0  0
 21 22  1  0  0  0  0
 21 23  2  0  0  0  0
 21 24  1  0  0  0  0
 23 25  1  0  0  0  0
 23 41  1  0  0  0  0
 24 26  2  0  0  0  0
 24 42  1  0  0  0  0
 25 27  2  0  0  0  0
 26 27  1  0  0  0  0
 26 43  1  0  0  0  0
 27 44  1  0  0  0  0
M  END
> <PUBCHEM_COMPOUND_CID>
49789126

> <PUBCHEM_CONFORMER_RMSD>
1

> <PUBCHEM_CONFORMER_DIVERSEORDER>
2
191
221
218
151
57
134
198
75
214
65
118
206
183
173
125
36
47
186
26
104
208
185
72
42
102
60
74
160
91
209
207
49
23
28
235
64
127
144
182
219
84
158
170
45
124
13
162
178
51
80
192
128
239
147
225
63
94
48
193
140
171
190
27
113
143
20
155
212
98
106
131
87
69
96
121
169
30
54
59
103
223
85
148
142
38
216
179
6
17
174
109
228
89
82
139
22
107
29
220
92
52
68
138
39
181
180
16
194
105
110
77
201
217
101
58
93
41
210
197
79
81
66
100
164
222
157
211
238
177
168
122
224
236
231
7
161
50
117
196
116
62
184
123
202
120
37
175
240
88
21
8
166
233
99
153
55
18
172
10
227
150
43
167
203
230
76
200
67
97
130
135
232
56
188
95
32
195
163
119
136
237
73
40
133
33
204
44
112
154
205
83
115
53
159
176
141
86
146
213
1
199
35
114
34
70
145
111
5
156
108
31
132
187
4
19
24
165
189
137
14
129
3
11
152
71
226
61
46
149
215
9
25
78
126
234
229
12
90
15

> <PUBCHEM_MMFF94_PARTIAL_CHARGES>
41
1 -0.08
10 0.45
11 0.14
12 0.05
13 -0.14
14 -0.11
15 -0.15
16 -0.15
17 0.44
18 -0.15
19 -0.15
2 -0.34
20 -0.15
21 0.09
22 0.54
23 -0.15
24 -0.15
25 0.08
26 -0.15
27 -0.15
28 1.3
3 -0.34
32 0.36
33 0.36
34 0.15
35 0.15
36 0.15
37 0.15
38 0.15
39 0.37
4 -0.34
40 0.15
41 0.15
42 0.15
43 0.15
44 0.15
5 -0.36
6 -0.57
7 -0.99
8 -0.57
9 -0.49

> <PUBCHEM_EFFECTIVE_ROTOR_COUNT>
8

> <PUBCHEM_PHARMACOPHORE_FEATURES>
8
1 5 acceptor
1 6 acceptor
1 7 cation
1 7 donor
1 9 donor
5 1 8 12 14 17 rings
6 13 15 16 18 19 20 rings
6 21 23 24 25 26 27 rings

> <PUBCHEM_HEAVY_ATOM_COUNT>
28

> <PUBCHEM_ATOM_DEF_STEREO_COUNT>
0

> <PUBCHEM_ATOM_UDEF_STEREO_COUNT>
1

> <PUBCHEM_BOND_DEF_STEREO_COUNT>
0

> <PUBCHEM_BOND_UDEF_STEREO_COUNT>
0

> <PUBCHEM_ISOTOPIC_ATOM_COUNT>
0

> <PUBCHEM_COMPONENT_COUNT>
1

> <PUBCHEM_CACTVS_TAUTO_COUNT>
3

> <PUBCHEM_CONFORMER_ID>
02F7B8C600000002

> <PUBCHEM_MMFF94_ENERGY>
68.9464

> <PUBCHEM_FEATURE_SELFOVERLAP>
40.596

> <PUBCHEM_SHAPE_FINGERPRINT>
105312 117 14405196062482690085
11135609 12 16805611347623109781
11545043 162 17676479523919014892
11552529 35 17697872919028928735
12107183 9 18131076995541825322
12422481 6 18342463607855778429
12596602 18 18340493382494083291
12616971 3 18272370888468075996
12760667 363 16805610283035722713
13673619 4 17822014181690854804
13782708 43 17603858980249224114
13941219 33 18260551134501382475
14251732 14 14634874158071709376
14904525 67 16486684887890189208
14950920 106 18130221683154265629
15131766 46 18049447242732108629
15183329 4 18343297081109980966
15238133 3 17203614795559556008
15352257 5 16805323253970025042
15510800 12 16081664378340854019
15799311 1 18261404385494680790
16112460 7 18339642342840068210
17844677 252 18260541225970035860
18927931 339 17385719193128818015
193927 3 16515405200684769341
20101258 96 17603300467013481165
21150785 3 12251908100809488026
21859007 373 14907911431190865032
2303208 19 17603865602650892460
23522609 53 18196675066299728612
23559900 14 18115847703299469172
23569943 247 18188475887668931586
2838139 119 13398089552051488407
312425 54 18337676411669845339
34797466 226 15864357990758598852
3663271 9 18272090564357828770
393628 179 16199589057588307169
437815 12 16371014048787256953
474113 269 17677903508491200147
5104073 3 18130498742941616912
513202 73 18040435460746353181
57307002 85 16805616823564410146
59755656 215 16370725928688875737
7918774 8 17095530620811400561
8863177 126 17967814964031195418
999808 66 17822009783491538234

> <PUBCHEM_SHAPE_MULTIPOLES>
531.57
18.96
2.51
2.26
10.57
0.07
0.13
5.99
-11.52
2.93
0.42
-4.74
-0.23
-1.84

> <PUBCHEM_SHAPE_SELFOVERLAP>
1133.613

> <PUBCHEM_SHAPE_VOLUME>
298.2

> <PUBCHEM_COORDINATE_TYPE>
2
5
10

$$$$
