44825859
  -OEChem-01171810143D

 38 41  0     1  0  0  0  0  0999 V2000
   -3.8011   -0.9927    3.2563 Cl  0  0  0  0  0  0  0  0  0  0  0  0
   -5.6775   -0.2096   -1.7437 Cl  0  0  0  0  0  0  0  0  0  0  0  0
    0.0703    1.1858   -0.0027 N   0  0  1  0  0  0  0  0  0  0  0  0
    2.9069    0.2181    0.5291 N   0  0  0  0  0  0  0  0  0  0  0  0
    4.1687    0.1572    1.0457 N   0  0  0  0  0  0  0  0  0  0  0  0
    4.5824    1.3775    1.3377 N   0  0  0  0  0  0  0  0  0  0  0  0
    1.2401    1.1643   -3.3383 N   0  0  0  0  0  0  0  0  0  0  0  0
    0.2710    0.2015   -1.0811 C   0  0  2  0  0  0  0  0  0  0  0  0
    1.1779    2.1272    0.1505 C   0  0  0  0  0  0  0  0  0  0  0  0
    1.0605   -1.0088   -0.6167 C   0  0  0  0  0  0  0  0  0  0  0  0
   -1.1867    1.9235   -0.1810 C   0  0  0  0  0  0  0  0  0  0  0  0
    2.4865    1.5404    0.5437 C   0  0  0  0  0  0  0  0  0  0  0  0
    2.2725   -0.9795    0.0959 C   0  0  0  0  0  0  0  0  0  0  0  0
   -2.3867    1.0709    0.1350 C   0  0  0  0  0  0  0  0  0  0  0  0
    0.5416   -2.2712   -0.9981 C   0  0  0  0  0  0  0  0  0  0  0  0
    2.9198   -2.1994    0.4004 C   0  0  0  0  0  0  0  0  0  0  0  0
    3.5758    2.2302    1.0405 C   0  0  0  0  0  0  0  0  0  0  0  0
    0.8140    0.7409   -2.3458 C   0  0  0  0  0  0  0  0  0  0  0  0
    1.1873   -3.4644   -0.6824 C   0  0  0  0  0  0  0  0  0  0  0  0
    2.3801   -3.4273    0.0181 C   0  0  0  0  0  0  0  0  0  0  0  0
   -3.3624    0.8511   -0.8371 C   0  0  0  0  0  0  0  0  0  0  0  0
   -2.5227    0.5009    1.4009 C   0  0  0  0  0  0  0  0  0  0  0  0
   -3.6342   -0.2889    1.6945 C   0  0  0  0  0  0  0  0  0  0  0  0
   -4.4740    0.0611   -0.5436 C   0  0  0  0  0  0  0  0  0  0  0  0
   -4.6099   -0.5087    0.7223 C   0  0  0  0  0  0  0  0  0  0  0  0
   -0.7177   -0.1936   -1.3465 H   0  0  0  0  0  0  0  0  0  0  0  0
    0.9173    2.8291    0.9561 H   0  0  0  0  0  0  0  0  0  0  0  0
    1.3132    2.7486   -0.7444 H   0  0  0  0  0  0  0  0  0  0  0  0
   -1.2565    2.3569   -1.1876 H   0  0  0  0  0  0  0  0  0  0  0  0
   -1.2375    2.7754    0.5115 H   0  0  0  0  0  0  0  0  0  0  0  0
   -0.3876   -2.3335   -1.5627 H   0  0  0  0  0  0  0  0  0  0  0  0
    3.8564   -2.2317    0.9530 H   0  0  0  0  0  0  0  0  0  0  0  0
    3.6628    3.2942    1.2043 H   0  0  0  0  0  0  0  0  0  0  0  0
    0.7601   -4.4141   -0.9890 H   0  0  0  0  0  0  0  0  0  0  0  0
    2.8954   -4.3497    0.2690 H   0  0  0  0  0  0  0  0  0  0  0  0
   -3.2560    1.2946   -1.8245 H   0  0  0  0  0  0  0  0  0  0  0  0
   -1.7647    0.6761    2.1612 H   0  0  0  0  0  0  0  0  0  0  0  0
   -5.4769   -1.1248    0.9513 H   0  0  0  0  0  0  0  0  0  0  0  0
  1 23  1  0  0  0  0
  2 24  1  0  0  0  0
  3  8  1  0  0  0  0
  3  9  1  0  0  0  0
  3 11  1  0  0  0  0
  4  5  1  0  0  0  0
  4 12  1  0  0  0  0
  4 13  1  0  0  0  0
  5  6  2  0  0  0  0
  6 17  1  0  0  0  0
  7 18  3  0  0  0  0
  8 10  1  0  0  0  0
  8 18  1  0  0  0  0
  8 26  1  0  0  0  0
  9 12  1  0  0  0  0
  9 27  1  0  0  0  0
  9 28  1  0  0  0  0
 10 13  1  0  0  0  0
 10 15  2  0  0  0  0
 11 14  1  0  0  0  0
 11 29  1  0  0  0  0
 11 30  1  0  0  0  0
 12 17  2  0  0  0  0
 13 16  2  0  0  0  0
 14 21  2  0  0  0  0
 14 22  1  0  0  0  0
 15 19  1  0  0  0  0
 15 31  1  0  0  0  0
 16 20  1  0  0  0  0
 16 32  1  0  0  0  0
 17 33  1  0  0  0  0
 19 20  2  0  0  0  0
 19 34  1  0  0  0  0
 20 35  1  0  0  0  0
 21 24  1  0  0  0  0
 21 36  1  0  0  0  0
 22 23  2  0  0  0  0
 22 37  1  0  0  0  0
 23 25  1  0  0  0  0
 24 25  2  0  0  0  0
 25 38  1  0  0  0  0
M  END
> <PUBCHEM_COMPOUND_CID>
44825859

> <PUBCHEM_CONFORMER_RMSD>
0.6

> <PUBCHEM_CONFORMER_DIVERSEORDER>
1
14
61
71
42
70
76
75
54
49
69
41
56
77
22
68
74
63
60
79
78
38
34
30
28
55
53
62
26
48
25
81
72
47
59
10
27
23
35
29
32
13
45
20
46
11
44
57
67
3
66
52
8
5
39
12
50
36
65
4
43
58
31
73
6
80
15
21
51
64
7
2
33
37
24
17
18
9
16
40
19

> <PUBCHEM_MMFF94_PARTIAL_CHARGES>
33
1 -0.18
10 -0.14
11 0.41
12 -0.33
13 -0.02
14 -0.14
15 -0.15
16 -0.15
17 0.08
18 0.36
19 -0.15
2 -0.18
20 -0.15
21 -0.15
22 -0.15
23 0.18
24 0.18
25 -0.15
3 -0.81
31 0.15
32 0.15
33 0.15
34 0.15
35 0.15
36 0.15
37 0.15
38 0.15
4 0.59
5 -0.42
6 -0.23
7 -0.56
8 0.61
9 0.45

> <PUBCHEM_EFFECTIVE_ROTOR_COUNT>
2.6

> <PUBCHEM_PHARMACOPHORE_FEATURES>
6
1 3 cation
1 7 acceptor
5 4 5 6 12 17 rings
6 10 13 15 16 19 20 rings
6 14 21 22 23 24 25 rings
7 3 4 8 9 10 12 13 rings

> <PUBCHEM_HEAVY_ATOM_COUNT>
25

> <PUBCHEM_ATOM_DEF_STEREO_COUNT>
0

> <PUBCHEM_ATOM_UDEF_STEREO_COUNT>
1

> <PUBCHEM_BOND_DEF_STEREO_COUNT>
0

> <PUBCHEM_BOND_UDEF_STEREO_COUNT>
0

> <PUBCHEM_ISOTOPIC_ATOM_COUNT>
0

> <PUBCHEM_COMPONENT_COUNT>
1

> <PUBCHEM_CACTVS_TAUTO_COUNT>
1

> <PUBCHEM_CONFORMER_ID>
02ABFD0300000001

> <PUBCHEM_MMFF94_ENERGY>
71.4367

> <PUBCHEM_FEATURE_SELFOVERLAP>
30.49

> <PUBCHEM_SHAPE_FINGERPRINT>
10366900 7 18336551533896549632
11135609 12 17605586325553072827
11578080 2 18046062662236174012
11595378 159 16200435745691311929
12596602 18 16988554745246571121
12633257 1 17833829374354372458
13544653 18 18264491693738535879
13911987 19 18266179628834842613
14223421 5 18267300932899240104
14341114 328 17203612579736239603
14787075 74 17703216446750078753
14790565 3 18194679504561794596
14844126 61 16609136011110178434
14863182 85 18335997427296842462
17138139 8 17199354304430531647
17809404 112 17894352168352857091
20028762 73 17917699198125534822
20511986 3 17631997694918014373
20603629 256 18130514024266704411
20645477 70 18338222787402395773
21304303 282 15732083722137859300
21421861 104 17844828996263984969
23419403 2 17972861584683925406
23557571 272 17604420791514456141
23559900 14 17749400229957236215
25222932 49 17843671395678680759
3052486 1 17978245072607308934
3797600 57 16988833986539717595
392239 28 18272086115046276674
563151 248 17131251538175498622
9709674 26 18262798458917161705

> <PUBCHEM_SHAPE_MULTIPOLES>
493.32
9.34
3.06
2.36
8.44
2.44
-0.14
-0.29
2.66
-3.91
-0.1
1.9
-0.19
1.24

> <PUBCHEM_SHAPE_SELFOVERLAP>
1062.961

> <PUBCHEM_SHAPE_VOLUME>
269.3

> <PUBCHEM_COORDINATE_TYPE>
2
5
10

$$$$
