9550750
  -OEChem-01171809233D

 62 66  0     0  0  0  0  0  0999 V2000
   -2.2286    2.8715    1.5904 O   0  0  0  0  0  0  0  0  0  0  0  0
   -3.3743    1.0400    0.7345 N   0  0  0  0  0  0  0  0  0  0  0  0
   -5.8349   -0.3601    0.1313 N   0  0  0  0  0  0  0  0  0  0  0  0
    3.5954    0.5049    0.1970 N   0  0  0  0  0  0  0  0  0  0  0  0
    3.0673    1.7479   -1.7861 N   0  0  0  0  0  0  0  0  0  0  0  0
    4.5908   -0.2864    0.6914 N   0  0  0  0  0  0  0  0  0  0  0  0
   -3.3794   -0.2154   -0.0196 C   0  0  0  0  0  0  0  0  0  0  0  0
   -4.6620    1.4881    1.2586 C   0  0  0  0  0  0  0  0  0  0  0  0
   -4.5827   -1.0992    0.3097 C   0  0  0  0  0  0  0  0  0  0  0  0
   -5.8193    1.0898    0.3456 C   0  0  0  0  0  0  0  0  0  0  0  0
   -2.2333    1.8103    0.9622 C   0  0  0  0  0  0  0  0  0  0  0  0
   -0.9426    1.2744    0.3929 C   0  0  0  0  0  0  0  0  0  0  0  0
    0.2215    2.2022    0.7087 C   0  0  0  0  0  0  0  0  0  0  0  0
   -7.0186   -1.0175   -0.1951 C   0  0  0  0  0  0  0  0  0  0  0  0
    1.5239    1.6775    0.1866 C   0  0  0  0  0  0  0  0  0  0  0  0
    2.3942    0.8713    0.8340 C   0  0  0  0  0  0  0  0  0  0  0  0
    1.9551    2.0884   -1.2061 C   0  0  0  0  0  0  0  0  0  0  0  0
   -8.0454   -0.3699   -0.9224 C   0  0  0  0  0  0  0  0  0  0  0  0
   -7.2448   -2.3612    0.1872 C   0  0  0  0  0  0  0  0  0  0  0  0
    3.9082    0.9482   -1.0848 C   0  0  0  0  0  0  0  0  0  0  0  0
    2.1807    0.3112    2.2163 C   0  0  0  0  0  0  0  0  0  0  0  0
    5.1380    0.4180   -1.4000 C   0  0  0  0  0  0  0  0  0  0  0  0
    1.0245    2.9747   -2.0075 C   0  0  0  0  0  0  0  0  0  0  0  0
    5.5052   -0.3275   -0.2751 C   0  0  0  0  0  0  0  0  0  0  0  0
   -9.2311   -1.0282   -1.2485 C   0  0  0  0  0  0  0  0  0  0  0  0
   -8.4305   -3.0195   -0.1392 C   0  0  0  0  0  0  0  0  0  0  0  0
   -9.4235   -2.3529   -0.8570 C   0  0  0  0  0  0  0  0  0  0  0  0
    6.7182   -1.0829   -0.1017 C   0  0  0  0  0  0  0  0  0  0  0  0
    7.8874   -0.6740   -0.7392 C   0  0  0  0  0  0  0  0  0  0  0  0
    6.7183   -2.2202    0.7029 C   0  0  0  0  0  0  0  0  0  0  0  0
    9.0627   -1.4062   -0.5715 C   0  0  0  0  0  0  0  0  0  0  0  0
    7.8937   -2.9523    0.8707 C   0  0  0  0  0  0  0  0  0  0  0  0
    9.0660   -2.5452    0.2335 C   0  0  0  0  0  0  0  0  0  0  0  0
   -2.4608   -0.7776    0.1658 H   0  0  0  0  0  0  0  0  0  0  0  0
   -3.3906    0.0580   -1.0819 H   0  0  0  0  0  0  0  0  0  0  0  0
   -4.6533    2.5739    1.4019 H   0  0  0  0  0  0  0  0  0  0  0  0
   -4.7787    1.0289    2.2480 H   0  0  0  0  0  0  0  0  0  0  0  0
   -4.5163   -1.4515    1.3464 H   0  0  0  0  0  0  0  0  0  0  0  0
   -4.5454   -1.9754   -0.3490 H   0  0  0  0  0  0  0  0  0  0  0  0
   -5.7222    1.5970   -0.6220 H   0  0  0  0  0  0  0  0  0  0  0  0
   -6.7523    1.4245    0.8150 H   0  0  0  0  0  0  0  0  0  0  0  0
   -0.7464    0.2949    0.8438 H   0  0  0  0  0  0  0  0  0  0  0  0
   -1.0594    1.1407   -0.6870 H   0  0  0  0  0  0  0  0  0  0  0  0
    0.2954    2.3440    1.7948 H   0  0  0  0  0  0  0  0  0  0  0  0
    0.0240    3.2126    0.3339 H   0  0  0  0  0  0  0  0  0  0  0  0
   -7.9249    0.6586   -1.2551 H   0  0  0  0  0  0  0  0  0  0  0  0
   -6.4994   -2.9082    0.7599 H   0  0  0  0  0  0  0  0  0  0  0  0
    2.9333    0.7058    2.9072 H   0  0  0  0  0  0  0  0  0  0  0  0
    2.2594   -0.7816    2.2027 H   0  0  0  0  0  0  0  0  0  0  0  0
    1.1971    0.5486    2.6292 H   0  0  0  0  0  0  0  0  0  0  0  0
    5.6709    0.5625   -2.3295 H   0  0  0  0  0  0  0  0  0  0  0  0
    0.9800    3.9695   -1.5560 H   0  0  0  0  0  0  0  0  0  0  0  0
    0.0248    2.5421   -2.0688 H   0  0  0  0  0  0  0  0  0  0  0  0
    1.4013    3.0858   -3.0297 H   0  0  0  0  0  0  0  0  0  0  0  0
  -10.0035   -0.5106   -1.8097 H   0  0  0  0  0  0  0  0  0  0  0  0
   -8.5822   -4.0500    0.1681 H   0  0  0  0  0  0  0  0  0  0  0  0
  -10.3467   -2.8655   -1.1109 H   0  0  0  0  0  0  0  0  0  0  0  0
    7.9194    0.2148   -1.3642 H   0  0  0  0  0  0  0  0  0  0  0  0
    5.8188   -2.5671    1.2055 H   0  0  0  0  0  0  0  0  0  0  0  0
    9.9762   -1.0883   -1.0657 H   0  0  0  0  0  0  0  0  0  0  0  0
    7.8963   -3.8403    1.4959 H   0  0  0  0  0  0  0  0  0  0  0  0
    9.9812   -3.1152    0.3643 H   0  0  0  0  0  0  0  0  0  0  0  0
  1 11  2  0  0  0  0
  2  7  1  0  0  0  0
  2  8  1  0  0  0  0
  2 11  1  0  0  0  0
  3  9  1  0  0  0  0
  3 10  1  0  0  0  0
  3 14  1  0  0  0  0
  4  6  1  0  0  0  0
  4 16  1  0  0  0  0
  4 20  1  0  0  0  0
  5 17  2  0  0  0  0
  5 20  1  0  0  0  0
  6 24  2  0  0  0  0
  7  9  1  0  0  0  0
  7 34  1  0  0  0  0
  7 35  1  0  0  0  0
  8 10  1  0  0  0  0
  8 36  1  0  0  0  0
  8 37  1  0  0  0  0
  9 38  1  0  0  0  0
  9 39  1  0  0  0  0
 10 40  1  0  0  0  0
 10 41  1  0  0  0  0
 11 12  1  0  0  0  0
 12 13  1  0  0  0  0
 12 42  1  0  0  0  0
 12 43  1  0  0  0  0
 13 15  1  0  0  0  0
 13 44  1  0  0  0  0
 13 45  1  0  0  0  0
 14 18  2  0  0  0  0
 14 19  1  0  0  0  0
 15 16  2  0  0  0  0
 15 17  1  0  0  0  0
 16 21  1  0  0  0  0
 17 23  1  0  0  0  0
 18 25  1  0  0  0  0
 18 46  1  0  0  0  0
 19 26  2  0  0  0  0
 19 47  1  0  0  0  0
 20 22  2  0  0  0  0
 21 48  1  0  0  0  0
 21 49  1  0  0  0  0
 21 50  1  0  0  0  0
 22 24  1  0  0  0  0
 22 51  1  0  0  0  0
 23 52  1  0  0  0  0
 23 53  1  0  0  0  0
 23 54  1  0  0  0  0
 24 28  1  0  0  0  0
 25 27  2  0  0  0  0
 25 55  1  0  0  0  0
 26 27  1  0  0  0  0
 26 56  1  0  0  0  0
 27 57  1  0  0  0  0
 28 29  2  0  0  0  0
 28 30  1  0  0  0  0
 29 31  1  0  0  0  0
 29 58  1  0  0  0  0
 30 32  2  0  0  0  0
 30 59  1  0  0  0  0
 31 33  2  0  0  0  0
 31 60  1  0  0  0  0
 32 33  1  0  0  0  0
 32 61  1  0  0  0  0
 33 62  1  0  0  0  0
M  END
> <PUBCHEM_COMPOUND_CID>
9550750

> <PUBCHEM_CONFORMER_RMSD>
1

> <PUBCHEM_CONFORMER_DIVERSEORDER>
1
14
15
29
42
31
35
25
5
33
17
40
39
27
45
24
12
13
7
6
16
44
23
26
9
38
10
32
19
18
11
3
28
41
2
21
8
20
36
4
30
46
37
34
22
43

> <PUBCHEM_MMFF94_PARTIAL_CHARGES>
44
1 -0.57
10 0.37
11 0.57
12 0.06
13 0.14
14 0.1
15 -0.12
16 -0.17
17 0.37
18 -0.15
19 -0.15
2 -0.66
20 -0.03
21 0.14
22 -0.15
23 0.06
24 0.23
25 -0.15
26 -0.15
27 -0.15
28 0.05
29 -0.15
3 -0.84
30 -0.15
31 -0.15
32 -0.15
33 -0.15
4 0.6
46 0.15
47 0.15
5 -0.58
51 0.15
55 0.15
56 0.15
57 0.15
58 0.15
59 0.15
6 -0.71
60 0.15
61 0.15
62 0.15
7 0.3
8 0.3
9 0.37

> <PUBCHEM_EFFECTIVE_ROTOR_COUNT>
7.2

> <PUBCHEM_PHARMACOPHORE_FEATURES>
9
1 1 acceptor
1 3 cation
1 5 acceptor
1 6 acceptor
5 4 6 20 22 24 rings
6 14 18 19 25 26 27 rings
6 2 3 7 8 9 10 rings
6 28 29 30 31 32 33 rings
6 4 5 15 16 17 20 rings

> <PUBCHEM_HEAVY_ATOM_COUNT>
33

> <PUBCHEM_ATOM_DEF_STEREO_COUNT>
0

> <PUBCHEM_ATOM_UDEF_STEREO_COUNT>
0

> <PUBCHEM_BOND_DEF_STEREO_COUNT>
0

> <PUBCHEM_BOND_UDEF_STEREO_COUNT>
0

> <PUBCHEM_ISOTOPIC_ATOM_COUNT>
0

> <PUBCHEM_COMPONENT_COUNT>
1

> <PUBCHEM_CACTVS_TAUTO_COUNT>
1

> <PUBCHEM_CONFORMER_ID>
0091BB9E00000001

> <PUBCHEM_MMFF94_ENERGY>
98.8444

> <PUBCHEM_FEATURE_SELFOVERLAP>
45.8

> <PUBCHEM_SHAPE_FINGERPRINT>
10533779 47 14189303613247924102
10693767 8 18040995108054495138
10883706 17 18336551619954852859
10930396 42 13542465367971545539
11135609 99 18273214230997728590
11273773 46 18408603695756214939
11297750 10 18131060554935564185
11386260 185 16660650699567272172
11409948 41 17604143723955198930
11421887 45 10881685770662233359
11607047 74 18267584796817485264
11828532 37 18059012925242036171
12013929 94 18202285780653849066
12035758 1 15913607259513052268
12124843 1 16805612520265576699
12539745 222 17916870119134370968
12539765 74 8790881900598903576
12592606 108 18335137596298063615
12838863 1 18342736325832581015
14068700 675 18413111649552262176
14359421 15 18333445439909652987
14931854 50 16370725907114324864
15183329 4 17749101224005594293
15188451 53 18272934920574187153
15198563 99 16081651055125442454
15320294 125 18130783481930229191
15347590 135 14620800383487926575
15350500 16 18202560679270479031
15706992 2 10447922906397278242
16728433 281 13190604002877708607
16994733 274 8574424310017084156
1768 4 10953735574699026567
19303781 99 18131340943369048181
19304671 126 15357983424939625620
19841028 212 18409726304657493963
2026 5 18410573946645309039
21095123 293 9223230749785349167
212700 22 18272086076207578478
21360443 89 18410006599826525122
21585483 132 18260541208516341034
21781055 127 11599724022162809992
21792938 703 18187652461022891682
21792961 116 18413105079717894159
23389318 12 18114190731461442316
23528940 14 18337948971455895250
23576562 1 16443920499570833127
25242607 90 17774999124616682155
2851757 41 18272094902418222951
3004659 81 18261106426844996649
3178227 256 14549014378250127578
3383291 50 17704076226885009951
3711267 37 8286199491485254671
3986486 107 15574710279187687871
406291 66 18341894108431028451
42767 46 18408598171536949899
439807 62 18410576205823960863
44389302 135 18199187279430484386
4516262 110 10159704551743445201
4760202 70 18335150808767576988
504579 68 17458061586690645593
54039377 194 18411139138608062591
5470011 282 17822018648198262918
5718773 13 18343021094938008961
57303763 176 17917429793356891705
5758199 1 11527942344770637908
5937810 71 13551186655152590967
6201320 221 15430863312890268794
6438161 24 18410290332652701683
6691757 9 18056766417103198449
96874 4 18408323259538746882
9689198 14 9151169870181536844
9953998 17 13901901220411636197
9962374 69 16988271088674789925

> <PUBCHEM_SHAPE_MULTIPOLES>
648.35
33.78
3.39
1.5
16.29
0.54
-0.04
39.5
-7.31
0.12
-0.05
-0.46
-0.87
-3.2

> <PUBCHEM_SHAPE_SELFOVERLAP>
1408.118

> <PUBCHEM_SHAPE_VOLUME>
351.8

> <PUBCHEM_COORDINATE_TYPE>
2
5
10

$$$$
