692729
  -OEChem-01171809323D

 42 44  0     0  0  0  0  0  0999 V2000
   -5.8517    2.3953    0.4229 O   0  0  0  0  0  0  0  0  0  0  0  0
   -7.7095    0.9943   -0.2042 O   0  0  0  0  0  0  0  0  0  0  0  0
    6.7706    0.7526   -0.0517 O   0  0  0  0  0  0  0  0  0  0  0  0
   -0.1007   -2.5045    0.1983 O   0  0  0  0  0  0  0  0  0  0  0  0
    5.1800    2.4079   -0.2224 O   0  0  0  0  0  0  0  0  0  0  0  0
    0.8647   -0.3731    0.0051 N   0  0  0  0  0  0  0  0  0  0  0  0
   -5.4714    1.1121    0.1762 C   0  0  0  0  0  0  0  0  0  0  0  0
   -6.5322    0.3121   -0.1818 C   0  0  0  0  0  0  0  0  0  0  0  0
   -3.9903   -0.7341   -0.0286 C   0  0  0  0  0  0  0  0  0  0  0  0
   -4.1858    0.6182    0.2619 C   0  0  0  0  0  0  0  0  0  0  0  0
   -6.3661   -1.0261   -0.4736 C   0  0  0  0  0  0  0  0  0  0  0  0
   -5.0742   -1.5516   -0.3943 C   0  0  0  0  0  0  0  0  0  0  0  0
   -7.2710    2.3134    0.1793 C   0  0  0  0  0  0  0  0  0  0  0  0
   -2.6533   -1.3031    0.0476 C   0  0  0  0  0  0  0  0  0  0  0  0
    2.2537   -0.6489    0.0435 C   0  0  0  0  0  0  0  0  0  0  0  0
    4.5220    0.1259   -0.0125 C   0  0  0  0  0  0  0  0  0  0  0  0
    3.1543    0.3983   -0.0486 C   0  0  0  0  0  0  0  0  0  0  0  0
    2.6788   -1.9602    0.1707 C   0  0  0  0  0  0  0  0  0  0  0  0
   -1.5017   -0.5962    0.0048 C   0  0  0  0  0  0  0  0  0  0  0  0
    4.9679   -1.1896    0.1153 C   0  0  0  0  0  0  0  0  0  0  0  0
   -0.1780   -1.2872    0.0817 C   0  0  0  0  0  0  0  0  0  0  0  0
    4.0464   -2.2327    0.2069 C   0  0  0  0  0  0  0  0  0  0  0  0
    5.4831    1.2128   -0.1070 C   0  0  0  0  0  0  0  0  0  0  0  0
    7.8119    1.7315   -0.1339 C   0  0  0  0  0  0  0  0  0  0  0  0
    9.1526    1.0329   -0.0557 C   0  0  0  0  0  0  0  0  0  0  0  0
   -3.3874    1.2850    0.5668 H   0  0  0  0  0  0  0  0  0  0  0  0
   -7.2046   -1.6529   -0.7553 H   0  0  0  0  0  0  0  0  0  0  0  0
   -4.9232   -2.6046   -0.6222 H   0  0  0  0  0  0  0  0  0  0  0  0
   -7.5308    3.0161   -0.6207 H   0  0  0  0  0  0  0  0  0  0  0  0
   -7.8011    2.6079    1.0923 H   0  0  0  0  0  0  0  0  0  0  0  0
   -2.6124   -2.3866    0.1352 H   0  0  0  0  0  0  0  0  0  0  0  0
    2.7963    1.4200   -0.1481 H   0  0  0  0  0  0  0  0  0  0  0  0
    0.6313    0.6132   -0.0901 H   0  0  0  0  0  0  0  0  0  0  0  0
    2.0311   -2.8207    0.2469 H   0  0  0  0  0  0  0  0  0  0  0  0
   -1.4903    0.4821   -0.1086 H   0  0  0  0  0  0  0  0  0  0  0  0
    6.0222   -1.4492    0.1479 H   0  0  0  0  0  0  0  0  0  0  0  0
    4.3944   -3.2570    0.3064 H   0  0  0  0  0  0  0  0  0  0  0  0
    7.7123    2.4389    0.6966 H   0  0  0  0  0  0  0  0  0  0  0  0
    7.7290    2.2715   -1.0836 H   0  0  0  0  0  0  0  0  0  0  0  0
    9.2576    0.3083   -0.8699 H   0  0  0  0  0  0  0  0  0  0  0  0
    9.2411    0.4730    0.8811 H   0  0  0  0  0  0  0  0  0  0  0  0
    9.9732    1.7533   -0.1157 H   0  0  0  0  0  0  0  0  0  0  0  0
  1  7  1  0  0  0  0
  1 13  1  0  0  0  0
  2  8  1  0  0  0  0
  2 13  1  0  0  0  0
  3 23  1  0  0  0  0
  3 24  1  0  0  0  0
  4 21  2  0  0  0  0
  5 23  2  0  0  0  0
  6 15  1  0  0  0  0
  6 21  1  0  0  0  0
  6 33  1  0  0  0  0
  7  8  2  0  0  0  0
  7 10  1  0  0  0  0
  8 11  1  0  0  0  0
  9 10  2  0  0  0  0
  9 12  1  0  0  0  0
  9 14  1  0  0  0  0
 10 26  1  0  0  0  0
 11 12  2  0  0  0  0
 11 27  1  0  0  0  0
 12 28  1  0  0  0  0
 13 29  1  0  0  0  0
 13 30  1  0  0  0  0
 14 19  2  0  0  0  0
 14 31  1  0  0  0  0
 15 17  1  0  0  0  0
 15 18  2  0  0  0  0
 16 17  2  0  0  0  0
 16 20  1  0  0  0  0
 16 23  1  0  0  0  0
 17 32  1  0  0  0  0
 18 22  1  0  0  0  0
 18 34  1  0  0  0  0
 19 21  1  0  0  0  0
 19 35  1  0  0  0  0
 20 22  2  0  0  0  0
 20 36  1  0  0  0  0
 22 37  1  0  0  0  0
 24 25  1  0  0  0  0
 24 38  1  0  0  0  0
 24 39  1  0  0  0  0
 25 40  1  0  0  0  0
 25 41  1  0  0  0  0
 25 42  1  0  0  0  0
M  END
> <PUBCHEM_COMPOUND_CID>
692729

> <PUBCHEM_CONFORMER_RMSD>
0.8

> <PUBCHEM_CONFORMER_DIVERSEORDER>
2
65
101
17
100
40
6
27
80
96
79
25
55
87
86
29
91
75
15
4
33
97
77
52
42
57
62
10
54
83
63
61
67
37
19
74
99
50
23
39
58
47
5
90
66
11
36
9
92
7
68
88
59
93
84
20
34
1
104
44
103
46
16
60
12
38
49
8
89
78
51
64
85
102
28
71
43
45
18
73
76
69
95
94
21
105
41
98
70
81
31
26
82
53
72
24
13
35
14
48
32
30
56
22
3

> <PUBCHEM_MMFF94_PARTIAL_CHARGES>
34
1 -0.36
10 -0.15
11 -0.15
12 -0.15
13 0.56
14 -0.18
15 0.12
16 0.09
17 -0.15
18 -0.15
19 -0.14
2 -0.36
20 -0.15
21 0.62
22 -0.15
23 0.63
24 0.28
26 0.15
27 0.15
28 0.15
3 -0.43
31 0.15
32 0.15
33 0.37
34 0.15
35 0.15
36 0.15
37 0.15
4 -0.57
5 -0.57
6 -0.55
7 0.08
8 0.08
9 0.03

> <PUBCHEM_EFFECTIVE_ROTOR_COUNT>
7.6

> <PUBCHEM_PHARMACOPHORE_FEATURES>
8
1 1 acceptor
1 2 acceptor
1 4 acceptor
1 5 acceptor
1 6 donor
5 1 2 7 8 13 rings
6 15 16 17 18 20 22 rings
6 7 8 9 10 11 12 rings

> <PUBCHEM_HEAVY_ATOM_COUNT>
25

> <PUBCHEM_ATOM_DEF_STEREO_COUNT>
0

> <PUBCHEM_ATOM_UDEF_STEREO_COUNT>
0

> <PUBCHEM_BOND_DEF_STEREO_COUNT>
1

> <PUBCHEM_BOND_UDEF_STEREO_COUNT>
0

> <PUBCHEM_ISOTOPIC_ATOM_COUNT>
0

> <PUBCHEM_COMPONENT_COUNT>
1

> <PUBCHEM_CACTVS_TAUTO_COUNT>
2

> <PUBCHEM_CONFORMER_ID>
000A91F900000002

> <PUBCHEM_MMFF94_ENERGY>
71.5939

> <PUBCHEM_FEATURE_SELFOVERLAP>
40.753

> <PUBCHEM_SHAPE_FINGERPRINT>
10 15 18040154011460071697
10411042 1 17760928447163905266
10595046 47 18412541003523601431
10835480 77 18408040710625150163
11315181 36 18335417981376220519
12236239 1 18412260619399888807
125118 31 18410011000854408257
13167372 99 18410573950844544859
13248334 5 18193557762315838946
13668630 136 10952048944366208869
13685833 64 9367352531178797046
13785724 45 17762897663144982498
14178184 131 11170210764859781113
14251764 18 18334289881723429266
14394314 77 18411423882540987705
14556957 393 15697733604533175089
14931854 50 17988654003812645496
14933364 13 18411702084519490151
15183329 4 18202565060052893993
15419008 145 18115574951886795512
15461852 350 17632290203628565015
15604295 49 18129373960223066248
1577012 14 18412259532372138855
16989713 51 17273685654535205711
20157964 124 18412266103693298178
20281389 69 18187364290577177069
21150785 3 15554450717063713528
21298829 104 18408888446985759916
21585482 111 18261671467931143869
23081809 10 18411973659681479903
23524908 199 17846225415529887750
23559900 14 18201145625523802249
23569943 247 11383293888907157021
23576562 1 16987980830532312649
24771293 8 18260267460084828412
335352 9 18337674218017495956
34797466 226 17918000460237623711
3633792 109 18272658913929640426
4073 2 18259989283833691059
4169191 19 18408601457455352365
543368 44 18409728444600642367
5718773 13 9943533998786025500
5758199 1 18113900463674170866
5937810 71 17632587024191751777
59567204 34 18413389830874411193
59682541 52 17632309939130144206
6328613 192 18412545392921720641
636775 72 18410011056768708441
9980921 7 18113894933001662029

> <PUBCHEM_SHAPE_MULTIPOLES>
480.16
26.85
2.52
0.63
8.96
0.28
0
18.27
-1.34
-0.08
0.13
-0.13
-0.02
-0.98

> <PUBCHEM_SHAPE_SELFOVERLAP>
1039.244

> <PUBCHEM_SHAPE_VOLUME>
262.6

> <PUBCHEM_COORDINATE_TYPE>
2
5
10

$$$$
