4602964
  -OEChem-01171810053D

 45 47  0     1  0  0  0  0  0999 V2000
    1.0962    2.4710   -0.6421 O   0  0  0  0  0  0  0  0  0  0  0  0
    2.8502   -2.6495   -1.6896 O   0  0  0  0  0  0  0  0  0  0  0  0
    1.5054    2.1422    3.1168 O   0  5  0  0  0  0  0  0  0  0  0  0
    2.9217    0.7564    2.1534 O   0  0  0  0  0  0  0  0  0  0  0  0
   -2.2390    0.1558   -0.0082 N   0  0  0  0  0  0  0  0  0  0  0  0
    1.7900    1.0737    2.5525 N   0  3  0  0  0  0  0  0  0  0  0  0
    0.0607    0.3476    0.9637 C   0  0  2  0  0  0  0  0  0  0  0  0
   -1.2153   -0.3716    0.7459 C   0  0  0  0  0  0  0  0  0  0  0  0
   -1.6088   -1.6086    1.2090 C   0  0  0  0  0  0  0  0  0  0  0  0
    1.0816    0.1210   -0.1737 C   0  0  0  0  0  0  0  0  0  0  0  0
    0.7027    0.0924    2.3590 C   0  0  0  0  0  0  0  0  0  0  0  0
   -3.2902   -0.7558   -0.0225 C   0  0  0  0  0  0  0  0  0  0  0  0
   -2.9173   -1.8522    0.7254 C   0  0  0  0  0  0  0  0  0  0  0  0
   -2.2859    1.3823   -0.6715 C   0  0  0  0  0  0  0  0  0  0  0  0
    1.5221    1.2009   -0.8906 C   0  0  0  0  0  0  0  0  0  0  0  0
   -0.8156   -2.5216    2.0564 C   0  0  0  0  0  0  0  0  0  0  0  0
    1.4933   -1.1654   -0.4039 C   0  0  0  0  0  0  0  0  0  0  0  0
   -4.4593   -0.3996   -0.7555 C   0  0  0  0  0  0  0  0  0  0  0  0
   -3.3898    1.7133   -1.3608 C   0  0  0  0  0  0  0  0  0  0  0  0
    2.4144   -1.3872   -1.4278 C   0  0  0  0  0  0  0  0  0  0  0  0
   -4.5070    0.7837   -1.3971 C   0  0  0  0  0  0  0  0  0  0  0  0
    2.4433    0.9790   -1.9144 C   0  0  0  0  0  0  0  0  0  0  0  0
    2.8893   -0.3151   -2.1829 C   0  0  0  0  0  0  0  0  0  0  0  0
    1.6333    3.5067   -1.4624 C   0  0  0  0  0  0  0  0  0  0  0  0
    2.3240   -3.6994   -0.8792 C   0  0  0  0  0  0  0  0  0  0  0  0
   -0.1914    1.4155    0.9955 H   0  0  0  0  0  0  0  0  0  0  0  0
   -0.0152    0.2371    3.1741 H   0  0  0  0  0  0  0  0  0  0  0  0
    1.1709   -0.8902    2.4613 H   0  0  0  0  0  0  0  0  0  0  0  0
   -3.5242   -2.7303    0.9011 H   0  0  0  0  0  0  0  0  0  0  0  0
   -1.4419    2.0533   -0.6222 H   0  0  0  0  0  0  0  0  0  0  0  0
   -0.7021   -2.1177    3.0671 H   0  0  0  0  0  0  0  0  0  0  0  0
   -1.3503   -3.4726    2.1745 H   0  0  0  0  0  0  0  0  0  0  0  0
    0.1610   -2.7855    1.6616 H   0  0  0  0  0  0  0  0  0  0  0  0
    1.1153   -1.9676    0.1974 H   0  0  0  0  0  0  0  0  0  0  0  0
   -5.3004   -1.0835   -0.7910 H   0  0  0  0  0  0  0  0  0  0  0  0
   -3.4732    2.6548   -1.8898 H   0  0  0  0  0  0  0  0  0  0  0  0
    2.8559    1.7613   -2.5419 H   0  0  0  0  0  0  0  0  0  0  0  0
   -5.3869    1.0744   -1.9606 H   0  0  0  0  0  0  0  0  0  0  0  0
    3.6069   -0.4829   -2.9814 H   0  0  0  0  0  0  0  0  0  0  0  0
    2.7162    3.6053   -1.3310 H   0  0  0  0  0  0  0  0  0  0  0  0
    1.1860    4.4478   -1.1258 H   0  0  0  0  0  0  0  0  0  0  0  0
    1.3492    3.3783   -2.5124 H   0  0  0  0  0  0  0  0  0  0  0  0
    1.2411   -3.8039   -1.0072 H   0  0  0  0  0  0  0  0  0  0  0  0
    2.6097   -3.5796    0.1715 H   0  0  0  0  0  0  0  0  0  0  0  0
    2.7771   -4.6335   -1.2274 H   0  0  0  0  0  0  0  0  0  0  0  0
  1 15  1  0  0  0  0
  1 24  1  0  0  0  0
  2 20  1  0  0  0  0
  2 25  1  0  0  0  0
  3  6  1  0  0  0  0
  4  6  2  0  0  0  0
  5  8  1  0  0  0  0
  5 12  1  0  0  0  0
  5 14  1  0  0  0  0
  6 11  1  0  0  0  0
  7  8  1  0  0  0  0
  7 10  1  0  0  0  0
  7 11  1  0  0  0  0
  7 26  1  0  0  0  0
  8  9  2  0  0  0  0
  9 13  1  0  0  0  0
  9 16  1  0  0  0  0
 10 15  2  0  0  0  0
 10 17  1  0  0  0  0
 11 27  1  0  0  0  0
 11 28  1  0  0  0  0
 12 13  2  0  0  0  0
 12 18  1  0  0  0  0
 13 29  1  0  0  0  0
 14 19  2  0  0  0  0
 14 30  1  0  0  0  0
 15 22  1  0  0  0  0
 16 31  1  0  0  0  0
 16 32  1  0  0  0  0
 16 33  1  0  0  0  0
 17 20  2  0  0  0  0
 17 34  1  0  0  0  0
 18 21  2  0  0  0  0
 18 35  1  0  0  0  0
 19 21  1  0  0  0  0
 19 36  1  0  0  0  0
 20 23  1  0  0  0  0
 21 38  1  0  0  0  0
 22 23  2  0  0  0  0
 22 37  1  0  0  0  0
 23 39  1  0  0  0  0
 24 40  1  0  0  0  0
 24 41  1  0  0  0  0
 24 42  1  0  0  0  0
 25 43  1  0  0  0  0
 25 44  1  0  0  0  0
 25 45  1  0  0  0  0
M  CHG  2   3  -1   6   1
M  END
> <PUBCHEM_COMPOUND_CID>
4602964

> <PUBCHEM_CONFORMER_RMSD>
0.8

> <PUBCHEM_CONFORMER_DIVERSEORDER>
2
34
14
19
27
17
6
32
30
33
39
18
26
11
15
36
7
31
37
29
10
28
35
25
38
4
23
21
40
3
24
12
9
8
5
16
22
1
20
13

> <PUBCHEM_MMFF94_PARTIAL_CHARGES>
33
1 -0.36
10 -0.14
11 0.24
12 -0.2
13 -0.15
14 -0.18
15 0.08
16 0.18
17 -0.15
18 -0.11
19 -0.15
2 -0.36
20 0.08
21 -0.15
22 -0.15
23 -0.15
24 0.28
25 0.28
29 0.15
3 -0.52
30 0.15
34 0.15
35 0.15
36 0.15
37 0.15
38 0.15
39 0.15
4 -0.52
5 0.33
6 0.8
7 0.32
8 -0.33
9 -0.18

> <PUBCHEM_EFFECTIVE_ROTOR_COUNT>
6

> <PUBCHEM_PHARMACOPHORE_FEATURES>
9
1 1 acceptor
1 2 acceptor
1 3 acceptor
1 3 anion
1 4 acceptor
1 5 cation
5 5 8 9 12 13 rings
6 10 15 17 20 22 23 rings
6 5 12 14 18 19 21 rings

> <PUBCHEM_HEAVY_ATOM_COUNT>
25

> <PUBCHEM_ATOM_DEF_STEREO_COUNT>
0

> <PUBCHEM_ATOM_UDEF_STEREO_COUNT>
1

> <PUBCHEM_BOND_DEF_STEREO_COUNT>
0

> <PUBCHEM_BOND_UDEF_STEREO_COUNT>
0

> <PUBCHEM_ISOTOPIC_ATOM_COUNT>
0

> <PUBCHEM_COMPONENT_COUNT>
1

> <PUBCHEM_CACTVS_TAUTO_COUNT>
2

> <PUBCHEM_CONFORMER_ID>
00463C5400000002

> <PUBCHEM_MMFF94_ENERGY>
86.0079

> <PUBCHEM_FEATURE_SELFOVERLAP>
45.851

> <PUBCHEM_SHAPE_FINGERPRINT>
10165383 225 17190702337082335040
10498660 4 17240485827760932271
10764073 3 17690798377916339984
10871710 139 16096295187949949075
11578080 2 17702953534754436416
11640471 11 16009309932604822983
12035759 4 16959573525403409071
12363563 72 17202483282046386391
12553582 1 17831616117936644574
12788726 201 17684380447194034814
13134695 92 17775282712205391580
133893 2 16845293881810664562
14251757 17 18042984076706366943
14787075 74 17345773991911412500
14955137 171 16733815377107227280
16945 1 18051448263456714822
17492 54 14439258506865506223
17980427 23 17829009390193318489
20361792 2 16558203617570301303
20465049 17 17680722423695776805
20600515 1 17970044709024564528
20905425 154 17536591073262405201
21731516 1 16558487295865247823
23419403 2 17553166967186645728
23526113 38 18262529104037603567
23557571 272 18268133422721690859
23559900 14 18408886256314627085
238 59 18411142475940388743
25222932 49 16307678016503359427
2637199 183 17314807200049551655
3027735 51 17185042661156009799
35225 105 15976913003028703128
394222 165 15049728760170778451
463206 1 17844809183770636335
474 4 15140957417380878357
513532 50 17762017036240409533
5262128 65 18338809931043940965
5845 1 15796183742582182834
5895379 119 18262227842189167413
7399639 24 17614026374202478495
9925002 15 15949344372122780254

> <PUBCHEM_SHAPE_MULTIPOLES>
481.05
6.41
3.4
2.68
6.02
0.08
-2.18
0.42
3.72
-1.47
0.94
-2.84
-0.12
1.87

> <PUBCHEM_SHAPE_SELFOVERLAP>
1044.502

> <PUBCHEM_SHAPE_VOLUME>
263.5

> <PUBCHEM_COORDINATE_TYPE>
2
5
10

$$$$
