5009750
  -OEChem-01171809493D

 44 44  0     1  0  0  0  0  0999 V2000
   -4.5180   -3.0806   -0.6768 Cl  0  0  0  0  0  0  0  0  0  0  0  0
   -4.3824   -0.6154    0.7535 O   0  0  0  0  0  0  0  0  0  0  0  0
   -0.2482   -1.2508    0.6400 O   0  0  0  0  0  0  0  0  0  0  0  0
   -2.4278    0.3062   -0.0849 N   0  0  0  0  0  0  0  0  0  0  0  0
    1.1199    0.1032   -0.7068 N   0  0  0  0  0  0  0  0  0  0  0  0
   -2.5497    1.5047    0.7118 C   0  0  1  0  0  0  0  0  0  0  0  0
   -3.8385    2.2678    0.3802 C   0  0  0  0  0  0  0  0  0  0  0  0
   -1.2520    0.2423   -0.9601 C   0  0  0  0  0  0  0  0  0  0  0  0
   -2.4987    1.1449    2.1930 C   0  0  0  0  0  0  0  0  0  0  0  0
   -3.9340    2.6489   -1.0917 C   0  0  0  0  0  0  0  0  0  0  0  0
   -3.4053   -0.7027    0.0056 C   0  0  0  0  0  0  0  0  0  0  0  0
   -0.0869   -0.4052   -0.2339 C   0  0  0  0  0  0  0  0  0  0  0  0
    2.4260   -0.2436   -0.2868 C   0  0  0  0  0  0  0  0  0  0  0  0
    3.4501    0.6883   -0.3451 C   0  0  0  0  0  0  0  0  0  0  0  0
   -3.1918   -1.9177   -0.8747 C   0  0  0  0  0  0  0  0  0  0  0  0
    4.7299    0.3251    0.0741 C   0  0  0  0  0  0  0  0  0  0  0  0
    2.6490   -1.5298    0.1800 C   0  0  0  0  0  0  0  0  0  0  0  0
    3.1981    2.0741   -0.8509 C   0  0  0  0  0  0  0  0  0  0  0  0
    4.9693   -0.9655    0.5463 C   0  0  0  0  0  0  0  0  0  0  0  0
    3.9289   -1.8929    0.5993 C   0  0  0  0  0  0  0  0  0  0  0  0
    5.8619    1.2985    0.0279 C   0  0  0  0  0  0  0  0  0  0  0  0
   -1.6959    2.1629    0.5068 H   0  0  0  0  0  0  0  0  0  0  0  0
   -4.7407    1.7176    0.6642 H   0  0  0  0  0  0  0  0  0  0  0  0
   -3.8569    3.1918    0.9728 H   0  0  0  0  0  0  0  0  0  0  0  0
   -1.0108    1.2508   -1.3128 H   0  0  0  0  0  0  0  0  0  0  0  0
   -1.4603   -0.3616   -1.8466 H   0  0  0  0  0  0  0  0  0  0  0  0
   -3.3789    0.5981    2.5418 H   0  0  0  0  0  0  0  0  0  0  0  0
   -1.6160    0.5380    2.4219 H   0  0  0  0  0  0  0  0  0  0  0  0
   -2.4346    2.0571    2.7973 H   0  0  0  0  0  0  0  0  0  0  0  0
   -3.0532    3.2165   -1.4085 H   0  0  0  0  0  0  0  0  0  0  0  0
   -4.8162    3.2750   -1.2597 H   0  0  0  0  0  0  0  0  0  0  0  0
   -4.0272    1.7669   -1.7324 H   0  0  0  0  0  0  0  0  0  0  0  0
    1.0598    0.9277   -1.2983 H   0  0  0  0  0  0  0  0  0  0  0  0
   -2.2615   -2.4258   -0.6151 H   0  0  0  0  0  0  0  0  0  0  0  0
   -3.1867   -1.6238   -1.9265 H   0  0  0  0  0  0  0  0  0  0  0  0
    1.8746   -2.2890    0.2037 H   0  0  0  0  0  0  0  0  0  0  0  0
    3.0919    2.0605   -1.9408 H   0  0  0  0  0  0  0  0  0  0  0  0
    2.2855    2.4889   -0.4078 H   0  0  0  0  0  0  0  0  0  0  0  0
    3.9837    2.7916   -0.6022 H   0  0  0  0  0  0  0  0  0  0  0  0
    5.9605   -1.2657    0.8759 H   0  0  0  0  0  0  0  0  0  0  0  0
    4.1173   -2.9001    0.9596 H   0  0  0  0  0  0  0  0  0  0  0  0
    6.8112    0.8233    0.3007 H   0  0  0  0  0  0  0  0  0  0  0  0
    5.6981    2.1167    0.7368 H   0  0  0  0  0  0  0  0  0  0  0  0
    5.9930    1.6997   -0.9826 H   0  0  0  0  0  0  0  0  0  0  0  0
  1 15  1  0  0  0  0
  2 11  2  0  0  0  0
  3 12  2  0  0  0  0
  4  6  1  0  0  0  0
  4  8  1  0  0  0  0
  4 11  1  0  0  0  0
  5 12  1  0  0  0  0
  5 13  1  0  0  0  0
  5 33  1  0  0  0  0
  6  7  1  0  0  0  0
  6  9  1  0  0  0  0
  6 22  1  0  0  0  0
  7 10  1  0  0  0  0
  7 23  1  0  0  0  0
  7 24  1  0  0  0  0
  8 12  1  0  0  0  0
  8 25  1  0  0  0  0
  8 26  1  0  0  0  0
  9 27  1  0  0  0  0
  9 28  1  0  0  0  0
  9 29  1  0  0  0  0
 10 30  1  0  0  0  0
 10 31  1  0  0  0  0
 10 32  1  0  0  0  0
 11 15  1  0  0  0  0
 13 14  1  0  0  0  0
 13 17  2  0  0  0  0
 14 16  2  0  0  0  0
 14 18  1  0  0  0  0
 15 34  1  0  0  0  0
 15 35  1  0  0  0  0
 16 19  1  0  0  0  0
 16 21  1  0  0  0  0
 17 20  1  0  0  0  0
 17 36  1  0  0  0  0
 18 37  1  0  0  0  0
 18 38  1  0  0  0  0
 18 39  1  0  0  0  0
 19 20  2  0  0  0  0
 19 40  1  0  0  0  0
 20 41  1  0  0  0  0
 21 42  1  0  0  0  0
 21 43  1  0  0  0  0
 21 44  1  0  0  0  0
M  END
> <PUBCHEM_COMPOUND_CID>
5009750

> <PUBCHEM_CONFORMER_RMSD>
0.8

> <PUBCHEM_CONFORMER_DIVERSEORDER>
1
112
63
111
33
100
62
46
74
138
105
107
68
66
67
139
141
34
81
132
23
123
79
136
127
92
104
101
41
8
28
109
25
80
77
37
75
71
87
5
94
98
124
57
85
96
118
133
47
82
93
119
113
21
64
99
115
40
15
38
52
60
117
55
14
20
56
31
53
45
131
91
73
129
89
86
32
72
110
17
83
116
22
27
49
48
120
36
29
88
59
130
13
90
97
9
18
106
58
69
44
76
19
30
11
61
43
7
70
114
26
6
24
103
134
65
51
108
102
3
10
135
126
95
39
4
84
140
125
78
137
42
122
128
54
121
16
2
35
12
50

> <PUBCHEM_MMFF94_PARTIAL_CHARGES>
22
1 -0.29
11 0.57
12 0.57
13 0.12
14 -0.14
15 0.35
16 -0.14
17 -0.15
18 0.14
19 -0.15
2 -0.57
20 -0.15
21 0.14
3 -0.57
33 0.37
36 0.15
4 -0.66
40 0.15
41 0.15
5 -0.55
6 0.3
8 0.36

> <PUBCHEM_EFFECTIVE_ROTOR_COUNT>
8

> <PUBCHEM_PHARMACOPHORE_FEATURES>
5
1 10 hydrophobe
1 2 acceptor
1 3 acceptor
1 5 donor
6 13 14 16 17 19 20 rings

> <PUBCHEM_HEAVY_ATOM_COUNT>
21

> <PUBCHEM_ATOM_DEF_STEREO_COUNT>
0

> <PUBCHEM_ATOM_UDEF_STEREO_COUNT>
1

> <PUBCHEM_BOND_DEF_STEREO_COUNT>
0

> <PUBCHEM_BOND_UDEF_STEREO_COUNT>
0

> <PUBCHEM_ISOTOPIC_ATOM_COUNT>
0

> <PUBCHEM_COMPONENT_COUNT>
1

> <PUBCHEM_CACTVS_TAUTO_COUNT>
2

> <PUBCHEM_CONFORMER_ID>
004C715600000001

> <PUBCHEM_MMFF94_ENERGY>
61.6695

> <PUBCHEM_FEATURE_SELFOVERLAP>
25.372

> <PUBCHEM_SHAPE_FINGERPRINT>
10014705 185 18335417916123704885
10366900 7 17022623083147878056
10595046 47 18410009983353217462
10912923 1 18335136497292552194
11045515 52 18042115613514069061
11056379 131 18272658969220870751
11405975 8 18335698274292542786
12107183 9 17977944579747513810
12236239 1 18343022216188126326
12507557 5 18413387622712503936
12596602 18 18272932752306455224
12788726 201 18271519913782097607
13167823 11 18410572890235997270
13583140 156 17560504145343344878
13631057 29 18270114750780009623
13675066 3 17822866264099275920
14289901 80 18410013255743711770
14341114 176 18341338833430943946
14790565 3 17971204857713204780
15196674 1 18335983091123178684
17349148 13 18040714817982355354
17492 89 18412827975499671838
17834072 33 18410292532224752298
17844677 252 18411987940362751902
19377110 9 18340212997769328074
200 152 18337666524602674503
20715895 44 17979354153633970249
21065198 48 18410571782297692342
21709351 56 18334856113132020516
23402539 116 18339920510776194623
23557571 272 17704080594059101629
23559900 14 18269542983548503281
23598288 3 18202274801905109879
2838139 119 17826222996438981029
312423 11 18338245945839916190
4214541 1 18410572864175543029
5104073 3 18334289843232137696
5924683 9 18410570700002844119
633830 44 17095532751151881768
7495541 125 17774438407735057634
77779 3 18410855443338864686
9709674 26 18335427871932146266

> <PUBCHEM_SHAPE_MULTIPOLES>
412.34
12.56
2.87
1.18
8
0.32
-0.39
-0.07
-0.23
-3.54
0.49
-0.96
-0.39
-1.38

> <PUBCHEM_SHAPE_SELFOVERLAP>
826.699

> <PUBCHEM_SHAPE_VOLUME>
244.2

> <PUBCHEM_COORDINATE_TYPE>
2
5
10

$$$$
