9582024
  -OEChem-01171809223D

 50 52  0     0  0  0  0  0  0999 V2000
   -0.4639   -4.5260   -3.4114 F   0  0  0  0  0  0  0  0  0  0  0  0
   -2.7056    0.5365    1.5768 O   0  0  0  0  0  0  0  0  0  0  0  0
   -0.1343    0.4741    3.0713 O   0  0  0  0  0  0  0  0  0  0  0  0
   -1.1394    1.5786    0.2092 N   0  0  0  0  0  0  0  0  0  0  0  0
    2.4146    0.8570    0.7514 N   0  0  0  0  0  0  0  0  0  0  0  0
   -0.2631   -1.2471    1.5345 N   0  0  0  0  0  0  0  0  0  0  0  0
    3.7743    2.0292   -0.7596 N   0  0  0  0  0  0  0  0  0  0  0  0
    4.7391    0.5739    0.9013 N   0  0  0  0  0  0  0  0  0  0  0  0
   -0.3737   -2.1857    2.5043 N   0  0  0  0  0  0  0  0  0  0  0  0
   -3.5178    2.0149   -0.0480 C   0  0  0  0  0  0  0  0  0  0  0  0
   -0.0162    1.0252    0.7558 C   0  0  0  0  0  0  0  0  0  0  0  0
   -2.4222    1.2988    0.6558 C   0  0  0  0  0  0  0  0  0  0  0  0
    1.2138    1.3132    0.3047 C   0  0  0  0  0  0  0  0  0  0  0  0
   -3.2484    3.2357   -0.6302 C   0  0  0  0  0  0  0  0  0  0  0  0
   -4.7685    1.4353   -0.0965 C   0  0  0  0  0  0  0  0  0  0  0  0
   -0.1460    0.0772    1.9077 C   0  0  0  0  0  0  0  0  0  0  0  0
    3.6979    1.1667    0.2773 C   0  0  0  0  0  0  0  0  0  0  0  0
   -4.2766    3.9079   -1.2910 C   0  0  0  0  0  0  0  0  0  0  0  0
   -5.7967    2.1074   -0.7574 C   0  0  0  0  0  0  0  0  0  0  0  0
   -0.4746   -3.6942    0.6135 C   0  0  0  0  0  0  0  0  0  0  0  0
   -5.5508    3.3436   -1.3547 C   0  0  0  0  0  0  0  0  0  0  0  0
    5.0229    2.3050   -1.1897 C   0  0  0  0  0  0  0  0  0  0  0  0
   -1.6753   -3.7193   -0.0769 C   0  0  0  0  0  0  0  0  0  0  0  0
    0.7297   -3.9433   -0.0246 C   0  0  0  0  0  0  0  0  0  0  0  0
    6.1629    1.7622   -0.6328 C   0  0  0  0  0  0  0  0  0  0  0  0
   -0.4783   -3.3946    2.0562 C   0  0  0  0  0  0  0  0  0  0  0  0
   -1.6717   -4.0014   -1.4430 C   0  0  0  0  0  0  0  0  0  0  0  0
    0.7332   -4.2254   -1.3906 C   0  0  0  0  0  0  0  0  0  0  0  0
    5.1442    3.2544   -2.3339 C   0  0  0  0  0  0  0  0  0  0  0  0
    5.9582    0.8944    0.4201 C   0  0  0  0  0  0  0  0  0  0  0  0
   -0.4675   -4.2545   -2.0998 C   0  0  0  0  0  0  0  0  0  0  0  0
   -0.9936    2.1908   -0.5879 H   0  0  0  0  0  0  0  0  0  0  0  0
    1.3059    2.0054   -0.5283 H   0  0  0  0  0  0  0  0  0  0  0  0
   -2.2834    3.7278   -0.5720 H   0  0  0  0  0  0  0  0  0  0  0  0
   -4.9743    0.4713    0.3588 H   0  0  0  0  0  0  0  0  0  0  0  0
    2.3984    0.2067    1.5290 H   0  0  0  0  0  0  0  0  0  0  0  0
   -4.0881    4.8746   -1.7488 H   0  0  0  0  0  0  0  0  0  0  0  0
   -6.7886    1.6678   -0.8078 H   0  0  0  0  0  0  0  0  0  0  0  0
   -6.3518    3.8678   -1.8678 H   0  0  0  0  0  0  0  0  0  0  0  0
   -0.2633   -1.4998    0.5545 H   0  0  0  0  0  0  0  0  0  0  0  0
   -2.6171   -3.5222    0.4275 H   0  0  0  0  0  0  0  0  0  0  0  0
    1.6689   -3.9216    0.5209 H   0  0  0  0  0  0  0  0  0  0  0  0
    7.1575    1.9950   -0.9911 H   0  0  0  0  0  0  0  0  0  0  0  0
   -0.5748   -4.2412    2.7548 H   0  0  0  0  0  0  0  0  0  0  0  0
   -2.6064   -4.0238   -1.9955 H   0  0  0  0  0  0  0  0  0  0  0  0
    1.6707   -4.4221   -1.9023 H   0  0  0  0  0  0  0  0  0  0  0  0
    5.6350    2.7675   -3.1825 H   0  0  0  0  0  0  0  0  0  0  0  0
    5.7266    4.1333   -2.0396 H   0  0  0  0  0  0  0  0  0  0  0  0
    4.1589    3.5982   -2.6658 H   0  0  0  0  0  0  0  0  0  0  0  0
    6.7941    0.4183    0.9215 H   0  0  0  0  0  0  0  0  0  0  0  0
  1 31  1  0  0  0  0
  2 12  2  0  0  0  0
  3 16  2  0  0  0  0
  4 11  1  0  0  0  0
  4 12  1  0  0  0  0
  4 32  1  0  0  0  0
  5 13  1  0  0  0  0
  5 17  1  0  0  0  0
  5 36  1  0  0  0  0
  6  9  1  0  0  0  0
  6 16  1  0  0  0  0
  6 40  1  0  0  0  0
  7 17  1  0  0  0  0
  7 22  2  0  0  0  0
  8 17  2  0  0  0  0
  8 30  1  0  0  0  0
  9 26  2  0  0  0  0
 10 12  1  0  0  0  0
 10 14  2  0  0  0  0
 10 15  1  0  0  0  0
 11 13  2  0  0  0  0
 11 16  1  0  0  0  0
 13 33  1  0  0  0  0
 14 18  1  0  0  0  0
 14 34  1  0  0  0  0
 15 19  2  0  0  0  0
 15 35  1  0  0  0  0
 18 21  2  0  0  0  0
 18 37  1  0  0  0  0
 19 21  1  0  0  0  0
 19 38  1  0  0  0  0
 20 23  2  0  0  0  0
 20 24  1  0  0  0  0
 20 26  1  0  0  0  0
 21 39  1  0  0  0  0
 22 25  1  0  0  0  0
 22 29  1  0  0  0  0
 23 27  1  0  0  0  0
 23 41  1  0  0  0  0
 24 28  2  0  0  0  0
 24 42  1  0  0  0  0
 25 30  2  0  0  0  0
 25 43  1  0  0  0  0
 26 44  1  0  0  0  0
 27 31  2  0  0  0  0
 27 45  1  0  0  0  0
 28 31  1  0  0  0  0
 28 46  1  0  0  0  0
 29 47  1  0  0  0  0
 29 48  1  0  0  0  0
 29 49  1  0  0  0  0
 30 50  1  0  0  0  0
M  END
> <PUBCHEM_COMPOUND_CID>
9582024

> <PUBCHEM_CONFORMER_RMSD>
1

> <PUBCHEM_CONFORMER_DIVERSEORDER>
1
42
36
51
55
21
59
35
49
58
8
30
40
52
5
48
20
32
41
47
24
53
15
27
10
38
39
37
45
46
57
17
44
50
29
33
31
56
43
26
25
54
7
28
6
16
22
11
23
12
14
34
18
19
13
9
4
2
3

> <PUBCHEM_MMFF94_PARTIAL_CHARGES>
47
1 -0.19
10 0.09
11 0.12
12 0.54
13 -0.05
14 -0.15
15 -0.15
16 0.62
17 0.72
18 -0.15
19 -0.15
2 -0.57
20 0.09
21 -0.15
22 0.17
23 -0.15
24 -0.15
25 -0.15
26 0.3
27 -0.15
28 -0.15
29 0.14
3 -0.57
30 0.16
31 0.19
32 0.37
33 0.15
34 0.15
35 0.15
36 0.4
37 0.15
38 0.15
39 0.15
4 -0.54
40 0.37
41 0.15
42 0.15
43 0.15
44 0.06
45 0.15
46 0.15
5 -0.6
50 0.15
6 -0.37
7 -0.62
8 -0.62
9 -0.51

> <PUBCHEM_EFFECTIVE_ROTOR_COUNT>
9

> <PUBCHEM_PHARMACOPHORE_FEATURES>
11
1 2 acceptor
1 3 acceptor
1 4 donor
1 5 donor
1 6 donor
1 7 acceptor
1 9 acceptor
4 5 7 8 17 cation
6 10 14 15 18 19 21 rings
6 20 23 24 27 28 31 rings
6 7 8 17 22 25 30 rings

> <PUBCHEM_HEAVY_ATOM_COUNT>
31

> <PUBCHEM_ATOM_DEF_STEREO_COUNT>
0

> <PUBCHEM_ATOM_UDEF_STEREO_COUNT>
0

> <PUBCHEM_BOND_DEF_STEREO_COUNT>
2

> <PUBCHEM_BOND_UDEF_STEREO_COUNT>
0

> <PUBCHEM_ISOTOPIC_ATOM_COUNT>
0

> <PUBCHEM_COMPONENT_COUNT>
1

> <PUBCHEM_CACTVS_TAUTO_COUNT>
18

> <PUBCHEM_CONFORMER_ID>
009235C800000001

> <PUBCHEM_MMFF94_ENERGY>
103.8775

> <PUBCHEM_FEATURE_SELFOVERLAP>
55.829

> <PUBCHEM_SHAPE_FINGERPRINT>
10721379 63 17760651369451983721
11297010 23 17827056429983371925
11377469 6 16826478154246835706
11477941 20 17469909021896486948
11621639 307 17315930042162311772
11991303 11 18410295847512088236
12788726 201 18119519088419846834
13150687 139 18337391548090454174
13690498 29 17906757021973049132
14040221 304 18040983026617661677
14556957 393 17538299718917217660
14674994 50 17771920590558417907
15064981 113 18339089177444873660
15276724 80 17974300007643688841
15484559 13 18118401731281947094
15664445 248 17545597851452115299
15815584 197 17315091973298071129
20578428 11 18044655292385662637
21716022 299 17413583948327850584
23523787 8 18059848454804139092
23559900 14 17621576347600756065
26353 1 17259616470484340939
3027735 51 17987243407461592070
3057174 1 18341614759061865342
3388396 114 16891192131693649956
38695281 34 18337383834118382065
4017518 198 18271804555046484902
4066623 53 17551206885619988183
44249763 50 18124038086128082476
44802255 64 18263380208158494588
46194498 28 17977093562591260197
5080951 261 18129665343414054306
5081480 168 17470182353715222593
5223283 242 17118578806950209727

> <PUBCHEM_SHAPE_MULTIPOLES>
589.07
11.79
7.71
2.47
7.49
9.83
0.14
-21.75
5.12
-3.35
5.61
0.23
2.23
-0.37

> <PUBCHEM_SHAPE_SELFOVERLAP>
1271.285

> <PUBCHEM_SHAPE_VOLUME>
321.3

> <PUBCHEM_COORDINATE_TYPE>
2
5
10

$$$$
