2401486
  -OEChem-01171809493D

 44 45  0     0  0  0  0  0  0999 V2000
    4.7425   -0.8939   -2.6773 Br  0  0  0  0  0  0  0  0  0  0  0  0
   -5.3128    1.6142   -1.0740 O   0  0  0  0  0  0  0  0  0  0  0  0
    1.9073   -0.1338    0.2494 O   0  0  0  0  0  0  0  0  0  0  0  0
   -0.2437    1.3378    0.7399 O   0  0  0  0  0  0  0  0  0  0  0  0
    2.9665   -2.1078   -0.2377 O   0  0  0  0  0  0  0  0  0  0  0  0
   -4.0603   -0.3683    0.5799 N   0  0  0  0  0  0  0  0  0  0  0  0
   -2.9622    0.4430    0.6976 C   0  0  0  0  0  0  0  0  0  0  0  0
   -3.6594   -1.6415    0.2690 C   0  0  0  0  0  0  0  0  0  0  0  0
   -5.4339    0.0541    0.7562 C   0  0  0  0  0  0  0  0  0  0  0  0
   -1.8788   -0.3369    0.4581 C   0  0  0  0  0  0  0  0  0  0  0  0
   -2.2845   -1.6430    0.1878 C   0  0  0  0  0  0  0  0  0  0  0  0
   -6.0681    0.5333   -0.5425 C   0  0  0  0  0  0  0  0  0  0  0  0
   -3.0833    1.8795    1.0286 C   0  0  0  0  0  0  0  0  0  0  0  0
   -4.6201   -2.7473    0.0759 C   0  0  0  0  0  0  0  0  0  0  0  0
   -0.4920    0.1577    0.4880 C   0  0  0  0  0  0  0  0  0  0  0  0
    0.6460   -0.8103    0.2031 C   0  0  0  0  0  0  0  0  0  0  0  0
   -5.8656    2.0855   -2.2954 C   0  0  0  0  0  0  0  0  0  0  0  0
    3.0171   -0.9028    0.0078 C   0  0  0  0  0  0  0  0  0  0  0  0
    4.2647   -0.1511    0.0702 C   0  0  0  0  0  0  0  0  0  0  0  0
    5.1285   -0.0528   -1.0206 C   0  0  0  0  0  0  0  0  0  0  0  0
    4.5838    0.4818    1.2717 C   0  0  0  0  0  0  0  0  0  0  0  0
    6.3113    0.6785   -0.9099 C   0  0  0  0  0  0  0  0  0  0  0  0
    5.7666    1.2129    1.3823 C   0  0  0  0  0  0  0  0  0  0  0  0
    6.6303    1.3112    0.2916 C   0  0  0  0  0  0  0  0  0  0  0  0
   -6.0061   -0.7876    1.1609 H   0  0  0  0  0  0  0  0  0  0  0  0
   -5.4696    0.8268    1.5290 H   0  0  0  0  0  0  0  0  0  0  0  0
   -1.6726   -2.5044   -0.0421 H   0  0  0  0  0  0  0  0  0  0  0  0
   -6.0986   -0.2806   -1.2759 H   0  0  0  0  0  0  0  0  0  0  0  0
   -7.0946    0.8633   -0.3456 H   0  0  0  0  0  0  0  0  0  0  0  0
   -2.5976    2.4834    0.2540 H   0  0  0  0  0  0  0  0  0  0  0  0
   -2.5794    2.0855    1.9795 H   0  0  0  0  0  0  0  0  0  0  0  0
   -4.0988    2.2638    1.1233 H   0  0  0  0  0  0  0  0  0  0  0  0
   -4.1024   -3.6593   -0.2406 H   0  0  0  0  0  0  0  0  0  0  0  0
   -5.3574   -2.5080   -0.6960 H   0  0  0  0  0  0  0  0  0  0  0  0
   -5.1459   -2.9773    1.0081 H   0  0  0  0  0  0  0  0  0  0  0  0
    0.6326   -1.5979    0.9643 H   0  0  0  0  0  0  0  0  0  0  0  0
    0.5040   -1.2321   -0.7978 H   0  0  0  0  0  0  0  0  0  0  0  0
   -5.8579    1.2938   -3.0507 H   0  0  0  0  0  0  0  0  0  0  0  0
   -6.8859    2.4494   -2.1399 H   0  0  0  0  0  0  0  0  0  0  0  0
   -5.2502    2.9151   -2.6536 H   0  0  0  0  0  0  0  0  0  0  0  0
    3.9234    0.4121    2.1326 H   0  0  0  0  0  0  0  0  0  0  0  0
    6.9971    0.7666   -1.7488 H   0  0  0  0  0  0  0  0  0  0  0  0
    6.0155    1.7049    2.3181 H   0  0  0  0  0  0  0  0  0  0  0  0
    7.5513    1.8803    0.3780 H   0  0  0  0  0  0  0  0  0  0  0  0
  1 20  1  0  0  0  0
  2 12  1  0  0  0  0
  2 17  1  0  0  0  0
  3 16  1  0  0  0  0
  3 18  1  0  0  0  0
  4 15  2  0  0  0  0
  5 18  2  0  0  0  0
  6  7  1  0  0  0  0
  6  8  1  0  0  0  0
  6  9  1  0  0  0  0
  7 10  2  0  0  0  0
  7 13  1  0  0  0  0
  8 11  2  0  0  0  0
  8 14  1  0  0  0  0
  9 12  1  0  0  0  0
  9 25  1  0  0  0  0
  9 26  1  0  0  0  0
 10 11  1  0  0  0  0
 10 15  1  0  0  0  0
 11 27  1  0  0  0  0
 12 28  1  0  0  0  0
 12 29  1  0  0  0  0
 13 30  1  0  0  0  0
 13 31  1  0  0  0  0
 13 32  1  0  0  0  0
 14 33  1  0  0  0  0
 14 34  1  0  0  0  0
 14 35  1  0  0  0  0
 15 16  1  0  0  0  0
 16 36  1  0  0  0  0
 16 37  1  0  0  0  0
 17 38  1  0  0  0  0
 17 39  1  0  0  0  0
 17 40  1  0  0  0  0
 18 19  1  0  0  0  0
 19 20  1  0  0  0  0
 19 21  2  0  0  0  0
 20 22  2  0  0  0  0
 21 23  1  0  0  0  0
 21 41  1  0  0  0  0
 22 24  1  0  0  0  0
 22 42  1  0  0  0  0
 23 24  2  0  0  0  0
 23 43  1  0  0  0  0
 24 44  1  0  0  0  0
M  END
> <PUBCHEM_COMPOUND_CID>
2401486

> <PUBCHEM_CONFORMER_RMSD>
1.2

> <PUBCHEM_CONFORMER_DIVERSEORDER>
2
66
33
155
136
22
103
152
79
92
105
119
12
89
104
81
90
93
74
3
150
4
27
125
128
61
16
139
30
56
85
112
131
69
43
102
63
115
62
57
42
10
1
96
6
138
151
53
86
58
68
25
17
46
49
98
95
36
73
24
91
52
75
34
148
130
29
14
84
156
41
51
109
134
60
127
82
110
64
11
124
67
108
76
146
94
142
31
47
19
28
21
45
54
122
18
20
120
141
144
97
121
78
126
118
123
101
113
143
149
100
48
114
35
65
40
44
71
59
9
117
133
50
147
83
72
80
70
7
154
38
8
26
77
106
107
140
88
13
5
87
116
111
99
135
39
23
132
129
145
153
55
15
37
137
32

> <PUBCHEM_MMFF94_PARTIAL_CHARGES>
29
1 -0.11
10 -0.09
11 -0.15
12 0.28
13 0.18
14 0.18
15 0.6
16 0.34
17 0.28
18 0.63
19 0.09
2 -0.56
20 0.11
21 -0.15
22 -0.15
23 -0.15
24 -0.15
27 0.15
3 -0.43
4 -0.57
41 0.15
42 0.15
43 0.15
44 0.15
5 -0.57
6 0.05
7 -0.33
8 -0.33
9 0.26

> <PUBCHEM_EFFECTIVE_ROTOR_COUNT>
8

> <PUBCHEM_PHARMACOPHORE_FEATURES>
7
1 1 hydrophobe
1 2 acceptor
1 4 acceptor
1 5 acceptor
1 6 cation
5 6 7 8 10 11 rings
6 19 20 21 22 23 24 rings

> <PUBCHEM_HEAVY_ATOM_COUNT>
24

> <PUBCHEM_ATOM_DEF_STEREO_COUNT>
0

> <PUBCHEM_ATOM_UDEF_STEREO_COUNT>
0

> <PUBCHEM_BOND_DEF_STEREO_COUNT>
0

> <PUBCHEM_BOND_UDEF_STEREO_COUNT>
0

> <PUBCHEM_ISOTOPIC_ATOM_COUNT>
0

> <PUBCHEM_COMPONENT_COUNT>
1

> <PUBCHEM_CACTVS_TAUTO_COUNT>
2

> <PUBCHEM_CONFORMER_ID>
0024A4CE00000002

> <PUBCHEM_MMFF94_ENERGY>
54.4563

> <PUBCHEM_FEATURE_SELFOVERLAP>
35.522

> <PUBCHEM_SHAPE_FINGERPRINT>
10076449 9 18410292550222299131
10087517 78 17313096441487680605
10693767 8 15410074868187893556
10835480 77 18412538803919843961
12236239 1 17821726156815158442
12516196 113 17917994996437739040
12616971 3 16587744261051535182
12730499 353 17346327042181611118
13167372 99 16515683321323644428
13533116 47 16200159764025504974
13668630 136 13398636048012014388
14528608 73 18060701693418416882
15183329 4 18113054952317682357
16079462 125 18411691093302638408
17844677 252 17131849646298428608
20281389 69 18040433274365217833
20511986 3 18261099768923079210
20645477 70 16701753661755797294
21150785 3 17632852049411452397
22061861 79 17203618060072233190
22122407 14 16371305371132720844
221357 26 17346607357332542528
2215653 11 17775283863283150224
23559900 14 18201714098103611353
23569914 152 16836852638960312653
239999 70 17989214759285678502
300161 21 18334573542506320778
34797466 226 17775011193258447536
4073 2 18337399330840843626
44249763 50 18337093648905836333
465052 167 10447927287322111600
5104073 3 18341339898625500074

> <PUBCHEM_SHAPE_MULTIPOLES>
471.39
19.17
2.1
1.67
5.9
0.54
1.44
-5.62
5.04
-2.3
0.19
0.51
-0.44
3

> <PUBCHEM_SHAPE_SELFOVERLAP>
977.957

> <PUBCHEM_SHAPE_VOLUME>
275.5

> <PUBCHEM_COORDINATE_TYPE>
2
5
10

$$$$
