2214687
  -OEChem-01171809183D

 52 54  0     0  0  0  0  0  0999 V2000
    0.1533   -3.1303   -0.0901 S   0  0  0  0  0  0  0  0  0  0  0  0
    3.6796    1.9769    1.6987 F   0  0  0  0  0  0  0  0  0  0  0  0
    0.1481   -3.8649    1.1566 O   0  0  0  0  0  0  0  0  0  0  0  0
   -0.0099   -3.8096   -1.3574 O   0  0  0  0  0  0  0  0  0  0  0  0
   -3.9816    1.0628    0.2484 O   0  0  0  0  0  0  0  0  0  0  0  0
   -7.1580    1.6957   -1.2663 O   0  0  0  0  0  0  0  0  0  0  0  0
   -6.4190    1.9971    0.8996 O   0  0  0  0  0  0  0  0  0  0  0  0
    1.5611   -2.1567   -0.1589 N   0  0  0  0  0  0  0  0  0  0  0  0
    3.4981   -0.0851   -0.1745 N   0  0  0  0  0  0  0  0  0  0  0  0
    1.6305   -1.2138   -1.3110 C   0  0  0  0  0  0  0  0  0  0  0  0
    1.9287   -1.4735    1.1133 C   0  0  0  0  0  0  0  0  0  0  0  0
    3.0531   -0.6779   -1.4439 C   0  0  0  0  0  0  0  0  0  0  0  0
    3.3538   -0.9359    1.0126 C   0  0  0  0  0  0  0  0  0  0  0  0
    4.5230    0.8665   -0.2244 C   0  0  0  0  0  0  0  0  0  0  0  0
   -1.0835   -1.8753    0.0174 C   0  0  0  0  0  0  0  0  0  0  0  0
   -1.4815   -1.4189    1.2636 C   0  0  0  0  0  0  0  0  0  0  0  0
    4.6011    1.9017    0.7281 C   0  0  0  0  0  0  0  0  0  0  0  0
    5.5081    0.8157   -1.2303 C   0  0  0  0  0  0  0  0  0  0  0  0
   -1.6357   -1.3667   -1.1470 C   0  0  0  0  0  0  0  0  0  0  0  0
   -2.4585   -0.4268    1.3475 C   0  0  0  0  0  0  0  0  0  0  0  0
   -2.6130   -0.3747   -1.0630 C   0  0  0  0  0  0  0  0  0  0  0  0
   -3.0247    0.0952    0.1843 C   0  0  0  0  0  0  0  0  0  0  0  0
    5.6237    2.8489    0.6764 C   0  0  0  0  0  0  0  0  0  0  0  0
    6.5313    1.7626   -1.2817 C   0  0  0  0  0  0  0  0  0  0  0  0
    6.5889    2.7793   -0.3284 C   0  0  0  0  0  0  0  0  0  0  0  0
   -2.8873    0.0635    2.6909 C   0  0  0  0  0  0  0  0  0  0  0  0
   -4.9482    1.0887   -0.7999 C   0  0  0  0  0  0  0  0  0  0  0  0
   -6.2379    1.6469   -0.2586 C   0  0  0  0  0  0  0  0  0  0  0  0
   -8.4436    2.2088   -0.9022 C   0  0  0  0  0  0  0  0  0  0  0  0
    1.3592   -1.7236   -2.2407 H   0  0  0  0  0  0  0  0  0  0  0  0
    0.9503   -0.3700   -1.1544 H   0  0  0  0  0  0  0  0  0  0  0  0
    1.2419   -0.6430    1.3086 H   0  0  0  0  0  0  0  0  0  0  0  0
    1.8814   -2.1736    1.9530 H   0  0  0  0  0  0  0  0  0  0  0  0
    3.0563    0.0658   -2.2507 H   0  0  0  0  0  0  0  0  0  0  0  0
    3.7290   -1.4952   -1.7262 H   0  0  0  0  0  0  0  0  0  0  0  0
    3.5863   -0.3923    1.9347 H   0  0  0  0  0  0  0  0  0  0  0  0
    4.0650   -1.7686    0.9405 H   0  0  0  0  0  0  0  0  0  0  0  0
   -1.0413   -1.8202    2.1720 H   0  0  0  0  0  0  0  0  0  0  0  0
    5.5093    0.0302   -1.9817 H   0  0  0  0  0  0  0  0  0  0  0  0
   -1.3245   -1.7130   -2.1278 H   0  0  0  0  0  0  0  0  0  0  0  0
   -3.0051    0.0235   -1.9941 H   0  0  0  0  0  0  0  0  0  0  0  0
    5.6688    3.6399    1.4190 H   0  0  0  0  0  0  0  0  0  0  0  0
    7.2852    1.7065   -2.0615 H   0  0  0  0  0  0  0  0  0  0  0  0
    7.3859    3.5160   -0.3677 H   0  0  0  0  0  0  0  0  0  0  0  0
   -3.9581   -0.1143    2.8362 H   0  0  0  0  0  0  0  0  0  0  0  0
   -2.6854    1.1354    2.7862 H   0  0  0  0  0  0  0  0  0  0  0  0
   -2.3560   -0.4453    3.5023 H   0  0  0  0  0  0  0  0  0  0  0  0
   -5.1758    0.0805   -1.1678 H   0  0  0  0  0  0  0  0  0  0  0  0
   -4.5907    1.7416   -1.6028 H   0  0  0  0  0  0  0  0  0  0  0  0
   -8.3536    3.2414   -0.5515 H   0  0  0  0  0  0  0  0  0  0  0  0
   -9.0798    2.1942   -1.7911 H   0  0  0  0  0  0  0  0  0  0  0  0
   -8.8995    1.5774   -0.1336 H   0  0  0  0  0  0  0  0  0  0  0  0
  1  3  2  0  0  0  0
  1  4  2  0  0  0  0
  1  8  1  0  0  0  0
  1 15  1  0  0  0  0
  2 17  1  0  0  0  0
  5 22  1  0  0  0  0
  5 27  1  0  0  0  0
  6 28  1  0  0  0  0
  6 29  1  0  0  0  0
  7 28  2  0  0  0  0
  8 10  1  0  0  0  0
  8 11  1  0  0  0  0
  9 12  1  0  0  0  0
  9 13  1  0  0  0  0
  9 14  1  0  0  0  0
 10 12  1  0  0  0  0
 10 30  1  0  0  0  0
 10 31  1  0  0  0  0
 11 13  1  0  0  0  0
 11 32  1  0  0  0  0
 11 33  1  0  0  0  0
 12 34  1  0  0  0  0
 12 35  1  0  0  0  0
 13 36  1  0  0  0  0
 13 37  1  0  0  0  0
 14 17  1  0  0  0  0
 14 18  2  0  0  0  0
 15 16  2  0  0  0  0
 15 19  1  0  0  0  0
 16 20  1  0  0  0  0
 16 38  1  0  0  0  0
 17 23  2  0  0  0  0
 18 24  1  0  0  0  0
 18 39  1  0  0  0  0
 19 21  2  0  0  0  0
 19 40  1  0  0  0  0
 20 22  2  0  0  0  0
 20 26  1  0  0  0  0
 21 22  1  0  0  0  0
 21 41  1  0  0  0  0
 23 25  1  0  0  0  0
 23 42  1  0  0  0  0
 24 25  2  0  0  0  0
 24 43  1  0  0  0  0
 25 44  1  0  0  0  0
 26 45  1  0  0  0  0
 26 46  1  0  0  0  0
 26 47  1  0  0  0  0
 27 28  1  0  0  0  0
 27 48  1  0  0  0  0
 27 49  1  0  0  0  0
 29 50  1  0  0  0  0
 29 51  1  0  0  0  0
 29 52  1  0  0  0  0
M  END
> <PUBCHEM_COMPOUND_CID>
2214687

> <PUBCHEM_CONFORMER_RMSD>
1

> <PUBCHEM_CONFORMER_DIVERSEORDER>
3
158
8
128
188
167
103
231
73
237
159
218
141
142
181
164
236
155
156
174
138
170
62
91
198
214
35
17
190
165
228
70
39
183
59
105
215
185
147
241
135
151
16
211
116
150
207
194
63
122
37
64
40
20
133
99
240
72
112
80
209
172
68
118
34
203
139
123
45
51
81
223
216
87
154
89
130
82
95
28
24
114
121
208
11
157
94
69
86
196
232
191
212
32
56
113
184
143
30
67
42
109
193
21
58
161
229
9
18
178
12
76
43
136
182
5
163
162
22
14
93
54
25
175
202
233
145
124
192
38
230
206
140
117
176
41
31
120
171
204
199
195
55
127
90
169
4
189
84
205
92
23
104
60
200
71
180
98
210
44
7
65
152
102
26
111
126
13
149
29
238
239
222
85
10
219
61
137
234
57
132
1
52
53
48
100
108
221
19
217
107
110
144
78
66
160
88
148
129
227
213
153
50
197
179
49
186
74
125
177
220
46
201
119
235
226
106
168
79
83
77
33
96
2
173
187
166
131
134
146
15
224
6
101
47
115
36
225
97
75
27

> <PUBCHEM_MMFF94_PARTIAL_CHARGES>
36
1 1.45
10 0.36
11 0.36
12 0.37
13 0.37
14 0.1
15 -0.01
16 -0.15
17 0.19
18 -0.15
19 -0.15
2 -0.19
20 -0.14
21 -0.15
22 0.08
23 -0.15
24 -0.15
25 -0.15
26 0.14
27 0.34
28 0.66
29 0.28
3 -0.65
38 0.15
39 0.15
4 -0.65
40 0.15
41 0.15
42 0.15
43 0.15
44 0.15
5 -0.36
6 -0.43
7 -0.57
8 -0.85
9 -0.84

> <PUBCHEM_EFFECTIVE_ROTOR_COUNT>
8.2

> <PUBCHEM_PHARMACOPHORE_FEATURES>
8
1 3 acceptor
1 4 acceptor
1 5 acceptor
1 7 acceptor
1 9 cation
6 14 17 18 23 24 25 rings
6 15 16 19 20 21 22 rings
6 8 9 10 11 12 13 rings

> <PUBCHEM_HEAVY_ATOM_COUNT>
29

> <PUBCHEM_ATOM_DEF_STEREO_COUNT>
0

> <PUBCHEM_ATOM_UDEF_STEREO_COUNT>
0

> <PUBCHEM_BOND_DEF_STEREO_COUNT>
0

> <PUBCHEM_BOND_UDEF_STEREO_COUNT>
0

> <PUBCHEM_ISOTOPIC_ATOM_COUNT>
0

> <PUBCHEM_COMPONENT_COUNT>
1

> <PUBCHEM_CACTVS_TAUTO_COUNT>
1

> <PUBCHEM_CONFORMER_ID>
0021CB1F00000003

> <PUBCHEM_MMFF94_ENERGY>
78.8254

> <PUBCHEM_FEATURE_SELFOVERLAP>
40.622

> <PUBCHEM_SHAPE_FINGERPRINT>
10006869 2 18260821558538108452
10673678 19 18340485578506844591
11135609 127 18045768002548030253
11211813 74 18265327302130295589
1200032 147 18333169457905229352
12403259 118 17531540895822437895
12633257 1 15502662628015094718
13103583 49 15213583459331052834
13583140 156 13624910151204186454
13944108 23 18053667966801007952
13947930 73 10807638026386791789
14142895 15 18410849946725108277
14216079 64 9367343739391688109
14251764 30 9727633899529079053
14251764 75 18334853943841434044
14359421 15 12823304472375444365
14565420 104 18114458972810834275
14931854 50 17703796915838547624
14950920 106 15575564720372125676
15183329 4 17775565321734704153
15198563 99 17623845030076912207
15475509 8 14261346947883678539
15513586 35 16591696064903285076
16120349 189 18334860558075005764
16994733 274 18261663814931879005
17492 54 17632577145555408499
19301679 30 8070033293724373879
19438510 23 18260829310616377056
21033648 29 18187367666405582524
23522609 53 17416977115454973425
23559900 14 17098081342281796339
23845131 108 18260548918225360099
270888 7 18409165532458135460
2838139 119 18337101264178010909
3246875 12 18335703867010135019
3472631 163 18343580741845198255
34797466 226 18058448713005612413
3627633 1 17688875658308060655
3862424 121 14476094861517622709
4112364 45 17895181173864697130
439807 62 11959732672394773125
469060 322 17606971869023636162
484985 159 9942988645070977263
57724786 102 18187077352481232514
59682541 52 16774083947235274612
6327066 14 18410293644288869036
6431902 208 8502112712146462208
6712543 237 15285354020573299265
7970288 3 9439404627026122700
9555976 147 13624106240848634277
9849439 229 18334852831407883634

> <PUBCHEM_SHAPE_MULTIPOLES>
554.07
18.61
3.93
1.74
14.94
2.09
0.6
-27.2
-4.65
-0.9
-0.13
0.41
0.14
1.14

> <PUBCHEM_SHAPE_SELFOVERLAP>
1160.059

> <PUBCHEM_SHAPE_VOLUME>
316.8

> <PUBCHEM_COORDINATE_TYPE>
2
5
10

$$$$
