2439209
  -OEChem-01171809383D

 41 42  0     0  0  0  0  0  0999 V2000
   -4.3880   -3.0298   -1.4031 Cl  0  0  0  0  0  0  0  0  0  0  0  0
   -6.8500   -1.9154    0.4643 Cl  0  0  0  0  0  0  0  0  0  0  0  0
   -2.4708    2.1317   -1.0462 O   0  0  0  0  0  0  0  0  0  0  0  0
    1.5051    0.8653   -1.2291 O   0  0  0  0  0  0  0  0  0  0  0  0
   -2.0011   -1.4082   -0.9527 O   0  0  0  0  0  0  0  0  0  0  0  0
   -0.3174    2.6293   -0.3411 N   0  0  0  0  0  0  0  0  0  0  0  0
   -2.8250    0.0877    0.6133 N   0  0  0  0  0  0  0  0  0  0  0  0
    2.7969    1.0268    0.7254 N   0  0  0  0  0  0  0  0  0  0  0  0
   -3.8765    0.5278    1.3808 N   0  0  0  0  0  0  0  0  0  0  0  0
    0.8039    2.3345    0.5423 C   0  0  0  0  0  0  0  0  0  0  0  0
   -1.5670    0.7714    0.7086 C   0  0  0  0  0  0  0  0  0  0  0  0
   -1.5103    1.8985   -0.3075 C   0  0  0  0  0  0  0  0  0  0  0  0
    1.7273    1.3264   -0.1141 C   0  0  0  0  0  0  0  0  0  0  0  0
   -0.1073    3.7420   -1.2641 C   0  0  0  0  0  0  0  0  0  0  0  0
    3.8672    0.1353    0.4746 C   0  0  0  0  0  0  0  0  0  0  0  0
   -2.9352   -1.0040   -0.2590 C   0  0  0  0  0  0  0  0  0  0  0  0
    4.8473   -0.0343    1.4385 C   0  0  0  0  0  0  0  0  0  0  0  0
    3.9117   -0.5487   -0.7288 C   0  0  0  0  0  0  0  0  0  0  0  0
    5.9619   -1.6092   -0.0152 C   0  0  0  0  0  0  0  0  0  0  0  0
    5.9022   -0.9128    1.1917 C   0  0  0  0  0  0  0  0  0  0  0  0
    4.9667   -1.4273   -0.9755 C   0  0  0  0  0  0  0  0  0  0  0  0
   -4.2591   -1.6867   -0.3274 C   0  0  0  0  0  0  0  0  0  0  0  0
    7.0895   -2.5491   -0.2790 C   0  0  0  0  0  0  0  0  0  0  0  0
   -4.9995   -0.0990    1.2826 C   0  0  0  0  0  0  0  0  0  0  0  0
   -5.2724   -1.2523    0.4207 C   0  0  0  0  0  0  0  0  0  0  0  0
    1.3589    3.2595    0.7378 H   0  0  0  0  0  0  0  0  0  0  0  0
    0.4693    1.9445    1.5060 H   0  0  0  0  0  0  0  0  0  0  0  0
   -0.7469    0.0690    0.5332 H   0  0  0  0  0  0  0  0  0  0  0  0
   -1.4868    1.1804    1.7208 H   0  0  0  0  0  0  0  0  0  0  0  0
    0.7782    3.5432   -1.8743 H   0  0  0  0  0  0  0  0  0  0  0  0
    0.0399    4.6580   -0.6846 H   0  0  0  0  0  0  0  0  0  0  0  0
   -0.9710    3.8729   -1.9208 H   0  0  0  0  0  0  0  0  0  0  0  0
    2.8289    1.4967    1.6278 H   0  0  0  0  0  0  0  0  0  0  0  0
    4.8104    0.5036    2.3817 H   0  0  0  0  0  0  0  0  0  0  0  0
    3.1827   -0.4616   -1.5206 H   0  0  0  0  0  0  0  0  0  0  0  0
    6.6725   -1.0448    1.9470 H   0  0  0  0  0  0  0  0  0  0  0  0
    5.0045   -1.9636   -1.9202 H   0  0  0  0  0  0  0  0  0  0  0  0
   -5.8425    0.2551    1.8988 H   0  0  0  0  0  0  0  0  0  0  0  0
    7.9133   -2.0195   -0.7677 H   0  0  0  0  0  0  0  0  0  0  0  0
    7.4603   -2.9927    0.6513 H   0  0  0  0  0  0  0  0  0  0  0  0
    6.7720   -3.3758   -0.9235 H   0  0  0  0  0  0  0  0  0  0  0  0
  1 22  1  0  0  0  0
  2 25  1  0  0  0  0
  3 12  2  0  0  0  0
  4 13  2  0  0  0  0
  5 16  2  0  0  0  0
  6 10  1  0  0  0  0
  6 12  1  0  0  0  0
  6 14  1  0  0  0  0
  7  9  1  0  0  0  0
  7 11  1  0  0  0  0
  7 16  1  0  0  0  0
  8 13  1  0  0  0  0
  8 15  1  0  0  0  0
  8 33  1  0  0  0  0
  9 24  2  0  0  0  0
 10 13  1  0  0  0  0
 10 26  1  0  0  0  0
 10 27  1  0  0  0  0
 11 12  1  0  0  0  0
 11 28  1  0  0  0  0
 11 29  1  0  0  0  0
 14 30  1  0  0  0  0
 14 31  1  0  0  0  0
 14 32  1  0  0  0  0
 15 17  2  0  0  0  0
 15 18  1  0  0  0  0
 16 22  1  0  0  0  0
 17 20  1  0  0  0  0
 17 34  1  0  0  0  0
 18 21  2  0  0  0  0
 18 35  1  0  0  0  0
 19 20  2  0  0  0  0
 19 21  1  0  0  0  0
 19 23  1  0  0  0  0
 20 36  1  0  0  0  0
 21 37  1  0  0  0  0
 22 25  2  0  0  0  0
 23 39  1  0  0  0  0
 23 40  1  0  0  0  0
 23 41  1  0  0  0  0
 24 25  1  0  0  0  0
 24 38  1  0  0  0  0
M  END
> <PUBCHEM_COMPOUND_CID>
2439209

> <PUBCHEM_CONFORMER_RMSD>
0.8

> <PUBCHEM_CONFORMER_DIVERSEORDER>
1
27
24
222
269
154
259
98
26
67
75
223
109
60
34
255
18
198
134
215
228
271
235
101
174
257
194
175
265
180
161
49
93
15
208
176
139
22
253
251
58
137
188
39
157
163
205
127
105
233
53
153
186
25
59
263
7
212
132
261
116
120
162
121
173
196
165
230
81
50
122
123
226
145
140
107
79
112
113
217
142
266
224
203
245
272
199
114
88
32
6
13
268
136
250
246
85
158
191
46
241
138
90
152
3
225
92
11
178
273
206
118
28
155
41
57
156
128
94
117
247
216
183
42
83
170
87
23
135
264
131
80
129
185
236
82
33
260
187
243
55
71
177
237
267
239
249
146
211
141
78
218
252
148
232
51
234
168
182
106
160
166
62
56
45
220
149
72
143
44
108
210
103
21
219
110
5
214
54
150
115
95
204
74
66
256
231
248
242
147
29
70
130
270
52
65
240
68
172
238
14
47
169
200
96
262
99
100
229
16
167
73
207
159
38
19
4
133
197
17
254
193
179
91
84
102
125
189
76
244
209
190
9
77
86
31
181
221
36
192
40
119
227
48
37
20
111
171
258
97
43
184
201
30
195
10
126
12
35
64
144
89
124
63
69
61
164
202
213
104
2
151
8

> <PUBCHEM_MMFF94_PARTIAL_CHARGES>
31
1 -0.14
10 0.36
11 0.36
12 0.57
13 0.57
14 0.3
15 0.12
16 0.62
17 -0.15
18 -0.15
19 -0.14
2 -0.14
20 -0.15
21 -0.15
22 0.15
23 0.14
24 0.38
25 0.15
3 -0.57
33 0.37
34 0.15
35 0.15
36 0.15
37 0.15
38 0.06
4 -0.57
5 -0.57
6 -0.66
7 -0.3
8 -0.55
9 -0.51

> <PUBCHEM_EFFECTIVE_ROTOR_COUNT>
7

> <PUBCHEM_PHARMACOPHORE_FEATURES>
7
1 3 acceptor
1 4 acceptor
1 5 acceptor
1 8 donor
1 9 acceptor
6 15 17 18 19 20 21 rings
6 7 9 16 22 24 25 rings

> <PUBCHEM_HEAVY_ATOM_COUNT>
25

> <PUBCHEM_ATOM_DEF_STEREO_COUNT>
0

> <PUBCHEM_ATOM_UDEF_STEREO_COUNT>
0

> <PUBCHEM_BOND_DEF_STEREO_COUNT>
0

> <PUBCHEM_BOND_UDEF_STEREO_COUNT>
0

> <PUBCHEM_ISOTOPIC_ATOM_COUNT>
0

> <PUBCHEM_COMPONENT_COUNT>
1

> <PUBCHEM_CACTVS_TAUTO_COUNT>
2

> <PUBCHEM_CONFORMER_ID>
0025382900000001

> <PUBCHEM_MMFF94_ENERGY>
72.121

> <PUBCHEM_FEATURE_SELFOVERLAP>
35.523

> <PUBCHEM_SHAPE_FINGERPRINT>
10042902 136 18412830209256380686
10622 236 17912915373578456991
10753850 27 18334012813119310123
11796584 16 17832702371643650306
11809386 21 17969215643065827200
11991303 11 17316469609986439613
12107183 9 18271539606676395505
12166972 35 17530969106884538958
12422481 6 17989213641797837375
12633257 1 15913044377946317540
12760667 363 18260833691593619657
13533116 47 18198625630434629873
13551218 46 18343585157135180399
13690498 29 18187649055467487188
13757389 114 17680427745436483884
14114206 34 16950557749162781317
14216079 64 18411136948596858107
14251751 18 18412263926170921576
14251764 30 17895484721063710475
14257110 125 9439409029303667303
14347329 18 8502368923982899126
14347332 77 18188206490698425602
14420673 8 18411142428985703475
14556957 393 16661225645712237974
14950920 106 17203605982597933890
15042514 8 18337671923514046829
16110190 28 18202001062243451174
16120349 21 18341620283038719201
17492 89 18051132789899171395
17780758 139 17917993841107341280
1813 80 18260552250697579221
193927 3 18113341916136016048
1979834 28 17131567101405609942
20028762 73 18343302587010952894
20403669 9 18410857672279224210
21365058 113 17240770639932786189
229767 44 17988921201643571966
23522609 53 18050041919434715960
270888 7 9727638288800987395
2748736 6 9871747979614454386
2838139 119 7997973470698555160
3004659 81 17894915135411813268
3014063 24 18271520987729175743
312425 54 17775289356541333258
3388396 114 16734703877640819028
351380 3 18260831492612783026
463206 1 18261393402910215035
484985 159 18269835316065641633
5104073 3 17701831110040144995
559249 180 18412547600824950763
56633871 153 18343584066387820695
59682541 52 13479120286285136472
6058803 2 17982467185296485889
636775 8 18057615257887126702
6700243 42 17910987676666188756
7288768 16 11095885981838970669
7970288 3 18334013912584166762
8863177 126 18272929389632139090

> <PUBCHEM_SHAPE_MULTIPOLES>
480.7
17.35
3.52
1.32
8.45
1.65
0.02
-18.67
3.4
-0.93
-1.66
-0.11
0.06
-0.19

> <PUBCHEM_SHAPE_SELFOVERLAP>
991.297

> <PUBCHEM_SHAPE_VOLUME>
276.1

> <PUBCHEM_COORDINATE_TYPE>
2
5
10

$$$$
