4170685
  -OEChem-01171809393D

 45 48  0     1  0  0  0  0  0999 V2000
   -3.8000   -2.6667   -1.2155 O   0  0  0  0  0  0  0  0  0  0  0  0
    3.7751    0.6921   -1.3029 O   0  0  0  0  0  0  0  0  0  0  0  0
   -1.2038   -0.3408   -0.6323 N   0  0  1  0  0  0  0  0  0  0  0  0
    0.0400   -1.9002    0.5429 C   0  0  1  0  0  0  0  0  0  0  0  0
   -0.9043   -0.6889    0.7653 C   0  0  2  0  0  0  0  0  0  0  0  0
   -1.6246   -1.6105   -1.2235 C   0  0  1  0  0  0  0  0  0  0  0  0
   -0.4763   -2.5291   -0.7828 C   0  0  0  0  0  0  0  0  0  0  0  0
   -2.1362   -1.1660    1.5092 C   0  0  0  0  0  0  0  0  0  0  0  0
   -2.9372   -2.0660   -0.5790 C   0  0  0  0  0  0  0  0  0  0  0  0
   -2.0845    0.7934   -0.8425 C   0  0  0  0  0  0  0  0  0  0  0  0
    1.5072   -1.5079    0.5346 C   0  0  0  0  0  0  0  0  0  0  0  0
   -3.1260   -1.8142    0.8793 C   0  0  0  0  0  0  0  0  0  0  0  0
   -1.4742    2.0211   -0.2379 C   0  0  0  0  0  0  0  0  0  0  0  0
    1.9704   -0.5767   -0.3912 C   0  0  0  0  0  0  0  0  0  0  0  0
    2.3825   -2.0827    1.4524 C   0  0  0  0  0  0  0  0  0  0  0  0
    3.3183   -0.2176   -0.3993 C   0  0  0  0  0  0  0  0  0  0  0  0
    3.7304   -1.7239    1.4442 C   0  0  0  0  0  0  0  0  0  0  0  0
   -1.7494    2.3490    1.0861 C   0  0  0  0  0  0  0  0  0  0  0  0
   -0.6366    2.8254   -1.0048 C   0  0  0  0  0  0  0  0  0  0  0  0
    4.1983   -0.7913    0.5184 C   0  0  0  0  0  0  0  0  0  0  0  0
   -1.1815    3.4921    1.6487 C   0  0  0  0  0  0  0  0  0  0  0  0
   -0.0684    3.9683   -0.4421 C   0  0  0  0  0  0  0  0  0  0  0  0
   -0.3408    4.3017    0.8847 C   0  0  0  0  0  0  0  0  0  0  0  0
    2.8215    1.2392   -2.2121 C   0  0  0  0  0  0  0  0  0  0  0  0
   -0.1031   -2.6408    1.3429 H   0  0  0  0  0  0  0  0  0  0  0  0
   -0.3980    0.1008    1.3278 H   0  0  0  0  0  0  0  0  0  0  0  0
   -1.7299   -1.5617   -2.3113 H   0  0  0  0  0  0  0  0  0  0  0  0
    0.3088   -2.5612   -1.5473 H   0  0  0  0  0  0  0  0  0  0  0  0
   -0.8177   -3.5569   -0.6128 H   0  0  0  0  0  0  0  0  0  0  0  0
   -2.1957   -0.9899    2.5784 H   0  0  0  0  0  0  0  0  0  0  0  0
   -3.0952    0.6508   -0.4413 H   0  0  0  0  0  0  0  0  0  0  0  0
   -2.2208    0.9564   -1.9197 H   0  0  0  0  0  0  0  0  0  0  0  0
   -4.0159   -2.1720    1.3786 H   0  0  0  0  0  0  0  0  0  0  0  0
    1.2668   -0.1636   -1.1005 H   0  0  0  0  0  0  0  0  0  0  0  0
    2.0335   -2.8104    2.1798 H   0  0  0  0  0  0  0  0  0  0  0  0
    4.4157   -2.1705    2.1587 H   0  0  0  0  0  0  0  0  0  0  0  0
   -2.4164    1.7421    1.6912 H   0  0  0  0  0  0  0  0  0  0  0  0
   -0.4173    2.5762   -2.0394 H   0  0  0  0  0  0  0  0  0  0  0  0
    5.2494   -0.5158    0.5170 H   0  0  0  0  0  0  0  0  0  0  0  0
   -1.3969    3.7542    2.6804 H   0  0  0  0  0  0  0  0  0  0  0  0
    0.5866    4.5981   -1.0370 H   0  0  0  0  0  0  0  0  0  0  0  0
    0.1010    5.1920    1.3226 H   0  0  0  0  0  0  0  0  0  0  0  0
    2.0568    1.8172   -1.6862 H   0  0  0  0  0  0  0  0  0  0  0  0
    2.3927    0.4691   -2.8621 H   0  0  0  0  0  0  0  0  0  0  0  0
    3.3589    1.9391   -2.8605 H   0  0  0  0  0  0  0  0  0  0  0  0
  1  9  2  0  0  0  0
  2 16  1  0  0  0  0
  2 24  1  0  0  0  0
  3  5  1  0  0  0  0
  3  6  1  0  0  0  0
  3 10  1  0  0  0  0
  4  5  1  0  0  0  0
  4  7  1  0  0  0  0
  4 11  1  0  0  0  0
  4 25  1  0  0  0  0
  5  8  1  0  0  0  0
  5 26  1  0  0  0  0
  6  7  1  0  0  0  0
  6  9  1  0  0  0  0
  6 27  1  0  0  0  0
  7 28  1  0  0  0  0
  7 29  1  0  0  0  0
  8 12  2  0  0  0  0
  8 30  1  0  0  0  0
  9 12  1  0  0  0  0
 10 13  1  0  0  0  0
 10 31  1  0  0  0  0
 10 32  1  0  0  0  0
 11 14  2  0  0  0  0
 11 15  1  0  0  0  0
 12 33  1  0  0  0  0
 13 18  2  0  0  0  0
 13 19  1  0  0  0  0
 14 16  1  0  0  0  0
 14 34  1  0  0  0  0
 15 17  2  0  0  0  0
 15 35  1  0  0  0  0
 16 20  2  0  0  0  0
 17 20  1  0  0  0  0
 17 36  1  0  0  0  0
 18 21  1  0  0  0  0
 18 37  1  0  0  0  0
 19 22  2  0  0  0  0
 19 38  1  0  0  0  0
 20 39  1  0  0  0  0
 21 23  2  0  0  0  0
 21 40  1  0  0  0  0
 22 23  1  0  0  0  0
 22 41  1  0  0  0  0
 23 42  1  0  0  0  0
 24 43  1  0  0  0  0
 24 44  1  0  0  0  0
 24 45  1  0  0  0  0
M  END
> <PUBCHEM_COMPOUND_CID>
4170685

> <PUBCHEM_CONFORMER_RMSD>
0.8

> <PUBCHEM_CONFORMER_DIVERSEORDER>
10
54
23
32
62
4
8
59
39
41
63
15
64
25
61
37
46
34
7
22
31
24
58
51
26
48
47
55
14
29
3
40
19
11
52
6
18
53
57
43
21
12
16
49
30
35
9
42
20
56
5
33
50
45
17
27
1
36
44
60
13
28
2
38

> <PUBCHEM_MMFF94_PARTIAL_CHARGES>
34
1 -0.57
10 0.41
11 -0.14
12 -0.14
13 -0.14
14 -0.15
15 -0.15
16 0.08
17 -0.15
18 -0.15
19 -0.15
2 -0.36
20 -0.15
21 -0.15
22 -0.15
23 -0.15
24 0.28
3 -0.81
30 0.15
33 0.15
34 0.15
35 0.15
36 0.15
37 0.15
38 0.15
39 0.15
4 0.14
40 0.15
41 0.15
42 0.15
5 0.41
6 0.33
8 -0.29
9 0.49

> <PUBCHEM_EFFECTIVE_ROTOR_COUNT>
4.6

> <PUBCHEM_PHARMACOPHORE_FEATURES>
6
1 1 acceptor
1 2 acceptor
1 3 cation
6 11 14 15 16 17 20 rings
6 13 18 19 21 22 23 rings
8 3 4 5 6 7 8 9 12 rings

> <PUBCHEM_HEAVY_ATOM_COUNT>
24

> <PUBCHEM_ATOM_DEF_STEREO_COUNT>
0

> <PUBCHEM_ATOM_UDEF_STEREO_COUNT>
3

> <PUBCHEM_BOND_DEF_STEREO_COUNT>
0

> <PUBCHEM_BOND_UDEF_STEREO_COUNT>
0

> <PUBCHEM_ISOTOPIC_ATOM_COUNT>
0

> <PUBCHEM_COMPONENT_COUNT>
1

> <PUBCHEM_CACTVS_TAUTO_COUNT>
1

> <PUBCHEM_CONFORMER_ID>
003FA3BD0000000A

> <PUBCHEM_MMFF94_ENERGY>
86.3686

> <PUBCHEM_FEATURE_SELFOVERLAP>
30.446

> <PUBCHEM_SHAPE_FINGERPRINT>
10006869 2 18192171320953998505
10090160 65 17687170999247719269
10165383 225 17196052195690989248
10670039 82 18335423500530839828
10721379 63 17335304592115087639
10871710 139 18265357116711303228
1100329 8 18412266151449615433
11640471 11 16546052678254180097
12156800 1 15475986247016831064
12553582 1 18267594674381721494
12633257 1 16596220151393152104
12788726 201 18410582751485741849
13009979 54 18261662676422738898
13140716 1 18408884014347051225
133893 2 17621859308161209039
13583140 156 16735812017124363152
14713325 29 18267875977707706274
14787075 74 17391656740217949122
14955137 171 17909869666144821331
15664445 248 18129106803817513719
1813 80 17987795370835754015
18981168 100 17770798822315148978
20600515 1 17773585212276329271
20715895 44 17321534987189040845
21524375 3 17762049948168336953
21731228 192 17545038204154237448
23419403 2 16383314318756312598
23557571 272 18343012281538776714
23558518 356 17834111940669844839
350125 39 17622166759094643075
35225 105 17913232887214083432
352729 6 18193551177707792399
3610482 184 17611519278118662852
392239 28 18339363088841673056
474 4 17185871688770478833
532947 4 17762613297543361841
6786 2 17122865369052154369
6992083 37 17826788136592834502
7164475 11 18338508647620460590
7471813 234 18264753510829566790
81228 2 18338801109165303435

> <PUBCHEM_SHAPE_MULTIPOLES>
477.19
5.9
5.07
1.71
6.59
3.97
-0.11
-1.43
0.48
-4.91
0.14
0.33
0.3
-2.06

> <PUBCHEM_SHAPE_SELFOVERLAP>
1047.278

> <PUBCHEM_SHAPE_VOLUME>
258.3

> <PUBCHEM_COORDINATE_TYPE>
2
5
10

$$$$
