310860
  -OEChem-01171809573D

 29 31  0     0  0  0  0  0  0999 V2000
    1.8130    1.6848    0.0114 O   0  0  0  0  0  0  0  0  0  0  0  0
   -0.2930    2.5601   -0.0281 O   0  0  0  0  0  0  0  0  0  0  0  0
   -5.7482   -0.6320    0.0193 N   0  0  0  0  0  0  0  0  0  0  0  0
   -0.1330    0.1861   -0.0162 C   0  0  0  0  0  0  0  0  0  0  0  0
    2.1252   -0.7224   -0.0060 C   0  0  0  0  0  0  0  0  0  0  0  0
   -1.5925   -0.0269   -0.0070 C   0  0  0  0  0  0  0  0  0  0  0  0
    0.6802   -0.8812   -0.0129 C   0  0  0  0  0  0  0  0  0  0  0  0
    2.6591    0.5605    0.0084 C   0  0  0  0  0  0  0  0  0  0  0  0
    0.4258    1.5659   -0.0093 C   0  0  0  0  0  0  0  0  0  0  0  0
   -2.2756   -0.1187    1.2053 C   0  0  0  0  0  0  0  0  0  0  0  0
   -2.2884   -0.1360   -1.2106 C   0  0  0  0  0  0  0  0  0  0  0  0
    2.9955   -1.8152   -0.0099 C   0  0  0  0  0  0  0  0  0  0  0  0
    4.0345    0.7832    0.0188 C   0  0  0  0  0  0  0  0  0  0  0  0
   -3.6559   -0.3205    1.2140 C   0  0  0  0  0  0  0  0  0  0  0  0
   -3.6686   -0.3379   -1.2020 C   0  0  0  0  0  0  0  0  0  0  0  0
   -4.3523   -0.4303    0.0104 C   0  0  0  0  0  0  0  0  0  0  0  0
    4.3780   -1.6083    0.0002 C   0  0  0  0  0  0  0  0  0  0  0  0
    4.8961   -0.3115    0.0145 C   0  0  0  0  0  0  0  0  0  0  0  0
    0.2863   -1.8938   -0.0121 H   0  0  0  0  0  0  0  0  0  0  0  0
   -1.7467   -0.0343    2.1516 H   0  0  0  0  0  0  0  0  0  0  0  0
   -1.7695   -0.0651   -2.1635 H   0  0  0  0  0  0  0  0  0  0  0  0
    2.6127   -2.8326   -0.0203 H   0  0  0  0  0  0  0  0  0  0  0  0
    4.4353    1.7921    0.0296 H   0  0  0  0  0  0  0  0  0  0  0  0
   -4.1775   -0.3900    2.1652 H   0  0  0  0  0  0  0  0  0  0  0  0
   -4.2002   -0.4209   -2.1465 H   0  0  0  0  0  0  0  0  0  0  0  0
    5.0522   -2.4601   -0.0029 H   0  0  0  0  0  0  0  0  0  0  0  0
    5.9712   -0.1571    0.0222 H   0  0  0  0  0  0  0  0  0  0  0  0
   -6.2531   -0.7156   -0.8530 H   0  0  0  0  0  0  0  0  0  0  0  0
   -6.2437   -0.7030    0.8980 H   0  0  0  0  0  0  0  0  0  0  0  0
  1  8  1  0  0  0  0
  1  9  1  0  0  0  0
  2  9  2  0  0  0  0
  3 16  1  0  0  0  0
  3 28  1  0  0  0  0
  3 29  1  0  0  0  0
  4  6  1  0  0  0  0
  4  7  2  0  0  0  0
  4  9  1  0  0  0  0
  5  7  1  0  0  0  0
  5  8  1  0  0  0  0
  5 12  2  0  0  0  0
  6 10  2  0  0  0  0
  6 11  1  0  0  0  0
  7 19  1  0  0  0  0
  8 13  2  0  0  0  0
 10 14  1  0  0  0  0
 10 20  1  0  0  0  0
 11 15  2  0  0  0  0
 11 21  1  0  0  0  0
 12 17  1  0  0  0  0
 12 22  1  0  0  0  0
 13 18  1  0  0  0  0
 13 23  1  0  0  0  0
 14 16  2  0  0  0  0
 14 24  1  0  0  0  0
 15 16  1  0  0  0  0
 15 25  1  0  0  0  0
 17 18  2  0  0  0  0
 17 26  1  0  0  0  0
 18 27  1  0  0  0  0
M  END
> <PUBCHEM_COMPOUND_CID>
310860

> <PUBCHEM_CONFORMER_RMSD>
0.6

> <PUBCHEM_CONFORMER_DIVERSEORDER>
1
2

> <PUBCHEM_MMFF94_PARTIAL_CHARGES>
29
1 -0.23
10 -0.15
11 -0.15
12 -0.15
13 -0.15
14 -0.15
15 -0.15
16 0.1
17 -0.15
18 -0.15
19 0.15
2 -0.57
20 0.15
21 0.15
22 0.15
23 0.15
24 0.15
25 0.15
26 0.15
27 0.15
28 0.4
29 0.4
3 -0.9
4 -0.01
5 0.03
6 0.03
7 -0.18
8 0.08
9 0.71

> <PUBCHEM_EFFECTIVE_ROTOR_COUNT>
1

> <PUBCHEM_PHARMACOPHORE_FEATURES>
6
1 2 acceptor
1 3 cation
1 3 donor
6 1 4 5 7 8 9 rings
6 5 8 12 13 17 18 rings
6 6 10 11 14 15 16 rings

> <PUBCHEM_HEAVY_ATOM_COUNT>
18

> <PUBCHEM_ATOM_DEF_STEREO_COUNT>
0

> <PUBCHEM_ATOM_UDEF_STEREO_COUNT>
0

> <PUBCHEM_BOND_DEF_STEREO_COUNT>
0

> <PUBCHEM_BOND_UDEF_STEREO_COUNT>
0

> <PUBCHEM_ISOTOPIC_ATOM_COUNT>
0

> <PUBCHEM_COMPONENT_COUNT>
1

> <PUBCHEM_CACTVS_TAUTO_COUNT>
1

> <PUBCHEM_CONFORMER_ID>
0004BE4C00000001

> <PUBCHEM_MMFF94_ENERGY>
71.936

> <PUBCHEM_FEATURE_SELFOVERLAP>
30.473

> <PUBCHEM_SHAPE_FINGERPRINT>
11471102 20 18408604786023208480
11796584 16 16660359260361373506
12107183 9 17267804069757175835
12236239 1 17775287179409274691
12553582 1 18342729702908283142
12670546 56 17489585666684133521
13134695 92 18340766030743924661
13140716 1 18194959875963336952
13544653 18 18334861593146221492
13760787 5 18411702097319937780
13862211 1 18410290290283810170
14115302 16 17603597347420196438
14252887 29 18201445748763221494
14386348 63 17967254208468426067
15196674 1 18410855417395065476
15375462 189 18131349704790770416
15848702 151 18130794416748087135
16945 1 18410574007291088256
17357779 13 18260818289598628125
1813 80 18271540714323958660
18186145 218 17386005048476330545
200 152 18343016688290870763
20279233 1 17748830717257019379
20645477 70 18335981991453665654
21033650 10 14274580553418104590
21267235 1 18412550881921755262
21641784 216 18042141902946104460
22094290 60 16660361467879299093
221357 26 18261382348360389509
221490 88 18118970432064916907
22646028 1 17989485225390823471
23175994 123 18186524310753827085
23184049 59 18343304777206097958
23402539 116 18342172237237624055
23559900 14 17313103034462757570
26918003 58 18113337509546906746
2871803 45 18260267408988422914
312423 11 18265625282085302542
34797466 226 16370738027585874486
465052 167 18342745125745771374
474 4 17771332351953921216
5104073 3 18268702810889033776
5283173 99 17969775289936775005
573450 72 17060339621788386939
602551 16 15123216784381648998
77492 1 17703794751448752013
83771 10 18413106139155933800

> <PUBCHEM_SHAPE_MULTIPOLES>
353.71
10.3
1.65
0.94
2.95
0.66
0
-3.62
-0.08
-1.42
0.01
1.01
-0.09
0

> <PUBCHEM_SHAPE_SELFOVERLAP>
786.359

> <PUBCHEM_SHAPE_VOLUME>
188.3

> <PUBCHEM_COORDINATE_TYPE>
2
5
10

$$$$
