6122140
  -OEChem-01171809353D

 41 44  0     0  0  0  0  0  0999 V2000
    5.3316    0.0097    2.0582 Cl  0  0  0  0  0  0  0  0  0  0  0  0
   -1.2717   -3.4933    0.2620 O   0  0  0  0  0  0  0  0  0  0  0  0
   -0.1025    0.7555    0.9898 N   0  0  0  0  0  0  0  0  0  0  0  0
   -0.3178    0.7310   -1.2223 N   0  0  0  0  0  0  0  0  0  0  0  0
   -0.1735   -0.0058   -0.1436 C   0  0  0  0  0  0  0  0  0  0  0  0
   -0.2084    2.0711    0.6178 C   0  0  0  0  0  0  0  0  0  0  0  0
   -0.0844   -1.3998    0.0092 C   0  0  0  0  0  0  0  0  0  0  0  0
   -0.3417    2.0293   -0.7673 C   0  0  0  0  0  0  0  0  0  0  0  0
    1.0903   -2.0916   -0.0184 C   0  0  0  0  0  0  0  0  0  0  0  0
   -1.3162   -2.2716    0.1573 C   0  0  0  0  0  0  0  0  0  0  0  0
   -0.1994    3.2578    1.3516 C   0  0  0  0  0  0  0  0  0  0  0  0
   -0.4750    3.2336   -1.4790 C   0  0  0  0  0  0  0  0  0  0  0  0
    2.4257   -1.5064   -0.2143 C   0  0  0  0  0  0  0  0  0  0  0  0
   -2.6365   -1.6112    0.1373 C   0  0  0  0  0  0  0  0  0  0  0  0
   -0.3332    4.4469    0.6270 C   0  0  0  0  0  0  0  0  0  0  0  0
   -0.4686    4.4371   -0.7631 C   0  0  0  0  0  0  0  0  0  0  0  0
    3.1505   -1.0790    0.8879 C   0  0  0  0  0  0  0  0  0  0  0  0
    2.9366   -1.3913   -1.4982 C   0  0  0  0  0  0  0  0  0  0  0  0
   -3.2896   -1.4436   -1.0712 C   0  0  0  0  0  0  0  0  0  0  0  0
   -3.1909   -1.1745    1.3276 C   0  0  0  0  0  0  0  0  0  0  0  0
    4.4164   -0.5236    0.7018 C   0  0  0  0  0  0  0  0  0  0  0  0
    4.2024   -0.8358   -1.6845 C   0  0  0  0  0  0  0  0  0  0  0  0
   -4.5369   -0.8193   -1.0901 C   0  0  0  0  0  0  0  0  0  0  0  0
   -4.4383   -0.5503    1.3089 C   0  0  0  0  0  0  0  0  0  0  0  0
    4.9423   -0.4021   -0.5844 C   0  0  0  0  0  0  0  0  0  0  0  0
   -5.1111   -0.3728    0.1000 C   0  0  0  0  0  0  0  0  0  0  0  0
    0.0080    0.4169    1.9370 H   0  0  0  0  0  0  0  0  0  0  0  0
    1.1128   -3.1740    0.0871 H   0  0  0  0  0  0  0  0  0  0  0  0
   -0.0941    3.2627    2.4305 H   0  0  0  0  0  0  0  0  0  0  0  0
   -0.5809    3.2366   -2.5592 H   0  0  0  0  0  0  0  0  0  0  0  0
   -0.3316    5.3962    1.1569 H   0  0  0  0  0  0  0  0  0  0  0  0
   -0.5707    5.3776   -1.2985 H   0  0  0  0  0  0  0  0  0  0  0  0
    2.7390   -1.1749    1.8903 H   0  0  0  0  0  0  0  0  0  0  0  0
    2.3698   -1.7253   -2.3634 H   0  0  0  0  0  0  0  0  0  0  0  0
   -2.8483   -1.7885   -2.0020 H   0  0  0  0  0  0  0  0  0  0  0  0
   -2.6727   -1.3092    2.2728 H   0  0  0  0  0  0  0  0  0  0  0  0
    4.6119   -0.7410   -2.6860 H   0  0  0  0  0  0  0  0  0  0  0  0
   -5.0606   -0.6807   -2.0313 H   0  0  0  0  0  0  0  0  0  0  0  0
   -4.8852   -0.2021    2.2355 H   0  0  0  0  0  0  0  0  0  0  0  0
    5.9274    0.0285   -0.7447 H   0  0  0  0  0  0  0  0  0  0  0  0
   -6.0821    0.1136    0.0854 H   0  0  0  0  0  0  0  0  0  0  0  0
  1 21  1  0  0  0  0
  2 10  2  0  0  0  0
  3  5  1  0  0  0  0
  3  6  1  0  0  0  0
  3 27  1  0  0  0  0
  4  5  2  0  0  0  0
  4  8  1  0  0  0  0
  5  7  1  0  0  0  0
  6  8  1  0  0  0  0
  6 11  2  0  0  0  0
  7  9  2  0  0  0  0
  7 10  1  0  0  0  0
  8 12  2  0  0  0  0
  9 13  1  0  0  0  0
  9 28  1  0  0  0  0
 10 14  1  0  0  0  0
 11 15  1  0  0  0  0
 11 29  1  0  0  0  0
 12 16  1  0  0  0  0
 12 30  1  0  0  0  0
 13 17  2  0  0  0  0
 13 18  1  0  0  0  0
 14 19  2  0  0  0  0
 14 20  1  0  0  0  0
 15 16  2  0  0  0  0
 15 31  1  0  0  0  0
 16 32  1  0  0  0  0
 17 21  1  0  0  0  0
 17 33  1  0  0  0  0
 18 22  2  0  0  0  0
 18 34  1  0  0  0  0
 19 23  1  0  0  0  0
 19 35  1  0  0  0  0
 20 24  2  0  0  0  0
 20 36  1  0  0  0  0
 21 25  2  0  0  0  0
 22 25  1  0  0  0  0
 22 37  1  0  0  0  0
 23 26  2  0  0  0  0
 23 38  1  0  0  0  0
 24 26  1  0  0  0  0
 24 39  1  0  0  0  0
 25 40  1  0  0  0  0
 26 41  1  0  0  0  0
M  END
> <PUBCHEM_COMPOUND_CID>
6122140

> <PUBCHEM_CONFORMER_RMSD>
0.8

> <PUBCHEM_CONFORMER_DIVERSEORDER>
1
5
32
24
8
33
10
41
39
37
23
36
2
31
3
40
34
13
15
9
30
6
7
35
28
20
22
4
25
14
29
21
11
38
27
19
12
17
26
18
16

> <PUBCHEM_MMFF94_PARTIAL_CHARGES>
41
1 -0.18
10 0.47
11 -0.15
12 -0.15
13 0.03
14 0.09
15 -0.15
16 -0.15
17 -0.15
18 -0.15
19 -0.15
2 -0.57
20 -0.15
21 0.18
22 -0.15
23 -0.15
24 -0.15
25 -0.15
26 -0.15
27 0.27
28 0.15
29 0.15
3 0.03
30 0.15
31 0.15
32 0.15
33 0.15
34 0.15
35 0.15
36 0.15
37 0.15
38 0.15
39 0.15
4 -0.57
40 0.15
41 0.15
5 0.14
6 -0.15
7 0.06
8 0.23
9 -0.18

> <PUBCHEM_EFFECTIVE_ROTOR_COUNT>
4

> <PUBCHEM_PHARMACOPHORE_FEATURES>
7
1 2 acceptor
1 3 donor
3 3 4 5 cation
5 3 4 5 6 8 rings
6 13 17 18 21 22 25 rings
6 14 19 20 23 24 26 rings
6 6 8 11 12 15 16 rings

> <PUBCHEM_HEAVY_ATOM_COUNT>
26

> <PUBCHEM_ATOM_DEF_STEREO_COUNT>
0

> <PUBCHEM_ATOM_UDEF_STEREO_COUNT>
0

> <PUBCHEM_BOND_DEF_STEREO_COUNT>
1

> <PUBCHEM_BOND_UDEF_STEREO_COUNT>
0

> <PUBCHEM_ISOTOPIC_ATOM_COUNT>
0

> <PUBCHEM_COMPONENT_COUNT>
1

> <PUBCHEM_CACTVS_TAUTO_COUNT>
1

> <PUBCHEM_CONFORMER_ID>
005D6A9C00000001

> <PUBCHEM_MMFF94_ENERGY>
78.5006

> <PUBCHEM_FEATURE_SELFOVERLAP>
35.629

> <PUBCHEM_SHAPE_FINGERPRINT>
10006869 2 18050845512415745627
10165383 225 17332282730603532212
10670039 82 18264786389326178078
10764073 3 15838768884403849841
10930396 42 18048560924874451808
11646440 116 18339654394781941131
12035758 1 18337665416690945083
12553582 1 18409739473106454958
12788726 201 18334580101205984306
13140716 1 18265332983596126242
133893 2 17687448474960589070
13681431 1 18268435817793114189
13911987 19 18260840318512510006
14081887 123 18339921489875503752
14347332 77 18196659497544375654
14955137 171 18195272063887866443
15131766 46 15840118196452321386
15840311 113 17560537131340869667
15849732 13 17989213633946361279
161222 619 17698966804460777720
17357779 13 18342729706970927479
17876694 64 17822588122175300420
17980427 23 17703792574148259355
1813 80 18412548733889143311
18785283 64 18047764977082030707
20600515 1 18340209690776554018
20642791 105 17972862684327583720
20642791 239 17752794547186022188
21033648 29 17847062181779704051
21285901 2 18059582342973165518
21304303 282 17319260174386208381
21641784 216 18189070723669853580
23366157 5 17611748198831124222
23419403 2 17702357650944043569
23557571 272 18340489976479658670
23558518 356 17756990004189925643
23845131 108 17474671650574165393
24771293 8 18201431532073111041
249057 3 18341888624670616439
283562 15 18265337213621811414
3493558 16 17489593401872839649
350125 39 18050014294363011714
469060 322 18262249819336023496
5171179 24 18200291304409225969
58260988 647 13984937364500373960
6004065 56 18269823367751467423
7164475 11 18192430775549330390
7226269 152 18260543424861441682
7399639 24 17988915653278482926
81228 2 18266195945219732306
9981440 41 17481943945561224594

> <PUBCHEM_SHAPE_MULTIPOLES>
521.11
9.15
4.7
1.6
3.79
7.14
0.07
-6.04
1.41
-2
-0.23
0.92
0.31
0.58

> <PUBCHEM_SHAPE_SELFOVERLAP>
1154.628

> <PUBCHEM_SHAPE_VOLUME>
279.6

> <PUBCHEM_COORDINATE_TYPE>
2
5
10

$$$$
