2407942
  -OEChem-01171809373D

 49 50  0     0  0  0  0  0  0999 V2000
    2.5075   -1.3817    2.6984 Cl  0  0  0  0  0  0  0  0  0  0  0  0
   -1.7988   -3.3989    0.1687 Cl  0  0  0  0  0  0  0  0  0  0  0  0
    3.7696   -1.5405   -0.0252 O   0  0  0  0  0  0  0  0  0  0  0  0
    2.5668    1.8255    0.1143 O   0  0  0  0  0  0  0  0  0  0  0  0
   -5.4084   -1.3834   -0.6648 O   0  0  0  0  0  0  0  0  0  0  0  0
    3.7377    2.5780   -1.7257 O   0  0  0  0  0  0  0  0  0  0  0  0
    0.3470    1.6467    1.6425 O   0  0  0  0  0  0  0  0  0  0  0  0
   -0.8970    2.9682    0.1878 N   0  0  0  0  0  0  0  0  0  0  0  0
    5.2920    0.0403   -0.9823 C   0  0  0  0  0  0  0  0  0  0  0  0
    4.8048    1.1572   -0.0648 C   0  0  0  0  0  0  0  0  0  0  0  0
    4.1963   -0.9788   -1.2585 C   0  0  0  0  0  0  0  0  0  0  0  0
   -2.1436    2.9372    0.9177 C   0  0  0  0  0  0  0  0  0  0  0  0
   -3.0128    1.7876    0.4968 C   0  0  0  0  0  0  0  0  0  0  0  0
    3.6707    1.9433   -0.6820 C   0  0  0  0  0  0  0  0  0  0  0  0
    1.4009    2.5189   -0.3422 C   0  0  0  0  0  0  0  0  0  0  0  0
   -2.8990    0.5654    1.1484 C   0  0  0  0  0  0  0  0  0  0  0  0
   -3.9216    1.9574   -0.5408 C   0  0  0  0  0  0  0  0  0  0  0  0
    0.2478    2.3154    0.6173 C   0  0  0  0  0  0  0  0  0  0  0  0
    2.4691   -1.9685    0.0426 C   0  0  0  0  0  0  0  0  0  0  0  0
   -3.7060   -0.5028    0.7566 C   0  0  0  0  0  0  0  0  0  0  0  0
   -4.7287    0.8893   -0.9325 C   0  0  0  0  0  0  0  0  0  0  0  0
   -4.6208   -0.3408   -0.2839 C   0  0  0  0  0  0  0  0  0  0  0  0
    1.7700   -1.9470    1.2449 C   0  0  0  0  0  0  0  0  0  0  0  0
    1.8604   -2.4277   -1.1212 C   0  0  0  0  0  0  0  0  0  0  0  0
    0.4479   -2.3895    1.2842 C   0  0  0  0  0  0  0  0  0  0  0  0
    0.5383   -2.8702   -1.0817 C   0  0  0  0  0  0  0  0  0  0  0  0
   -0.1680   -2.8512    0.1210 C   0  0  0  0  0  0  0  0  0  0  0  0
   -6.3222   -1.1496   -1.7354 C   0  0  0  0  0  0  0  0  0  0  0  0
    5.6494    0.4564   -1.9312 H   0  0  0  0  0  0  0  0  0  0  0  0
    6.1399   -0.4571   -0.4968 H   0  0  0  0  0  0  0  0  0  0  0  0
    5.6186    1.8642    0.1341 H   0  0  0  0  0  0  0  0  0  0  0  0
    4.5037    0.7584    0.9105 H   0  0  0  0  0  0  0  0  0  0  0  0
    3.3817   -0.4789   -1.7976 H   0  0  0  0  0  0  0  0  0  0  0  0
    4.6019   -1.7766   -1.8915 H   0  0  0  0  0  0  0  0  0  0  0  0
   -2.6530    3.8913    0.7401 H   0  0  0  0  0  0  0  0  0  0  0  0
   -1.9348    2.8847    1.9929 H   0  0  0  0  0  0  0  0  0  0  0  0
   -0.8754    3.4815   -0.6888 H   0  0  0  0  0  0  0  0  0  0  0  0
    1.6157    3.5916   -0.4076 H   0  0  0  0  0  0  0  0  0  0  0  0
    1.1092    2.1320   -1.3254 H   0  0  0  0  0  0  0  0  0  0  0  0
   -2.1969    0.4280    1.9658 H   0  0  0  0  0  0  0  0  0  0  0  0
   -4.0115    2.9111   -1.0536 H   0  0  0  0  0  0  0  0  0  0  0  0
   -3.6397   -1.4476    1.2863 H   0  0  0  0  0  0  0  0  0  0  0  0
   -5.4172    1.0837   -1.7478 H   0  0  0  0  0  0  0  0  0  0  0  0
    2.3798   -2.4931   -2.0722 H   0  0  0  0  0  0  0  0  0  0  0  0
   -0.1048   -2.3740    2.2213 H   0  0  0  0  0  0  0  0  0  0  0  0
    0.0729   -3.2341   -1.9942 H   0  0  0  0  0  0  0  0  0  0  0  0
   -5.7979   -0.9105   -2.6669 H   0  0  0  0  0  0  0  0  0  0  0  0
   -7.0659   -0.3901   -1.4711 H   0  0  0  0  0  0  0  0  0  0  0  0
   -6.8665   -2.0843   -1.9058 H   0  0  0  0  0  0  0  0  0  0  0  0
  1 23  1  0  0  0  0
  2 27  1  0  0  0  0
  3 11  1  0  0  0  0
  3 19  1  0  0  0  0
  4 14  1  0  0  0  0
  4 15  1  0  0  0  0
  5 22  1  0  0  0  0
  5 28  1  0  0  0  0
  6 14  2  0  0  0  0
  7 18  2  0  0  0  0
  8 12  1  0  0  0  0
  8 18  1  0  0  0  0
  8 37  1  0  0  0  0
  9 10  1  0  0  0  0
  9 11  1  0  0  0  0
  9 29  1  0  0  0  0
  9 30  1  0  0  0  0
 10 14  1  0  0  0  0
 10 31  1  0  0  0  0
 10 32  1  0  0  0  0
 11 33  1  0  0  0  0
 11 34  1  0  0  0  0
 12 13  1  0  0  0  0
 12 35  1  0  0  0  0
 12 36  1  0  0  0  0
 13 16  2  0  0  0  0
 13 17  1  0  0  0  0
 15 18  1  0  0  0  0
 15 38  1  0  0  0  0
 15 39  1  0  0  0  0
 16 20  1  0  0  0  0
 16 40  1  0  0  0  0
 17 21  2  0  0  0  0
 17 41  1  0  0  0  0
 19 23  2  0  0  0  0
 19 24  1  0  0  0  0
 20 22  2  0  0  0  0
 20 42  1  0  0  0  0
 21 22  1  0  0  0  0
 21 43  1  0  0  0  0
 23 25  1  0  0  0  0
 24 26  2  0  0  0  0
 24 44  1  0  0  0  0
 25 27  2  0  0  0  0
 25 45  1  0  0  0  0
 26 27  1  0  0  0  0
 26 46  1  0  0  0  0
 28 47  1  0  0  0  0
 28 48  1  0  0  0  0
 28 49  1  0  0  0  0
M  END
> <PUBCHEM_COMPOUND_CID>
2407942

> <PUBCHEM_CONFORMER_RMSD>
1.2

> <PUBCHEM_CONFORMER_DIVERSEORDER>
2
56
191
255
11
104
71
241
32
193
18
141
14
192
48
244
262
103
67
78
76
184
52
43
252
61
177
239
162
169
114
109
187
73
57
165
183
89
159
91
199
160
19
157
10
46
207
245
66
147
156
267
153
115
158
79
5
204
123
42
72
133
189
148
265
273
234
53
247
195
26
205
275
40
235
257
94
170
95
185
181
179
142
36
27
259
90
59
154
135
6
200
9
3
201
242
58
97
173
258
134
23
62
116
152
96
54
47
251
20
50
253
213
24
119
243
214
128
1
272
130
197
45
221
238
203
44
145
77
101
126
171
98
80
269
174
186
261
13
256
149
63
212
120
29
86
39
30
15
25
33
92
140
99
93
82
167
176
210
127
55
110
122
248
143
222
260
74
70
84
264
155
75
237
231
168
271
105
206
240
85
131
229
144
225
178
163
196
202
223
51
209
112
4
111
217
266
180
150
7
41
34
249
274
118
220
227
38
64
65
49
100
83
121
250
17
136
164
218
166
151
228
31
194
35
161
224
16
276
37
81
87
219
230
137
22
129
216
117
88
254
125
215
146
208
108
68
246
211
21
175
268
172
12
107
226
270
190
138
69
263
198
28
182
232
188
236
132
139
124
102
60
233
113
8
106

> <PUBCHEM_MMFF94_PARTIAL_CHARGES>
35
1 -0.18
10 0.06
11 0.28
12 0.44
13 -0.14
14 0.66
15 0.34
16 -0.15
17 -0.15
18 0.57
19 0.08
2 -0.18
20 -0.15
21 -0.15
22 0.08
23 0.18
24 -0.15
25 -0.15
26 -0.15
27 0.18
28 0.28
3 -0.36
37 0.37
4 -0.43
40 0.15
41 0.15
42 0.15
43 0.15
44 0.15
45 0.15
46 0.15
5 -0.36
6 -0.57
7 -0.57
8 -0.73

> <PUBCHEM_EFFECTIVE_ROTOR_COUNT>
12

> <PUBCHEM_PHARMACOPHORE_FEATURES>
7
1 3 acceptor
1 5 acceptor
1 6 acceptor
1 7 acceptor
1 8 donor
6 13 16 17 20 21 22 rings
6 19 23 24 25 26 27 rings

> <PUBCHEM_HEAVY_ATOM_COUNT>
28

> <PUBCHEM_ATOM_DEF_STEREO_COUNT>
0

> <PUBCHEM_ATOM_UDEF_STEREO_COUNT>
0

> <PUBCHEM_BOND_DEF_STEREO_COUNT>
0

> <PUBCHEM_BOND_UDEF_STEREO_COUNT>
0

> <PUBCHEM_ISOTOPIC_ATOM_COUNT>
0

> <PUBCHEM_COMPONENT_COUNT>
1

> <PUBCHEM_CACTVS_TAUTO_COUNT>
2

> <PUBCHEM_CONFORMER_ID>
0024BE0600000002

> <PUBCHEM_MMFF94_ENERGY>
67.4762

> <PUBCHEM_FEATURE_SELFOVERLAP>
35.523

> <PUBCHEM_SHAPE_FINGERPRINT>
10498660 4 18195807367268431579
108634 29 18341910592752803382
11513181 2 18057894536710976391
12597179 24 17485631969543689560
12838863 1 18338220618655525106
13383661 66 16916248618615711086
14117953 113 17256240445632234021
14790565 3 17261036524708347577
14931854 50 18410859871091308525
15001296 14 18337948021032797781
15968369 153 17985825062729774574
16114785 44 15328386998772187904
17138139 8 18200305649214437716
17492 54 18335148587430272458
20764821 26 18123763198970898743
22393880 68 18338235959882944197
23559900 14 17838612254146048019
338550 245 18335146427130652036
4280585 95 17617662055782477526
444735 86 18410847768126747101
463206 1 18341330115074451559
6287921 2 17984430637225353490
6669772 16 17771895301722751968

> <PUBCHEM_SHAPE_MULTIPOLES>
545.64
11.51
4.56
1.68
7.54
0.12
0.55
-0.95
-5.63
-0.57
0
-0.61
0.46
-1.55

> <PUBCHEM_SHAPE_SELFOVERLAP>
1118.324

> <PUBCHEM_SHAPE_VOLUME>
315.8

> <PUBCHEM_COORDINATE_TYPE>
2
5
10

$$$$
