666341
  -OEChem-01171809163D

 41 44  0     0  0  0  0  0  0999 V2000
   -1.2593   -0.7964    0.7564 O   0  0  0  0  0  0  0  0  0  0  0  0
   -3.9239   -1.2733    1.3878 O   0  0  0  0  0  0  0  0  0  0  0  0
    1.5377   -0.6238    0.6060 N   0  0  0  0  0  0  0  0  0  0  0  0
    1.1416   -1.6540    1.3715 N   0  0  0  0  0  0  0  0  0  0  0  0
    2.0943   -2.5788    1.3221 N   0  0  0  0  0  0  0  0  0  0  0  0
    1.7373    5.1508   -0.3194 N   0  0  0  0  0  0  0  0  0  0  0  0
   -2.3579    4.8649   -0.0947 N   0  0  0  0  0  0  0  0  0  0  0  0
    0.7373    0.5055    0.4620 C   0  0  0  0  0  0  0  0  0  0  0  0
    2.7582   -0.8527    0.0394 C   0  0  0  0  0  0  0  0  0  0  0  0
   -0.6482    0.4030    0.5391 C   0  0  0  0  0  0  0  0  0  0  0  0
    3.0965   -2.1130    0.5126 C   0  0  0  0  0  0  0  0  0  0  0  0
    1.3428    1.7387    0.2399 C   0  0  0  0  0  0  0  0  0  0  0  0
    3.5699   -0.1052   -0.8112 C   0  0  0  0  0  0  0  0  0  0  0  0
   -1.4361    1.5447    0.3926 C   0  0  0  0  0  0  0  0  0  0  0  0
    0.5550    2.8802    0.0933 C   0  0  0  0  0  0  0  0  0  0  0  0
   -0.8345    2.7834    0.1697 C   0  0  0  0  0  0  0  0  0  0  0  0
    4.3163   -2.6892    0.1293 C   0  0  0  0  0  0  0  0  0  0  0  0
   -2.1401   -1.2515   -0.2088 C   0  0  0  0  0  0  0  0  0  0  0  0
    4.7841   -0.6910   -1.1861 C   0  0  0  0  0  0  0  0  0  0  0  0
    5.1522   -1.9590   -0.7257 C   0  0  0  0  0  0  0  0  0  0  0  0
   -3.4634   -1.4844    0.1233 C   0  0  0  0  0  0  0  0  0  0  0  0
   -1.6673   -1.4641   -1.4926 C   0  0  0  0  0  0  0  0  0  0  0  0
   -4.3413   -1.9440   -0.8585 C   0  0  0  0  0  0  0  0  0  0  0  0
   -2.5453   -1.9240   -2.4742 C   0  0  0  0  0  0  0  0  0  0  0  0
   -3.8822   -2.1638   -2.1571 C   0  0  0  0  0  0  0  0  0  0  0  0
    1.2084    4.1352   -0.1347 C   0  0  0  0  0  0  0  0  0  0  0  0
   -1.6766    3.9338    0.0237 C   0  0  0  0  0  0  0  0  0  0  0  0
   -3.8555   -2.3721    2.2944 C   0  0  0  0  0  0  0  0  0  0  0  0
    2.4177    1.8766    0.2822 H   0  0  0  0  0  0  0  0  0  0  0  0
    3.2956    0.8480   -1.2422 H   0  0  0  0  0  0  0  0  0  0  0  0
   -2.5197    1.4738    0.4637 H   0  0  0  0  0  0  0  0  0  0  0  0
    4.6099   -3.6728    0.4808 H   0  0  0  0  0  0  0  0  0  0  0  0
    5.4477   -0.1559   -1.8611 H   0  0  0  0  0  0  0  0  0  0  0  0
    6.1009   -2.3877   -1.0387 H   0  0  0  0  0  0  0  0  0  0  0  0
   -0.6269   -1.2930   -1.7524 H   0  0  0  0  0  0  0  0  0  0  0  0
   -5.3843   -2.1324   -0.6189 H   0  0  0  0  0  0  0  0  0  0  0  0
   -2.1874   -2.0977   -3.4847 H   0  0  0  0  0  0  0  0  0  0  0  0
   -4.5657   -2.5222   -2.9214 H   0  0  0  0  0  0  0  0  0  0  0  0
   -2.8183   -2.6939    2.4321 H   0  0  0  0  0  0  0  0  0  0  0  0
   -4.4632   -3.2071    1.9315 H   0  0  0  0  0  0  0  0  0  0  0  0
   -4.2511   -2.0449    3.2599 H   0  0  0  0  0  0  0  0  0  0  0  0
  1 10  1  0  0  0  0
  1 18  1  0  0  0  0
  2 21  1  0  0  0  0
  2 28  1  0  0  0  0
  3  4  1  0  0  0  0
  3  8  1  0  0  0  0
  3  9  1  0  0  0  0
  4  5  2  0  0  0  0
  5 11  1  0  0  0  0
  6 26  3  0  0  0  0
  7 27  3  0  0  0  0
  8 10  2  0  0  0  0
  8 12  1  0  0  0  0
  9 11  1  0  0  0  0
  9 13  2  0  0  0  0
 10 14  1  0  0  0  0
 11 17  2  0  0  0  0
 12 15  2  0  0  0  0
 12 29  1  0  0  0  0
 13 19  1  0  0  0  0
 13 30  1  0  0  0  0
 14 16  2  0  0  0  0
 14 31  1  0  0  0  0
 15 16  1  0  0  0  0
 15 26  1  0  0  0  0
 16 27  1  0  0  0  0
 17 20  1  0  0  0  0
 17 32  1  0  0  0  0
 18 21  1  0  0  0  0
 18 22  2  0  0  0  0
 19 20  2  0  0  0  0
 19 33  1  0  0  0  0
 20 34  1  0  0  0  0
 21 23  2  0  0  0  0
 22 24  1  0  0  0  0
 22 35  1  0  0  0  0
 23 25  1  0  0  0  0
 23 36  1  0  0  0  0
 24 25  2  0  0  0  0
 24 37  1  0  0  0  0
 25 38  1  0  0  0  0
 28 39  1  0  0  0  0
 28 40  1  0  0  0  0
 28 41  1  0  0  0  0
M  END
> <PUBCHEM_COMPOUND_CID>
666341

> <PUBCHEM_CONFORMER_RMSD>
0.8

> <PUBCHEM_CONFORMER_DIVERSEORDER>
1
32
5
22
11
44
38
41
18
42
12
3
29
14
21
31
20
34
24
13
23
30
4
43
9
6
26
10
35
33
37
25
39
36
8
17
40
7
19
2
15
27
16
28

> <PUBCHEM_MMFF94_PARTIAL_CHARGES>
38
1 -0.17
10 0.08
11 0.23
12 -0.15
13 -0.15
14 -0.15
15 0.07
16 0.07
17 -0.15
18 0.08
19 -0.15
2 -0.36
20 -0.15
21 0.08
22 -0.15
23 -0.15
24 -0.15
25 -0.15
26 0.48
27 0.48
28 0.28
29 0.15
3 0.59
30 0.15
31 0.15
32 0.15
33 0.15
34 0.15
35 0.15
36 0.15
37 0.15
38 0.15
4 -0.42
5 -0.23
6 -0.56
7 -0.56
8 -0.02
9 -0.15

> <PUBCHEM_EFFECTIVE_ROTOR_COUNT>
4

> <PUBCHEM_PHARMACOPHORE_FEATURES>
8
1 1 acceptor
1 2 acceptor
1 6 acceptor
1 7 acceptor
5 3 4 5 9 11 rings
6 18 21 22 23 24 25 rings
6 8 10 12 14 15 16 rings
6 9 11 13 17 19 20 rings

> <PUBCHEM_HEAVY_ATOM_COUNT>
28

> <PUBCHEM_ATOM_DEF_STEREO_COUNT>
0

> <PUBCHEM_ATOM_UDEF_STEREO_COUNT>
0

> <PUBCHEM_BOND_DEF_STEREO_COUNT>
0

> <PUBCHEM_BOND_UDEF_STEREO_COUNT>
0

> <PUBCHEM_ISOTOPIC_ATOM_COUNT>
0

> <PUBCHEM_COMPONENT_COUNT>
1

> <PUBCHEM_CACTVS_TAUTO_COUNT>
1

> <PUBCHEM_CONFORMER_ID>
000A2AE500000001

> <PUBCHEM_MMFF94_ENERGY>
100.2507

> <PUBCHEM_FEATURE_SELFOVERLAP>
40.708

> <PUBCHEM_SHAPE_FINGERPRINT>
11578080 2 17631145598601403281
12160290 23 17981310210319737657
12553582 1 18411134753314987370
12714826 92 17988357057862866882
12788726 201 18192702355000194235
13642711 20 17616560757305271716
13690498 29 17983037574059691102
13757389 114 17982743973762562348
13911987 19 17899426560707162836
15042514 8 18121508950920431224
1813 80 18201728374369324022
20101258 96 18338809943691439744
23598288 3 18193282896717666438
23598291 2 17914623984477058839
238 59 17256771995549441143
4017518 198 16542117492027246638
46194498 28 17976228521469968207
513202 73 18126578820432627183
59025328 239 17411572100147810245
6669772 16 17691134047022740084
70251023 43 18341043120659006031
7164475 11 18338798889100078750

> <PUBCHEM_SHAPE_MULTIPOLES>
539.58
8.51
6.01
1.64
3.32
10.88
-0.25
-9.76
-1.73
-0.33
-0.33
-1.88
-1.79
-0.68

> <PUBCHEM_SHAPE_SELFOVERLAP>
1204.854

> <PUBCHEM_SHAPE_VOLUME>
283.6

> <PUBCHEM_COORDINATE_TYPE>
2
5
10

$$$$
