4673185
  -OEChem-01171809313D

 38 40  0     0  0  0  0  0  0999 V2000
   -5.8711   -1.1021   -2.0023 Cl  0  0  0  0  0  0  0  0  0  0  0  0
   -1.7194    1.6756    1.8250 S   0  0  0  0  0  0  0  0  0  0  0  0
    1.6632    4.1714    0.0617 O   0  0  0  0  0  0  0  0  0  0  0  0
    1.6087   -6.4890    0.2492 O   0  0  0  0  0  0  0  0  0  0  0  0
    4.3435    1.4242   -1.2746 O   0  5  0  0  0  0  0  0  0  0  0  0
    4.0061   -0.7360   -1.0777 O   0  0  0  0  0  0  0  0  0  0  0  0
    1.8710   -1.6608    0.0223 N   0  0  0  0  0  0  0  0  0  0  0  0
    3.6369    0.4530   -0.9032 N   0  3  0  0  0  0  0  0  0  0  0  0
    2.5299    3.1823   -0.3706 N   0  0  0  0  0  0  0  0  0  0  0  0
    0.5277    3.6413    0.6498 N   0  0  0  0  0  0  0  0  0  0  0  0
    1.5321   -0.3487    0.1824 C   0  0  0  0  0  0  0  0  0  0  0  0
    1.0519   -2.7687    0.4528 C   0  0  0  0  0  0  0  0  0  0  0  0
    2.3955    0.7044   -0.2723 C   0  0  0  0  0  0  0  0  0  0  0  0
    1.7244   -4.0991    0.1352 C   0  0  0  0  0  0  0  0  0  0  0  0
    1.9445    2.0197   -0.0570 C   0  0  0  0  0  0  0  0  0  0  0  0
    0.2786   -0.0093    0.8209 C   0  0  0  0  0  0  0  0  0  0  0  0
   -0.1913    1.2974    1.0461 C   0  0  0  0  0  0  0  0  0  0  0  0
    0.6719    2.3114    0.5917 C   0  0  0  0  0  0  0  0  0  0  0  0
    0.8955   -5.3019    0.5700 C   0  0  0  0  0  0  0  0  0  0  0  0
   -2.9017    0.8845    0.7350 C   0  0  0  0  0  0  0  0  0  0  0  0
   -2.9724    1.2700   -0.5984 C   0  0  0  0  0  0  0  0  0  0  0  0
   -3.7382   -0.1081    1.2323 C   0  0  0  0  0  0  0  0  0  0  0  0
   -3.8929    0.6546   -1.4467 C   0  0  0  0  0  0  0  0  0  0  0  0
   -4.6587   -0.7237    0.3840 C   0  0  0  0  0  0  0  0  0  0  0  0
   -4.7359   -0.3424   -0.9556 C   0  0  0  0  0  0  0  0  0  0  0  0
    0.8814   -2.7145    1.5350 H   0  0  0  0  0  0  0  0  0  0  0  0
    0.0793   -2.7380   -0.0532 H   0  0  0  0  0  0  0  0  0  0  0  0
    2.7492   -1.8873   -0.4266 H   0  0  0  0  0  0  0  0  0  0  0  0
    2.7101   -4.1465    0.6167 H   0  0  0  0  0  0  0  0  0  0  0  0
    1.9277   -4.1710   -0.9414 H   0  0  0  0  0  0  0  0  0  0  0  0
   -0.3669   -0.8180    1.1665 H   0  0  0  0  0  0  0  0  0  0  0  0
   -0.0671   -5.3206    0.0494 H   0  0  0  0  0  0  0  0  0  0  0  0
    0.7180   -5.2830    1.6499 H   0  0  0  0  0  0  0  0  0  0  0  0
   -2.3292    2.0485   -1.0005 H   0  0  0  0  0  0  0  0  0  0  0  0
   -3.6904   -0.4175    2.2731 H   0  0  0  0  0  0  0  0  0  0  0  0
    1.0591   -7.2379    0.5365 H   0  0  0  0  0  0  0  0  0  0  0  0
   -3.9429    0.9626   -2.4879 H   0  0  0  0  0  0  0  0  0  0  0  0
   -5.3091   -1.4992    0.7804 H   0  0  0  0  0  0  0  0  0  0  0  0
  1 25  1  0  0  0  0
  2 17  1  0  0  0  0
  2 20  1  0  0  0  0
  3  9  1  0  0  0  0
  3 10  1  0  0  0  0
  4 19  1  0  0  0  0
  4 36  1  0  0  0  0
  5  8  1  0  0  0  0
  6  8  2  0  0  0  0
  7 11  1  0  0  0  0
  7 12  1  0  0  0  0
  7 28  1  0  0  0  0
  8 13  1  0  0  0  0
  9 15  2  0  0  0  0
 10 18  2  0  0  0  0
 11 13  2  0  0  0  0
 11 16  1  0  0  0  0
 12 14  1  0  0  0  0
 12 26  1  0  0  0  0
 12 27  1  0  0  0  0
 13 15  1  0  0  0  0
 14 19  1  0  0  0  0
 14 29  1  0  0  0  0
 14 30  1  0  0  0  0
 15 18  1  0  0  0  0
 16 17  2  0  0  0  0
 16 31  1  0  0  0  0
 17 18  1  0  0  0  0
 19 32  1  0  0  0  0
 19 33  1  0  0  0  0
 20 21  2  0  0  0  0
 20 22  1  0  0  0  0
 21 23  1  0  0  0  0
 21 34  1  0  0  0  0
 22 24  2  0  0  0  0
 22 35  1  0  0  0  0
 23 25  2  0  0  0  0
 23 37  1  0  0  0  0
 24 25  1  0  0  0  0
 24 38  1  0  0  0  0
M  CHG  2   5  -1   8   1
M  END
> <PUBCHEM_COMPOUND_CID>
4673185

> <PUBCHEM_CONFORMER_RMSD>
0.8

> <PUBCHEM_CONFORMER_DIVERSEORDER>
1
39
51
30
14
38
36
4
48
10
24
41
33
17
42
34
37
15
31
11
29
19
50
47
32
26
9
6
52
3
46
23
7
28
44
49
20
8
27
43
25
35
2
16
22
12
45
40
13
18
21
5

> <PUBCHEM_MMFF94_PARTIAL_CHARGES>
31
1 -0.18
10 -0.41
11 0.1
12 0.37
13 0.13
15 0.29
16 -0.15
17 0.1
18 0.29
19 0.28
2 -0.2
20 0.1
21 -0.15
22 -0.15
23 -0.15
24 -0.15
25 0.18
28 0.4
3 0.24
31 0.15
34 0.15
35 0.15
36 0.4
37 0.15
38 0.15
4 -0.68
5 -0.52
6 -0.52
7 -0.87
8 0.91
9 -0.41

> <PUBCHEM_EFFECTIVE_ROTOR_COUNT>
7

> <PUBCHEM_PHARMACOPHORE_FEATURES>
12
1 10 acceptor
1 4 acceptor
1 4 donor
1 5 acceptor
1 5 anion
1 6 acceptor
1 7 cation
1 7 donor
1 9 acceptor
5 3 9 10 15 18 rings
6 11 13 15 16 17 18 rings
6 20 21 22 23 24 25 rings

> <PUBCHEM_HEAVY_ATOM_COUNT>
25

> <PUBCHEM_ATOM_DEF_STEREO_COUNT>
0

> <PUBCHEM_ATOM_UDEF_STEREO_COUNT>
0

> <PUBCHEM_BOND_DEF_STEREO_COUNT>
0

> <PUBCHEM_BOND_UDEF_STEREO_COUNT>
0

> <PUBCHEM_ISOTOPIC_ATOM_COUNT>
0

> <PUBCHEM_COMPONENT_COUNT>
1

> <PUBCHEM_CACTVS_TAUTO_COUNT>
2

> <PUBCHEM_CONFORMER_ID>
00474EA100000001

> <PUBCHEM_MMFF94_ENERGY>
80.4358

> <PUBCHEM_FEATURE_SELFOVERLAP>
61.155

> <PUBCHEM_SHAPE_FINGERPRINT>
11014199 57 17834675998588230795
11069576 57 18339629037189965919
11227688 84 18122653598328606307
12553582 1 18194694669668570441
13004483 165 17618218404191193577
13540713 4 17264708288070852816
13911987 19 18190201103523062620
14659021 117 17471002584435447171
17138139 8 17197392835968952791
19319366 153 18198608025311156943
20028762 73 18270962345981789726
20642791 105 17114938354168219144
20775438 99 17913200142615085934
20775530 9 18124310507017918347
235170 7 17967524701767421733
23728640 28 16609137106536984435
238 59 18335408106639615603
3060560 45 18335977679053260460
3472631 163 15647042799073551789
4280585 95 17541650621894056706
44802255 64 16445918295615024822

> <PUBCHEM_SHAPE_MULTIPOLES>
476.81
8.96
6.49
1.44
11.04
11.2
-0.12
1.64
-5.3
-8.56
1.29
1.4
-0.25
-1.54

> <PUBCHEM_SHAPE_SELFOVERLAP>
997.276

> <PUBCHEM_SHAPE_VOLUME>
271.5

> <PUBCHEM_COORDINATE_TYPE>
2
5
10

$$$$
