367095
  -OEChem-01171810203D

 39 41  0     0  0  0  0  0  0999 V2000
    0.6072   -0.1895    2.3742 O   0  0  0  0  0  0  0  0  0  0  0  0
   -5.1176   -0.1632   -1.9971 N   0  0  0  0  0  0  0  0  0  0  0  0
    1.1727    0.6996    0.2182 C   0  0  0  0  0  0  0  0  0  0  0  0
    2.6044    0.7408   -0.1446 C   0  0  0  0  0  0  0  0  0  0  0  0
    0.2724    1.6195   -0.2154 C   0  0  0  0  0  0  0  0  0  0  0  0
    0.6379   -0.3445    1.1576 C   0  0  0  0  0  0  0  0  0  0  0  0
   -1.1494    1.6576    0.0895 C   0  0  0  0  0  0  0  0  0  0  0  0
    0.1551   -1.6199    0.5897 C   0  0  0  0  0  0  0  0  0  0  0  0
    2.9763    1.2836   -1.3618 C   0  0  0  0  0  0  0  0  0  0  0  0
    3.5396    0.2358    0.7411 C   0  0  0  0  0  0  0  0  0  0  0  0
   -2.0600    1.0071   -0.7431 C   0  0  0  0  0  0  0  0  0  0  0  0
   -1.6020    2.3456    1.2156 C   0  0  0  0  0  0  0  0  0  0  0  0
    0.2100   -1.8120   -0.7793 C   0  0  0  0  0  0  0  0  0  0  0  0
   -0.3401   -2.5924    1.4400 C   0  0  0  0  0  0  0  0  0  0  0  0
    4.3278    1.3223   -1.7046 C   0  0  0  0  0  0  0  0  0  0  0  0
    4.8912    0.2746    0.3982 C   0  0  0  0  0  0  0  0  0  0  0  0
   -3.4232    1.0446   -0.4497 C   0  0  0  0  0  0  0  0  0  0  0  0
    5.2852    0.8179   -0.8247 C   0  0  0  0  0  0  0  0  0  0  0  0
   -2.9652    2.3828    1.5089 C   0  0  0  0  0  0  0  0  0  0  0  0
   -0.2456   -3.0163   -1.3157 C   0  0  0  0  0  0  0  0  0  0  0  0
   -0.7955   -3.7967    0.9036 C   0  0  0  0  0  0  0  0  0  0  0  0
   -3.8757    1.7324    0.6764 C   0  0  0  0  0  0  0  0  0  0  0  0
   -0.7482   -4.0086   -0.4744 C   0  0  0  0  0  0  0  0  0  0  0  0
   -4.3572    0.3791   -1.3025 C   0  0  0  0  0  0  0  0  0  0  0  0
    0.5844    2.4416   -0.8557 H   0  0  0  0  0  0  0  0  0  0  0  0
    2.2585    1.6627   -2.0831 H   0  0  0  0  0  0  0  0  0  0  0  0
    3.2639   -0.1862    1.7028 H   0  0  0  0  0  0  0  0  0  0  0  0
   -1.7098    0.4768   -1.6269 H   0  0  0  0  0  0  0  0  0  0  0  0
   -0.9047    2.8577    1.8743 H   0  0  0  0  0  0  0  0  0  0  0  0
    0.5930   -1.0753   -1.4766 H   0  0  0  0  0  0  0  0  0  0  0  0
   -0.3878   -2.4505    2.5156 H   0  0  0  0  0  0  0  0  0  0  0  0
    4.6347    1.7398   -2.6591 H   0  0  0  0  0  0  0  0  0  0  0  0
    5.6372   -0.1167    1.0837 H   0  0  0  0  0  0  0  0  0  0  0  0
    6.3375    0.8470   -1.0920 H   0  0  0  0  0  0  0  0  0  0  0  0
   -3.3174    2.9182    2.3858 H   0  0  0  0  0  0  0  0  0  0  0  0
   -0.2089   -3.1821   -2.3885 H   0  0  0  0  0  0  0  0  0  0  0  0
   -1.1873   -4.5696    1.5584 H   0  0  0  0  0  0  0  0  0  0  0  0
   -4.9352    1.7706    0.9184 H   0  0  0  0  0  0  0  0  0  0  0  0
   -1.1030   -4.9463   -0.8920 H   0  0  0  0  0  0  0  0  0  0  0  0
  1  6  2  0  0  0  0
  2 24  3  0  0  0  0
  3  4  1  0  0  0  0
  3  5  2  0  0  0  0
  3  6  1  0  0  0  0
  4  9  2  0  0  0  0
  4 10  1  0  0  0  0
  5  7  1  0  0  0  0
  5 25  1  0  0  0  0
  6  8  1  0  0  0  0
  7 11  2  0  0  0  0
  7 12  1  0  0  0  0
  8 13  2  0  0  0  0
  8 14  1  0  0  0  0
  9 15  1  0  0  0  0
  9 26  1  0  0  0  0
 10 16  2  0  0  0  0
 10 27  1  0  0  0  0
 11 17  1  0  0  0  0
 11 28  1  0  0  0  0
 12 19  2  0  0  0  0
 12 29  1  0  0  0  0
 13 20  1  0  0  0  0
 13 30  1  0  0  0  0
 14 21  2  0  0  0  0
 14 31  1  0  0  0  0
 15 18  2  0  0  0  0
 15 32  1  0  0  0  0
 16 18  1  0  0  0  0
 16 33  1  0  0  0  0
 17 22  2  0  0  0  0
 17 24  1  0  0  0  0
 18 34  1  0  0  0  0
 19 22  1  0  0  0  0
 19 35  1  0  0  0  0
 20 23  2  0  0  0  0
 20 36  1  0  0  0  0
 21 23  1  0  0  0  0
 21 37  1  0  0  0  0
 22 38  1  0  0  0  0
 23 39  1  0  0  0  0
M  END
> <PUBCHEM_COMPOUND_CID>
367095

> <PUBCHEM_CONFORMER_RMSD>
0.8

> <PUBCHEM_CONFORMER_DIVERSEORDER>
1
14
6
3
15
16
5
10
8
13
4
12
7
9
11
2

> <PUBCHEM_MMFF94_PARTIAL_CHARGES>
39
1 -0.57
10 -0.15
11 -0.15
12 -0.15
13 -0.15
14 -0.15
15 -0.15
16 -0.15
17 0.07
18 -0.15
19 -0.15
2 -0.56
20 -0.15
21 -0.15
22 -0.15
23 -0.15
24 0.48
25 0.15
26 0.15
27 0.15
28 0.15
29 0.15
3 -0.01
30 0.15
31 0.15
32 0.15
33 0.15
34 0.15
35 0.15
36 0.15
37 0.15
38 0.15
39 0.15
4 0.03
5 -0.18
6 0.47
7 0.03
8 0.09
9 -0.15

> <PUBCHEM_EFFECTIVE_ROTOR_COUNT>
4

> <PUBCHEM_PHARMACOPHORE_FEATURES>
5
1 1 acceptor
1 2 acceptor
6 4 9 10 15 16 18 rings
6 7 11 12 17 19 22 rings
6 8 13 14 20 21 23 rings

> <PUBCHEM_HEAVY_ATOM_COUNT>
24

> <PUBCHEM_ATOM_DEF_STEREO_COUNT>
0

> <PUBCHEM_ATOM_UDEF_STEREO_COUNT>
0

> <PUBCHEM_BOND_DEF_STEREO_COUNT>
0

> <PUBCHEM_BOND_UDEF_STEREO_COUNT>
1

> <PUBCHEM_ISOTOPIC_ATOM_COUNT>
0

> <PUBCHEM_COMPONENT_COUNT>
1

> <PUBCHEM_CACTVS_TAUTO_COUNT>
1

> <PUBCHEM_CONFORMER_ID>
000599F700000001

> <PUBCHEM_MMFF94_ENERGY>
82.2321

> <PUBCHEM_FEATURE_SELFOVERLAP>
25.373

> <PUBCHEM_SHAPE_FINGERPRINT>
11069576 57 17908952476131981847
11421498 54 18057332695323406113
121448 382 18202284692950944137
12293681 25 17844555325258974550
12788726 201 18047480199165056890
13052359 8 18334856172824004650
13149001 5 18198333164009179225
133893 2 17975970960644086659
13583140 156 16588035635896390200
14251757 17 16128651933874311668
14251757 5 18120377811074651999
14713325 29 18267037213370390402
16752209 62 18264202689774124946
17138139 8 18125976469049963351
17492 54 18260542351093133693
20197701 30 18334847295242310670
20567600 347 18270407083286020455
20602899 9 18130525058353952026
20691752 17 18191038815044459380
20775438 99 16257251123466949975
21033650 10 17558300690225537948
21344244 181 18130796658795330551
21524375 3 18334014969361820984
22907989 373 18052281736172841132
23419403 2 16985747812114364522
23557571 272 17982439701373160040
23566358 27 17982178812084949883
404807 78 17678723765471857447
4409770 3 18266469878192036891
6287921 2 17839457791383220787
81228 2 18047464818691627488

> <PUBCHEM_SHAPE_MULTIPOLES>
483.06
8.48
3.99
1.76
3.93
5.41
-0.05
-6.2
3.82
-2.44
-0.5
-0.59
0.04
-1.26

> <PUBCHEM_SHAPE_SELFOVERLAP>
1062.773

> <PUBCHEM_SHAPE_VOLUME>
257.9

> <PUBCHEM_COORDINATE_TYPE>
2
5
10

$$$$
