6260079
  -OEChem-01171809263D

 49 52  0     0  0  0  0  0  0999 V2000
    2.0913    0.0991   -1.5876 O   0  0  0  0  0  0  0  0  0  0  0  0
   -0.5617   -1.1376    0.6756 O   0  0  0  0  0  0  0  0  0  0  0  0
    0.8235    1.4343    0.4436 N   0  0  0  0  0  0  0  0  0  0  0  0
   -1.1738    2.2905   -0.0228 N   0  0  0  0  0  0  0  0  0  0  0  0
    1.0398    2.7712    0.2280 C   0  0  0  0  0  0  0  0  0  0  0  0
    1.8294    0.4528    0.7812 C   0  0  0  0  0  0  0  0  0  0  0  0
   -0.5130    1.1962    0.2827 C   0  0  0  0  0  0  0  0  0  0  0  0
   -0.2220    3.2834   -0.0614 C   0  0  0  0  0  0  0  0  0  0  0  0
    2.4419   -0.1940   -0.4467 C   0  0  0  0  0  0  0  0  0  0  0  0
    2.1953    3.5526    0.2602 C   0  0  0  0  0  0  0  0  0  0  0  0
   -0.3577    4.6545   -0.3376 C   0  0  0  0  0  0  0  0  0  0  0  0
    3.5057   -1.2225   -0.2537 C   0  0  0  0  0  0  0  0  0  0  0  0
   -1.1621   -0.0680    0.4170 C   0  0  0  0  0  0  0  0  0  0  0  0
    2.0418    4.9150   -0.0169 C   0  0  0  0  0  0  0  0  0  0  0  0
    0.7889    5.4580   -0.3108 C   0  0  0  0  0  0  0  0  0  0  0  0
    3.8887   -1.5434    1.0286 C   0  0  0  0  0  0  0  0  0  0  0  0
    4.0620   -1.8122   -1.3660 C   0  0  0  0  0  0  0  0  0  0  0  0
   -2.6628   -0.1694    0.2038 C   0  0  0  0  0  0  0  0  0  0  0  0
    5.4651   -3.1220    0.1012 C   0  0  0  0  0  0  0  0  0  0  0  0
    4.8819   -2.5062    1.2086 C   0  0  0  0  0  0  0  0  0  0  0  0
    5.0552   -2.7751   -1.1861 C   0  0  0  0  0  0  0  0  0  0  0  0
   -3.3083   -1.3419    0.2951 C   0  0  0  0  0  0  0  0  0  0  0  0
    6.5278   -4.1506    0.2941 C   0  0  0  0  0  0  0  0  0  0  0  0
   -4.7570   -1.5153    0.0888 C   0  0  0  0  0  0  0  0  0  0  0  0
   -5.5936   -0.4158    0.1930 C   0  0  0  0  0  0  0  0  0  0  0  0
   -5.2544   -2.7744   -0.2062 C   0  0  0  0  0  0  0  0  0  0  0  0
   -6.9649   -0.5798   -0.0029 C   0  0  0  0  0  0  0  0  0  0  0  0
   -6.6258   -2.9383   -0.4023 C   0  0  0  0  0  0  0  0  0  0  0  0
   -7.4810   -1.8410   -0.3006 C   0  0  0  0  0  0  0  0  0  0  0  0
    1.3982   -0.2839    1.4599 H   0  0  0  0  0  0  0  0  0  0  0  0
    2.6162    0.9825    1.3301 H   0  0  0  0  0  0  0  0  0  0  0  0
    3.1706    3.1360    0.4842 H   0  0  0  0  0  0  0  0  0  0  0  0
   -1.3267    5.0860   -0.5671 H   0  0  0  0  0  0  0  0  0  0  0  0
    2.9150    5.5626   -0.0041 H   0  0  0  0  0  0  0  0  0  0  0  0
    0.7014    6.5207   -0.5223 H   0  0  0  0  0  0  0  0  0  0  0  0
    3.4650   -1.0910    1.9175 H   0  0  0  0  0  0  0  0  0  0  0  0
    3.7571   -1.5574   -2.3763 H   0  0  0  0  0  0  0  0  0  0  0  0
   -3.1668    0.7557   -0.0498 H   0  0  0  0  0  0  0  0  0  0  0  0
    5.1923   -2.7695    2.2164 H   0  0  0  0  0  0  0  0  0  0  0  0
    5.5009   -3.2491   -2.0566 H   0  0  0  0  0  0  0  0  0  0  0  0
   -2.7603   -2.2525    0.5247 H   0  0  0  0  0  0  0  0  0  0  0  0
    7.2286   -4.1580   -0.5476 H   0  0  0  0  0  0  0  0  0  0  0  0
    7.1140   -3.9480    1.1969 H   0  0  0  0  0  0  0  0  0  0  0  0
    6.0770   -5.1439    0.3838 H   0  0  0  0  0  0  0  0  0  0  0  0
   -5.2409    0.5791    0.4450 H   0  0  0  0  0  0  0  0  0  0  0  0
   -4.6010   -3.6386   -0.2901 H   0  0  0  0  0  0  0  0  0  0  0  0
   -7.6321    0.2732    0.0814 H   0  0  0  0  0  0  0  0  0  0  0  0
   -7.0278   -3.9203   -0.6341 H   0  0  0  0  0  0  0  0  0  0  0  0
   -8.5488   -1.9689   -0.4519 H   0  0  0  0  0  0  0  0  0  0  0  0
  1  9  2  0  0  0  0
  2 13  2  0  0  0  0
  3  5  1  0  0  0  0
  3  6  1  0  0  0  0
  3  7  1  0  0  0  0
  4  7  2  0  0  0  0
  4  8  1  0  0  0  0
  5  8  1  0  0  0  0
  5 10  2  0  0  0  0
  6  9  1  0  0  0  0
  6 30  1  0  0  0  0
  6 31  1  0  0  0  0
  7 13  1  0  0  0  0
  8 11  2  0  0  0  0
  9 12  1  0  0  0  0
 10 14  1  0  0  0  0
 10 32  1  0  0  0  0
 11 15  1  0  0  0  0
 11 33  1  0  0  0  0
 12 16  2  0  0  0  0
 12 17  1  0  0  0  0
 13 18  1  0  0  0  0
 14 15  2  0  0  0  0
 14 34  1  0  0  0  0
 15 35  1  0  0  0  0
 16 20  1  0  0  0  0
 16 36  1  0  0  0  0
 17 21  2  0  0  0  0
 17 37  1  0  0  0  0
 18 22  2  0  0  0  0
 18 38  1  0  0  0  0
 19 20  2  0  0  0  0
 19 21  1  0  0  0  0
 19 23  1  0  0  0  0
 20 39  1  0  0  0  0
 21 40  1  0  0  0  0
 22 24  1  0  0  0  0
 22 41  1  0  0  0  0
 23 42  1  0  0  0  0
 23 43  1  0  0  0  0
 23 44  1  0  0  0  0
 24 25  2  0  0  0  0
 24 26  1  0  0  0  0
 25 27  1  0  0  0  0
 25 45  1  0  0  0  0
 26 28  2  0  0  0  0
 26 46  1  0  0  0  0
 27 29  2  0  0  0  0
 27 47  1  0  0  0  0
 28 29  1  0  0  0  0
 28 48  1  0  0  0  0
 29 49  1  0  0  0  0
M  END
> <PUBCHEM_COMPOUND_CID>
6260079

> <PUBCHEM_CONFORMER_RMSD>
0.8

> <PUBCHEM_CONFORMER_DIVERSEORDER>
1
116
162
80
159
186
70
258
145
198
82
76
251
49
24
121
108
208
15
216
246
126
105
5
257
237
66
61
40
262
215
35
165
122
21
77
81
201
118
65
270
192
234
83
152
254
30
266
239
88
45
188
42
18
256
253
2
195
169
37
196
128
16
158
22
46
4
8
268
68
51
235
200
259
233
19
144
176
229
261
191
113
62
132
183
27
178
20
85
139
117
87
3
250
161
50
131
107
214
206
269
151
232
168
264
142
25
44
93
53
141
111
244
115
224
238
189
67
127
157
23
187
265
28
48
271
13
130
74
174
33
181
255
12
164
56
133
92
212
154
185
252
120
39
230
78
218
109
64
57
106
260
205
225
171
31
47
79
52
219
204
173
228
72
112
182
199
59
55
11
135
119
9
156
95
123
17
143
231
63
134
38
207
240
148
194
179
129
220
103
170
147
177
101
54
222
160
146
89
153
149
150
43
94
110
247
248
217
58
242
138
96
166
60
221
86
175
163
104
226
34
236
75
140
211
99
213
36
125
203
7
249
124
197
69
155
73
26
90
71
172
180
190
97
29
84
100
243
6
114
10
14
136
210
184
167
267
209
32
41
193
245
202
227
102
98
91
263
137
241
223

> <PUBCHEM_MMFF94_PARTIAL_CHARGES>
44
1 -0.57
10 -0.15
11 -0.15
12 0.09
13 0.64
14 -0.15
15 -0.15
16 -0.15
17 -0.15
18 -0.14
19 -0.14
2 -0.57
20 -0.15
21 -0.15
22 -0.18
23 0.14
24 0.03
25 -0.15
26 -0.15
27 -0.15
28 -0.15
29 -0.15
3 0.05
32 0.15
33 0.15
34 0.15
35 0.15
36 0.15
37 0.15
38 0.15
39 0.15
4 -0.57
40 0.15
41 0.15
45 0.15
46 0.15
47 0.15
48 0.15
49 0.15
5 -0.15
6 0.32
7 0.1
8 0.23
9 0.42

> <PUBCHEM_EFFECTIVE_ROTOR_COUNT>
6

> <PUBCHEM_PHARMACOPHORE_FEATURES>
7
1 1 acceptor
1 2 acceptor
3 3 4 7 cation
5 3 4 5 7 8 rings
6 12 16 17 19 20 21 rings
6 24 25 26 27 28 29 rings
6 5 8 10 11 14 15 rings

> <PUBCHEM_HEAVY_ATOM_COUNT>
29

> <PUBCHEM_ATOM_DEF_STEREO_COUNT>
0

> <PUBCHEM_ATOM_UDEF_STEREO_COUNT>
0

> <PUBCHEM_BOND_DEF_STEREO_COUNT>
1

> <PUBCHEM_BOND_UDEF_STEREO_COUNT>
0

> <PUBCHEM_ISOTOPIC_ATOM_COUNT>
0

> <PUBCHEM_COMPONENT_COUNT>
1

> <PUBCHEM_CACTVS_TAUTO_COUNT>
2

> <PUBCHEM_CONFORMER_ID>
005F856F00000001

> <PUBCHEM_MMFF94_ENERGY>
77.2506

> <PUBCHEM_FEATURE_SELFOVERLAP>
35.63

> <PUBCHEM_SHAPE_FINGERPRINT>
10050765 1 18411700976371306177
10411042 1 18410292471747050690
10554248 39 18267569390895453855
10622 236 17771889791897292943
10721379 63 18196104445360311772
11135609 149 18267563849654555397
11297750 10 18270106921524030576
12107183 9 18342469106405934681
12166972 35 17968100802172770958
12342043 65 17416410853702354750
12633046 712 17897474841589432467
12788726 201 17899697864621042114
13248334 5 18266458904825110184
1361 4 17980478190337597535
13692115 27 18272377425228803048
13785724 45 18412265025619128987
13955234 65 18052823829849599113
14068700 675 18261678056705783654
14150023 79 17977104883460544068
15042514 8 18195246620142557824
15927050 60 17836367420769706958
16087824 20 17977103458407757649
16990366 60 18334288781790614515
16992752 21 18339089186102964118
17492 89 18267867358277853979
17686467 74 18270952454977588010
20775438 99 17975965780903952643
21133410 58 18338788018438360095
22311459 1 18194120939580208328
23536364 44 18189884332578622245
23559900 14 18337950207899411675
24180151 40 17916321574206394512
24771750 20 17755309211878278460
255183 313 17766016999101986793
255183 451 18342745125829706342
3004659 81 18113901550343529782
3103668 31 18117555125025907125
32027 91 18336548317562884491
3421961 26 18340485672447706737
3534868 343 18262253127267924286
3627633 1 18266177223642470448
4409770 3 17902231109605798237
463206 1 18333733524245062827
6058803 2 18057333992898809841
6695519 79 17044315610108489667
6697151 62 18267559413259228447
6700243 42 17699035915285089164
77188 2 18410573981147264340
7970288 3 18411135801250467386
9981440 41 16967179913039136856

> <PUBCHEM_SHAPE_MULTIPOLES>
575.11
16.36
7.31
0.97
21.98
10.64
0.13
-29.01
0.96
-7.77
0.56
-1.06
-0.43
-0.38

> <PUBCHEM_SHAPE_SELFOVERLAP>
1269.396

> <PUBCHEM_SHAPE_VOLUME>
309.6

> <PUBCHEM_COORDINATE_TYPE>
2
5
10

$$$$
