900837
  -OEChem-01171809443D

 34 35  0     0  0  0  0  0  0999 V2000
    1.2505   -0.4385   -0.3420 O   0  0  0  0  0  0  0  0  0  0  0  0
   -7.4136   -0.6717   -0.9832 O   0  0  0  0  0  0  0  0  0  0  0  0
   -7.0848    0.6294    0.8617 O   0  0  0  0  0  0  0  0  0  0  0  0
    3.2798    3.0394   -0.3579 N   0  0  0  0  0  0  0  0  0  0  0  0
    3.5141   -0.3927    0.3864 C   0  0  0  0  0  0  0  0  0  0  0  0
    2.0852   -0.2015    0.7834 C   0  0  0  0  0  0  0  0  0  0  0  0
   -0.0976   -0.2720   -0.1580 C   0  0  0  0  0  0  0  0  0  0  0  0
    4.2821    0.6638   -0.1031 C   0  0  0  0  0  0  0  0  0  0  0  0
   -2.8318    0.0658    0.2136 C   0  0  0  0  0  0  0  0  0  0  0  0
    4.0762   -1.6630    0.5142 C   0  0  0  0  0  0  0  0  0  0  0  0
   -0.9679   -0.4886   -1.2199 C   0  0  0  0  0  0  0  0  0  0  0  0
   -0.5799    0.1116    1.0880 C   0  0  0  0  0  0  0  0  0  0  0  0
   -2.3398   -0.3189   -1.0335 C   0  0  0  0  0  0  0  0  0  0  0  0
   -1.9519    0.2810    1.2744 C   0  0  0  0  0  0  0  0  0  0  0  0
    5.6123    0.4500   -0.4647 C   0  0  0  0  0  0  0  0  0  0  0  0
    5.4063   -1.8766    0.1527 C   0  0  0  0  0  0  0  0  0  0  0  0
    6.1742   -0.8203   -0.3367 C   0  0  0  0  0  0  0  0  0  0  0  0
   -4.2621    0.2431    0.4091 C   0  0  0  0  0  0  0  0  0  0  0  0
    3.7285    1.9760   -0.2439 C   0  0  0  0  0  0  0  0  0  0  0  0
   -5.2288   -0.2813   -0.3764 C   0  0  0  0  0  0  0  0  0  0  0  0
   -6.6509   -0.0349   -0.0642 C   0  0  0  0  0  0  0  0  0  0  0  0
    1.8513   -0.9153    1.5857 H   0  0  0  0  0  0  0  0  0  0  0  0
    1.9485    0.8107    1.1833 H   0  0  0  0  0  0  0  0  0  0  0  0
    3.4900   -2.4972    0.8908 H   0  0  0  0  0  0  0  0  0  0  0  0
   -0.5876   -0.7841   -2.1937 H   0  0  0  0  0  0  0  0  0  0  0  0
    0.0407    0.2901    1.9586 H   0  0  0  0  0  0  0  0  0  0  0  0
   -2.9847   -0.4783   -1.8927 H   0  0  0  0  0  0  0  0  0  0  0  0
   -2.3182    0.5788    2.2542 H   0  0  0  0  0  0  0  0  0  0  0  0
    6.2250    1.2625   -0.8481 H   0  0  0  0  0  0  0  0  0  0  0  0
    5.8438   -2.8658    0.2514 H   0  0  0  0  0  0  0  0  0  0  0  0
    7.2099   -0.9870   -0.6184 H   0  0  0  0  0  0  0  0  0  0  0  0
   -4.5450    0.8419    1.2725 H   0  0  0  0  0  0  0  0  0  0  0  0
   -5.0152   -0.9071   -1.2355 H   0  0  0  0  0  0  0  0  0  0  0  0
   -8.3720   -0.5390   -0.8209 H   0  0  0  0  0  0  0  0  0  0  0  0
  1  6  1  0  0  0  0
  1  7  1  0  0  0  0
  2 21  1  0  0  0  0
  2 34  1  0  0  0  0
  3 21  2  0  0  0  0
  4 19  3  0  0  0  0
  5  6  1  0  0  0  0
  5  8  1  0  0  0  0
  5 10  2  0  0  0  0
  6 22  1  0  0  0  0
  6 23  1  0  0  0  0
  7 11  2  0  0  0  0
  7 12  1  0  0  0  0
  8 15  2  0  0  0  0
  8 19  1  0  0  0  0
  9 13  2  0  0  0  0
  9 14  1  0  0  0  0
  9 18  1  0  0  0  0
 10 16  1  0  0  0  0
 10 24  1  0  0  0  0
 11 13  1  0  0  0  0
 11 25  1  0  0  0  0
 12 14  2  0  0  0  0
 12 26  1  0  0  0  0
 13 27  1  0  0  0  0
 14 28  1  0  0  0  0
 15 17  1  0  0  0  0
 15 29  1  0  0  0  0
 16 17  2  0  0  0  0
 16 30  1  0  0  0  0
 17 31  1  0  0  0  0
 18 20  2  0  0  0  0
 18 32  1  0  0  0  0
 20 21  1  0  0  0  0
 20 33  1  0  0  0  0
M  END
> <PUBCHEM_COMPOUND_CID>
900837

> <PUBCHEM_CONFORMER_RMSD>
0.8

> <PUBCHEM_CONFORMER_DIVERSEORDER>
1
36
28
32
22
13
7
3
25
16
38
9
5
2
29
18
30
23
21
26
35
11
4
15
8
34
6
33
24
19
37
31
14
12
10
17
27
20

> <PUBCHEM_MMFF94_PARTIAL_CHARGES>
32
1 -0.36
10 -0.15
11 -0.15
12 -0.15
13 -0.15
14 -0.15
15 -0.15
16 -0.15
17 -0.15
18 -0.18
19 0.48
2 -0.65
20 -0.14
21 0.71
24 0.15
25 0.15
26 0.15
27 0.15
28 0.15
29 0.15
3 -0.57
30 0.15
31 0.15
32 0.15
33 0.15
34 0.5
4 -0.56
5 -0.14
6 0.42
7 0.08
8 0.07
9 0.03

> <PUBCHEM_EFFECTIVE_ROTOR_COUNT>
5

> <PUBCHEM_PHARMACOPHORE_FEATURES>
7
1 1 acceptor
1 2 acceptor
1 3 acceptor
1 4 acceptor
3 2 3 21 anion
6 5 8 10 15 16 17 rings
6 7 9 11 12 13 14 rings

> <PUBCHEM_HEAVY_ATOM_COUNT>
21

> <PUBCHEM_ATOM_DEF_STEREO_COUNT>
0

> <PUBCHEM_ATOM_UDEF_STEREO_COUNT>
0

> <PUBCHEM_BOND_DEF_STEREO_COUNT>
1

> <PUBCHEM_BOND_UDEF_STEREO_COUNT>
0

> <PUBCHEM_ISOTOPIC_ATOM_COUNT>
0

> <PUBCHEM_COMPONENT_COUNT>
1

> <PUBCHEM_CACTVS_TAUTO_COUNT>
1

> <PUBCHEM_CONFORMER_ID>
000DBEE500000001

> <PUBCHEM_MMFF94_ENERGY>
62.0109

> <PUBCHEM_FEATURE_SELFOVERLAP>
35.578

> <PUBCHEM_SHAPE_FINGERPRINT>
10299344 5 18273215296814528691
10354089 29 18410573990142718204
10366900 7 17385727967731244448
11045977 3 17967539007633630131
12166972 35 18273777146555144480
12236239 1 18131632287531452640
12516196 113 16370729227408491703
12616971 3 18131062753625347053
12730499 353 17603867789021647458
13167372 99 18342461400622967929
13533116 47 18261109634594853146
13862211 1 16845566526851526703
14170010 4 18407758153965455952
14251764 18 17989204854167791488
14251764 46 18335137583471002003
14294032 229 17058393396029385473
14933364 13 18187366515249053549
15183329 4 18411417293996916633
15419008 47 17240758484980556221
17844677 252 18336267860034051717
20157964 124 18408887360575006448
20645477 70 18188207594801004410
21033648 29 17530951506303732188
21267235 1 16988847163773766186
21315759 40 17704070694666035999
21315763 28 18411135832110621711
21344244 78 18270384015818488624
21781051 124 17131561651181990287
221357 26 18187363208187714580
2215653 11 17748545939508343738
23035841 295 17489868241879392351
23081809 10 18060700611339878793
23402539 116 15267331921413775245
23522609 53 17844833519276660641
23536379 177 18410011018556230979
23559900 14 17676774261559439713
29717793 49 18059862761651281676
3004659 81 17988926673858212818
3411729 13 14997146829139737694
34797466 226 16081379535804314726
397830 11 17532386446656526489
4073 2 17895199964536930306
4325135 7 18131351899819732597
54446538 1 18413108355301413153
59755656 215 17022618650430593891
59755656 520 18411976971312430959

> <PUBCHEM_SHAPE_MULTIPOLES>
409.58
18.52
1.61
1.03
20.7
1
-0.03
-2.15
1.61
-3.4
0.12
0.67
-0.05
-0.94

> <PUBCHEM_SHAPE_SELFOVERLAP>
876.993

> <PUBCHEM_SHAPE_VOLUME>
223.9

> <PUBCHEM_COORDINATE_TYPE>
2
5
10

$$$$
