179617
  -OEChem-01171810153D

 37 40  0     0  0  0  0  0  0999 V2000
    0.6654   -1.5291    0.9014 O   0  0  0  0  0  0  0  0  0  0  0  0
    2.1654   -3.2717    0.9327 O   0  0  0  0  0  0  0  0  0  0  0  0
    0.1603   -0.5159   -0.0318 C   0  0  0  0  0  0  0  0  0  0  0  0
   -1.3588   -0.4304    0.1843 C   0  0  0  0  0  0  0  0  0  0  0  0
    0.8721    0.8302    0.2213 C   0  0  0  0  0  0  0  0  0  0  0  0
    0.5407   -1.1089   -1.4054 C   0  0  0  0  0  0  0  0  0  0  0  0
   -2.1771    0.3451   -0.6622 C   0  0  0  0  0  0  0  0  0  0  0  0
    0.4711    2.0592   -0.3571 C   0  0  0  0  0  0  0  0  0  0  0  0
   -1.5869    1.1721   -1.7692 C   0  0  0  0  0  0  0  0  0  0  0  0
   -0.7389    2.3175   -1.2339 C   0  0  0  0  0  0  0  0  0  0  0  0
    1.6200   -2.0711   -1.0812 C   0  0  0  0  0  0  0  0  0  0  0  0
   -1.9834   -1.1232    1.2430 C   0  0  0  0  0  0  0  0  0  0  0  0
    2.0195    0.8469    1.0544 C   0  0  0  0  0  0  0  0  0  0  0  0
    1.5542   -2.3982    0.3456 C   0  0  0  0  0  0  0  0  0  0  0  0
   -3.5685    0.3884   -0.4558 C   0  0  0  0  0  0  0  0  0  0  0  0
    1.2241    3.2274   -0.0757 C   0  0  0  0  0  0  0  0  0  0  0  0
   -3.3651   -1.0703    1.4397 C   0  0  0  0  0  0  0  0  0  0  0  0
    2.7444    2.0115    1.3124 C   0  0  0  0  0  0  0  0  0  0  0  0
   -4.1592   -0.3180    0.5868 C   0  0  0  0  0  0  0  0  0  0  0  0
    2.3465    3.2067    0.7443 C   0  0  0  0  0  0  0  0  0  0  0  0
    2.5543   -2.5682   -1.8934 C   0  0  0  0  0  0  0  0  0  0  0  0
    0.8836   -0.3589   -2.1255 H   0  0  0  0  0  0  0  0  0  0  0  0
   -0.2926   -1.6681   -1.8492 H   0  0  0  0  0  0  0  0  0  0  0  0
   -1.0361    0.5489   -2.4760 H   0  0  0  0  0  0  0  0  0  0  0  0
   -2.3953    1.6083   -2.3717 H   0  0  0  0  0  0  0  0  0  0  0  0
   -1.4010    2.9889   -0.6678 H   0  0  0  0  0  0  0  0  0  0  0  0
   -0.3942    2.8854   -2.1096 H   0  0  0  0  0  0  0  0  0  0  0  0
   -1.4083   -1.7250    1.9421 H   0  0  0  0  0  0  0  0  0  0  0  0
    2.3863   -0.0598    1.5285 H   0  0  0  0  0  0  0  0  0  0  0  0
   -4.2024    0.9871   -1.1060 H   0  0  0  0  0  0  0  0  0  0  0  0
    0.9209    4.1816   -0.5051 H   0  0  0  0  0  0  0  0  0  0  0  0
   -3.8166   -1.6187    2.2613 H   0  0  0  0  0  0  0  0  0  0  0  0
    3.6179    1.9760    1.9567 H   0  0  0  0  0  0  0  0  0  0  0  0
   -5.2336   -0.2734    0.7367 H   0  0  0  0  0  0  0  0  0  0  0  0
    2.9001    4.1199    0.9384 H   0  0  0  0  0  0  0  0  0  0  0  0
    2.5804   -2.2899   -2.9417 H   0  0  0  0  0  0  0  0  0  0  0  0
    3.3116   -3.2592   -1.5391 H   0  0  0  0  0  0  0  0  0  0  0  0
  1  3  1  0  0  0  0
  1 14  1  0  0  0  0
  2 14  2  0  0  0  0
  3  4  1  0  0  0  0
  3  5  1  0  0  0  0
  3  6  1  0  0  0  0
  4  7  1  0  0  0  0
  4 12  2  0  0  0  0
  5  8  1  0  0  0  0
  5 13  2  0  0  0  0
  6 11  1  0  0  0  0
  6 22  1  0  0  0  0
  6 23  1  0  0  0  0
  7  9  1  0  0  0  0
  7 15  2  0  0  0  0
  8 10  1  0  0  0  0
  8 16  2  0  0  0  0
  9 10  1  0  0  0  0
  9 24  1  0  0  0  0
  9 25  1  0  0  0  0
 10 26  1  0  0  0  0
 10 27  1  0  0  0  0
 11 14  1  0  0  0  0
 11 21  2  0  0  0  0
 12 17  1  0  0  0  0
 12 28  1  0  0  0  0
 13 18  1  0  0  0  0
 13 29  1  0  0  0  0
 15 19  1  0  0  0  0
 15 30  1  0  0  0  0
 16 20  1  0  0  0  0
 16 31  1  0  0  0  0
 17 19  2  0  0  0  0
 17 32  1  0  0  0  0
 18 20  2  0  0  0  0
 18 33  1  0  0  0  0
 19 34  1  0  0  0  0
 20 35  1  0  0  0  0
 21 36  1  0  0  0  0
 21 37  1  0  0  0  0
M  END
> <PUBCHEM_COMPOUND_CID>
179617

> <PUBCHEM_CONFORMER_RMSD>
0.6

> <PUBCHEM_CONFORMER_DIVERSEORDER>
1
2
3

> <PUBCHEM_MMFF94_PARTIAL_CHARGES>
31
1 -0.43
10 0.14
11 -0.12
12 -0.15
13 -0.15
14 0.71
15 -0.15
16 -0.15
17 -0.15
18 -0.15
19 -0.15
2 -0.57
20 -0.15
21 -0.3
28 0.15
29 0.15
3 0.57
30 0.15
31 0.15
32 0.15
33 0.15
34 0.15
35 0.15
36 0.15
37 0.15
4 -0.14
5 -0.14
6 0.14
7 -0.14
8 -0.14
9 0.14

> <PUBCHEM_EFFECTIVE_ROTOR_COUNT>
0.8

> <PUBCHEM_PHARMACOPHORE_FEATURES>
5
1 2 acceptor
5 1 3 6 11 14 rings
6 4 7 12 15 17 19 rings
6 5 8 13 16 18 20 rings
7 3 4 5 7 8 9 10 rings

> <PUBCHEM_HEAVY_ATOM_COUNT>
21

> <PUBCHEM_ATOM_DEF_STEREO_COUNT>
0

> <PUBCHEM_ATOM_UDEF_STEREO_COUNT>
0

> <PUBCHEM_BOND_DEF_STEREO_COUNT>
0

> <PUBCHEM_BOND_UDEF_STEREO_COUNT>
0

> <PUBCHEM_ISOTOPIC_ATOM_COUNT>
0

> <PUBCHEM_COMPONENT_COUNT>
1

> <PUBCHEM_CACTVS_TAUTO_COUNT>
1

> <PUBCHEM_CONFORMER_ID>
0002BDA100000001

> <PUBCHEM_MMFF94_ENERGY>
73.59

> <PUBCHEM_FEATURE_SELFOVERLAP>
25.393

> <PUBCHEM_SHAPE_FINGERPRINT>
11578080 2 16879890964540371766
11640471 11 17417814001926105593
12035758 1 18268435797056782256
12633257 1 18041260132937346577
12788726 201 17474124102214425590
13140716 1 18194394717711137576
13149001 5 17831843669113475461
13681431 1 18200601289109120306
14178342 30 18046360883769867099
14223421 5 18408318887272777361
14790565 3 17043170460127589936
14817 1 16879319342889938253
15309172 13 18122898995653396313
15502708 68 18268429207875394897
15906896 17 17332243607387775722
16945 1 18263622082962054437
1813 80 17129607651531388918
19049666 15 18188761739596305765
20905425 154 18263630776297523880
21524375 3 17910389816221084563
21731228 192 17979635963385306993
23419403 2 17971726927096205628
23557571 272 17693091869241804510
23559900 14 17898005729506941574
25222932 49 14212130938517864843
2748010 2 18193258720394301741
31174 14 18411140208265824755
3729539 64 18124345854988856748
4663303 62 18341621429452011317
576247 118 18055365634133554870
5895379 119 15908587860267671585
6992083 37 17397532581859195396
7364860 26 18271535263968014627
81228 2 17191501205573855128
84936 31 17988927781474660607

> <PUBCHEM_SHAPE_MULTIPOLES>
420.43
5.03
3.9
1.63
4.65
0.69
-0.33
-0.68
1.62
-4.58
-0.4
-0.07
0.37
1.65

> <PUBCHEM_SHAPE_SELFOVERLAP>
937.546

> <PUBCHEM_SHAPE_VOLUME>
220.9

> <PUBCHEM_COORDINATE_TYPE>
2
5
10

$$$$
