1619219
  -OEChem-01171809303D

 48 50  0     0  0  0  0  0  0999 V2000
    0.4738    0.2950    0.2833 P   0  0  0  0  0  0  0  0  0  0  0  0
    0.8945   -0.9874   -0.6167 O   0  0  0  0  0  0  0  0  0  0  0  0
    1.3992    1.4602   -0.3652 O   0  0  0  0  0  0  0  0  0  0  0  0
    0.7464    0.1050    1.7540 O   0  0  0  0  0  0  0  0  0  0  0  0
   -1.0758    0.6808   -0.1525 N   0  0  0  0  0  0  0  0  0  0  0  0
   -1.6643    1.9124    0.3767 C   0  0  0  0  0  0  0  0  0  0  0  0
   -3.1447    1.9560    0.2002 C   0  0  0  0  0  0  0  0  0  0  0  0
    0.2562   -2.1981   -0.6134 C   0  0  0  0  0  0  0  0  0  0  0  0
    2.7615    1.5483   -0.2603 C   0  0  0  0  0  0  0  0  0  0  0  0
   -3.6932    2.5076   -0.9577 C   0  0  0  0  0  0  0  0  0  0  0  0
   -3.9807    1.4455    1.1931 C   0  0  0  0  0  0  0  0  0  0  0  0
   -0.3786   -2.6403    0.5425 C   0  0  0  0  0  0  0  0  0  0  0  0
    3.4622    0.5809    0.4522 C   0  0  0  0  0  0  0  0  0  0  0  0
   -1.0296   -3.8741    0.5453 C   0  0  0  0  0  0  0  0  0  0  0  0
    4.8501    0.6706    0.5584 C   0  0  0  0  0  0  0  0  0  0  0  0
    0.2473   -2.9758   -1.7667 C   0  0  0  0  0  0  0  0  0  0  0  0
    3.4326    2.6041   -0.8679 C   0  0  0  0  0  0  0  0  0  0  0  0
   -5.0777    2.5488   -1.1226 C   0  0  0  0  0  0  0  0  0  0  0  0
   -5.3653    1.4866    1.0282 C   0  0  0  0  0  0  0  0  0  0  0  0
   -1.0421   -4.6585   -0.6080 C   0  0  0  0  0  0  0  0  0  0  0  0
    5.5293    1.7270   -0.0488 C   0  0  0  0  0  0  0  0  0  0  0  0
   -0.4037   -4.2095   -1.7640 C   0  0  0  0  0  0  0  0  0  0  0  0
    4.8206    2.6937   -0.7619 C   0  0  0  0  0  0  0  0  0  0  0  0
   -5.9137    2.0384   -0.1296 C   0  0  0  0  0  0  0  0  0  0  0  0
   -1.7124   -4.3543    1.7809 C   0  0  0  0  0  0  0  0  0  0  0  0
    5.6082   -0.3630    1.3205 C   0  0  0  0  0  0  0  0  0  0  0  0
   -1.1975    2.7789   -0.1073 H   0  0  0  0  0  0  0  0  0  0  0  0
   -1.4264    2.0026    1.4439 H   0  0  0  0  0  0  0  0  0  0  0  0
   -1.2819    0.6237   -1.1499 H   0  0  0  0  0  0  0  0  0  0  0  0
   -3.0525    2.9072   -1.7394 H   0  0  0  0  0  0  0  0  0  0  0  0
   -3.5663    1.0111    2.0991 H   0  0  0  0  0  0  0  0  0  0  0  0
   -0.3783   -2.0526    1.4532 H   0  0  0  0  0  0  0  0  0  0  0  0
    2.9764   -0.2679    0.9179 H   0  0  0  0  0  0  0  0  0  0  0  0
    0.7429   -2.6295   -2.6692 H   0  0  0  0  0  0  0  0  0  0  0  0
    2.8844    3.3590   -1.4244 H   0  0  0  0  0  0  0  0  0  0  0  0
   -1.5472   -5.6207   -0.6200 H   0  0  0  0  0  0  0  0  0  0  0  0
    6.6105    1.8078    0.0244 H   0  0  0  0  0  0  0  0  0  0  0  0
   -5.5047    2.9779   -2.0243 H   0  0  0  0  0  0  0  0  0  0  0  0
   -6.0164    1.0886    1.8011 H   0  0  0  0  0  0  0  0  0  0  0  0
   -0.4139   -4.8200   -2.6622 H   0  0  0  0  0  0  0  0  0  0  0  0
    5.3493    3.5160   -1.2351 H   0  0  0  0  0  0  0  0  0  0  0  0
   -6.9917    2.0702   -0.2580 H   0  0  0  0  0  0  0  0  0  0  0  0
   -2.7105   -3.9111    1.8547 H   0  0  0  0  0  0  0  0  0  0  0  0
   -1.8156   -5.4447    1.7832 H   0  0  0  0  0  0  0  0  0  0  0  0
   -1.1387   -4.0848    2.6742 H   0  0  0  0  0  0  0  0  0  0  0  0
    6.5841    0.0135    1.6451 H   0  0  0  0  0  0  0  0  0  0  0  0
    5.0628   -0.6602    2.2227 H   0  0  0  0  0  0  0  0  0  0  0  0
    5.7685   -1.2477    0.6963 H   0  0  0  0  0  0  0  0  0  0  0  0
  1  2  1  0  0  0  0
  1  3  1  0  0  0  0
  1  4  2  0  0  0  0
  1  5  1  0  0  0  0
  2  8  1  0  0  0  0
  3  9  1  0  0  0  0
  5  6  1  0  0  0  0
  5 29  1  0  0  0  0
  6  7  1  0  0  0  0
  6 27  1  0  0  0  0
  6 28  1  0  0  0  0
  7 10  2  0  0  0  0
  7 11  1  0  0  0  0
  8 12  1  0  0  0  0
  8 16  2  0  0  0  0
  9 13  1  0  0  0  0
  9 17  2  0  0  0  0
 10 18  1  0  0  0  0
 10 30  1  0  0  0  0
 11 19  2  0  0  0  0
 11 31  1  0  0  0  0
 12 14  2  0  0  0  0
 12 32  1  0  0  0  0
 13 15  2  0  0  0  0
 13 33  1  0  0  0  0
 14 20  1  0  0  0  0
 14 25  1  0  0  0  0
 15 21  1  0  0  0  0
 15 26  1  0  0  0  0
 16 22  1  0  0  0  0
 16 34  1  0  0  0  0
 17 23  1  0  0  0  0
 17 35  1  0  0  0  0
 18 24  2  0  0  0  0
 18 38  1  0  0  0  0
 19 24  1  0  0  0  0
 19 39  1  0  0  0  0
 20 22  2  0  0  0  0
 20 36  1  0  0  0  0
 21 23  2  0  0  0  0
 21 37  1  0  0  0  0
 22 40  1  0  0  0  0
 23 41  1  0  0  0  0
 24 42  1  0  0  0  0
 25 43  1  0  0  0  0
 25 44  1  0  0  0  0
 25 45  1  0  0  0  0
 26 46  1  0  0  0  0
 26 47  1  0  0  0  0
 26 48  1  0  0  0  0
M  END
> <PUBCHEM_COMPOUND_CID>
1619219

> <PUBCHEM_CONFORMER_RMSD>
1

> <PUBCHEM_CONFORMER_DIVERSEORDER>
1
82
309
608
90
166
26
637
64
388
201
196
209
647
172
364
651
60
73
638
34
379
27
523
56
126
408
28
45
660
373
370
65
659
38
646
250
36
610
164
117
63
150
673
391
130
24
448
254
105
61
658
10
44
54
366
355
579
369
251
671
120
352
182
628
40
77
148
502
157
70
3
293
289
231
426
542
62
14
88
51
109
155
169
129
200
329
111
668
124
49
41
167
349
363
519
440
128
513
42
347
243
17
125
535
80
310
23
175
528
110
344
241
539
9
159
253
236
383
2
335
211
328
307
74
20
199
205
475
634
123
255
57
180
210
284
244
586
449
35
48
246
43
102
385
134
239
492
245
58
300
215
5
138
490
351
115
144
170
22
212
230
189
381
67
33
463
466
218
521
131
550
11
6
228
359
343
142
458
161
75
337
140
4
596
15
91
294
83
371
313
137
642
69
407
151
411
31
565
444
266
295
405
324
89
469
97
423
276
499
298
336
71
214
564
416
121
46
514
480
279
139
136
374
494
265
202
529
192
317
191
197
418
285
99
622
259
631
165
168
345
409
297
39
185
382
94
334
32
76
30
158
187
81

> <PUBCHEM_MMFF94_PARTIAL_CHARGES>
40
1 1.51
10 -0.15
11 -0.15
12 -0.15
13 -0.15
14 -0.14
15 -0.14
16 -0.15
17 -0.15
18 -0.15
19 -0.15
2 -0.35
20 -0.15
21 -0.15
22 -0.15
23 -0.15
24 -0.15
25 0.14
26 0.14
29 0.36
3 -0.35
30 0.15
31 0.15
32 0.15
33 0.15
34 0.15
35 0.15
36 0.15
37 0.15
38 0.15
39 0.15
4 -0.7
40 0.15
41 0.15
42 0.15
5 -0.9
6 0.41
7 -0.14
8 0.08
9 0.08

> <PUBCHEM_EFFECTIVE_ROTOR_COUNT>
7

> <PUBCHEM_PHARMACOPHORE_FEATURES>
4
1 4 acceptor
6 7 10 11 18 19 24 rings
6 8 12 14 16 20 22 rings
6 9 13 15 17 21 23 rings

> <PUBCHEM_HEAVY_ATOM_COUNT>
26

> <PUBCHEM_ATOM_DEF_STEREO_COUNT>
0

> <PUBCHEM_ATOM_UDEF_STEREO_COUNT>
0

> <PUBCHEM_BOND_DEF_STEREO_COUNT>
0

> <PUBCHEM_BOND_UDEF_STEREO_COUNT>
0

> <PUBCHEM_ISOTOPIC_ATOM_COUNT>
0

> <PUBCHEM_COMPONENT_COUNT>
1

> <PUBCHEM_CACTVS_TAUTO_COUNT>
2

> <PUBCHEM_CONFORMER_ID>
0018B51300000001

> <PUBCHEM_MMFF94_ENERGY>
62.0097

> <PUBCHEM_FEATURE_SELFOVERLAP>
20.297

> <PUBCHEM_SHAPE_FINGERPRINT>
10074138 170 18192414467288943480
10090160 65 18341326678742503293
102385 1 17837763792068698568
10764073 3 16736062705865114674
11488393 25 18050288059403414674
11719270 70 18339918212979396329
11991303 11 18334580173909348430
12107183 9 18334566911841518778
12553582 1 17619627330059541958
12597179 24 18341338816035011327
12788726 201 18049154768206210162
13052359 8 18339923821868750040
13540713 5 18043804502377431400
13590594 115 17617102851172543779
13692114 37 18200579410894127463
13911987 19 18340497724279803445
13968360 50 18339632327139532917
15276724 80 17977957004818894817
15664445 248 17689434884439563547
17138139 8 17771591759752032125
1813 80 11314316005252639809
19301679 30 18048605004077356810
19319366 153 18129936776688654885
20197701 30 18411413977796731064
20587220 17 11897732208944773759
20721686 124 17970053449615204403
21033650 10 17058960804364886352
21054139 6 18201422685005126821
23559900 14 17831014629462877497
23598288 3 18265615579532608830
340366 18 18334864918052750308
38695281 34 18337384946409423073
4017518 198 18130223758436698078
4409770 3 18196654214327919127
504843 32 18334858359115040383
6669772 16 18272374114220793574
6691757 9 18131068243131498328
79837 15 18411986853329987376

> <PUBCHEM_SHAPE_MULTIPOLES>
516.33
11.8
6.42
1.48
1.73
10.27
-0.02
-16.46
-1.59
-4.14
1.44
-0.33
1.1
0.01

> <PUBCHEM_SHAPE_SELFOVERLAP>
1086.904

> <PUBCHEM_SHAPE_VOLUME>
289.9

> <PUBCHEM_COORDINATE_TYPE>
2
5
10

$$$$
