9117011
  -OEChem-01171810013D

 38 40  0     0  0  0  0  0  0999 V2000
    1.7572   -0.1389   -1.6136 F   0  0  0  0  0  0  0  0  0  0  0  0
   -2.5000   -2.0199    0.3558 O   0  0  0  0  0  0  0  0  0  0  0  0
   -4.9353   -0.5340   -0.0587 O   0  0  0  0  0  0  0  0  0  0  0  0
    0.1887    3.1459   -0.5668 O   0  0  0  0  0  0  0  0  0  0  0  0
    1.0400    1.5059    0.8339 N   0  0  0  0  0  0  0  0  0  0  0  0
    3.3438    1.6068   -0.0580 C   0  0  0  0  0  0  0  0  0  0  0  0
    2.3520    2.0896    0.9975 C   0  0  0  0  0  0  0  0  0  0  0  0
   -2.5194   -0.6622    0.1703 C   0  0  0  0  0  0  0  0  0  0  0  0
   -1.2456    1.3822    0.0077 C   0  0  0  0  0  0  0  0  0  0  0  0
   -3.6986    0.0563   -0.0417 C   0  0  0  0  0  0  0  0  0  0  0  0
    3.5274    0.1090   -0.0518 C   0  0  0  0  0  0  0  0  0  0  0  0
   -1.2935    0.0027    0.2102 C   0  0  0  0  0  0  0  0  0  0  0  0
   -3.7303   -2.6303   -0.0431 C   0  0  0  0  0  0  0  0  0  0  0  0
   -4.9071   -1.8476    0.5062 C   0  0  0  0  0  0  0  0  0  0  0  0
    0.0299    2.0788    0.0524 C   0  0  0  0  0  0  0  0  0  0  0  0
   -2.4207    2.0956   -0.2312 C   0  0  0  0  0  0  0  0  0  0  0  0
   -3.6483    1.4336   -0.2577 C   0  0  0  0  0  0  0  0  0  0  0  0
    2.7098   -0.6824   -0.8433 C   0  0  0  0  0  0  0  0  0  0  0  0
    4.5131   -0.4491    0.7476 C   0  0  0  0  0  0  0  0  0  0  0  0
    2.8820   -2.0667   -0.8354 C   0  0  0  0  0  0  0  0  0  0  0  0
    4.6851   -1.8333    0.7556 C   0  0  0  0  0  0  0  0  0  0  0  0
    3.8697   -2.6421   -0.0358 C   0  0  0  0  0  0  0  0  0  0  0  0
    3.0152    1.9278   -1.0552 H   0  0  0  0  0  0  0  0  0  0  0  0
    4.3129    2.0958    0.1037 H   0  0  0  0  0  0  0  0  0  0  0  0
    2.6971    1.8218    2.0024 H   0  0  0  0  0  0  0  0  0  0  0  0
    2.2659    3.1806    0.9516 H   0  0  0  0  0  0  0  0  0  0  0  0
   -0.3952   -0.5891    0.3619 H   0  0  0  0  0  0  0  0  0  0  0  0
   -3.7373   -3.6522    0.3487 H   0  0  0  0  0  0  0  0  0  0  0  0
   -3.7561   -2.6834   -1.1386 H   0  0  0  0  0  0  0  0  0  0  0  0
   -5.8477   -2.3424    0.2451 H   0  0  0  0  0  0  0  0  0  0  0  0
   -4.8586   -1.7583    1.5985 H   0  0  0  0  0  0  0  0  0  0  0  0
    0.8529    0.6669    1.3724 H   0  0  0  0  0  0  0  0  0  0  0  0
   -2.4025    3.1710   -0.3887 H   0  0  0  0  0  0  0  0  0  0  0  0
   -4.5596    1.9984   -0.4344 H   0  0  0  0  0  0  0  0  0  0  0  0
    5.1516    0.1722    1.3690 H   0  0  0  0  0  0  0  0  0  0  0  0
    2.2462   -2.6960   -1.4510 H   0  0  0  0  0  0  0  0  0  0  0  0
    5.4536   -2.2814    1.3785 H   0  0  0  0  0  0  0  0  0  0  0  0
    4.0034   -3.7199   -0.0293 H   0  0  0  0  0  0  0  0  0  0  0  0
  1 18  1  0  0  0  0
  2  8  1  0  0  0  0
  2 13  1  0  0  0  0
  3 10  1  0  0  0  0
  3 14  1  0  0  0  0
  4 15  2  0  0  0  0
  5  7  1  0  0  0  0
  5 15  1  0  0  0  0
  5 32  1  0  0  0  0
  6  7  1  0  0  0  0
  6 11  1  0  0  0  0
  6 23  1  0  0  0  0
  6 24  1  0  0  0  0
  7 25  1  0  0  0  0
  7 26  1  0  0  0  0
  8 10  2  0  0  0  0
  8 12  1  0  0  0  0
  9 12  2  0  0  0  0
  9 15  1  0  0  0  0
  9 16  1  0  0  0  0
 10 17  1  0  0  0  0
 11 18  1  0  0  0  0
 11 19  2  0  0  0  0
 12 27  1  0  0  0  0
 13 14  1  0  0  0  0
 13 28  1  0  0  0  0
 13 29  1  0  0  0  0
 14 30  1  0  0  0  0
 14 31  1  0  0  0  0
 16 17  2  0  0  0  0
 16 33  1  0  0  0  0
 17 34  1  0  0  0  0
 18 20  2  0  0  0  0
 19 21  1  0  0  0  0
 19 35  1  0  0  0  0
 20 22  1  0  0  0  0
 20 36  1  0  0  0  0
 21 22  2  0  0  0  0
 21 37  1  0  0  0  0
 22 38  1  0  0  0  0
M  END
> <PUBCHEM_COMPOUND_CID>
9117011

> <PUBCHEM_CONFORMER_RMSD>
0.8

> <PUBCHEM_CONFORMER_DIVERSEORDER>
1
44
13
36
37
30
8
51
52
35
60
47
50
57
7
63
12
55
6
43
62
42
26
14
49
22
46
28
21
16
24
39
5
53
34
40
9
25
18
11
19
38
27
15
23
17
32
20
2
48
33
56
54
29
45
58
59
4
10
61
31
41
3

> <PUBCHEM_MMFF94_PARTIAL_CHARGES>
30
1 -0.19
10 0.08
11 -0.14
12 -0.15
13 0.28
14 0.28
15 0.54
16 -0.15
17 -0.15
18 0.19
19 -0.15
2 -0.36
20 -0.15
21 -0.15
22 -0.15
27 0.15
3 -0.36
32 0.37
33 0.15
34 0.15
35 0.15
36 0.15
37 0.15
38 0.15
4 -0.57
5 -0.73
6 0.14
7 0.3
8 0.08
9 0.09

> <PUBCHEM_EFFECTIVE_ROTOR_COUNT>
5.8

> <PUBCHEM_PHARMACOPHORE_FEATURES>
7
1 2 acceptor
1 3 acceptor
1 4 acceptor
1 5 donor
6 11 18 19 20 21 22 rings
6 2 3 8 10 13 14 rings
6 8 9 10 12 16 17 rings

> <PUBCHEM_HEAVY_ATOM_COUNT>
22

> <PUBCHEM_ATOM_DEF_STEREO_COUNT>
0

> <PUBCHEM_ATOM_UDEF_STEREO_COUNT>
0

> <PUBCHEM_BOND_DEF_STEREO_COUNT>
0

> <PUBCHEM_BOND_UDEF_STEREO_COUNT>
0

> <PUBCHEM_ISOTOPIC_ATOM_COUNT>
0

> <PUBCHEM_COMPONENT_COUNT>
1

> <PUBCHEM_CACTVS_TAUTO_COUNT>
2

> <PUBCHEM_CONFORMER_ID>
008B1D5300000001

> <PUBCHEM_MMFF94_ENERGY>
58.8635

> <PUBCHEM_FEATURE_SELFOVERLAP>
35.564

> <PUBCHEM_SHAPE_FINGERPRINT>
10616163 171 18340208582711531668
10670039 82 10231456550400112730
1100329 8 16538485783396685559
11796584 16 18116987798004133072
12506688 2 18272652337923110872
12596599 1 18058746697029876914
12633257 1 18199478687621045272
13255334 9 18410857654999024370
13402501 40 18411981364636401218
13533116 47 18130789018649150121
13965767 371 12607140481895125442
14251731 5 18410578370466268538
14251751 18 18334853888154481066
14617045 38 18339935929450018855
14790565 3 17547011832396770609
14866123 147 17909552757592836905
15196674 1 18410575071783464800
15352361 1 18410572872934464490
15635459 17 18341618135059322306
17492 89 18410013191668076314
17857418 61 18341889718969053759
1813 80 17531527697904986653
19141452 34 18339365150077665833
20261772 1 17775277266730458950
20281475 54 18411424985877480160
20403669 9 18412265029998804023
20626108 58 18114176407217982584
21279426 13 18336540530955338941
21315764 371 15410312421547016679
221490 88 18411139138924229392
23559900 14 18410851053740051740
3004659 81 18186802465773363894
3421961 26 18341047518626357088
463206 1 18126283292580977255
5104073 3 18343584036080119241
5309563 4 17760939836741414923
6433294 58 18412265060026905178
6823239 73 17916887737258628086
7399639 24 18124862710562563608
9709674 26 18411982450967253622

> <PUBCHEM_SHAPE_MULTIPOLES>
422.89
10.68
3.4
0.91
1.58
0.04
0.09
-7
-1.19
0.05
-0.03
-0.61
-0.01
0.67

> <PUBCHEM_SHAPE_SELFOVERLAP>
917.158

> <PUBCHEM_SHAPE_VOLUME>
230.3

> <PUBCHEM_COORDINATE_TYPE>
2
5
10

$$$$
