67133
  -OEChem-01171809533D

 31 32  0     0  0  0  0  0  0999 V2000
    1.1984    3.0308    0.2598 Cl  0  0  0  0  0  0  0  0  0  0  0  0
   -0.8438   -1.8990   -0.1322 O   0  0  0  0  0  0  0  0  0  0  0  0
   -0.2396    0.3610    0.0492 N   0  0  0  0  0  0  0  0  0  0  0  0
    5.3525    0.0735    0.0011 N   0  0  0  0  0  0  0  0  0  0  0  0
    3.1716   -1.0186   -0.0771 C   0  0  0  0  0  0  0  0  0  0  0  0
    1.1760    0.3099    0.0397 C   0  0  0  0  0  0  0  0  0  0  0  0
    1.7795   -0.9338   -0.0637 C   0  0  0  0  0  0  0  0  0  0  0  0
    3.9419    0.1408    0.0132 C   0  0  0  0  0  0  0  0  0  0  0  0
    1.9278    1.4699    0.1301 C   0  0  0  0  0  0  0  0  0  0  0  0
    3.3199    1.3851    0.1169 C   0  0  0  0  0  0  0  0  0  0  0  0
    3.8118   -2.3641   -0.1893 C   0  0  0  0  0  0  0  0  0  0  0  0
   -2.5583   -0.3306   -0.0259 C   0  0  0  0  0  0  0  0  0  0  0  0
   -1.1519   -0.7003   -0.0336 C   0  0  0  0  0  0  0  0  0  0  0  0
   -3.5132   -1.2285    0.4512 C   0  0  0  0  0  0  0  0  0  0  0  0
   -2.9525    0.9221   -0.4961 C   0  0  0  0  0  0  0  0  0  0  0  0
   -4.8622   -0.8738    0.4580 C   0  0  0  0  0  0  0  0  0  0  0  0
   -4.3015    1.2769   -0.4891 C   0  0  0  0  0  0  0  0  0  0  0  0
   -5.2564    0.3787   -0.0121 C   0  0  0  0  0  0  0  0  0  0  0  0
    1.2494   -1.8696   -0.1370 H   0  0  0  0  0  0  0  0  0  0  0  0
    3.9234    2.2878    0.1872 H   0  0  0  0  0  0  0  0  0  0  0  0
   -0.6035    1.3024    0.1685 H   0  0  0  0  0  0  0  0  0  0  0  0
    4.4262   -2.4220   -1.0940 H   0  0  0  0  0  0  0  0  0  0  0  0
    4.4353   -2.5664    0.6880 H   0  0  0  0  0  0  0  0  0  0  0  0
    3.0712   -3.1690   -0.2507 H   0  0  0  0  0  0  0  0  0  0  0  0
   -3.2270   -2.2075    0.8267 H   0  0  0  0  0  0  0  0  0  0  0  0
   -2.2517    1.6395   -0.9125 H   0  0  0  0  0  0  0  0  0  0  0  0
    5.8311   -0.8132   -0.0738 H   0  0  0  0  0  0  0  0  0  0  0  0
    5.8945    0.9252    0.0669 H   0  0  0  0  0  0  0  0  0  0  0  0
   -5.6058   -1.5725    0.8301 H   0  0  0  0  0  0  0  0  0  0  0  0
   -4.6102    2.2488   -0.8632 H   0  0  0  0  0  0  0  0  0  0  0  0
   -6.3069    0.6543   -0.0084 H   0  0  0  0  0  0  0  0  0  0  0  0
  1  9  1  0  0  0  0
  2 13  2  0  0  0  0
  3  6  1  0  0  0  0
  3 13  1  0  0  0  0
  3 21  1  0  0  0  0
  4  8  1  0  0  0  0
  4 27  1  0  0  0  0
  4 28  1  0  0  0  0
  5  7  2  0  0  0  0
  5  8  1  0  0  0  0
  5 11  1  0  0  0  0
  6  7  1  0  0  0  0
  6  9  2  0  0  0  0
  7 19  1  0  0  0  0
  8 10  2  0  0  0  0
  9 10  1  0  0  0  0
 10 20  1  0  0  0  0
 11 22  1  0  0  0  0
 11 23  1  0  0  0  0
 11 24  1  0  0  0  0
 12 13  1  0  0  0  0
 12 14  2  0  0  0  0
 12 15  1  0  0  0  0
 14 16  1  0  0  0  0
 14 25  1  0  0  0  0
 15 17  2  0  0  0  0
 15 26  1  0  0  0  0
 16 18  2  0  0  0  0
 16 29  1  0  0  0  0
 17 18  1  0  0  0  0
 17 30  1  0  0  0  0
 18 31  1  0  0  0  0
M  END
> <PUBCHEM_COMPOUND_CID>
67133

> <PUBCHEM_CONFORMER_RMSD>
0.6

> <PUBCHEM_CONFORMER_DIVERSEORDER>
1
3
2
4
5

> <PUBCHEM_MMFF94_PARTIAL_CHARGES>
28
1 -0.18
10 -0.15
11 0.14
12 0.09
13 0.54
14 -0.15
15 -0.15
16 -0.15
17 -0.15
18 -0.15
19 0.15
2 -0.57
20 0.15
21 0.37
25 0.15
26 0.15
27 0.4
28 0.4
29 0.15
3 -0.55
30 0.15
31 0.15
4 -0.9
5 -0.14
6 0.12
7 -0.15
8 0.1
9 0.18

> <PUBCHEM_EFFECTIVE_ROTOR_COUNT>
3

> <PUBCHEM_PHARMACOPHORE_FEATURES>
6
1 2 acceptor
1 3 donor
1 4 cation
1 4 donor
6 12 14 15 16 17 18 rings
6 5 6 7 8 9 10 rings

> <PUBCHEM_HEAVY_ATOM_COUNT>
18

> <PUBCHEM_ATOM_DEF_STEREO_COUNT>
0

> <PUBCHEM_ATOM_UDEF_STEREO_COUNT>
0

> <PUBCHEM_BOND_DEF_STEREO_COUNT>
0

> <PUBCHEM_BOND_UDEF_STEREO_COUNT>
0

> <PUBCHEM_ISOTOPIC_ATOM_COUNT>
0

> <PUBCHEM_COMPONENT_COUNT>
1

> <PUBCHEM_CACTVS_TAUTO_COUNT>
2

> <PUBCHEM_CONFORMER_ID>
0001063D00000001

> <PUBCHEM_MMFF94_ENERGY>
68.7146

> <PUBCHEM_FEATURE_SELFOVERLAP>
30.446

> <PUBCHEM_SHAPE_FINGERPRINT>
10366900 7 17530962514473366041
10608611 8 18336825398423515057
11471102 20 18412261731426744102
116883 192 18126851486973751652
12107183 9 17763467218735707331
12236239 1 17418375796079403051
12403259 226 18409163316571723173
12507557 5 18341895207963599617
13134695 92 17775275062979979120
13167823 11 18342172293531524743
13675066 3 18335422391474151155
14178342 30 17910089632873559594
14341114 176 18409456869001407113
14790565 3 17832427879767525924
14866123 147 17332530072953012770
15196674 1 18410011005312645831
15442244 35 18341052912968039648
17349148 13 17418097606969075183
17804303 29 18334298656425816287
18186145 218 18272941530924052897
18785283 64 18191021416322580724
200 152 17989203746577880043
20645477 70 18342176618405401302
21065198 57 18409449215337946131
21267235 1 18412272722490758078
21279426 13 18192711138028823621
21478907 32 18051132484834751882
221357 26 18410288091154897349
221490 88 18264213671762498523
22289505 5 18410570665421709236
23402539 116 18202277013786724269
23402655 69 18343019990767287108
23559900 14 18411696599418894528
3004659 81 18114748127748368982
3421961 26 18268709420796923810
34934 24 18341606040990618398
351380 180 18411134745278213005
3545911 37 18411420626432407435
42 15 18261112980352920015
4214541 1 18409167718928629441
5104073 3 18409449172182604179
5281201 14 18335141990070459725
542803 24 17240485814258909791
58051976 100 18341894159891547583
633830 44 17967247611651905771
69090 78 18341328980918703599
7364860 26 18268992158150848800
77779 3 18408324393341320167
7832392 63 18270111439554994030
9709674 26 18336269049792980635
9981440 41 17474379657058925984

> <PUBCHEM_SHAPE_MULTIPOLES>
356.47
11.11
2.33
0.67
4.78
0.78
0
-1.33
-0.04
-1.6
-0.08
0.2
0.03
0.68

> <PUBCHEM_SHAPE_SELFOVERLAP>
758.569

> <PUBCHEM_SHAPE_VOLUME>
199.4

> <PUBCHEM_COORDINATE_TYPE>
2
5
10

$$$$
