1632909
  -OEChem-01171809583D

 43 45  0     0  0  0  0  0  0999 V2000
   -4.1904   -1.2680    0.1857 S   0  0  0  0  0  0  0  0  0  0  0  0
   -0.2507   -4.1667    0.3061 S   0  0  0  0  0  0  0  0  0  0  0  0
   -5.8343    3.1034   -0.2623 O   0  0  0  0  0  0  0  0  0  0  0  0
    4.4801    3.2928    0.7455 O   0  0  0  0  0  0  0  0  0  0  0  0
    1.9625   -2.7258   -0.0089 N   0  0  0  0  0  0  0  0  0  0  0  0
   -0.1196   -1.6057   -0.0200 N   0  0  0  0  0  0  0  0  0  0  0  0
   -3.4858    1.1946   -0.1633 N   0  0  0  0  0  0  0  0  0  0  0  0
   -5.8471    0.7580    0.0324 N   0  0  0  0  0  0  0  0  0  0  0  0
    5.6383    1.4869   -0.2323 N   0  0  0  0  0  0  0  0  0  0  0  0
   -2.5170   -0.9242    0.0419 C   0  0  0  0  0  0  0  0  0  0  0  0
   -1.4532   -1.9435    0.1039 C   0  0  0  0  0  0  0  0  0  0  0  0
   -2.3355    0.4304   -0.1376 C   0  0  0  0  0  0  0  0  0  0  0  0
    2.8887   -1.6636   -0.0662 C   0  0  0  0  0  0  0  0  0  0  0  0
    0.5966   -2.6981    0.0716 C   0  0  0  0  0  0  0  0  0  0  0  0
   -4.5242    0.4048   -0.0023 C   0  0  0  0  0  0  0  0  0  0  0  0
   -1.7210   -3.2839    0.2868 C   0  0  0  0  0  0  0  0  0  0  0  0
    4.7212    0.4370   -0.1777 C   0  0  0  0  0  0  0  0  0  0  0  0
    4.1521   -1.8690   -0.6205 C   0  0  0  0  0  0  0  0  0  0  0  0
    2.5416   -0.4079    0.4324 C   0  0  0  0  0  0  0  0  0  0  0  0
   -1.0434    1.1298   -0.3026 C   0  0  0  0  0  0  0  0  0  0  0  0
    5.0683   -0.8187   -0.6762 C   0  0  0  0  0  0  0  0  0  0  0  0
    3.4578    0.6423    0.3766 C   0  0  0  0  0  0  0  0  0  0  0  0
   -6.4293    2.0438   -0.0941 C   0  0  0  0  0  0  0  0  0  0  0  0
    5.4720    2.8049    0.2136 C   0  0  0  0  0  0  0  0  0  0  0  0
   -7.9343    2.0093   -0.0045 C   0  0  0  0  0  0  0  0  0  0  0  0
    6.7065    3.6369   -0.0279 C   0  0  0  0  0  0  0  0  0  0  0  0
    2.4021   -3.6404   -0.0782 H   0  0  0  0  0  0  0  0  0  0  0  0
   -2.6641   -3.7975    0.4084 H   0  0  0  0  0  0  0  0  0  0  0  0
    4.4349   -2.8424   -1.0132 H   0  0  0  0  0  0  0  0  0  0  0  0
    1.5895   -0.2161    0.9140 H   0  0  0  0  0  0  0  0  0  0  0  0
   -0.4386    1.0467    0.6049 H   0  0  0  0  0  0  0  0  0  0  0  0
   -0.4810    0.7344   -1.1539 H   0  0  0  0  0  0  0  0  0  0  0  0
   -1.2023    2.1976   -0.4894 H   0  0  0  0  0  0  0  0  0  0  0  0
    6.0494   -0.9931   -1.1108 H   0  0  0  0  0  0  0  0  0  0  0  0
    3.1213    1.5821    0.7919 H   0  0  0  0  0  0  0  0  0  0  0  0
   -6.4836   -0.0241    0.1667 H   0  0  0  0  0  0  0  0  0  0  0  0
    6.5374    1.2569   -0.6506 H   0  0  0  0  0  0  0  0  0  0  0  0
   -8.3392    1.4715   -0.8661 H   0  0  0  0  0  0  0  0  0  0  0  0
   -8.3296    3.0288    0.0005 H   0  0  0  0  0  0  0  0  0  0  0  0
   -8.2411    1.5064    0.9169 H   0  0  0  0  0  0  0  0  0  0  0  0
    7.5489    3.2182    0.5298 H   0  0  0  0  0  0  0  0  0  0  0  0
    6.5332    4.6634    0.3068 H   0  0  0  0  0  0  0  0  0  0  0  0
    6.9438    3.6478   -1.0955 H   0  0  0  0  0  0  0  0  0  0  0  0
  1 10  1  0  0  0  0
  1 15  1  0  0  0  0
  2 14  1  0  0  0  0
  2 16  1  0  0  0  0
  3 23  2  0  0  0  0
  4 24  2  0  0  0  0
  5 13  1  0  0  0  0
  5 14  1  0  0  0  0
  5 27  1  0  0  0  0
  6 11  1  0  0  0  0
  6 14  2  0  0  0  0
  7 12  1  0  0  0  0
  7 15  2  0  0  0  0
  8 15  1  0  0  0  0
  8 23  1  0  0  0  0
  8 36  1  0  0  0  0
  9 17  1  0  0  0  0
  9 24  1  0  0  0  0
  9 37  1  0  0  0  0
 10 11  1  0  0  0  0
 10 12  2  0  0  0  0
 11 16  2  0  0  0  0
 12 20  1  0  0  0  0
 13 18  2  0  0  0  0
 13 19  1  0  0  0  0
 16 28  1  0  0  0  0
 17 21  2  0  0  0  0
 17 22  1  0  0  0  0
 18 21  1  0  0  0  0
 18 29  1  0  0  0  0
 19 22  2  0  0  0  0
 19 30  1  0  0  0  0
 20 31  1  0  0  0  0
 20 32  1  0  0  0  0
 20 33  1  0  0  0  0
 21 34  1  0  0  0  0
 22 35  1  0  0  0  0
 23 25  1  0  0  0  0
 24 26  1  0  0  0  0
 25 38  1  0  0  0  0
 25 39  1  0  0  0  0
 25 40  1  0  0  0  0
 26 41  1  0  0  0  0
 26 42  1  0  0  0  0
 26 43  1  0  0  0  0
M  END
> <PUBCHEM_COMPOUND_CID>
1632909

> <PUBCHEM_CONFORMER_RMSD>
0.8

> <PUBCHEM_CONFORMER_DIVERSEORDER>
1
83
144
160
66
9
40
53
94
54
154
73
52
112
130
43
36
61
156
115
56
143
18
104
70
67
24
107
145
163
149
39
114
46
38
131
12
84
72
91
138
128
44
105
150
146
8
89
162
85
87
134
51
75
124
88
81
20
77
55
137
133
45
82
127
90
147
140
117
19
27
113
69
103
129
86
136
10
79
155
152
74
42
80
41
71
93
111
106
132
118
26
161
33
11
121
92
125
148
16
7
110
14
139
99
34
28
95
109
15
101
76
5
78
25
159
6
120
158
100
17
22
29
37
49
68
32
58
97
63
31
13
102
35
98
116
3
50
30
47
23
142
153
21
108
57
157
4
123
48
141
135
151
65
62
96
119
2
126
122
60
59
64

> <PUBCHEM_MMFF94_PARTIAL_CHARGES>
34
1 -0.08
10 0.04
11 0.23
12 0.05
13 0.1
14 0.46
15 0.44
16 -0.11
17 0.12
18 -0.15
19 -0.15
2 -0.08
20 0.18
21 -0.15
22 -0.15
23 0.57
24 0.57
25 0.06
26 0.06
27 0.4
28 0.15
29 0.15
3 -0.57
30 0.15
34 0.15
35 0.15
36 0.37
37 0.37
4 -0.57
5 -0.58
6 -0.57
7 -0.57
8 -0.49
9 -0.55

> <PUBCHEM_EFFECTIVE_ROTOR_COUNT>
7

> <PUBCHEM_PHARMACOPHORE_FEATURES>
9
1 3 acceptor
1 4 acceptor
1 5 donor
1 8 donor
1 9 donor
3 5 6 14 cation
5 1 7 10 12 15 rings
5 2 6 11 14 16 rings
6 13 17 18 19 21 22 rings

> <PUBCHEM_HEAVY_ATOM_COUNT>
26

> <PUBCHEM_ATOM_DEF_STEREO_COUNT>
0

> <PUBCHEM_ATOM_UDEF_STEREO_COUNT>
0

> <PUBCHEM_BOND_DEF_STEREO_COUNT>
0

> <PUBCHEM_BOND_UDEF_STEREO_COUNT>
0

> <PUBCHEM_ISOTOPIC_ATOM_COUNT>
0

> <PUBCHEM_COMPONENT_COUNT>
1

> <PUBCHEM_CACTVS_TAUTO_COUNT>
12

> <PUBCHEM_CONFORMER_ID>
0018EA8D00000001

> <PUBCHEM_MMFF94_ENERGY>
62.5108

> <PUBCHEM_FEATURE_SELFOVERLAP>
45.671

> <PUBCHEM_SHAPE_FINGERPRINT>
10050765 1 18410292531909196226
10411042 1 17112975721591511978
10864689 126 18270967955341083096
10917259 128 14418679301155392965
11135609 187 18413106173727227953
12107183 9 18262785316976931458
12788726 201 17417821612281243640
12821665 9 18341043095754222991
12925494 130 18339920544840826160
13726171 33 18337110197763325792
13944108 23 18197782085572210992
14142895 15 18339920425905444917
14168556 18 18336269033493858867
14223995 32 18127401466596262960
14251764 75 18341058432328043489
14429114 114 18339640040875150257
14528608 73 18341046312204789879
14565420 104 18259982643660874371
14790565 3 18267869389464880697
14931854 50 17989215858396795696
15196674 1 18410575093332693470
15198563 99 17552632964775743823
15322687 12 18341610399933895024
19053607 189 18269826679266451736
20691028 202 18335986453798066540
20715895 44 18411698781884766666
21033648 29 18410288133735181962
21049683 118 17821722827730688819
21521721 280 18412269402887123227
23522609 53 17559402354143093865
23559900 14 18342741802459422966
23569914 152 17771369499816485750
23845131 108 18259989241184847939
270888 7 18410572915978927032
2747138 104 17971209233905006387
2748736 6 18410282636108581300
2838139 119 18409725136574270831
3246875 12 18408887360886366403
335352 9 18338802191888049878
3472631 163 18343584014689756423
34797466 226 17987802900319079679
4073 2 18260270788589472106
5104073 3 18113897178087766362
5312510 48 18341613693920882441
59682541 52 17274831199231420094
60123966 16 18131361778434794822
6327066 14 18410572920041792430
636775 72 17980196706554388864
7288768 16 18041275581850508778
7808743 9 18265328598560844754
7970288 3 9367344829727766641
9849439 229 18334577962196395422

> <PUBCHEM_SHAPE_MULTIPOLES>
506.12
18.16
5.03
0.69
9.33
0.5
0
-24.43
-0.8
-2.43
0.45
-0.26
0.03
1.16

> <PUBCHEM_SHAPE_SELFOVERLAP>
1057.999

> <PUBCHEM_SHAPE_VOLUME>
288.3

> <PUBCHEM_COORDINATE_TYPE>
2
5
10

$$$$
