1826779
  -OEChem-01171809433D

 43 44  0     0  0  0  0  0  0999 V2000
    1.4404    2.9677   -0.3550 S   0  0  0  0  0  0  0  0  0  0  0  0
   -1.7779   -2.7835    0.9362 O   0  0  0  0  0  0  0  0  0  0  0  0
    1.4087    0.2144    0.0048 N   0  0  0  0  0  0  0  0  0  0  0  0
   -2.7130    0.3529   -0.2272 N   0  0  0  0  0  0  0  0  0  0  0  0
   -0.6763    1.4118   -0.1754 N   0  0  0  0  0  0  0  0  0  0  0  0
   -3.4321    1.5893   -0.3037 C   0  0  0  0  0  0  0  0  0  0  0  0
   -4.9367    1.3800   -0.4391 C   0  0  0  0  0  0  0  0  0  0  0  0
   -0.6382   -1.0316   -0.0848 C   0  0  0  0  0  0  0  0  0  0  0  0
    0.7056   -1.0100    0.0353 C   0  0  0  0  0  0  0  0  0  0  0  0
   -1.3380    0.2887   -0.1635 C   0  0  0  0  0  0  0  0  0  0  0  0
   -5.5364    0.6344    0.7554 C   0  0  0  0  0  0  0  0  0  0  0  0
    2.8445    0.2362    0.0757 C   0  0  0  0  0  0  0  0  0  0  0  0
    0.7003    1.4408   -0.1477 C   0  0  0  0  0  0  0  0  0  0  0  0
    1.5124   -2.2743    0.2751 C   0  0  0  0  0  0  0  0  0  0  0  0
   -1.3849   -2.3013   -0.1222 C   0  0  0  0  0  0  0  0  0  0  0  0
   -7.0446    0.4934    0.6214 C   0  0  0  0  0  0  0  0  0  0  0  0
    3.5811    0.1819   -1.0955 C   0  0  0  0  0  0  0  0  0  0  0  0
    3.4599    0.3123    1.3138 C   0  0  0  0  0  0  0  0  0  0  0  0
   -1.6121   -2.9220   -1.4718 C   0  0  0  0  0  0  0  0  0  0  0  0
    4.9742    0.2041   -1.0268 C   0  0  0  0  0  0  0  0  0  0  0  0
    4.8528    0.3346    1.3826 C   0  0  0  0  0  0  0  0  0  0  0  0
    5.6100    0.2803    0.2124 C   0  0  0  0  0  0  0  0  0  0  0  0
   -3.2319    2.1931    0.5896 H   0  0  0  0  0  0  0  0  0  0  0  0
   -3.0884    2.1650   -1.1716 H   0  0  0  0  0  0  0  0  0  0  0  0
   -5.1474    0.8195   -1.3586 H   0  0  0  0  0  0  0  0  0  0  0  0
   -5.4216    2.3584   -0.5414 H   0  0  0  0  0  0  0  0  0  0  0  0
   -3.2488   -0.5090   -0.2664 H   0  0  0  0  0  0  0  0  0  0  0  0
   -5.3084    1.1749    1.6815 H   0  0  0  0  0  0  0  0  0  0  0  0
   -5.1013   -0.3663    0.8493 H   0  0  0  0  0  0  0  0  0  0  0  0
    2.2343   -2.4304   -0.5333 H   0  0  0  0  0  0  0  0  0  0  0  0
    0.9007   -3.1795    0.3211 H   0  0  0  0  0  0  0  0  0  0  0  0
    2.0476   -2.2177    1.2285 H   0  0  0  0  0  0  0  0  0  0  0  0
   -7.3071   -0.0698   -0.2799 H   0  0  0  0  0  0  0  0  0  0  0  0
   -7.4539   -0.0385    1.4859 H   0  0  0  0  0  0  0  0  0  0  0  0
   -7.5273    1.4744    0.5670 H   0  0  0  0  0  0  0  0  0  0  0  0
    3.0943    0.1197   -2.0648 H   0  0  0  0  0  0  0  0  0  0  0  0
    2.8776    0.3552    2.2299 H   0  0  0  0  0  0  0  0  0  0  0  0
   -1.1885   -2.3034   -2.2681 H   0  0  0  0  0  0  0  0  0  0  0  0
   -2.6870   -3.0206   -1.6438 H   0  0  0  0  0  0  0  0  0  0  0  0
   -1.1343   -3.9045   -1.5008 H   0  0  0  0  0  0  0  0  0  0  0  0
    5.5637    0.1613   -1.9379 H   0  0  0  0  0  0  0  0  0  0  0  0
    5.3480    0.3941    2.3474 H   0  0  0  0  0  0  0  0  0  0  0  0
    6.6947    0.2976    0.2661 H   0  0  0  0  0  0  0  0  0  0  0  0
  1 13  2  0  0  0  0
  2 15  2  0  0  0  0
  3  9  1  0  0  0  0
  3 12  1  0  0  0  0
  3 13  1  0  0  0  0
  4  6  1  0  0  0  0
  4 10  1  0  0  0  0
  4 27  1  0  0  0  0
  5 10  2  0  0  0  0
  5 13  1  0  0  0  0
  6  7  1  0  0  0  0
  6 23  1  0  0  0  0
  6 24  1  0  0  0  0
  7 11  1  0  0  0  0
  7 25  1  0  0  0  0
  7 26  1  0  0  0  0
  8  9  2  0  0  0  0
  8 10  1  0  0  0  0
  8 15  1  0  0  0  0
  9 14  1  0  0  0  0
 11 16  1  0  0  0  0
 11 28  1  0  0  0  0
 11 29  1  0  0  0  0
 12 17  2  0  0  0  0
 12 18  1  0  0  0  0
 14 30  1  0  0  0  0
 14 31  1  0  0  0  0
 14 32  1  0  0  0  0
 15 19  1  0  0  0  0
 16 33  1  0  0  0  0
 16 34  1  0  0  0  0
 16 35  1  0  0  0  0
 17 20  1  0  0  0  0
 17 36  1  0  0  0  0
 18 21  2  0  0  0  0
 18 37  1  0  0  0  0
 19 38  1  0  0  0  0
 19 39  1  0  0  0  0
 19 40  1  0  0  0  0
 20 22  2  0  0  0  0
 20 41  1  0  0  0  0
 21 22  1  0  0  0  0
 21 42  1  0  0  0  0
 22 43  1  0  0  0  0
M  END
> <PUBCHEM_COMPOUND_CID>
1826779

> <PUBCHEM_CONFORMER_RMSD>
0.8

> <PUBCHEM_CONFORMER_DIVERSEORDER>
1
11
2
13
5
7
12
4
8
9
6
10
3

> <PUBCHEM_MMFF94_PARTIAL_CHARGES>
25
1 -0.38
10 0.49
12 0.12
13 0.65
14 0.14
15 0.49
17 -0.15
18 -0.15
19 0.06
2 -0.57
20 -0.15
21 -0.15
22 -0.15
27 0.4
3 -0.29
36 0.15
37 0.15
4 -0.82
41 0.15
42 0.15
43 0.15
5 -0.66
6 0.37
8 0.03
9 -0.03

> <PUBCHEM_EFFECTIVE_ROTOR_COUNT>
6

> <PUBCHEM_PHARMACOPHORE_FEATURES>
7
1 1 acceptor
1 16 hydrophobe
1 2 acceptor
1 4 donor
3 4 5 10 cation
6 12 17 18 20 21 22 rings
6 3 5 8 9 10 13 rings

> <PUBCHEM_HEAVY_ATOM_COUNT>
22

> <PUBCHEM_ATOM_DEF_STEREO_COUNT>
0

> <PUBCHEM_ATOM_UDEF_STEREO_COUNT>
0

> <PUBCHEM_BOND_DEF_STEREO_COUNT>
0

> <PUBCHEM_BOND_UDEF_STEREO_COUNT>
0

> <PUBCHEM_ISOTOPIC_ATOM_COUNT>
0

> <PUBCHEM_COMPONENT_COUNT>
1

> <PUBCHEM_CACTVS_TAUTO_COUNT>
19

> <PUBCHEM_CONFORMER_ID>
001BDFDB00000001

> <PUBCHEM_MMFF94_ENERGY>
83.9657

> <PUBCHEM_FEATURE_SELFOVERLAP>
35.52

> <PUBCHEM_SHAPE_FINGERPRINT>
10493431 412 18412539903615769657
1100329 8 18339079397060249289
11578080 2 17487606661707685184
11646440 116 18201726145576813633
11963148 33 18113897178425772819
12035758 1 18410290324195078065
12236239 1 17675924301191806044
12403814 3 17458336429510091805
12592029 89 18261676986963235593
12916748 109 18272371936313814161
13140716 1 18265049313395157640
13533116 47 17631453380442750606
13540713 5 18120369023708532628
13544592 145 18059861632333274462
13583140 156 16588290679786298781
14790565 3 18337117782459759780
14955137 171 18334583442469325848
15099037 51 18410294713546048893
15131766 46 15938119887801364558
1601671 61 18408322155305020172
16752209 62 18265323083722960386
16945 1 18409162212553884628
17980427 23 18190733319022771356
19141452 34 18272366503438179958
20028762 73 18272368715890163399
20602899 9 16343703231476925943
20691752 17 17315053671122447128
20739085 24 18050023098766082049
21033648 29 18130489856575881841
21236236 1 18342174518651618647
21267235 1 18261394387211410850
22182313 1 18199490838247770711
22224240 67 18412545406249545881
22956985 138 17608929785795311043
2334 1 17976817910899119420
23402539 116 18272359880287594148
23536379 177 15482671256333570429
23557571 272 17988075729220810786
23558518 356 17900260011441802634
23559900 14 18343304765397245644
23569943 247 17557721169671189063
23622692 88 18335138708889583717
25147074 1 18190460660801542300
2748010 2 18048312241456210436
3009799 131 10015578389893752595
3178227 256 18335433365558996857
335352 9 18410295821837346668
34934 24 18410006633305210694
350125 39 18335424629342016453
3759504 43 17967255303732708659
4340502 62 18412544279987062191
465052 167 17676212363815107129
474229 33 18409451376028307803
495365 180 17203034228320413546
5104073 3 18263630939844080568
5385378 56 18269846324314780219
58260988 647 16629421137791367838
59554788 170 18124314909147900350
59755656 215 18411700946622260261
59755656 520 18272083890205848479
7495541 125 17385731313221137029

> <PUBCHEM_SHAPE_MULTIPOLES>
435.79
12.47
2.79
1.09
10.31
1.34
0.04
-4.9
2.51
1.43
-0.53
-0.63
0.23
-0.18

> <PUBCHEM_SHAPE_SELFOVERLAP>
894.696

> <PUBCHEM_SHAPE_VOLUME>
253.5

> <PUBCHEM_COORDINATE_TYPE>
2
5
10

$$$$
