3225712
  -OEChem-01171810043D

 62 66  0     1  0  0  0  0  0999 V2000
    2.4396   -3.2342    1.2614 S   0  0  0  0  0  0  0  0  0  0  0  0
    5.7036   -2.6917    0.3387 O   0  0  0  0  0  0  0  0  0  0  0  0
    0.7252    3.7890   -2.6692 O   0  0  0  0  0  0  0  0  0  0  0  0
    4.5238   -0.7508   -0.1098 N   0  0  0  0  0  0  0  0  0  0  0  0
    0.7085    1.8053    0.8519 N   0  0  0  0  0  0  0  0  0  0  0  0
    1.8855    2.4644   -1.1602 N   0  0  0  0  0  0  0  0  0  0  0  0
   -1.5912    2.6446    1.0597 N   0  0  0  0  0  0  0  0  0  0  0  0
   -2.2571    3.5700    0.2298 N   0  0  0  0  0  0  0  0  0  0  0  0
   -1.4947    3.8137   -0.9002 N   0  0  0  0  0  0  0  0  0  0  0  0
    2.9793    1.0763    0.4774 C   0  0  2  0  0  0  0  0  0  0  0  0
    4.1774    2.0113    0.6690 C   0  0  0  0  0  0  0  0  0  0  0  0
    3.3082   -0.0339   -0.5210 C   0  0  0  0  0  0  0  0  0  0  0  0
    5.4327    1.2232    1.0440 C   0  0  0  0  0  0  0  0  0  0  0  0
    5.7054    0.1006    0.0451 C   0  0  0  0  0  0  0  0  0  0  0  0
    1.7955    1.8504   -0.0123 C   0  0  0  0  0  0  0  0  0  0  0  0
    4.6360   -2.1429    0.0600 C   0  0  0  0  0  0  0  0  0  0  0  0
   -5.4380   -2.2211   -0.5892 C   0  0  0  0  0  0  0  0  0  0  0  0
   -0.3581    2.4429    0.5293 C   0  0  0  0  0  0  0  0  0  0  0  0
   -0.3737    3.1976   -0.7246 C   0  0  0  0  0  0  0  0  0  0  0  0
   -4.6216   -1.1725    0.0871 C   0  0  0  0  0  0  0  0  0  0  0  0
   -2.2776    1.8379    2.0285 C   0  0  0  0  0  0  0  0  0  0  0  0
    3.4243   -2.9378   -0.1038 C   0  0  0  0  0  0  0  0  0  0  0  0
    0.7999    3.1776   -1.6132 C   0  0  0  0  0  0  0  0  0  0  0  0
   -3.1006    0.7806    1.3463 C   0  0  0  0  0  0  0  0  0  0  0  0
   -6.9066   -1.8081   -0.9377 C   0  0  0  0  0  0  0  0  0  0  0  0
   -4.7958   -2.6521   -1.9444 C   0  0  0  0  0  0  0  0  0  0  0  0
   -5.5657   -3.4985    0.2978 C   0  0  0  0  0  0  0  0  0  0  0  0
   -3.2986   -1.4384    0.4399 C   0  0  0  0  0  0  0  0  0  0  0  0
   -5.1809    0.0743    0.3667 C   0  0  0  0  0  0  0  0  0  0  0  0
   -2.5346   -0.4574    1.0724 C   0  0  0  0  0  0  0  0  0  0  0  0
   -4.4170    1.0554    0.9990 C   0  0  0  0  0  0  0  0  0  0  0  0
    2.9254   -3.5155   -1.2456 C   0  0  0  0  0  0  0  0  0  0  0  0
    1.7099   -4.2162   -0.9976 C   0  0  0  0  0  0  0  0  0  0  0  0
    1.3316   -4.1440    0.3249 C   0  0  0  0  0  0  0  0  0  0  0  0
    2.7396    0.6180    1.4465 H   0  0  0  0  0  0  0  0  0  0  0  0
    3.9574    2.7501    1.4492 H   0  0  0  0  0  0  0  0  0  0  0  0
    4.3778    2.5801   -0.2481 H   0  0  0  0  0  0  0  0  0  0  0  0
    2.4527   -0.7056   -0.6237 H   0  0  0  0  0  0  0  0  0  0  0  0
    3.5058    0.3688   -1.5225 H   0  0  0  0  0  0  0  0  0  0  0  0
    6.2952    1.8970    1.0925 H   0  0  0  0  0  0  0  0  0  0  0  0
    5.2994    0.7940    2.0449 H   0  0  0  0  0  0  0  0  0  0  0  0
    6.5699   -0.4836    0.3750 H   0  0  0  0  0  0  0  0  0  0  0  0
    5.9449    0.5133   -0.9420 H   0  0  0  0  0  0  0  0  0  0  0  0
   -2.9208    2.4673    2.6570 H   0  0  0  0  0  0  0  0  0  0  0  0
   -1.5625    1.3725    2.7189 H   0  0  0  0  0  0  0  0  0  0  0  0
   -6.9315   -0.9524   -1.6224 H   0  0  0  0  0  0  0  0  0  0  0  0
   -7.4763   -1.5515   -0.0369 H   0  0  0  0  0  0  0  0  0  0  0  0
   -7.4410   -2.6290   -1.4313 H   0  0  0  0  0  0  0  0  0  0  0  0
   -4.6875   -1.7914   -2.6148 H   0  0  0  0  0  0  0  0  0  0  0  0
   -5.4099   -3.4022   -2.4561 H   0  0  0  0  0  0  0  0  0  0  0  0
   -3.8012   -3.0897   -1.8051 H   0  0  0  0  0  0  0  0  0  0  0  0
   -6.0202   -3.2564    1.2657 H   0  0  0  0  0  0  0  0  0  0  0  0
   -4.5911   -3.9580    0.4961 H   0  0  0  0  0  0  0  0  0  0  0  0
   -6.1891   -4.2592   -0.1861 H   0  0  0  0  0  0  0  0  0  0  0  0
   -2.8376   -2.4001    0.2337 H   0  0  0  0  0  0  0  0  0  0  0  0
   -6.2030    0.3341    0.1149 H   0  0  0  0  0  0  0  0  0  0  0  0
   -2.3997    4.4445    0.7337 H   0  0  0  0  0  0  0  0  0  0  0  0
   -1.5046   -0.6745    1.3415 H   0  0  0  0  0  0  0  0  0  0  0  0
   -4.8630    2.0226    1.2131 H   0  0  0  0  0  0  0  0  0  0  0  0
    3.4022   -3.4430   -2.2148 H   0  0  0  0  0  0  0  0  0  0  0  0
    1.1415   -4.7458   -1.7510 H   0  0  0  0  0  0  0  0  0  0  0  0
    0.4571   -4.5811    0.7859 H   0  0  0  0  0  0  0  0  0  0  0  0
  1 22  1  0  0  0  0
  1 34  1  0  0  0  0
  2 16  2  0  0  0  0
  3 23  2  0  0  0  0
  4 12  1  0  0  0  0
  4 14  1  0  0  0  0
  4 16  1  0  0  0  0
  5 15  1  0  0  0  0
  5 18  2  0  0  0  0
  6 15  2  0  0  0  0
  6 23  1  0  0  0  0
  7  8  1  0  0  0  0
  7 18  1  0  0  0  0
  7 21  1  0  0  0  0
  8  9  1  0  0  0  0
  8 57  1  0  0  0  0
  9 19  2  0  0  0  0
 10 11  1  0  0  0  0
 10 12  1  0  0  0  0
 10 15  1  0  0  0  0
 10 35  1  0  0  0  0
 11 13  1  0  0  0  0
 11 36  1  0  0  0  0
 11 37  1  0  0  0  0
 12 38  1  0  0  0  0
 12 39  1  0  0  0  0
 13 14  1  0  0  0  0
 13 40  1  0  0  0  0
 13 41  1  0  0  0  0
 14 42  1  0  0  0  0
 14 43  1  0  0  0  0
 16 22  1  0  0  0  0
 17 20  1  0  0  0  0
 17 25  1  0  0  0  0
 17 26  1  0  0  0  0
 17 27  1  0  0  0  0
 18 19  1  0  0  0  0
 19 23  1  0  0  0  0
 20 28  2  0  0  0  0
 20 29  1  0  0  0  0
 21 24  1  0  0  0  0
 21 44  1  0  0  0  0
 21 45  1  0  0  0  0
 22 32  2  0  0  0  0
 24 30  2  0  0  0  0
 24 31  1  0  0  0  0
 25 46  1  0  0  0  0
 25 47  1  0  0  0  0
 25 48  1  0  0  0  0
 26 49  1  0  0  0  0
 26 50  1  0  0  0  0
 26 51  1  0  0  0  0
 27 52  1  0  0  0  0
 27 53  1  0  0  0  0
 27 54  1  0  0  0  0
 28 30  1  0  0  0  0
 28 55  1  0  0  0  0
 29 31  2  0  0  0  0
 29 56  1  0  0  0  0
 30 58  1  0  0  0  0
 31 59  1  0  0  0  0
 32 33  1  0  0  0  0
 32 60  1  0  0  0  0
 33 34  2  0  0  0  0
 33 61  1  0  0  0  0
 34 62  1  0  0  0  0
M  END
> <PUBCHEM_COMPOUND_CID>
3225712

> <PUBCHEM_CONFORMER_RMSD>
1.2

> <PUBCHEM_CONFORMER_DIVERSEORDER>
1
91
286
290
147
104
98
117
234
295
181
274
285
195
102
123
121
16
58
289
151
89
292
190
17
40
51
270
251
128
211
87
46
44
263
54
30
225
18
232
207
19
223
110
304
69
175
221
23
249
277
189
208
162
183
169
140
217
156
213
220
134
259
301
15
64
222
272
80
66
303
47
32
138
50
239
291
74
33
243
59
9
107
248
157
127
218
299
56
275
201
186
20
288
31
197
283
79
266
155
241
60
302
262
240
150
154
196
166
210
131
161
43
177
63
81
78
27
267
192
224
214
26
281
148
10
198
136
280
160
38
260
191
82
126
118
106
14
71
178
212
12
236
300
36
194
65
88
168
269
11
287
229
125
111
83
273
97
171
21
53
8
100
167
52
129
92
103
233
228
76
253
137
185
90
25
48
152
294
163
252
284
245
13
35
276
164
101
250
238
187
237
142
42
139
24
122
5
119
244
28
209
112
149
4
219
293
62
257
115
182
75
173
188
255
68
254
203
85
109
86
247
226
193
145
37
49
120
67
133
96
77
72
114
180
278
2
170
70
204
141
256
105
264
6
116
61
235
282
99
206
22
124
45
135
144
165
159
41
271
261
184
146
29
7
205
231
84
130
296
39
55
258
199
265
153
176
143
3
215
73
172
297
34
113
298
268
230
57
158
108
227
95
93
279
242
216
246
200
132
94
179
202
174

> <PUBCHEM_MMFF94_PARTIAL_CHARGES>
37
1 -0.08
10 0.06
12 0.3
14 0.3
15 0.6
16 0.71
17 0.14
18 0.5
19 0.45
2 -0.57
20 -0.14
21 0.51
22 -0.05
23 0.78
24 -0.14
28 -0.15
29 -0.15
3 -0.57
30 -0.15
31 -0.15
32 -0.15
33 -0.15
34 -0.11
4 -0.66
5 -0.66
55 0.15
56 0.15
57 0.36
58 0.15
59 0.15
6 -0.66
60 0.15
61 0.15
62 0.15
7 -0.43
8 -0.3
9 -0.5

> <PUBCHEM_EFFECTIVE_ROTOR_COUNT>
7.2

> <PUBCHEM_PHARMACOPHORE_FEATURES>
11
1 2 acceptor
1 3 acceptor
1 6 donor
1 9 acceptor
3 5 7 18 cation
4 17 25 26 27 hydrophobe
5 1 22 32 33 34 rings
5 7 8 9 18 19 rings
6 20 24 28 29 30 31 rings
6 4 10 11 12 13 14 rings
6 5 6 15 18 19 23 rings

> <PUBCHEM_HEAVY_ATOM_COUNT>
34

> <PUBCHEM_ATOM_DEF_STEREO_COUNT>
0

> <PUBCHEM_ATOM_UDEF_STEREO_COUNT>
1

> <PUBCHEM_BOND_DEF_STEREO_COUNT>
0

> <PUBCHEM_BOND_UDEF_STEREO_COUNT>
0

> <PUBCHEM_ISOTOPIC_ATOM_COUNT>
0

> <PUBCHEM_COMPONENT_COUNT>
1

> <PUBCHEM_CACTVS_TAUTO_COUNT>
4

> <PUBCHEM_CONFORMER_ID>
0031387000000001

> <PUBCHEM_MMFF94_ENERGY>
99.0332

> <PUBCHEM_FEATURE_SELFOVERLAP>
55.949

> <PUBCHEM_SHAPE_FINGERPRINT>
10622 236 18340766031128598223
10677394 325 17824566260412277420
10928967 22 17833292838518925682
11069576 57 18191592066988593765
11136131 41 18335696114842722762
11497681 19 18413393151110627100
11513181 2 17988371368483212870
11552529 35 18198908002748652328
11963148 33 17903639576002336730
13347071 3 18127974311674376550
1361 2 18338233889840446570
144659 178 18122065565881519406
1454969 45 18335146444827745596
15001296 14 18412826858823453514
15250474 111 18269844129132506064
15320467 1 18340487888509062763
15361156 5 18116734944763790736
19315092 285 17846221128134752513
20028762 73 18343021142319760270
20764821 26 18048620383758631563
20775530 9 18336838476250557811
21133410 58 18191012603492892207
21344244 181 17468743101262873141
21458453 9 13397778531994859415
3246872 21 18270958054702857855
325973 47 17978232982501749947
373842 8 18339364183451840707
4408954 87 17701526536629446382
463206 1 18411710876011811419
50080093 196 18337674092483419155
5081480 168 16298392404852101669
5309563 4 18410009940066161855
57035037 87 14129330867470399764
613672 6 18041001777563926864
66674814 147 18336261357237366035

> <PUBCHEM_SHAPE_MULTIPOLES>
661.93
14.21
6.63
1.58
8.47
1.48
-0.48
11.25
0.08
-1.76
-2.06
0.64
-0.81
-1.47

> <PUBCHEM_SHAPE_SELFOVERLAP>
1425.33

> <PUBCHEM_SHAPE_VOLUME>
367.3

> <PUBCHEM_COORDINATE_TYPE>
2
5
10

$$$$
