973504
  -OEChem-01171810043D

 37 39  0     0  0  0  0  0  0999 V2000
    1.1569    2.2249    0.1532 S   0  0  0  0  0  0  0  0  0  0  0  0
    0.9309    3.1068   -0.9766 O   0  0  0  0  0  0  0  0  0  0  0  0
    2.1676    2.5601    1.1379 O   0  0  0  0  0  0  0  0  0  0  0  0
    2.3016   -1.2604    2.4307 O   0  5  0  0  0  0  0  0  0  0  0  0
    1.6988    0.8418    2.2400 O   0  0  0  0  0  0  0  0  0  0  0  0
   -0.3475    1.9198    0.9297 N   0  0  0  0  0  0  0  0  0  0  0  0
   -1.2705   -0.6476    1.5142 N   0  0  0  0  0  0  0  0  0  0  0  0
    1.9735   -0.2715    1.7337 N   0  3  0  0  0  0  0  0  0  0  0  0
    1.5561    0.6334   -0.5104 C   0  0  0  0  0  0  0  0  0  0  0  0
   -1.3991    1.3064    0.1738 C   0  0  0  0  0  0  0  0  0  0  0  0
    1.9112   -0.4177    0.3200 C   0  0  0  0  0  0  0  0  0  0  0  0
   -1.8353    0.0232    0.4924 C   0  0  0  0  0  0  0  0  0  0  0  0
    1.5001    0.4754   -1.8870 C   0  0  0  0  0  0  0  0  0  0  0  0
   -2.8727   -0.5364   -0.2824 C   0  0  0  0  0  0  0  0  0  0  0  0
    2.1657   -1.8318   -1.6224 C   0  0  0  0  0  0  0  0  0  0  0  0
    2.2180   -1.6582   -0.2393 C   0  0  0  0  0  0  0  0  0  0  0  0
    1.8067   -0.7651   -2.4461 C   0  0  0  0  0  0  0  0  0  0  0  0
   -1.9623    2.0310   -0.8794 C   0  0  0  0  0  0  0  0  0  0  0  0
   -3.4395    0.1923   -1.3419 C   0  0  0  0  0  0  0  0  0  0  0  0
   -2.9838    1.4735   -1.6385 C   0  0  0  0  0  0  0  0  0  0  0  0
   -3.3124   -1.8280    0.0379 C   0  0  0  0  0  0  0  0  0  0  0  0
    2.4923   -3.1584   -2.2205 C   0  0  0  0  0  0  0  0  0  0  0  0
   -2.7324   -2.5217    1.0903 C   0  0  0  0  0  0  0  0  0  0  0  0
   -1.7238   -1.8918    1.7907 C   0  0  0  0  0  0  0  0  0  0  0  0
   -0.2951    1.6144    1.9104 H   0  0  0  0  0  0  0  0  0  0  0  0
    1.2206    1.2824   -2.5564 H   0  0  0  0  0  0  0  0  0  0  0  0
    2.4984   -2.5090    0.3776 H   0  0  0  0  0  0  0  0  0  0  0  0
    1.7591   -0.8881   -3.5249 H   0  0  0  0  0  0  0  0  0  0  0  0
   -1.6353    3.0413   -1.1076 H   0  0  0  0  0  0  0  0  0  0  0  0
   -4.2405   -0.2343   -1.9415 H   0  0  0  0  0  0  0  0  0  0  0  0
   -3.4280    2.0355   -2.4543 H   0  0  0  0  0  0  0  0  0  0  0  0
   -4.1094   -2.3007   -0.5315 H   0  0  0  0  0  0  0  0  0  0  0  0
    1.6169   -3.8141   -2.1803 H   0  0  0  0  0  0  0  0  0  0  0  0
    2.8047   -3.0599   -3.2657 H   0  0  0  0  0  0  0  0  0  0  0  0
    3.3181   -3.6368   -1.6830 H   0  0  0  0  0  0  0  0  0  0  0  0
   -3.0595   -3.5212    1.3514 H   0  0  0  0  0  0  0  0  0  0  0  0
   -1.2319   -2.3852    2.6225 H   0  0  0  0  0  0  0  0  0  0  0  0
  1  2  2  0  0  0  0
  1  3  2  0  0  0  0
  1  6  1  0  0  0  0
  1  9  1  0  0  0  0
  4  8  1  0  0  0  0
  5  8  2  0  0  0  0
  6 10  1  0  0  0  0
  6 25  1  0  0  0  0
  7 12  1  0  0  0  0
  7 24  2  0  0  0  0
  8 11  1  0  0  0  0
  9 11  2  0  0  0  0
  9 13  1  0  0  0  0
 10 12  1  0  0  0  0
 10 18  2  0  0  0  0
 11 16  1  0  0  0  0
 12 14  2  0  0  0  0
 13 17  2  0  0  0  0
 13 26  1  0  0  0  0
 14 19  1  0  0  0  0
 14 21  1  0  0  0  0
 15 16  2  0  0  0  0
 15 17  1  0  0  0  0
 15 22  1  0  0  0  0
 16 27  1  0  0  0  0
 17 28  1  0  0  0  0
 18 20  1  0  0  0  0
 18 29  1  0  0  0  0
 19 20  2  0  0  0  0
 19 30  1  0  0  0  0
 20 31  1  0  0  0  0
 21 23  2  0  0  0  0
 21 32  1  0  0  0  0
 22 33  1  0  0  0  0
 22 34  1  0  0  0  0
 22 35  1  0  0  0  0
 23 24  1  0  0  0  0
 23 36  1  0  0  0  0
 24 37  1  0  0  0  0
M  CHG  2   4  -1   8   1
M  END
> <PUBCHEM_COMPOUND_CID>
973504

> <PUBCHEM_CONFORMER_RMSD>
0.8

> <PUBCHEM_CONFORMER_DIVERSEORDER>
1
19
4
11
7
13
2
24
3
22
5
6
21
23
25
17
9
15
18
12
16
20
14
8
10

> <PUBCHEM_MMFF94_PARTIAL_CHARGES>
33
1 1.45
10 0.2
11 0.13
12 0.31
13 -0.15
15 -0.14
16 -0.15
17 -0.15
18 -0.15
19 -0.15
2 -0.65
20 -0.15
21 -0.15
22 0.14
23 -0.15
24 0.16
25 0.42
26 0.15
27 0.15
28 0.15
29 0.15
3 -0.65
30 0.15
31 0.15
32 0.15
36 0.15
37 0.15
4 -0.52
5 -0.52
6 -0.76
7 -0.62
8 0.91
9 -0.01

> <PUBCHEM_EFFECTIVE_ROTOR_COUNT>
4

> <PUBCHEM_PHARMACOPHORE_FEATURES>
10
1 2 acceptor
1 3 acceptor
1 4 acceptor
1 4 anion
1 5 acceptor
1 6 donor
1 7 acceptor
6 10 12 14 18 19 20 rings
6 7 12 14 21 23 24 rings
6 9 11 13 15 16 17 rings

> <PUBCHEM_HEAVY_ATOM_COUNT>
24

> <PUBCHEM_ATOM_DEF_STEREO_COUNT>
0

> <PUBCHEM_ATOM_UDEF_STEREO_COUNT>
0

> <PUBCHEM_BOND_DEF_STEREO_COUNT>
0

> <PUBCHEM_BOND_UDEF_STEREO_COUNT>
0

> <PUBCHEM_ISOTOPIC_ATOM_COUNT>
0

> <PUBCHEM_COMPONENT_COUNT>
1

> <PUBCHEM_CACTVS_TAUTO_COUNT>
1

> <PUBCHEM_CONFORMER_ID>
000EDAC000000001

> <PUBCHEM_MMFF94_ENERGY>
91.5417

> <PUBCHEM_FEATURE_SELFOVERLAP>
51.005

> <PUBCHEM_SHAPE_FINGERPRINT>
11578080 2 16343698799181258081
11582403 64 16324196726789947457
11640471 11 14708053357075655351
12156800 1 15463187630915851751
12422481 6 14075923467812120361
128993 33 16081957869860767055
14713325 29 12184698271061568542
14817 1 12147907482034090992
15415430 2 17907869400589231079
15635459 17 18194131934790944455
15664445 248 17245007161260866429
16945 1 18262226712918171345
17492 54 15659479640903419623
20397935 3 18259703380539209494
20600515 1 18046333137985904396
20905425 154 18044087088848150217
21731516 1 17773061715886681943
23184049 29 18115012108768914593
23419403 2 16911970259894712608
23557571 272 18042686276970024219
23559900 14 18190716701604191360
513532 50 16761364598999118797
5262128 65 18410304609208500159
5845 1 11135045659718925156
81228 2 17839181814128231360

> <PUBCHEM_SHAPE_MULTIPOLES>
459.34
5.2
3.34
2.44
2.33
0.2
-0.24
-2.47
1.42
-0.68
0.32
-1.31
-0.7
2.14

> <PUBCHEM_SHAPE_SELFOVERLAP>
1003.862

> <PUBCHEM_SHAPE_VOLUME>
250.1

> <PUBCHEM_COORDINATE_TYPE>
2
5
10

$$$$
