5770966
  -OEChem-01171809413D

 60 61  0     0  0  0  0  0  0999 V2000
   -4.1984    0.5699    1.3429 O   0  0  0  0  0  0  0  0  0  0  0  0
   -1.4711    4.8181   -0.6531 O   0  0  0  0  0  0  0  0  0  0  0  0
   -0.4789    2.8869    1.4170 O   0  0  0  0  0  0  0  0  0  0  0  0
    1.0901   -1.6479    0.0141 O   0  0  0  0  0  0  0  0  0  0  0  0
    3.1085   -1.4484   -2.1734 O   0  0  0  0  0  0  0  0  0  0  0  0
    7.3191   -0.4933   -0.1587 O   0  0  0  0  0  0  0  0  0  0  0  0
   -3.7718   -1.0514   -0.2669 N   0  0  0  0  0  0  0  0  0  0  0  0
   -2.3172    2.1867    0.1763 N   0  0  0  0  0  0  0  0  0  0  0  0
   -4.4192   -2.1604    0.3979 C   0  0  0  0  0  0  0  0  0  0  0  0
   -5.0271   -3.1329   -0.6184 C   0  0  0  0  0  0  0  0  0  0  0  0
   -3.4496   -2.8785    1.3427 C   0  0  0  0  0  0  0  0  0  0  0  0
   -3.9640   -3.9372   -1.3665 C   0  0  0  0  0  0  0  0  0  0  0  0
   -2.3891   -3.6833    0.5912 C   0  0  0  0  0  0  0  0  0  0  0  0
   -3.0184   -4.6514   -0.4056 C   0  0  0  0  0  0  0  0  0  0  0  0
   -3.7160    0.2289    0.2659 C   0  0  0  0  0  0  0  0  0  0  0  0
   -2.9284    1.1670   -0.6237 C   0  0  0  0  0  0  0  0  0  0  0  0
   -3.1082    3.4095    0.3931 C   0  0  0  0  0  0  0  0  0  0  0  0
   -1.0287    2.0277    0.7260 C   0  0  0  0  0  0  0  0  0  0  0  0
   -2.8424    4.4441   -0.6852 C   0  0  0  0  0  0  0  0  0  0  0  0
   -0.3368    0.7309    0.4681 C   0  0  0  0  0  0  0  0  0  0  0  0
    1.0006    0.7031    0.4001 C   0  0  0  0  0  0  0  0  0  0  0  0
   -1.1731    5.7920   -1.6439 C   0  0  0  0  0  0  0  0  0  0  0  0
    1.6953   -0.5913    0.1579 C   0  0  0  0  0  0  0  0  0  0  0  0
    3.1747   -0.5719    0.0588 C   0  0  0  0  0  0  0  0  0  0  0  0
    3.8205   -1.0005   -1.1010 C   0  0  0  0  0  0  0  0  0  0  0  0
    3.9216   -0.1168    1.1454 C   0  0  0  0  0  0  0  0  0  0  0  0
    5.2132   -0.9739   -1.1742 C   0  0  0  0  0  0  0  0  0  0  0  0
    5.3143   -0.0903    1.0721 C   0  0  0  0  0  0  0  0  0  0  0  0
    5.9601   -0.5189   -0.0876 C   0  0  0  0  0  0  0  0  0  0  0  0
    8.0204   -0.0164    0.9887 C   0  0  0  0  0  0  0  0  0  0  0  0
   -5.2349   -1.7433    1.0016 H   0  0  0  0  0  0  0  0  0  0  0  0
   -5.6472   -2.5896   -1.3416 H   0  0  0  0  0  0  0  0  0  0  0  0
   -5.6905   -3.8305   -0.0915 H   0  0  0  0  0  0  0  0  0  0  0  0
   -4.0196   -3.5620    1.9851 H   0  0  0  0  0  0  0  0  0  0  0  0
   -2.9551   -2.1591    2.0064 H   0  0  0  0  0  0  0  0  0  0  0  0
   -4.4538   -4.6755   -2.0119 H   0  0  0  0  0  0  0  0  0  0  0  0
   -3.3879   -3.2785   -2.0267 H   0  0  0  0  0  0  0  0  0  0  0  0
   -1.7134   -3.0006    0.0617 H   0  0  0  0  0  0  0  0  0  0  0  0
   -1.7764   -4.2413    1.3083 H   0  0  0  0  0  0  0  0  0  0  0  0
   -2.2311   -5.1605   -0.9730 H   0  0  0  0  0  0  0  0  0  0  0  0
   -3.5708   -5.4268    0.1394 H   0  0  0  0  0  0  0  0  0  0  0  0
   -3.2889   -1.2373   -1.1407 H   0  0  0  0  0  0  0  0  0  0  0  0
   -3.6257    1.6230   -1.3363 H   0  0  0  0  0  0  0  0  0  0  0  0
   -2.1848    0.6289   -1.2185 H   0  0  0  0  0  0  0  0  0  0  0  0
   -4.1721    3.1541    0.4379 H   0  0  0  0  0  0  0  0  0  0  0  0
   -2.8186    3.8225    1.3662 H   0  0  0  0  0  0  0  0  0  0  0  0
   -3.0870    4.0384   -1.6737 H   0  0  0  0  0  0  0  0  0  0  0  0
   -3.4656    5.3271   -0.5034 H   0  0  0  0  0  0  0  0  0  0  0  0
   -0.9257   -0.1730    0.3797 H   0  0  0  0  0  0  0  0  0  0  0  0
    1.6037    1.5994    0.4953 H   0  0  0  0  0  0  0  0  0  0  0  0
   -0.1111    6.0417   -1.5721 H   0  0  0  0  0  0  0  0  0  0  0  0
   -1.7577    6.7016   -1.4763 H   0  0  0  0  0  0  0  0  0  0  0  0
   -1.3712    5.3947   -2.6442 H   0  0  0  0  0  0  0  0  0  0  0  0
    3.4335    0.2145    2.0586 H   0  0  0  0  0  0  0  0  0  0  0  0
    5.7172   -1.3078   -2.0778 H   0  0  0  0  0  0  0  0  0  0  0  0
    5.8326    0.2735    1.9528 H   0  0  0  0  0  0  0  0  0  0  0  0
    2.1563   -1.4067   -1.9886 H   0  0  0  0  0  0  0  0  0  0  0  0
    7.8526   -0.6598    1.8591 H   0  0  0  0  0  0  0  0  0  0  0  0
    9.0895   -0.0646    0.7572 H   0  0  0  0  0  0  0  0  0  0  0  0
    7.7854    1.0330    1.1966 H   0  0  0  0  0  0  0  0  0  0  0  0
  1 15  2  0  0  0  0
  2 19  1  0  0  0  0
  2 22  1  0  0  0  0
  3 18  2  0  0  0  0
  4 23  2  0  0  0  0
  5 25  1  0  0  0  0
  5 57  1  0  0  0  0
  6 29  1  0  0  0  0
  6 30  1  0  0  0  0
  7  9  1  0  0  0  0
  7 15  1  0  0  0  0
  7 42  1  0  0  0  0
  8 16  1  0  0  0  0
  8 17  1  0  0  0  0
  8 18  1  0  0  0  0
  9 10  1  0  0  0  0
  9 11  1  0  0  0  0
  9 31  1  0  0  0  0
 10 12  1  0  0  0  0
 10 32  1  0  0  0  0
 10 33  1  0  0  0  0
 11 13  1  0  0  0  0
 11 34  1  0  0  0  0
 11 35  1  0  0  0  0
 12 14  1  0  0  0  0
 12 36  1  0  0  0  0
 12 37  1  0  0  0  0
 13 14  1  0  0  0  0
 13 38  1  0  0  0  0
 13 39  1  0  0  0  0
 14 40  1  0  0  0  0
 14 41  1  0  0  0  0
 15 16  1  0  0  0  0
 16 43  1  0  0  0  0
 16 44  1  0  0  0  0
 17 19  1  0  0  0  0
 17 45  1  0  0  0  0
 17 46  1  0  0  0  0
 18 20  1  0  0  0  0
 19 47  1  0  0  0  0
 19 48  1  0  0  0  0
 20 21  2  0  0  0  0
 20 49  1  0  0  0  0
 21 23  1  0  0  0  0
 21 50  1  0  0  0  0
 22 51  1  0  0  0  0
 22 52  1  0  0  0  0
 22 53  1  0  0  0  0
 23 24  1  0  0  0  0
 24 25  2  0  0  0  0
 24 26  1  0  0  0  0
 25 27  1  0  0  0  0
 26 28  2  0  0  0  0
 26 54  1  0  0  0  0
 27 29  2  0  0  0  0
 27 55  1  0  0  0  0
 28 29  1  0  0  0  0
 28 56  1  0  0  0  0
 30 58  1  0  0  0  0
 30 59  1  0  0  0  0
 30 60  1  0  0  0  0
M  END
> <PUBCHEM_COMPOUND_CID>
5770966

> <PUBCHEM_CONFORMER_RMSD>
1.2

> <PUBCHEM_CONFORMER_DIVERSEORDER>
1
108
76
60
136
156
99
59
34
11
151
132
79
29
124
122
152
14
130
21
140
22
66
143
165
145
168
89
36
32
48
149
166
80
171
27
116
41
75
160
95
129
113
71
90
110
118
157
64
73
55
37
44
135
94
13
162
138
83
167
150
9
112
93
142
4
102
81
7
68
19
42
159
78
137
46
163
45
103
146
54
65
114
164
141
62
105
119
170
40
6
154
148
74
144
77
109
121
16
87
91
86
24
115
153
106
61
20
49
39
17
97
96
169
117
126
33
125
123
155
18
43
10
70
50
88
38
53
35
15
67
72
92
82
85
57
47
101
161
111
12
104
26
84
134
28
51
139
131
120
8
69
23
100
56
133
5
25
31
63
127
58
30
2
147
158
98
107
128
3
52

> <PUBCHEM_MMFF94_PARTIAL_CHARGES>
32
1 -0.57
15 0.57
16 0.36
17 0.3
18 0.62
19 0.28
2 -0.56
20 -0.14
21 -0.14
22 0.28
23 0.47
24 0.09
25 0.08
26 -0.15
27 -0.15
28 -0.15
29 0.08
3 -0.57
30 0.28
4 -0.57
42 0.37
49 0.15
5 -0.53
50 0.15
54 0.15
55 0.15
56 0.15
57 0.45
6 -0.36
7 -0.73
8 -0.66
9 0.3

> <PUBCHEM_EFFECTIVE_ROTOR_COUNT>
13.2

> <PUBCHEM_PHARMACOPHORE_FEATURES>
9
1 1 acceptor
1 2 acceptor
1 3 acceptor
1 4 acceptor
1 5 donor
1 6 acceptor
1 7 donor
6 24 25 26 27 28 29 rings
6 9 10 11 12 13 14 rings

> <PUBCHEM_HEAVY_ATOM_COUNT>
30

> <PUBCHEM_ATOM_DEF_STEREO_COUNT>
0

> <PUBCHEM_ATOM_UDEF_STEREO_COUNT>
0

> <PUBCHEM_BOND_DEF_STEREO_COUNT>
1

> <PUBCHEM_BOND_UDEF_STEREO_COUNT>
0

> <PUBCHEM_ISOTOPIC_ATOM_COUNT>
0

> <PUBCHEM_COMPONENT_COUNT>
1

> <PUBCHEM_CACTVS_TAUTO_COUNT>
10

> <PUBCHEM_CONFORMER_ID>
00580ED600000001

> <PUBCHEM_MMFF94_ENERGY>
78.3209

> <PUBCHEM_FEATURE_SELFOVERLAP>
45.675

> <PUBCHEM_SHAPE_FINGERPRINT>
10290309 65 17833554496601103793
10319688 45 18410290341517105369
11049842 53 17183882693763436193
11056379 131 18338519642419837393
11069576 57 17118307241032119631
11315621 246 18340780268797309972
11434127 23 17845653625827376076
11445158 3 16818803571596772821
11488393 25 17758965113883945865
13631057 29 18411696599582691314
14114206 34 18263060224384163239
14117953 113 18272086150102873647
14659021 117 18411412942905058123
14844126 61 18408889533939248059
15463212 79 18044095648918678153
19611394 137 18272930566473972602
21796203 349 17828803782077743763
22956985 138 17834954544154041761
23929065 36 18338220631687529424
255183 313 18197237879399142241
3383291 50 18341619261222579723
4073 2 18200597999823658602
4280585 95 18338230565619856355
44249763 50 18264201410164514812
6700243 42 18055387753637175476

> <PUBCHEM_SHAPE_MULTIPOLES>
572.21
15.14
7.01
1.38
30.98
7.83
-0.28
-10.83
0.89
-14.26
-2.85
0.37
0.04
0.42

> <PUBCHEM_SHAPE_SELFOVERLAP>
1173.703

> <PUBCHEM_SHAPE_VOLUME>
326.8

> <PUBCHEM_COORDINATE_TYPE>
2
5
10

$$$$
