299925
  -OEChem-01171810153D

 60 61  0     1  0  0  0  0  0999 V2000
    7.2228   -0.9144   -1.6360 Cl  0  0  0  0  0  0  0  0  0  0  0  0
    1.1698   -0.3985   -1.6496 O   0  0  0  0  0  0  0  0  0  0  0  0
   -2.7778   -0.4629    0.0881 O   0  0  0  0  0  0  0  0  0  0  0  0
    5.1729   -1.2736    0.3399 O   0  0  0  0  0  0  0  0  0  0  0  0
   -1.1042    0.0582    1.5722 O   0  0  0  0  0  0  0  0  0  0  0  0
    2.5860   -0.5413    0.1852 N   0  0  0  0  0  0  0  0  0  0  0  0
   -0.7978   -1.5112   -0.1097 N   0  0  0  0  0  0  0  0  0  0  0  0
    0.8971   -3.3012   -0.2568 C   0  0  0  0  0  0  0  0  0  0  0  0
    0.5662   -1.8689    0.1816 C   0  0  1  0  0  0  0  0  0  0  0  0
    0.0206   -4.3941    0.3883 C   0  0  0  0  0  0  0  0  0  0  0  0
    3.5700    0.4191   -0.2595 C   0  0  1  0  0  0  0  0  0  0  0  0
    1.4583   -0.8731   -0.5530 C   0  0  0  0  0  0  0  0  0  0  0  0
    0.1824   -4.3536    1.9105 C   0  0  0  0  0  0  0  0  0  0  0  0
    0.3590   -5.7930   -0.1286 C   0  0  0  0  0  0  0  0  0  0  0  0
    3.7190    1.5567    0.7527 C   0  0  0  0  0  0  0  0  0  0  0  0
    4.8704   -0.3602   -0.4287 C   0  0  0  0  0  0  0  0  0  0  0  0
    2.6137    2.5788    0.6550 C   0  0  0  0  0  0  0  0  0  0  0  0
   -1.5198   -0.5779    0.6092 C   0  0  0  0  0  0  0  0  0  0  0  0
    5.7592    0.0783   -1.5728 C   0  0  0  0  0  0  0  0  0  0  0  0
    1.4515    2.4240    1.4109 C   0  0  0  0  0  0  0  0  0  0  0  0
    2.7536    3.6786   -0.1917 C   0  0  0  0  0  0  0  0  0  0  0  0
    0.4295    3.3690    1.3201 C   0  0  0  0  0  0  0  0  0  0  0  0
    1.7316    4.6236   -0.2821 C   0  0  0  0  0  0  0  0  0  0  0  0
    0.5696    4.4688    0.4736 C   0  0  0  0  0  0  0  0  0  0  0  0
   -3.6403    0.4761    0.7401 C   0  0  0  0  0  0  0  0  0  0  0  0
   -4.9724    0.4793    0.0494 C   0  0  0  0  0  0  0  0  0  0  0  0
   -5.9787   -0.3902    0.4704 C   0  0  0  0  0  0  0  0  0  0  0  0
   -5.2043    1.3514   -1.0143 C   0  0  0  0  0  0  0  0  0  0  0  0
   -7.2168   -0.3872   -0.1721 C   0  0  0  0  0  0  0  0  0  0  0  0
   -6.4424    1.3544   -1.6566 C   0  0  0  0  0  0  0  0  0  0  0  0
   -7.4486    0.4850   -1.2357 C   0  0  0  0  0  0  0  0  0  0  0  0
    0.7926   -3.3751   -1.3482 H   0  0  0  0  0  0  0  0  0  0  0  0
    1.9550   -3.5072   -0.0449 H   0  0  0  0  0  0  0  0  0  0  0  0
    0.7268   -1.7473    1.2586 H   0  0  0  0  0  0  0  0  0  0  0  0
   -1.0323   -4.2022    0.1480 H   0  0  0  0  0  0  0  0  0  0  0  0
    3.2784    0.8040   -1.2435 H   0  0  0  0  0  0  0  0  0  0  0  0
    1.2350   -4.4304    2.2034 H   0  0  0  0  0  0  0  0  0  0  0  0
   -0.3563   -5.1857    2.3776 H   0  0  0  0  0  0  0  0  0  0  0  0
   -0.2291   -3.4341    2.3370 H   0  0  0  0  0  0  0  0  0  0  0  0
   -0.2946   -6.5464    0.3234 H   0  0  0  0  0  0  0  0  0  0  0  0
    1.3961   -6.0600    0.1008 H   0  0  0  0  0  0  0  0  0  0  0  0
    0.2287   -5.8443   -1.2146 H   0  0  0  0  0  0  0  0  0  0  0  0
    2.7574   -1.0174    1.0664 H   0  0  0  0  0  0  0  0  0  0  0  0
    4.6788    2.0686    0.6002 H   0  0  0  0  0  0  0  0  0  0  0  0
    3.7675    1.1637    1.7775 H   0  0  0  0  0  0  0  0  0  0  0  0
   -1.2452   -1.9284   -0.9207 H   0  0  0  0  0  0  0  0  0  0  0  0
    6.0549    1.1205   -1.4307 H   0  0  0  0  0  0  0  0  0  0  0  0
    5.2244   -0.0398   -2.5182 H   0  0  0  0  0  0  0  0  0  0  0  0
    1.3318    1.5730    2.0760 H   0  0  0  0  0  0  0  0  0  0  0  0
    3.6530    3.8087   -0.7876 H   0  0  0  0  0  0  0  0  0  0  0  0
   -0.4757    3.2480    1.9080 H   0  0  0  0  0  0  0  0  0  0  0  0
    1.8402    5.4794   -0.9419 H   0  0  0  0  0  0  0  0  0  0  0  0
   -0.2264    5.2042    0.4026 H   0  0  0  0  0  0  0  0  0  0  0  0
   -3.7613    0.1974    1.7944 H   0  0  0  0  0  0  0  0  0  0  0  0
   -3.1924    1.4770    0.7037 H   0  0  0  0  0  0  0  0  0  0  0  0
   -5.8094   -1.0759    1.2964 H   0  0  0  0  0  0  0  0  0  0  0  0
   -4.4275    2.0318   -1.3530 H   0  0  0  0  0  0  0  0  0  0  0  0
   -8.0001   -1.0645    0.1552 H   0  0  0  0  0  0  0  0  0  0  0  0
   -6.6229    2.0331   -2.4851 H   0  0  0  0  0  0  0  0  0  0  0  0
   -8.4125    0.4870   -1.7361 H   0  0  0  0  0  0  0  0  0  0  0  0
  1 19  1  0  0  0  0
  2 12  2  0  0  0  0
  3 18  1  0  0  0  0
  3 25  1  0  0  0  0
  4 16  2  0  0  0  0
  5 18  2  0  0  0  0
  6 11  1  0  0  0  0
  6 12  1  0  0  0  0
  6 43  1  0  0  0  0
  7  9  1  0  0  0  0
  7 18  1  0  0  0  0
  7 46  1  0  0  0  0
  8  9  1  0  0  0  0
  8 10  1  0  0  0  0
  8 32  1  0  0  0  0
  8 33  1  0  0  0  0
  9 12  1  0  0  0  0
  9 34  1  0  0  0  0
 10 13  1  0  0  0  0
 10 14  1  0  0  0  0
 10 35  1  0  0  0  0
 11 15  1  0  0  0  0
 11 16  1  0  0  0  0
 11 36  1  0  0  0  0
 13 37  1  0  0  0  0
 13 38  1  0  0  0  0
 13 39  1  0  0  0  0
 14 40  1  0  0  0  0
 14 41  1  0  0  0  0
 14 42  1  0  0  0  0
 15 17  1  0  0  0  0
 15 44  1  0  0  0  0
 15 45  1  0  0  0  0
 16 19  1  0  0  0  0
 17 20  2  0  0  0  0
 17 21  1  0  0  0  0
 19 47  1  0  0  0  0
 19 48  1  0  0  0  0
 20 22  1  0  0  0  0
 20 49  1  0  0  0  0
 21 23  2  0  0  0  0
 21 50  1  0  0  0  0
 22 24  2  0  0  0  0
 22 51  1  0  0  0  0
 23 24  1  0  0  0  0
 23 52  1  0  0  0  0
 24 53  1  0  0  0  0
 25 26  1  0  0  0  0
 25 54  1  0  0  0  0
 25 55  1  0  0  0  0
 26 27  2  0  0  0  0
 26 28  1  0  0  0  0
 27 29  1  0  0  0  0
 27 56  1  0  0  0  0
 28 30  2  0  0  0  0
 28 57  1  0  0  0  0
 29 31  2  0  0  0  0
 29 58  1  0  0  0  0
 30 31  1  0  0  0  0
 30 59  1  0  0  0  0
 31 60  1  0  0  0  0
M  END
> <PUBCHEM_COMPOUND_CID>
299925

> <PUBCHEM_CONFORMER_RMSD>
1.2

> <PUBCHEM_CONFORMER_DIVERSEORDER>
1
72
67
169
75
25
155
111
204
135
55
60
115
173
39
123
147
206
6
117
36
185
31
109
34
15
46
101
99
103
64
161
8
168
207
159
160
140
193
194
110
125
14
5
90
119
186
18
213
197
61
57
127
78
84
56
141
181
91
29
163
165
212
23
153
202
85
116
211
130
32
157
136
190
94
10
48
53
74
44
89
65
208
12
200
183
133
81
152
121
158
166
58
70
45
49
108
26
214
145
124
77
129
118
184
21
203
88
79
146
93
150
132
38
180
73
120
128
82
216
172
86
54
164
9
106
87
191
83
76
142
63
17
148
113
28
71
149
196
27
16
209
143
98
7
19
199
162
175
92
192
107
178
215
102
33
100
156
51
176
42
96
50
47
40
13
4
62
43
205
114
59
52
37
22
95
97
201
187
2
188
167
105
182
151
195
30
137
11
189
122
104
126
41
177
144
139
112
24
68
69
20
80
154
134
66
198
210
170
138
3
171
131
174
35
179

> <PUBCHEM_MMFF94_PARTIAL_CHARGES>
39
1 -0.29
11 0.36
12 0.57
15 0.14
16 0.45
17 -0.14
18 0.78
19 0.35
2 -0.57
20 -0.15
21 -0.15
22 -0.15
23 -0.15
24 -0.15
25 0.42
26 -0.14
27 -0.15
28 -0.15
29 -0.15
3 -0.43
30 -0.15
31 -0.15
4 -0.57
43 0.37
46 0.37
49 0.15
5 -0.57
50 0.15
51 0.15
52 0.15
53 0.15
56 0.15
57 0.15
58 0.15
59 0.15
6 -0.73
60 0.15
7 -0.73
9 0.36

> <PUBCHEM_EFFECTIVE_ROTOR_COUNT>
14

> <PUBCHEM_PHARMACOPHORE_FEATURES>
8
1 2 acceptor
1 4 acceptor
1 5 acceptor
1 6 donor
1 7 donor
3 10 13 14 hydrophobe
6 17 20 21 22 23 24 rings
6 26 27 28 29 30 31 rings

> <PUBCHEM_HEAVY_ATOM_COUNT>
31

> <PUBCHEM_ATOM_DEF_STEREO_COUNT>
0

> <PUBCHEM_ATOM_UDEF_STEREO_COUNT>
2

> <PUBCHEM_BOND_DEF_STEREO_COUNT>
0

> <PUBCHEM_BOND_UDEF_STEREO_COUNT>
0

> <PUBCHEM_ISOTOPIC_ATOM_COUNT>
0

> <PUBCHEM_COMPONENT_COUNT>
1

> <PUBCHEM_CACTVS_TAUTO_COUNT>
12

> <PUBCHEM_CONFORMER_ID>
0004939500000001

> <PUBCHEM_MMFF94_ENERGY>
65.5509

> <PUBCHEM_FEATURE_SELFOVERLAP>
40.596

> <PUBCHEM_SHAPE_FINGERPRINT>
102385 1 17835803371647172194
10930396 42 18197471023467229688
12166972 35 18060422421380699417
12769317 202 18410004421460058025
13402501 40 18335697252386446549
13636023 20 18127407856625916171
13636023 51 17023183773474268011
13911987 19 18336561446860436502
14068700 675 17846221020961419712
14725015 67 18340476790709033704
15003188 100 18412260670849630877
15439362 3 18268145551066698456
15484559 13 18413102844800525783
16728300 4 17463377587830052618
21033648 29 18262230144222631000
21968339 14 18190442884485662103
24893992 56 18410855469667727411
249057 3 18202562903768412383
25223398 141 17896615062099047243
283562 15 18198354948890107920
3178227 256 18410584993696190731
484989 97 18338244885183506035
6086070 43 18410292544624643755

> <PUBCHEM_SHAPE_MULTIPOLES>
606.4
15.81
6.63
1.46
20.35
3.83
-0.09
-3.04
-9.42
-4.78
2.11
-0.23
0.03
1.7

> <PUBCHEM_SHAPE_SELFOVERLAP>
1237.707

> <PUBCHEM_SHAPE_VOLUME>
349

> <PUBCHEM_COORDINATE_TYPE>
2
5
10

$$$$
