6165705
  -OEChem-01171809263D

 43 46  0     0  0  0  0  0  0999 V2000
   -0.2981   -3.8682    0.5258 S   0  0  0  0  0  0  0  0  0  0  0  0
    0.1313   -1.3946    2.1191 O   0  0  0  0  0  0  0  0  0  0  0  0
   -5.1038    2.6495   -0.3593 O   0  0  0  0  0  0  0  0  0  0  0  0
   -5.8941    0.1414    0.5978 O   0  0  0  0  0  0  0  0  0  0  0  0
    2.8232   -0.4113    0.5470 N   0  0  0  0  0  0  0  0  0  0  0  0
    2.2670    1.6642   -0.2100 N   0  0  0  0  0  0  0  0  0  0  0  0
    1.7671    0.4503    0.2571 C   0  0  0  0  0  0  0  0  0  0  0  0
    4.0102    0.2709    0.2574 C   0  0  0  0  0  0  0  0  0  0  0  0
    3.6630    1.5669   -0.2146 C   0  0  0  0  0  0  0  0  0  0  0  0
    0.4682    0.1562    0.4054 C   0  0  0  0  0  0  0  0  0  0  0  0
    5.3212   -0.1285    0.3684 C   0  0  0  0  0  0  0  0  0  0  0  0
    4.6220    2.4806   -0.5834 C   0  0  0  0  0  0  0  0  0  0  0  0
   -0.5949    1.0893    0.0892 C   0  0  0  0  0  0  0  0  0  0  0  0
    0.1905   -1.2285    0.8993 C   0  0  0  0  0  0  0  0  0  0  0  0
   -1.9073    0.8577    0.2146 C   0  0  0  0  0  0  0  0  0  0  0  0
    6.3025    0.7955   -0.0041 C   0  0  0  0  0  0  0  0  0  0  0  0
    5.9579    2.0816   -0.4736 C   0  0  0  0  0  0  0  0  0  0  0  0
    0.0147   -2.3174   -0.0733 C   0  0  0  0  0  0  0  0  0  0  0  0
   -2.8703    1.8884   -0.1414 C   0  0  0  0  0  0  0  0  0  0  0  0
   -2.3800   -0.4259    0.7072 C   0  0  0  0  0  0  0  0  0  0  0  0
   -4.1887    1.6758   -0.0235 C   0  0  0  0  0  0  0  0  0  0  0  0
   -3.6892   -0.6745    0.8382 C   0  0  0  0  0  0  0  0  0  0  0  0
    0.0729   -2.2321   -1.4200 C   0  0  0  0  0  0  0  0  0  0  0  0
   -4.6934    0.3637    0.4806 C   0  0  0  0  0  0  0  0  0  0  0  0
   -0.1507   -3.5079   -2.0136 C   0  0  0  0  0  0  0  0  0  0  0  0
   -0.3659   -4.4874   -1.0693 C   0  0  0  0  0  0  0  0  0  0  0  0
   -5.4749    2.5442   -1.7208 C   0  0  0  0  0  0  0  0  0  0  0  0
    2.7381   -1.3478    0.9013 H   0  0  0  0  0  0  0  0  0  0  0  0
    1.7251    2.4619   -0.4902 H   0  0  0  0  0  0  0  0  0  0  0  0
    5.5911   -1.1144    0.7280 H   0  0  0  0  0  0  0  0  0  0  0  0
    4.3629    3.4690   -0.9441 H   0  0  0  0  0  0  0  0  0  0  0  0
   -0.2910    2.0652   -0.2828 H   0  0  0  0  0  0  0  0  0  0  0  0
    7.3520    0.5206    0.0680 H   0  0  0  0  0  0  0  0  0  0  0  0
    6.7482    2.7733   -0.7544 H   0  0  0  0  0  0  0  0  0  0  0  0
   -2.5049    2.8441   -0.5067 H   0  0  0  0  0  0  0  0  0  0  0  0
   -1.8524   -1.2460    1.1220 H   0  0  0  0  0  0  0  0  0  0  0  0
   -4.0574   -1.6112    1.2424 H   0  0  0  0  0  0  0  0  0  0  0  0
    0.2610   -1.3313   -1.9894 H   0  0  0  0  0  0  0  0  0  0  0  0
   -0.1538   -3.6977   -3.0791 H   0  0  0  0  0  0  0  0  0  0  0  0
   -0.5598   -5.5369   -1.2398 H   0  0  0  0  0  0  0  0  0  0  0  0
   -6.2161    3.3205   -1.9329 H   0  0  0  0  0  0  0  0  0  0  0  0
   -5.9332    1.5726   -1.9362 H   0  0  0  0  0  0  0  0  0  0  0  0
   -4.6161    2.7091   -2.3809 H   0  0  0  0  0  0  0  0  0  0  0  0
  1 18  1  0  0  0  0
  1 26  1  0  0  0  0
  2 14  2  0  0  0  0
  3 21  1  0  0  0  0
  3 27  1  0  0  0  0
  4 24  2  0  0  0  0
  5  7  1  0  0  0  0
  5  8  1  0  0  0  0
  5 28  1  0  0  0  0
  6  7  1  0  0  0  0
  6  9  1  0  0  0  0
  6 29  1  0  0  0  0
  7 10  2  0  0  0  0
  8  9  1  0  0  0  0
  8 11  2  0  0  0  0
  9 12  2  0  0  0  0
 10 13  1  0  0  0  0
 10 14  1  0  0  0  0
 11 16  1  0  0  0  0
 11 30  1  0  0  0  0
 12 17  1  0  0  0  0
 12 31  1  0  0  0  0
 13 15  2  0  0  0  0
 13 32  1  0  0  0  0
 14 18  1  0  0  0  0
 15 19  1  0  0  0  0
 15 20  1  0  0  0  0
 16 17  2  0  0  0  0
 16 33  1  0  0  0  0
 17 34  1  0  0  0  0
 18 23  2  0  0  0  0
 19 21  2  0  0  0  0
 19 35  1  0  0  0  0
 20 22  2  0  0  0  0
 20 36  1  0  0  0  0
 21 24  1  0  0  0  0
 22 24  1  0  0  0  0
 22 37  1  0  0  0  0
 23 25  1  0  0  0  0
 23 38  1  0  0  0  0
 25 26  2  0  0  0  0
 25 39  1  0  0  0  0
 26 40  1  0  0  0  0
 27 41  1  0  0  0  0
 27 42  1  0  0  0  0
 27 43  1  0  0  0  0
M  END
> <PUBCHEM_COMPOUND_CID>
6165705

> <PUBCHEM_CONFORMER_RMSD>
0.8

> <PUBCHEM_CONFORMER_DIVERSEORDER>
1
9
14
8
15
4
6
17
3
7
2
16
11
12
19
10
13
18
5

> <PUBCHEM_MMFF94_PARTIAL_CHARGES>
39
1 -0.08
10 0.01
11 -0.15
12 -0.15
13 -0.15
14 0.64
16 -0.15
17 -0.15
18 -0.05
19 -0.15
2 -0.57
20 -0.15
21 0.09
22 -0.14
23 -0.15
24 0.54
25 -0.15
26 -0.11
27 0.28
28 0.4
29 0.4
3 -0.36
30 0.15
31 0.15
32 0.15
33 0.15
34 0.15
35 0.15
36 0.15
37 0.15
38 0.15
39 0.15
4 -0.57
40 0.15
5 -0.6
6 -0.6
7 0.2
8 0.1
9 0.1

> <PUBCHEM_EFFECTIVE_ROTOR_COUNT>
4.4

> <PUBCHEM_PHARMACOPHORE_FEATURES>
11
1 2 acceptor
1 3 acceptor
1 4 acceptor
1 5 cation
1 5 donor
1 6 cation
1 6 donor
5 1 18 23 25 26 rings
5 5 6 7 8 9 rings
6 15 19 20 21 22 24 rings
6 8 9 11 12 16 17 rings

> <PUBCHEM_HEAVY_ATOM_COUNT>
27

> <PUBCHEM_ATOM_DEF_STEREO_COUNT>
0

> <PUBCHEM_ATOM_UDEF_STEREO_COUNT>
0

> <PUBCHEM_BOND_DEF_STEREO_COUNT>
1

> <PUBCHEM_BOND_UDEF_STEREO_COUNT>
0

> <PUBCHEM_ISOTOPIC_ATOM_COUNT>
0

> <PUBCHEM_COMPONENT_COUNT>
1

> <PUBCHEM_CACTVS_TAUTO_COUNT>
6

> <PUBCHEM_CONFORMER_ID>
005E14C900000001

> <PUBCHEM_MMFF94_ENERGY>
134.2024

> <PUBCHEM_FEATURE_SELFOVERLAP>
56.042

> <PUBCHEM_SHAPE_FINGERPRINT>
10369192 42 18408609166895560997
10764073 3 17315061161065513170
11421498 54 17632303307288948673
11488393 25 18126578811937455987
11578080 2 16083608112281281799
11991303 11 18339363075265584118
12597179 24 17918003788600018574
12760667 363 8790616874761087928
12788726 201 18122050172830065570
12977781 61 17750540406510159883
13149001 5 17202194308219976354
13257819 101 17532357700319017357
133893 2 17770801012854212219
13540713 4 18044389227846244057
13911987 19 18343586248078303881
1454969 45 18340766044451538431
14713325 29 18196374942432593631
14790565 3 18410015433461494456
15042514 8 18122351447510889811
15131766 46 15142948728150599564
15276724 80 17910395322395759190
15664445 248 17692818086013580655
15878777 1 10819135889802669474
15927050 60 18411982472944380470
17539 30 17912076458653301046
17980427 23 17749114404621909909
17980427 26 17677032560756088754
18681886 176 18409443717363842768
20197701 30 18410855451717718258
20602899 9 17775015612732569402
21033648 29 18341883126015537104
21033650 10 16628311803890442352
23559900 14 18049440345034892011
249057 3 18411984664009729780
2838139 119 18334289881333260076
3298306 158 18340773658679357686
3411729 13 18263926544883126371
376196 1 18260541187230914553
38695281 34 18411979126784028911
4015057 19 16199867396853346928
4017518 198 17988644048548770822
4073 2 17313394473827074440
44249763 50 17984701384297522288
5104073 3 17749393599097976921
59755656 215 18190180074935731380
59755656 520 18411979199846010966
6669772 16 18130514050379711910
9658208 31 18129652119051409872

> <PUBCHEM_SHAPE_MULTIPOLES>
531.93
12.69
4.47
1.29
5.24
5.38
0.28
-14.34
1.09
-1.94
2.18
-0.77
0.78
0.47

> <PUBCHEM_SHAPE_SELFOVERLAP>
1169.816

> <PUBCHEM_SHAPE_VOLUME>
288.1

> <PUBCHEM_COORDINATE_TYPE>
2
5
10

$$$$
