15945553
  -OEChem-01171809393D

 57 60  0     0  0  0  0  0  0999 V2000
   -7.6166    1.6779    1.9097 S   0  0  0  0  0  0  0  0  0  0  0  0
   -5.3373   -0.6314   -1.4129 O   0  0  0  0  0  0  0  0  0  0  0  0
    7.9687   -1.2381    0.1593 O   0  0  0  0  0  0  0  0  0  0  0  0
    6.3010    3.2332    0.0345 O   0  0  0  0  0  0  0  0  0  0  0  0
    1.0986   -0.5471   -0.3534 N   0  0  0  0  0  0  0  0  0  0  0  0
    0.4332   -2.6065    0.6820 N   0  0  0  0  0  0  0  0  0  0  0  0
    2.2206    0.2075   -0.5363 N   0  0  0  0  0  0  0  0  0  0  0  0
   -5.6528    0.5188    0.6162 N   0  0  0  0  0  0  0  0  0  0  0  0
   -7.8428    0.5151   -0.3880 N   0  0  0  0  0  0  0  0  0  0  0  0
   -1.1981   -1.1455   -0.5357 C   0  0  0  0  0  0  0  0  0  0  0  0
   -0.2053   -0.2692   -0.8066 C   0  0  0  0  0  0  0  0  0  0  0  0
   -2.6315   -1.0429   -0.9603 C   0  0  0  0  0  0  0  0  0  0  0  0
   -0.7737   -2.3561    0.2696 C   0  0  0  0  0  0  0  0  0  0  0  0
    1.3914   -1.6991    0.3705 C   0  0  0  0  0  0  0  0  0  0  0  0
   -3.4703   -0.2957    0.0693 C   0  0  0  0  0  0  0  0  0  0  0  0
    3.1917   -0.4742    0.0674 C   0  0  0  0  0  0  0  0  0  0  0  0
    2.7387   -1.6635    0.6474 C   0  0  0  0  0  0  0  0  0  0  0  0
   -0.3808    1.0182   -1.5690 C   0  0  0  0  0  0  0  0  0  0  0  0
   -1.8320   -3.3766    0.6326 C   0  0  0  0  0  0  0  0  0  0  0  0
    4.5401    0.0291    0.0775 C   0  0  0  0  0  0  0  0  0  0  0  0
   -4.9287   -0.1689   -0.3532 C   0  0  0  0  0  0  0  0  0  0  0  0
    4.7684    1.4031    0.0502 C   0  0  0  0  0  0  0  0  0  0  0  0
    5.6124   -0.8596    0.1142 C   0  0  0  0  0  0  0  0  0  0  0  0
    6.9193   -0.3719    0.1238 C   0  0  0  0  0  0  0  0  0  0  0  0
    6.0752    1.8910    0.0599 C   0  0  0  0  0  0  0  0  0  0  0  0
    7.1507    1.0034    0.0967 C   0  0  0  0  0  0  0  0  0  0  0  0
   -7.0160    0.8203    0.5649 C   0  0  0  0  0  0  0  0  0  0  0  0
   -9.0886    1.0001   -0.0405 C   0  0  0  0  0  0  0  0  0  0  0  0
   -9.1631    1.6588    1.1688 C   0  0  0  0  0  0  0  0  0  0  0  0
    9.2781   -0.6715    0.1672 C   0  0  0  0  0  0  0  0  0  0  0  0
    7.6614    3.6630    0.0464 C   0  0  0  0  0  0  0  0  0  0  0  0
  -10.2120    0.7784   -0.9721 C   0  0  0  0  0  0  0  0  0  0  0  0
   -2.6978   -0.5291   -1.9276 H   0  0  0  0  0  0  0  0  0  0  0  0
   -3.0610   -2.0293   -1.1653 H   0  0  0  0  0  0  0  0  0  0  0  0
   -3.4411   -0.7989    1.0422 H   0  0  0  0  0  0  0  0  0  0  0  0
   -3.0751    0.7181    0.2128 H   0  0  0  0  0  0  0  0  0  0  0  0
    3.2913   -2.4085    1.2028 H   0  0  0  0  0  0  0  0  0  0  0  0
    0.1836    0.9849   -2.5072 H   0  0  0  0  0  0  0  0  0  0  0  0
   -0.0205    1.8662   -0.9759 H   0  0  0  0  0  0  0  0  0  0  0  0
   -1.4231    1.2315   -1.8187 H   0  0  0  0  0  0  0  0  0  0  0  0
   -2.1726   -3.8936   -0.2685 H   0  0  0  0  0  0  0  0  0  0  0  0
   -2.6754   -2.9059    1.1401 H   0  0  0  0  0  0  0  0  0  0  0  0
   -1.4122   -4.1260    1.3119 H   0  0  0  0  0  0  0  0  0  0  0  0
    3.9464    2.1153    0.0298 H   0  0  0  0  0  0  0  0  0  0  0  0
    5.4584   -1.9361    0.1254 H   0  0  0  0  0  0  0  0  0  0  0  0
   -5.1741    0.8461    1.4515 H   0  0  0  0  0  0  0  0  0  0  0  0
    8.1623    1.3810    0.1042 H   0  0  0  0  0  0  0  0  0  0  0  0
  -10.0213    2.1162    1.6408 H   0  0  0  0  0  0  0  0  0  0  0  0
    9.4834   -0.1145   -0.7534 H   0  0  0  0  0  0  0  0  0  0  0  0
    9.9880   -1.5049    0.1968 H   0  0  0  0  0  0  0  0  0  0  0  0
    9.4550   -0.0741    1.0682 H   0  0  0  0  0  0  0  0  0  0  0  0
    7.6521    4.7578    0.0223 H   0  0  0  0  0  0  0  0  0  0  0  0
    8.1980    3.3321   -0.8494 H   0  0  0  0  0  0  0  0  0  0  0  0
    8.1696    3.3720    0.9721 H   0  0  0  0  0  0  0  0  0  0  0  0
  -11.1369    1.2377   -0.6086 H   0  0  0  0  0  0  0  0  0  0  0  0
   -9.9837    1.2080   -1.9526 H   0  0  0  0  0  0  0  0  0  0  0  0
  -10.3932   -0.2934   -1.1002 H   0  0  0  0  0  0  0  0  0  0  0  0
  1 27  1  0  0  0  0
  1 29  1  0  0  0  0
  2 21  2  0  0  0  0
  3 24  1  0  0  0  0
  3 30  1  0  0  0  0
  4 25  1  0  0  0  0
  4 31  1  0  0  0  0
  5  7  1  0  0  0  0
  5 11  1  0  0  0  0
  5 14  1  0  0  0  0
  6 13  2  0  0  0  0
  6 14  1  0  0  0  0
  7 16  2  0  0  0  0
  8 21  1  0  0  0  0
  8 27  1  0  0  0  0
  8 46  1  0  0  0  0
  9 27  2  0  0  0  0
  9 28  1  0  0  0  0
 10 11  2  0  0  0  0
 10 12  1  0  0  0  0
 10 13  1  0  0  0  0
 11 18  1  0  0  0  0
 12 15  1  0  0  0  0
 12 33  1  0  0  0  0
 12 34  1  0  0  0  0
 13 19  1  0  0  0  0
 14 17  2  0  0  0  0
 15 21  1  0  0  0  0
 15 35  1  0  0  0  0
 15 36  1  0  0  0  0
 16 17  1  0  0  0  0
 16 20  1  0  0  0  0
 17 37  1  0  0  0  0
 18 38  1  0  0  0  0
 18 39  1  0  0  0  0
 18 40  1  0  0  0  0
 19 41  1  0  0  0  0
 19 42  1  0  0  0  0
 19 43  1  0  0  0  0
 20 22  2  0  0  0  0
 20 23  1  0  0  0  0
 22 25  1  0  0  0  0
 22 44  1  0  0  0  0
 23 24  2  0  0  0  0
 23 45  1  0  0  0  0
 24 26  1  0  0  0  0
 25 26  2  0  0  0  0
 26 47  1  0  0  0  0
 28 29  2  0  0  0  0
 28 32  1  0  0  0  0
 29 48  1  0  0  0  0
 30 49  1  0  0  0  0
 30 50  1  0  0  0  0
 30 51  1  0  0  0  0
 31 52  1  0  0  0  0
 31 53  1  0  0  0  0
 31 54  1  0  0  0  0
 32 55  1  0  0  0  0
 32 56  1  0  0  0  0
 32 57  1  0  0  0  0
M  END
> <PUBCHEM_COMPOUND_CID>
15945553

> <PUBCHEM_CONFORMER_RMSD>
1

> <PUBCHEM_CONFORMER_DIVERSEORDER>
1
45
70
28
5
8
76
39
16
2
17
53
27
68
57
31
54
32
41
44
20
37
72
36
66
71
43
62
55
49
12
38
34
6
13
64
9
61
7
77
11
30
23
58
40
65
73
24
75
3
63
33
74
48
46
25
19
42
14
52
69
67
10
18
21
4
22
60
51
15
59
35
56
47
29
26
50

> <PUBCHEM_MMFF94_PARTIAL_CHARGES>
38
1 -0.08
10 -0.12
11 -0.17
12 0.14
13 0.37
14 -0.03
15 0.06
16 0.23
17 -0.15
18 0.14
19 0.06
2 -0.57
20 0.05
21 0.57
22 -0.15
23 -0.15
24 0.08
25 0.08
26 -0.15
27 0.44
28 0.05
29 -0.11
3 -0.36
30 0.28
31 0.28
32 0.18
37 0.15
4 -0.36
44 0.15
45 0.15
46 0.37
47 0.15
48 0.15
5 0.6
6 -0.58
7 -0.71
8 -0.49
9 -0.57

> <PUBCHEM_EFFECTIVE_ROTOR_COUNT>
8

> <PUBCHEM_PHARMACOPHORE_FEATURES>
10
1 2 acceptor
1 3 acceptor
1 4 acceptor
1 6 acceptor
1 7 acceptor
1 8 donor
5 1 9 27 28 29 rings
5 5 7 14 16 17 rings
6 20 22 23 24 25 26 rings
6 5 6 10 11 13 14 rings

> <PUBCHEM_HEAVY_ATOM_COUNT>
32

> <PUBCHEM_ATOM_DEF_STEREO_COUNT>
0

> <PUBCHEM_ATOM_UDEF_STEREO_COUNT>
0

> <PUBCHEM_BOND_DEF_STEREO_COUNT>
0

> <PUBCHEM_BOND_UDEF_STEREO_COUNT>
0

> <PUBCHEM_ISOTOPIC_ATOM_COUNT>
0

> <PUBCHEM_COMPONENT_COUNT>
1

> <PUBCHEM_CACTVS_TAUTO_COUNT>
3

> <PUBCHEM_CONFORMER_ID>
00F34F5100000001

> <PUBCHEM_MMFF94_ENERGY>
90.225

> <PUBCHEM_FEATURE_SELFOVERLAP>
50.875

> <PUBCHEM_SHAPE_FINGERPRINT>
10 15 17749107769161044563
10165383 225 18409165493650708826
106641 1 13262402168111316334
10904742 90 18341894078704062519
11135609 127 17131823314239273168
11386260 185 14045731651601990490
12539765 74 18131077025722992535
13540713 4 17098324312786859415
14849402 71 18411982494751097649
15064986 266 18262804098441875470
15461852 350 17275099553752791831
15840311 113 18408044022197949156
1818759 1 7925909296966298289
20105231 36 16950283980032451690
20505436 4 18272364253435519207
20721686 124 18131073706478794150
21591340 7 18413386549508327863
21792934 111 17894909624600008196
22224240 67 18187083945377630651
23559900 14 18262510525148277866
23576562 1 14332542571733715025
24771293 8 18334574697936900501
24893992 56 18343016718893764451
3092352 35 18059851758230465031
3178227 256 17530969076703307126
3711267 37 18202013101301280113
4173938 188 18334864957445882939
4403749 210 18260552268974908915
4516262 110 18411694362690629367
5104073 3 17968649553887263498
5219985 9 11169916087300710615
54039377 194 8646478623575781993
5758199 1 18409449176910418571
5911458 16 18202287991992561065
59682541 35 17821733840817417553
6698420 124 18408605876676390074
9953998 17 17603590738399237363
9962374 69 8790590486307752931

> <PUBCHEM_SHAPE_MULTIPOLES>
619.88
33.22
2.95
1.1
31.76
0.59
-0.03
23.83
-4
-4.13
-0.7
2.23
0.2
-1.54

> <PUBCHEM_SHAPE_SELFOVERLAP>
1326.191

> <PUBCHEM_SHAPE_VOLUME>
347.9

> <PUBCHEM_COORDINATE_TYPE>
2
5
10

$$$$
