5405091
  -OEChem-01171809323D

 30 31  0     0  0  0  0  0  0999 V2000
   -2.7091    0.5190   -1.0230 S   0  0  0  0  0  0  0  0  0  0  0  0
    2.3648    2.8276   -0.4485 O   0  0  0  0  0  0  0  0  0  0  0  0
   -4.2319   -2.7801    0.2814 O   0  5  0  0  0  0  0  0  0  0  0  0
   -3.9117   -2.0017   -1.7507 O   0  0  0  0  0  0  0  0  0  0  0  0
    4.3239   -0.8721   -0.6350 N   0  0  0  0  0  0  0  0  0  0  0  0
    0.3521    1.7721   -0.0075 N   0  0  0  0  0  0  0  0  0  0  0  0
   -0.3507    2.9228   -0.1328 N   0  0  0  0  0  0  0  0  0  0  0  0
   -3.8239   -1.8739   -0.4975 N   0  3  0  0  0  0  0  0  0  0  0  0
    2.4316    0.5152   -0.0524 C   0  0  0  0  0  0  0  0  0  0  0  0
    3.7910   -1.8430    0.1402 C   0  0  0  0  0  0  0  0  0  0  0  0
   -2.2355    1.4649    0.2952 C   0  0  0  0  0  0  0  0  0  0  0  0
    1.9153   -0.5074    0.7357 C   0  0  0  0  0  0  0  0  0  0  0  0
    2.6018   -1.7121    0.8392 C   0  0  0  0  0  0  0  0  0  0  0  0
   -2.4702    0.9146    1.5041 C   0  0  0  0  0  0  0  0  0  0  0  0
    3.6286    0.2847   -0.7112 C   0  0  0  0  0  0  0  0  0  0  0  0
   -3.2644   -0.7048    0.0383 C   0  0  0  0  0  0  0  0  0  0  0  0
    1.7385    1.7853   -0.1801 C   0  0  0  0  0  0  0  0  0  0  0  0
   -3.0772   -0.3665    1.3605 C   0  0  0  0  0  0  0  0  0  0  0  0
    4.5545   -3.1222    0.2286 C   0  0  0  0  0  0  0  0  0  0  0  0
   -1.6275    2.7775    0.0155 C   0  0  0  0  0  0  0  0  0  0  0  0
    0.9967   -0.3951    1.3039 H   0  0  0  0  0  0  0  0  0  0  0  0
    2.2121   -2.5154    1.4553 H   0  0  0  0  0  0  0  0  0  0  0  0
   -2.2322    1.3773    2.4531 H   0  0  0  0  0  0  0  0  0  0  0  0
    4.0854    1.0385   -1.3454 H   0  0  0  0  0  0  0  0  0  0  0  0
   -3.3571   -0.9985    2.1944 H   0  0  0  0  0  0  0  0  0  0  0  0
   -2.2963    3.6501   -0.0631 H   0  0  0  0  0  0  0  0  0  0  0  0
    5.4675   -3.0780   -0.3744 H   0  0  0  0  0  0  0  0  0  0  0  0
    4.8441   -3.3218    1.2652 H   0  0  0  0  0  0  0  0  0  0  0  0
    3.9467   -3.9545   -0.1401 H   0  0  0  0  0  0  0  0  0  0  0  0
   -0.1358    0.8988    0.1404 H   0  0  0  0  0  0  0  0  0  0  0  0
  1 11  1  0  0  0  0
  1 16  1  0  0  0  0
  2 17  2  0  0  0  0
  3  8  1  0  0  0  0
  4  8  2  0  0  0  0
  5 10  2  0  0  0  0
  5 15  1  0  0  0  0
  6  7  1  0  0  0  0
  6 17  1  0  0  0  0
  6 30  1  0  0  0  0
  7 20  2  0  0  0  0
  8 16  1  0  0  0  0
  9 12  1  0  0  0  0
  9 15  2  0  0  0  0
  9 17  1  0  0  0  0
 10 13  1  0  0  0  0
 10 19  1  0  0  0  0
 11 14  2  0  0  0  0
 11 20  1  0  0  0  0
 12 13  2  0  0  0  0
 12 21  1  0  0  0  0
 13 22  1  0  0  0  0
 14 18  1  0  0  0  0
 14 23  1  0  0  0  0
 15 24  1  0  0  0  0
 16 18  2  0  0  0  0
 18 25  1  0  0  0  0
 19 27  1  0  0  0  0
 19 28  1  0  0  0  0
 19 29  1  0  0  0  0
 20 26  1  0  0  0  0
M  CHG  2   3  -1   8   1
M  END
> <PUBCHEM_COMPOUND_CID>
5405091

> <PUBCHEM_CONFORMER_RMSD>
0.8

> <PUBCHEM_CONFORMER_DIVERSEORDER>
2
12
8
5
10
3
11
7
6
9
1
4

> <PUBCHEM_MMFF94_PARTIAL_CHARGES>
27
1 -0.08
10 0.17
11 -0.05
12 -0.15
13 -0.15
14 -0.15
15 0.16
16 0.12
17 0.54
18 -0.15
19 0.14
2 -0.57
20 0.47
21 0.15
22 0.15
23 0.15
24 0.15
25 0.15
26 0.06
3 -0.52
30 0.37
4 -0.52
5 -0.62
6 -0.37
7 -0.51
8 0.96
9 0.09

> <PUBCHEM_EFFECTIVE_ROTOR_COUNT>
5

> <PUBCHEM_PHARMACOPHORE_FEATURES>
9
1 2 acceptor
1 3 acceptor
1 3 anion
1 4 acceptor
1 5 acceptor
1 6 donor
1 7 acceptor
5 1 11 14 16 18 rings
6 5 9 10 12 13 15 rings

> <PUBCHEM_HEAVY_ATOM_COUNT>
20

> <PUBCHEM_ATOM_DEF_STEREO_COUNT>
0

> <PUBCHEM_ATOM_UDEF_STEREO_COUNT>
0

> <PUBCHEM_BOND_DEF_STEREO_COUNT>
1

> <PUBCHEM_BOND_UDEF_STEREO_COUNT>
0

> <PUBCHEM_ISOTOPIC_ATOM_COUNT>
0

> <PUBCHEM_COMPONENT_COUNT>
1

> <PUBCHEM_CACTVS_TAUTO_COUNT>
2

> <PUBCHEM_CONFORMER_ID>
005279A300000002

> <PUBCHEM_MMFF94_ENERGY>
59.3502

> <PUBCHEM_FEATURE_SELFOVERLAP>
45.758

> <PUBCHEM_SHAPE_FINGERPRINT>
10616163 171 18193559956647390402
10764073 3 17609529067583626841
10968037 57 18343024354776144383
11552529 35 18059289838672997042
11578080 2 17987782082022629753
12553582 1 18335424538693925456
12555020 224 18192702355132368453
12596599 1 18058748925954165083
12633257 1 17703803474442967217
12824470 246 18201443639986974905
13583140 156 14117514294670692892
13911987 19 17539140857644032109
14429380 30 18407760348209051970
14576447 43 18410016554853510534
14767858 380 18117017631490809916
14863182 85 17903641022677782500
15352361 1 18410291406400066767
15537594 2 18265636366673018706
17974551 9 15191104828410865199
20291156 8 18412263956204011593
20621476 51 18271237227466016247
20775530 9 18343301504567904707
21315764 21 14997671084889302723
21634736 98 18409169926399407828
221490 88 18261405395123134112
23379529 103 17982181015656991422
23503958 8 18060420179322991531
235170 7 15864080874693937530
23559900 14 18338223899694125576
23728640 28 18051975823048714841
4283 87 18261956237210456706
46194498 28 17099172341373251239
556388 4 18266738163445182583
88748 71 18408326600944357179
9709674 26 18260551155528053729

> <PUBCHEM_SHAPE_MULTIPOLES>
377.91
9.52
3.7
1.14
3.57
0.09
0.01
-8.42
-0.9
-0.42
-0.39
-1
-0.32
-1.22

> <PUBCHEM_SHAPE_SELFOVERLAP>
794.938

> <PUBCHEM_SHAPE_VOLUME>
214.8

> <PUBCHEM_COORDINATE_TYPE>
2
5
10

$$$$
