5738596
  -OEChem-01171809433D

 50 53  0     0  0  0  0  0  0999 V2000
    3.9387   -1.0546   -0.1533 S   0  0  0  0  0  0  0  0  0  0  0  0
    0.8384    2.3531    0.4055 O   0  0  0  0  0  0  0  0  0  0  0  0
   -1.4583   -4.3236   -0.4711 O   0  0  0  0  0  0  0  0  0  0  0  0
    0.5499   -3.7787    0.5274 O   0  0  0  0  0  0  0  0  0  0  0  0
    1.6193    0.1130    0.1675 N   0  0  0  0  0  0  0  0  0  0  0  0
    1.0628   -1.1592    0.1341 N   0  0  0  0  0  0  0  0  0  0  0  0
   -2.9520    0.2050    0.6416 N   0  0  0  0  0  0  0  0  0  0  0  0
    3.5898    1.4917    0.0642 N   0  0  0  0  0  0  0  0  0  0  0  0
   -0.5843    0.4032    0.4129 C   0  0  0  0  0  0  0  0  0  0  0  0
   -0.2251   -1.0078    0.2754 C   0  0  0  0  0  0  0  0  0  0  0  0
   -1.7924    0.9380    0.5752 C   0  0  0  0  0  0  0  0  0  0  0  0
    0.6887    1.1483    0.3356 C   0  0  0  0  0  0  0  0  0  0  0  0
   -1.2079   -2.1278    0.2963 C   0  0  0  0  0  0  0  0  0  0  0  0
    2.9650    0.3375    0.0462 C   0  0  0  0  0  0  0  0  0  0  0  0
   -1.9687    2.4312    0.6997 C   0  0  0  0  0  0  0  0  0  0  0  0
   -4.2339    0.5857    0.2467 C   0  0  0  0  0  0  0  0  0  0  0  0
    5.3396   -0.0520   -0.2262 C   0  0  0  0  0  0  0  0  0  0  0  0
    4.9528    1.2847   -0.0909 C   0  0  0  0  0  0  0  0  0  0  0  0
   -0.5761   -3.4858    0.1485 C   0  0  0  0  0  0  0  0  0  0  0  0
   -5.3639    0.0641    0.8942 C   0  0  0  0  0  0  0  0  0  0  0  0
   -4.4161    1.4958   -0.8055 C   0  0  0  0  0  0  0  0  0  0  0  0
   -6.8140    1.3496   -0.5488 C   0  0  0  0  0  0  0  0  0  0  0  0
    6.6841   -0.4218   -0.3913 C   0  0  0  0  0  0  0  0  0  0  0  0
    5.9488    2.2847   -0.1223 C   0  0  0  0  0  0  0  0  0  0  0  0
   -6.6465    0.4438    0.4987 C   0  0  0  0  0  0  0  0  0  0  0  0
   -5.6987    1.8756   -1.2009 C   0  0  0  0  0  0  0  0  0  0  0  0
    7.6498    0.5873   -0.4188 C   0  0  0  0  0  0  0  0  0  0  0  0
    7.2892    1.9236   -0.2863 C   0  0  0  0  0  0  0  0  0  0  0  0
   -8.1851    1.7561   -0.9717 C   0  0  0  0  0  0  0  0  0  0  0  0
   -0.9938   -5.6608   -0.6826 C   0  0  0  0  0  0  0  0  0  0  0  0
   -1.9217   -1.9767   -0.5200 H   0  0  0  0  0  0  0  0  0  0  0  0
   -1.7181   -2.1529    1.2629 H   0  0  0  0  0  0  0  0  0  0  0  0
   -2.9081   -0.6607    1.1599 H   0  0  0  0  0  0  0  0  0  0  0  0
   -1.8310    2.9313   -0.2641 H   0  0  0  0  0  0  0  0  0  0  0  0
   -1.2568    2.8515    1.4188 H   0  0  0  0  0  0  0  0  0  0  0  0
   -2.9436    2.7182    1.1079 H   0  0  0  0  0  0  0  0  0  0  0  0
   -5.2497   -0.6423    1.7131 H   0  0  0  0  0  0  0  0  0  0  0  0
   -3.5762    1.8928   -1.3685 H   0  0  0  0  0  0  0  0  0  0  0  0
    6.9731   -1.4632   -0.4954 H   0  0  0  0  0  0  0  0  0  0  0  0
    5.6782    3.3318   -0.0197 H   0  0  0  0  0  0  0  0  0  0  0  0
   -7.5075    0.0285    1.0158 H   0  0  0  0  0  0  0  0  0  0  0  0
   -5.8168    2.5758   -2.0237 H   0  0  0  0  0  0  0  0  0  0  0  0
    8.6963    0.3226   -0.5457 H   0  0  0  0  0  0  0  0  0  0  0  0
    8.0542    2.6950   -0.3102 H   0  0  0  0  0  0  0  0  0  0  0  0
   -8.2174    1.9807   -2.0433 H   0  0  0  0  0  0  0  0  0  0  0  0
   -8.9089    0.9540   -0.7910 H   0  0  0  0  0  0  0  0  0  0  0  0
   -8.5012    2.6450   -0.4170 H   0  0  0  0  0  0  0  0  0  0  0  0
   -1.7878   -6.2215   -1.1830 H   0  0  0  0  0  0  0  0  0  0  0  0
   -0.7745   -6.1413    0.2757 H   0  0  0  0  0  0  0  0  0  0  0  0
   -0.1081   -5.6566   -1.3251 H   0  0  0  0  0  0  0  0  0  0  0  0
  1 14  1  0  0  0  0
  1 17  1  0  0  0  0
  2 12  2  0  0  0  0
  3 19  1  0  0  0  0
  3 30  1  0  0  0  0
  4 19  2  0  0  0  0
  5  6  1  0  0  0  0
  5 12  1  0  0  0  0
  5 14  1  0  0  0  0
  6 10  2  0  0  0  0
  7 11  1  0  0  0  0
  7 16  1  0  0  0  0
  7 33  1  0  0  0  0
  8 14  2  0  0  0  0
  8 18  1  0  0  0  0
  9 10  1  0  0  0  0
  9 11  2  0  0  0  0
  9 12  1  0  0  0  0
 10 13  1  0  0  0  0
 11 15  1  0  0  0  0
 13 19  1  0  0  0  0
 13 31  1  0  0  0  0
 13 32  1  0  0  0  0
 15 34  1  0  0  0  0
 15 35  1  0  0  0  0
 15 36  1  0  0  0  0
 16 20  2  0  0  0  0
 16 21  1  0  0  0  0
 17 18  1  0  0  0  0
 17 23  2  0  0  0  0
 18 24  2  0  0  0  0
 20 25  1  0  0  0  0
 20 37  1  0  0  0  0
 21 26  2  0  0  0  0
 21 38  1  0  0  0  0
 22 25  2  0  0  0  0
 22 26  1  0  0  0  0
 22 29  1  0  0  0  0
 23 27  1  0  0  0  0
 23 39  1  0  0  0  0
 24 28  1  0  0  0  0
 24 40  1  0  0  0  0
 25 41  1  0  0  0  0
 26 42  1  0  0  0  0
 27 28  2  0  0  0  0
 27 43  1  0  0  0  0
 28 44  1  0  0  0  0
 29 45  1  0  0  0  0
 29 46  1  0  0  0  0
 29 47  1  0  0  0  0
 30 48  1  0  0  0  0
 30 49  1  0  0  0  0
 30 50  1  0  0  0  0
M  END
> <PUBCHEM_COMPOUND_CID>
5738596

> <PUBCHEM_CONFORMER_RMSD>
0.8

> <PUBCHEM_CONFORMER_DIVERSEORDER>
5
22
39
3
53
16
19
24
17
50
15
49
56
6
23
55
45
36
14
44
54
28
57
8
21
47
20
51
59
25
27
32
58
1
26
10
38
41
12
2
52
46
42
4
9
7
18
43
29
40
34
48
33
37
31
35
13
30
11

> <PUBCHEM_MMFF94_PARTIAL_CHARGES>
39
1 -0.08
10 0.37
11 -0.04
12 0.62
13 0.12
14 0.44
15 0.14
16 0.1
17 0.04
18 0.23
19 0.66
2 -0.57
20 -0.15
21 -0.15
22 -0.14
23 -0.15
24 -0.15
25 -0.15
26 -0.15
27 -0.15
28 -0.15
29 0.14
3 -0.43
30 0.28
33 0.4
37 0.15
38 0.15
39 0.15
4 -0.57
40 0.15
41 0.15
42 0.15
43 0.15
44 0.15
5 -0.06
6 -0.51
7 -0.6
8 -0.57
9 0.03

> <PUBCHEM_EFFECTIVE_ROTOR_COUNT>
6.2

> <PUBCHEM_PHARMACOPHORE_FEATURES>
9
1 2 acceptor
1 4 acceptor
1 6 acceptor
1 7 cation
1 7 donor
5 1 8 14 17 18 rings
5 5 6 9 10 12 rings
6 16 20 21 22 25 26 rings
6 17 18 23 24 27 28 rings

> <PUBCHEM_HEAVY_ATOM_COUNT>
30

> <PUBCHEM_ATOM_DEF_STEREO_COUNT>
0

> <PUBCHEM_ATOM_UDEF_STEREO_COUNT>
0

> <PUBCHEM_BOND_DEF_STEREO_COUNT>
1

> <PUBCHEM_BOND_UDEF_STEREO_COUNT>
0

> <PUBCHEM_ISOTOPIC_ATOM_COUNT>
0

> <PUBCHEM_COMPONENT_COUNT>
1

> <PUBCHEM_CACTVS_TAUTO_COUNT>
7

> <PUBCHEM_CONFORMER_ID>
0057906400000005

> <PUBCHEM_MMFF94_ENERGY>
98.9465

> <PUBCHEM_FEATURE_SELFOVERLAP>
45.75

> <PUBCHEM_SHAPE_FINGERPRINT>
10050765 1 18051412065857777952
102385 1 17764304337816224721
10369192 42 18259982657131111557
10411042 1 17547292658538273602
11062273 19 17906730302427723062
11135609 187 18410571752180433897
11135926 11 18339646638476861457
11297750 10 17554325104944537011
11578080 2 16772093972806779042
11719270 70 18338789010268947243
11991303 11 18334297616569581383
12539765 74 18130235864904493981
12597179 24 18202008728470535390
12838862 33 18338784676889688048
13150687 139 18409452453495893918
13540713 4 17700123598299008160
13540713 5 17698163950945910185
13911987 19 18411696574324668041
13968360 50 18336543811878186791
14117953 113 18335426751451773164
14251764 18 11819282160695260169
14790565 3 18339929216405988664
15064981 194 18194419981099565308
15131766 46 16735538523173264100
15183329 4 17346878944403227869
15849732 13 18040719177337361452
15927050 60 18411134761979171042
18681886 176 18334853952616375033
19427546 20 18194125350848406622
20505436 4 18040428910947776514
20554085 129 18201422676309612978
21033648 29 18337379534767013457
21344244 181 18130796611629791894
21521721 280 18412548699782957105
23516275 137 16701201715150464623
23559900 14 18201435952175227232
23576562 1 18116433833107062533
249057 3 18409733976402826004
25019877 29 18411422795464850023
283562 15 18129388102795816185
3103668 31 18193831781492736919
3178227 256 18337686277716302073
335352 9 18411423887330684028
3633792 109 18341335483309331200
38695281 34 18410573964209851835
4017518 198 18341620300335438990
4073 2 17676494976968434880
4258327 124 17969238891882666740
4408954 64 15868889211278979427
5486654 2 18413388735082393521
563151 97 18270123384107464593
59755656 520 18408598188537094199
6058803 2 17482836667525200849
6669772 16 18272094859352336983
6898599 12 18194407912378055436

> <PUBCHEM_SHAPE_MULTIPOLES>
583.7
20.36
4.55
0.86
1.77
9.88
0.07
-17.74
5.19
-1.58
0.82
-0.94
-0.12
0.65

> <PUBCHEM_SHAPE_SELFOVERLAP>
1264.496

> <PUBCHEM_SHAPE_VOLUME>
321.4

> <PUBCHEM_COORDINATE_TYPE>
2
5
10

$$$$
