648895
  -OEChem-01171809153D

 30 32  0     0  0  0  0  0  0999 V2000
   -3.2736   -1.9137    0.0035 S   0  0  0  0  0  0  0  0  0  0  0  0
    2.7788    2.5873    0.0047 O   0  0  0  0  0  0  0  0  0  0  0  0
    4.9602    1.5630   -0.0002 O   0  0  0  0  0  0  0  0  0  0  0  0
   -0.6756   -1.0861    0.0019 O   0  0  0  0  0  0  0  0  0  0  0  0
   -6.2257    2.3224    0.0102 O   0  0  0  0  0  0  0  0  0  0  0  0
   -3.9759    2.6292   -0.0239 O   0  0  0  0  0  0  0  0  0  0  0  0
    0.3962   -3.0497   -0.0044 N   0  0  0  0  0  0  0  0  0  0  0  0
   -0.9625   -3.3048   -0.0038 N   0  0  0  0  0  0  0  0  0  0  0  0
    2.7117    1.2281    0.0032 C   0  0  0  0  0  0  0  0  0  0  0  0
    1.6883   -0.9161   -0.0005 C   0  0  0  0  0  0  0  0  0  0  0  0
    3.9574    0.6432    0.0004 C   0  0  0  0  0  0  0  0  0  0  0  0
    1.5558    0.4745    0.0031 C   0  0  0  0  0  0  0  0  0  0  0  0
    2.9611   -1.5135   -0.0034 C   0  0  0  0  0  0  0  0  0  0  0  0
    4.1158   -0.7274   -0.0030 C   0  0  0  0  0  0  0  0  0  0  0  0
    0.5090   -1.7481   -0.0012 C   0  0  0  0  0  0  0  0  0  0  0  0
    4.2064    2.7925    0.0031 C   0  0  0  0  0  0  0  0  0  0  0  0
   -3.3943   -0.1037    0.0081 C   0  0  0  0  0  0  0  0  0  0  0  0
   -4.8400    0.3732    0.0117 C   0  0  0  0  0  0  0  0  0  0  0  0
   -1.5486   -2.1303    0.0001 C   0  0  0  0  0  0  0  0  0  0  0  0
   -4.9445    1.8799   -0.0095 C   0  0  0  0  0  0  0  0  0  0  0  0
    0.5929    0.9750    0.0052 H   0  0  0  0  0  0  0  0  0  0  0  0
    3.0696   -2.5960   -0.0063 H   0  0  0  0  0  0  0  0  0  0  0  0
    5.0989   -1.1840   -0.0056 H   0  0  0  0  0  0  0  0  0  0  0  0
    4.4791    3.3690    0.8946 H   0  0  0  0  0  0  0  0  0  0  0  0
    4.4766    3.3722   -0.8869 H   0  0  0  0  0  0  0  0  0  0  0  0
   -2.8746    0.2853    0.8914 H   0  0  0  0  0  0  0  0  0  0  0  0
   -2.8780    0.2872   -0.8764 H   0  0  0  0  0  0  0  0  0  0  0  0
   -5.3656   -0.0059   -0.8724 H   0  0  0  0  0  0  0  0  0  0  0  0
   -5.3522    0.0174    0.9131 H   0  0  0  0  0  0  0  0  0  0  0  0
   -6.2751    3.3021    0.0056 H   0  0  0  0  0  0  0  0  0  0  0  0
  1 17  1  0  0  0  0
  1 19  1  0  0  0  0
  2  9  1  0  0  0  0
  2 16  1  0  0  0  0
  3 11  1  0  0  0  0
  3 16  1  0  0  0  0
  4 15  1  0  0  0  0
  4 19  1  0  0  0  0
  5 20  1  0  0  0  0
  5 30  1  0  0  0  0
  6 20  2  0  0  0  0
  7  8  1  0  0  0  0
  7 15  2  0  0  0  0
  8 19  2  0  0  0  0
  9 11  2  0  0  0  0
  9 12  1  0  0  0  0
 10 12  2  0  0  0  0
 10 13  1  0  0  0  0
 10 15  1  0  0  0  0
 11 14  1  0  0  0  0
 12 21  1  0  0  0  0
 13 14  2  0  0  0  0
 13 22  1  0  0  0  0
 14 23  1  0  0  0  0
 16 24  1  0  0  0  0
 16 25  1  0  0  0  0
 17 18  1  0  0  0  0
 17 26  1  0  0  0  0
 17 27  1  0  0  0  0
 18 20  1  0  0  0  0
 18 28  1  0  0  0  0
 18 29  1  0  0  0  0
M  END
> <PUBCHEM_COMPOUND_CID>
648895

> <PUBCHEM_CONFORMER_RMSD>
0.8

> <PUBCHEM_CONFORMER_DIVERSEORDER>
1
17
19
39
16
38
46
43
9
33
18
22
47
29
11
3
34
48
4
10
27
32
5
6
44
41
2
50
36
37
20
14
45
42
15
13
26
24
40
7
28
25
30
12
23
35
49
8
31
21

> <PUBCHEM_MMFF94_PARTIAL_CHARGES>
24
1 -0.29
10 0.05
11 0.08
12 -0.15
13 -0.15
14 -0.15
15 0.43
16 0.56
17 0.23
18 0.06
19 0.53
2 -0.36
20 0.66
21 0.15
22 0.15
23 0.15
3 -0.36
30 0.5
4 -0.28
5 -0.65
6 -0.57
7 -0.34
8 -0.34
9 0.08

> <PUBCHEM_EFFECTIVE_ROTOR_COUNT>
5.6

> <PUBCHEM_PHARMACOPHORE_FEATURES>
8
1 2 acceptor
1 3 acceptor
1 5 acceptor
1 6 acceptor
3 5 6 20 anion
5 2 3 9 11 16 rings
5 4 7 8 15 19 rings
6 9 10 11 12 13 14 rings

> <PUBCHEM_HEAVY_ATOM_COUNT>
20

> <PUBCHEM_ATOM_DEF_STEREO_COUNT>
0

> <PUBCHEM_ATOM_UDEF_STEREO_COUNT>
0

> <PUBCHEM_BOND_DEF_STEREO_COUNT>
0

> <PUBCHEM_BOND_UDEF_STEREO_COUNT>
0

> <PUBCHEM_ISOTOPIC_ATOM_COUNT>
0

> <PUBCHEM_COMPONENT_COUNT>
1

> <PUBCHEM_CACTVS_TAUTO_COUNT>
1

> <PUBCHEM_CONFORMER_ID>
0009E6BF00000001

> <PUBCHEM_MMFF94_ENERGY>
32.0819

> <PUBCHEM_FEATURE_SELFOVERLAP>
40.811

> <PUBCHEM_SHAPE_FINGERPRINT>
10411042 1 17474107596793270407
12107183 9 18263632996869904890
12173636 292 18194962069964339590
12390115 104 18340503243417221451
12769317 202 18268137678828702041
13103583 49 12180131934872655269
13590594 115 17186733714640302259
13785724 45 17905885877819955434
14123255 52 18410573981247055867
14251764 38 18336830908856071541
14251764 75 18270692982749576353
14848178 96 18412258420181227145
15196674 1 18410856585541657027
15322687 12 18342733001575347465
16760501 71 18410019802197244929
17810953 82 18336831905156771285
17834072 32 18410856551456069395
20715895 44 18339920416107507601
21279426 13 18342468036631724854
21315764 268 18261106323444034685
21421861 104 17822837707673972506
21734292 116 18411980260988256489
21864079 5 18410571799377412659
23402655 69 18343300400850772662
23559900 14 18273500074689993054
23845131 108 18187083919755890571
245318 6 17968957395119942053
2838139 119 18336820884813625493
335352 9 18410856526045312918
474 4 18339642227234309475
5104073 3 18186795911331751458
59124914 9 18336828593562717931
6328613 192 18261964028787482012
633830 44 18413101749652411319
7064713 232 18261393398699468461
7808743 9 18338514261005014425
9981440 41 18335982047472968003

> <PUBCHEM_SHAPE_MULTIPOLES>
376.13
12.07
3.9
0.59
9.51
0.07
0
11.66
-0.01
1.45
0.01
0
-0.02
0.01

> <PUBCHEM_SHAPE_SELFOVERLAP>
804.75

> <PUBCHEM_SHAPE_VOLUME>
212.8

> <PUBCHEM_COORDINATE_TYPE>
2
5
10

$$$$
