4841619
  -OEChem-01171809363D

 52 54  0     0  0  0  0  0  0999 V2000
   -4.4345   -1.9980    0.6975 S   0  0  0  0  0  0  0  0  0  0  0  0
    1.8235   -1.2795    0.1135 S   0  0  0  0  0  0  0  0  0  0  0  0
   -4.9770   -2.3834   -0.5913 O   0  0  0  0  0  0  0  0  0  0  0  0
   -4.6419   -2.8421    1.8586 O   0  0  0  0  0  0  0  0  0  0  0  0
   -1.0909   -0.8872   -3.1193 O   0  5  0  0  0  0  0  0  0  0  0  0
    0.9504   -0.8597   -2.3124 O   0  0  0  0  0  0  0  0  0  0  0  0
   -4.9348   -0.4169    1.0702 N   0  0  0  0  0  0  0  0  0  0  0  0
   -5.5475    2.8303   -0.6852 N   0  0  0  0  0  0  0  0  0  0  0  0
    3.0459    1.1358    0.4877 N   0  0  0  0  0  0  0  0  0  0  0  0
   -0.2851   -1.0079   -2.1678 N   0  3  0  0  0  0  0  0  0  0  0  0
    2.7626    2.4157    0.7668 N   0  0  0  0  0  0  0  0  0  0  0  0
    0.8881    1.2111    0.6902 N   0  0  0  0  0  0  0  0  0  0  0  0
    1.4414    2.4559    0.8891 N   0  0  0  0  0  0  0  0  0  0  0  0
   -4.6828    0.6823    0.1125 C   0  0  0  0  0  0  0  0  0  0  0  0
   -5.7900    1.7191    0.2342 C   0  0  0  0  0  0  0  0  0  0  0  0
   -2.6882   -1.7931    0.5147 C   0  0  0  0  0  0  0  0  0  0  0  0
   -2.1699   -1.4854   -0.7314 C   0  0  0  0  0  0  0  0  0  0  0  0
   -1.8710   -1.9446    1.6216 C   0  0  0  0  0  0  0  0  0  0  0  0
   -0.7918   -1.3243   -0.8750 C   0  0  0  0  0  0  0  0  0  0  0  0
    0.0466   -1.4733    0.2298 C   0  0  0  0  0  0  0  0  0  0  0  0
   -0.4929   -1.7834    1.4781 C   0  0  0  0  0  0  0  0  0  0  0  0
   -6.6204    3.8192   -0.5861 C   0  0  0  0  0  0  0  0  0  0  0  0
   -4.2530    3.4510   -0.4065 C   0  0  0  0  0  0  0  0  0  0  0  0
    4.3594    0.7216    0.2913 C   0  0  0  0  0  0  0  0  0  0  0  0
    1.9007    0.4555    0.4517 C   0  0  0  0  0  0  0  0  0  0  0  0
    4.6257   -0.3441   -0.5615 C   0  0  0  0  0  0  0  0  0  0  0  0
    5.3942    1.3772    0.9495 C   0  0  0  0  0  0  0  0  0  0  0  0
    6.9855   -0.1059   -0.1017 C   0  0  0  0  0  0  0  0  0  0  0  0
    5.9429   -0.7591   -0.7587 C   0  0  0  0  0  0  0  0  0  0  0  0
    6.7113    0.9623    0.7523 C   0  0  0  0  0  0  0  0  0  0  0  0
    8.3937   -0.5493   -0.3126 C   0  0  0  0  0  0  0  0  0  0  0  0
   -3.7015    1.0867    0.3768 H   0  0  0  0  0  0  0  0  0  0  0  0
   -4.6469    0.2976   -0.9121 H   0  0  0  0  0  0  0  0  0  0  0  0
   -6.7483    1.2406   -0.0065 H   0  0  0  0  0  0  0  0  0  0  0  0
   -5.8635    2.0701    1.2726 H   0  0  0  0  0  0  0  0  0  0  0  0
   -4.9911   -0.1425    2.0590 H   0  0  0  0  0  0  0  0  0  0  0  0
   -2.8424   -1.3712   -1.5766 H   0  0  0  0  0  0  0  0  0  0  0  0
   -2.2720   -2.1778    2.6031 H   0  0  0  0  0  0  0  0  0  0  0  0
    0.1414   -1.9024    2.3534 H   0  0  0  0  0  0  0  0  0  0  0  0
   -6.4725    4.6235   -1.3154 H   0  0  0  0  0  0  0  0  0  0  0  0
   -6.6811    4.2659    0.4130 H   0  0  0  0  0  0  0  0  0  0  0  0
   -7.5886    3.3619   -0.8189 H   0  0  0  0  0  0  0  0  0  0  0  0
   -3.4190    2.8256   -0.7394 H   0  0  0  0  0  0  0  0  0  0  0  0
   -4.1235    3.6980    0.6536 H   0  0  0  0  0  0  0  0  0  0  0  0
   -4.1466    4.3821   -0.9770 H   0  0  0  0  0  0  0  0  0  0  0  0
    3.8944   -0.8060   -1.2109 H   0  0  0  0  0  0  0  0  0  0  0  0
    5.2107    2.2061    1.6284 H   0  0  0  0  0  0  0  0  0  0  0  0
    6.1481   -1.5718   -1.4508 H   0  0  0  0  0  0  0  0  0  0  0  0
    7.5153    1.4788    1.2700 H   0  0  0  0  0  0  0  0  0  0  0  0
    8.8375   -0.0041   -1.1515 H   0  0  0  0  0  0  0  0  0  0  0  0
    9.0015   -0.3732    0.5815 H   0  0  0  0  0  0  0  0  0  0  0  0
    8.4424   -1.6225   -0.5264 H   0  0  0  0  0  0  0  0  0  0  0  0
  1  3  2  0  0  0  0
  1  4  2  0  0  0  0
  1  7  1  0  0  0  0
  1 16  1  0  0  0  0
  2 20  1  0  0  0  0
  2 25  1  0  0  0  0
  5 10  1  0  0  0  0
  6 10  2  0  0  0  0
  7 14  1  0  0  0  0
  7 36  1  0  0  0  0
  8 15  1  0  0  0  0
  8 22  1  0  0  0  0
  8 23  1  0  0  0  0
  9 11  1  0  0  0  0
  9 24  1  0  0  0  0
  9 25  1  0  0  0  0
 10 19  1  0  0  0  0
 11 13  2  0  0  0  0
 12 13  1  0  0  0  0
 12 25  2  0  0  0  0
 14 15  1  0  0  0  0
 14 32  1  0  0  0  0
 14 33  1  0  0  0  0
 15 34  1  0  0  0  0
 15 35  1  0  0  0  0
 16 17  2  0  0  0  0
 16 18  1  0  0  0  0
 17 19  1  0  0  0  0
 17 37  1  0  0  0  0
 18 21  2  0  0  0  0
 18 38  1  0  0  0  0
 19 20  2  0  0  0  0
 20 21  1  0  0  0  0
 21 39  1  0  0  0  0
 22 40  1  0  0  0  0
 22 41  1  0  0  0  0
 22 42  1  0  0  0  0
 23 43  1  0  0  0  0
 23 44  1  0  0  0  0
 23 45  1  0  0  0  0
 24 26  2  0  0  0  0
 24 27  1  0  0  0  0
 26 29  1  0  0  0  0
 26 46  1  0  0  0  0
 27 30  2  0  0  0  0
 27 47  1  0  0  0  0
 28 29  2  0  0  0  0
 28 30  1  0  0  0  0
 28 31  1  0  0  0  0
 29 48  1  0  0  0  0
 30 49  1  0  0  0  0
 31 50  1  0  0  0  0
 31 51  1  0  0  0  0
 31 52  1  0  0  0  0
M  CHG  2   5  -1  10   1
M  END
> <PUBCHEM_COMPOUND_CID>
4841619

> <PUBCHEM_CONFORMER_RMSD>
1

> <PUBCHEM_CONFORMER_DIVERSEORDER>
1
157
160
185
150
107
112
126
118
134
72
145
105
57
191
104
187
147
130
66
73
193
96
117
15
103
24
192
142
92
129
74
115
139
179
164
168
5
124
161
175
82
154
34
189
188
99
113
125
176
138
49
182
170
40
77
37
35
135
9
50
146
162
29
186
183
10
190
41
11
137
39
181
178
3
91
60
22
163
155
31
123
54
81
63
68
111
12
195
148
89
26
121
119
172
42
62
149
87
166
114
75
47
93
174
158
102
80
23
14
38
86
133
67
131
95
132
76
173
2
56
30
109
69
136
194
184
108
122
28
88
116
52
165
78
98
167
169
18
180
55
58
120
143
19
4
90
84
110
13
25
46
83
177
101
153
97
159
59
151
171
45
17
8
20
70
128
53
156
141
61
21
33
44
144
140
36
100
127
106
43
51
79
152
94
7
16
32
65
27
6
48
85
71
64

> <PUBCHEM_MMFF94_PARTIAL_CHARGES>
38
1 1.45
10 0.91
11 -0.42
12 -0.34
14 0.36
15 0.27
16 -0.01
17 -0.15
18 -0.15
19 0.13
2 -0.16
20 0.1
21 -0.15
22 0.27
23 0.27
24 -0.02
25 0.24
26 -0.15
27 -0.15
28 -0.14
29 -0.15
3 -0.65
30 -0.15
31 0.14
36 0.42
37 0.15
38 0.15
39 0.15
4 -0.65
46 0.15
47 0.15
48 0.15
49 0.15
5 -0.52
6 -0.52
7 -0.91
8 -0.81
9 0.59

> <PUBCHEM_EFFECTIVE_ROTOR_COUNT>
9

> <PUBCHEM_PHARMACOPHORE_FEATURES>
11
1 3 acceptor
1 4 acceptor
1 5 acceptor
1 5 anion
1 6 acceptor
1 7 donor
1 8 cation
3 9 12 25 cation
5 9 11 12 13 25 rings
6 16 17 18 19 20 21 rings
6 24 26 27 28 29 30 rings

> <PUBCHEM_HEAVY_ATOM_COUNT>
31

> <PUBCHEM_ATOM_DEF_STEREO_COUNT>
0

> <PUBCHEM_ATOM_UDEF_STEREO_COUNT>
0

> <PUBCHEM_BOND_DEF_STEREO_COUNT>
0

> <PUBCHEM_BOND_UDEF_STEREO_COUNT>
0

> <PUBCHEM_ISOTOPIC_ATOM_COUNT>
0

> <PUBCHEM_COMPONENT_COUNT>
1

> <PUBCHEM_CACTVS_TAUTO_COUNT>
1

> <PUBCHEM_CONFORMER_ID>
0049E09300000001

> <PUBCHEM_MMFF94_ENERGY>
90.5295

> <PUBCHEM_FEATURE_SELFOVERLAP>
55.921

> <PUBCHEM_SHAPE_FINGERPRINT>
100830 39 18409168792375593761
10554248 39 16056608668580889428
10670039 82 18333445448467132977
10674148 151 18187082846224290344
11578080 2 17387393663433475815
11763715 3 17398966353875760839
12128747 34 18408605829326137299
12236239 1 17274548749397807498
12788726 201 15069163671926774878
14294032 229 17677610861618977716
14856354 85 16878229752594846723
15183329 4 18335416881057595082
15238133 3 18334584550934664580
15849732 13 17560807666814596878
20511986 3 16988271084748931626
21133410 90 17274816986974342865
21279426 13 18341056224719997690
21859007 373 18343010091364062056
23522609 53 17023767679110476038
23569914 2 17482784104898567369
2838139 119 18343577452217033109
552612 73 18042120960400380982
5951187 136 17479454539941823541
6009941 240 18335422348751182192
6086070 43 17131817781398060826

> <PUBCHEM_SHAPE_MULTIPOLES>
587.32
18.98
3.62
1.65
16.91
2.57
-1.02
9.4
0.6
-8.67
0.5
-0.6
-0.84
2.57

> <PUBCHEM_SHAPE_SELFOVERLAP>
1224.236

> <PUBCHEM_SHAPE_VOLUME>
336.3

> <PUBCHEM_COORDINATE_TYPE>
2
5
10

$$$$
