1490583
  -OEChem-01171810023D

 40 42  0     0  0  0  0  0  0999 V2000
    6.5470    3.4344   -0.1016 F   0  0  0  0  0  0  0  0  0  0  0  0
   -4.5502   -0.4958    0.3924 O   0  0  0  0  0  0  0  0  0  0  0  0
   -6.9472    0.1457   -0.6148 O   0  0  0  0  0  0  0  0  0  0  0  0
    1.7543   -0.5993    0.0435 N   0  0  0  0  0  0  0  0  0  0  0  0
    1.2526   -2.9559    0.0045 N   0  0  0  0  0  0  0  0  0  0  0  0
   -6.7847    2.3769   -0.1500 N   0  0  0  0  0  0  0  0  0  0  0  0
   -8.0236    2.6933   -0.6693 N   0  0  0  0  0  0  0  0  0  0  0  0
   -0.4897   -1.3551    0.1443 C   0  0  0  0  0  0  0  0  0  0  0  0
    0.9161   -1.6532    0.0594 C   0  0  0  0  0  0  0  0  0  0  0  0
    3.0615   -0.9174   -0.0365 C   0  0  0  0  0  0  0  0  0  0  0  0
    3.9652    0.2124   -0.0540 C   0  0  0  0  0  0  0  0  0  0  0  0
   -1.4284   -2.2154   -0.4338 C   0  0  0  0  0  0  0  0  0  0  0  0
   -0.9269   -0.2036    0.8062 C   0  0  0  0  0  0  0  0  0  0  0  0
   -3.2210   -0.7767    0.3105 C   0  0  0  0  0  0  0  0  0  0  0  0
   -2.7906   -1.9269   -0.3508 C   0  0  0  0  0  0  0  0  0  0  0  0
   -2.2891    0.0850    0.8891 C   0  0  0  0  0  0  0  0  0  0  0  0
    3.5383   -2.2089   -0.0986 C   0  0  0  0  0  0  0  0  0  0  0  0
    5.1830    0.1205   -0.7280 C   0  0  0  0  0  0  0  0  0  0  0  0
    3.6197    1.3927    0.6038 C   0  0  0  0  0  0  0  0  0  0  0  0
    2.5775   -3.1989   -0.0744 C   0  0  0  0  0  0  0  0  0  0  0  0
    6.0551    1.2090   -0.7443 C   0  0  0  0  0  0  0  0  0  0  0  0
    4.4918    2.4813    0.5877 C   0  0  0  0  0  0  0  0  0  0  0  0
    5.7095    2.3894   -0.0864 C   0  0  0  0  0  0  0  0  0  0  0  0
   -4.9206    0.8808    0.4517 C   0  0  0  0  0  0  0  0  0  0  0  0
   -6.2996    1.0856   -0.1504 C   0  0  0  0  0  0  0  0  0  0  0  0
   -1.1256   -3.1149   -0.9647 H   0  0  0  0  0  0  0  0  0  0  0  0
   -0.2266    0.4801    1.2808 H   0  0  0  0  0  0  0  0  0  0  0  0
   -3.5121   -2.6006   -0.8050 H   0  0  0  0  0  0  0  0  0  0  0  0
   -2.5842    0.9749    1.4372 H   0  0  0  0  0  0  0  0  0  0  0  0
    4.5864   -2.4755   -0.1389 H   0  0  0  0  0  0  0  0  0  0  0  0
    5.4810   -0.7700   -1.2748 H   0  0  0  0  0  0  0  0  0  0  0  0
    2.6837    1.4939    1.1479 H   0  0  0  0  0  0  0  0  0  0  0  0
    2.8545   -4.2471   -0.1129 H   0  0  0  0  0  0  0  0  0  0  0  0
    7.0009    1.1403   -1.2735 H   0  0  0  0  0  0  0  0  0  0  0  0
    4.2244    3.3998    1.1018 H   0  0  0  0  0  0  0  0  0  0  0  0
   -4.2365    1.5147   -0.1273 H   0  0  0  0  0  0  0  0  0  0  0  0
   -4.9487    1.2076    1.4970 H   0  0  0  0  0  0  0  0  0  0  0  0
   -6.2364    3.1390    0.2374 H   0  0  0  0  0  0  0  0  0  0  0  0
   -8.5483    3.1503    0.0752 H   0  0  0  0  0  0  0  0  0  0  0  0
   -7.8720    3.4040   -1.3839 H   0  0  0  0  0  0  0  0  0  0  0  0
  1 23  1  0  0  0  0
  2 14  1  0  0  0  0
  2 24  1  0  0  0  0
  3 25  2  0  0  0  0
  4  9  1  0  0  0  0
  4 10  2  0  0  0  0
  5  9  2  0  0  0  0
  5 20  1  0  0  0  0
  6  7  1  0  0  0  0
  6 25  1  0  0  0  0
  6 38  1  0  0  0  0
  7 39  1  0  0  0  0
  7 40  1  0  0  0  0
  8  9  1  0  0  0  0
  8 12  2  0  0  0  0
  8 13  1  0  0  0  0
 10 11  1  0  0  0  0
 10 17  1  0  0  0  0
 11 18  2  0  0  0  0
 11 19  1  0  0  0  0
 12 15  1  0  0  0  0
 12 26  1  0  0  0  0
 13 16  2  0  0  0  0
 13 27  1  0  0  0  0
 14 15  2  0  0  0  0
 14 16  1  0  0  0  0
 15 28  1  0  0  0  0
 16 29  1  0  0  0  0
 17 20  2  0  0  0  0
 17 30  1  0  0  0  0
 18 21  1  0  0  0  0
 18 31  1  0  0  0  0
 19 22  2  0  0  0  0
 19 32  1  0  0  0  0
 20 33  1  0  0  0  0
 21 23  2  0  0  0  0
 21 34  1  0  0  0  0
 22 23  1  0  0  0  0
 22 35  1  0  0  0  0
 24 25  1  0  0  0  0
 24 36  1  0  0  0  0
 24 37  1  0  0  0  0
M  END
> <PUBCHEM_COMPOUND_CID>
1490583

> <PUBCHEM_CONFORMER_RMSD>
0.8

> <PUBCHEM_CONFORMER_DIVERSEORDER>
1
11
9
47
59
53
16
4
38
17
51
55
45
50
34
28
40
46
3
24
5
52
49
2
56
8
31
48
22
32
57
7
30
33
43
26
12
14
42
10
29
15
21
39
37
20
23
27
44
25
58
36
6
18
54
13
19
41
35

> <PUBCHEM_MMFF94_PARTIAL_CHARGES>
36
1 -0.19
10 0.31
12 -0.15
13 -0.15
14 0.08
15 -0.15
16 -0.15
17 -0.15
18 -0.15
19 -0.15
2 -0.36
20 0.16
21 -0.15
22 -0.15
23 0.19
24 0.34
25 0.57
26 0.15
27 0.15
28 0.15
29 0.15
3 -0.57
30 0.15
31 0.15
32 0.15
33 0.15
34 0.15
35 0.15
38 0.37
39 0.36
4 -0.62
40 0.36
5 -0.62
6 -0.42
7 -0.73
9 0.62

> <PUBCHEM_EFFECTIVE_ROTOR_COUNT>
6

> <PUBCHEM_PHARMACOPHORE_FEATURES>
9
1 2 acceptor
1 3 acceptor
1 4 acceptor
1 6 donor
1 7 donor
3 4 5 9 cation
6 11 18 19 21 22 23 rings
6 4 5 9 10 17 20 rings
6 8 12 13 14 15 16 rings

> <PUBCHEM_HEAVY_ATOM_COUNT>
25

> <PUBCHEM_ATOM_DEF_STEREO_COUNT>
0

> <PUBCHEM_ATOM_UDEF_STEREO_COUNT>
0

> <PUBCHEM_BOND_DEF_STEREO_COUNT>
0

> <PUBCHEM_BOND_UDEF_STEREO_COUNT>
0

> <PUBCHEM_ISOTOPIC_ATOM_COUNT>
0

> <PUBCHEM_COMPONENT_COUNT>
1

> <PUBCHEM_CACTVS_TAUTO_COUNT>
2

> <PUBCHEM_CONFORMER_ID>
0016BE9700000001

> <PUBCHEM_MMFF94_ENERGY>
77.9539

> <PUBCHEM_FEATURE_SELFOVERLAP>
47.19

> <PUBCHEM_SHAPE_FINGERPRINT>
10050765 1 18410575097818194927
10280341 67 18055906835365379904
10411042 1 17834396714498846346
10595046 47 18342454829734188591
10835480 77 18408040689645906617
11135609 127 18339914940113752225
12788726 201 17346323639876280633
12838862 33 18342726443392453336
13690498 29 17344336998933977967
13878862 14 18264753403048858421
13911987 19 17775567520994738551
13944108 23 18410578349524708308
14142895 15 18411979166530705853
14211702 104 9295286166575200573
14528608 73 18343864432925059735
14931854 50 17989218066089152600
15183329 4 17917712362611409041
15198563 99 17407959255358876150
15483637 11 17977668610708782496
15510800 12 11671770607493189717
15840311 113 18263084328157152101
18335252 114 18342456994107432326
19427546 20 18200028594471620919
19427546 62 18409730646870157523
20058555 10 18337390440443364669
20157964 124 18339925922434928827
20398071 356 9367349245223146389
20554085 129 17917136300323020778
20715895 44 18410575119656132016
21033648 29 17749394771022238859
21033650 10 14835860443124167403
21049683 118 18116134727537541578
21298829 104 18408887368769867613
21304253 335 18334301954807745191
21344244 181 11959718387792490061
21424621 283 18040435461067807929
21585482 111 18333731295199110957
23522609 53 17559973034794866657
23559900 14 18131349666390207754
23569914 2 17463926338580031869
23845131 108 18261396684592692626
25122255 55 11455881495221255613
255183 451 17627237749867773086
270888 7 18409729603529837712
2748736 6 18410285938970223357
2838139 119 18263919952461690021
335352 9 18413114949115254518
3472631 163 18343587360405807518
34797466 226 18060427893696269287
397830 11 18041859371654825907
4073 2 18187088360609623955
44555599 121 18057046801157637569
465052 167 8430312450324578811
474 4 18335708299136900594
5104073 3 18113899372631535811
56633871 153 11241963810854939744
5718773 13 9727636098652671917
59682541 52 17417545644143170220
6327066 14 18339081626775880444
6697151 62 17393294656293567587
6898599 12 18200590414700729647
7970288 3 9366807160379429324

> <PUBCHEM_SHAPE_MULTIPOLES>
475.55
19.14
3.68
0.79
23.7
0.34
-0.02
21.93
3.97
-2.69
0.27
0.05
0.11
0.64

> <PUBCHEM_SHAPE_SELFOVERLAP>
1039.181

> <PUBCHEM_SHAPE_VOLUME>
258.8

> <PUBCHEM_COORDINATE_TYPE>
2
5
10

$$$$
