686860
  -OEChem-01171809473D

 33 34  0     0  0  0  0  0  0999 V2000
    4.0835   -0.2584   -0.0727 O   0  0  0  0  0  0  0  0  0  0  0  0
   -0.4639    2.0204    0.0593 O   0  0  0  0  0  0  0  0  0  0  0  0
    7.3632   -1.4615   -0.1684 O   0  5  0  0  0  0  0  0  0  0  0  0
    5.4259   -2.4981   -0.0673 O   0  0  0  0  0  0  0  0  0  0  0  0
   -1.0049   -0.2619    0.2417 N   0  0  0  0  0  0  0  0  0  0  0  0
    6.0987   -1.4272   -0.1209 N   0  3  0  0  0  0  0  0  0  0  0  0
   -7.8208   -0.4087   -1.7791 N   0  0  0  0  0  0  0  0  0  0  0  0
   -2.3975   -0.2596    0.3261 C   0  0  0  0  0  0  0  0  0  0  0  0
   -5.1822   -0.2556    0.4951 C   0  0  0  0  0  0  0  0  0  0  0  0
   -3.0908   -1.4639    0.4464 C   0  0  0  0  0  0  0  0  0  0  0  0
   -3.0967    0.9470    0.2905 C   0  0  0  0  0  0  0  0  0  0  0  0
   -4.4831   -1.4619    0.5308 C   0  0  0  0  0  0  0  0  0  0  0  0
   -4.4889    0.9490    0.3750 C   0  0  0  0  0  0  0  0  0  0  0  0
   -6.6708   -0.2532    0.5860 C   0  0  0  0  0  0  0  0  0  0  0  0
    3.6540    1.0198   -0.0881 C   0  0  0  0  0  0  0  0  0  0  0  0
   -0.1449    0.8387    0.1181 C   0  0  0  0  0  0  0  0  0  0  0  0
    2.2571    1.3393   -0.0427 C   0  0  0  0  0  0  0  0  0  0  0  0
    4.6897    1.9045   -0.1505 C   0  0  0  0  0  0  0  0  0  0  0  0
    1.2891    0.4153    0.0585 C   0  0  0  0  0  0  0  0  0  0  0  0
    5.4398   -0.1964   -0.1267 C   0  0  0  0  0  0  0  0  0  0  0  0
    5.8620    1.1118   -0.1758 C   0  0  0  0  0  0  0  0  0  0  0  0
   -7.3185   -0.3398   -0.7353 C   0  0  0  0  0  0  0  0  0  0  0  0
   -2.5592   -2.4117    0.4752 H   0  0  0  0  0  0  0  0  0  0  0  0
   -2.6325    1.9188    0.1992 H   0  0  0  0  0  0  0  0  0  0  0  0
   -5.0111   -2.4074    0.6228 H   0  0  0  0  0  0  0  0  0  0  0  0
   -5.0229    1.8953    0.3449 H   0  0  0  0  0  0  0  0  0  0  0  0
   -0.5775   -1.1852    0.2760 H   0  0  0  0  0  0  0  0  0  0  0  0
   -7.0107    0.6533    1.1026 H   0  0  0  0  0  0  0  0  0  0  0  0
   -7.0065   -1.0875    1.2147 H   0  0  0  0  0  0  0  0  0  0  0  0
    2.0003    2.3949   -0.0842 H   0  0  0  0  0  0  0  0  0  0  0  0
    4.6306    2.9836   -0.1755 H   0  0  0  0  0  0  0  0  0  0  0  0
    1.5135   -0.6453    0.1069 H   0  0  0  0  0  0  0  0  0  0  0  0
    6.8849    1.4580   -0.2239 H   0  0  0  0  0  0  0  0  0  0  0  0
  1 15  1  0  0  0  0
  1 20  1  0  0  0  0
  2 16  2  0  0  0  0
  3  6  1  0  0  0  0
  4  6  2  0  0  0  0
  5  8  1  0  0  0  0
  5 16  1  0  0  0  0
  5 27  1  0  0  0  0
  6 20  1  0  0  0  0
  7 22  3  0  0  0  0
  8 10  2  0  0  0  0
  8 11  1  0  0  0  0
  9 12  2  0  0  0  0
  9 13  1  0  0  0  0
  9 14  1  0  0  0  0
 10 12  1  0  0  0  0
 10 23  1  0  0  0  0
 11 13  2  0  0  0  0
 11 24  1  0  0  0  0
 12 25  1  0  0  0  0
 13 26  1  0  0  0  0
 14 22  1  0  0  0  0
 14 28  1  0  0  0  0
 14 29  1  0  0  0  0
 15 17  1  0  0  0  0
 15 18  2  0  0  0  0
 16 19  1  0  0  0  0
 17 19  2  0  0  0  0
 17 30  1  0  0  0  0
 18 21  1  0  0  0  0
 18 31  1  0  0  0  0
 19 32  1  0  0  0  0
 20 21  2  0  0  0  0
 21 33  1  0  0  0  0
M  CHG  2   3  -1   6   1
M  END
> <PUBCHEM_COMPOUND_CID>
686860

> <PUBCHEM_CONFORMER_RMSD>
0.8

> <PUBCHEM_CONFORMER_DIVERSEORDER>
1
8
3
9
14
2
10
6
11
5
4
12
16
7
13
15
18
17

> <PUBCHEM_MMFF94_PARTIAL_CHARGES>
31
1 -0.28
10 -0.15
11 -0.15
12 -0.15
13 -0.15
14 0.34
15 0.09
16 0.62
17 -0.11
18 -0.15
19 -0.14
2 -0.57
20 0.22
21 -0.15
22 0.36
23 0.15
24 0.15
25 0.15
26 0.15
27 0.37
3 -0.52
30 0.15
31 0.15
32 0.15
33 0.15
4 -0.52
5 -0.55
6 0.96
7 -0.56
8 0.12
9 -0.14

> <PUBCHEM_EFFECTIVE_ROTOR_COUNT>
6

> <PUBCHEM_PHARMACOPHORE_FEATURES>
9
1 1 acceptor
1 2 acceptor
1 3 acceptor
1 3 anion
1 4 acceptor
1 5 donor
1 7 acceptor
5 1 15 18 20 21 rings
6 8 9 10 11 12 13 rings

> <PUBCHEM_HEAVY_ATOM_COUNT>
22

> <PUBCHEM_ATOM_DEF_STEREO_COUNT>
0

> <PUBCHEM_ATOM_UDEF_STEREO_COUNT>
0

> <PUBCHEM_BOND_DEF_STEREO_COUNT>
1

> <PUBCHEM_BOND_UDEF_STEREO_COUNT>
0

> <PUBCHEM_ISOTOPIC_ATOM_COUNT>
0

> <PUBCHEM_COMPONENT_COUNT>
1

> <PUBCHEM_CACTVS_TAUTO_COUNT>
2

> <PUBCHEM_CONFORMER_ID>
000A7B0C00000001

> <PUBCHEM_MMFF94_ENERGY>
49.134

> <PUBCHEM_FEATURE_SELFOVERLAP>
45.764

> <PUBCHEM_SHAPE_FINGERPRINT>
10 15 11815895660617800237
10066227 49 18412544288994416943
106641 1 14261344773812542130
10835480 77 18263362658437547480
11315181 36 18337960090482003241
11524674 6 17060622204803610695
11638347 137 14549025360307462974
11719270 70 17917713483007133742
11858739 19 18335422378504716744
12107183 9 17835247748876355576
12516196 113 17775287183261553057
13533116 47 18342460340034577520
13862211 1 18202002135964299429
13885169 127 18409729526384359421
14251752 14 17676196975437726821
14251764 18 18131354119706135056
14849402 71 7925620120997656039
14919807 6 17096636609624607599
15183329 4 18334013878113002427
15690457 1 17917706894643170518
1768 124 17632578210924102526
17844677 252 18409176497705321008
18006028 8 18273496784217439353
21095123 293 13623522417248250847
21130983 4 10809342239375643469
21236236 1 18412266104289676593
21267235 1 18335147483228084208
22079108 93 12967130510203714132
2215653 11 18335420179397104235
22224240 67 16630525146239164246
23081809 10 18059864977780949761
23522609 53 18055386675200450761
23536379 177 18411705391233046712
23559900 14 18267300010119698849
28498 318 18407759222921435975
29717793 49 17894633677467499852
3004659 81 18187085053489385352
3014965 18 18408602543633736978
328311 84 18040160630136634851
4073 2 17969510475433188994
4340502 62 14045745919578429100
445580 37 15647047132600471621
465052 167 18271814502031655478
5104073 3 18201438031123865648
559249 180 18410576150210698377
5758199 1 8214145161985883653
59682541 35 13686290292718276938
59755656 215 17822287964117446171
6438161 24 18040708144310098770
9965369 4 18412549790831023481

> <PUBCHEM_SHAPE_MULTIPOLES>
414.33
22.58
1.85
0.81
2.17
0.44
-0.22
7.21
-4.73
-2.94
0.05
1.49
0.05
0.06

> <PUBCHEM_SHAPE_SELFOVERLAP>
884.277

> <PUBCHEM_SHAPE_VOLUME>
226.6

> <PUBCHEM_COORDINATE_TYPE>
2
5
10

$$$$
