24747581
  -OEChem-01171809593D

 52 54  0     1  0  0  0  0  0999 V2000
    0.4805    1.9761   -0.7796 S   0  0  0  0  0  0  0  0  0  0  0  0
    0.5822    2.1141   -2.2178 O   0  0  0  0  0  0  0  0  0  0  0  0
    0.5539    3.1004    0.1280 O   0  0  0  0  0  0  0  0  0  0  0  0
   -2.6411   -2.4972   -0.8516 O   0  0  0  0  0  0  0  0  0  0  0  0
   -7.0243   -0.3373    0.6725 O   0  0  0  0  0  0  0  0  0  0  0  0
    8.0401    0.7165    0.7791 O   0  0  0  0  0  0  0  0  0  0  0  0
   -0.8727    0.9297   -0.3820 N   0  0  1  0  0  0  0  0  0  0  0  0
   -0.3806   -0.5167   -0.3486 C   0  0  2  0  0  0  0  0  0  0  0  0
    1.1135   -0.4656   -0.1467 C   0  0  0  0  0  0  0  0  0  0  0  0
    1.6802    0.7973   -0.3170 C   0  0  0  0  0  0  0  0  0  0  0  0
   -0.7706   -1.1944   -1.6557 C   0  0  0  0  0  0  0  0  0  0  0  0
   -1.6085    1.2742    0.8672 C   0  0  0  0  0  0  0  0  0  0  0  0
    1.9339   -1.5281    0.2035 C   0  0  0  0  0  0  0  0  0  0  0  0
    3.0240    1.0618   -0.1421 C   0  0  0  0  0  0  0  0  0  0  0  0
   -3.0482    0.8457    0.8166 C   0  0  0  0  0  0  0  0  0  0  0  0
    3.8421   -0.0094    0.2123 C   0  0  0  0  0  0  0  0  0  0  0  0
   -2.2087   -1.6698   -1.6526 C   0  0  0  0  0  0  0  0  0  0  0  0
    3.3025   -1.2956    0.3814 C   0  0  0  0  0  0  0  0  0  0  0  0
   -3.4647   -0.2864    1.5171 C   0  0  0  0  0  0  0  0  0  0  0  0
   -3.9677    1.5798    0.0674 C   0  0  0  0  0  0  0  0  0  0  0  0
   -3.1034   -1.0647   -2.7031 C   0  0  0  0  0  0  0  0  0  0  0  0
    5.2666    0.2061    0.4150 C   0  0  0  0  0  0  0  0  0  0  0  0
   -4.8006   -0.6844    1.4683 C   0  0  0  0  0  0  0  0  0  0  0  0
   -5.3037    1.1817    0.0187 C   0  0  0  0  0  0  0  0  0  0  0  0
   -5.7201    0.0496    0.7191 C   0  0  0  0  0  0  0  0  0  0  0  0
    6.2101   -0.7605    0.3843 C   0  0  0  0  0  0  0  0  0  0  0  0
    7.6491   -0.4336    0.5943 C   0  0  0  0  0  0  0  0  0  0  0  0
   -7.3822   -1.5038    1.4119 C   0  0  0  0  0  0  0  0  0  0  0  0
    8.6183   -1.5854    0.5401 C   0  0  0  0  0  0  0  0  0  0  0  0
   -0.8114   -1.0466    0.5084 H   0  0  0  0  0  0  0  0  0  0  0  0
   -0.1617   -2.0896   -1.8359 H   0  0  0  0  0  0  0  0  0  0  0  0
   -0.6044   -0.5358   -2.5164 H   0  0  0  0  0  0  0  0  0  0  0  0
   -1.0994    0.8580    1.7453 H   0  0  0  0  0  0  0  0  0  0  0  0
   -1.6124    2.3610    1.0119 H   0  0  0  0  0  0  0  0  0  0  0  0
    1.5257   -2.5229    0.3510 H   0  0  0  0  0  0  0  0  0  0  0  0
    3.4181    2.0626   -0.2838 H   0  0  0  0  0  0  0  0  0  0  0  0
    3.9113   -2.1449    0.6794 H   0  0  0  0  0  0  0  0  0  0  0  0
   -2.7591   -0.8666    2.1057 H   0  0  0  0  0  0  0  0  0  0  0  0
   -3.6543    2.4622   -0.4842 H   0  0  0  0  0  0  0  0  0  0  0  0
   -2.7618   -1.3722   -3.6945 H   0  0  0  0  0  0  0  0  0  0  0  0
   -4.1300   -1.4116   -2.5565 H   0  0  0  0  0  0  0  0  0  0  0  0
   -3.0872    0.0246   -2.6199 H   0  0  0  0  0  0  0  0  0  0  0  0
    5.5634    1.2374    0.5929 H   0  0  0  0  0  0  0  0  0  0  0  0
   -5.0560   -1.5728    2.0356 H   0  0  0  0  0  0  0  0  0  0  0  0
   -6.0152    1.7570   -0.5673 H   0  0  0  0  0  0  0  0  0  0  0  0
    5.9828   -1.8010    0.1852 H   0  0  0  0  0  0  0  0  0  0  0  0
   -6.8684   -2.3938    1.0328 H   0  0  0  0  0  0  0  0  0  0  0  0
   -7.2278   -1.3619    2.4870 H   0  0  0  0  0  0  0  0  0  0  0  0
   -8.4546   -1.6655    1.2615 H   0  0  0  0  0  0  0  0  0  0  0  0
    9.0463   -1.6519   -0.4631 H   0  0  0  0  0  0  0  0  0  0  0  0
    9.4136   -1.4205    1.2728 H   0  0  0  0  0  0  0  0  0  0  0  0
    8.1247   -2.5282    0.7911 H   0  0  0  0  0  0  0  0  0  0  0  0
  1  2  2  0  0  0  0
  1  3  2  0  0  0  0
  1  7  1  0  0  0  0
  1 10  1  0  0  0  0
  4 17  2  0  0  0  0
  5 25  1  0  0  0  0
  5 28  1  0  0  0  0
  6 27  2  0  0  0  0
  7  8  1  0  0  0  0
  7 12  1  0  0  0  0
  8  9  1  0  0  0  0
  8 11  1  0  0  0  0
  8 30  1  0  0  0  0
  9 10  2  0  0  0  0
  9 13  1  0  0  0  0
 10 14  1  0  0  0  0
 11 17  1  0  0  0  0
 11 31  1  0  0  0  0
 11 32  1  0  0  0  0
 12 15  1  0  0  0  0
 12 33  1  0  0  0  0
 12 34  1  0  0  0  0
 13 18  2  0  0  0  0
 13 35  1  0  0  0  0
 14 16  2  0  0  0  0
 14 36  1  0  0  0  0
 15 19  2  0  0  0  0
 15 20  1  0  0  0  0
 16 18  1  0  0  0  0
 16 22  1  0  0  0  0
 17 21  1  0  0  0  0
 18 37  1  0  0  0  0
 19 23  1  0  0  0  0
 19 38  1  0  0  0  0
 20 24  2  0  0  0  0
 20 39  1  0  0  0  0
 21 40  1  0  0  0  0
 21 41  1  0  0  0  0
 21 42  1  0  0  0  0
 22 26  2  0  0  0  0
 22 43  1  0  0  0  0
 23 25  2  0  0  0  0
 23 44  1  0  0  0  0
 24 25  1  0  0  0  0
 24 45  1  0  0  0  0
 26 27  1  0  0  0  0
 26 46  1  0  0  0  0
 27 29  1  0  0  0  0
 28 47  1  0  0  0  0
 28 48  1  0  0  0  0
 28 49  1  0  0  0  0
 29 50  1  0  0  0  0
 29 51  1  0  0  0  0
 29 52  1  0  0  0  0
M  END
> <PUBCHEM_COMPOUND_CID>
24747581

> <PUBCHEM_CONFORMER_RMSD>
1

> <PUBCHEM_CONFORMER_DIVERSEORDER>
2
39
10
54
32
14
51
33
13
17
45
20
34
50
43
38
35
24
30
18
12
1
5
44
49
53
7
27
19
4
41
22
28
52
46
8
48
42
37
23
26
29
47
6
25
15
11
16
40
36
3
9
31
21

> <PUBCHEM_MMFF94_PARTIAL_CHARGES>
38
1 1.45
10 -0.01
11 0.06
12 0.5
13 -0.15
14 -0.15
15 -0.14
16 0.03
17 0.45
18 -0.15
19 -0.15
2 -0.65
20 -0.15
21 0.06
22 -0.18
23 -0.15
24 -0.15
25 0.08
26 -0.14
27 0.49
28 0.28
29 0.06
3 -0.65
35 0.15
36 0.15
37 0.15
38 0.15
39 0.15
4 -0.57
43 0.15
44 0.15
45 0.15
46 0.15
5 -0.36
6 -0.57
7 -0.85
8 0.5
9 -0.14

> <PUBCHEM_EFFECTIVE_ROTOR_COUNT>
7.4

> <PUBCHEM_PHARMACOPHORE_FEATURES>
8
1 2 acceptor
1 3 acceptor
1 4 acceptor
1 5 acceptor
1 6 acceptor
5 1 7 8 9 10 rings
6 15 19 20 23 24 25 rings
6 9 10 13 14 16 18 rings

> <PUBCHEM_HEAVY_ATOM_COUNT>
29

> <PUBCHEM_ATOM_DEF_STEREO_COUNT>
1

> <PUBCHEM_ATOM_UDEF_STEREO_COUNT>
0

> <PUBCHEM_BOND_DEF_STEREO_COUNT>
1

> <PUBCHEM_BOND_UDEF_STEREO_COUNT>
0

> <PUBCHEM_ISOTOPIC_ATOM_COUNT>
0

> <PUBCHEM_COMPONENT_COUNT>
1

> <PUBCHEM_CACTVS_TAUTO_COUNT>
6

> <PUBCHEM_CONFORMER_ID>
01799E3D00000002

> <PUBCHEM_MMFF94_ENERGY>
80.6783

> <PUBCHEM_FEATURE_SELFOVERLAP>
40.675

> <PUBCHEM_SHAPE_FINGERPRINT>
10 15 18343020000143153530
10076449 9 15791733014123687671
106641 1 18272653467140501978
11135609 99 18042697272472158379
11135926 11 18335688417886742550
12236239 1 18342738541597296926
12597179 24 15554451790441697573
12741549 16 17168141243481557805
13140716 1 17916585491793751585
13540713 5 17843116176059671893
13947920 75 16916775293491328695
14955137 171 18411428318814169924
15131766 46 17026862949992415020
15849732 13 18411983554852996157
17980427 23 17203038698801503589
18336668 15 18410572903200001149
21236236 1 17704063032112129310
21267235 1 18335144176625479568
21792961 116 17313652773086421678
22224240 67 18411418410735984194
23559900 14 17459762604167476577
23622692 88 18202284710056999261
25147074 1 18058166309440753133
2838139 119 14692564412347561976
3009799 131 8286192852108593978
4340502 62 16630531709022954734
5104073 3 17917138524862768290
59682541 35 18342739649862468306
59755656 520 18040150721521054162
6009941 240 17676766479463860037
6691757 9 17203888583151877823
9896288 288 18054512409353926144

> <PUBCHEM_SHAPE_MULTIPOLES>
566.33
19.6
2.21
1.63
24.35
0.61
-0.94
-6.8
10.5
-0.65
-0.6
-2.13
-0.44
-0.48

> <PUBCHEM_SHAPE_SELFOVERLAP>
1190.574

> <PUBCHEM_SHAPE_VOLUME>
320.7

> <PUBCHEM_COORDINATE_TYPE>
2
5
10

$$$$
