6464588
  -OEChem-01171809433D

 31 32  0     0  0  0  0  0  0999 V2000
    3.7739   -2.8739    0.0002 Cl  0  0  0  0  0  0  0  0  0  0  0  0
    0.9286    1.6479   -0.0007 O   0  0  0  0  0  0  0  0  0  0  0  0
   -6.4180   -0.3712    0.0016 O   0  0  0  0  0  0  0  0  0  0  0  0
   -5.1623   -2.2657    0.0000 O   0  0  0  0  0  0  0  0  0  0  0  0
   -0.4014   -0.2810   -0.0003 N   0  0  0  0  0  0  0  0  0  0  0  0
    1.8998   -0.4795   -0.0007 N   0  0  0  0  0  0  0  0  0  0  0  0
   -1.6999    0.2298   -0.0002 C   0  0  0  0  0  0  0  0  0  0  0  0
   -2.7915   -0.6386   -0.0002 C   0  0  0  0  0  0  0  0  0  0  0  0
    3.2843   -0.1881   -0.0010 C   0  0  0  0  0  0  0  0  0  0  0  0
   -4.0894   -0.1273    0.0000 C   0  0  0  0  0  0  0  0  0  0  0  0
   -1.9063    1.6094   -0.0003 C   0  0  0  0  0  0  0  0  0  0  0  0
    0.8261    0.4253   -0.0007 C   0  0  0  0  0  0  0  0  0  0  0  0
   -4.2956    1.2523    0.0000 C   0  0  0  0  0  0  0  0  0  0  0  0
   -3.2041    2.1206    0.0000 C   0  0  0  0  0  0  0  0  0  0  0  0
    4.2251   -1.2063   -0.0006 C   0  0  0  0  0  0  0  0  0  0  0  0
    3.6681    1.1447   -0.0002 C   0  0  0  0  0  0  0  0  0  0  0  0
    5.5824   -0.8845    0.0005 C   0  0  0  0  0  0  0  0  0  0  0  0
    5.0255    1.4663    0.0010 C   0  0  0  0  0  0  0  0  0  0  0  0
    5.9826    0.4517    0.0015 C   0  0  0  0  0  0  0  0  0  0  0  0
   -5.2279   -1.0320    0.0001 C   0  0  0  0  0  0  0  0  0  0  0  0
   -2.6242   -1.7135   -0.0003 H   0  0  0  0  0  0  0  0  0  0  0  0
   -0.3307   -1.2955   -0.0003 H   0  0  0  0  0  0  0  0  0  0  0  0
   -1.1163    2.3466   -0.0004 H   0  0  0  0  0  0  0  0  0  0  0  0
    1.6656   -1.4691   -0.0008 H   0  0  0  0  0  0  0  0  0  0  0  0
   -5.2885    1.6930    0.0001 H   0  0  0  0  0  0  0  0  0  0  0  0
   -3.3656    3.1948    0.0001 H   0  0  0  0  0  0  0  0  0  0  0  0
    3.0042    1.9946   -0.0002 H   0  0  0  0  0  0  0  0  0  0  0  0
    6.3412   -1.6631    0.0010 H   0  0  0  0  0  0  0  0  0  0  0  0
    5.3390    2.5063    0.0017 H   0  0  0  0  0  0  0  0  0  0  0  0
    7.0394    0.7023    0.0025 H   0  0  0  0  0  0  0  0  0  0  0  0
   -7.1791   -0.9901    0.0022 H   0  0  0  0  0  0  0  0  0  0  0  0
  1 15  1  0  0  0  0
  2 12  2  0  0  0  0
  3 20  1  0  0  0  0
  3 31  1  0  0  0  0
  4 20  2  0  0  0  0
  5  7  1  0  0  0  0
  5 12  1  0  0  0  0
  5 22  1  0  0  0  0
  6  9  1  0  0  0  0
  6 12  1  0  0  0  0
  6 24  1  0  0  0  0
  7  8  1  0  0  0  0
  7 11  2  0  0  0  0
  8 10  2  0  0  0  0
  8 21  1  0  0  0  0
  9 15  1  0  0  0  0
  9 16  2  0  0  0  0
 10 13  1  0  0  0  0
 10 20  1  0  0  0  0
 11 14  1  0  0  0  0
 11 23  1  0  0  0  0
 13 14  2  0  0  0  0
 13 25  1  0  0  0  0
 14 26  1  0  0  0  0
 15 17  2  0  0  0  0
 16 18  1  0  0  0  0
 16 27  1  0  0  0  0
 17 19  1  0  0  0  0
 17 28  1  0  0  0  0
 18 19  2  0  0  0  0
 18 29  1  0  0  0  0
 19 30  1  0  0  0  0
M  END
> <PUBCHEM_COMPOUND_CID>
6464588

> <PUBCHEM_CONFORMER_RMSD>
0.8

> <PUBCHEM_CONFORMER_DIVERSEORDER>
1
14
7
9
8
13
12
5
16
10
4
11
15
6
3
2

> <PUBCHEM_MMFF94_PARTIAL_CHARGES>
31
1 -0.18
10 0.09
11 -0.15
12 0.69
13 -0.15
14 -0.15
15 0.18
16 -0.15
17 -0.15
18 -0.15
19 -0.15
2 -0.57
20 0.63
21 0.15
22 0.37
23 0.15
24 0.37
25 0.15
26 0.15
27 0.15
28 0.15
29 0.15
3 -0.65
30 0.15
31 0.5
4 -0.57
5 -0.55
6 -0.55
7 0.12
8 -0.15
9 0.12

> <PUBCHEM_EFFECTIVE_ROTOR_COUNT>
5

> <PUBCHEM_PHARMACOPHORE_FEATURES>
8
1 2 acceptor
1 3 acceptor
1 4 acceptor
1 5 donor
1 6 donor
3 3 4 20 anion
6 7 8 10 11 13 14 rings
6 9 15 16 17 18 19 rings

> <PUBCHEM_HEAVY_ATOM_COUNT>
20

> <PUBCHEM_ATOM_DEF_STEREO_COUNT>
0

> <PUBCHEM_ATOM_UDEF_STEREO_COUNT>
0

> <PUBCHEM_BOND_DEF_STEREO_COUNT>
0

> <PUBCHEM_BOND_UDEF_STEREO_COUNT>
0

> <PUBCHEM_ISOTOPIC_ATOM_COUNT>
0

> <PUBCHEM_COMPONENT_COUNT>
1

> <PUBCHEM_CACTVS_TAUTO_COUNT>
3

> <PUBCHEM_CONFORMER_ID>
0062A44C00000001

> <PUBCHEM_MMFF94_ENERGY>
65.6277

> <PUBCHEM_FEATURE_SELFOVERLAP>
40.701

> <PUBCHEM_SHAPE_FINGERPRINT>
10595046 47 18410012134999983360
11287383 113 18411700989228924768
11315181 36 18040720285428256881
11524674 6 16415481580047981423
12107183 9 17619350909694505672
12166972 35 18333735732258848092
12236239 1 18260547822628202460
12516196 113 18273213110096023976
12596602 18 17632581552207743810
12616971 3 14548730720786803224
13073987 5 18341331102421356536
13167823 11 18411979126831689918
13288520 33 18411700993814120333
13533116 47 18413107247331602746
1420 363 18410296925506687275
14251718 22 18407759248459267520
14251732 16 18340205288508759696
14341114 176 18411705378464013597
14461889 52 18338512062551562554
14528608 73 18408609175849245292
15196674 1 18410573946512615204
17492 89 18197216949818091486
17834072 33 18410573989736549316
17844677 252 18411989035358288456
17857418 61 18410572890114489531
1813 80 17168150001072198748
19489759 90 17748825215794192625
200 152 18272931622160402409
20645477 70 18341614768385412462
21065198 48 18341334396550398776
21236236 1 18413108334512229457
21267235 1 18411426115316267652
21315763 129 18408038490501727948
220451 1 18337963311005504162
23402539 116 18408881850189877701
23522609 53 18126596559127568641
23536379 177 18411138021810856297
23559900 14 18337383959231771849
239999 70 18201726124703136414
3004659 81 18261393321959398506
314194 84 18272365399431429967
335352 9 18410853275187411117
34797466 226 17632023039319873508
3545911 37 18410856564472950500
4073 2 18186526526619400506
4214541 1 18410855425826802977
4325135 7 18409450306043465692
465052 167 18131073714904314246
474229 33 18342458162006493703
5104073 3 18342737373424390840
542803 24 17346600763787473016
67856867 119 18262241147908173485
7495541 125 17917708041293781240
77779 3 18410856521254271656
9709674 26 18335427845945791962

> <PUBCHEM_SHAPE_MULTIPOLES>
385.89
16.02
2.26
0.6
1.95
0.8
0
3.61
0.01
-0.26
0
-0.06
0
0

> <PUBCHEM_SHAPE_SELFOVERLAP>
820.779

> <PUBCHEM_SHAPE_VOLUME>
213.5

> <PUBCHEM_COORDINATE_TYPE>
2
5
10

$$$$
