16446988
  -OEChem-01171810043D

 43 45  0     0  0  0  0  0  0999 V2000
    2.8684   -4.2261    0.1920 Cl  0  0  0  0  0  0  0  0  0  0  0  0
   -2.6082   -1.4003   -0.0464 S   0  0  0  0  0  0  0  0  0  0  0  0
    6.4836    3.7804    0.0538 F   0  0  0  0  0  0  0  0  0  0  0  0
   -3.0438   -1.4368   -1.4321 O   0  0  0  0  0  0  0  0  0  0  0  0
   -3.4428   -1.9722    0.9968 O   0  0  0  0  0  0  0  0  0  0  0  0
    3.1075   -1.5434   -1.4600 O   0  0  0  0  0  0  0  0  0  0  0  0
    0.0415   -1.4370   -0.2591 N   0  0  0  0  0  0  0  0  0  0  0  0
   -1.0345   -3.5078    0.3416 N   0  0  0  0  0  0  0  0  0  0  0  0
    2.5527   -0.1219    0.3223 N   0  0  0  0  0  0  0  0  0  0  0  0
   -2.2589    0.2709    0.3961 C   0  0  0  0  0  0  0  0  0  0  0  0
   -3.5419    1.0308    0.3680 C   0  0  0  0  0  0  0  0  0  0  0  0
   -3.9576    1.6550   -0.8083 C   0  0  0  0  0  0  0  0  0  0  0  0
   -1.0325   -2.2004    0.0190 C   0  0  0  0  0  0  0  0  0  0  0  0
   -4.3267    1.1168    1.5179 C   0  0  0  0  0  0  0  0  0  0  0  0
   -5.1582    2.3647   -0.8344 C   0  0  0  0  0  0  0  0  0  0  0  0
   -5.5272    1.8268    1.4917 C   0  0  0  0  0  0  0  0  0  0  0  0
   -5.9428    2.4508    0.3156 C   0  0  0  0  0  0  0  0  0  0  0  0
    1.2269   -2.0788   -0.2000 C   0  0  0  0  0  0  0  0  0  0  0  0
   -5.6028    3.0323   -2.0917 C   0  0  0  0  0  0  0  0  0  0  0  0
    1.3604   -3.4149    0.1185 C   0  0  0  0  0  0  0  0  0  0  0  0
    0.1838   -4.0861    0.3824 C   0  0  0  0  0  0  0  0  0  0  0  0
    2.3787   -1.2408   -0.5027 C   0  0  0  0  0  0  0  0  0  0  0  0
    3.5569    0.8748    0.2540 C   0  0  0  0  0  0  0  0  0  0  0  0
    4.5393    0.8085   -0.7342 C   0  0  0  0  0  0  0  0  0  0  0  0
    3.5634    1.9227    1.1746 C   0  0  0  0  0  0  0  0  0  0  0  0
    5.5280    1.7900   -0.8016 C   0  0  0  0  0  0  0  0  0  0  0  0
    4.5522    2.9043    1.1072 C   0  0  0  0  0  0  0  0  0  0  0  0
    5.5346    2.8378    0.1191 C   0  0  0  0  0  0  0  0  0  0  0  0
   -1.5429    0.6903   -0.3174 H   0  0  0  0  0  0  0  0  0  0  0  0
   -1.8068    0.2847    1.3929 H   0  0  0  0  0  0  0  0  0  0  0  0
   -3.3458    1.5907   -1.7051 H   0  0  0  0  0  0  0  0  0  0  0  0
   -4.0143    0.6361    2.4413 H   0  0  0  0  0  0  0  0  0  0  0  0
   -6.1378    1.8941    2.3873 H   0  0  0  0  0  0  0  0  0  0  0  0
   -6.8790    3.0025    0.3087 H   0  0  0  0  0  0  0  0  0  0  0  0
   -6.6949    3.1033   -2.1384 H   0  0  0  0  0  0  0  0  0  0  0  0
   -5.2811    2.4667   -2.9728 H   0  0  0  0  0  0  0  0  0  0  0  0
   -5.1838    4.0418   -2.1494 H   0  0  0  0  0  0  0  0  0  0  0  0
    0.1749   -5.1400    0.6431 H   0  0  0  0  0  0  0  0  0  0  0  0
    1.8733    0.0054    1.0699 H   0  0  0  0  0  0  0  0  0  0  0  0
    4.6011    0.0301   -1.4811 H   0  0  0  0  0  0  0  0  0  0  0  0
    2.8037    1.9864    1.9495 H   0  0  0  0  0  0  0  0  0  0  0  0
    6.2935    1.7400   -1.5704 H   0  0  0  0  0  0  0  0  0  0  0  0
    4.5576    3.7204    1.8236 H   0  0  0  0  0  0  0  0  0  0  0  0
  1 20  1  0  0  0  0
  2  4  2  0  0  0  0
  2  5  2  0  0  0  0
  2 10  1  0  0  0  0
  2 13  1  0  0  0  0
  3 28  1  0  0  0  0
  6 22  2  0  0  0  0
  7 13  1  0  0  0  0
  7 18  2  0  0  0  0
  8 13  2  0  0  0  0
  8 21  1  0  0  0  0
  9 22  1  0  0  0  0
  9 23  1  0  0  0  0
  9 39  1  0  0  0  0
 10 11  1  0  0  0  0
 10 29  1  0  0  0  0
 10 30  1  0  0  0  0
 11 12  1  0  0  0  0
 11 14  2  0  0  0  0
 12 15  2  0  0  0  0
 12 31  1  0  0  0  0
 14 16  1  0  0  0  0
 14 32  1  0  0  0  0
 15 17  1  0  0  0  0
 15 19  1  0  0  0  0
 16 17  2  0  0  0  0
 16 33  1  0  0  0  0
 17 34  1  0  0  0  0
 18 20  1  0  0  0  0
 18 22  1  0  0  0  0
 19 35  1  0  0  0  0
 19 36  1  0  0  0  0
 19 37  1  0  0  0  0
 20 21  2  0  0  0  0
 21 38  1  0  0  0  0
 23 24  2  0  0  0  0
 23 25  1  0  0  0  0
 24 26  1  0  0  0  0
 24 40  1  0  0  0  0
 25 27  2  0  0  0  0
 25 41  1  0  0  0  0
 26 28  2  0  0  0  0
 26 42  1  0  0  0  0
 27 28  1  0  0  0  0
 27 43  1  0  0  0  0
M  END
> <PUBCHEM_COMPOUND_CID>
16446988

> <PUBCHEM_CONFORMER_RMSD>
0.8

> <PUBCHEM_CONFORMER_DIVERSEORDER>
1
143
141
163
120
203
182
198
35
246
249
126
13
215
116
103
129
26
23
254
253
6
255
68
145
196
216
58
2
131
228
149
22
160
231
245
152
137
30
63
57
101
173
102
76
20
133
197
67
113
213
206
118
210
157
122
177
54
223
19
155
144
96
79
12
134
251
47
220
232
200
179
158
221
236
91
199
29
222
132
72
128
218
4
201
92
176
114
124
140
194
211
127
82
189
226
56
208
98
240
90
62
49
78
243
64
55
250
142
174
233
85
238
204
181
178
97
104
84
235
38
53
183
159
106
99
248
169
27
252
135
108
3
31
242
175
214
130
136
109
148
230
110
162
81
115
44
205
184
224
18
180
225
150
195
156
70
247
33
41
188
107
5
16
111
112
151
202
153
227
7
212
87
219
139
83
73
154
100
65
209
146
168
123
229
191
165
237
80
244
193
69
207
46
11
187
39
164
59
241
239
121
43
93
125
77
74
192
186
15
42
190
234
25
86
172
166
217
171
185
8
60
10
66
45
32
147
36
48
95
94
52
40
14
71
37
24
138
34
61
161
167
119
117
170
21
88
28
50
9
51
89
75
17
105

> <PUBCHEM_MMFF94_PARTIAL_CHARGES>
38
1 -0.18
10 0.25
11 -0.14
12 -0.15
13 0.61
14 -0.15
15 -0.14
16 -0.15
17 -0.15
18 0.4
19 0.14
2 1.2
20 0.18
21 0.16
22 0.54
23 0.12
24 -0.15
25 -0.15
26 -0.15
27 -0.15
28 0.19
3 -0.19
31 0.15
32 0.15
33 0.15
34 0.15
38 0.15
39 0.37
4 -0.65
40 0.15
41 0.15
42 0.15
43 0.15
5 -0.65
6 -0.57
7 -0.62
8 -0.62
9 -0.55

> <PUBCHEM_EFFECTIVE_ROTOR_COUNT>
6

> <PUBCHEM_PHARMACOPHORE_FEATURES>
9
1 4 acceptor
1 5 acceptor
1 6 acceptor
1 7 acceptor
1 9 donor
3 7 8 13 cation
6 11 12 14 15 16 17 rings
6 23 24 25 26 27 28 rings
6 7 8 13 18 20 21 rings

> <PUBCHEM_HEAVY_ATOM_COUNT>
28

> <PUBCHEM_ATOM_DEF_STEREO_COUNT>
0

> <PUBCHEM_ATOM_UDEF_STEREO_COUNT>
0

> <PUBCHEM_BOND_DEF_STEREO_COUNT>
0

> <PUBCHEM_BOND_UDEF_STEREO_COUNT>
0

> <PUBCHEM_ISOTOPIC_ATOM_COUNT>
0

> <PUBCHEM_COMPONENT_COUNT>
1

> <PUBCHEM_CACTVS_TAUTO_COUNT>
2

> <PUBCHEM_CONFORMER_ID>
00FAF60C00000001

> <PUBCHEM_MMFF94_ENERGY>
72.4769

> <PUBCHEM_FEATURE_SELFOVERLAP>
45.69

> <PUBCHEM_SHAPE_FINGERPRINT>
10937287 8 18411697694646552587
11135609 201 18339643446757101995
12107183 9 18335404800111098690
12390115 104 18341343282811275889
12422481 6 17603301531584744724
12769317 202 18343298137302781032
13590594 115 17691686688759472466
13878862 14 18045765819987154309
13965767 371 18040988536580458582
14251764 75 18271253729110110865
14347329 18 18268988859890337664
14848178 96 18341891866093927857
14849402 71 18266744571737134306
15082195 135 18200013067995878431
15980000 95 17691410711968836414
16120349 189 18334288798980584877
1768 210 18270948142187188797
1768 85 18266186041600037481
17980427 26 18340758278744862886
21033648 144 18337955585082006063
21033648 29 18270114755439071792
21049683 118 17458907025196656867
21133410 127 18113900416725736180
21279426 13 18200607964316519180
21388113 180 18262792965580793413
22122407 14 17909845232471656681
23559900 14 18196649597201497091
23569914 2 17099145699602483341
23845131 108 18334862705928620443
283562 15 18194395821940505075
3418910 222 16892022276226637420
376196 1 18411983563649470990
508706 21 18197212774808809792
5252454 2 18341608213658527329
57124632 79 18337384942198670234
57724786 102 18126292947988725217
6697151 62 17467333540573079827
7288768 16 18187085095843505315
7808743 9 18266178507937165528
9849439 229 18407760347844190935
9981440 41 18336825411240313618

> <PUBCHEM_SHAPE_MULTIPOLES>
542.12
15.26
5.93
1.32
3.57
3.35
-0.18
-22.21
-0.77
-5.69
0.27
1.47
-0.81
1.56

> <PUBCHEM_SHAPE_SELFOVERLAP>
1152.644

> <PUBCHEM_SHAPE_VOLUME>
305.4

> <PUBCHEM_COORDINATE_TYPE>
2
5
10

$$$$
