44142134
  -OEChem-01171810103D

 35 38  0     0  0  0  0  0  0999 V2000
    3.2970    2.9134    1.1407 S   0  0  0  0  0  0  0  0  0  0  0  0
    0.9275   -1.1031   -1.4946 S   0  0  0  0  0  0  0  0  0  0  0  0
   -4.9732    1.3237   -1.2448 F   0  0  0  0  0  0  0  0  0  0  0  0
   -4.7520   -0.6114   -0.2781 F   0  0  0  0  0  0  0  0  0  0  0  0
   -5.1632    1.1528    0.9145 F   0  0  0  0  0  0  0  0  0  0  0  0
    4.7194    1.0577   -0.1368 N   0  0  0  0  0  0  0  0  0  0  0  0
    3.5648   -0.7254   -1.3056 N   0  0  0  0  0  0  0  0  0  0  0  0
   -0.3429   -3.1638   -0.1173 N   0  0  0  0  0  0  0  0  0  0  0  0
    1.3844   -2.3900    0.9411 N   0  0  0  0  0  0  0  0  0  0  0  0
   -0.2717   -3.8809    1.0128 N   0  0  0  0  0  0  0  0  0  0  0  0
    0.7869   -3.4034    1.6560 N   0  0  0  0  0  0  0  0  0  0  0  0
    1.1847    1.6781    0.3613 C   0  0  0  0  0  0  0  0  0  0  0  0
    2.2843    0.9303   -0.1656 C   0  0  0  0  0  0  0  0  0  0  0  0
   -0.2306    1.4339    0.2316 C   0  0  0  0  0  0  0  0  0  0  0  0
    3.4941    1.5095    0.1947 C   0  0  0  0  0  0  0  0  0  0  0  0
    1.5928    2.7757    1.0876 C   0  0  0  0  0  0  0  0  0  0  0  0
    2.3623   -0.2288   -0.9446 C   0  0  0  0  0  0  0  0  0  0  0  0
   -0.9395    1.9884   -0.8342 C   0  0  0  0  0  0  0  0  0  0  0  0
   -0.8908    0.6437    1.1726 C   0  0  0  0  0  0  0  0  0  0  0  0
   -2.9689    0.9620   -0.0182 C   0  0  0  0  0  0  0  0  0  0  0  0
   -2.3086    1.7523   -0.9592 C   0  0  0  0  0  0  0  0  0  0  0  0
   -2.2600    0.4078    1.0476 C   0  0  0  0  0  0  0  0  0  0  0  0
   -4.4327    0.7107   -0.1516 C   0  0  0  0  0  0  0  0  0  0  0  0
    4.6574   -0.0588   -0.8840 C   0  0  0  0  0  0  0  0  0  0  0  0
    0.6693   -2.2584   -0.1523 C   0  0  0  0  0  0  0  0  0  0  0  0
   -1.3911   -3.4158   -1.0737 C   0  0  0  0  0  0  0  0  0  0  0  0
    0.9817    3.5107    1.5948 H   0  0  0  0  0  0  0  0  0  0  0  0
   -0.4397    2.6060   -1.5768 H   0  0  0  0  0  0  0  0  0  0  0  0
   -0.3533    0.2038    2.0095 H   0  0  0  0  0  0  0  0  0  0  0  0
   -2.8422    2.1929   -1.7967 H   0  0  0  0  0  0  0  0  0  0  0  0
   -2.7653   -0.2102    1.7851 H   0  0  0  0  0  0  0  0  0  0  0  0
    5.6105   -0.4779   -1.1871 H   0  0  0  0  0  0  0  0  0  0  0  0
   -0.9336   -3.7013   -2.0239 H   0  0  0  0  0  0  0  0  0  0  0  0
   -2.0280   -4.2277   -0.7126 H   0  0  0  0  0  0  0  0  0  0  0  0
   -1.9842   -2.5049   -1.1861 H   0  0  0  0  0  0  0  0  0  0  0  0
  1 15  1  0  0  0  0
  1 16  1  0  0  0  0
  2 17  1  0  0  0  0
  2 25  1  0  0  0  0
  3 23  1  0  0  0  0
  4 23  1  0  0  0  0
  5 23  1  0  0  0  0
  6 15  1  0  0  0  0
  6 24  2  0  0  0  0
  7 17  2  0  0  0  0
  7 24  1  0  0  0  0
  8 10  1  0  0  0  0
  8 25  1  0  0  0  0
  8 26  1  0  0  0  0
  9 11  1  0  0  0  0
  9 25  2  0  0  0  0
 10 11  2  0  0  0  0
 12 13  1  0  0  0  0
 12 14  1  0  0  0  0
 12 16  2  0  0  0  0
 13 15  2  0  0  0  0
 13 17  1  0  0  0  0
 14 18  2  0  0  0  0
 14 19  1  0  0  0  0
 16 27  1  0  0  0  0
 18 21  1  0  0  0  0
 18 28  1  0  0  0  0
 19 22  2  0  0  0  0
 19 29  1  0  0  0  0
 20 21  2  0  0  0  0
 20 22  1  0  0  0  0
 20 23  1  0  0  0  0
 21 30  1  0  0  0  0
 22 31  1  0  0  0  0
 24 32  1  0  0  0  0
 26 33  1  0  0  0  0
 26 34  1  0  0  0  0
 26 35  1  0  0  0  0
M  END
> <PUBCHEM_COMPOUND_CID>
44142134

> <PUBCHEM_CONFORMER_RMSD>
0.8

> <PUBCHEM_CONFORMER_DIVERSEORDER>
1
9
4
8
10
5
2
11
7
3
6

> <PUBCHEM_MMFF94_PARTIAL_CHARGES>
30
1 -0.08
10 -0.42
12 -0.05
14 0.05
15 0.3
16 -0.11
17 0.41
18 -0.15
19 -0.15
2 -0.16
20 -0.14
21 -0.15
22 -0.15
23 1.16
24 0.47
25 0.24
26 0.26
27 0.15
28 0.15
29 0.15
3 -0.34
30 0.15
31 0.15
32 0.15
4 -0.34
5 -0.34
6 -0.57
7 -0.62
8 0.31
9 -0.34

> <PUBCHEM_EFFECTIVE_ROTOR_COUNT>
4

> <PUBCHEM_PHARMACOPHORE_FEATURES>
7
1 7 acceptor
3 6 7 24 cation
3 8 9 25 cation
5 1 12 13 15 16 rings
5 8 9 10 11 25 rings
6 14 18 19 20 21 22 rings
6 6 7 13 15 17 24 rings

> <PUBCHEM_HEAVY_ATOM_COUNT>
26

> <PUBCHEM_ATOM_DEF_STEREO_COUNT>
0

> <PUBCHEM_ATOM_UDEF_STEREO_COUNT>
0

> <PUBCHEM_BOND_DEF_STEREO_COUNT>
0

> <PUBCHEM_BOND_UDEF_STEREO_COUNT>
0

> <PUBCHEM_ISOTOPIC_ATOM_COUNT>
0

> <PUBCHEM_COMPONENT_COUNT>
1

> <PUBCHEM_CACTVS_TAUTO_COUNT>
1

> <PUBCHEM_CONFORMER_ID>
02A18E3600000001

> <PUBCHEM_MMFF94_ENERGY>
52.4556

> <PUBCHEM_FEATURE_SELFOVERLAP>
35.603

> <PUBCHEM_SHAPE_FINGERPRINT>
104564 63 17548703340561540220
10688039 33 17543069434396604427
108634 29 18196659703169691942
10930396 42 18265028308070947712
1100329 8 18337944606956401378
11370993 70 18342173422912484841
11578080 2 15911623882365371994
12156800 1 17767930445507491515
12236239 1 16487539143494032244
12553582 1 17187853012886426791
12592029 89 18409162177867105457
12730499 353 18335986381284697673
12788726 201 17617642702152861922
13140716 1 18129091407298825552
13149001 5 18199207211919244860
14787075 74 18343305872670853948
16728300 4 17462538643357077626
17134984 74 18195219283815144111
17138139 8 17555983087296331351
17357779 13 17695625543258047590
19591789 44 18410572894235045719
20567600 347 18113620058170613011
20600515 1 16814577006107385438
20642791 13 17836635693042673702
20691752 17 18337091462883572804
20905425 154 18047753689580844700
21033648 29 18337658785262199588
21197605 99 17984707980945153151
21421861 104 17907313047837802889
22393880 68 18412820262185885429
23419403 2 16765689334765915572
23558518 356 17978502358507452308
23559900 14 17757536470100471715
238 59 18410578344648777833
2871803 45 18341334387892204348
3052486 1 18117273868332398542
3060560 45 18408038498680011008
3298306 158 18335133155264553441
3383291 50 18126573323950732798
4340502 62 18272089439630544713
469060 322 17532075263301638367
5283268 108 17470459889626408026
59755656 215 18333448743055227849
6669772 16 18339912793131030634
70251023 43 17623306978280370351
81228 2 17904198479393691370
9896288 288 17406254544848201042

> <PUBCHEM_SHAPE_MULTIPOLES>
491.06
8.21
4.29
1.38
4.47
4.4
0.07
-4.91
-1.41
-0.11
1.32
-0.09
0.41
0.91

> <PUBCHEM_SHAPE_SELFOVERLAP>
1064.521

> <PUBCHEM_SHAPE_VOLUME>
275.1

> <PUBCHEM_COORDINATE_TYPE>
2
5
10

$$$$
