25237178
  -OEChem-01171810073D

 40 41  0     0  0  0  0  0  0999 V2000
   -0.2902   -1.6398   -0.1579 O   0  0  0  0  0  0  0  0  0  0  0  0
    5.3488    3.2523   -0.0823 O   0  0  0  0  0  0  0  0  0  0  0  0
    4.6653    0.7833   -1.0959 N   0  0  0  0  0  0  0  0  0  0  0  0
    4.1850    1.2485    0.0798 N   0  0  0  0  0  0  0  0  0  0  0  0
    1.0631   -1.7684    0.0194 C   0  0  0  0  0  0  0  0  0  0  0  0
    3.3206   -1.1672   -0.5958 C   0  0  0  0  0  0  0  0  0  0  0  0
    1.9438   -1.0358   -0.7764 C   0  0  0  0  0  0  0  0  0  0  0  0
   -0.7592   -0.3821   -0.6233 C   0  0  0  0  0  0  0  0  0  0  0  0
   -4.5731    0.3032   -0.3526 C   0  0  0  0  0  0  0  0  0  0  0  0
    1.5593   -2.6322    0.9958 C   0  0  0  0  0  0  0  0  0  0  0  0
    3.8168   -2.0309    0.3807 C   0  0  0  0  0  0  0  0  0  0  0  0
   -2.1302   -0.1479   -0.0745 C   0  0  0  0  0  0  0  0  0  0  0  0
   -3.2254    0.0578   -0.8413 C   0  0  0  0  0  0  0  0  0  0  0  0
    2.9362   -2.7635    1.1765 C   0  0  0  0  0  0  0  0  0  0  0  0
   -4.9212   -0.0597    0.9484 C   0  0  0  0  0  0  0  0  0  0  0  0
   -5.5172    0.9036   -1.1854 C   0  0  0  0  0  0  0  0  0  0  0  0
    4.2392   -0.4039   -1.4257 C   0  0  0  0  0  0  0  0  0  0  0  0
   -6.2134    0.1780    1.4167 C   0  0  0  0  0  0  0  0  0  0  0  0
   -6.8094    1.1413   -0.7172 C   0  0  0  0  0  0  0  0  0  0  0  0
   -7.1576    0.7786    0.5839 C   0  0  0  0  0  0  0  0  0  0  0  0
    4.5813    2.4986    0.5116 C   0  0  0  0  0  0  0  0  0  0  0  0
    3.9374    2.8860    1.8154 C   0  0  0  0  0  0  0  0  0  0  0  0
    1.5884   -0.3761   -1.5635 H   0  0  0  0  0  0  0  0  0  0  0  0
   -0.1338    0.4467   -0.2664 H   0  0  0  0  0  0  0  0  0  0  0  0
   -0.7634   -0.3836   -1.7194 H   0  0  0  0  0  0  0  0  0  0  0  0
    0.8779   -3.2051    1.6188 H   0  0  0  0  0  0  0  0  0  0  0  0
    4.8878   -2.1408    0.5301 H   0  0  0  0  0  0  0  0  0  0  0  0
   -2.1927   -0.1234    1.0097 H   0  0  0  0  0  0  0  0  0  0  0  0
   -3.1067    0.0546   -1.9229 H   0  0  0  0  0  0  0  0  0  0  0  0
    3.3224   -3.4358    1.9369 H   0  0  0  0  0  0  0  0  0  0  0  0
   -4.2260   -0.5475    1.6253 H   0  0  0  0  0  0  0  0  0  0  0  0
   -5.2641    1.1949   -2.2020 H   0  0  0  0  0  0  0  0  0  0  0  0
    4.5814   -0.8587   -2.3692 H   0  0  0  0  0  0  0  0  0  0  0  0
   -6.4865   -0.1084    2.4282 H   0  0  0  0  0  0  0  0  0  0  0  0
   -7.5447    1.6090   -1.3655 H   0  0  0  0  0  0  0  0  0  0  0  0
   -8.1640    0.9628    0.9482 H   0  0  0  0  0  0  0  0  0  0  0  0
    3.5390    0.6961    0.6299 H   0  0  0  0  0  0  0  0  0  0  0  0
    3.9417    2.0425    2.5118 H   0  0  0  0  0  0  0  0  0  0  0  0
    4.4924    3.7127    2.2675 H   0  0  0  0  0  0  0  0  0  0  0  0
    2.9064    3.1998    1.6312 H   0  0  0  0  0  0  0  0  0  0  0  0
  1  5  1  0  0  0  0
  1  8  1  0  0  0  0
  2 21  2  0  0  0  0
  3  4  1  0  0  0  0
  3 17  2  0  0  0  0
  4 21  1  0  0  0  0
  4 37  1  0  0  0  0
  5  7  1  0  0  0  0
  5 10  2  0  0  0  0
  6  7  2  0  0  0  0
  6 11  1  0  0  0  0
  6 17  1  0  0  0  0
  7 23  1  0  0  0  0
  8 12  1  0  0  0  0
  8 24  1  0  0  0  0
  8 25  1  0  0  0  0
  9 13  1  0  0  0  0
  9 15  2  0  0  0  0
  9 16  1  0  0  0  0
 10 14  1  0  0  0  0
 10 26  1  0  0  0  0
 11 14  2  0  0  0  0
 11 27  1  0  0  0  0
 12 13  2  0  0  0  0
 12 28  1  0  0  0  0
 13 29  1  0  0  0  0
 14 30  1  0  0  0  0
 15 18  1  0  0  0  0
 15 31  1  0  0  0  0
 16 19  2  0  0  0  0
 16 32  1  0  0  0  0
 17 33  1  0  0  0  0
 18 20  2  0  0  0  0
 18 34  1  0  0  0  0
 19 20  1  0  0  0  0
 19 35  1  0  0  0  0
 20 36  1  0  0  0  0
 21 22  1  0  0  0  0
 22 38  1  0  0  0  0
 22 39  1  0  0  0  0
 22 40  1  0  0  0  0
M  END
> <PUBCHEM_COMPOUND_CID>
25237178

> <PUBCHEM_CONFORMER_RMSD>
1

> <PUBCHEM_CONFORMER_DIVERSEORDER>
1
31
60
65
74
89
45
25
64
13
73
48
78
18
66
5
62
23
84
15
53
40
8
4
75
47
41
87
67
77
55
27
82
10
88
91
2
6
56
76
70
12
58
14
86
32
3
50
33
22
61
34
72
46
21
54
52
69
68
44
90
11
35
16
37
85
57
26
24
17
42
71
51
79
19
29
28
43
9
80
30
7
20
81
38
83
39
63
49
36
92
59

> <PUBCHEM_MMFF94_PARTIAL_CHARGES>
35
1 -0.36
10 -0.15
11 -0.15
12 -0.29
13 -0.18
14 -0.15
15 -0.15
16 -0.15
17 0.3
18 -0.15
19 -0.15
2 -0.57
20 -0.15
21 0.57
22 0.06
23 0.15
26 0.15
27 0.15
28 0.15
29 0.15
3 -0.51
30 0.15
31 0.15
32 0.15
33 0.06
34 0.15
35 0.15
36 0.15
37 0.37
4 -0.37
5 0.08
6 0.09
7 -0.15
8 0.42
9 0.03

> <PUBCHEM_EFFECTIVE_ROTOR_COUNT>
7

> <PUBCHEM_PHARMACOPHORE_FEATURES>
6
1 1 acceptor
1 2 acceptor
1 3 acceptor
1 4 donor
6 5 6 7 10 11 14 rings
6 9 15 16 18 19 20 rings

> <PUBCHEM_HEAVY_ATOM_COUNT>
22

> <PUBCHEM_ATOM_DEF_STEREO_COUNT>
0

> <PUBCHEM_ATOM_UDEF_STEREO_COUNT>
0

> <PUBCHEM_BOND_DEF_STEREO_COUNT>
2

> <PUBCHEM_BOND_UDEF_STEREO_COUNT>
0

> <PUBCHEM_ISOTOPIC_ATOM_COUNT>
0

> <PUBCHEM_COMPONENT_COUNT>
1

> <PUBCHEM_CACTVS_TAUTO_COUNT>
2

> <PUBCHEM_CONFORMER_ID>
018116BA00000001

> <PUBCHEM_MMFF94_ENERGY>
75.0795

> <PUBCHEM_FEATURE_SELFOVERLAP>
30.452

> <PUBCHEM_SHAPE_FINGERPRINT>
10165383 225 18113626699055001766
10638233 991 18060420201499577793
10675989 125 17987232408008494136
10835480 77 17676486091493521741
12596602 18 18343308067900262947
12616971 3 18341320103115957559
12730499 353 18260838080929305378
13533116 47 18114464440156625795
13878862 14 18190439628283104804
13955234 65 18261670364150818530
14211702 104 8718527438374197573
14251764 75 18266177430048781616
14461889 52 17676497176445585387
14528608 73 18343017792113426839
146900 427 18410859841285181667
14931854 50 17917444159026029696
15183329 4 16128382592565762881
15475509 35 15936958623466408138
16079462 125 17749102258823362965
17844677 252 17896326805463252903
18335252 114 18131351886998212444
1979834 28 17894633655855383748
21049683 118 18042108994542477738
21344244 78 18123451805869670482
21475661 188 18268708497383924620
22122407 14 18270690753687592329
23559900 14 17386294181564866003
23845131 108 18260267494666892330
239999 70 17897170126060256339
3004659 81 12031782548481841966
3472631 163 18130788992272711158
34797466 226 18059862736139960703
4340502 62 17676209056627135107
437795 51 18270690869477181307
445580 126 18341886407728682032
5104073 3 18259702319920223387
513532 50 14692275301245994872
5312510 48 18273214235340824592
531348 171 7997975648985465691
5372103 7 14978529915691525904
57091435 61 18270391810609545984
59682541 52 17274280400152215348
9658208 31 18115039601108530698

> <PUBCHEM_SHAPE_MULTIPOLES>
431.05
18.42
3.13
1.38
27.32
1.32
-0.22
11.12
-0.92
-8.01
-1.46
-0.14
0.22
0.85

> <PUBCHEM_SHAPE_SELFOVERLAP>
905.542

> <PUBCHEM_SHAPE_VOLUME>
242.2

> <PUBCHEM_COORDINATE_TYPE>
2
5
10

$$$$
