6404641
  -OEChem-01171809233D

 36 38  0     0  0  0  0  0  0999 V2000
   -5.4630    2.8773    0.0009 Cl  0  0  0  0  0  0  0  0  0  0  0  0
   -2.5281   -2.3755    0.0017 S   0  0  0  0  0  0  0  0  0  0  0  0
    0.2919    1.7123    0.0000 O   0  0  0  0  0  0  0  0  0  0  0  0
    4.3042    0.4288    0.0006 O   0  0  0  0  0  0  0  0  0  0  0  0
    2.9055    2.2571   -0.0015 O   0  0  0  0  0  0  0  0  0  0  0  0
   -0.3009   -0.5212   -0.0019 N   0  0  0  0  0  0  0  0  0  0  0  0
    2.3728   -1.2415   -0.0013 N   0  0  0  0  0  0  0  0  0  0  0  0
    1.4164   -2.1932   -0.0022 N   0  0  0  0  0  0  0  0  0  0  0  0
    0.6793    0.3828   -0.0011 C   0  0  0  0  0  0  0  0  0  0  0  0
    2.0003    0.0514   -0.0009 C   0  0  0  0  0  0  0  0  0  0  0  0
    0.1301   -1.7914   -0.0024 C   0  0  0  0  0  0  0  0  0  0  0  0
   -0.8689   -2.8193   -0.0008 C   0  0  0  0  0  0  0  0  0  0  0  0
   -1.0420    1.9825    0.0001 C   0  0  0  0  0  0  0  0  0  0  0  0
   -0.7141   -4.1948   -0.0009 C   0  0  0  0  0  0  0  0  0  0  0  0
   -1.7255    2.1199    1.2082 C   0  0  0  0  0  0  0  0  0  0  0  0
   -1.7256    2.1219   -1.2078 C   0  0  0  0  0  0  0  0  0  0  0  0
    3.0732    1.0285   -0.0010 C   0  0  0  0  0  0  0  0  0  0  0  0
    5.4469    1.2912    0.0019 C   0  0  0  0  0  0  0  0  0  0  0  0
   -1.9624   -4.8816    0.0009 C   0  0  0  0  0  0  0  0  0  0  0  0
   -3.0926    2.3966    1.2084 C   0  0  0  0  0  0  0  0  0  0  0  0
   -3.0927    2.3987   -1.2076 C   0  0  0  0  0  0  0  0  0  0  0  0
   -3.7764    2.5362    0.0005 C   0  0  0  0  0  0  0  0  0  0  0  0
   -3.0311   -4.0124    0.0025 C   0  0  0  0  0  0  0  0  0  0  0  0
    6.7027    0.4458    0.0036 C   0  0  0  0  0  0  0  0  0  0  0  0
    0.2469   -4.6945   -0.0023 H   0  0  0  0  0  0  0  0  0  0  0  0
   -1.1992    2.0134    2.1529 H   0  0  0  0  0  0  0  0  0  0  0  0
   -1.1993    2.0169   -2.1528 H   0  0  0  0  0  0  0  0  0  0  0  0
    5.4257    1.9238   -0.8922 H   0  0  0  0  0  0  0  0  0  0  0  0
    5.4235    1.9241    0.8959 H   0  0  0  0  0  0  0  0  0  0  0  0
   -2.0711   -5.9583    0.0011 H   0  0  0  0  0  0  0  0  0  0  0  0
   -3.6122    2.5008    2.1575 H   0  0  0  0  0  0  0  0  0  0  0  0
   -3.6123    2.5045   -2.1565 H   0  0  0  0  0  0  0  0  0  0  0  0
   -4.0831   -4.2602    0.0041 H   0  0  0  0  0  0  0  0  0  0  0  0
    7.5975    1.0744    0.0047 H   0  0  0  0  0  0  0  0  0  0  0  0
    6.7272   -0.2060    0.8832 H   0  0  0  0  0  0  0  0  0  0  0  0
    6.7294   -0.2062   -0.8757 H   0  0  0  0  0  0  0  0  0  0  0  0
  1 22  1  0  0  0  0
  2 12  1  0  0  0  0
  2 23  1  0  0  0  0
  3  9  1  0  0  0  0
  3 13  1  0  0  0  0
  4 17  1  0  0  0  0
  4 18  1  0  0  0  0
  5 17  2  0  0  0  0
  6  9  1  0  0  0  0
  6 11  2  0  0  0  0
  7  8  2  0  0  0  0
  7 10  1  0  0  0  0
  8 11  1  0  0  0  0
  9 10  2  0  0  0  0
 10 17  1  0  0  0  0
 11 12  1  0  0  0  0
 12 14  2  0  0  0  0
 13 15  2  0  0  0  0
 13 16  1  0  0  0  0
 14 19  1  0  0  0  0
 14 25  1  0  0  0  0
 15 20  1  0  0  0  0
 15 26  1  0  0  0  0
 16 21  2  0  0  0  0
 16 27  1  0  0  0  0
 18 24  1  0  0  0  0
 18 28  1  0  0  0  0
 18 29  1  0  0  0  0
 19 23  2  0  0  0  0
 19 30  1  0  0  0  0
 20 22  2  0  0  0  0
 20 31  1  0  0  0  0
 21 22  1  0  0  0  0
 21 32  1  0  0  0  0
 23 33  1  0  0  0  0
 24 34  1  0  0  0  0
 24 35  1  0  0  0  0
 24 36  1  0  0  0  0
M  END
> <PUBCHEM_COMPOUND_CID>
6404641

> <PUBCHEM_CONFORMER_RMSD>
0.8

> <PUBCHEM_CONFORMER_DIVERSEORDER>
1
77
79
64
89
78
49
34
71
67
60
68
2
7
82
54
36
40
25
55
87
16
14
75
4
15
61
56
84
65
30
70
59
11
45
23
44
41
74
80
48
66
63
88
6
72
12
9
31
27
21
73
35
85
76
39
69
22
57
90
5
51
32
26
28
46
24
53
86
37
47
42
50
10
81
83
33
18
43
19
20
62
38
8
29
58
13
52
3
17

> <PUBCHEM_MMFF94_PARTIAL_CHARGES>
30
1 -0.18
10 0.4
11 0.67
12 -0.01
13 0.08
14 -0.15
15 -0.15
16 -0.15
17 0.63
18 0.28
19 -0.15
2 -0.08
20 -0.15
21 -0.15
22 0.18
23 -0.11
25 0.15
26 0.15
27 0.15
3 -0.17
30 0.15
31 0.15
32 0.15
33 0.15
4 -0.43
5 -0.57
6 -0.62
7 -0.31
8 -0.31
9 0.39

> <PUBCHEM_EFFECTIVE_ROTOR_COUNT>
6

> <PUBCHEM_PHARMACOPHORE_FEATURES>
6
1 3 acceptor
1 5 acceptor
3 6 8 11 cation
5 2 12 14 19 23 rings
6 13 15 16 20 21 22 rings
6 6 7 8 9 10 11 rings

> <PUBCHEM_HEAVY_ATOM_COUNT>
24

> <PUBCHEM_ATOM_DEF_STEREO_COUNT>
0

> <PUBCHEM_ATOM_UDEF_STEREO_COUNT>
0

> <PUBCHEM_BOND_DEF_STEREO_COUNT>
0

> <PUBCHEM_BOND_UDEF_STEREO_COUNT>
0

> <PUBCHEM_ISOTOPIC_ATOM_COUNT>
0

> <PUBCHEM_COMPONENT_COUNT>
1

> <PUBCHEM_CACTVS_TAUTO_COUNT>
1

> <PUBCHEM_CONFORMER_ID>
0061BA2100000001

> <PUBCHEM_MMFF94_ENERGY>
61.8743

> <PUBCHEM_FEATURE_SELFOVERLAP>
30.454

> <PUBCHEM_SHAPE_FINGERPRINT>
10050765 1 18266458888394320616
10411042 1 17834114525945238602
1100329 8 18194679264075222626
11045515 52 17905045111694855563
11578080 2 13028022662387562739
11582403 64 16663425720997809229
12236239 1 17702941410003925177
12597179 24 18272094846967906342
12643181 29 18339930300051323118
12788726 201 18190450752718464938
13004483 165 17979914140133102226
13052359 8 18411139151387261480
13134695 92 17403455668114597335
13140716 1 17979076316282841755
13540713 4 18058729256048961208
13540713 5 18042407010203220036
13583140 156 16588015788931675508
13590594 115 17904208371057477851
13692114 37 18200010915816154239
138480 1 17185595711615378083
13911987 19 17688338701775699182
14466204 15 16394082098484495337
14790565 3 18051699841445841288
14866123 147 18410856589953000482
14931854 50 18196626624059033631
15042514 8 18266743673819749034
15927050 60 18339641135965125766
17138139 8 17841954963501141997
17539 30 18268988872157878758
19319366 153 18126836111138706925
19427546 20 18264214780608132404
19427546 62 18337955584718723341
19591789 44 18194691366950054327
19930381 70 17689155613424497969
20028762 73 18055621820897208607
21049683 271 16963797286557674790
21236236 1 18412262869904378876
21478907 32 18193837274317285066
21641784 216 17827088599535897004
21796203 349 17114977408242181427
2255824 54 17836645219322412039
23419403 2 17201070650254576137
23558518 356 18117279370787047320
23559900 14 17327169949878935977
23845131 108 18337670811449183473
23929065 36 18198323247498911800
283562 15 18119523482545872058
3091708 16 9269527890063895290
350125 39 18267027339704755200
3886686 26 18050250788500374698
4409770 3 18337385045626369535
5486654 2 18411702049770056837
59755656 520 18411416172678351100
621550 34 17973729073852953733
6669772 16 18198345057290496214
7164475 11 18119812667115499076
7399639 24 17971475087869292397
9777508 108 18340479070993510089

> <PUBCHEM_SHAPE_MULTIPOLES>
467.08
9.76
6.29
0.86
14.18
8.82
0
-9.22
-0.01
-8.57
0
-0.65
-0.57
0

> <PUBCHEM_SHAPE_SELFOVERLAP>
991.096

> <PUBCHEM_SHAPE_VOLUME>
261.9

> <PUBCHEM_COORDINATE_TYPE>
2
5
10

$$$$
