5713372
  -OEChem-01171809563D

 33 36  0     0  0  0  0  0  0999 V2000
    5.6151   -2.1928   -1.8659 Br  0  0  0  0  0  0  0  0  0  0  0  0
   -3.1756   -2.4938    0.3109 O   0  0  0  0  0  0  0  0  0  0  0  0
   -5.2748   -1.3318    0.5356 O   0  0  0  0  0  0  0  0  0  0  0  0
    0.0713    2.0174    1.4477 O   0  0  0  0  0  0  0  0  0  0  0  0
   -0.8601    2.7674   -1.3949 O   0  0  0  0  0  0  0  0  0  0  0  0
    2.1755    1.0373    1.8863 N   0  0  0  0  0  0  0  0  0  0  0  0
    2.6021    0.0622   -0.1523 C   0  0  0  0  0  0  0  0  0  0  0  0
    1.3112    0.7394   -0.2120 C   0  0  0  0  0  0  0  0  0  0  0  0
    3.0833    0.2746    1.1430 C   0  0  0  0  0  0  0  0  0  0  0  0
    1.0499    1.3692    1.1255 C   0  0  0  0  0  0  0  0  0  0  0  0
   -2.0232    0.8347   -0.6748 C   0  0  0  0  0  0  0  0  0  0  0  0
    0.4635    0.8237   -1.2390 C   0  0  0  0  0  0  0  0  0  0  0  0
   -3.0709   -1.1727    0.0009 C   0  0  0  0  0  0  0  0  0  0  0  0
    3.3366   -0.6687   -1.0668 C   0  0  0  0  0  0  0  0  0  0  0  0
   -4.2697   -0.5093    0.1292 C   0  0  0  0  0  0  0  0  0  0  0  0
   -0.8278    1.5706   -1.1080 C   0  0  0  0  0  0  0  0  0  0  0  0
    4.2969   -0.2255    1.5723 C   0  0  0  0  0  0  0  0  0  0  0  0
   -1.9216   -0.5241   -0.4018 C   0  0  0  0  0  0  0  0  0  0  0  0
   -3.2363    1.5198   -0.5481 C   0  0  0  0  0  0  0  0  0  0  0  0
   -4.3853    0.8393   -0.1383 C   0  0  0  0  0  0  0  0  0  0  0  0
    4.5695   -1.1844   -0.6527 C   0  0  0  0  0  0  0  0  0  0  0  0
    5.0449   -0.9649    0.6541 C   0  0  0  0  0  0  0  0  0  0  0  0
   -4.5745   -2.5873    0.6492 C   0  0  0  0  0  0  0  0  0  0  0  0
    2.3288    1.3065    2.8510 H   0  0  0  0  0  0  0  0  0  0  0  0
    0.6654    0.3702   -2.2032 H   0  0  0  0  0  0  0  0  0  0  0  0
    2.9656   -0.8351   -2.0729 H   0  0  0  0  0  0  0  0  0  0  0  0
   -1.0052   -1.0944   -0.4921 H   0  0  0  0  0  0  0  0  0  0  0  0
    4.6616   -0.0556    2.5789 H   0  0  0  0  0  0  0  0  0  0  0  0
   -3.3098    2.5827   -0.7624 H   0  0  0  0  0  0  0  0  0  0  0  0
   -5.3317    1.3580   -0.0362 H   0  0  0  0  0  0  0  0  0  0  0  0
    6.0047   -1.3702    0.9663 H   0  0  0  0  0  0  0  0  0  0  0  0
   -4.6626   -2.9462    1.6811 H   0  0  0  0  0  0  0  0  0  0  0  0
   -5.0490   -3.3157   -0.0185 H   0  0  0  0  0  0  0  0  0  0  0  0
  1 21  1  0  0  0  0
  2 13  1  0  0  0  0
  2 23  1  0  0  0  0
  3 15  1  0  0  0  0
  3 23  1  0  0  0  0
  4 10  2  0  0  0  0
  5 16  2  0  0  0  0
  6  9  1  0  0  0  0
  6 10  1  0  0  0  0
  6 24  1  0  0  0  0
  7  8  1  0  0  0  0
  7  9  2  0  0  0  0
  7 14  1  0  0  0  0
  8 10  1  0  0  0  0
  8 12  2  0  0  0  0
  9 17  1  0  0  0  0
 11 16  1  0  0  0  0
 11 18  2  0  0  0  0
 11 19  1  0  0  0  0
 12 16  1  0  0  0  0
 12 25  1  0  0  0  0
 13 15  2  0  0  0  0
 13 18  1  0  0  0  0
 14 21  2  0  0  0  0
 14 26  1  0  0  0  0
 15 20  1  0  0  0  0
 17 22  2  0  0  0  0
 17 28  1  0  0  0  0
 18 27  1  0  0  0  0
 19 20  2  0  0  0  0
 19 29  1  0  0  0  0
 20 30  1  0  0  0  0
 21 22  1  0  0  0  0
 22 31  1  0  0  0  0
 23 32  1  0  0  0  0
 23 33  1  0  0  0  0
M  END
> <PUBCHEM_COMPOUND_CID>
5713372

> <PUBCHEM_CONFORMER_RMSD>
0.6

> <PUBCHEM_CONFORMER_DIVERSEORDER>
1
14
15
21
2
13
3
12
4
19
9
7
5
8
10
6
11
20
17
22
16
18

> <PUBCHEM_MMFF94_PARTIAL_CHARGES>
31
1 -0.11
10 0.62
11 0.09
12 -0.14
13 0.08
14 -0.15
15 0.08
16 0.47
17 -0.15
18 -0.15
19 -0.15
2 -0.36
20 -0.15
21 0.11
22 -0.15
23 0.56
24 0.37
25 0.15
26 0.15
27 0.15
28 0.15
29 0.15
3 -0.36
30 0.15
31 0.15
4 -0.57
5 -0.57
6 -0.55
7 0.03
8 -0.01
9 0.12

> <PUBCHEM_EFFECTIVE_ROTOR_COUNT>
2.8

> <PUBCHEM_PHARMACOPHORE_FEATURES>
10
1 1 hydrophobe
1 2 acceptor
1 3 acceptor
1 4 acceptor
1 5 acceptor
1 6 donor
5 2 3 13 15 23 rings
5 6 7 8 9 10 rings
6 11 13 15 18 19 20 rings
6 7 9 14 17 21 22 rings

> <PUBCHEM_HEAVY_ATOM_COUNT>
23

> <PUBCHEM_ATOM_DEF_STEREO_COUNT>
0

> <PUBCHEM_ATOM_UDEF_STEREO_COUNT>
0

> <PUBCHEM_BOND_DEF_STEREO_COUNT>
1

> <PUBCHEM_BOND_UDEF_STEREO_COUNT>
0

> <PUBCHEM_ISOTOPIC_ATOM_COUNT>
0

> <PUBCHEM_COMPONENT_COUNT>
1

> <PUBCHEM_CACTVS_TAUTO_COUNT>
5

> <PUBCHEM_CONFORMER_ID>
00572DDC00000001

> <PUBCHEM_MMFF94_ENERGY>
79.815

> <PUBCHEM_FEATURE_SELFOVERLAP>
50.993

> <PUBCHEM_SHAPE_FINGERPRINT>
10042902 136 18262241143697498103
10369192 42 18053650663264314000
10928967 22 17895188952351826299
11046707 91 18113330912551005925
11128504 68 16515409551692173422
11370993 144 17917991663669639721
11545043 162 18413670201595542707
11552529 35 16126665240980633518
11720765 8 11100613868906039440
11796584 16 18336260146325470618
11961588 58 8213864717853733915
12236239 1 16660646206741244820
12553582 1 17748818635962181073
12596602 18 15123498237815327767
12633257 1 17346319370568173759
12714826 92 18336819806112501212
12788726 201 17677335983084084348
13009979 54 18335718151755214109
13103583 49 17274277087914803787
13257819 101 11314606350085922158
13402501 40 18343308033066323318
13583140 156 15912466043683941971
13675066 3 18131061641128655040
13914758 101 16558468574836222529
14251751 18 18189325785141317650
14251764 30 18412833469036682310
14386348 63 18201434757836201550
15475509 84 15697725796804967618
15537594 2 17676489410922927683
17349148 13 15430304794921622320
17492 89 17972884945491784339
17804303 29 18409728478422531453
17913733 40 17486756748432133696
1813 80 17894627080123511229
193927 3 18334300902477726491
200 152 15791728555879205692
21033648 29 17489010596559655105
22950370 63 18113621196257564877
23175994 123 17989202616437537505
23559900 14 18410573985273271052
2838139 119 15984539967784148945
3004659 81 17894635863426544694
3472631 163 11023834980918629611
351380 3 17458345238804507251
474 4 13686030825232852733
508706 21 18410011044195030199
5104073 3 18412259549430721928
59755656 215 18335413531452738695
602551 16 18334007281322764922
621550 5 18342459218811372712
7970288 3 17968093183328426171
8863177 126 18202003231276419126

> <PUBCHEM_SHAPE_MULTIPOLES>
450.81
12.18
2.5
1.58
2.71
0.65
-0.09
9.37
0.03
-1.69
0.19
1.75
-0.31
2.62

> <PUBCHEM_SHAPE_SELFOVERLAP>
1004.697

> <PUBCHEM_SHAPE_VOLUME>
246.4

> <PUBCHEM_COORDINATE_TYPE>
2
5
10

$$$$
