1193255
  -OEChem-01171809303D

 51 55  0     0  0  0  0  0  0999 V2000
    5.3359   -1.9334    0.0092 S   0  0  0  0  0  0  0  0  0  0  0  0
   -7.8196    0.1397   -0.1983 O   0  0  0  0  0  0  0  0  0  0  0  0
   -5.0224    0.0285    0.0522 N   0  0  0  0  0  0  0  0  0  0  0  0
    0.5969   -0.2622    0.0150 N   0  0  0  0  0  0  0  0  0  0  0  0
    0.9941   -2.6000    0.0398 N   0  0  0  0  0  0  0  0  0  0  0  0
    3.2225   -3.5555    0.0393 N   0  0  0  0  0  0  0  0  0  0  0  0
   -5.6647    1.1773   -0.6011 C   0  0  0  0  0  0  0  0  0  0  0  0
   -5.8173   -1.2044    0.0696 C   0  0  0  0  0  0  0  0  0  0  0  0
   -7.0791    1.3522   -0.0599 C   0  0  0  0  0  0  0  0  0  0  0  0
   -7.2246   -0.9029    0.5733 C   0  0  0  0  0  0  0  0  0  0  0  0
   -3.6257   -0.0423    0.0403 C   0  0  0  0  0  0  0  0  0  0  0  0
   -2.8426    0.9716    0.6272 C   0  0  0  0  0  0  0  0  0  0  0  0
   -2.9592   -1.1317   -0.5558 C   0  0  0  0  0  0  0  0  0  0  0  0
    2.8789   -1.1414    0.0130 C   0  0  0  0  0  0  0  0  0  0  0  0
    3.6893    0.0373   -0.0051 C   0  0  0  0  0  0  0  0  0  0  0  0
   -0.8114   -0.1885    0.0226 C   0  0  0  0  0  0  0  0  0  0  0  0
    1.4956   -1.3468    0.0227 C   0  0  0  0  0  0  0  0  0  0  0  0
   -1.4497    0.8993    0.6183 C   0  0  0  0  0  0  0  0  0  0  0  0
   -1.5662   -1.2041   -0.5645 C   0  0  0  0  0  0  0  0  0  0  0  0
    5.0370   -0.2494   -0.0094 C   0  0  0  0  0  0  0  0  0  0  0  0
    3.6683   -2.2841    0.0221 C   0  0  0  0  0  0  0  0  0  0  0  0
    3.2436    1.4096   -0.0187 C   0  0  0  0  0  0  0  0  0  0  0  0
    6.1970    0.6738   -0.0270 C   0  0  0  0  0  0  0  0  0  0  0  0
    3.0370    2.0803    1.1827 C   0  0  0  0  0  0  0  0  0  0  0  0
    3.0240    2.0520   -1.2332 C   0  0  0  0  0  0  0  0  0  0  0  0
    1.8789   -3.6163    0.0471 C   0  0  0  0  0  0  0  0  0  0  0  0
    2.6059    3.4068    1.1695 C   0  0  0  0  0  0  0  0  0  0  0  0
    2.5931    3.3786   -1.2462 C   0  0  0  0  0  0  0  0  0  0  0  0
    2.3841    4.0559   -0.0448 C   0  0  0  0  0  0  0  0  0  0  0  0
   -5.7005    0.9884   -1.6811 H   0  0  0  0  0  0  0  0  0  0  0  0
   -5.1085    2.1073   -0.4411 H   0  0  0  0  0  0  0  0  0  0  0  0
   -5.3646   -1.9599    0.7226 H   0  0  0  0  0  0  0  0  0  0  0  0
   -5.8753   -1.6096   -0.9481 H   0  0  0  0  0  0  0  0  0  0  0  0
   -7.0692    1.6554    0.9940 H   0  0  0  0  0  0  0  0  0  0  0  0
   -7.6011    2.1312   -0.6244 H   0  0  0  0  0  0  0  0  0  0  0  0
   -7.8539   -1.7935    0.4784 H   0  0  0  0  0  0  0  0  0  0  0  0
   -7.2166   -0.6137    1.6313 H   0  0  0  0  0  0  0  0  0  0  0  0
   -3.3185    1.8230    1.1088 H   0  0  0  0  0  0  0  0  0  0  0  0
   -3.5142   -1.9310   -1.0406 H   0  0  0  0  0  0  0  0  0  0  0  0
   -0.8731    1.6956    1.0823 H   0  0  0  0  0  0  0  0  0  0  0  0
   -1.1085   -2.0458   -1.0738 H   0  0  0  0  0  0  0  0  0  0  0  0
    1.0216    0.6426    0.1651 H   0  0  0  0  0  0  0  0  0  0  0  0
    7.1585    0.1492   -0.0261 H   0  0  0  0  0  0  0  0  0  0  0  0
    6.1713    1.3050   -0.9217 H   0  0  0  0  0  0  0  0  0  0  0  0
    6.1812    1.3263    0.8526 H   0  0  0  0  0  0  0  0  0  0  0  0
    3.2043    1.5876    2.1374 H   0  0  0  0  0  0  0  0  0  0  0  0
    3.1814    1.5373   -2.1778 H   0  0  0  0  0  0  0  0  0  0  0  0
    1.4512   -4.6126    0.0607 H   0  0  0  0  0  0  0  0  0  0  0  0
    2.4423    3.9339    2.1048 H   0  0  0  0  0  0  0  0  0  0  0  0
    2.4197    3.8841   -2.1918 H   0  0  0  0  0  0  0  0  0  0  0  0
    2.0481    5.0886   -0.0550 H   0  0  0  0  0  0  0  0  0  0  0  0
  1 20  1  0  0  0  0
  1 21  1  0  0  0  0
  2  9  1  0  0  0  0
  2 10  1  0  0  0  0
  3  7  1  0  0  0  0
  3  8  1  0  0  0  0
  3 11  1  0  0  0  0
  4 16  1  0  0  0  0
  4 17  1  0  0  0  0
  4 42  1  0  0  0  0
  5 17  1  0  0  0  0
  5 26  2  0  0  0  0
  6 21  2  0  0  0  0
  6 26  1  0  0  0  0
  7  9  1  0  0  0  0
  7 30  1  0  0  0  0
  7 31  1  0  0  0  0
  8 10  1  0  0  0  0
  8 32  1  0  0  0  0
  8 33  1  0  0  0  0
  9 34  1  0  0  0  0
  9 35  1  0  0  0  0
 10 36  1  0  0  0  0
 10 37  1  0  0  0  0
 11 12  2  0  0  0  0
 11 13  1  0  0  0  0
 12 18  1  0  0  0  0
 12 38  1  0  0  0  0
 13 19  2  0  0  0  0
 13 39  1  0  0  0  0
 14 15  1  0  0  0  0
 14 17  2  0  0  0  0
 14 21  1  0  0  0  0
 15 20  2  0  0  0  0
 15 22  1  0  0  0  0
 16 18  2  0  0  0  0
 16 19  1  0  0  0  0
 18 40  1  0  0  0  0
 19 41  1  0  0  0  0
 20 23  1  0  0  0  0
 22 24  2  0  0  0  0
 22 25  1  0  0  0  0
 23 43  1  0  0  0  0
 23 44  1  0  0  0  0
 23 45  1  0  0  0  0
 24 27  1  0  0  0  0
 24 46  1  0  0  0  0
 25 28  2  0  0  0  0
 25 47  1  0  0  0  0
 26 48  1  0  0  0  0
 27 29  2  0  0  0  0
 27 49  1  0  0  0  0
 28 29  1  0  0  0  0
 28 50  1  0  0  0  0
 29 51  1  0  0  0  0
M  END
> <PUBCHEM_COMPOUND_CID>
1193255

> <PUBCHEM_CONFORMER_RMSD>
0.8

> <PUBCHEM_CONFORMER_DIVERSEORDER>
1
10
5
7
12
9
2
6
11
4
3
8

> <PUBCHEM_MMFF94_PARTIAL_CHARGES>
39
1 -0.08
10 0.28
11 0.1
12 -0.15
13 -0.15
15 -0.05
16 0.1
17 0.41
18 -0.15
19 -0.15
2 -0.56
20 -0.14
21 0.3
22 0.05
23 0.18
24 -0.15
25 -0.15
26 0.47
27 -0.15
28 -0.15
29 -0.15
3 -0.84
38 0.15
39 0.15
4 -0.6
40 0.15
41 0.15
42 0.4
46 0.15
47 0.15
48 0.15
49 0.15
5 -0.62
50 0.15
51 0.15
6 -0.57
7 0.37
8 0.37
9 0.28

> <PUBCHEM_EFFECTIVE_ROTOR_COUNT>
5.2

> <PUBCHEM_PHARMACOPHORE_FEATURES>
11
1 2 acceptor
1 3 cation
1 4 cation
1 4 donor
1 6 acceptor
3 5 6 26 cation
5 1 14 15 20 21 rings
6 11 12 13 16 18 19 rings
6 2 3 7 8 9 10 rings
6 22 24 25 27 28 29 rings
6 5 6 14 17 21 26 rings

> <PUBCHEM_HEAVY_ATOM_COUNT>
29

> <PUBCHEM_ATOM_DEF_STEREO_COUNT>
0

> <PUBCHEM_ATOM_UDEF_STEREO_COUNT>
0

> <PUBCHEM_BOND_DEF_STEREO_COUNT>
0

> <PUBCHEM_BOND_UDEF_STEREO_COUNT>
0

> <PUBCHEM_ISOTOPIC_ATOM_COUNT>
0

> <PUBCHEM_COMPONENT_COUNT>
1

> <PUBCHEM_CACTVS_TAUTO_COUNT>
4

> <PUBCHEM_CONFORMER_ID>
0012352700000001

> <PUBCHEM_MMFF94_ENERGY>
101.1599

> <PUBCHEM_FEATURE_SELFOVERLAP>
55.903

> <PUBCHEM_SHAPE_FINGERPRINT>
10162869 55 18340756135756096223
10165383 225 18188496895239530564
10411042 1 18050285865556828290
10483366 6 18115326582792511140
10675989 125 18129662040210696929
10835480 77 18335697201389553877
11273773 38 18262805189532198868
11578080 2 13625258640892941420
1200032 147 17605562265548090668
12166972 35 18271807895464963240
12236239 1 18201718435973106935
12616971 3 18131344228997664159
12741549 16 17531522080393602124
12788726 201 17346604028574541843
12838862 33 18340751716208543384
13533116 47 18412546518018509693
1361 2 18409449176293376738
13878862 14 18264186098552863941
13965767 371 17900519475260552972
14170010 4 18411980269699075232
14790565 3 18196653127965112719
15419008 47 17749103362345745525
15439362 3 18194120953066626764
15483637 11 18122344846125504923
17844677 252 18410862023682345313
18335252 114 18339914935903129509
18681886 176 18342734109645241530
19301679 30 17903627485732734874
19427546 62 18336548325699073299
21133410 127 17896874555043521085
21133410 221 15041024175865459024
21267235 1 18270966730905950310
21344244 78 18196072371040242762
22122407 14 18271820003737335265
22149856 69 18268443493981302411
23522609 53 17916608530631726929
23558518 356 17758668233439916434
23559900 14 18411132537427730811
24771293 8 18128797812013628216
249057 3 18342175561621809486
255183 451 18056486041194756870
3004659 81 18411134727781865497
3178227 256 18409737278647146994
335507 130 18341611564598454359
350125 39 18410855464470965764
397830 11 17750248057498388801
4073 2 18113625603327307291
4144715 1 18262809462997810033
44555599 121 18200320918973577841
46194498 28 17967532380794998476
474 4 18408888472855394090
513532 50 18131081403027474390
53794403 172 18190463946525630084
57527573 199 17271426209489699568
67856867 119 18413106182453656061
9849439 229 17980193416039747360
9981440 41 17691678305426215064

> <PUBCHEM_SHAPE_MULTIPOLES>
574.86
17.13
4.22
0.89
34.62
1.16
0.02
-0.06
-0.02
-6.75
0.03
-0.32
0.57
0.03

> <PUBCHEM_SHAPE_SELFOVERLAP>
1257.033

> <PUBCHEM_SHAPE_VOLUME>
313.5

> <PUBCHEM_COORDINATE_TYPE>
2
5
10

$$$$
