2426234
  -OEChem-01171809363D

 32 33  0     0  0  0  0  0  0999 V2000
   -1.4225   -0.3597    3.0406 Cl  0  0  0  0  0  0  0  0  0  0  0  0
    6.8500   -2.3957   -0.4878 Cl  0  0  0  0  0  0  0  0  0  0  0  0
    2.3268    3.1284   -1.2877 S   0  0  0  0  0  0  0  0  0  0  0  0
   -5.4007   -2.0612    0.1397 F   0  0  0  0  0  0  0  0  0  0  0  0
   -5.9966   -0.3001   -0.9772 F   0  0  0  0  0  0  0  0  0  0  0  0
   -4.6768   -1.7678   -1.8898 F   0  0  0  0  0  0  0  0  0  0  0  0
   -0.4145    1.7236    1.1153 N   0  0  0  0  0  0  0  0  0  0  0  0
    1.9553    0.8296    0.2327 N   0  0  0  0  0  0  0  0  0  0  0  0
    0.2875    2.4862    0.2223 N   0  0  0  0  0  0  0  0  0  0  0  0
   -2.0471    1.3178   -0.5461 N   0  0  0  0  0  0  0  0  0  0  0  0
   -3.7342   -0.3797   -0.2050 C   0  0  0  0  0  0  0  0  0  0  0  0
   -1.5363    1.0092    0.6754 C   0  0  0  0  0  0  0  0  0  0  0  0
   -3.1934   -0.6774    1.0410 C   0  0  0  0  0  0  0  0  0  0  0  0
   -2.0801    0.0215    1.4944 C   0  0  0  0  0  0  0  0  0  0  0  0
    3.1119    0.0681    0.0627 C   0  0  0  0  0  0  0  0  0  0  0  0
   -3.1295    0.6176   -0.9530 C   0  0  0  0  0  0  0  0  0  0  0  0
   -4.9246   -1.1088   -0.7185 C   0  0  0  0  0  0  0  0  0  0  0  0
    3.5683   -0.7477    1.0980 C   0  0  0  0  0  0  0  0  0  0  0  0
    3.8116    0.1220   -1.1427 C   0  0  0  0  0  0  0  0  0  0  0  0
    1.5289    2.0789   -0.2516 C   0  0  0  0  0  0  0  0  0  0  0  0
    4.7243   -1.5096    0.9279 C   0  0  0  0  0  0  0  0  0  0  0  0
    4.9676   -0.6398   -1.3129 C   0  0  0  0  0  0  0  0  0  0  0  0
    5.4240   -1.4555   -0.2776 C   0  0  0  0  0  0  0  0  0  0  0  0
   -3.6383   -1.4532    1.6592 H   0  0  0  0  0  0  0  0  0  0  0  0
   -3.5070    0.8937   -1.9326 H   0  0  0  0  0  0  0  0  0  0  0  0
   -0.2839    1.9130    2.1006 H   0  0  0  0  0  0  0  0  0  0  0  0
    1.3840    0.5101    1.0131 H   0  0  0  0  0  0  0  0  0  0  0  0
   -0.1378    3.3706   -0.0338 H   0  0  0  0  0  0  0  0  0  0  0  0
    3.0332   -0.7988    2.0430 H   0  0  0  0  0  0  0  0  0  0  0  0
    3.4629    0.6886   -1.9976 H   0  0  0  0  0  0  0  0  0  0  0  0
    5.0682   -2.1407    1.7433 H   0  0  0  0  0  0  0  0  0  0  0  0
    5.4952   -0.5989   -2.2625 H   0  0  0  0  0  0  0  0  0  0  0  0
  1 14  1  0  0  0  0
  2 23  1  0  0  0  0
  3 20  2  0  0  0  0
  4 17  1  0  0  0  0
  5 17  1  0  0  0  0
  6 17  1  0  0  0  0
  7  9  1  0  0  0  0
  7 12  1  0  0  0  0
  7 26  1  0  0  0  0
  8 15  1  0  0  0  0
  8 20  1  0  0  0  0
  8 27  1  0  0  0  0
  9 20  1  0  0  0  0
  9 28  1  0  0  0  0
 10 12  1  0  0  0  0
 10 16  2  0  0  0  0
 11 13  2  0  0  0  0
 11 16  1  0  0  0  0
 11 17  1  0  0  0  0
 12 14  2  0  0  0  0
 13 14  1  0  0  0  0
 13 24  1  0  0  0  0
 15 18  2  0  0  0  0
 15 19  1  0  0  0  0
 16 25  1  0  0  0  0
 18 21  1  0  0  0  0
 18 29  1  0  0  0  0
 19 22  2  0  0  0  0
 19 30  1  0  0  0  0
 21 23  2  0  0  0  0
 21 31  1  0  0  0  0
 22 23  1  0  0  0  0
 22 32  1  0  0  0  0
M  END
> <PUBCHEM_COMPOUND_CID>
2426234

> <PUBCHEM_CONFORMER_RMSD>
0.8

> <PUBCHEM_CONFORMER_DIVERSEORDER>
1
63
92
12
32
41
101
7
121
16
6
69
73
99
112
90
24
127
106
110
14
118
107
76
97
30
46
83
81
28
39
79
124
114
68
102
4
10
58
45
34
29
82
67
128
72
17
5
111
71
108
103
53
55
84
91
31
116
78
42
8
35
123
9
120
87
3
125
117
22
66
38
19
56
86
80
54
15
74
48
47
49
27
113
18
23
109
126
11
44
129
61
43
52
93
88
94
20
13
57
26
85
77
122
36
33
89
95
25
100
50
65
59
51
119
98
64
105
104
70
37
96
75
60
62
115
21
40
2

> <PUBCHEM_MMFF94_PARTIAL_CHARGES>
32
1 -0.18
10 -0.62
11 -0.14
12 0.41
13 -0.15
14 0.18
15 0.12
16 0.16
17 1.16
18 -0.15
19 -0.15
2 -0.18
20 0.5
21 -0.15
22 -0.15
23 0.18
24 0.15
25 0.15
26 0.4
27 0.37
28 0.37
29 0.15
3 -0.38
30 0.15
31 0.15
32 0.15
4 -0.34
5 -0.34
6 -0.34
7 -0.52
8 -0.55
9 -0.41

> <PUBCHEM_EFFECTIVE_ROTOR_COUNT>
6

> <PUBCHEM_PHARMACOPHORE_FEATURES>
7
1 10 acceptor
1 3 acceptor
1 7 donor
1 8 donor
1 9 donor
6 10 11 12 13 14 16 rings
6 15 18 19 21 22 23 rings

> <PUBCHEM_HEAVY_ATOM_COUNT>
23

> <PUBCHEM_ATOM_DEF_STEREO_COUNT>
0

> <PUBCHEM_ATOM_UDEF_STEREO_COUNT>
0

> <PUBCHEM_BOND_DEF_STEREO_COUNT>
0

> <PUBCHEM_BOND_UDEF_STEREO_COUNT>
0

> <PUBCHEM_ISOTOPIC_ATOM_COUNT>
0

> <PUBCHEM_COMPONENT_COUNT>
1

> <PUBCHEM_CACTVS_TAUTO_COUNT>
6

> <PUBCHEM_CONFORMER_ID>
0025057A00000001

> <PUBCHEM_MMFF94_ENERGY>
71.4302

> <PUBCHEM_FEATURE_SELFOVERLAP>
37.13

> <PUBCHEM_SHAPE_FINGERPRINT>
10074138 170 16271109033273783323
10319926 262 15123246385533674616
10498660 4 14201398300148910164
10670039 82 14418398963105500271
107951 10 14634876344378849833
11069576 57 17604702245591700682
12166972 35 18272651264086068426
12363563 72 18410864235168711024
12390115 104 9294993692176786240
12553582 1 17968388840455563384
12596602 18 17489584546293982682
12892183 10 15267069073757713116
12895836 83 14345798261815474827
12954195 1 18262789663288876701
13885169 86 9222931700061088558
14178342 30 16486152612007236273
1420 369 17989205953684752566
14251751 18 17846206804682414263
14341114 328 14261342596290373530
14848178 5 17917706933266104175
14931854 50 17603864447373755442
15163728 17 14491012876221277367
15183329 4 16660361446320150790
15188451 53 17489864921104729566
15475509 35 16913398869656188407
15575132 122 13479399545159618143
15880784 105 18060420184324593938
17349148 13 17988934387139701446
17780758 139 16917067715880740650
18222031 100 18411419493114968180
193927 3 18202570578816785188
19784866 240 18272653450182288825
19784866 34 8718824276110672948
1979834 28 12463296946184824473
20028762 73 18060136531689558566
20388580 30 18409449210938081500
20645477 70 18189338029333195560
20775438 99 17834094713018554627
20871999 31 17458628874007609068
21304303 282 11403147603261173059
21344244 181 17969783176056205363
21756936 100 11025811911230636800
221357 26 17967530164227571101
23559900 14 17531532095524359452
23622692 118 18411983533742760572
270888 7 7853858282195782198
2838139 119 13334725843214047447
3004659 81 18113898243529181718
312425 54 16558200293440194234
312425 83 15213598839651397814
3472631 163 12324247173755292050
351380 3 18341895181945966790
38570 142 14404036168304975666
392239 28 15626214728195755998
44062 13 18337386050638213117
46194498 28 15938409050648402900
463206 1 18340200894784044387
5252454 2 9222944825454115108
559249 180 18201440238631183121
633830 44 17604976174463241773
6608658 132 13045932556402332799
7808743 9 8502360127615335932
7970288 3 18341613690053599014
960060 61 17967817167159488212

> <PUBCHEM_SHAPE_MULTIPOLES>
439.17
14.71
2.69
1.83
4.04
1.88
0.84
-12.76
-7.02
2.01
-0.51
-1.52
-0.6
-0.66

> <PUBCHEM_SHAPE_SELFOVERLAP>
905.037

> <PUBCHEM_SHAPE_VOLUME>
257.6

> <PUBCHEM_COORDINATE_TYPE>
2
5
10

$$$$
