2853283
  -OEChem-01171809573D

 27 28  0     0  0  0  0  0  0999 V2000
   -2.4309   -1.1376    0.1523 S   0  0  0  0  0  0  0  0  0  0  0  0
    0.8295    2.1594   -0.2328 O   0  0  0  0  0  0  0  0  0  0  0  0
   -6.1034    0.0900   -0.0125 O   0  5  0  0  0  0  0  0  0  0  0  0
   -5.2438   -1.9147    0.2352 O   0  0  0  0  0  0  0  0  0  0  0  0
   -0.0783    0.0109    0.0226 N   0  0  0  0  0  0  0  0  0  0  0  0
   -2.0396    1.3993   -0.1542 N   0  0  0  0  0  0  0  0  0  0  0  0
   -5.0955   -0.6677    0.0845 N   0  3  0  0  0  0  0  0  0  0  0  0
    2.3135    0.3786   -0.0387 C   0  0  0  0  0  0  0  0  0  0  0  0
    4.8898   -0.6888    0.0451 C   0  0  0  0  0  0  0  0  0  0  0  0
    3.3766    1.1570    0.4197 C   0  0  0  0  0  0  0  0  0  0  0  0
    2.5388   -0.9335   -0.4551 C   0  0  0  0  0  0  0  0  0  0  0  0
    4.6646    0.6234    0.4614 C   0  0  0  0  0  0  0  0  0  0  0  0
    3.8268   -1.4672   -0.4130 C   0  0  0  0  0  0  0  0  0  0  0  0
    0.9705    0.9349   -0.0842 C   0  0  0  0  0  0  0  0  0  0  0  0
   -1.4736    0.2527   -0.0131 C   0  0  0  0  0  0  0  0  0  0  0  0
    6.2667   -1.2602    0.0917 C   0  0  0  0  0  0  0  0  0  0  0  0
   -3.8076   -0.1230    0.0243 C   0  0  0  0  0  0  0  0  0  0  0  0
   -3.4042    1.1865   -0.1332 C   0  0  0  0  0  0  0  0  0  0  0  0
    3.2220    2.1797    0.7538 H   0  0  0  0  0  0  0  0  0  0  0  0
    1.7507   -1.5651   -0.8539 H   0  0  0  0  0  0  0  0  0  0  0  0
    5.4841    1.2386    0.8235 H   0  0  0  0  0  0  0  0  0  0  0  0
    3.9912   -2.4887   -0.7456 H   0  0  0  0  0  0  0  0  0  0  0  0
    0.1353   -0.9695    0.1812 H   0  0  0  0  0  0  0  0  0  0  0  0
    6.4134   -2.0022   -0.7006 H   0  0  0  0  0  0  0  0  0  0  0  0
    7.0231   -0.4816   -0.0548 H   0  0  0  0  0  0  0  0  0  0  0  0
    6.4412   -1.7410    1.0594 H   0  0  0  0  0  0  0  0  0  0  0  0
   -4.0643    2.0378   -0.2393 H   0  0  0  0  0  0  0  0  0  0  0  0
  1 15  1  0  0  0  0
  1 17  1  0  0  0  0
  2 14  2  0  0  0  0
  3  7  1  0  0  0  0
  4  7  2  0  0  0  0
  5 14  1  0  0  0  0
  5 15  1  0  0  0  0
  5 23  1  0  0  0  0
  6 15  2  0  0  0  0
  6 18  1  0  0  0  0
  7 17  1  0  0  0  0
  8 10  2  0  0  0  0
  8 11  1  0  0  0  0
  8 14  1  0  0  0  0
  9 12  2  0  0  0  0
  9 13  1  0  0  0  0
  9 16  1  0  0  0  0
 10 12  1  0  0  0  0
 10 19  1  0  0  0  0
 11 13  2  0  0  0  0
 11 20  1  0  0  0  0
 12 21  1  0  0  0  0
 13 22  1  0  0  0  0
 16 24  1  0  0  0  0
 16 25  1  0  0  0  0
 16 26  1  0  0  0  0
 17 18  2  0  0  0  0
 18 27  1  0  0  0  0
M  CHG  2   3  -1   7   1
M  END
> <PUBCHEM_COMPOUND_CID>
2853283

> <PUBCHEM_CONFORMER_RMSD>
0.6

> <PUBCHEM_CONFORMER_DIVERSEORDER>
1
2
3

> <PUBCHEM_MMFF94_PARTIAL_CHARGES>
24
1 -0.08
10 -0.15
11 -0.15
12 -0.15
13 -0.15
14 0.54
15 0.44
16 0.14
17 0.12
18 0.08
19 0.15
2 -0.57
20 0.15
21 0.15
22 0.15
23 0.37
27 0.15
3 -0.52
4 -0.52
5 -0.49
6 -0.57
7 0.96
8 0.09
9 -0.14

> <PUBCHEM_EFFECTIVE_ROTOR_COUNT>
4

> <PUBCHEM_PHARMACOPHORE_FEATURES>
7
1 2 acceptor
1 3 acceptor
1 3 anion
1 4 acceptor
1 5 donor
5 1 6 15 17 18 rings
6 8 9 10 11 12 13 rings

> <PUBCHEM_HEAVY_ATOM_COUNT>
18

> <PUBCHEM_ATOM_DEF_STEREO_COUNT>
0

> <PUBCHEM_ATOM_UDEF_STEREO_COUNT>
0

> <PUBCHEM_BOND_DEF_STEREO_COUNT>
0

> <PUBCHEM_BOND_UDEF_STEREO_COUNT>
0

> <PUBCHEM_ISOTOPIC_ATOM_COUNT>
0

> <PUBCHEM_COMPONENT_COUNT>
1

> <PUBCHEM_CACTVS_TAUTO_COUNT>
3

> <PUBCHEM_CONFORMER_ID>
002B89A300000001

> <PUBCHEM_MMFF94_ENERGY>
44.6839

> <PUBCHEM_FEATURE_SELFOVERLAP>
35.602

> <PUBCHEM_SHAPE_FINGERPRINT>
10354089 29 13326853335991082466
12107183 9 17623298164769725810
12236239 1 17704353281606460681
12596602 18 16845290561706284786
12616971 3 16916777509546948364
13167823 11 18412823585942101727
13288520 33 18408886226656063605
13533116 47 13686032964126618692
13685833 64 18409732858814445810
13862211 1 18409727369925525031
1420 363 18411703183609189766
14251752 14 17096073706778214639
14252887 29 17845942848961615758
14341114 176 18341615944541553376
14528608 73 8286199431434034537
15048467 5 10087632711562512810
15196674 1 18411138026084789300
15352361 1 18410012147758102785
17834072 33 18410576210203142436
17834076 25 12031785864085382637
17844677 252 18411987948557690688
1813 80 17530965778511608036
18222031 100 17530682117512503404
19141452 34 18343020029865435847
200 152 18131631179487977625
20374829 77 18333449846239239787
20645477 70 18342740685292717782
21267235 1 18411706469681151398
22224240 67 17131823271210608542
23402539 116 18342733031824266845
23557571 272 17967812704546153556
23559900 14 18337104687330632441
239999 70 18413392030029171734
26918003 58 18131069329030346859
2871803 45 18260265226986722522
300161 21 11887675048402525493
3004659 81 18113900455542814692
335352 9 18408885131972198885
33824 294 18413106139699668526
42 15 18413109459033797853
4214541 1 18411419479750343201
4325135 7 18113903784485516916
465052 167 18343867706433931622
5104073 3 18343582914988030040
542803 24 13758356686774559106
559249 180 18262513693700096683
59755656 215 18187641363170458175
7495541 125 17560515208999472443
77779 3 18412263926060216688
9709674 26 18262803011318809955

> <PUBCHEM_SHAPE_MULTIPOLES>
341.73
14.29
1.71
0.65
4.02
0.08
0
-5.71
-0.98
0
0.04
-0.2
-0.01
0.53

> <PUBCHEM_SHAPE_SELFOVERLAP>
719.853

> <PUBCHEM_SHAPE_VOLUME>
193.1

> <PUBCHEM_COORDINATE_TYPE>
2
5
10

$$$$
