659524
  -OEChem-01171809153D

 31 33  0     0  0  0  0  0  0999 V2000
    4.7524   -0.6808   -0.0074 Br  0  0  0  0  0  0  0  0  0  0  0  0
    1.5124    3.9577    0.1458 Br  0  0  0  0  0  0  0  0  0  0  0  0
   -1.8064   -0.3940   -0.0007 N   0  0  0  0  0  0  0  0  0  0  0  0
   -0.4080   -2.3015   -0.0648 N   0  0  0  0  0  0  0  0  0  0  0  0
    1.9913   -2.0778   -0.0572 N   0  0  0  0  0  0  0  0  0  0  0  0
   -4.5009    0.6383   -0.0547 C   0  0  0  0  0  0  0  0  0  0  0  0
   -3.7877    0.3477    1.2599 C   0  0  0  0  0  0  0  0  0  0  0  0
   -3.4878    1.0064   -1.1322 C   0  0  0  0  0  0  0  0  0  0  0  0
   -2.7211   -0.7341    1.0952 C   0  0  0  0  0  0  0  0  0  0  0  0
   -2.4270   -0.0797   -1.2955 C   0  0  0  0  0  0  0  0  0  0  0  0
   -0.5195   -0.9455   -0.0193 C   0  0  0  0  0  0  0  0  0  0  0  0
    0.6168   -0.1137    0.0088 C   0  0  0  0  0  0  0  0  0  0  0  0
    1.8741   -0.7391   -0.0121 C   0  0  0  0  0  0  0  0  0  0  0  0
    0.5064    1.2869    0.0558 C   0  0  0  0  0  0  0  0  0  0  0  0
    3.0048    0.0735    0.0152 C   0  0  0  0  0  0  0  0  0  0  0  0
    0.8440   -2.7862   -0.0812 C   0  0  0  0  0  0  0  0  0  0  0  0
    1.6529    2.0747    0.0823 C   0  0  0  0  0  0  0  0  0  0  0  0
    2.9034    1.4671    0.0619 C   0  0  0  0  0  0  0  0  0  0  0  0
   -5.0743   -0.2421   -0.3689 H   0  0  0  0  0  0  0  0  0  0  0  0
   -5.2143    1.4584    0.0816 H   0  0  0  0  0  0  0  0  0  0  0  0
   -3.3162    1.2690    1.6251 H   0  0  0  0  0  0  0  0  0  0  0  0
   -4.5151    0.0370    2.0182 H   0  0  0  0  0  0  0  0  0  0  0  0
   -4.0015    1.1679   -2.0864 H   0  0  0  0  0  0  0  0  0  0  0  0
   -3.0028    1.9533   -0.8637 H   0  0  0  0  0  0  0  0  0  0  0  0
   -2.1676   -0.8275    2.0375 H   0  0  0  0  0  0  0  0  0  0  0  0
   -3.1930   -1.7032    0.8920 H   0  0  0  0  0  0  0  0  0  0  0  0
   -2.8768   -0.9890   -1.7131 H   0  0  0  0  0  0  0  0  0  0  0  0
   -1.6754    0.2712   -2.0135 H   0  0  0  0  0  0  0  0  0  0  0  0
   -0.4662    1.7727    0.0770 H   0  0  0  0  0  0  0  0  0  0  0  0
    0.9453   -3.8640   -0.1174 H   0  0  0  0  0  0  0  0  0  0  0  0
    3.8029    2.0789    0.0828 H   0  0  0  0  0  0  0  0  0  0  0  0
  1 15  1  0  0  0  0
  2 17  1  0  0  0  0
  3  9  1  0  0  0  0
  3 10  1  0  0  0  0
  3 11  1  0  0  0  0
  4 11  2  0  0  0  0
  4 16  1  0  0  0  0
  5 13  1  0  0  0  0
  5 16  2  0  0  0  0
  6  7  1  0  0  0  0
  6  8  1  0  0  0  0
  6 19  1  0  0  0  0
  6 20  1  0  0  0  0
  7  9  1  0  0  0  0
  7 21  1  0  0  0  0
  7 22  1  0  0  0  0
  8 10  1  0  0  0  0
  8 23  1  0  0  0  0
  8 24  1  0  0  0  0
  9 25  1  0  0  0  0
  9 26  1  0  0  0  0
 10 27  1  0  0  0  0
 10 28  1  0  0  0  0
 11 12  1  0  0  0  0
 12 13  2  0  0  0  0
 12 14  1  0  0  0  0
 13 15  1  0  0  0  0
 14 17  2  0  0  0  0
 14 29  1  0  0  0  0
 15 18  2  0  0  0  0
 16 30  1  0  0  0  0
 17 18  1  0  0  0  0
 18 31  1  0  0  0  0
M  END
> <PUBCHEM_COMPOUND_CID>
659524

> <PUBCHEM_CONFORMER_RMSD>
0.6

> <PUBCHEM_CONFORMER_DIVERSEORDER>
1
2
3

> <PUBCHEM_MMFF94_PARTIAL_CHARGES>
17
1 -0.11
10 0.37
11 0.41
13 0.31
14 -0.15
15 0.11
16 0.47
17 0.11
18 -0.15
2 -0.11
29 0.15
3 -0.84
30 0.15
31 0.15
4 -0.62
5 -0.62
9 0.37

> <PUBCHEM_EFFECTIVE_ROTOR_COUNT>
2.2

> <PUBCHEM_PHARMACOPHORE_FEATURES>
7
1 1 hydrophobe
1 2 hydrophobe
3 3 4 11 cation
3 4 5 16 cation
6 12 13 14 15 17 18 rings
6 3 6 7 8 9 10 rings
6 4 5 11 12 13 16 rings

> <PUBCHEM_HEAVY_ATOM_COUNT>
18

> <PUBCHEM_ATOM_DEF_STEREO_COUNT>
0

> <PUBCHEM_ATOM_UDEF_STEREO_COUNT>
0

> <PUBCHEM_BOND_DEF_STEREO_COUNT>
0

> <PUBCHEM_BOND_UDEF_STEREO_COUNT>
0

> <PUBCHEM_ISOTOPIC_ATOM_COUNT>
0

> <PUBCHEM_COMPONENT_COUNT>
1

> <PUBCHEM_CACTVS_TAUTO_COUNT>
1

> <PUBCHEM_CONFORMER_ID>
000A104400000001

> <PUBCHEM_MMFF94_ENERGY>
57.2592

> <PUBCHEM_FEATURE_SELFOVERLAP>
35.685

> <PUBCHEM_SHAPE_FINGERPRINT>
10366900 7 17967532376599724683
104564 63 18125724478712450616
10608611 8 18333447630183866693
10906281 52 18271822241510176428
10967382 1 18410855421499842892
11471102 20 18410854343441939678
11640471 11 17417546717573803049
116883 192 17620752786766692582
11725454 13 17026797937430514383
12236239 1 17561080276883538087
12403259 226 18335698407447058909
12403260 363 18195511821461647759
12507557 5 18411700997713351641
12633257 1 18188788196721177729
12654215 9 18335133164065588588
13132413 78 18199754647918250680
13134695 92 18337381635116043796
13140716 1 18266176308898079266
13583140 156 16952504000644472744
14022347 108 18336274462052764042
14178342 30 17763168542826672952
14790565 3 18338812160412210924
15099037 51 18410857659763529174
15219456 202 18187367580400968791
15309172 13 18410577301188236411
15475509 8 17771379446623561060
15653759 3 17458063776617707273
1601671 61 18337113371690973868
16945 1 18411697690636129550
1813 80 17412760414098242918
18186145 218 18343306993372208364
18219364 16 18407762551441988593
18785283 64 18190474920077283321
19049666 15 17896878742977959183
20233049 118 18260266330904094028
20510252 161 16756067684404400936
20671657 1 18266465493156865916
21041028 32 17977665312093796919
21501502 16 18051693540543941958
21524375 3 18264488553975296891
21639500 275 18411689994160080901
22094290 62 18339924925886452160
23175994 123 18337115574750714468
23184049 59 18411982468553298338
2334 1 17906731754252684844
23402539 116 18273207582910795022
23493267 7 17530962458332822864
23558518 356 17830448737156191226
238 59 17903313192245212213
25 1 18408600344621011607
266924 87 18050851022927325918
2748010 2 18122347041174526622
3060560 45 18343298145982561950
335352 9 18411136922758158102
34934 24 18338790217745224114
350125 39 18122068872832192395
3524813 1 18114454578964286613
4072396 5 18263907870587135962
474 4 18341891935082527361
5939293 188 18411415137733514320
74978 22 18268710691637173308
77492 1 17561078069286269655
7832392 63 18341047540433275230
81228 2 16969127143303593387
8272917 22 18270687455020495351
84936 182 17987510588470474993
9981440 41 16909438462589008736

> <PUBCHEM_SHAPE_MULTIPOLES>
367.37
7.5
3.27
0.94
2.79
2.2
0.01
0.63
-0.24
-2.69
-0.08
0.98
0.08
0.35

> <PUBCHEM_SHAPE_SELFOVERLAP>
763.497

> <PUBCHEM_SHAPE_VOLUME>
214.2

> <PUBCHEM_COORDINATE_TYPE>
2
5
10

$$$$
