727658
  -OEChem-01171809203D

 43 44  0     0  0  0  0  0  0999 V2000
    0.8589   -1.3508   -1.0275 O   0  0  0  0  0  0  0  0  0  0  0  0
    1.4209    2.5675    0.1964 O   0  0  0  0  0  0  0  0  0  0  0  0
    2.2241    0.4370   -0.3967 N   0  0  0  0  0  0  0  0  0  0  0  0
    4.9586   -0.7458    0.7753 C   0  0  0  0  0  0  0  0  0  0  0  0
    4.4294    0.6840    0.7053 C   0  0  0  0  0  0  0  0  0  0  0  0
   -4.2391   -0.4156    0.1474 C   0  0  0  0  0  0  0  0  0  0  0  0
    3.8767   -1.8208    0.7153 C   0  0  0  0  0  0  0  0  0  0  0  0
    3.5902    0.9586   -0.5395 C   0  0  0  0  0  0  0  0  0  0  0  0
    3.1451   -1.8649   -0.6226 C   0  0  0  0  0  0  0  0  0  0  0  0
   -2.8234    0.0505    0.0933 C   0  0  0  0  0  0  0  0  0  0  0  0
    1.9615   -0.9152   -0.6851 C   0  0  0  0  0  0  0  0  0  0  0  0
    1.2222    1.3805   -0.0603 C   0  0  0  0  0  0  0  0  0  0  0  0
   -5.0327   -0.2971   -1.1994 C   0  0  0  0  0  0  0  0  0  0  0  0
   -4.3387   -1.9248    0.5462 C   0  0  0  0  0  0  0  0  0  0  0  0
   -5.0786    0.3978    1.1868 C   0  0  0  0  0  0  0  0  0  0  0  0
   -0.1794    0.9183   -0.0070 C   0  0  0  0  0  0  0  0  0  0  0  0
   -2.0265   -0.0069    1.2367 C   0  0  0  0  0  0  0  0  0  0  0  0
   -2.2957    0.5426   -1.1004 C   0  0  0  0  0  0  0  0  0  0  0  0
   -0.7021    0.4279    1.1865 C   0  0  0  0  0  0  0  0  0  0  0  0
   -0.9712    0.9773   -1.1507 C   0  0  0  0  0  0  0  0  0  0  0  0
    5.5189   -0.8624    1.7110 H   0  0  0  0  0  0  0  0  0  0  0  0
    5.6783   -0.9077   -0.0369 H   0  0  0  0  0  0  0  0  0  0  0  0
    5.2929    1.3603    0.7019 H   0  0  0  0  0  0  0  0  0  0  0  0
    3.8527    0.9106    1.6104 H   0  0  0  0  0  0  0  0  0  0  0  0
    3.1682   -1.6850    1.5414 H   0  0  0  0  0  0  0  0  0  0  0  0
    4.3647   -2.7909    0.8721 H   0  0  0  0  0  0  0  0  0  0  0  0
    3.5500    2.0412   -0.7035 H   0  0  0  0  0  0  0  0  0  0  0  0
    4.0562    0.5271   -1.4321 H   0  0  0  0  0  0  0  0  0  0  0  0
    2.7382   -2.8767   -0.7499 H   0  0  0  0  0  0  0  0  0  0  0  0
    3.8138   -1.6920   -1.4717 H   0  0  0  0  0  0  0  0  0  0  0  0
   -6.0628   -0.6557   -1.0838 H   0  0  0  0  0  0  0  0  0  0  0  0
   -5.0925    0.7433   -1.5397 H   0  0  0  0  0  0  0  0  0  0  0  0
   -4.5716   -0.8987   -1.9913 H   0  0  0  0  0  0  0  0  0  0  0  0
   -3.7823   -2.5505   -0.1615 H   0  0  0  0  0  0  0  0  0  0  0  0
   -5.3796   -2.2681    0.5555 H   0  0  0  0  0  0  0  0  0  0  0  0
   -3.9269   -2.1083    1.5446 H   0  0  0  0  0  0  0  0  0  0  0  0
   -6.1246    0.0706    1.1996 H   0  0  0  0  0  0  0  0  0  0  0  0
   -4.6891    0.2803    2.2039 H   0  0  0  0  0  0  0  0  0  0  0  0
   -5.0616    1.4675    0.9472 H   0  0  0  0  0  0  0  0  0  0  0  0
   -2.4126   -0.3864    2.1784 H   0  0  0  0  0  0  0  0  0  0  0  0
   -2.8690    0.6093   -2.0184 H   0  0  0  0  0  0  0  0  0  0  0  0
   -0.0886    0.3789    2.0822 H   0  0  0  0  0  0  0  0  0  0  0  0
   -0.5684    1.3595   -2.0850 H   0  0  0  0  0  0  0  0  0  0  0  0
  1 11  2  0  0  0  0
  2 12  2  0  0  0  0
  3  8  1  0  0  0  0
  3 11  1  0  0  0  0
  3 12  1  0  0  0  0
  4  5  1  0  0  0  0
  4  7  1  0  0  0  0
  4 21  1  0  0  0  0
  4 22  1  0  0  0  0
  5  8  1  0  0  0  0
  5 23  1  0  0  0  0
  5 24  1  0  0  0  0
  6 10  1  0  0  0  0
  6 13  1  0  0  0  0
  6 14  1  0  0  0  0
  6 15  1  0  0  0  0
  7  9  1  0  0  0  0
  7 25  1  0  0  0  0
  7 26  1  0  0  0  0
  8 27  1  0  0  0  0
  8 28  1  0  0  0  0
  9 11  1  0  0  0  0
  9 29  1  0  0  0  0
  9 30  1  0  0  0  0
 10 17  2  0  0  0  0
 10 18  1  0  0  0  0
 12 16  1  0  0  0  0
 13 31  1  0  0  0  0
 13 32  1  0  0  0  0
 13 33  1  0  0  0  0
 14 34  1  0  0  0  0
 14 35  1  0  0  0  0
 14 36  1  0  0  0  0
 15 37  1  0  0  0  0
 15 38  1  0  0  0  0
 15 39  1  0  0  0  0
 16 19  2  0  0  0  0
 16 20  1  0  0  0  0
 17 19  1  0  0  0  0
 17 40  1  0  0  0  0
 18 20  2  0  0  0  0
 18 41  1  0  0  0  0
 19 42  1  0  0  0  0
 20 43  1  0  0  0  0
M  END
> <PUBCHEM_COMPOUND_CID>
727658

> <PUBCHEM_CONFORMER_RMSD>
0.6

> <PUBCHEM_CONFORMER_DIVERSEORDER>
1
4
16
18
3
23
8
19
17
15
7
13
11
14
12
22
21
20
5
9
10
6
2

> <PUBCHEM_MMFF94_PARTIAL_CHARGES>
18
1 -0.57
10 -0.14
11 0.57
12 0.54
16 0.09
17 -0.15
18 -0.15
19 -0.15
2 -0.57
20 -0.15
3 -0.42
40 0.15
41 0.15
42 0.15
43 0.15
6 0.14
8 0.3
9 0.06

> <PUBCHEM_EFFECTIVE_ROTOR_COUNT>
4.2

> <PUBCHEM_PHARMACOPHORE_FEATURES>
5
1 1 acceptor
1 2 acceptor
4 6 13 14 15 hydrophobe
6 10 16 17 18 19 20 rings
7 3 4 5 7 8 9 11 rings

> <PUBCHEM_HEAVY_ATOM_COUNT>
20

> <PUBCHEM_ATOM_DEF_STEREO_COUNT>
0

> <PUBCHEM_ATOM_UDEF_STEREO_COUNT>
0

> <PUBCHEM_BOND_DEF_STEREO_COUNT>
0

> <PUBCHEM_BOND_UDEF_STEREO_COUNT>
0

> <PUBCHEM_ISOTOPIC_ATOM_COUNT>
0

> <PUBCHEM_COMPONENT_COUNT>
1

> <PUBCHEM_CACTVS_TAUTO_COUNT>
1

> <PUBCHEM_CONFORMER_ID>
000B1A6A00000001

> <PUBCHEM_MMFF94_ENERGY>
66.76

> <PUBCHEM_FEATURE_SELFOVERLAP>
25.371

> <PUBCHEM_SHAPE_FINGERPRINT>
11405975 8 18410862092333315641
11595378 159 16200161958147177851
11796584 16 17313097540624599355
12236239 1 17346599681455779324
12596602 18 16988558030670017410
12633257 1 18411989065623233939
13140716 1 18054782047495428360
13544653 18 18408887321514066973
13675066 3 16917075455638654717
14251764 18 18060422413760773265
14252887 29 17917436397750295222
14341114 328 16056585582793816642
14386348 63 18113618988559991715
14863182 85 18343028774730171790
15375462 189 17775280581991393892
15788980 27 17458062672911377931
15848702 151 18409733950147387683
16752209 62 13407062683230220070
17349148 13 18343866619073742266
17834072 14 18335981986757375430
1813 80 17531258257289502405
18186145 218 12685099210832248263
18785283 64 18192148415751516168
19141452 34 18334581256947981803
19862831 5 13406797726523461076
200 152 18344142601130178957
20281475 54 18334020509859024749
20374829 77 17894345575408894747
20645477 70 18333736839937683074
21250096 35 18412824668321151410
23402539 116 17168136858335012013
23557571 272 17313375704150058340
23559900 14 17167868594983866748
26918003 58 18342457036819611363
3060560 45 11025793206822259720
3286 77 18407759256949183365
347723 3 13695584430031688356
439807 62 17984967449195521575
463206 1 17967533441309360826
465052 167 18408326601107725002
474 4 17345179207238816360
4990 188 17530681026453588481
5104073 3 18342182184861787427
5283173 99 17896307031006989717
76465 3 18187078451307376571
9709674 26 17821736073467214427

> <PUBCHEM_SHAPE_MULTIPOLES>
394.87
11.01
1.86
1.24
3.05
0.16
0.01
3.61
1.7
-1.26
-0.01
0.64
0.03
0.15

> <PUBCHEM_SHAPE_SELFOVERLAP>
822.737

> <PUBCHEM_SHAPE_VOLUME>
223.1

> <PUBCHEM_COORDINATE_TYPE>
2
5
10

$$$$
