9626868
  -OEChem-01171809393D

 36 38  0     0  0  0  0  0  0999 V2000
    6.6356   -0.5901   -0.0056 Cl  0  0  0  0  0  0  0  0  0  0  0  0
   -3.6986   -1.9721    0.0574 O   0  0  0  0  0  0  0  0  0  0  0  0
   -6.0498   -0.3055   -0.0166 O   0  0  0  0  0  0  0  0  0  0  0  0
    3.3338   -2.6285   -1.0828 O   0  0  0  0  0  0  0  0  0  0  0  0
    4.4787   -2.7884    0.8743 O   0  0  0  0  0  0  0  0  0  0  0  0
    1.3069    2.0041    0.0059 N   0  0  0  0  0  0  0  0  0  0  0  0
    0.1759    1.2721    0.0077 N   0  0  0  0  0  0  0  0  0  0  0  0
   -3.6384   -0.6032    0.0307 C   0  0  0  0  0  0  0  0  0  0  0  0
   -4.7779    0.2046    0.0060 C   0  0  0  0  0  0  0  0  0  0  0  0
   -5.0017   -2.4418    0.4140 C   0  0  0  0  0  0  0  0  0  0  0  0
   -6.0624   -1.6917   -0.3682 C   0  0  0  0  0  0  0  0  0  0  0  0
   -2.3699   -0.0227    0.0188 C   0  0  0  0  0  0  0  0  0  0  0  0
   -2.2428    1.3665    0.0125 C   0  0  0  0  0  0  0  0  0  0  0  0
   -4.6501    1.5938    0.0135 C   0  0  0  0  0  0  0  0  0  0  0  0
   -3.3812    2.1735    0.0155 C   0  0  0  0  0  0  0  0  0  0  0  0
   -0.9221    1.9749    0.0102 C   0  0  0  0  0  0  0  0  0  0  0  0
    2.5641    1.3800    0.0033 C   0  0  0  0  0  0  0  0  0  0  0  0
    2.6583   -0.0151    0.0048 C   0  0  0  0  0  0  0  0  0  0  0  0
    3.9080   -0.6348    0.0022 C   0  0  0  0  0  0  0  0  0  0  0  0
    3.7316    2.1494   -0.0010 C   0  0  0  0  0  0  0  0  0  0  0  0
    5.0694    0.1375   -0.0021 C   0  0  0  0  0  0  0  0  0  0  0  0
    4.9812    1.5296   -0.0037 C   0  0  0  0  0  0  0  0  0  0  0  0
    3.9515   -2.0920    0.0034 C   0  0  0  0  0  0  0  0  0  0  0  0
   -5.1346   -2.3186    1.4960 H   0  0  0  0  0  0  0  0  0  0  0  0
   -5.0446   -3.5109    0.1838 H   0  0  0  0  0  0  0  0  0  0  0  0
   -5.9047   -1.7801   -1.4503 H   0  0  0  0  0  0  0  0  0  0  0  0
   -7.0565   -2.0854   -0.1344 H   0  0  0  0  0  0  0  0  0  0  0  0
   -1.4955   -0.6689    0.0255 H   0  0  0  0  0  0  0  0  0  0  0  0
   -5.5312    2.2294    0.0070 H   0  0  0  0  0  0  0  0  0  0  0  0
   -3.2955    3.2572    0.0151 H   0  0  0  0  0  0  0  0  0  0  0  0
   -0.8840    3.0805    0.0101 H   0  0  0  0  0  0  0  0  0  0  0  0
    1.7639   -0.6345    0.0130 H   0  0  0  0  0  0  0  0  0  0  0  0
    3.6775    3.2353   -0.0024 H   0  0  0  0  0  0  0  0  0  0  0  0
    1.2734    3.0173    0.0050 H   0  0  0  0  0  0  0  0  0  0  0  0
    5.8767    2.1460   -0.0071 H   0  0  0  0  0  0  0  0  0  0  0  0
    3.3664   -3.6090   -1.0744 H   0  0  0  0  0  0  0  0  0  0  0  0
  1 21  1  0  0  0  0
  2  8  1  0  0  0  0
  2 10  1  0  0  0  0
  3  9  1  0  0  0  0
  3 11  1  0  0  0  0
  4 23  1  0  0  0  0
  4 36  1  0  0  0  0
  5 23  2  0  0  0  0
  6  7  1  0  0  0  0
  6 17  1  0  0  0  0
  6 34  1  0  0  0  0
  7 16  2  0  0  0  0
  8  9  2  0  0  0  0
  8 12  1  0  0  0  0
  9 14  1  0  0  0  0
 10 11  1  0  0  0  0
 10 24  1  0  0  0  0
 10 25  1  0  0  0  0
 11 26  1  0  0  0  0
 11 27  1  0  0  0  0
 12 13  2  0  0  0  0
 12 28  1  0  0  0  0
 13 15  1  0  0  0  0
 13 16  1  0  0  0  0
 14 15  2  0  0  0  0
 14 29  1  0  0  0  0
 15 30  1  0  0  0  0
 16 31  1  0  0  0  0
 17 18  2  0  0  0  0
 17 20  1  0  0  0  0
 18 19  1  0  0  0  0
 18 32  1  0  0  0  0
 19 21  2  0  0  0  0
 19 23  1  0  0  0  0
 20 22  2  0  0  0  0
 20 33  1  0  0  0  0
 21 22  1  0  0  0  0
 22 35  1  0  0  0  0
M  END
> <PUBCHEM_COMPOUND_CID>
9626868

> <PUBCHEM_CONFORMER_RMSD>
0.8

> <PUBCHEM_CONFORMER_DIVERSEORDER>
1
24
34
4
19
23
13
8
20
18
12
16
21
22
14
26
7
32
29
11
2
31
3
10
33
17
5
28
25
6
9
27
15
30

> <PUBCHEM_MMFF94_PARTIAL_CHARGES>
32
1 -0.18
10 0.28
11 0.28
12 -0.15
13 0.09
14 -0.15
15 -0.15
16 0.3
17 0.1
18 -0.15
19 0.09
2 -0.36
20 -0.15
21 0.18
22 -0.15
23 0.63
28 0.15
29 0.15
3 -0.36
30 0.15
31 0.06
32 0.15
33 0.15
34 0.4
35 0.15
36 0.5
4 -0.65
5 -0.57
6 -0.46
7 -0.49
8 0.08
9 0.08

> <PUBCHEM_EFFECTIVE_ROTOR_COUNT>
4.8

> <PUBCHEM_PHARMACOPHORE_FEATURES>
10
1 2 acceptor
1 3 acceptor
1 4 acceptor
1 5 acceptor
1 6 donor
1 7 acceptor
3 4 5 23 anion
6 17 18 19 20 21 22 rings
6 2 3 8 9 10 11 rings
6 8 9 12 13 14 15 rings

> <PUBCHEM_HEAVY_ATOM_COUNT>
23

> <PUBCHEM_ATOM_DEF_STEREO_COUNT>
0

> <PUBCHEM_ATOM_UDEF_STEREO_COUNT>
0

> <PUBCHEM_BOND_DEF_STEREO_COUNT>
1

> <PUBCHEM_BOND_UDEF_STEREO_COUNT>
0

> <PUBCHEM_ISOTOPIC_ATOM_COUNT>
0

> <PUBCHEM_COMPONENT_COUNT>
1

> <PUBCHEM_CACTVS_TAUTO_COUNT>
1

> <PUBCHEM_CONFORMER_ID>
0092E4F400000001

> <PUBCHEM_MMFF94_ENERGY>
78.6979

> <PUBCHEM_FEATURE_SELFOVERLAP>
50.847

> <PUBCHEM_SHAPE_FINGERPRINT>
10595046 47 18409450301648777984
10835480 77 18410846681532533413
108634 29 18041570242608849042
11443803 9 17898288562543156932
11524674 6 16917352567276662199
11796584 16 18342460283720272788
11963148 33 18336259043189581034
12107183 9 17979922600971015905
12596602 18 17346885580306658840
12760667 363 18342175605372750743
13167823 11 18411417314902144733
13255334 9 18410578366113181574
13402501 40 18410294730784115554
13533116 47 18341612641843701521
13551218 46 18412829092854975319
15183329 4 18335419067164137611
15196674 1 18410573972398547977
15250474 111 18270954760409726855
15352361 1 18410575089132281929
15799311 1 18339379503578469297
17492 89 18269557148271790558
17844677 252 18411425015789601649
17857418 61 18411418414666713757
1813 80 17313388915464192621
20028762 73 18412540982128178650
20645477 70 18409730634496159484
21033648 29 14189305824565419321
21033650 10 16443619087187558517
21197605 99 18341051938453977822
21267235 1 18410862074393875244
21623969 137 17917996079138567886
23424784 1240 18341344317851603566
23522609 53 18122096227574930900
23559900 14 18267295607768021473
239999 70 18202290208517276892
25222932 49 18272367620187894566
3004659 81 18259982686889926856
314194 84 18271804691735734757
335352 9 18410290325281689925
338550 245 18336830887428532678
4073 2 18187932819081284000
4214541 1 18410575072116449737
439807 62 18335421279199012403
465052 167 18202568384637324812
5104073 3 18272932695886591177
559249 180 18409727349057246085
59682541 35 18201706363869402424
6431902 208 18338795727687592271
6823239 73 17916320346414693222
7970288 3 17978789335981542351
9709674 26 18261680349643066401

> <PUBCHEM_SHAPE_MULTIPOLES>
441.76
17.31
3.1
0.67
1.53
1.11
-0.02
7.3
0.04
-0.29
0.06
-0.18
0.19
0.01

> <PUBCHEM_SHAPE_SELFOVERLAP>
953.348

> <PUBCHEM_SHAPE_VOLUME>
241.5

> <PUBCHEM_COORDINATE_TYPE>
2
5
10

$$$$
