44640137
  -OEChem-01171810193D

 60 63  0     1  0  0  0  0  0999 V2000
   -6.9225    0.4344   -0.3351 S   0  3  1  0  0  0  0  0  0  0  0  0
    1.4096    0.9524   -0.4992 O   0  0  0  0  0  0  0  0  0  0  0  0
   -0.4257   -0.8885    0.1222 O   0  0  0  0  0  0  0  0  0  0  0  0
   -1.1004   -3.0088   -0.4682 O   0  0  0  0  0  0  0  0  0  0  0  0
   -6.8630    1.8701   -0.5609 O   0  5  0  0  0  0  0  0  0  0  0  0
   -7.6975   -0.4111   -1.2288 O   0  0  0  0  0  0  0  0  0  0  0  0
   -4.3195    2.8352   -0.5824 O   0  5  0  0  0  0  0  0  0  0  0  0
   -4.5724    2.3247    1.5376 O   0  0  0  0  0  0  0  0  0  0  0  0
    3.1749   -0.5388   -0.2731 N   0  0  0  0  0  0  0  0  0  0  0  0
   -4.3726    1.9937    0.3452 N   0  3  0  0  0  0  0  0  0  0  0  0
    5.3900   -0.3585   -1.3686 C   0  0  0  0  0  0  0  0  0  0  0  0
    4.7783    1.1591    0.5538 C   0  0  0  0  0  0  0  0  0  0  0  0
    6.9451    1.5142   -0.6945 C   0  0  0  0  0  0  0  0  0  0  0  0
    6.6713   -0.4941    0.8036 C   0  0  0  0  0  0  0  0  0  0  0  0
    4.2292    0.3705   -0.6558 C   0  0  0  0  0  0  0  0  0  0  0  0
    5.5100    0.2109    1.5246 C   0  0  0  0  0  0  0  0  0  0  0  0
    6.1179   -1.2970   -0.3857 C   0  0  0  0  0  0  0  0  0  0  0  0
    6.3912    0.6976   -1.8765 C   0  0  0  0  0  0  0  0  0  0  0  0
    5.7821    2.2085    0.0376 C   0  0  0  0  0  0  0  0  0  0  0  0
    7.6589    0.5642    0.2825 C   0  0  0  0  0  0  0  0  0  0  0  0
    1.8402   -0.1663   -0.2270 C   0  0  0  0  0  0  0  0  0  0  0  0
    0.9251   -1.3155    0.1805 C   0  0  1  0  0  0  0  0  0  0  0  0
    1.2319   -1.8392    1.5866 C   0  0  0  0  0  0  0  0  0  0  0  0
    1.0918   -0.7836    2.6780 C   0  0  0  0  0  0  0  0  0  0  0  0
   -1.3429   -1.8389   -0.2156 C   0  0  0  0  0  0  0  0  0  0  0  0
   -2.7129   -1.2672   -0.2418 C   0  0  0  0  0  0  0  0  0  0  0  0
   -2.9132    0.0801    0.0588 C   0  0  0  0  0  0  0  0  0  0  0  0
   -3.8002   -2.0783   -0.5667 C   0  0  0  0  0  0  0  0  0  0  0  0
   -4.2006    0.6163    0.0341 C   0  0  0  0  0  0  0  0  0  0  0  0
   -5.0876   -1.5422   -0.5915 C   0  0  0  0  0  0  0  0  0  0  0  0
   -5.2878   -0.1949   -0.2910 C   0  0  0  0  0  0  0  0  0  0  0  0
   -7.5284    0.1907    1.3176 C   0  0  0  0  0  0  0  0  0  0  0  0
    3.9615    1.6627    1.0842 H   0  0  0  0  0  0  0  0  0  0  0  0
    5.0085   -0.9418   -2.2150 H   0  0  0  0  0  0  0  0  0  0  0  0
    7.1850   -1.1676    1.4986 H   0  0  0  0  0  0  0  0  0  0  0  0
    7.6521    2.2659   -1.0629 H   0  0  0  0  0  0  0  0  0  0  0  0
    3.7863    1.0858   -1.3621 H   0  0  0  0  0  0  0  0  0  0  0  0
    5.2779    2.9086   -0.6399 H   0  0  0  0  0  0  0  0  0  0  0  0
    6.1684    2.8010    0.8761 H   0  0  0  0  0  0  0  0  0  0  0  0
    5.4497   -2.0877   -0.0273 H   0  0  0  0  0  0  0  0  0  0  0  0
    6.9419   -1.8039   -0.9037 H   0  0  0  0  0  0  0  0  0  0  0  0
    5.8937    0.7798    2.3807 H   0  0  0  0  0  0  0  0  0  0  0  0
    4.8131   -0.5324    1.9301 H   0  0  0  0  0  0  0  0  0  0  0  0
    7.2142    0.2068   -2.4105 H   0  0  0  0  0  0  0  0  0  0  0  0
    5.9002    1.3652   -2.5951 H   0  0  0  0  0  0  0  0  0  0  0  0
    8.5025    0.0748   -0.2196 H   0  0  0  0  0  0  0  0  0  0  0  0
    8.0753    1.1339    1.1223 H   0  0  0  0  0  0  0  0  0  0  0  0
    3.4261   -1.4872   -0.0151 H   0  0  0  0  0  0  0  0  0  0  0  0
    1.1066   -2.1151   -0.5510 H   0  0  0  0  0  0  0  0  0  0  0  0
    0.5429   -2.6585    1.8253 H   0  0  0  0  0  0  0  0  0  0  0  0
    2.2436   -2.2572    1.6326 H   0  0  0  0  0  0  0  0  0  0  0  0
    1.2851   -1.2314    3.6582 H   0  0  0  0  0  0  0  0  0  0  0  0
    1.8064    0.0333    2.5389 H   0  0  0  0  0  0  0  0  0  0  0  0
    0.0823   -0.3611    2.6958 H   0  0  0  0  0  0  0  0  0  0  0  0
   -2.0841    0.7352    0.3158 H   0  0  0  0  0  0  0  0  0  0  0  0
   -3.6654   -3.1308   -0.8018 H   0  0  0  0  0  0  0  0  0  0  0  0
   -5.9173   -2.1983   -0.8392 H   0  0  0  0  0  0  0  0  0  0  0  0
   -6.9066    0.7512    2.0172 H   0  0  0  0  0  0  0  0  0  0  0  0
   -7.5074   -0.8759    1.5495 H   0  0  0  0  0  0  0  0  0  0  0  0
   -8.5560    0.5584    1.3584 H   0  0  0  0  0  0  0  0  0  0  0  0
  1  5  1  0  0  0  0
  1  6  2  0  0  0  0
  1 31  1  0  0  0  0
  1 32  1  0  0  0  0
  2 21  2  0  0  0  0
  3 22  1  0  0  0  0
  3 25  1  0  0  0  0
  4 25  2  0  0  0  0
  7 10  1  0  0  0  0
  8 10  2  0  0  0  0
  9 15  1  0  0  0  0
  9 21  1  0  0  0  0
  9 48  1  0  0  0  0
 10 29  1  0  0  0  0
 11 15  1  0  0  0  0
 11 17  1  0  0  0  0
 11 18  1  0  0  0  0
 11 34  1  0  0  0  0
 12 15  1  0  0  0  0
 12 16  1  0  0  0  0
 12 19  1  0  0  0  0
 12 33  1  0  0  0  0
 13 18  1  0  0  0  0
 13 19  1  0  0  0  0
 13 20  1  0  0  0  0
 13 36  1  0  0  0  0
 14 16  1  0  0  0  0
 14 17  1  0  0  0  0
 14 20  1  0  0  0  0
 14 35  1  0  0  0  0
 15 37  1  0  0  0  0
 16 42  1  0  0  0  0
 16 43  1  0  0  0  0
 17 40  1  0  0  0  0
 17 41  1  0  0  0  0
 18 44  1  0  0  0  0
 18 45  1  0  0  0  0
 19 38  1  0  0  0  0
 19 39  1  0  0  0  0
 20 46  1  0  0  0  0
 20 47  1  0  0  0  0
 21 22  1  0  0  0  0
 22 23  1  0  0  0  0
 22 49  1  0  0  0  0
 23 24  1  0  0  0  0
 23 50  1  0  0  0  0
 23 51  1  0  0  0  0
 24 52  1  0  0  0  0
 24 53  1  0  0  0  0
 24 54  1  0  0  0  0
 25 26  1  0  0  0  0
 26 27  2  0  0  0  0
 26 28  1  0  0  0  0
 27 29  1  0  0  0  0
 27 55  1  0  0  0  0
 28 30  2  0  0  0  0
 28 56  1  0  0  0  0
 29 31  2  0  0  0  0
 30 31  1  0  0  0  0
 30 57  1  0  0  0  0
 32 58  1  0  0  0  0
 32 59  1  0  0  0  0
 32 60  1  0  0  0  0
M  CHG  4   1   1   5  -1   7  -1  10   1
M  END
> <PUBCHEM_COMPOUND_CID>
44640137

> <PUBCHEM_CONFORMER_RMSD>
1.2

> <PUBCHEM_CONFORMER_DIVERSEORDER>
1
62
90
82
38
99
21
93
24
79
92
71
30
76
81
57
42
98
34
78
28
54
44
66
64
50
75
70
15
77
6
96
51
65
56
29
87
100
91
61
63
45
69
80
17
22
4
35
53
20
12
47
88
84
95
25
7
73
2
19
86
46
26
5
72
55
10
13
3
68
23
83
59
43
97
41
49
48
39
58
85
37
32
89
9
67
31
74
8
27
52
14
18
16
36
11
94
33
60
40

> <PUBCHEM_MMFF94_PARTIAL_CHARGES>
25
1 1.2
10 0.91
15 0.3
2 -0.57
21 0.57
22 0.34
25 0.63
26 0.09
27 -0.15
28 -0.15
29 0.13
3 -0.43
30 -0.15
31 -0.01
32 0.11
4 -0.57
48 0.37
5 -0.65
55 0.15
56 0.15
57 0.15
6 -0.65
7 -0.52
8 -0.52
9 -0.73

> <PUBCHEM_EFFECTIVE_ROTOR_COUNT>
10.2

> <PUBCHEM_PHARMACOPHORE_FEATURES>
13
1 2 acceptor
1 24 hydrophobe
1 4 acceptor
1 6 acceptor
1 7 acceptor
1 7 anion
1 8 acceptor
1 9 donor
6 11 12 13 15 18 19 rings
6 11 12 14 15 16 17 rings
6 11 13 14 17 18 20 rings
6 12 13 14 16 19 20 rings
6 26 27 28 29 30 31 rings

> <PUBCHEM_HEAVY_ATOM_COUNT>
32

> <PUBCHEM_ATOM_DEF_STEREO_COUNT>
0

> <PUBCHEM_ATOM_UDEF_STEREO_COUNT>
1

> <PUBCHEM_BOND_DEF_STEREO_COUNT>
0

> <PUBCHEM_BOND_UDEF_STEREO_COUNT>
0

> <PUBCHEM_ISOTOPIC_ATOM_COUNT>
0

> <PUBCHEM_COMPONENT_COUNT>
1

> <PUBCHEM_CACTVS_TAUTO_COUNT>
2

> <PUBCHEM_CONFORMER_ID>
02A9278900000001

> <PUBCHEM_MMFF94_ENERGY>
75.8962

> <PUBCHEM_FEATURE_SELFOVERLAP>
78.566

> <PUBCHEM_SHAPE_FINGERPRINT>
10 15 18114184142385471963
10411042 1 17835800073820119359
10454371 7 18202848760139330677
10670039 82 18343297055487856953
10906281 52 17895208735666932158
12082328 90 15698004033618539471
12236239 1 18187079580978772762
12516196 113 10735879473983875354
13685833 64 10447929477117142015
13782708 43 16700887392037163143
14251764 18 18186239545446779589
14394314 77 18339647733731490945
14933364 13 18342178881641578438
15082195 135 18130519612884514540
15131766 46 15215299857032933582
15183329 4 18201723955148214738
15301273 46 15140676960258825170
15419008 47 17275100639198441432
1577012 14 18333729152073161678
17913733 40 16153422835742396674
18608769 82 18342177808749600139
19611394 137 18042136521731396747
20281389 69 18260547818544238404
21033648 29 17845642764002342458
21424621 283 18260267473412926042
21623969 137 14562526276248279986
21781051 124 13118278136918948616
22061861 79 16415484861175816630
22224240 67 15574713612172155563
23559900 14 17917422185846080553
23576562 1 15912467139175091041
2838139 119 18409442596418881196
3610482 184 18042417983269570814
3918712 181 18410285921869891176
394071 54 16298390210550594246
397830 11 13262975060607793828
4073 2 18187368778787061194
4093350 32 18113331977872259834
4098825 35 17274551927504255791
4197921 191 18335423465422008852
4516262 110 18040987445168362919
5283173 99 18202004335061271848
5385378 56 17313377903627118002
5758199 1 17603303764883251267
59755656 520 17530681043665665259
9831232 110 8645955277342204880

> <PUBCHEM_SHAPE_MULTIPOLES>
611.35
24.67
2.37
1.47
3.64
0.31
-0.65
9.85
3.06
1.98
0.01
-0.9
-0.14
-1.11

> <PUBCHEM_SHAPE_SELFOVERLAP>
1300.468

> <PUBCHEM_SHAPE_VOLUME>
343.7

> <PUBCHEM_COORDINATE_TYPE>
2
5
10

$$$$
