5184800
  -OEChem-01171809383D

 54 57  0     0  0  0  0  0  0999 V2000
    6.6310    0.5627    0.5202 S   0  0  0  0  0  0  0  0  0  0  0  0
   -1.7602    0.4606    0.2090 O   0  0  0  0  0  0  0  0  0  0  0  0
    0.2954   -1.2395   -0.1519 O   0  0  0  0  0  0  0  0  0  0  0  0
    1.2269   -3.2863   -0.6448 O   0  0  0  0  0  0  0  0  0  0  0  0
    6.4066    1.8279    1.2010 O   0  0  0  0  0  0  0  0  0  0  0  0
    7.5303   -0.4244    1.0971 O   0  0  0  0  0  0  0  0  0  0  0  0
    3.0757    2.5419   -0.9253 O   0  5  0  0  0  0  0  0  0  0  0  0
    5.1874    2.5024   -0.3269 O   0  0  0  0  0  0  0  0  0  0  0  0
   -3.3323   -1.1949   -0.2354 N   0  0  0  0  0  0  0  0  0  0  0  0
    4.0855    1.9313   -0.5029 N   0  3  0  0  0  0  0  0  0  0  0  0
   -4.5182   -0.3852   -0.0609 C   0  0  0  0  0  0  0  0  0  0  0  0
   -5.7687    1.6545   -0.8851 C   0  0  0  0  0  0  0  0  0  0  0  0
   -5.8270    1.0508    1.5621 C   0  0  0  0  0  0  0  0  0  0  0  0
   -7.0491   -0.3772   -0.1174 C   0  0  0  0  0  0  0  0  0  0  0  0
   -4.5102    0.7882   -1.0645 C   0  0  0  0  0  0  0  0  0  0  0  0
   -4.5684    0.1864    1.3733 C   0  0  0  0  0  0  0  0  0  0  0  0
   -5.7856   -1.2357   -0.2993 C   0  0  0  0  0  0  0  0  0  0  0  0
   -5.8012    2.2085    0.5495 C   0  0  0  0  0  0  0  0  0  0  0  0
   -7.0173    0.7878   -1.1214 C   0  0  0  0  0  0  0  0  0  0  0  0
   -7.0752    0.1875    1.3130 C   0  0  0  0  0  0  0  0  0  0  0  0
   -2.0487   -0.6965   -0.0839 C   0  0  0  0  0  0  0  0  0  0  0  0
   -1.0035   -1.7649   -0.3244 C   0  0  0  0  0  0  0  0  0  0  0  0
    1.3326   -2.1080   -0.3419 C   0  0  0  0  0  0  0  0  0  0  0  0
    2.6394   -1.4356   -0.1303 C   0  0  0  0  0  0  0  0  0  0  0  0
    2.7493   -0.0887   -0.4096 C   0  0  0  0  0  0  0  0  0  0  0  0
    3.7039   -2.1786    0.3373 C   0  0  0  0  0  0  0  0  0  0  0  0
    3.9774    0.5427   -0.2128 C   0  0  0  0  0  0  0  0  0  0  0  0
    5.0687   -0.1864    0.2592 C   0  0  0  0  0  0  0  0  0  0  0  0
    4.9320   -1.5470    0.5343 C   0  0  0  0  0  0  0  0  0  0  0  0
    7.2237    0.9157   -1.1174 C   0  0  0  0  0  0  0  0  0  0  0  0
   -5.7534    2.4831   -1.6019 H   0  0  0  0  0  0  0  0  0  0  0  0
   -5.8522    1.4510    2.5818 H   0  0  0  0  0  0  0  0  0  0  0  0
   -7.9409   -0.9900   -0.2897 H   0  0  0  0  0  0  0  0  0  0  0  0
   -3.6310    1.4298   -0.9420 H   0  0  0  0  0  0  0  0  0  0  0  0
   -4.4668    0.4052   -2.0929 H   0  0  0  0  0  0  0  0  0  0  0  0
   -4.5664   -0.6317    2.1059 H   0  0  0  0  0  0  0  0  0  0  0  0
   -3.6911    0.8011    1.6023 H   0  0  0  0  0  0  0  0  0  0  0  0
   -5.8098   -2.0854    0.3959 H   0  0  0  0  0  0  0  0  0  0  0  0
   -5.7705   -1.6655   -1.3097 H   0  0  0  0  0  0  0  0  0  0  0  0
   -4.9231    2.8416    0.7266 H   0  0  0  0  0  0  0  0  0  0  0  0
   -6.6848    2.8442    0.6854 H   0  0  0  0  0  0  0  0  0  0  0  0
   -7.9224    1.3984   -1.0150 H   0  0  0  0  0  0  0  0  0  0  0  0
   -7.0145    0.3985   -2.1470 H   0  0  0  0  0  0  0  0  0  0  0  0
   -7.9813    0.7875    1.4621 H   0  0  0  0  0  0  0  0  0  0  0  0
   -7.1138   -0.6337    2.0393 H   0  0  0  0  0  0  0  0  0  0  0  0
   -3.4508   -2.1740   -0.4805 H   0  0  0  0  0  0  0  0  0  0  0  0
   -1.1207   -2.1381   -1.3485 H   0  0  0  0  0  0  0  0  0  0  0  0
   -1.1721   -2.5806    0.3885 H   0  0  0  0  0  0  0  0  0  0  0  0
    1.8941    0.4618   -0.7918 H   0  0  0  0  0  0  0  0  0  0  0  0
    3.6088   -3.2377    0.5573 H   0  0  0  0  0  0  0  0  0  0  0  0
    5.7617   -2.1441    0.9010 H   0  0  0  0  0  0  0  0  0  0  0  0
    6.4585    1.2915   -1.7922 H   0  0  0  0  0  0  0  0  0  0  0  0
    7.6183   -0.0151   -1.5347 H   0  0  0  0  0  0  0  0  0  0  0  0
    8.0368    1.6406   -1.0329 H   0  0  0  0  0  0  0  0  0  0  0  0
  1  5  2  0  0  0  0
  1  6  2  0  0  0  0
  1 28  1  0  0  0  0
  1 30  1  0  0  0  0
  2 21  2  0  0  0  0
  3 22  1  0  0  0  0
  3 23  1  0  0  0  0
  4 23  2  0  0  0  0
  7 10  1  0  0  0  0
  8 10  2  0  0  0  0
  9 11  1  0  0  0  0
  9 21  1  0  0  0  0
  9 46  1  0  0  0  0
 10 27  1  0  0  0  0
 11 15  1  0  0  0  0
 11 16  1  0  0  0  0
 11 17  1  0  0  0  0
 12 15  1  0  0  0  0
 12 18  1  0  0  0  0
 12 19  1  0  0  0  0
 12 31  1  0  0  0  0
 13 16  1  0  0  0  0
 13 18  1  0  0  0  0
 13 20  1  0  0  0  0
 13 32  1  0  0  0  0
 14 17  1  0  0  0  0
 14 19  1  0  0  0  0
 14 20  1  0  0  0  0
 14 33  1  0  0  0  0
 15 34  1  0  0  0  0
 15 35  1  0  0  0  0
 16 36  1  0  0  0  0
 16 37  1  0  0  0  0
 17 38  1  0  0  0  0
 17 39  1  0  0  0  0
 18 40  1  0  0  0  0
 18 41  1  0  0  0  0
 19 42  1  0  0  0  0
 19 43  1  0  0  0  0
 20 44  1  0  0  0  0
 20 45  1  0  0  0  0
 21 22  1  0  0  0  0
 22 47  1  0  0  0  0
 22 48  1  0  0  0  0
 23 24  1  0  0  0  0
 24 25  2  0  0  0  0
 24 26  1  0  0  0  0
 25 27  1  0  0  0  0
 25 49  1  0  0  0  0
 26 29  2  0  0  0  0
 26 50  1  0  0  0  0
 27 28  2  0  0  0  0
 28 29  1  0  0  0  0
 29 51  1  0  0  0  0
 30 52  1  0  0  0  0
 30 53  1  0  0  0  0
 30 54  1  0  0  0  0
M  CHG  2   7  -1  10   1
M  END
> <PUBCHEM_COMPOUND_CID>
5184800

> <PUBCHEM_CONFORMER_RMSD>
1

> <PUBCHEM_CONFORMER_DIVERSEORDER>
1
48
53
87
20
76
52
78
5
80
72
41
61
56
57
46
85
69
82
19
83
81
40
16
59
3
42
33
60
37
63
70
47
84
45
27
29
65
86
71
50
12
49
77
10
55
34
26
75
21
39
2
92
15
58
32
14
8
18
25
66
88
17
54
62
91
51
6
35
79
44
4
89
24
43
9
68
90
30
67
74
11
13
7
28
23
38
36
31
22
73
64

> <PUBCHEM_MMFF94_PARTIAL_CHARGES>
25
1 1.2
10 0.91
11 0.3
2 -0.57
21 0.57
22 0.34
23 0.63
24 0.09
25 -0.15
26 -0.15
27 0.13
28 -0.01
29 -0.15
3 -0.43
30 0.11
4 -0.57
46 0.37
49 0.15
5 -0.65
50 0.15
51 0.15
6 -0.65
7 -0.52
8 -0.52
9 -0.73

> <PUBCHEM_EFFECTIVE_ROTOR_COUNT>
9.2

> <PUBCHEM_PHARMACOPHORE_FEATURES>
13
1 2 acceptor
1 4 acceptor
1 5 acceptor
1 6 acceptor
1 7 acceptor
1 7 anion
1 8 acceptor
1 9 donor
6 11 12 13 15 16 18 rings
6 11 12 14 15 17 19 rings
6 11 13 14 16 17 20 rings
6 12 13 14 18 19 20 rings
6 24 25 26 27 28 29 rings

> <PUBCHEM_HEAVY_ATOM_COUNT>
30

> <PUBCHEM_ATOM_DEF_STEREO_COUNT>
0

> <PUBCHEM_ATOM_UDEF_STEREO_COUNT>
0

> <PUBCHEM_BOND_DEF_STEREO_COUNT>
0

> <PUBCHEM_BOND_UDEF_STEREO_COUNT>
0

> <PUBCHEM_ISOTOPIC_ATOM_COUNT>
0

> <PUBCHEM_COMPONENT_COUNT>
1

> <PUBCHEM_CACTVS_TAUTO_COUNT>
2

> <PUBCHEM_CONFORMER_ID>
004F1D2000000001

> <PUBCHEM_MMFF94_ENERGY>
105.72

> <PUBCHEM_FEATURE_SELFOVERLAP>
78.747

> <PUBCHEM_SHAPE_FINGERPRINT>
10 15 17894352189294598667
10162869 55 18335692888810164631
10411042 1 17906168448593737190
10595046 47 18343580716740519527
10816530 90 18261686947878761788
10835480 77 18263358110778850637
11315181 36 18273493465141012715
11719270 70 18411415103616609442
13167372 99 18412262805099963930
13631057 29 18129655426910399031
13673619 4 10087640394531505443
13685833 64 8935001477645603494
13785724 45 17906731406688641874
14251764 18 18334575754387851055
14394314 77 18202008685969684361
14849402 71 18336269041124048276
14856354 85 17131827690995168071
14933364 13 18335140890653764231
15183329 4 18410293609871465329
15289351 153 18272646810758773210
15348495 7 17604158107145856587
15419008 145 18188195500083356784
1577012 14 17988926635219558915
16989713 51 17201908436052115911
17093844 174 16515685521116805623
17844677 252 18265902367647433535
20157964 124 18412545392842923958
20281389 69 18335420153796209359
20511986 3 18343008999940916210
20721686 56 18260830376380377669
21033648 29 17168140088567527095
21033650 10 15123243100158565419
21150785 3 16774072986525993135
21298829 104 18343024363123720009
21774942 28 17203618043098378520
23081809 10 17203042981326827151
2748736 6 18343578546985183872
2838139 119 18410288137924420207
328310 630 18272655636689868873
397830 11 18041011669327329043
4073 2 17894635884996833482
4093350 32 17561367249745650374
4169191 19 18409729552053546917
465052 167 11169912771390538986
5104073 3 18187369796741335131
543368 44 18131350796345446723
5470011 282 11887671810630038360
5758199 1 18342177773540451266
999808 66 10519700129460425773

> <PUBCHEM_SHAPE_MULTIPOLES>
570.19
24.77
2.58
1.14
0.19
0.15
-0.2
-10.32
-2.98
2.39
0.38
-0.86
-0.34
-0.56

> <PUBCHEM_SHAPE_SELFOVERLAP>
1231.162

> <PUBCHEM_SHAPE_VOLUME>
314.8

> <PUBCHEM_COORDINATE_TYPE>
2
5
10

$$$$
