2467100
  -OEChem-01171809503D

 28 30  0     0  0  0  0  0  0999 V2000
   -3.4418    1.9949   -0.0264 S   0  0  0  0  0  0  0  0  0  0  0  0
   -0.9693   -1.9034   -0.0146 O   0  0  0  0  0  0  0  0  0  0  0  0
    3.0510   -0.6861   -0.0016 N   0  0  0  0  0  0  0  0  0  0  0  0
    1.3855    0.8070   -0.0099 N   0  0  0  0  0  0  0  0  0  0  0  0
   -1.3605    0.4008   -0.0406 N   0  0  0  0  0  0  0  0  0  0  0  0
   -3.5570   -0.5874    0.0099 N   0  0  0  0  0  0  0  0  0  0  0  0
    2.6946    0.6599    0.0026 C   0  0  0  0  0  0  0  0  0  0  0  0
    0.8791   -0.4681   -0.0225 C   0  0  0  0  0  0  0  0  0  0  0  0
    1.8843   -1.4063   -0.0175 C   0  0  0  0  0  0  0  0  0  0  0  0
    4.3689   -1.1341    0.0090 C   0  0  0  0  0  0  0  0  0  0  0  0
    3.7568    1.6111    0.0197 C   0  0  0  0  0  0  0  0  0  0  0  0
   -0.5266   -0.7359   -0.0384 C   0  0  0  0  0  0  0  0  0  0  0  0
    5.3637   -0.2321    0.0241 C   0  0  0  0  0  0  0  0  0  0  0  0
    5.0343    1.1843    0.0299 C   0  0  0  0  0  0  0  0  0  0  0  0
   -2.7592    0.4343   -0.0178 C   0  0  0  0  0  0  0  0  0  0  0  0
   -4.8534   -0.1111    0.0261 C   0  0  0  0  0  0  0  0  0  0  0  0
   -4.9915    1.2610    0.0093 C   0  0  0  0  0  0  0  0  0  0  0  0
   -5.9591   -1.0885    0.0586 C   0  0  0  0  0  0  0  0  0  0  0  0
    1.8765   -2.4881   -0.0239 H   0  0  0  0  0  0  0  0  0  0  0  0
    4.5435   -2.2031    0.0043 H   0  0  0  0  0  0  0  0  0  0  0  0
    3.5232    2.6699    0.0241 H   0  0  0  0  0  0  0  0  0  0  0  0
    6.4054   -0.5291    0.0327 H   0  0  0  0  0  0  0  0  0  0  0  0
    5.8556    1.8926    0.0428 H   0  0  0  0  0  0  0  0  0  0  0  0
   -0.9195    1.3175   -0.0542 H   0  0  0  0  0  0  0  0  0  0  0  0
   -5.8967    1.8519    0.0164 H   0  0  0  0  0  0  0  0  0  0  0  0
   -6.1249   -1.5055   -0.9396 H   0  0  0  0  0  0  0  0  0  0  0  0
   -6.8928   -0.6281    0.3972 H   0  0  0  0  0  0  0  0  0  0  0  0
   -5.7253   -1.9126    0.7403 H   0  0  0  0  0  0  0  0  0  0  0  0
  1 15  1  0  0  0  0
  1 17  1  0  0  0  0
  2 12  2  0  0  0  0
  3  7  1  0  0  0  0
  3  9  1  0  0  0  0
  3 10  1  0  0  0  0
  4  7  2  0  0  0  0
  4  8  1  0  0  0  0
  5 12  1  0  0  0  0
  5 15  1  0  0  0  0
  5 24  1  0  0  0  0
  6 15  2  0  0  0  0
  6 16  1  0  0  0  0
  7 11  1  0  0  0  0
  8  9  2  0  0  0  0
  8 12  1  0  0  0  0
  9 19  1  0  0  0  0
 10 13  2  0  0  0  0
 10 20  1  0  0  0  0
 11 14  2  0  0  0  0
 11 21  1  0  0  0  0
 13 14  1  0  0  0  0
 13 22  1  0  0  0  0
 14 23  1  0  0  0  0
 16 17  2  0  0  0  0
 16 18  1  0  0  0  0
 17 25  1  0  0  0  0
 18 26  1  0  0  0  0
 18 27  1  0  0  0  0
 18 28  1  0  0  0  0
M  END
> <PUBCHEM_COMPOUND_CID>
2467100

> <PUBCHEM_CONFORMER_RMSD>
0.6

> <PUBCHEM_CONFORMER_DIVERSEORDER>
1
7
10
6
8
3
2
9
5
4

> <PUBCHEM_MMFF94_PARTIAL_CHARGES>
25
1 -0.08
10 -0.18
11 -0.11
12 0.72
13 -0.15
14 -0.15
15 0.44
16 0.05
17 -0.11
18 0.18
19 0.15
2 -0.57
20 0.15
21 0.15
22 0.15
23 0.15
24 0.37
25 0.15
3 0.33
4 -0.57
5 -0.49
6 -0.57
7 0.14
8 0.14
9 -0.3

> <PUBCHEM_EFFECTIVE_ROTOR_COUNT>
3

> <PUBCHEM_PHARMACOPHORE_FEATURES>
6
1 2 acceptor
1 5 donor
3 3 4 7 cation
5 1 6 15 16 17 rings
5 3 4 7 8 9 rings
6 3 7 10 11 13 14 rings

> <PUBCHEM_HEAVY_ATOM_COUNT>
18

> <PUBCHEM_ATOM_DEF_STEREO_COUNT>
0

> <PUBCHEM_ATOM_UDEF_STEREO_COUNT>
0

> <PUBCHEM_BOND_DEF_STEREO_COUNT>
0

> <PUBCHEM_BOND_UDEF_STEREO_COUNT>
0

> <PUBCHEM_ISOTOPIC_ATOM_COUNT>
0

> <PUBCHEM_COMPONENT_COUNT>
1

> <PUBCHEM_CACTVS_TAUTO_COUNT>
3

> <PUBCHEM_CONFORMER_ID>
0025A51C00000001

> <PUBCHEM_MMFF94_ENERGY>
27.5426

> <PUBCHEM_FEATURE_SELFOVERLAP>
30.561

> <PUBCHEM_SHAPE_FINGERPRINT>
10 15 18262794194342009680
10366900 7 16298387950359072249
10595046 47 18411699893927868193
11287383 113 18411139142786712443
12107183 9 17616812132966640081
12166972 35 18409453604378557744
12236239 1 18131070424252216979
12403259 415 18201710765056131977
12916748 109 18412548708056061829
13081056 2 18411136935115694844
13167372 99 18271811155508801137
13167823 11 18410852140372039347
13533116 47 14117528597671340460
13785724 45 17618783561869711538
1420 363 18260554437389495875
14251732 16 18337954596770048731
14251764 18 18260261959080852904
14341114 176 18408328786971687617
15196674 1 18410856538355175457
15778101 99 18271250400858752265
17834072 33 18341893008502357599
17844677 252 18412270514519099161
18222031 100 16008750212308598454
19489759 90 15719387331196887229
200 152 18131068225582363459
20645477 70 18272374127274688462
21267235 1 18411707577487373110
212847 35 18413388739841564976
21652331 79 18410009940150583741
23272321 79 18410013256039162669
23402539 116 18271801324391535237
23402655 69 18273493451005923237
23559900 14 18411415124494996376
2916195 48 18343013415394273496
335352 9 18410576185282710358
34797466 226 17489315230111197948
351380 180 18407477760597758953
3545911 37 18412828005964329876
4047638 21 18410294709846881478
4073 2 18040723596721585091
4214541 1 18410573964098854661
42788 4 18410856559639789575
4325135 7 18343862243129795791
474 4 17822295738124328924
474229 33 18412263956636911631
495365 180 17418083361227030530
4990 188 18131638859142678182
5104073 3 18409449159044488193
542803 24 17418376882991017665
54446538 1 18410572885698215925
59755656 520 17821725056929523475
7495541 125 17560796684155654499
77779 3 18411419475586958869
90127 26 18334587814714053616
9996256 80 18342457066926898711

> <PUBCHEM_SHAPE_MULTIPOLES>
348.49
13.89
1.78
0.6
4.66
0.26
0
1.33
-0.24
0.32
0
0.01
0.02
0.05

> <PUBCHEM_SHAPE_SELFOVERLAP>
752.08

> <PUBCHEM_SHAPE_VOLUME>
193.7

> <PUBCHEM_COORDINATE_TYPE>
2
5
10

$$$$
