1922813
  -OEChem-01171809303D

 42 42  0     0  0  0  0  0  0999 V2000
    6.8859    1.6021    0.1909 Br  0  0  0  0  0  0  0  0  0  0  0  0
   -4.4168   -0.1703   -0.2431 O   0  0  0  0  0  0  0  0  0  0  0  0
   -0.8428    1.4354    1.1544 O   0  0  0  0  0  0  0  0  0  0  0  0
   -3.3609    1.4230    1.0334 O   0  0  0  0  0  0  0  0  0  0  0  0
   -2.0255   -0.2665   -0.1346 C   0  0  0  0  0  0  0  0  0  0  0  0
   -2.0310   -1.7376    0.3849 C   0  0  0  0  0  0  0  0  0  0  0  0
   -1.9924   -0.2580   -1.6911 C   0  0  0  0  0  0  0  0  0  0  0  0
   -0.7657    0.4400    0.4346 C   0  0  0  0  0  0  0  0  0  0  0  0
   -3.3243    0.4311    0.3145 C   0  0  0  0  0  0  0  0  0  0  0  0
   -1.9996   -1.8977    1.9021 C   0  0  0  0  0  0  0  0  0  0  0  0
   -1.9212    1.1285   -2.3299 C   0  0  0  0  0  0  0  0  0  0  0  0
    0.5727   -0.1084    0.0425 C   0  0  0  0  0  0  0  0  0  0  0  0
   -5.6793    0.4325    0.0586 C   0  0  0  0  0  0  0  0  0  0  0  0
    1.6996    0.4635    0.4899 C   0  0  0  0  0  0  0  0  0  0  0  0
    3.0580    0.0033    0.1529 C   0  0  0  0  0  0  0  0  0  0  0  0
   -6.7765   -0.3496   -0.6312 C   0  0  0  0  0  0  0  0  0  0  0  0
    4.1269    0.8716    0.3062 C   0  0  0  0  0  0  0  0  0  0  0  0
    3.2408   -1.2895   -0.3111 C   0  0  0  0  0  0  0  0  0  0  0  0
    5.4128    0.4356   -0.0128 C   0  0  0  0  0  0  0  0  0  0  0  0
    4.5266   -1.7257   -0.6301 C   0  0  0  0  0  0  0  0  0  0  0  0
    5.6127   -0.8632   -0.4810 C   0  0  0  0  0  0  0  0  0  0  0  0
   -1.1826   -2.2933   -0.0324 H   0  0  0  0  0  0  0  0  0  0  0  0
   -2.9275   -2.2514    0.0137 H   0  0  0  0  0  0  0  0  0  0  0  0
   -2.8780   -0.7692   -2.0899 H   0  0  0  0  0  0  0  0  0  0  0  0
   -1.1375   -0.8392   -2.0566 H   0  0  0  0  0  0  0  0  0  0  0  0
   -2.0459   -2.9595    2.1655 H   0  0  0  0  0  0  0  0  0  0  0  0
   -1.0806   -1.4901    2.3331 H   0  0  0  0  0  0  0  0  0  0  0  0
   -2.8529   -1.3999    2.3725 H   0  0  0  0  0  0  0  0  0  0  0  0
   -1.9103    1.0352   -3.4207 H   0  0  0  0  0  0  0  0  0  0  0  0
   -1.0135    1.6619   -2.0331 H   0  0  0  0  0  0  0  0  0  0  0  0
   -2.7867    1.7394   -2.0568 H   0  0  0  0  0  0  0  0  0  0  0  0
    0.5758   -0.9604   -0.6235 H   0  0  0  0  0  0  0  0  0  0  0  0
   -5.8403    0.4191    1.1423 H   0  0  0  0  0  0  0  0  0  0  0  0
   -5.6832    1.4686   -0.2978 H   0  0  0  0  0  0  0  0  0  0  0  0
    1.6517    1.3346    1.1390 H   0  0  0  0  0  0  0  0  0  0  0  0
   -7.7578    0.0850   -0.4217 H   0  0  0  0  0  0  0  0  0  0  0  0
   -6.6184   -0.3611   -1.7147 H   0  0  0  0  0  0  0  0  0  0  0  0
   -6.7733   -1.3929   -0.2987 H   0  0  0  0  0  0  0  0  0  0  0  0
    3.9701    1.8845    0.6702 H   0  0  0  0  0  0  0  0  0  0  0  0
    2.4304   -2.0030   -0.4210 H   0  0  0  0  0  0  0  0  0  0  0  0
    4.6836   -2.7386   -0.9896 H   0  0  0  0  0  0  0  0  0  0  0  0
    6.6083   -1.2193   -0.7327 H   0  0  0  0  0  0  0  0  0  0  0  0
  1 19  1  0  0  0  0
  2  9  1  0  0  0  0
  2 13  1  0  0  0  0
  3  8  2  0  0  0  0
  4  9  2  0  0  0  0
  5  6  1  0  0  0  0
  5  7  1  0  0  0  0
  5  8  1  0  0  0  0
  5  9  1  0  0  0  0
  6 10  1  0  0  0  0
  6 22  1  0  0  0  0
  6 23  1  0  0  0  0
  7 11  1  0  0  0  0
  7 24  1  0  0  0  0
  7 25  1  0  0  0  0
  8 12  1  0  0  0  0
 10 26  1  0  0  0  0
 10 27  1  0  0  0  0
 10 28  1  0  0  0  0
 11 29  1  0  0  0  0
 11 30  1  0  0  0  0
 11 31  1  0  0  0  0
 12 14  2  0  0  0  0
 12 32  1  0  0  0  0
 13 16  1  0  0  0  0
 13 33  1  0  0  0  0
 13 34  1  0  0  0  0
 14 15  1  0  0  0  0
 14 35  1  0  0  0  0
 15 17  2  0  0  0  0
 15 18  1  0  0  0  0
 16 36  1  0  0  0  0
 16 37  1  0  0  0  0
 16 38  1  0  0  0  0
 17 19  1  0  0  0  0
 17 39  1  0  0  0  0
 18 20  2  0  0  0  0
 18 40  1  0  0  0  0
 19 21  2  0  0  0  0
 20 21  1  0  0  0  0
 20 41  1  0  0  0  0
 21 42  1  0  0  0  0
M  END
> <PUBCHEM_COMPOUND_CID>
1922813

> <PUBCHEM_CONFORMER_RMSD>
0.8

> <PUBCHEM_CONFORMER_DIVERSEORDER>
1
324
215
280
259
92
207
233
323
331
146
105
237
195
319
230
276
45
77
157
158
341
131
261
251
235
55
114
241
255
128
283
65
162
329
75
344
97
41
347
184
172
287
265
325
189
240
25
238
175
268
168
217
279
257
203
342
316
112
13
193
277
320
164
231
264
127
43
126
151
161
222
174
192
338
50
228
54
33
18
258
253
10
206
252
199
32
166
210
274
243
116
308
53
119
76
307
212
216
125
226
182
176
260
38
352
330
249
202
163
49
315
154
40
180
297
266
113
37
170
6
140
302
79
107
144
124
26
286
351
246
111
94
185
145
305
343
282
300
16
334
106
218
190
70
250
155
2
278
339
198
31
354
322
295
118
96
169
152
304
104
159
350
129
5
285
179
90
196
133
262
349
312
306
200
337
134
73
130
28
58
136
291
271
326
183
256
84
311
99
336
236
56
178
47
137
87
11
88
4
245
30
138
188
187
67
340
121
254
89
66
269
201
309
224
59
272
214
100
74
82
209
313
132
232
8
234
248
345
34
81
36
301
21
335
20
22
181
15
321
71
9
110
153
156
290
186
348
143
270
48
275
139
317
64
72
103
167
149
101
3
24
244
17
289
191
173
223
160
60
205
142
29
333
242
117
108
296
80
292
208
148
86
204
165
135
211
98
91
147
19
46
115
221
27
219
194
247
122
294
7
318
14
63
263
51
150
225
299
298
52
314
85
68
83
239
327
78
12
293
197
23
44
310
171
57
328
273
109
177
69
93
95
35
288
62
220
102
42
123
284
267
353
213
39
281
346
120
229
227
141
61
303
332

> <PUBCHEM_MMFF94_PARTIAL_CHARGES>
22
1 -0.11
12 -0.14
13 0.28
14 -0.18
15 0.03
17 -0.15
18 -0.15
19 0.11
2 -0.43
20 -0.15
21 -0.15
3 -0.57
32 0.15
35 0.15
39 0.15
4 -0.57
40 0.15
41 0.15
42 0.15
5 0.12
8 0.49
9 0.66

> <PUBCHEM_EFFECTIVE_ROTOR_COUNT>
8

> <PUBCHEM_PHARMACOPHORE_FEATURES>
6
1 1 hydrophobe
1 10 hydrophobe
1 11 hydrophobe
1 3 acceptor
1 4 acceptor
6 15 17 18 19 20 21 rings

> <PUBCHEM_HEAVY_ATOM_COUNT>
21

> <PUBCHEM_ATOM_DEF_STEREO_COUNT>
0

> <PUBCHEM_ATOM_UDEF_STEREO_COUNT>
0

> <PUBCHEM_BOND_DEF_STEREO_COUNT>
1

> <PUBCHEM_BOND_UDEF_STEREO_COUNT>
0

> <PUBCHEM_ISOTOPIC_ATOM_COUNT>
0

> <PUBCHEM_COMPONENT_COUNT>
1

> <PUBCHEM_CACTVS_TAUTO_COUNT>
1

> <PUBCHEM_CONFORMER_ID>
001D56FD00000001

> <PUBCHEM_MMFF94_ENERGY>
46.9744

> <PUBCHEM_FEATURE_SELFOVERLAP>
30.464

> <PUBCHEM_SHAPE_FINGERPRINT>
10968037 39 18202846573457534489
11315181 36 18341336673199602920
12107183 9 17267240007723476066
12166972 35 15554445218988630290
12236239 1 17917994957751332472
12516196 113 17418091027237466144
12592029 89 17060342890311455135
12916748 109 16805319977390006140
13533116 47 18130506340770814586
14251764 18 17489591164737943009
15537594 2 16917345939978574254
18186145 218 18259703381224927194
18335252 98 18341335586525709307
200 152 17632577137039209962
20645477 56 17821723940311171188
20645477 70 18130228156124116422
21150785 3 16917350368100574304
21267235 1 17846785095857953806
23198884 109 18411139125664865673
23402539 116 12175617370109511977
23536379 177 17917993854419439211
23557571 272 17967814921197515212
23559900 14 18341608282267371105
300161 21 18187080676701478402
3004659 81 18342179926052127078
3545911 37 18411420622622886248
4073 2 18261960742931986586
4325135 7 18060420231733082300
4921388 177 17749400303146091882
5104073 3 18411986854200406450
542803 24 18413389830757794880
59755656 520 18187077361061150347

> <PUBCHEM_SHAPE_MULTIPOLES>
420.5
15.97
1.67
1.37
6.31
0.51
0.35
-2.74
1.08
0.71
-0.21
-1.02
-0.14
1.23

> <PUBCHEM_SHAPE_SELFOVERLAP>
841.006

> <PUBCHEM_SHAPE_VOLUME>
253.1

> <PUBCHEM_COORDINATE_TYPE>
2
5
10

$$$$
