5238107
  -OEChem-01171809373D

 62 67  0     0  0  0  0  0  0999 V2000
   -0.0410   -1.4801    3.6911 S   0  0  0  0  0  0  0  0  0  0  0  0
    3.3183    1.5438    2.2898 O   0  0  0  0  0  0  0  0  0  0  0  0
    1.0220   -2.4483   -0.4895 N   0  0  0  0  0  0  0  0  0  0  0  0
   -1.2526   -3.0200   -2.1801 N   0  0  0  0  0  0  0  0  0  0  0  0
    2.8805   -0.4458    1.1354 N   0  0  0  0  0  0  0  0  0  0  0  0
    3.4361   -0.6194   -1.1701 N   0  0  0  0  0  0  0  0  0  0  0  0
    0.1949   -0.1304    1.4990 N   0  0  0  0  0  0  0  0  0  0  0  0
    0.3966   -3.7763   -0.5026 C   0  0  0  0  0  0  0  0  0  0  0  0
    0.8563   -1.7914   -1.7919 C   0  0  0  0  0  0  0  0  0  0  0  0
   -1.0860   -3.6770   -0.8779 C   0  0  0  0  0  0  0  0  0  0  0  0
   -0.6259   -1.6924   -2.1686 C   0  0  0  0  0  0  0  0  0  0  0  0
    2.4360   -2.5438   -0.1324 C   0  0  0  0  0  0  0  0  0  0  0  0
    2.9530   -1.1258   -0.0787 C   0  0  0  0  0  0  0  0  0  0  0  0
   -2.6669   -2.9233   -2.5356 C   0  0  0  0  0  0  0  0  0  0  0  0
    2.3206   -1.0888    2.3233 C   0  0  0  0  0  0  0  0  0  0  0  0
    3.3414    0.8739    1.2611 C   0  0  0  0  0  0  0  0  0  0  0  0
    3.8953    1.4681    0.0258 C   0  0  0  0  0  0  0  0  0  0  0  0
    3.9193    0.6951   -1.1378 C   0  0  0  0  0  0  0  0  0  0  0  0
    0.8463   -0.8288    2.3866 C   0  0  0  0  0  0  0  0  0  0  0  0
    4.3855    2.7790    0.0249 C   0  0  0  0  0  0  0  0  0  0  0  0
    4.4434    1.2532   -2.3093 C   0  0  0  0  0  0  0  0  0  0  0  0
   -1.1353   -0.0964    1.8697 C   0  0  0  0  0  0  0  0  0  0  0  0
    4.9045    3.3217   -1.1498 C   0  0  0  0  0  0  0  0  0  0  0  0
    4.9339    2.5600   -2.3160 C   0  0  0  0  0  0  0  0  0  0  0  0
   -2.1154    0.6008    1.0878 C   0  0  0  0  0  0  0  0  0  0  0  0
   -1.4552   -0.7708    3.0294 C   0  0  0  0  0  0  0  0  0  0  0  0
   -3.4383    0.1556    1.0663 C   0  0  0  0  0  0  0  0  0  0  0  0
   -4.4094    0.8267    0.3054 C   0  0  0  0  0  0  0  0  0  0  0  0
   -4.0350    1.9666   -0.4449 C   0  0  0  0  0  0  0  0  0  0  0  0
   -1.7482    1.7226    0.3488 C   0  0  0  0  0  0  0  0  0  0  0  0
   -2.7000    2.4017   -0.4124 C   0  0  0  0  0  0  0  0  0  0  0  0
   -5.7444    0.3916    0.2734 C   0  0  0  0  0  0  0  0  0  0  0  0
   -5.0062    2.6375   -1.2057 C   0  0  0  0  0  0  0  0  0  0  0  0
   -6.6962    1.0702   -0.4881 C   0  0  0  0  0  0  0  0  0  0  0  0
   -6.3278    2.1909   -1.2263 C   0  0  0  0  0  0  0  0  0  0  0  0
    0.4691   -4.2289    0.4938 H   0  0  0  0  0  0  0  0  0  0  0  0
    0.9122   -4.4454   -1.2049 H   0  0  0  0  0  0  0  0  0  0  0  0
    1.4069   -2.3194   -2.5820 H   0  0  0  0  0  0  0  0  0  0  0  0
    1.1884   -0.7507   -1.7767 H   0  0  0  0  0  0  0  0  0  0  0  0
   -1.5002   -4.6917   -0.9187 H   0  0  0  0  0  0  0  0  0  0  0  0
   -1.6292   -3.1332   -0.0928 H   0  0  0  0  0  0  0  0  0  0  0  0
   -1.1429   -1.0233   -1.4683 H   0  0  0  0  0  0  0  0  0  0  0  0
   -0.7002   -1.2403   -3.1652 H   0  0  0  0  0  0  0  0  0  0  0  0
    2.5934   -3.1111    0.7823 H   0  0  0  0  0  0  0  0  0  0  0  0
    2.9938   -3.0832   -0.9108 H   0  0  0  0  0  0  0  0  0  0  0  0
   -2.7840   -2.4738   -3.5279 H   0  0  0  0  0  0  0  0  0  0  0  0
   -3.2352   -2.3223   -1.8161 H   0  0  0  0  0  0  0  0  0  0  0  0
   -3.1197   -3.9197   -2.5864 H   0  0  0  0  0  0  0  0  0  0  0  0
    2.7849   -0.6361    3.2091 H   0  0  0  0  0  0  0  0  0  0  0  0
    2.5514   -2.1511    2.3866 H   0  0  0  0  0  0  0  0  0  0  0  0
    4.3714    3.3890    0.9237 H   0  0  0  0  0  0  0  0  0  0  0  0
    4.4723    0.6709   -3.2273 H   0  0  0  0  0  0  0  0  0  0  0  0
    5.2861    4.3386   -1.1557 H   0  0  0  0  0  0  0  0  0  0  0  0
    5.3383    2.9829   -3.2310 H   0  0  0  0  0  0  0  0  0  0  0  0
   -2.4063   -0.8823    3.5315 H   0  0  0  0  0  0  0  0  0  0  0  0
   -3.7389   -0.7312    1.6220 H   0  0  0  0  0  0  0  0  0  0  0  0
   -0.7250    2.0913    0.3516 H   0  0  0  0  0  0  0  0  0  0  0  0
   -2.3898    3.2759   -0.9811 H   0  0  0  0  0  0  0  0  0  0  0  0
   -6.0554   -0.4822    0.8423 H   0  0  0  0  0  0  0  0  0  0  0  0
   -4.7408    3.5159   -1.7904 H   0  0  0  0  0  0  0  0  0  0  0  0
   -7.7253    0.7231   -0.5045 H   0  0  0  0  0  0  0  0  0  0  0  0
   -7.0693    2.7188   -1.8189 H   0  0  0  0  0  0  0  0  0  0  0  0
  1 19  1  0  0  0  0
  1 26  1  0  0  0  0
  2 16  2  0  0  0  0
  3  8  1  0  0  0  0
  3  9  1  0  0  0  0
  3 12  1  0  0  0  0
  4 10  1  0  0  0  0
  4 11  1  0  0  0  0
  4 14  1  0  0  0  0
  5 13  1  0  0  0  0
  5 15  1  0  0  0  0
  5 16  1  0  0  0  0
  6 13  2  0  0  0  0
  6 18  1  0  0  0  0
  7 19  2  0  0  0  0
  7 22  1  0  0  0  0
  8 10  1  0  0  0  0
  8 36  1  0  0  0  0
  8 37  1  0  0  0  0
  9 11  1  0  0  0  0
  9 38  1  0  0  0  0
  9 39  1  0  0  0  0
 10 40  1  0  0  0  0
 10 41  1  0  0  0  0
 11 42  1  0  0  0  0
 11 43  1  0  0  0  0
 12 13  1  0  0  0  0
 12 44  1  0  0  0  0
 12 45  1  0  0  0  0
 14 46  1  0  0  0  0
 14 47  1  0  0  0  0
 14 48  1  0  0  0  0
 15 19  1  0  0  0  0
 15 49  1  0  0  0  0
 15 50  1  0  0  0  0
 16 17  1  0  0  0  0
 17 18  1  0  0  0  0
 17 20  2  0  0  0  0
 18 21  2  0  0  0  0
 20 23  1  0  0  0  0
 20 51  1  0  0  0  0
 21 24  1  0  0  0  0
 21 52  1  0  0  0  0
 22 25  1  0  0  0  0
 22 26  2  0  0  0  0
 23 24  2  0  0  0  0
 23 53  1  0  0  0  0
 24 54  1  0  0  0  0
 25 27  2  0  0  0  0
 25 30  1  0  0  0  0
 26 55  1  0  0  0  0
 27 28  1  0  0  0  0
 27 56  1  0  0  0  0
 28 29  1  0  0  0  0
 28 32  2  0  0  0  0
 29 31  1  0  0  0  0
 29 33  2  0  0  0  0
 30 31  2  0  0  0  0
 30 57  1  0  0  0  0
 31 58  1  0  0  0  0
 32 34  1  0  0  0  0
 32 59  1  0  0  0  0
 33 35  1  0  0  0  0
 33 60  1  0  0  0  0
 34 35  2  0  0  0  0
 34 61  1  0  0  0  0
 35 62  1  0  0  0  0
M  END
> <PUBCHEM_COMPOUND_CID>
5238107

> <PUBCHEM_CONFORMER_RMSD>
1

> <PUBCHEM_CONFORMER_DIVERSEORDER>
4
88
99
96
53
24
118
38
63
87
82
113
123
30
21
107
124
3
55
104
116
10
71
112
61
19
91
98
49
32
101
128
74
93
100
2
44
130
129
108
50
79
54
95
103
16
34
12
127
126
8
43
92
114
86
1
105
111
42
75
115
5
67
89
46
83
20
80
121
31
84
68
119
11
45
29
39
125
59
60
26
77
15
51
23
66
72
120
57
117
70
35
69
62
25
64
94
58
17
73
6
109
76
48
13
106
22
41
122
18
36
27
52
81
14
40
9
90
85
37
102
33
97
56
7
78
65
28
110
47

> <PUBCHEM_MMFF94_PARTIAL_CHARGES>
45
1 -0.08
10 0.27
11 0.27
12 0.33
13 0.45
14 0.27
15 0.48
16 0.54
17 0.09
18 0.18
19 0.2
2 -0.57
20 -0.15
21 -0.15
22 0.17
23 -0.15
24 -0.15
25 0.05
26 -0.11
27 -0.15
3 -0.81
30 -0.15
31 -0.15
32 -0.15
33 -0.15
34 -0.15
35 -0.15
4 -0.81
5 -0.42
51 0.15
52 0.15
53 0.15
54 0.15
55 0.15
56 0.15
57 0.15
58 0.15
59 0.15
6 -0.63
60 0.15
61 0.15
62 0.15
7 -0.57
8 0.27
9 0.27

> <PUBCHEM_EFFECTIVE_ROTOR_COUNT>
6.2

> <PUBCHEM_PHARMACOPHORE_FEATURES>
10
1 2 acceptor
1 3 cation
1 4 cation
1 7 acceptor
5 1 7 19 22 26 rings
6 17 18 20 21 23 24 rings
6 25 27 28 29 30 31 rings
6 28 29 32 33 34 35 rings
6 3 4 8 9 10 11 rings
6 5 6 13 16 17 18 rings

> <PUBCHEM_HEAVY_ATOM_COUNT>
35

> <PUBCHEM_ATOM_DEF_STEREO_COUNT>
0

> <PUBCHEM_ATOM_UDEF_STEREO_COUNT>
0

> <PUBCHEM_BOND_DEF_STEREO_COUNT>
0

> <PUBCHEM_BOND_UDEF_STEREO_COUNT>
0

> <PUBCHEM_ISOTOPIC_ATOM_COUNT>
0

> <PUBCHEM_COMPONENT_COUNT>
1

> <PUBCHEM_CACTVS_TAUTO_COUNT>
1

> <PUBCHEM_CONFORMER_ID>
004FED5B00000004

> <PUBCHEM_MMFF94_ENERGY>
96.2823

> <PUBCHEM_FEATURE_SELFOVERLAP>
50.807

> <PUBCHEM_SHAPE_FINGERPRINT>
10930396 42 17903336132552816018
11093857 51 17845927429649761023
12107698 1 18116428142179948968
12156800 1 17842813758674511547
12166972 35 17628917828971846630
12633257 1 15719963560883245988
12788726 201 18051961808232668542
13383661 66 15192160690829481631
1361 2 18411700997872243765
13617811 41 18058146381689713709
13642711 20 17241306007389915709
14114211 68 17917724474208090119
14400156 266 17988934354035933006
14468879 13 18261970616454709882
14747281 78 17904234475509934965
14840074 17 18411141351107116093
14932702 115 17774993635490261211
15082195 135 18196653995495837061
15420108 30 14781273092134304782
15849732 13 18267572513031333402
17980427 26 17749094583216125858
20764821 26 17843651462592963263
21033648 29 16660944230295687784
21304303 94 17561366158180274574
21756936 100 17751652185334386060
21860390 5 17898567575563577546
23559900 14 17908134387840490031
238 59 18200326402876083546
27425 322 18040991822446639779
345986 75 9295289464756577985
3472631 163 17894632518053222025
34797466 226 18261675870857534625
437795 51 16845292778779561391
44802255 64 18049753951083645638
469060 322 17834414684024282554
513532 50 17531816731544239410
5223283 242 17257938092456179053
58260988 393 17824834574765816699
5951187 136 17826794729320642133
66674814 147 16842790152675233342
8509985 295 10881696680341907185

> <PUBCHEM_SHAPE_MULTIPOLES>
693.36
12.27
4.35
3.19
10.1
1
1.27
-14.79
-4.62
-1.21
-2.73
-0.89
2.26
-1.14

> <PUBCHEM_SHAPE_SELFOVERLAP>
1526.623

> <PUBCHEM_SHAPE_VOLUME>
376.1

> <PUBCHEM_COORDINATE_TYPE>
2
5
10

$$$$
