5873904
  -OEChem-01171809383D

 46 49  0     0  0  0  0  0  0999 V2000
   -6.4596   -0.2649    0.4545 F   0  0  0  0  0  0  0  0  0  0  0  0
   -5.5274   -1.8280    1.6343 F   0  0  0  0  0  0  0  0  0  0  0  0
   -4.8881    0.2370    1.8712 F   0  0  0  0  0  0  0  0  0  0  0  0
    5.5728   -2.0496    0.0053 O   0  0  0  0  0  0  0  0  0  0  0  0
    2.0140   -2.8878   -0.2834 O   0  0  0  0  0  0  0  0  0  0  0  0
    1.3901    1.0394   -0.3069 N   0  0  0  0  0  0  0  0  0  0  0  0
   -0.7633    1.0552    0.2433 N   0  0  0  0  0  0  0  0  0  0  0  0
    2.5117   -1.1434    1.1461 N   0  0  0  0  0  0  0  0  0  0  0  0
    0.2756    0.2979   -0.0293 C   0  0  0  0  0  0  0  0  0  0  0  0
    0.4033   -1.1007   -0.0760 C   0  0  0  0  0  0  0  0  0  0  0  0
    1.0477    2.3634   -0.2064 C   0  0  0  0  0  0  0  0  0  0  0  0
   -0.3011    2.3469    0.1379 C   0  0  0  0  0  0  0  0  0  0  0  0
   -0.6328   -1.9200   -0.4136 C   0  0  0  0  0  0  0  0  0  0  0  0
   -1.9845   -1.4666   -0.7749 C   0  0  0  0  0  0  0  0  0  0  0  0
    1.7114   -1.8136    0.2346 C   0  0  0  0  0  0  0  0  0  0  0  0
    1.7798    3.5383   -0.3817 C   0  0  0  0  0  0  0  0  0  0  0  0
   -0.9759    3.5656    0.3220 C   0  0  0  0  0  0  0  0  0  0  0  0
    3.7920   -1.6613    1.5713 C   0  0  0  0  0  0  0  0  0  0  0  0
   -2.9365   -1.2995    0.2197 C   0  0  0  0  0  0  0  0  0  0  0  0
   -4.2185   -0.8701   -0.1237 C   0  0  0  0  0  0  0  0  0  0  0  0
   -2.2850   -1.2143   -2.1052 C   0  0  0  0  0  0  0  0  0  0  0  0
    1.0924    4.7421   -0.1943 C   0  0  0  0  0  0  0  0  0  0  0  0
   -0.2608    4.7577    0.1512 C   0  0  0  0  0  0  0  0  0  0  0  0
    4.8713   -1.1218    0.6831 C   0  0  0  0  0  0  0  0  0  0  0  0
   -4.5338   -0.6129   -1.4579 C   0  0  0  0  0  0  0  0  0  0  0  0
   -3.5670   -0.7851   -2.4487 C   0  0  0  0  0  0  0  0  0  0  0  0
   -5.2527   -0.6871    0.9352 C   0  0  0  0  0  0  0  0  0  0  0  0
    5.2902    0.1409    0.4216 C   0  0  0  0  0  0  0  0  0  0  0  0
    6.3510   -0.0035   -0.5041 C   0  0  0  0  0  0  0  0  0  0  0  0
    6.4838   -1.3544   -0.7252 C   0  0  0  0  0  0  0  0  0  0  0  0
    2.3068    0.6894   -0.5539 H   0  0  0  0  0  0  0  0  0  0  0  0
   -0.5085   -3.0003   -0.4381 H   0  0  0  0  0  0  0  0  0  0  0  0
    2.8301    3.5232   -0.6496 H   0  0  0  0  0  0  0  0  0  0  0  0
   -2.0272    3.5881    0.5904 H   0  0  0  0  0  0  0  0  0  0  0  0
    3.7753   -2.7560    1.5549 H   0  0  0  0  0  0  0  0  0  0  0  0
    3.9582   -1.3330    2.6023 H   0  0  0  0  0  0  0  0  0  0  0  0
    2.1865   -0.2952    1.5985 H   0  0  0  0  0  0  0  0  0  0  0  0
   -2.6942   -1.5001    1.2609 H   0  0  0  0  0  0  0  0  0  0  0  0
   -1.5407   -1.3446   -2.8865 H   0  0  0  0  0  0  0  0  0  0  0  0
    1.6224    5.6830   -0.3202 H   0  0  0  0  0  0  0  0  0  0  0  0
   -0.7679    5.7091    0.2900 H   0  0  0  0  0  0  0  0  0  0  0  0
   -5.5265   -0.2779   -1.7452 H   0  0  0  0  0  0  0  0  0  0  0  0
   -3.8124   -0.5848   -3.4875 H   0  0  0  0  0  0  0  0  0  0  0  0
    4.8962    1.0593    0.8324 H   0  0  0  0  0  0  0  0  0  0  0  0
    6.9442    0.7793   -0.9542 H   0  0  0  0  0  0  0  0  0  0  0  0
    7.1423   -1.9502   -1.3402 H   0  0  0  0  0  0  0  0  0  0  0  0
  1 27  1  0  0  0  0
  2 27  1  0  0  0  0
  3 27  1  0  0  0  0
  4 24  1  0  0  0  0
  4 30  1  0  0  0  0
  5 15  2  0  0  0  0
  6  9  1  0  0  0  0
  6 11  1  0  0  0  0
  6 31  1  0  0  0  0
  7  9  2  0  0  0  0
  7 12  1  0  0  0  0
  8 15  1  0  0  0  0
  8 18  1  0  0  0  0
  8 37  1  0  0  0  0
  9 10  1  0  0  0  0
 10 13  2  0  0  0  0
 10 15  1  0  0  0  0
 11 12  1  0  0  0  0
 11 16  2  0  0  0  0
 12 17  2  0  0  0  0
 13 14  1  0  0  0  0
 13 32  1  0  0  0  0
 14 19  2  0  0  0  0
 14 21  1  0  0  0  0
 16 22  1  0  0  0  0
 16 33  1  0  0  0  0
 17 23  1  0  0  0  0
 17 34  1  0  0  0  0
 18 24  1  0  0  0  0
 18 35  1  0  0  0  0
 18 36  1  0  0  0  0
 19 20  1  0  0  0  0
 19 38  1  0  0  0  0
 20 25  2  0  0  0  0
 20 27  1  0  0  0  0
 21 26  2  0  0  0  0
 21 39  1  0  0  0  0
 22 23  2  0  0  0  0
 22 40  1  0  0  0  0
 23 41  1  0  0  0  0
 24 28  2  0  0  0  0
 25 26  1  0  0  0  0
 25 42  1  0  0  0  0
 26 43  1  0  0  0  0
 28 29  1  0  0  0  0
 28 44  1  0  0  0  0
 29 30  2  0  0  0  0
 29 45  1  0  0  0  0
 30 46  1  0  0  0  0
M  END
> <PUBCHEM_COMPOUND_CID>
5873904

> <PUBCHEM_CONFORMER_RMSD>
0.8

> <PUBCHEM_CONFORMER_DIVERSEORDER>
1
144
154
52
85
99
83
137
41
139
53
24
66
103
121
123
115
170
131
128
21
142
161
96
171
93
134
29
122
125
153
147
97
58
94
68
47
146
18
67
62
111
76
120
71
151
91
166
126
43
55
88
117
110
157
37
3
77
148
105
6
124
145
107
13
104
116
78
89
102
4
112
79
8
44
127
20
135
138
164
46
106
119
33
108
165
54
133
175
36
109
130
162
61
118
140
56
31
12
163
82
22
129
101
81
39
158
73
114
11
168
84
98
141
30
70
176
60
72
5
155
113
57
16
100
87
86
95
136
149
28
48
51
90
69
35
169
42
75
49
156
160
10
92
40
2
143
50
80
167
38
34
59
172
17
45
65
7
19
173
27
132
23
74
63
150
32
174
152
14
25
15
159
9
26
64

> <PUBCHEM_MMFF94_PARTIAL_CHARGES>
44
1 -0.34
10 0.06
11 -0.15
12 0.23
13 -0.18
14 0.03
15 0.62
16 -0.15
17 -0.15
18 0.48
19 -0.15
2 -0.34
20 -0.14
21 -0.15
22 -0.15
23 -0.15
24 -0.04
25 -0.15
26 -0.15
27 1.16
28 -0.15
29 -0.15
3 -0.34
30 -0.01
31 0.27
32 0.15
33 0.15
34 0.15
37 0.37
38 0.15
39 0.15
4 -0.28
40 0.15
41 0.15
42 0.15
43 0.15
44 0.15
45 0.15
46 0.15
5 -0.57
6 0.03
7 -0.57
8 -0.73
9 0.14

> <PUBCHEM_EFFECTIVE_ROTOR_COUNT>
7

> <PUBCHEM_PHARMACOPHORE_FEATURES>
9
1 4 acceptor
1 5 acceptor
1 6 donor
1 8 donor
3 6 7 9 cation
5 4 24 28 29 30 rings
5 6 7 9 11 12 rings
6 11 12 16 17 22 23 rings
6 14 19 20 21 25 26 rings

> <PUBCHEM_HEAVY_ATOM_COUNT>
30

> <PUBCHEM_ATOM_DEF_STEREO_COUNT>
0

> <PUBCHEM_ATOM_UDEF_STEREO_COUNT>
0

> <PUBCHEM_BOND_DEF_STEREO_COUNT>
1

> <PUBCHEM_BOND_UDEF_STEREO_COUNT>
0

> <PUBCHEM_ISOTOPIC_ATOM_COUNT>
0

> <PUBCHEM_COMPONENT_COUNT>
1

> <PUBCHEM_CACTVS_TAUTO_COUNT>
2

> <PUBCHEM_CONFORMER_ID>
0059A0F000000001

> <PUBCHEM_MMFF94_ENERGY>
59.098

> <PUBCHEM_FEATURE_SELFOVERLAP>
45.781

> <PUBCHEM_SHAPE_FINGERPRINT>
10074138 170 17469569968023106185
10670039 82 18336548197762242590
10871710 139 18338797806572699500
10940486 97 17845648282518847391
1100329 8 18337675346507678954
11049842 53 17249774716573022076
11135926 11 18049435139746162804
11265709 11 18411135831572947812
12166972 35 18130217281055731459
12422481 6 17632581517763563852
12516196 113 18409445894975292274
12553582 1 18338503197274962722
12788726 201 18262789658513471826
13009979 54 17774152543708042911
13383668 251 18120642789493104203
13590594 115 18411418401719093089
13782708 43 17604430820627277499
13899415 154 18335427884969470258
13911987 19 18261662719056238734
14347332 77 18197209253632492006
14363568 33 18263078979973575108
14840074 17 18202279208415162726
14849402 71 18264499557913475041
14955137 171 18410299141715489610
15042514 8 18339364037712875468
15276724 80 18343860009889369452
15444296 9 17703516472376564830
15475509 8 18130241393033649838
15840311 113 17703787054993893889
15849732 13 18060420218552885327
15927050 60 17762626492157473620
16087824 20 18266740165612859093
1813 80 18272371966536574646
18785283 64 18190465059085157071
20739085 24 18341048600752159969
21049683 271 18041848422944424565
21641784 216 18335988558785462652
21792961 116 18041268860353375206
21796203 349 18122098435424836289
21987440 362 15838491820753737107
22849341 161 18413390959817450065
23558518 356 17544176195776123650
24180151 248 18056777433646170734
24771293 8 18057027211816698280
24771750 20 17756436211639302556
3552219 110 18041293088632683244
394071 54 18268978964364834912
437795 51 17895481448298266890
508180 173 17980439513861062389
513202 73 18126005957958196758
6086070 43 18339346566223200919

> <PUBCHEM_SHAPE_MULTIPOLES>
568.88
13.21
4.82
1.44
4.49
9.02
-0.29
-10.39
1.56
1.99
-0.02
-1.84
-0.76
-0.61

> <PUBCHEM_SHAPE_SELFOVERLAP>
1263.106

> <PUBCHEM_SHAPE_VOLUME>
306

> <PUBCHEM_COORDINATE_TYPE>
2
5
10

$$$$
