2918019
  -OEChem-01171809323D

 49 53  0     1  0  0  0  0  0999 V2000
    3.0939    0.0749    1.7714 O   0  0  0  0  0  0  0  0  0  0  0  0
   -2.3399    2.0237    1.3859 O   0  0  0  0  0  0  0  0  0  0  0  0
    2.2349    5.0722   -1.5172 O   0  0  0  0  0  0  0  0  0  0  0  0
   -0.6249   -2.0328   -0.3090 N   0  0  0  0  0  0  0  0  0  0  0  0
    3.0669   -2.8530   -0.4150 C   0  0  0  0  0  0  0  0  0  0  0  0
    1.5592   -3.1612   -0.3209 C   0  0  0  0  0  0  0  0  0  0  0  0
    0.7185   -1.9635    0.0397 C   0  0  0  0  0  0  0  0  0  0  0  0
    1.2159   -0.8696    0.6721 C   0  0  0  0  0  0  0  0  0  0  0  0
    3.5024   -2.0832    0.8400 C   0  0  0  0  0  0  0  0  0  0  0  0
    0.3352    0.3605    0.9934 C   0  0  2  0  0  0  0  0  0  0  0  0
    2.6415   -0.8691    1.1239 C   0  0  0  0  0  0  0  0  0  0  0  0
   -1.1002    0.0994    0.6274 C   0  0  0  0  0  0  0  0  0  0  0  0
   -1.4900   -1.0290    0.0128 C   0  0  0  0  0  0  0  0  0  0  0  0
    3.8483   -4.1772   -0.4938 C   0  0  0  0  0  0  0  0  0  0  0  0
    3.3826   -2.0366   -1.6859 C   0  0  0  0  0  0  0  0  0  0  0  0
    0.8462    1.6267    0.3187 C   0  0  0  0  0  0  0  0  0  0  0  0
   -2.9184   -1.0076   -0.2217 C   0  0  0  0  0  0  0  0  0  0  0  0
   -2.2935    0.9383    0.8478 C   0  0  0  0  0  0  0  0  0  0  0  0
   -3.4202    0.1911    0.2847 C   0  0  0  0  0  0  0  0  0  0  0  0
    1.2531    2.7071    1.0953 C   0  0  0  0  0  0  0  0  0  0  0  0
    0.9016    1.6945   -1.0700 C   0  0  0  0  0  0  0  0  0  0  0  0
   -3.7718   -1.9193   -0.8163 C   0  0  0  0  0  0  0  0  0  0  0  0
   -4.7565    0.5340    0.2266 C   0  0  0  0  0  0  0  0  0  0  0  0
   -5.1324   -1.5987   -0.8901 C   0  0  0  0  0  0  0  0  0  0  0  0
   -5.6197   -0.3832   -0.3734 C   0  0  0  0  0  0  0  0  0  0  0  0
    1.7202    3.8669    0.4768 C   0  0  0  0  0  0  0  0  0  0  0  0
    1.3689    2.8543   -1.6883 C   0  0  0  0  0  0  0  0  0  0  0  0
    1.7781    3.9405   -0.9149 C   0  0  0  0  0  0  0  0  0  0  0  0
    1.3770   -3.9373    0.4348 H   0  0  0  0  0  0  0  0  0  0  0  0
    1.2200   -3.5757   -1.2798 H   0  0  0  0  0  0  0  0  0  0  0  0
    4.5407   -1.7466    0.7317 H   0  0  0  0  0  0  0  0  0  0  0  0
    3.4509   -2.7255    1.7281 H   0  0  0  0  0  0  0  0  0  0  0  0
    0.3639    0.4928    2.0843 H   0  0  0  0  0  0  0  0  0  0  0  0
    3.6668   -4.7996    0.3898 H   0  0  0  0  0  0  0  0  0  0  0  0
    3.5543   -4.7578   -1.3754 H   0  0  0  0  0  0  0  0  0  0  0  0
    4.9274   -3.9965   -0.5559 H   0  0  0  0  0  0  0  0  0  0  0  0
    2.8645   -1.0728   -1.7042 H   0  0  0  0  0  0  0  0  0  0  0  0
    4.4566   -1.8317   -1.7631 H   0  0  0  0  0  0  0  0  0  0  0  0
    3.0858   -2.5851   -2.5873 H   0  0  0  0  0  0  0  0  0  0  0  0
   -0.9726   -2.8671   -0.7642 H   0  0  0  0  0  0  0  0  0  0  0  0
    1.2129    2.6639    2.1801 H   0  0  0  0  0  0  0  0  0  0  0  0
    0.5891    0.8595   -1.6909 H   0  0  0  0  0  0  0  0  0  0  0  0
   -3.4096   -2.8595   -1.2181 H   0  0  0  0  0  0  0  0  0  0  0  0
   -5.1265    1.4706    0.6264 H   0  0  0  0  0  0  0  0  0  0  0  0
   -5.8245   -2.2977   -1.3527 H   0  0  0  0  0  0  0  0  0  0  0  0
   -6.6808   -0.1594   -0.4435 H   0  0  0  0  0  0  0  0  0  0  0  0
    2.0376    4.7098    1.0847 H   0  0  0  0  0  0  0  0  0  0  0  0
    1.4097    2.8988   -2.7733 H   0  0  0  0  0  0  0  0  0  0  0  0
    2.2069    4.9490   -2.4817 H   0  0  0  0  0  0  0  0  0  0  0  0
  1 11  2  0  0  0  0
  2 18  2  0  0  0  0
  3 28  1  0  0  0  0
  3 49  1  0  0  0  0
  4  7  1  0  0  0  0
  4 13  1  0  0  0  0
  4 40  1  0  0  0  0
  5  6  1  0  0  0  0
  5  9  1  0  0  0  0
  5 14  1  0  0  0  0
  5 15  1  0  0  0  0
  6  7  1  0  0  0  0
  6 29  1  0  0  0  0
  6 30  1  0  0  0  0
  7  8  2  0  0  0  0
  8 10  1  0  0  0  0
  8 11  1  0  0  0  0
  9 11  1  0  0  0  0
  9 31  1  0  0  0  0
  9 32  1  0  0  0  0
 10 12  1  0  0  0  0
 10 16  1  0  0  0  0
 10 33  1  0  0  0  0
 12 13  2  0  0  0  0
 12 18  1  0  0  0  0
 13 17  1  0  0  0  0
 14 34  1  0  0  0  0
 14 35  1  0  0  0  0
 14 36  1  0  0  0  0
 15 37  1  0  0  0  0
 15 38  1  0  0  0  0
 15 39  1  0  0  0  0
 16 20  2  0  0  0  0
 16 21  1  0  0  0  0
 17 19  1  0  0  0  0
 17 22  2  0  0  0  0
 18 19  1  0  0  0  0
 19 23  2  0  0  0  0
 20 26  1  0  0  0  0
 20 41  1  0  0  0  0
 21 27  2  0  0  0  0
 21 42  1  0  0  0  0
 22 24  1  0  0  0  0
 22 43  1  0  0  0  0
 23 25  1  0  0  0  0
 23 44  1  0  0  0  0
 24 25  2  0  0  0  0
 24 45  1  0  0  0  0
 25 46  1  0  0  0  0
 26 28  2  0  0  0  0
 26 47  1  0  0  0  0
 27 28  1  0  0  0  0
 27 48  1  0  0  0  0
M  END
> <PUBCHEM_COMPOUND_CID>
2918019

> <PUBCHEM_CONFORMER_RMSD>
0.6

> <PUBCHEM_CONFORMER_DIVERSEORDER>
4
3
1
2

> <PUBCHEM_MMFF94_PARTIAL_CHARGES>
35
1 -0.57
10 0.42
11 0.49
12 -0.12
13 0.07
16 -0.14
17 0.03
18 0.47
19 0.09
2 -0.57
20 -0.15
21 -0.15
22 -0.15
23 -0.15
24 -0.15
25 -0.15
26 -0.15
27 -0.15
28 0.08
3 -0.53
4 -0.6
40 0.4
41 0.15
42 0.15
43 0.15
44 0.15
45 0.15
46 0.15
47 0.15
48 0.15
49 0.45
6 0.14
7 -0.04
8 -0.12
9 0.06

> <PUBCHEM_EFFECTIVE_ROTOR_COUNT>
2

> <PUBCHEM_PHARMACOPHORE_FEATURES>
11
1 1 acceptor
1 2 acceptor
1 3 donor
1 4 cation
1 4 donor
3 5 14 15 hydrophobe
5 12 13 17 18 19 rings
6 16 20 21 26 27 28 rings
6 17 19 22 23 24 25 rings
6 4 7 8 10 12 13 rings
6 5 6 7 8 9 11 rings

> <PUBCHEM_HEAVY_ATOM_COUNT>
28

> <PUBCHEM_ATOM_DEF_STEREO_COUNT>
0

> <PUBCHEM_ATOM_UDEF_STEREO_COUNT>
1

> <PUBCHEM_BOND_DEF_STEREO_COUNT>
0

> <PUBCHEM_BOND_UDEF_STEREO_COUNT>
0

> <PUBCHEM_ISOTOPIC_ATOM_COUNT>
0

> <PUBCHEM_COMPONENT_COUNT>
1

> <PUBCHEM_CACTVS_TAUTO_COUNT>
36

> <PUBCHEM_CONFORMER_ID>
002C868300000004

> <PUBCHEM_MMFF94_ENERGY>
76.9942

> <PUBCHEM_FEATURE_SELFOVERLAP>
56.001

> <PUBCHEM_SHAPE_FINGERPRINT>
10554248 39 18340189883468462991
10940486 97 18200878366403512039
11045515 52 18191871115218643215
11640471 11 17102550096243376085
12403259 226 17983006752936381586
12788726 201 17538847979565086138
13004483 165 17904480701642301867
13009979 54 18059305249131706379
13140716 1 17910375509754080906
13149001 5 17822308897545551779
133893 2 18187942714870803345
13540713 5 18131075957214670739
13681431 1 18335427850388185952
13690498 29 17693390944984438918
138480 1 18412542098143565465
14114211 68 17975717265906555037
14790565 3 17040646557234525491
14910302 57 17267236709162842814
14955137 171 18049751553922298953
15210252 30 18334587810862139670
15439362 3 18336548329925326117
15463212 79 17035561297996093852
15664445 248 18410864261270584262
17357779 13 18051112718856951957
17492 54 18115604758911785396
17492 89 18342171189994221135
17818456 19 17845660231687232513
1813 80 18335699382230821682
18785283 64 18262799687108957779
20642791 178 18120366812085055920
20691752 17 18190185581295152482
20739085 24 18338501011373706938
21304303 282 17190359328410011012
21641784 216 18049183089626664518
22149856 69 18126288791110054419
22907989 373 17613725812718159164
23366157 5 18335134340907895587
23559900 14 18342447145916493883
38695281 34 18121217851454928776
394222 165 17754719851938449337
4017518 198 18053670450457741068
4409770 3 17327736197844579079
460360 51 18202015334841646009
46194498 28 18188470468231625967
474 4 17825375538897421049
5080951 261 17123075354415099318
5081480 168 18260539009861629829
6443956 14 18412539881940525193
70251023 43 18409732846678753931
7364860 26 18340484568525021737
9709674 26 18412820318179397619
9981440 41 17833546074022069697

> <PUBCHEM_SHAPE_MULTIPOLES>
553.64
8.37
5.62
1.4
11.01
5.12
0.16
-6.55
1.18
-7.65
2.32
-0.89
0.73
-1.01

> <PUBCHEM_SHAPE_SELFOVERLAP>
1250.031

> <PUBCHEM_SHAPE_VOLUME>
289.8

> <PUBCHEM_COORDINATE_TYPE>
2
5
10

$$$$
