781660
  -OEChem-01171810113D

 29 30  0     0  0  0  0  0  0999 V2000
    1.2459    3.5612    1.8525 Cl  0  0  0  0  0  0  0  0  0  0  0  0
    0.9190    4.1085   -1.0037 Cl  0  0  0  0  0  0  0  0  0  0  0  0
    3.0073   -1.7613   -0.8729 S   0  0  0  0  0  0  0  0  0  0  0  0
   -0.0719    1.3260    0.0757 N   0  0  0  0  0  0  0  0  0  0  0  0
    0.5044   -0.9481   -0.4287 N   0  0  0  0  0  0  0  0  0  0  0  0
    2.2201    0.7247   -0.3026 N   0  0  0  0  0  0  0  0  0  0  0  0
   -1.7532   -0.3379   -0.0540 C   0  0  0  0  0  0  0  0  0  0  0  0
   -0.3580    0.0354   -0.1404 C   0  0  0  0  0  0  0  0  0  0  0  0
   -2.7444    0.5869   -0.3823 C   0  0  0  0  0  0  0  0  0  0  0  0
   -2.1071   -1.6229    0.3574 C   0  0  0  0  0  0  0  0  0  0  0  0
    1.2395    1.5980   -0.0222 C   0  0  0  0  0  0  0  0  0  0  0  0
    1.7784   -0.5289   -0.4938 C   0  0  0  0  0  0  0  0  0  0  0  0
    2.7518   -2.8818    0.5207 C   0  0  0  0  0  0  0  0  0  0  0  0
   -4.0895    0.2268   -0.2992 C   0  0  0  0  0  0  0  0  0  0  0  0
   -3.4520   -1.9831    0.4404 C   0  0  0  0  0  0  0  0  0  0  0  0
   -4.4433   -1.0581    0.1121 C   0  0  0  0  0  0  0  0  0  0  0  0
    1.6486    3.0140    0.2023 C   0  0  0  0  0  0  0  0  0  0  0  0
    3.7044   -4.0594    0.4390 C   0  0  0  0  0  0  0  0  0  0  0  0
   -2.5009    1.5929   -0.7155 H   0  0  0  0  0  0  0  0  0  0  0  0
   -1.3586   -2.3633    0.6294 H   0  0  0  0  0  0  0  0  0  0  0  0
    2.9147   -2.3396    1.4578 H   0  0  0  0  0  0  0  0  0  0  0  0
    1.7208   -3.2502    0.5155 H   0  0  0  0  0  0  0  0  0  0  0  0
   -4.8616    0.9460   -0.5568 H   0  0  0  0  0  0  0  0  0  0  0  0
   -3.7280   -2.9828    0.7628 H   0  0  0  0  0  0  0  0  0  0  0  0
   -5.4905   -1.3386    0.1768 H   0  0  0  0  0  0  0  0  0  0  0  0
    2.7329    3.1174    0.0980 H   0  0  0  0  0  0  0  0  0  0  0  0
    3.5482   -4.6409   -0.4760 H   0  0  0  0  0  0  0  0  0  0  0  0
    4.7500   -3.7344    0.4715 H   0  0  0  0  0  0  0  0  0  0  0  0
    3.5409   -4.7306    1.2888 H   0  0  0  0  0  0  0  0  0  0  0  0
  1 17  1  0  0  0  0
  2 17  1  0  0  0  0
  3 12  1  0  0  0  0
  3 13  1  0  0  0  0
  4  8  2  0  0  0  0
  4 11  1  0  0  0  0
  5  8  1  0  0  0  0
  5 12  2  0  0  0  0
  6 11  2  0  0  0  0
  6 12  1  0  0  0  0
  7  8  1  0  0  0  0
  7  9  2  0  0  0  0
  7 10  1  0  0  0  0
  9 14  1  0  0  0  0
  9 19  1  0  0  0  0
 10 15  2  0  0  0  0
 10 20  1  0  0  0  0
 11 17  1  0  0  0  0
 13 18  1  0  0  0  0
 13 21  1  0  0  0  0
 13 22  1  0  0  0  0
 14 16  2  0  0  0  0
 14 23  1  0  0  0  0
 15 16  1  0  0  0  0
 15 24  1  0  0  0  0
 16 25  1  0  0  0  0
 17 26  1  0  0  0  0
 18 27  1  0  0  0  0
 18 28  1  0  0  0  0
 18 29  1  0  0  0  0
M  END
> <PUBCHEM_COMPOUND_CID>
781660

> <PUBCHEM_CONFORMER_RMSD>
0.6

> <PUBCHEM_CONFORMER_DIVERSEORDER>
1
12
28
9
44
8
2
3
10
54
59
56
55
6
46
45
13
52
31
38
58
16
20
30
17
4
39
18
57
26
36
41
14
35
11
5
33
49
23
43
50
42
47
40
37
19
29
22
51
27
25
15
34
48
24
53
21
32
7

> <PUBCHEM_MMFF94_PARTIAL_CHARGES>
21
1 -0.29
10 -0.15
11 0.48
12 0.72
13 0.23
14 -0.15
15 -0.15
16 -0.15
17 0.72
19 0.15
2 -0.29
20 0.15
23 0.15
24 0.15
25 0.15
3 -0.33
4 -0.62
5 -0.62
6 -0.62
8 0.62
9 -0.15

> <PUBCHEM_EFFECTIVE_ROTOR_COUNT>
4

> <PUBCHEM_PHARMACOPHORE_FEATURES>
6
1 18 hydrophobe
3 4 5 8 cation
3 4 6 11 cation
3 5 6 12 cation
6 4 5 6 8 11 12 rings
6 7 9 10 14 15 16 rings

> <PUBCHEM_HEAVY_ATOM_COUNT>
18

> <PUBCHEM_ATOM_DEF_STEREO_COUNT>
0

> <PUBCHEM_ATOM_UDEF_STEREO_COUNT>
0

> <PUBCHEM_BOND_DEF_STEREO_COUNT>
0

> <PUBCHEM_BOND_UDEF_STEREO_COUNT>
0

> <PUBCHEM_ISOTOPIC_ATOM_COUNT>
0

> <PUBCHEM_COMPONENT_COUNT>
1

> <PUBCHEM_CACTVS_TAUTO_COUNT>
1

> <PUBCHEM_CONFORMER_ID>
000BED5C00000001

> <PUBCHEM_MMFF94_ENERGY>
37.0752

> <PUBCHEM_FEATURE_SELFOVERLAP>
33.23

> <PUBCHEM_SHAPE_FINGERPRINT>
10608611 8 18337952423938934429
1100329 8 17980483356127719793
11056379 131 17763472712511296070
11265709 11 18266182721242534554
12403259 226 18335698313369280751
12507560 14 18270115695736059935
12553582 1 18195544596452470774
12788726 201 17977114461438204074
12839892 36 17834940246044435475
13004483 165 18194955241277445026
13052359 8 17400077470425587780
13134695 92 18342446011364379669
13140716 1 17981319307250276832
13533116 47 18339364171363173003
136203 1 17763462812204788714
138480 1 18409450275962954542
13955234 65 18269276940331245795
14866123 147 17113818492658002675
15042514 8 17834402219849276083
15442244 35 18339930316254843057
15842332 3 17466817895558145286
18186145 218 16983236557790561081
20369508 70 18411417310886973383
20645477 70 18270965751621505343
20671657 53 18339646642001942071
20832881 197 18263085414404147491
21250096 35 18337390418351265174
21524375 3 17696478755448608908
21731228 192 17622433261741754104
221490 88 18335712696851251587
2255824 54 18265619964398650246
23366157 5 18261957465370376767
23419403 2 17341211954241971560
23526113 38 18041005041638493955
23557571 272 17910668766485518910
23559900 14 18263077876525221357
257057 1 18266459811046618756
3084891 72 17762613989270272165
3091708 16 9141698672782565648
314173 41 18338811038803072838
4409770 3 17541375743970781701
458136 41 17906474451251910289
5104073 3 18339084921152940811
54173680 148 17905889180442966556
58807428 26 17911500310581682560
6442390 28 17546455934314529089
7364860 26 18270402814146439820
7808743 9 16681755004819150697
81228 2 17766573351942747404
84936 182 17986117528802447121
9709674 26 18263930006790855731
9981440 41 17832983128453286497

> <PUBCHEM_SHAPE_MULTIPOLES>
363.08
6.82
5.33
1.03
5.68
3.01
-0.27
-7.18
-0.08
-6.66
-1.1
-0.49
0.8
0.3

> <PUBCHEM_SHAPE_SELFOVERLAP>
731.705

> <PUBCHEM_SHAPE_VOLUME>
214.3

> <PUBCHEM_COORDINATE_TYPE>
2
5
10

$$$$
