1909653
  -OEChem-01171809333D

 35 37  0     0  0  0  0  0  0999 V2000
   -3.3036   -2.1663   -0.6043 S   0  0  0  0  0  0  0  0  0  0  0  0
   -0.6614   -2.6082    0.1176 O   0  0  0  0  0  0  0  0  0  0  0  0
    0.1297   -0.3988    0.1594 N   0  0  0  0  0  0  0  0  0  0  0  0
   -5.8493   -0.8905   -0.4246 N   0  0  0  0  0  0  0  0  0  0  0  0
    2.2721    1.0925   -1.5939 C   0  0  0  0  0  0  0  0  0  0  0  0
    0.8330    1.4683   -1.9079 C   0  0  0  0  0  0  0  0  0  0  0  0
    2.5094   -0.0515   -0.6284 C   0  0  0  0  0  0  0  0  0  0  0  0
    0.1527    1.9228   -0.6520 C   0  0  0  0  0  0  0  0  0  0  0  0
    1.5319   -0.7451    0.1228 C   0  0  0  0  0  0  0  0  0  0  0  0
   -0.1630    0.9863    0.3411 C   0  0  0  0  0  0  0  0  0  0  0  0
    3.8612   -0.4603   -0.5331 C   0  0  0  0  0  0  0  0  0  0  0  0
   -0.1610    3.2750   -0.4561 C   0  0  0  0  0  0  0  0  0  0  0  0
    1.9604   -1.8262    0.9278 C   0  0  0  0  0  0  0  0  0  0  0  0
   -0.7881    1.4178    1.5218 C   0  0  0  0  0  0  0  0  0  0  0  0
   -0.8689   -1.3931    0.1908 C   0  0  0  0  0  0  0  0  0  0  0  0
    4.2528   -1.5299    0.2663 C   0  0  0  0  0  0  0  0  0  0  0  0
   -0.7848    3.6929    0.7185 C   0  0  0  0  0  0  0  0  0  0  0  0
    3.2987   -2.2157    0.9974 C   0  0  0  0  0  0  0  0  0  0  0  0
   -1.0967    2.7650    1.7079 C   0  0  0  0  0  0  0  0  0  0  0  0
   -2.3093   -0.9232    0.2280 C   0  0  0  0  0  0  0  0  0  0  0  0
   -4.8157   -1.4119   -0.4992 C   0  0  0  0  0  0  0  0  0  0  0  0
    2.7519    0.8324   -2.5472 H   0  0  0  0  0  0  0  0  0  0  0  0
    2.7974    1.9744   -1.2013 H   0  0  0  0  0  0  0  0  0  0  0  0
    0.8217    2.2687   -2.6578 H   0  0  0  0  0  0  0  0  0  0  0  0
    0.2856    0.6279   -2.3528 H   0  0  0  0  0  0  0  0  0  0  0  0
    4.6260    0.0628   -1.1053 H   0  0  0  0  0  0  0  0  0  0  0  0
    0.0813    4.0122   -1.2174 H   0  0  0  0  0  0  0  0  0  0  0  0
    1.2593   -2.3616    1.5646 H   0  0  0  0  0  0  0  0  0  0  0  0
   -1.0255    0.7114    2.3136 H   0  0  0  0  0  0  0  0  0  0  0  0
    5.2973   -1.8213    0.3164 H   0  0  0  0  0  0  0  0  0  0  0  0
   -1.0237    4.7425    0.8628 H   0  0  0  0  0  0  0  0  0  0  0  0
    3.5906   -3.0446    1.6352 H   0  0  0  0  0  0  0  0  0  0  0  0
   -1.5774    3.0899    2.6260 H   0  0  0  0  0  0  0  0  0  0  0  0
   -2.4403    0.0219   -0.3036 H   0  0  0  0  0  0  0  0  0  0  0  0
   -2.6273   -0.8225    1.2694 H   0  0  0  0  0  0  0  0  0  0  0  0
  1 20  1  0  0  0  0
  1 21  1  0  0  0  0
  2 15  2  0  0  0  0
  3  9  1  0  0  0  0
  3 10  1  0  0  0  0
  3 15  1  0  0  0  0
  4 21  3  0  0  0  0
  5  6  1  0  0  0  0
  5  7  1  0  0  0  0
  5 22  1  0  0  0  0
  5 23  1  0  0  0  0
  6  8  1  0  0  0  0
  6 24  1  0  0  0  0
  6 25  1  0  0  0  0
  7  9  1  0  0  0  0
  7 11  2  0  0  0  0
  8 10  1  0  0  0  0
  8 12  2  0  0  0  0
  9 13  2  0  0  0  0
 10 14  2  0  0  0  0
 11 16  1  0  0  0  0
 11 26  1  0  0  0  0
 12 17  1  0  0  0  0
 12 27  1  0  0  0  0
 13 18  1  0  0  0  0
 13 28  1  0  0  0  0
 14 19  1  0  0  0  0
 14 29  1  0  0  0  0
 15 20  1  0  0  0  0
 16 18  2  0  0  0  0
 16 30  1  0  0  0  0
 17 19  2  0  0  0  0
 17 31  1  0  0  0  0
 18 32  1  0  0  0  0
 19 33  1  0  0  0  0
 20 34  1  0  0  0  0
 20 35  1  0  0  0  0
M  END
> <PUBCHEM_COMPOUND_CID>
1909653

> <PUBCHEM_CONFORMER_RMSD>
0.6

> <PUBCHEM_CONFORMER_DIVERSEORDER>
1
13
9
33
57
61
45
48
23
60
58
34
11
14
44
22
2
40
5
6
54
46
35
39
52
55
47
15
50
31
27
25
59
41
37
26
36
38
56
21
42
20
32
49
28
3
17
51
4
12
16
7
18
10
19
43
8
53
30
29
24

> <PUBCHEM_MMFF94_PARTIAL_CHARGES>
29
1 -0.27
10 0.12
11 -0.15
12 -0.15
13 -0.15
14 -0.15
15 0.57
16 -0.15
17 -0.15
18 -0.15
19 -0.15
2 -0.57
20 0.29
21 0.59
26 0.15
27 0.15
28 0.15
29 0.15
3 -0.29
30 0.15
31 0.15
32 0.15
33 0.15
4 -0.56
5 0.14
6 0.14
7 -0.14
8 -0.14
9 0.12

> <PUBCHEM_EFFECTIVE_ROTOR_COUNT>
3.6

> <PUBCHEM_PHARMACOPHORE_FEATURES>
5
1 2 acceptor
1 4 acceptor
6 7 9 11 13 16 18 rings
6 8 10 12 14 17 19 rings
7 3 5 6 7 8 9 10 rings

> <PUBCHEM_HEAVY_ATOM_COUNT>
21

> <PUBCHEM_ATOM_DEF_STEREO_COUNT>
0

> <PUBCHEM_ATOM_UDEF_STEREO_COUNT>
0

> <PUBCHEM_BOND_DEF_STEREO_COUNT>
0

> <PUBCHEM_BOND_UDEF_STEREO_COUNT>
0

> <PUBCHEM_ISOTOPIC_ATOM_COUNT>
0

> <PUBCHEM_COMPONENT_COUNT>
1

> <PUBCHEM_CACTVS_TAUTO_COUNT>
1

> <PUBCHEM_CONFORMER_ID>
001D239500000001

> <PUBCHEM_MMFF94_ENERGY>
95.412

> <PUBCHEM_FEATURE_SELFOVERLAP>
25.394

> <PUBCHEM_SHAPE_FINGERPRINT>
10064457 181 17478893783961543392
10165383 225 16745965324433965645
104564 63 18340206271924466595
11265709 11 18412265042709411747
11578080 2 18338216228829949680
11582403 64 15546839059736359665
12035759 4 18189919598312379644
12293681 160 17977127943424988068
12553582 1 18268732630135247907
12788726 201 18341062847227142028
13004483 165 18340193133672411634
13134695 92 18269545195372154463
13294875 104 17909545404376489785
13464514 151 17765157559066056677
14178342 30 18049708638941873786
14251757 17 17386548207347189671
14347329 18 16952782014879272501
14464042 87 18341336621839219843
15309172 13 17543352653393307088
16945 1 17100909268786670144
17980427 26 17694487544296795069
20600515 1 17704075143893588651
20626108 58 17559665342815801199
22112679 90 18197524915603990056
23388829 49 18261689094565752356
23419403 2 18125688345047224308
23557571 272 18201440237940418142
25147074 1 18042975285731198886
266924 78 16881925271215329212
2803657 2 18195555741945000633
345986 75 18189315914699719155
34934 24 18197777919648749006
394222 165 16663458973030331356
5895379 119 16772140058106629745
6443956 14 18265891548065814424
6992083 37 17899987036632677620
7164475 11 18266740190680523110
7364860 26 17908983549571118155
7471813 234 18341608260881912823
81228 2 18335987450235617410
84936 182 17691125259229137975
9981440 41 13361441308858753259

> <PUBCHEM_SHAPE_MULTIPOLES>
420.19
7.13
4
1.4
6.21
3.08
0.08
-7.33
1.28
1.34
-0.86
-0.33
0.82
-1.79

> <PUBCHEM_SHAPE_SELFOVERLAP>
897.995

> <PUBCHEM_SHAPE_VOLUME>
229.8

> <PUBCHEM_COORDINATE_TYPE>
2
5
10

$$$$
