6618865
  -OEChem-01171809463D

 43 46  0     0  0  0  0  0  0999 V2000
   -0.9838   -2.0401   -0.2361 O   0  0  0  0  0  0  0  0  0  0  0  0
    2.6117    1.1720   -0.1775 N   0  0  0  0  0  0  0  0  0  0  0  0
    0.5147    0.1820   -0.1391 N   0  0  0  0  0  0  0  0  0  0  0  0
   -0.8467    0.2815   -0.0530 N   0  0  0  0  0  0  0  0  0  0  0  0
   -2.7991    1.5999    0.1667 N   0  0  0  0  0  0  0  0  0  0  0  0
    3.2979   -0.0038    0.3133 C   0  0  0  0  0  0  0  0  0  0  0  0
    3.1772   -1.1361   -0.7095 C   0  0  0  0  0  0  0  0  0  0  0  0
    4.7622    0.3412    0.5929 C   0  0  0  0  0  0  0  0  0  0  0  0
    3.9714   -2.3666   -0.2782 C   0  0  0  0  0  0  0  0  0  0  0  0
    5.5558   -0.8906    1.0215 C   0  0  0  0  0  0  0  0  0  0  0  0
    5.4311   -2.0222    0.0050 C   0  0  0  0  0  0  0  0  0  0  0  0
    1.2412    1.2653   -0.0912 C   0  0  0  0  0  0  0  0  0  0  0  0
    3.3595    2.1137   -0.9753 C   0  0  0  0  0  0  0  0  0  0  0  0
    0.6456    2.6146    0.0544 C   0  0  0  0  0  0  0  0  0  0  0  0
   -1.5072    1.4934    0.0843 C   0  0  0  0  0  0  0  0  0  0  0  0
   -0.6776    2.7108    0.1373 C   0  0  0  0  0  0  0  0  0  0  0  0
   -1.5183   -0.9416   -0.1151 C   0  0  0  0  0  0  0  0  0  0  0  0
   -2.9905   -0.8410   -0.0221 C   0  0  0  0  0  0  0  0  0  0  0  0
   -3.5680    0.4264    0.1147 C   0  0  0  0  0  0  0  0  0  0  0  0
   -3.7854   -1.9910   -0.0703 C   0  0  0  0  0  0  0  0  0  0  0  0
   -4.9610    0.5258    0.2027 C   0  0  0  0  0  0  0  0  0  0  0  0
   -5.1716   -1.8749    0.0191 C   0  0  0  0  0  0  0  0  0  0  0  0
   -5.7591   -0.6186    0.1554 C   0  0  0  0  0  0  0  0  0  0  0  0
    2.8411   -0.3270    1.2590 H   0  0  0  0  0  0  0  0  0  0  0  0
    3.5432   -0.8026   -1.6894 H   0  0  0  0  0  0  0  0  0  0  0  0
    2.1395   -1.4443   -0.8640 H   0  0  0  0  0  0  0  0  0  0  0  0
    4.8290    1.1059    1.3769 H   0  0  0  0  0  0  0  0  0  0  0  0
    5.2781    0.7418   -0.2864 H   0  0  0  0  0  0  0  0  0  0  0  0
    3.9196   -3.1323   -1.0605 H   0  0  0  0  0  0  0  0  0  0  0  0
    3.5162   -2.7977    0.6220 H   0  0  0  0  0  0  0  0  0  0  0  0
    5.1930   -1.2360    1.9975 H   0  0  0  0  0  0  0  0  0  0  0  0
    6.6113   -0.6249    1.1504 H   0  0  0  0  0  0  0  0  0  0  0  0
    5.9541   -2.9107    0.3764 H   0  0  0  0  0  0  0  0  0  0  0  0
    5.9242   -1.7284   -0.9299 H   0  0  0  0  0  0  0  0  0  0  0  0
    3.9823    2.7578   -0.3457 H   0  0  0  0  0  0  0  0  0  0  0  0
    2.7092    2.7712   -1.5639 H   0  0  0  0  0  0  0  0  0  0  0  0
    3.9866    1.6101   -1.7192 H   0  0  0  0  0  0  0  0  0  0  0  0
    1.2760    3.4924    0.1173 H   0  0  0  0  0  0  0  0  0  0  0  0
   -1.1674    3.6704    0.2548 H   0  0  0  0  0  0  0  0  0  0  0  0
   -3.3456   -2.9786   -0.1763 H   0  0  0  0  0  0  0  0  0  0  0  0
   -5.4347    1.4989    0.3094 H   0  0  0  0  0  0  0  0  0  0  0  0
   -5.7943   -2.7641   -0.0176 H   0  0  0  0  0  0  0  0  0  0  0  0
   -6.8394   -0.5292    0.2248 H   0  0  0  0  0  0  0  0  0  0  0  0
  1 17  2  0  0  0  0
  2  6  1  0  0  0  0
  2 12  1  0  0  0  0
  2 13  1  0  0  0  0
  3  4  1  0  0  0  0
  3 12  2  0  0  0  0
  4 15  1  0  0  0  0
  4 17  1  0  0  0  0
  5 15  2  0  0  0  0
  5 19  1  0  0  0  0
  6  7  1  0  0  0  0
  6  8  1  0  0  0  0
  6 24  1  0  0  0  0
  7  9  1  0  0  0  0
  7 25  1  0  0  0  0
  7 26  1  0  0  0  0
  8 10  1  0  0  0  0
  8 27  1  0  0  0  0
  8 28  1  0  0  0  0
  9 11  1  0  0  0  0
  9 29  1  0  0  0  0
  9 30  1  0  0  0  0
 10 11  1  0  0  0  0
 10 31  1  0  0  0  0
 10 32  1  0  0  0  0
 11 33  1  0  0  0  0
 11 34  1  0  0  0  0
 12 14  1  0  0  0  0
 13 35  1  0  0  0  0
 13 36  1  0  0  0  0
 13 37  1  0  0  0  0
 14 16  2  0  0  0  0
 14 38  1  0  0  0  0
 15 16  1  0  0  0  0
 16 39  1  0  0  0  0
 17 18  1  0  0  0  0
 18 19  1  0  0  0  0
 18 20  2  0  0  0  0
 19 21  2  0  0  0  0
 20 22  1  0  0  0  0
 20 40  1  0  0  0  0
 21 23  1  0  0  0  0
 21 41  1  0  0  0  0
 22 23  2  0  0  0  0
 22 42  1  0  0  0  0
 23 43  1  0  0  0  0
M  END
> <PUBCHEM_COMPOUND_CID>
6618865

> <PUBCHEM_CONFORMER_RMSD>
0.6

> <PUBCHEM_CONFORMER_DIVERSEORDER>
1
4
22
17
21
14
23
20
19
15
7
2
24
16
11
18
8
10
3
6
12
9
13
5
25

> <PUBCHEM_MMFF94_PARTIAL_CHARGES>
24
1 -0.57
12 0.49
13 0.37
14 -0.14
15 0.5
16 -0.14
17 0.54
18 0.09
19 0.18
2 -0.79
20 -0.15
21 -0.15
22 -0.15
23 -0.15
3 -0.51
38 0.15
39 0.15
4 -0.06
40 0.15
41 0.15
42 0.15
43 0.15
5 -0.63
6 0.37

> <PUBCHEM_EFFECTIVE_ROTOR_COUNT>
3.2

> <PUBCHEM_PHARMACOPHORE_FEATURES>
6
1 1 acceptor
3 2 3 12 cation
6 18 19 20 21 22 23 rings
6 3 4 12 14 15 16 rings
6 4 5 15 17 18 19 rings
6 6 7 8 9 10 11 rings

> <PUBCHEM_HEAVY_ATOM_COUNT>
23

> <PUBCHEM_ATOM_DEF_STEREO_COUNT>
0

> <PUBCHEM_ATOM_UDEF_STEREO_COUNT>
0

> <PUBCHEM_BOND_DEF_STEREO_COUNT>
0

> <PUBCHEM_BOND_UDEF_STEREO_COUNT>
0

> <PUBCHEM_ISOTOPIC_ATOM_COUNT>
0

> <PUBCHEM_COMPONENT_COUNT>
1

> <PUBCHEM_CACTVS_TAUTO_COUNT>
1

> <PUBCHEM_CONFORMER_ID>
0064FEF100000001

> <PUBCHEM_MMFF94_ENERGY>
67.9667

> <PUBCHEM_FEATURE_SELFOVERLAP>
30.515

> <PUBCHEM_SHAPE_FINGERPRINT>
10622 236 17628616842417919847
11796584 16 17604141623188118131
12107183 9 18123759655565182401
12166972 35 17676209048633078822
12236239 1 18040715870054138112
12403259 226 18339076094821300741
12788726 201 17988097654586161433
13140716 1 18270403789004107656
13402501 40 18342175544684624042
13533116 47 18341331175509536576
13551218 46 18413389821777762495
13862211 1 18412260662402049479
14866123 147 18125163728077794849
15042514 8 18339362946564368001
15196674 1 18411138038922023541
15250474 111 18127403669138947727
15352361 1 18411699885079412282
15885798 251 18409167705679951540
15927050 60 17622723537702643948
17492 89 18338797806620594370
17857418 61 18411135848483440811
1813 80 17676489432498101340
19141452 34 18201717366568454815
193927 3 18187655699417643650
19591789 44 18410575089364500943
1979834 28 17775575234081178790
20028762 73 18343862229665567719
20403669 9 18412548686750355398
20645477 70 18260547857372854748
21267235 1 18409737252560682282
21279426 13 18336262349986266877
21478907 32 18410012091902818697
21682296 61 18342463586597882079
21792934 111 18341607114822295577
21859007 373 17824519929540602645
23402539 116 18343576348394256613
23559900 14 18339637944656406968
25147074 1 18336564749833426300
3004659 81 18259987080783603220
314194 84 18268432502410696907
335352 9 18411138009796464029
338550 245 18408887356058714206
3421961 26 18341328997961481392
350125 39 18410576167100709396
3680242 22 18338244777677376955
4214541 1 18410573950897435177
4340502 62 14549020987461212341
463206 1 18338796839662355994
5104073 3 18341900735591817361
559249 180 18335415725869361745
59755656 215 18336825269537696647
6138700 20 18336546027865007891
67856867 119 18336264660605461932
7164475 11 18335423448084183196
9709674 26 18335425715620738714
9981440 41 17184184483856705761

> <PUBCHEM_SHAPE_MULTIPOLES>
447.54
13.07
2.91
0.75
0.32
0.58
0
-7.84
1.6
0.87
-0.25
0.57
0.02
-0.38

> <PUBCHEM_SHAPE_SELFOVERLAP>
976.597

> <PUBCHEM_SHAPE_VOLUME>
240.2

> <PUBCHEM_COORDINATE_TYPE>
2
5
10

$$$$
