9668913
  -OEChem-01171809583D

 39 41  0     0  0  0  0  0  0999 V2000
   -4.9122    3.8854    0.0019 Br  0  0  0  0  0  0  0  0  0  0  0  0
    7.0342   -0.4511    0.0038 O   0  0  0  0  0  0  0  0  0  0  0  0
   -3.8660   -2.0807    0.0008 N   0  0  0  0  0  0  0  0  0  0  0  0
   -0.5722    0.5207   -0.0028 N   0  0  0  0  0  0  0  0  0  0  0  0
    0.6660    0.0049   -0.0015 N   0  0  0  0  0  0  0  0  0  0  0  0
   -3.0082    0.1713   -0.0002 C   0  0  0  0  0  0  0  0  0  0  0  0
   -1.7008   -0.3332   -0.0017 C   0  0  0  0  0  0  0  0  0  0  0  0
   -4.0758   -0.7507    0.0009 C   0  0  0  0  0  0  0  0  0  0  0  0
   -1.4814   -1.7032   -0.0018 C   0  0  0  0  0  0  0  0  0  0  0  0
   -2.5889   -2.5268   -0.0007 C   0  0  0  0  0  0  0  0  0  0  0  0
   -3.2638    1.5530   -0.0003 C   0  0  0  0  0  0  0  0  0  0  0  0
   -5.3744   -0.2490    0.0023 C   0  0  0  0  0  0  0  0  0  0  0  0
   -4.5725    2.0272    0.0011 C   0  0  0  0  0  0  0  0  0  0  0  0
   -5.6288    1.1248    0.0024 C   0  0  0  0  0  0  0  0  0  0  0  0
   -2.4011   -4.0071   -0.0008 C   0  0  0  0  0  0  0  0  0  0  0  0
    3.0249    0.5475   -0.0021 C   0  0  0  0  0  0  0  0  0  0  0  0
    1.5955    0.9043   -0.0028 C   0  0  0  0  0  0  0  0  0  0  0  0
    3.9751    1.5557   -0.0038 C   0  0  0  0  0  0  0  0  0  0  0  0
    3.3915   -0.7887    0.0010 C   0  0  0  0  0  0  0  0  0  0  0  0
    5.7136   -0.1220    0.0006 C   0  0  0  0  0  0  0  0  0  0  0  0
    5.3287    1.2187   -0.0025 C   0  0  0  0  0  0  0  0  0  0  0  0
    4.7450   -1.1257    0.0025 C   0  0  0  0  0  0  0  0  0  0  0  0
    7.9716    0.6247    0.0037 C   0  0  0  0  0  0  0  0  0  0  0  0
   -0.4890   -2.1418   -0.0030 H   0  0  0  0  0  0  0  0  0  0  0  0
   -2.4631    2.2862   -0.0011 H   0  0  0  0  0  0  0  0  0  0  0  0
   -6.2192   -0.9353    0.0033 H   0  0  0  0  0  0  0  0  0  0  0  0
   -0.7014    1.5230   -0.0038 H   0  0  0  0  0  0  0  0  0  0  0  0
   -6.6597    1.4695    0.0036 H   0  0  0  0  0  0  0  0  0  0  0  0
   -3.3653   -4.5262   -0.0001 H   0  0  0  0  0  0  0  0  0  0  0  0
   -1.8499   -4.3212   -0.8929 H   0  0  0  0  0  0  0  0  0  0  0  0
   -1.8485   -4.3211    0.8906 H   0  0  0  0  0  0  0  0  0  0  0  0
    1.3607    1.9857   -0.0048 H   0  0  0  0  0  0  0  0  0  0  0  0
    3.6866    2.6032   -0.0061 H   0  0  0  0  0  0  0  0  0  0  0  0
    2.6580   -1.5898    0.0027 H   0  0  0  0  0  0  0  0  0  0  0  0
    6.0281    2.0478   -0.0039 H   0  0  0  0  0  0  0  0  0  0  0  0
    5.0391   -2.1717    0.0053 H   0  0  0  0  0  0  0  0  0  0  0  0
    7.8879    1.2313    0.9118 H   0  0  0  0  0  0  0  0  0  0  0  0
    7.8919    1.2277   -0.9071 H   0  0  0  0  0  0  0  0  0  0  0  0
    8.9726    0.1811    0.0067 H   0  0  0  0  0  0  0  0  0  0  0  0
  1 13  1  0  0  0  0
  2 20  1  0  0  0  0
  2 23  1  0  0  0  0
  3  8  2  0  0  0  0
  3 10  1  0  0  0  0
  4  5  1  0  0  0  0
  4  7  1  0  0  0  0
  4 27  1  0  0  0  0
  5 17  2  0  0  0  0
  6  7  2  0  0  0  0
  6  8  1  0  0  0  0
  6 11  1  0  0  0  0
  7  9  1  0  0  0  0
  8 12  1  0  0  0  0
  9 10  2  0  0  0  0
  9 24  1  0  0  0  0
 10 15  1  0  0  0  0
 11 13  2  0  0  0  0
 11 25  1  0  0  0  0
 12 14  2  0  0  0  0
 12 26  1  0  0  0  0
 13 14  1  0  0  0  0
 14 28  1  0  0  0  0
 15 29  1  0  0  0  0
 15 30  1  0  0  0  0
 15 31  1  0  0  0  0
 16 17  1  0  0  0  0
 16 18  2  0  0  0  0
 16 19  1  0  0  0  0
 17 32  1  0  0  0  0
 18 21  1  0  0  0  0
 18 33  1  0  0  0  0
 19 22  2  0  0  0  0
 19 34  1  0  0  0  0
 20 21  2  0  0  0  0
 20 22  1  0  0  0  0
 21 35  1  0  0  0  0
 22 36  1  0  0  0  0
 23 37  1  0  0  0  0
 23 38  1  0  0  0  0
 23 39  1  0  0  0  0
M  END
> <PUBCHEM_COMPOUND_CID>
9668913

> <PUBCHEM_CONFORMER_RMSD>
0.6

> <PUBCHEM_CONFORMER_DIVERSEORDER>
1
22
16
20
23
12
21
9
18
3
19
17
6
14
2
11
15
7
8
10
4
5
13

> <PUBCHEM_MMFF94_PARTIAL_CHARGES>
32
1 -0.11
10 0.17
11 -0.15
12 -0.15
13 0.11
14 -0.15
15 0.14
16 0.09
17 0.3
18 -0.15
19 -0.15
2 -0.36
20 0.08
21 -0.15
22 -0.15
23 0.28
24 0.15
25 0.15
26 0.15
27 0.4
28 0.15
3 -0.62
32 0.06
33 0.15
34 0.15
35 0.15
36 0.15
4 -0.46
5 -0.49
7 0.1
8 0.31
9 -0.15

> <PUBCHEM_EFFECTIVE_ROTOR_COUNT>
4

> <PUBCHEM_PHARMACOPHORE_FEATURES>
8
1 1 hydrophobe
1 2 acceptor
1 3 acceptor
1 4 donor
1 5 acceptor
6 16 18 19 20 21 22 rings
6 3 6 7 8 9 10 rings
6 6 8 11 12 13 14 rings

> <PUBCHEM_HEAVY_ATOM_COUNT>
23

> <PUBCHEM_ATOM_DEF_STEREO_COUNT>
0

> <PUBCHEM_ATOM_UDEF_STEREO_COUNT>
0

> <PUBCHEM_BOND_DEF_STEREO_COUNT>
1

> <PUBCHEM_BOND_UDEF_STEREO_COUNT>
0

> <PUBCHEM_ISOTOPIC_ATOM_COUNT>
0

> <PUBCHEM_COMPONENT_COUNT>
1

> <PUBCHEM_CACTVS_TAUTO_COUNT>
5

> <PUBCHEM_CONFORMER_ID>
0093893100000001

> <PUBCHEM_MMFF94_ENERGY>
82.5153

> <PUBCHEM_FEATURE_SELFOVERLAP>
40.628

> <PUBCHEM_SHAPE_FINGERPRINT>
100830 39 18410292484468987288
10165383 225 18271529698650995601
10319926 262 18341600564732983522
10411042 1 18050287270237850979
10595046 47 18263082274766963292
10835480 77 18271801359179126184
11315181 36 18186803603644434677
11524674 6 17561082522798442198
11719270 70 18130786738475761766
11796584 16 18342177774289472442
12107183 9 18047183051683579666
12236239 1 17967533488621811820
12390115 104 18270975531578620633
12616971 3 17022905683495574534
12788726 201 17703227287178832896
13073987 5 18335138665654963802
13167823 11 18335137639537763378
13885169 127 18411699877201770572
14508225 48 17982437502882881911
14790565 3 18194120716478551785
14933364 13 18411139134724629704
15021287 119 17385730192134381644
15042514 8 18192155004890627499
15183329 4 18409726244728184424
15230672 131 18264769870708624234
15250474 111 18263066834265478906
15400415 2 18410855443338656742
15537594 2 17530678801818836986
17093844 174 18408881854168450872
17492 89 17975416033594914387
17844677 252 18338524139556785288
19141452 34 18335138708694294534
19489759 90 18202282507055209329
20681677 155 18334574637860060090
21065198 57 18339641251833660448
21133410 171 17188912238149741422
21236236 1 18413106186812167239
21267235 1 18335143154502650795
21279426 13 18198911296671602511
220451 1 17967529078450067250
23402539 116 18343297076820398781
23522609 53 17750254572832531860
23536379 177 18408603647936191448
23559900 14 18271238421683040152
3004659 81 18408041810764207184
335352 9 18410853279033978997
3545911 37 18412826889193880568
4073 2 18115029718678394250
4214541 1 18410574002436971268
5104073 3 18337950194729309888
5283173 99 18412824676911553848
5364581 5 17982999335501540192
559249 180 18409446994418250690
58260988 114 16154287125455266867
59755656 215 18342181025484549534
59755656 520 18408035200508955927
6327066 14 18117552930429650053
6328613 192 18334018306831465716
7226269 152 18059858320565784561
9981440 41 18335428907646246059

> <PUBCHEM_SHAPE_MULTIPOLES>
458.46
18.55
3.48
0.61
29.71
0.89
0
-7.62
-0.02
-7.13
0
-0.05
-0.03
0

> <PUBCHEM_SHAPE_SELFOVERLAP>
984.301

> <PUBCHEM_SHAPE_VOLUME>
260.4

> <PUBCHEM_COORDINATE_TYPE>
2
5
10

$$$$
