3734233
  -OEChem-01171809523D

 49 51  0     0  0  0  0  0  0999 V2000
    5.1748   -1.7964    0.1048 O   0  5  0  0  0  0  0  0  0  0  0  0
    4.4991    0.1545    0.8508 O   0  0  0  0  0  0  0  0  0  0  0  0
   -5.3284    2.4068   -0.0437 O   0  0  0  0  0  0  0  0  0  0  0  0
    2.1115    0.7577    0.9586 N   0  0  0  0  0  0  0  0  0  0  0  0
    0.5563   -0.8654    0.2188 N   0  0  0  0  0  0  0  0  0  0  0  0
   -0.9728   -2.4853   -0.5182 N   0  0  0  0  0  0  0  0  0  0  0  0
    1.3145   -3.0023   -0.5973 N   0  0  0  0  0  0  0  0  0  0  0  0
    4.2602   -0.9834    0.3802 N   0  3  0  0  0  0  0  0  0  0  0  0
   -5.8601    0.1286    0.2496 N   0  0  0  0  0  0  0  0  0  0  0  0
    1.8462   -0.5290    0.4267 C   0  0  0  0  0  0  0  0  0  0  0  0
    2.9103   -1.3635    0.1516 C   0  0  0  0  0  0  0  0  0  0  0  0
    2.3287    1.9464    0.2144 C   0  0  0  0  0  0  0  0  0  0  0  0
    2.5812   -2.6002   -0.3643 C   0  0  0  0  0  0  0  0  0  0  0  0
    0.3620   -2.0997   -0.2879 C   0  0  0  0  0  0  0  0  0  0  0  0
    1.9012    0.9589    2.3983 C   0  0  0  0  0  0  0  0  0  0  0  0
   -2.2046   -1.8264   -0.3236 C   0  0  0  0  0  0  0  0  0  0  0  0
    1.7162    2.1050   -1.0239 C   0  0  0  0  0  0  0  0  0  0  0  0
    3.1511    2.9417    0.7305 C   0  0  0  0  0  0  0  0  0  0  0  0
    3.6431   -3.5953   -0.7044 C   0  0  0  0  0  0  0  0  0  0  0  0
   -3.3522   -2.5643   -0.0338 C   0  0  0  0  0  0  0  0  0  0  0  0
   -2.2751   -0.4368   -0.4219 C   0  0  0  0  0  0  0  0  0  0  0  0
   -4.6411   -0.5229    0.0595 C   0  0  0  0  0  0  0  0  0  0  0  0
   -4.5705   -1.9125    0.1577 C   0  0  0  0  0  0  0  0  0  0  0  0
   -3.4935    0.2149   -0.2303 C   0  0  0  0  0  0  0  0  0  0  0  0
    1.9288    3.2736   -1.7552 C   0  0  0  0  0  0  0  0  0  0  0  0
    3.3637    4.1103   -0.0008 C   0  0  0  0  0  0  0  0  0  0  0  0
    2.7525    4.2762   -1.2437 C   0  0  0  0  0  0  0  0  0  0  0  0
   -6.1246    1.5036    0.1912 C   0  0  0  0  0  0  0  0  0  0  0  0
   -7.5782    1.8051    0.4564 C   0  0  0  0  0  0  0  0  0  0  0  0
    1.4700    0.0642    2.8643 H   0  0  0  0  0  0  0  0  0  0  0  0
    1.2032    1.7830    2.5880 H   0  0  0  0  0  0  0  0  0  0  0  0
    2.8460    1.1568    2.9156 H   0  0  0  0  0  0  0  0  0  0  0  0
   -1.0578   -3.4657   -0.7693 H   0  0  0  0  0  0  0  0  0  0  0  0
    1.0646    1.3445   -1.4441 H   0  0  0  0  0  0  0  0  0  0  0  0
    3.6547    2.8403    1.6870 H   0  0  0  0  0  0  0  0  0  0  0  0
    4.2024   -3.9209    0.1785 H   0  0  0  0  0  0  0  0  0  0  0  0
    3.1717   -4.5060   -1.0971 H   0  0  0  0  0  0  0  0  0  0  0  0
    4.2974   -3.2430   -1.5082 H   0  0  0  0  0  0  0  0  0  0  0  0
   -3.3102   -3.6475    0.0461 H   0  0  0  0  0  0  0  0  0  0  0  0
   -1.4174    0.1718   -0.6885 H   0  0  0  0  0  0  0  0  0  0  0  0
   -5.4569   -2.5002    0.3829 H   0  0  0  0  0  0  0  0  0  0  0  0
   -3.4720    1.2910   -0.3324 H   0  0  0  0  0  0  0  0  0  0  0  0
    1.4518    3.4037   -2.7223 H   0  0  0  0  0  0  0  0  0  0  0  0
    4.0078    4.8898    0.3955 H   0  0  0  0  0  0  0  0  0  0  0  0
    2.9185    5.1859   -1.8133 H   0  0  0  0  0  0  0  0  0  0  0  0
   -6.6499   -0.4794    0.4567 H   0  0  0  0  0  0  0  0  0  0  0  0
   -8.1993    1.3309   -0.3087 H   0  0  0  0  0  0  0  0  0  0  0  0
   -7.7436    2.8857    0.4294 H   0  0  0  0  0  0  0  0  0  0  0  0
   -7.8615    1.4279    1.4431 H   0  0  0  0  0  0  0  0  0  0  0  0
  1  8  1  0  0  0  0
  2  8  2  0  0  0  0
  3 28  2  0  0  0  0
  4 10  1  0  0  0  0
  4 12  1  0  0  0  0
  4 15  1  0  0  0  0
  5 10  2  0  0  0  0
  5 14  1  0  0  0  0
  6 14  1  0  0  0  0
  6 16  1  0  0  0  0
  6 33  1  0  0  0  0
  7 13  1  0  0  0  0
  7 14  2  0  0  0  0
  8 11  1  0  0  0  0
  9 22  1  0  0  0  0
  9 28  1  0  0  0  0
  9 46  1  0  0  0  0
 10 11  1  0  0  0  0
 11 13  2  0  0  0  0
 12 17  2  0  0  0  0
 12 18  1  0  0  0  0
 13 19  1  0  0  0  0
 15 30  1  0  0  0  0
 15 31  1  0  0  0  0
 15 32  1  0  0  0  0
 16 20  2  0  0  0  0
 16 21  1  0  0  0  0
 17 25  1  0  0  0  0
 17 34  1  0  0  0  0
 18 26  2  0  0  0  0
 18 35  1  0  0  0  0
 19 36  1  0  0  0  0
 19 37  1  0  0  0  0
 19 38  1  0  0  0  0
 20 23  1  0  0  0  0
 20 39  1  0  0  0  0
 21 24  2  0  0  0  0
 21 40  1  0  0  0  0
 22 23  2  0  0  0  0
 22 24  1  0  0  0  0
 23 41  1  0  0  0  0
 24 42  1  0  0  0  0
 25 27  2  0  0  0  0
 25 43  1  0  0  0  0
 26 27  1  0  0  0  0
 26 44  1  0  0  0  0
 27 45  1  0  0  0  0
 28 29  1  0  0  0  0
 29 47  1  0  0  0  0
 29 48  1  0  0  0  0
 29 49  1  0  0  0  0
M  CHG  2   1  -1   8   1
M  END
> <PUBCHEM_COMPOUND_CID>
3734233

> <PUBCHEM_CONFORMER_RMSD>
0.8

> <PUBCHEM_CONFORMER_DIVERSEORDER>
1
27
33
8
28
15
13
9
24
31
20
26
30
35
34
11
23
5
19
29
3
2
12
32
4
25
21
16
22
18
7
17
6
36
14
10

> <PUBCHEM_MMFF94_PARTIAL_CHARGES>
40
1 -0.52
10 0.41
11 0.13
12 0.1
13 0.17
14 0.72
15 0.37
16 0.1
17 -0.15
18 -0.15
19 0.14
2 -0.52
20 -0.15
21 -0.15
22 0.12
23 -0.15
24 -0.15
25 -0.15
26 -0.15
27 -0.15
28 0.57
29 0.06
3 -0.57
33 0.4
34 0.15
35 0.15
39 0.15
4 -0.57
40 0.15
41 0.15
42 0.15
43 0.15
44 0.15
45 0.15
46 0.37
5 -0.62
6 -0.6
7 -0.62
8 0.91
9 -0.55

> <PUBCHEM_EFFECTIVE_ROTOR_COUNT>
7

> <PUBCHEM_PHARMACOPHORE_FEATURES>
10
1 1 acceptor
1 1 anion
1 2 acceptor
1 3 acceptor
1 6 donor
1 9 donor
4 5 6 7 14 cation
6 12 17 18 25 26 27 rings
6 16 20 21 22 23 24 rings
6 5 7 10 11 13 14 rings

> <PUBCHEM_HEAVY_ATOM_COUNT>
29

> <PUBCHEM_ATOM_DEF_STEREO_COUNT>
0

> <PUBCHEM_ATOM_UDEF_STEREO_COUNT>
0

> <PUBCHEM_BOND_DEF_STEREO_COUNT>
0

> <PUBCHEM_BOND_UDEF_STEREO_COUNT>
0

> <PUBCHEM_ISOTOPIC_ATOM_COUNT>
0

> <PUBCHEM_COMPONENT_COUNT>
1

> <PUBCHEM_CACTVS_TAUTO_COUNT>
6

> <PUBCHEM_CONFORMER_ID>
0038FAD900000001

> <PUBCHEM_MMFF94_ENERGY>
140.4792

> <PUBCHEM_FEATURE_SELFOVERLAP>
50.827

> <PUBCHEM_SHAPE_FINGERPRINT>
10074138 170 14871839401559231531
10483366 6 18263944232191870500
10763959 59 18338234869456635845
11273773 38 18410016541509997700
11297750 10 17625821566370246510
12166972 35 18199469866385927801
12422481 6 17975941506370749240
12925494 130 18410292549747578017
13965767 371 18116135852439177060
14020679 6 17894917325629331331
14251764 38 18335702805805001371
144659 178 18127136277244157369
14790565 3 17905892830880981076
15081414 286 18339359648002669526
15082195 135 18339344362667964975
151778 21 18267304411716975501
15439362 3 18193843858956110012
1601671 61 18411697682421014206
16087824 20 18195248806359922276
16120349 67 17174638455538377444
16988056 13 18339361851204906380
17810953 82 18410576201787638325
17844677 252 18409736192316008283
18785283 64 18263643025676380846
20567600 9 18263091079043998668
20642791 178 18265613372172639234
20715895 44 18341329994894722649
21033648 29 17987497308526418018
21065198 57 18411419514500913403
21133410 127 18113615729150658405
23559900 14 18412823560694784299
245318 6 18189909771670384165
3103668 31 17616823132456902398
338550 245 18410575080759008449
350125 39 18410856555403149965
397830 11 18041857207360307465
4066623 53 17697333823482261870
4409770 3 17326326632934172646
5081480 168 18410856542734299540
5104073 3 18187645860127727251
53794403 172 18408608071863497109
54076057 255 18041295282706662012
57724786 102 18408882962576007125
6287921 2 18336827609999350599
7808743 9 17907859857303871985
9981440 41 17976540842437581066

> <PUBCHEM_SHAPE_MULTIPOLES>
549.31
13.58
5.42
1.17
26.26
2.54
-0.28
5.84
-1.8
-5.9
1.86
-1.13
0.78
-0.6

> <PUBCHEM_SHAPE_SELFOVERLAP>
1187.14

> <PUBCHEM_SHAPE_VOLUME>
297.7

> <PUBCHEM_COORDINATE_TYPE>
2
5
10

$$$$
