5760298
  -OEChem-01171809283D

 41 44  0     0  0  0  0  0  0999 V2000
    6.4988    0.1774   -0.2003 Cl  0  0  0  0  0  0  0  0  0  0  0  0
   -1.3915   -3.4843    0.2658 O   0  0  0  0  0  0  0  0  0  0  0  0
   -0.2217    0.7475    1.0861 N   0  0  0  0  0  0  0  0  0  0  0  0
   -0.2659    0.7259   -1.1360 N   0  0  0  0  0  0  0  0  0  0  0  0
   -0.2158   -0.0128   -0.0502 C   0  0  0  0  0  0  0  0  0  0  0  0
   -0.2800    2.0645    0.7083 C   0  0  0  0  0  0  0  0  0  0  0  0
   -0.1586   -1.4078    0.1076 C   0  0  0  0  0  0  0  0  0  0  0  0
   -0.3064    2.0245   -0.6830 C   0  0  0  0  0  0  0  0  0  0  0  0
    1.0048   -2.1163    0.1702 C   0  0  0  0  0  0  0  0  0  0  0  0
   -1.4103   -2.2620    0.1593 C   0  0  0  0  0  0  0  0  0  0  0  0
   -0.3108    3.2510    1.4418 C   0  0  0  0  0  0  0  0  0  0  0  0
   -0.3671    3.2304   -1.4017 C   0  0  0  0  0  0  0  0  0  0  0  0
    2.3595   -1.5502    0.0787 C   0  0  0  0  0  0  0  0  0  0  0  0
   -2.7157   -1.5829    0.0380 C   0  0  0  0  0  0  0  0  0  0  0  0
   -0.3713    4.4418    0.7103 C   0  0  0  0  0  0  0  0  0  0  0  0
   -0.3990    4.4339   -0.6861 C   0  0  0  0  0  0  0  0  0  0  0  0
    2.9700   -1.4424   -1.1616 C   0  0  0  0  0  0  0  0  0  0  0  0
    3.0032   -1.1347    1.2345 C   0  0  0  0  0  0  0  0  0  0  0  0
   -3.2710   -1.4062   -1.2172 C   0  0  0  0  0  0  0  0  0  0  0  0
   -3.3542   -1.1383    1.1824 C   0  0  0  0  0  0  0  0  0  0  0  0
    4.2549   -0.9063   -1.2482 C   0  0  0  0  0  0  0  0  0  0  0  0
    4.2880   -0.5985    1.1478 C   0  0  0  0  0  0  0  0  0  0  0  0
   -4.5041   -0.7642   -1.3317 C   0  0  0  0  0  0  0  0  0  0  0  0
   -4.5874   -0.4964    1.0679 C   0  0  0  0  0  0  0  0  0  0  0  0
    4.9139   -0.4843   -0.0935 C   0  0  0  0  0  0  0  0  0  0  0  0
   -5.1622   -0.3094   -0.1891 C   0  0  0  0  0  0  0  0  0  0  0  0
   -0.1896    0.4075    2.0386 H   0  0  0  0  0  0  0  0  0  0  0  0
    1.0036   -3.1990    0.2759 H   0  0  0  0  0  0  0  0  0  0  0  0
   -0.2891    3.2545    2.5256 H   0  0  0  0  0  0  0  0  0  0  0  0
   -0.3892    3.2348   -2.4868 H   0  0  0  0  0  0  0  0  0  0  0  0
   -0.3972    5.3911    1.2397 H   0  0  0  0  0  0  0  0  0  0  0  0
   -0.4461    5.3756   -1.2269 H   0  0  0  0  0  0  0  0  0  0  0  0
    2.4669   -1.7674   -2.0686 H   0  0  0  0  0  0  0  0  0  0  0  0
    2.5264   -1.2185    2.2076 H   0  0  0  0  0  0  0  0  0  0  0  0
   -2.7641   -1.7574   -2.1114 H   0  0  0  0  0  0  0  0  0  0  0  0
   -2.9125   -1.2802    2.1646 H   0  0  0  0  0  0  0  0  0  0  0  0
    4.7301   -0.8231   -2.2222 H   0  0  0  0  0  0  0  0  0  0  0  0
    4.7893   -0.2735    2.0559 H   0  0  0  0  0  0  0  0  0  0  0  0
   -4.9516   -0.6181   -2.3105 H   0  0  0  0  0  0  0  0  0  0  0  0
   -5.0996   -0.1417    1.9576 H   0  0  0  0  0  0  0  0  0  0  0  0
   -6.1221    0.1907   -0.2782 H   0  0  0  0  0  0  0  0  0  0  0  0
  1 25  1  0  0  0  0
  2 10  2  0  0  0  0
  3  5  1  0  0  0  0
  3  6  1  0  0  0  0
  3 27  1  0  0  0  0
  4  5  2  0  0  0  0
  4  8  1  0  0  0  0
  5  7  1  0  0  0  0
  6  8  1  0  0  0  0
  6 11  2  0  0  0  0
  7  9  2  0  0  0  0
  7 10  1  0  0  0  0
  8 12  2  0  0  0  0
  9 13  1  0  0  0  0
  9 28  1  0  0  0  0
 10 14  1  0  0  0  0
 11 15  1  0  0  0  0
 11 29  1  0  0  0  0
 12 16  1  0  0  0  0
 12 30  1  0  0  0  0
 13 17  2  0  0  0  0
 13 18  1  0  0  0  0
 14 19  2  0  0  0  0
 14 20  1  0  0  0  0
 15 16  2  0  0  0  0
 15 31  1  0  0  0  0
 16 32  1  0  0  0  0
 17 21  1  0  0  0  0
 17 33  1  0  0  0  0
 18 22  2  0  0  0  0
 18 34  1  0  0  0  0
 19 23  1  0  0  0  0
 19 35  1  0  0  0  0
 20 24  2  0  0  0  0
 20 36  1  0  0  0  0
 21 25  2  0  0  0  0
 21 37  1  0  0  0  0
 22 25  1  0  0  0  0
 22 38  1  0  0  0  0
 23 26  2  0  0  0  0
 23 39  1  0  0  0  0
 24 26  1  0  0  0  0
 24 40  1  0  0  0  0
 26 41  1  0  0  0  0
M  END
> <PUBCHEM_COMPOUND_CID>
5760298

> <PUBCHEM_CONFORMER_RMSD>
0.8

> <PUBCHEM_CONFORMER_DIVERSEORDER>
1
3
15
2
10
13
14
5
7
4
8
6
12
11
9

> <PUBCHEM_MMFF94_PARTIAL_CHARGES>
41
1 -0.18
10 0.47
11 -0.15
12 -0.15
13 0.03
14 0.09
15 -0.15
16 -0.15
17 -0.15
18 -0.15
19 -0.15
2 -0.57
20 -0.15
21 -0.15
22 -0.15
23 -0.15
24 -0.15
25 0.18
26 -0.15
27 0.27
28 0.15
29 0.15
3 0.03
30 0.15
31 0.15
32 0.15
33 0.15
34 0.15
35 0.15
36 0.15
37 0.15
38 0.15
39 0.15
4 -0.57
40 0.15
41 0.15
5 0.14
6 -0.15
7 0.06
8 0.23
9 -0.18

> <PUBCHEM_EFFECTIVE_ROTOR_COUNT>
4

> <PUBCHEM_PHARMACOPHORE_FEATURES>
7
1 2 acceptor
1 3 donor
3 3 4 5 cation
5 3 4 5 6 8 rings
6 13 17 18 21 22 25 rings
6 14 19 20 23 24 26 rings
6 6 8 11 12 15 16 rings

> <PUBCHEM_HEAVY_ATOM_COUNT>
26

> <PUBCHEM_ATOM_DEF_STEREO_COUNT>
0

> <PUBCHEM_ATOM_UDEF_STEREO_COUNT>
0

> <PUBCHEM_BOND_DEF_STEREO_COUNT>
1

> <PUBCHEM_BOND_UDEF_STEREO_COUNT>
0

> <PUBCHEM_ISOTOPIC_ATOM_COUNT>
0

> <PUBCHEM_COMPONENT_COUNT>
1

> <PUBCHEM_CACTVS_TAUTO_COUNT>
1

> <PUBCHEM_CONFORMER_ID>
0057E52A00000001

> <PUBCHEM_MMFF94_ENERGY>
78.5741

> <PUBCHEM_FEATURE_SELFOVERLAP>
35.629

> <PUBCHEM_SHAPE_FINGERPRINT>
10006869 2 18050562942201307931
10165383 225 17259379599196634332
10670039 82 18336844000749567140
10764073 3 15480169772680187409
10930396 42 18121465138628789728
11049842 53 17107912457444248804
11646440 116 18411149043077025467
12516196 113 18412825810883029583
12553582 1 18410014342328551275
12788726 201 18335696092549422298
13004483 165 18336540525832332874
13140716 1 18337392772351805922
133893 2 17759782029242474879
13681431 1 18268430315992735957
13911987 19 18334008402061887934
14347332 77 18268993077654067782
14955137 171 18267324156104323787
15131766 46 15624507277707359658
15849732 13 17988648493501642231
161222 619 17626622237803617280
17357779 13 18342446032923520887
17876694 64 17895490128184611884
17980427 23 17632024138725518961
1813 80 18413390951279983655
18785283 64 18047482398362035027
19427546 62 17256244848111745605
20510252 161 18338796698154762362
20600515 1 18270419281072333854
20642791 105 17901926574959399992
20642791 239 17824847734534724340
21033648 29 17846775205081691107
21285901 2 18060140890532412838
21641784 216 18261686874131217980
23557571 272 18341332211008066110
23558518 356 17686332075664193747
249057 3 18342167900602966143
266924 87 18195243317349857983
283562 15 18337671893243073162
3298306 158 17689439712431392236
3493558 16 17489310823089585913
350125 39 18050293565995132386
469060 322 18262532398219484672
5171179 24 18129077044311191185
532947 4 17980474882520968512
7164475 11 18192988223649651838
7226269 152 18333448750954312882
81228 2 18266474112939749810

> <PUBCHEM_SHAPE_MULTIPOLES>
521.11
9.8
4.7
1.38
7.63
7.1
-0.05
-5.86
-0.74
-1.91
0.1
-0.19
0.34
0.01

> <PUBCHEM_SHAPE_SELFOVERLAP>
1154.626

> <PUBCHEM_SHAPE_VOLUME>
279.8

> <PUBCHEM_COORDINATE_TYPE>
2
5
10

$$$$
