9647810
  -OEChem-01171809233D

 28 29  0     0  0  0  0  0  0999 V2000
   -4.2951   -2.2803    1.3591 Br  0  0  0  0  0  0  0  0  0  0  0  0
    3.6070    1.0971    0.5309 S   0  0  0  0  0  0  0  0  0  0  0  0
   -2.2224   -1.6776   -1.0300 O   0  0  0  0  0  0  0  0  0  0  0  0
    7.1091   -0.3979   -0.1188 O   0  5  0  0  0  0  0  0  0  0  0  0
    6.4599    1.4954    0.7829 O   0  0  0  0  0  0  0  0  0  0  0  0
   -1.1796    0.1397   -0.0451 N   0  0  0  0  0  0  0  0  0  0  0  0
    0.0554   -0.3711   -0.2632 N   0  0  0  0  0  0  0  0  0  0  0  0
    6.1870    0.3874    0.2407 N   0  3  0  0  0  0  0  0  0  0  0  0
   -3.6018    0.0374   -0.2146 C   0  0  0  0  0  0  0  0  0  0  0  0
    2.4333    0.0124   -0.0189 C   0  0  0  0  0  0  0  0  0  0  0  0
   -4.5815   -0.5828    0.5606 C   0  0  0  0  0  0  0  0  0  0  0  0
   -3.8500    1.2862   -0.7841 C   0  0  0  0  0  0  0  0  0  0  0  0
    2.9178   -1.1238   -0.5609 C   0  0  0  0  0  0  0  0  0  0  0  0
    4.8476    0.0258    0.0356 C   0  0  0  0  0  0  0  0  0  0  0  0
   -2.3023   -0.5762   -0.4605 C   0  0  0  0  0  0  0  0  0  0  0  0
    4.3423   -1.1231   -0.5320 C   0  0  0  0  0  0  0  0  0  0  0  0
   -5.8095    0.0460    0.7664 C   0  0  0  0  0  0  0  0  0  0  0  0
   -5.0779    1.9150   -0.5784 C   0  0  0  0  0  0  0  0  0  0  0  0
   -6.0578    1.2949    0.1968 C   0  0  0  0  0  0  0  0  0  0  0  0
    1.0187    0.3954    0.1337 C   0  0  0  0  0  0  0  0  0  0  0  0
   -3.1009    1.7824   -1.3963 H   0  0  0  0  0  0  0  0  0  0  0  0
    2.3185   -1.9297   -0.9648 H   0  0  0  0  0  0  0  0  0  0  0  0
    4.9541   -1.9320   -0.9121 H   0  0  0  0  0  0  0  0  0  0  0  0
   -6.5855   -0.4212    1.3675 H   0  0  0  0  0  0  0  0  0  0  0  0
   -5.2719    2.8867   -1.0230 H   0  0  0  0  0  0  0  0  0  0  0  0
   -7.0141    1.7845    0.3565 H   0  0  0  0  0  0  0  0  0  0  0  0
    0.8148    1.3759    0.6054 H   0  0  0  0  0  0  0  0  0  0  0  0
   -1.2515    1.0423    0.4150 H   0  0  0  0  0  0  0  0  0  0  0  0
  1 11  1  0  0  0  0
  2 10  1  0  0  0  0
  2 14  1  0  0  0  0
  3 15  2  0  0  0  0
  4  8  1  0  0  0  0
  5  8  2  0  0  0  0
  6  7  1  0  0  0  0
  6 15  1  0  0  0  0
  6 28  1  0  0  0  0
  7 20  2  0  0  0  0
  8 14  1  0  0  0  0
  9 11  1  0  0  0  0
  9 12  2  0  0  0  0
  9 15  1  0  0  0  0
 10 13  2  0  0  0  0
 10 20  1  0  0  0  0
 11 17  2  0  0  0  0
 12 18  1  0  0  0  0
 12 21  1  0  0  0  0
 13 16  1  0  0  0  0
 13 22  1  0  0  0  0
 14 16  2  0  0  0  0
 16 23  1  0  0  0  0
 17 19  1  0  0  0  0
 17 24  1  0  0  0  0
 18 19  2  0  0  0  0
 18 25  1  0  0  0  0
 19 26  1  0  0  0  0
 20 27  1  0  0  0  0
M  CHG  2   4  -1   8   1
M  END
> <PUBCHEM_COMPOUND_CID>
9647810

> <PUBCHEM_CONFORMER_RMSD>
0.8

> <PUBCHEM_CONFORMER_DIVERSEORDER>
1
9
4
5
10
6
3
7
2
8

> <PUBCHEM_MMFF94_PARTIAL_CHARGES>
28
1 -0.11
10 -0.05
11 0.11
12 -0.15
13 -0.15
14 0.12
15 0.54
16 -0.15
17 -0.15
18 -0.15
19 -0.15
2 -0.08
20 0.47
21 0.15
22 0.15
23 0.15
24 0.15
25 0.15
26 0.15
27 0.06
28 0.37
3 -0.57
4 -0.52
5 -0.52
6 -0.37
7 -0.51
8 0.96
9 0.09

> <PUBCHEM_EFFECTIVE_ROTOR_COUNT>
5

> <PUBCHEM_PHARMACOPHORE_FEATURES>
9
1 1 hydrophobe
1 3 acceptor
1 4 acceptor
1 4 anion
1 5 acceptor
1 6 donor
1 7 acceptor
5 2 10 13 14 16 rings
6 9 11 12 17 18 19 rings

> <PUBCHEM_HEAVY_ATOM_COUNT>
20

> <PUBCHEM_ATOM_DEF_STEREO_COUNT>
0

> <PUBCHEM_ATOM_UDEF_STEREO_COUNT>
0

> <PUBCHEM_BOND_DEF_STEREO_COUNT>
1

> <PUBCHEM_BOND_UDEF_STEREO_COUNT>
0

> <PUBCHEM_ISOTOPIC_ATOM_COUNT>
0

> <PUBCHEM_COMPONENT_COUNT>
1

> <PUBCHEM_CACTVS_TAUTO_COUNT>
2

> <PUBCHEM_CONFORMER_ID>
009336C200000001

> <PUBCHEM_MMFF94_ENERGY>
47.4232

> <PUBCHEM_FEATURE_SELFOVERLAP>
45.758

> <PUBCHEM_SHAPE_FINGERPRINT>
10 15 18409448115657610904
10366900 7 15123508103561012614
11089746 13 15267339630669068802
11315181 36 18202002144976194905
12091667 2 18342454850602168911
12616971 3 15791739615214303775
13073987 5 18114179679466123595
13403585 85 18335420166728856941
13533116 47 16271649971234975342
13675066 3 18411421730460652591
14251764 18 17988922288596435487
14844126 61 17895767326244938187
14849402 71 16878801529286304428
14933364 13 18408042909743305744
15183329 4 17632576028631789896
15348495 7 18335703896331003992
15716309 27 15574712495417218280
16079462 125 18272078401300889016
17093844 174 18411133654135012955
17844677 252 18261401082390581685
19489759 90 18113338609496247857
200 152 12324240577223316183
20281389 69 18410571777660015592
20645477 56 18341606019183362317
20645477 70 17775007825840889078
20681677 155 18410289224599092986
21033648 29 18201425979039398913
21150785 3 16343412973318169493
220451 1 17240481403776065338
23081809 10 14620800392578533918
23198884 109 14549019879617969263
23402539 116 17821444672863293638
23536379 177 18187364307456333512
23559900 14 17417801872663889080
2916195 48 18409163333403179408
29717793 49 16271932601974392316
300161 21 17917987283066780790
328310 630 16128093472346481032
3545911 37 18272369771818712116
4073 2 18186806911022668506
4214541 1 18334577949538125845
4340502 62 17967530173735585554
5104073 3 18335140847604047027
5364581 5 18118123799553438353
542803 24 18040154024276356308
59755656 520 17603864511523952194
7495541 125 13984671364411935484
9995097 60 18342176678307531212

> <PUBCHEM_SHAPE_MULTIPOLES>
388.83
18.89
1.8
0.95
16.8
0.38
-0.05
-3.74
-3.2
-2.52
-0.21
-0.35
0.2
1.74

> <PUBCHEM_SHAPE_SELFOVERLAP>
804.276

> <PUBCHEM_SHAPE_VOLUME>
226

> <PUBCHEM_COORDINATE_TYPE>
2
5
10

$$$$
