1335691
  -OEChem-01171809363D

 50 53  0     0  0  0  0  0  0999 V2000
    5.5082   -2.7615   -2.2507 Cl  0  0  0  0  0  0  0  0  0  0  0  0
    2.0776    4.6968   -0.2544 O   0  0  0  0  0  0  0  0  0  0  0  0
    0.8887    0.1601    2.0265 O   0  0  0  0  0  0  0  0  0  0  0  0
   -3.0512   -3.1205   -0.3514 O   0  0  0  0  0  0  0  0  0  0  0  0
   -6.0147    0.3907    0.2456 O   0  0  0  0  0  0  0  0  0  0  0  0
    0.1570    2.6461   -0.1852 N   0  0  0  0  0  0  0  0  0  0  0  0
   -4.1357   -1.0278   -0.0632 N   0  0  0  0  0  0  0  0  0  0  0  0
    1.4085   -0.5949   -0.1187 N   0  0  0  0  0  0  0  0  0  0  0  0
    0.5866    3.2160   -1.4669 C   0  0  0  0  0  0  0  0  0  0  0  0
    0.3615    3.5118    0.9842 C   0  0  0  0  0  0  0  0  0  0  0  0
   -0.8951    1.7252   -0.1490 C   0  0  0  0  0  0  0  0  0  0  0  0
    2.0013    3.7692   -1.3363 C   0  0  0  0  0  0  0  0  0  0  0  0
    1.7883    4.0487    0.9841 C   0  0  0  0  0  0  0  0  0  0  0  0
   -0.7251    0.4157    0.3480 C   0  0  0  0  0  0  0  0  0  0  0  0
   -2.1743    2.0909   -0.6166 C   0  0  0  0  0  0  0  0  0  0  0  0
   -3.0437   -0.1012   -0.0925 C   0  0  0  0  0  0  0  0  0  0  0  0
   -1.7878   -0.4874    0.3758 C   0  0  0  0  0  0  0  0  0  0  0  0
   -3.2370    1.1878   -0.5887 C   0  0  0  0  0  0  0  0  0  0  0  0
    0.5745   -0.0182    0.8454 C   0  0  0  0  0  0  0  0  0  0  0  0
   -4.0191   -2.3988   -0.1747 C   0  0  0  0  0  0  0  0  0  0  0  0
   -5.4654   -0.6863    0.0805 C   0  0  0  0  0  0  0  0  0  0  0  0
    2.7318   -1.0763    0.0443 C   0  0  0  0  0  0  0  0  0  0  0  0
   -5.3793   -2.9500   -0.0882 C   0  0  0  0  0  0  0  0  0  0  0  0
   -6.2324   -1.9401    0.0510 C   0  0  0  0  0  0  0  0  0  0  0  0
    3.3930   -1.6164   -1.0448 C   0  0  0  0  0  0  0  0  0  0  0  0
    3.3312   -0.9945    1.2891 C   0  0  0  0  0  0  0  0  0  0  0  0
    5.3153   -2.0156    0.3633 C   0  0  0  0  0  0  0  0  0  0  0  0
    4.6952   -2.0900   -0.8840 C   0  0  0  0  0  0  0  0  0  0  0  0
    4.6331   -1.4680    1.4498 C   0  0  0  0  0  0  0  0  0  0  0  0
    6.7090   -2.5115    0.5775 C   0  0  0  0  0  0  0  0  0  0  0  0
   -0.1003    4.0235   -1.7480 H   0  0  0  0  0  0  0  0  0  0  0  0
    0.5662    2.4564   -2.2570 H   0  0  0  0  0  0  0  0  0  0  0  0
    0.1794    2.9677    1.9180 H   0  0  0  0  0  0  0  0  0  0  0  0
   -0.3498    4.3452    0.9329 H   0  0  0  0  0  0  0  0  0  0  0  0
    2.7307    2.9652   -1.1790 H   0  0  0  0  0  0  0  0  0  0  0  0
    2.2822    4.2967   -2.2533 H   0  0  0  0  0  0  0  0  0  0  0  0
    1.9109    4.7837    1.7858 H   0  0  0  0  0  0  0  0  0  0  0  0
    2.5163    3.2462    1.1545 H   0  0  0  0  0  0  0  0  0  0  0  0
   -2.3474    3.0909   -1.0085 H   0  0  0  0  0  0  0  0  0  0  0  0
   -1.6215   -1.4768    0.7928 H   0  0  0  0  0  0  0  0  0  0  0  0
   -4.1934    1.5136   -0.9855 H   0  0  0  0  0  0  0  0  0  0  0  0
    1.0332   -0.6801   -1.0614 H   0  0  0  0  0  0  0  0  0  0  0  0
   -5.6168   -3.9992   -0.1426 H   0  0  0  0  0  0  0  0  0  0  0  0
   -7.3040   -2.0018    0.1403 H   0  0  0  0  0  0  0  0  0  0  0  0
    2.9045   -1.6715   -2.0146 H   0  0  0  0  0  0  0  0  0  0  0  0
    2.8765   -0.5863    2.1786 H   0  0  0  0  0  0  0  0  0  0  0  0
    5.1016   -1.4023    2.4285 H   0  0  0  0  0  0  0  0  0  0  0  0
    6.7744   -3.5822    0.3575 H   0  0  0  0  0  0  0  0  0  0  0  0
    7.4138   -1.9644   -0.0573 H   0  0  0  0  0  0  0  0  0  0  0  0
    7.0361   -2.3749    1.6142 H   0  0  0  0  0  0  0  0  0  0  0  0
  1 28  1  0  0  0  0
  2 12  1  0  0  0  0
  2 13  1  0  0  0  0
  3 19  2  0  0  0  0
  4 20  2  0  0  0  0
  5 21  2  0  0  0  0
  6  9  1  0  0  0  0
  6 10  1  0  0  0  0
  6 11  1  0  0  0  0
  7 16  1  0  0  0  0
  7 20  1  0  0  0  0
  7 21  1  0  0  0  0
  8 19  1  0  0  0  0
  8 22  1  0  0  0  0
  8 42  1  0  0  0  0
  9 12  1  0  0  0  0
  9 31  1  0  0  0  0
  9 32  1  0  0  0  0
 10 13  1  0  0  0  0
 10 33  1  0  0  0  0
 10 34  1  0  0  0  0
 11 14  2  0  0  0  0
 11 15  1  0  0  0  0
 12 35  1  0  0  0  0
 12 36  1  0  0  0  0
 13 37  1  0  0  0  0
 13 38  1  0  0  0  0
 14 17  1  0  0  0  0
 14 19  1  0  0  0  0
 15 18  2  0  0  0  0
 15 39  1  0  0  0  0
 16 17  2  0  0  0  0
 16 18  1  0  0  0  0
 17 40  1  0  0  0  0
 18 41  1  0  0  0  0
 20 23  1  0  0  0  0
 21 24  1  0  0  0  0
 22 25  2  0  0  0  0
 22 26  1  0  0  0  0
 23 24  2  0  0  0  0
 23 43  1  0  0  0  0
 24 44  1  0  0  0  0
 25 28  1  0  0  0  0
 25 45  1  0  0  0  0
 26 29  2  0  0  0  0
 26 46  1  0  0  0  0
 27 28  2  0  0  0  0
 27 29  1  0  0  0  0
 27 30  1  0  0  0  0
 29 47  1  0  0  0  0
 30 48  1  0  0  0  0
 30 49  1  0  0  0  0
 30 50  1  0  0  0  0
M  END
> <PUBCHEM_COMPOUND_CID>
1335691

> <PUBCHEM_CONFORMER_RMSD>
0.8

> <PUBCHEM_CONFORMER_DIVERSEORDER>
1
37
32
40
12
5
42
11
38
36
23
28
44
35
34
10
24
26
4
16
31
39
14
18
29
9
15
33
27
17
3
45
19
46
30
6
2
41
8
43
13
22
25
7
21
20

> <PUBCHEM_MMFF94_PARTIAL_CHARGES>
39
1 -0.18
10 0.37
11 0.1
12 0.28
13 0.28
14 0.09
15 -0.15
16 0.12
17 -0.15
18 -0.15
19 0.54
2 -0.56
20 0.62
21 0.62
22 0.12
23 -0.14
24 -0.14
25 -0.15
26 -0.15
27 -0.14
28 0.18
29 -0.15
3 -0.57
30 0.14
39 0.15
4 -0.57
40 0.15
41 0.15
42 0.37
43 0.15
44 0.15
45 0.15
46 0.15
47 0.15
5 -0.57
6 -0.84
7 -0.24
8 -0.55
9 0.37

> <PUBCHEM_EFFECTIVE_ROTOR_COUNT>
6.4

> <PUBCHEM_PHARMACOPHORE_FEATURES>
10
1 2 acceptor
1 3 acceptor
1 4 acceptor
1 5 acceptor
1 6 cation
1 8 donor
5 7 20 21 23 24 rings
6 11 14 15 16 17 18 rings
6 2 6 9 10 12 13 rings
6 22 25 26 27 28 29 rings

> <PUBCHEM_HEAVY_ATOM_COUNT>
30

> <PUBCHEM_ATOM_DEF_STEREO_COUNT>
0

> <PUBCHEM_ATOM_UDEF_STEREO_COUNT>
0

> <PUBCHEM_BOND_DEF_STEREO_COUNT>
0

> <PUBCHEM_BOND_UDEF_STEREO_COUNT>
0

> <PUBCHEM_ISOTOPIC_ATOM_COUNT>
0

> <PUBCHEM_COMPONENT_COUNT>
1

> <PUBCHEM_CACTVS_TAUTO_COUNT>
2

> <PUBCHEM_CONFORMER_ID>
0014618B00000001

> <PUBCHEM_MMFF94_ENERGY>
111.0057

> <PUBCHEM_FEATURE_SELFOVERLAP>
50.748

> <PUBCHEM_SHAPE_FINGERPRINT>
10032420 55 17531516603772404123
10050765 1 18336826498589524013
10190108 129 17040363982409460187
10622 236 17243559903079823466
10721379 63 18195824065874496572
10940486 97 18262520278323500373
11045515 52 18188771643690968980
11488393 25 18193003839907634384
11513181 2 17980761859224639943
11578080 2 17170080790635350821
11963148 33 17618218855469909879
12107183 9 18341058415770770609
12166972 35 17676491623031629558
12342043 65 17559116467955778262
12788726 201 17971189218987368730
13009979 54 18201449068783536849
131258 43 17916606288368498676
13402501 40 18131352981688365479
13540713 4 18189316005616816141
13757389 114 17979932509387006757
13782708 43 17773033047872304566
14028597 1 17630343053776581520
14068700 675 18410294696318433867
14394314 77 18336544906883753779
14910302 57 17982175509477081238
14955137 171 18272652333432815141
15324884 4 17985234457798660016
15927050 60 17764590211234487852
15961568 22 18335980892849464116
17492 89 18121779697955696307
17686467 74 18339351991173213762
17909252 39 18267030641954006473
1813 80 18411419501061396138
19026451 147 18334299769249665908
19841028 212 18120093043135334235
20028762 73 16896528087382149363
20554085 129 8069741845522469902
20775438 99 17830443235087430987
21133665 82 17616259521960791220
21344244 246 18264498454544860068
21796203 349 18047227182288105459
23557571 272 18126555722799323456
23559900 14 18340196488447681659
249057 3 18337952291111615141
249999 5 18195525024323367912
255183 451 18412266176907923383
3004659 81 18260553320170978550
335352 9 18336823109975820151
4017518 198 17763474211771647140
4280585 95 18335130964942119106
437815 12 18060133211563066131
469060 322 18267878185283466986
59755656 215 18046344399121291637
613672 6 18269539568727769534
621550 5 17988359257255076176
6700243 42 17984444957416595462
70251023 43 18334576875907098171

> <PUBCHEM_SHAPE_MULTIPOLES>
580.84
14.11
5.56
1.39
1.5
6.64
0.17
-19.39
0.85
-2.43
1.1
-2.17
0.03
0.57

> <PUBCHEM_SHAPE_SELFOVERLAP>
1259.885

> <PUBCHEM_SHAPE_VOLUME>
318.1

> <PUBCHEM_COORDINATE_TYPE>
2
5
10

$$$$
