123191
  -OEChem-01171809503D

 22 23  0     0  0  0  0  0  0999 V2000
    3.4492    0.0001    0.0000 S   0  0  0  0  0  0  0  0  0  0  0  0
    0.9198   -1.1414    0.0000 N   0  0  0  0  0  0  0  0  0  0  0  0
    0.9196    1.1415    0.0000 N   0  0  0  0  0  0  0  0  0  0  0  0
   -0.4161   -0.6967   -0.0001 C   0  0  0  0  0  0  0  0  0  0  0  0
   -0.4161    0.6966    0.0000 C   0  0  0  0  0  0  0  0  0  0  0  0
    1.7796    0.0001   -0.0001 C   0  0  0  0  0  0  0  0  0  0  0  0
   -1.5922   -1.4222    0.0001 C   0  0  0  0  0  0  0  0  0  0  0  0
   -1.5923    1.4221    0.0001 C   0  0  0  0  0  0  0  0  0  0  0  0
    1.2658   -2.5501    0.0001 C   0  0  0  0  0  0  0  0  0  0  0  0
    1.2653    2.5502    0.0001 C   0  0  0  0  0  0  0  0  0  0  0  0
   -2.7912   -0.7041    0.0000 C   0  0  0  0  0  0  0  0  0  0  0  0
   -2.7913    0.7038   -0.0001 C   0  0  0  0  0  0  0  0  0  0  0  0
   -1.6018   -2.5060    0.0002 H   0  0  0  0  0  0  0  0  0  0  0  0
   -1.6020    2.5058    0.0002 H   0  0  0  0  0  0  0  0  0  0  0  0
    2.3480   -2.6931    0.0001 H   0  0  0  0  0  0  0  0  0  0  0  0
    0.8488   -3.0210   -0.8951 H   0  0  0  0  0  0  0  0  0  0  0  0
    0.8488   -3.0208    0.8954 H   0  0  0  0  0  0  0  0  0  0  0  0
    0.8483    3.0210   -0.8951 H   0  0  0  0  0  0  0  0  0  0  0  0
    2.3475    2.6934    0.0000 H   0  0  0  0  0  0  0  0  0  0  0  0
    0.8484    3.0208    0.8955 H   0  0  0  0  0  0  0  0  0  0  0  0
   -3.7380   -1.2380    0.0000 H   0  0  0  0  0  0  0  0  0  0  0  0
   -3.7381    1.2377   -0.0002 H   0  0  0  0  0  0  0  0  0  0  0  0
  1  6  2  0  0  0  0
  2  4  1  0  0  0  0
  2  6  1  0  0  0  0
  2  9  1  0  0  0  0
  3  5  1  0  0  0  0
  3  6  1  0  0  0  0
  3 10  1  0  0  0  0
  4  5  1  0  0  0  0
  4  7  2  0  0  0  0
  5  8  2  0  0  0  0
  7 11  1  0  0  0  0
  7 13  1  0  0  0  0
  8 12  1  0  0  0  0
  8 14  1  0  0  0  0
  9 15  1  0  0  0  0
  9 16  1  0  0  0  0
  9 17  1  0  0  0  0
 10 18  1  0  0  0  0
 10 19  1  0  0  0  0
 10 20  1  0  0  0  0
 11 12  2  0  0  0  0
 11 21  1  0  0  0  0
 12 22  1  0  0  0  0
M  END
> <PUBCHEM_COMPOUND_CID>
123191

> <PUBCHEM_CONFORMER_RMSD>
0.4

> <PUBCHEM_CONFORMER_DIVERSEORDER>
1

> <PUBCHEM_MMFF94_PARTIAL_CHARGES>
16
1 -0.38
10 0.3
11 -0.15
12 -0.15
13 0.15
14 0.15
2 -0.48
21 0.15
22 0.15
3 -0.48
4 0.12
5 0.12
6 0.5
7 -0.15
8 -0.15
9 0.3

> <PUBCHEM_EFFECTIVE_ROTOR_COUNT>
0

> <PUBCHEM_PHARMACOPHORE_FEATURES>
3
1 1 acceptor
5 2 3 4 5 6 rings
6 4 5 7 8 11 12 rings

> <PUBCHEM_HEAVY_ATOM_COUNT>
12

> <PUBCHEM_ATOM_DEF_STEREO_COUNT>
0

> <PUBCHEM_ATOM_UDEF_STEREO_COUNT>
0

> <PUBCHEM_BOND_DEF_STEREO_COUNT>
0

> <PUBCHEM_BOND_UDEF_STEREO_COUNT>
0

> <PUBCHEM_ISOTOPIC_ATOM_COUNT>
0

> <PUBCHEM_COMPONENT_COUNT>
1

> <PUBCHEM_CACTVS_TAUTO_COUNT>
1

> <PUBCHEM_CONFORMER_ID>
0001E13700000001

> <PUBCHEM_MMFF94_ENERGY>
45.0333

> <PUBCHEM_FEATURE_SELFOVERLAP>
15.319

> <PUBCHEM_SHAPE_FINGERPRINT>
10967382 1 18410575050313935526
11132069 177 18409722950725651672
11206711 2 18408602578046086957
12032990 46 18411989035548023654
12382932 28 18267017267557468762
12423570 1 7964425678406966486
12524768 44 18126851482241194223
13380535 76 18408882923515327363
14325111 11 18410856589942151844
16945 1 18410575084879343749
193761 8 18410856551366346597
20201158 50 18409445877884801351
20588541 1 18335986380514122557
21501502 16 18267300928572559339
2334 1 17978511167342802093
23402655 69 18196354950250946029
23463225 33 18334852771695034042
23552423 10 18409448132768830207
23559900 14 18343028796642572036
241688 4 17906172854194915713
2748010 2 18049161360743184311
5084963 1 18058734735366329970
528886 8 18411414007782348362
53812653 166 18342172245969996672
63268167 104 18337954467910571369
7364860 26 18342175565863509248

> <PUBCHEM_SHAPE_MULTIPOLES>
240.84
4.27
2.4
0.61
0.53
0
0
0
0
0.72
0
0.01
0
0

> <PUBCHEM_SHAPE_SELFOVERLAP>
502.761

> <PUBCHEM_SHAPE_VOLUME>
139.8

> <PUBCHEM_COORDINATE_TYPE>
2
5
10

$$$$
