3237441
  -OEChem-01171810133D

 42 44  0     0  0  0  0  0  0999 V2000
    1.9384    1.7966   -0.1461 S   0  0  0  0  0  0  0  0  0  0  0  0
    4.8869    1.9906    0.1661 F   0  0  0  0  0  0  0  0  0  0  0  0
    1.3517   -1.0651   -0.6895 F   0  0  0  0  0  0  0  0  0  0  0  0
    3.1589   -3.0957   -0.8638 F   0  0  0  0  0  0  0  0  0  0  0  0
    6.6833   -0.0493   -0.0111 F   0  0  0  0  0  0  0  0  0  0  0  0
    5.8255   -2.5939   -0.5258 F   0  0  0  0  0  0  0  0  0  0  0  0
    2.3648    2.7128    0.9052 O   0  0  0  0  0  0  0  0  0  0  0  0
    1.6998    2.2621   -1.5088 O   0  0  0  0  0  0  0  0  0  0  0  0
   -5.9466   -1.1418    1.4651 O   0  0  0  0  0  0  0  0  0  0  0  0
   -6.8449   -0.1453   -0.9690 O   0  0  0  0  0  0  0  0  0  0  0  0
    0.5066    1.1219    0.4254 N   0  0  0  0  0  0  0  0  0  0  0  0
   -0.6465    1.1629   -0.2636 N   0  0  0  0  0  0  0  0  0  0  0  0
    1.4575    0.3392    2.4639 N   0  0  0  0  0  0  0  0  0  0  0  0
   -1.5060    0.5245    0.5382 C   0  0  0  0  0  0  0  0  0  0  0  0
    0.4082    0.4840    1.6271 C   0  0  0  0  0  0  0  0  0  0  0  0
    3.1088    0.4746   -0.2609 C   0  0  0  0  0  0  0  0  0  0  0  0
   -0.9005    0.0802    1.7315 C   0  0  0  0  0  0  0  0  0  0  0  0
   -2.8786    0.3518    0.1538 C   0  0  0  0  0  0  0  0  0  0  0  0
    4.4542    0.7473   -0.0866 C   0  0  0  0  0  0  0  0  0  0  0  0
    2.6563   -0.8067   -0.5220 C   0  0  0  0  0  0  0  0  0  0  0  0
   -3.7611   -0.3173    1.0019 C   0  0  0  0  0  0  0  0  0  0  0  0
   -3.3295    0.8520   -1.0678 C   0  0  0  0  0  0  0  0  0  0  0  0
   -5.0945   -0.4861    0.6287 C   0  0  0  0  0  0  0  0  0  0  0  0
    3.5790   -1.8490   -0.6117 C   0  0  0  0  0  0  0  0  0  0  0  0
    5.3770   -0.2950   -0.1767 C   0  0  0  0  0  0  0  0  0  0  0  0
   -5.5454    0.0140   -0.5929 C   0  0  0  0  0  0  0  0  0  0  0  0
   -4.6629    0.6829   -1.4411 C   0  0  0  0  0  0  0  0  0  0  0  0
    4.9393   -1.5931   -0.4393 C   0  0  0  0  0  0  0  0  0  0  0  0
   -6.0549   -2.5546    1.3026 C   0  0  0  0  0  0  0  0  0  0  0  0
   -7.2249    0.3955   -2.2329 C   0  0  0  0  0  0  0  0  0  0  0  0
   -1.3271   -0.4587    2.5656 H   0  0  0  0  0  0  0  0  0  0  0  0
   -3.4476   -0.7202    1.9610 H   0  0  0  0  0  0  0  0  0  0  0  0
   -2.6727    1.3784   -1.7559 H   0  0  0  0  0  0  0  0  0  0  0  0
    1.3633   -0.1484    3.3497 H   0  0  0  0  0  0  0  0  0  0  0  0
    2.3762    0.7307    2.2876 H   0  0  0  0  0  0  0  0  0  0  0  0
   -4.9427    1.0970   -2.4036 H   0  0  0  0  0  0  0  0  0  0  0  0
   -5.0890   -3.0365    1.4843 H   0  0  0  0  0  0  0  0  0  0  0  0
   -6.4149   -2.8008    0.2987 H   0  0  0  0  0  0  0  0  0  0  0  0
   -6.7758   -2.9294    2.0343 H   0  0  0  0  0  0  0  0  0  0  0  0
   -6.6929   -0.0921   -3.0568 H   0  0  0  0  0  0  0  0  0  0  0  0
   -7.1179    1.4854   -2.2543 H   0  0  0  0  0  0  0  0  0  0  0  0
   -8.2893    0.1781   -2.3694 H   0  0  0  0  0  0  0  0  0  0  0  0
  1  7  2  0  0  0  0
  1  8  2  0  0  0  0
  1 11  1  0  0  0  0
  1 16  1  0  0  0  0
  2 19  1  0  0  0  0
  3 20  1  0  0  0  0
  4 24  1  0  0  0  0
  5 25  1  0  0  0  0
  6 28  1  0  0  0  0
  9 23  1  0  0  0  0
  9 29  1  0  0  0  0
 10 26  1  0  0  0  0
 10 30  1  0  0  0  0
 11 12  1  0  0  0  0
 11 15  1  0  0  0  0
 12 14  2  0  0  0  0
 13 15  1  0  0  0  0
 13 34  1  0  0  0  0
 13 35  1  0  0  0  0
 14 17  1  0  0  0  0
 14 18  1  0  0  0  0
 15 17  2  0  0  0  0
 16 19  2  0  0  0  0
 16 20  1  0  0  0  0
 17 31  1  0  0  0  0
 18 21  2  0  0  0  0
 18 22  1  0  0  0  0
 19 25  1  0  0  0  0
 20 24  2  0  0  0  0
 21 23  1  0  0  0  0
 21 32  1  0  0  0  0
 22 27  2  0  0  0  0
 22 33  1  0  0  0  0
 23 26  2  0  0  0  0
 24 28  1  0  0  0  0
 25 28  2  0  0  0  0
 26 27  1  0  0  0  0
 27 36  1  0  0  0  0
 29 37  1  0  0  0  0
 29 38  1  0  0  0  0
 29 39  1  0  0  0  0
 30 40  1  0  0  0  0
 30 41  1  0  0  0  0
 30 42  1  0  0  0  0
M  END
> <PUBCHEM_COMPOUND_CID>
3237441

> <PUBCHEM_CONFORMER_RMSD>
0.8

> <PUBCHEM_CONFORMER_DIVERSEORDER>
8
38
67
70
32
68
63
6
29
44
56
52
50
48
12
61
4
55
30
10
59
71
11
34
35
64
24
42
7
9
14
51
69
45
60
3
57
2
5
37
41
18
66
1
20
15
13
53
54
65
49
40
23
28
43
27
22
16
33
21
36
58
19
25
46
47
39
26
31
62
17

> <PUBCHEM_MMFF94_PARTIAL_CHARGES>
36
1 1.29
10 -0.36
11 0.58
12 -0.71
13 -0.88
14 0.23
15 -0.07
16 -0.01
17 -0.15
18 0.05
19 0.19
2 -0.19
20 0.19
21 -0.15
22 -0.15
23 0.08
24 0.19
25 0.19
26 0.08
27 -0.15
28 0.19
29 0.28
3 -0.19
30 0.28
31 0.15
32 0.15
33 0.15
34 0.4
35 0.4
36 0.15
4 -0.19
5 -0.19
6 -0.19
7 -0.65
8 -0.65
9 -0.36

> <PUBCHEM_EFFECTIVE_ROTOR_COUNT>
5

> <PUBCHEM_PHARMACOPHORE_FEATURES>
10
1 10 acceptor
1 12 acceptor
1 13 cation
1 13 donor
1 7 acceptor
1 8 acceptor
1 9 acceptor
5 11 12 14 15 17 rings
6 16 19 20 24 25 28 rings
6 18 21 22 23 26 27 rings

> <PUBCHEM_HEAVY_ATOM_COUNT>
30

> <PUBCHEM_ATOM_DEF_STEREO_COUNT>
0

> <PUBCHEM_ATOM_UDEF_STEREO_COUNT>
0

> <PUBCHEM_BOND_DEF_STEREO_COUNT>
0

> <PUBCHEM_BOND_UDEF_STEREO_COUNT>
0

> <PUBCHEM_ISOTOPIC_ATOM_COUNT>
0

> <PUBCHEM_COMPONENT_COUNT>
1

> <PUBCHEM_CACTVS_TAUTO_COUNT>
3

> <PUBCHEM_CONFORMER_ID>
0031664100000008

> <PUBCHEM_MMFF94_ENERGY>
80.0707

> <PUBCHEM_FEATURE_SELFOVERLAP>
50.77

> <PUBCHEM_SHAPE_FINGERPRINT>
10670039 82 16226322612853540205
11578080 2 14780700260109397844
11828532 37 16950858006705918061
12236239 1 17275107223383071273
12516196 113 16487252162189224714
12633257 1 16128653063746291437
13533116 47 18059857272725437944
13782708 43 18114187475153909363
14251751 18 18334866043049377383
14863182 85 16487265343971358044
15142383 8 17775295919863226369
15183329 4 17822286851705027289
15352257 5 18341054112008168419
15537594 2 17704069603264295327
17134984 74 18411411817439477767
17492 89 17557996035209831726
17857418 61 17346876754681543551
1813 80 16917075468523979225
20567600 247 18201996642701381439
21033650 10 16805888373019587205
21267235 1 18201168667933557222
21285901 2 18040997289787092332
21315763 178 17418379069208557451
21623969 137 18272097101514863607
22061861 79 18407478860293808263
221357 26 18261104154348673093
22393880 68 17749103418374900771
23559900 14 18259982691474979453
23569914 152 17471263195225204087
239999 70 17968375748857148457
2838139 119 12973605538680551751
314194 84 17846780685085218599
3411729 13 14763479695793802914
34797466 226 17967816098219066037
4073 2 18261115201257122731
4098825 35 18341889642161159877
4340502 62 17989200491367430848
439807 62 18058722646015210863
46194498 28 18114183072590982300
513532 50 17967807259065432632
5718773 13 18191586355405055530
59755656 215 17603579712690381561

> <PUBCHEM_SHAPE_MULTIPOLES>
546.45
17.57
2.31
1.66
12.9
0.84
0.32
6.33
-5.54
-2.22
-0.24
1.86
-0.03
2.82

> <PUBCHEM_SHAPE_SELFOVERLAP>
1193.022

> <PUBCHEM_SHAPE_VOLUME>
300.6

> <PUBCHEM_COORDINATE_TYPE>
2
5
10

$$$$
