1988521
  -OEChem-01171809253D

 58 62  0     0  0  0  0  0  0999 V2000
   -1.4790    0.5123    0.2541 S   0  0  0  0  0  0  0  0  0  0  0  0
    1.4451    1.9551   -0.5897 O   0  0  0  0  0  0  0  0  0  0  0  0
  -10.6002   -0.3235    0.9790 O   0  0  0  0  0  0  0  0  0  0  0  0
    6.8795   -1.2336    0.0292 N   0  0  0  0  0  0  0  0  0  0  0  0
    1.5355   -0.3596   -1.0114 N   0  0  0  0  0  0  0  0  0  0  0  0
   -4.1951    0.2787    0.3742 N   0  0  0  0  0  0  0  0  0  0  0  0
   -4.8020    0.5608   -1.7090 N   0  0  0  0  0  0  0  0  0  0  0  0
   -3.4265    0.6577   -1.6390 N   0  0  0  0  0  0  0  0  0  0  0  0
   -4.2623    0.0519    1.7713 N   0  0  0  0  0  0  0  0  0  0  0  0
    5.5375   -1.2165   -0.2691 C   0  0  0  0  0  0  0  0  0  0  0  0
    5.0991    0.1000   -0.1253 C   0  0  0  0  0  0  0  0  0  0  0  0
    7.3228    0.0252    0.3603 C   0  0  0  0  0  0  0  0  0  0  0  0
    6.2277    0.8851    0.2726 C   0  0  0  0  0  0  0  0  0  0  0  0
    7.7143   -2.4180   -0.0015 C   0  0  0  0  0  0  0  0  0  0  0  0
    3.7416    0.3902   -0.3768 C   0  0  0  0  0  0  0  0  0  0  0  0
    4.6870   -2.2600   -0.6520 C   0  0  0  0  0  0  0  0  0  0  0  0
    8.6008    0.4620    0.7277 C   0  0  0  0  0  0  0  0  0  0  0  0
    6.4179    2.2516    0.5669 C   0  0  0  0  0  0  0  0  0  0  0  0
    2.8790   -0.6427   -0.7608 C   0  0  0  0  0  0  0  0  0  0  0  0
    3.3469   -1.9476   -0.8955 C   0  0  0  0  0  0  0  0  0  0  0  0
    7.7426   -3.1365    1.3367 C   0  0  0  0  0  0  0  0  0  0  0  0
    8.7640    1.8200    1.0141 C   0  0  0  0  0  0  0  0  0  0  0  0
    7.6901    2.7034    0.9356 C   0  0  0  0  0  0  0  0  0  0  0  0
    0.9309    0.8891   -0.9176 C   0  0  0  0  0  0  0  0  0  0  0  0
   -0.5422    0.8266   -1.2610 C   0  0  0  0  0  0  0  0  0  0  0  0
   -5.2440    0.3334   -0.4927 C   0  0  0  0  0  0  0  0  0  0  0  0
   -3.1215    0.4854   -0.3984 C   0  0  0  0  0  0  0  0  0  0  0  0
   -6.6263    0.1639   -0.1125 C   0  0  0  0  0  0  0  0  0  0  0  0
   -7.1988   -1.1075   -0.1173 C   0  0  0  0  0  0  0  0  0  0  0  0
   -7.3874    1.2715    0.2589 C   0  0  0  0  0  0  0  0  0  0  0  0
   -8.5344   -1.2714    0.2497 C   0  0  0  0  0  0  0  0  0  0  0  0
   -8.7230    1.1076    0.6260 C   0  0  0  0  0  0  0  0  0  0  0  0
   -9.2966   -0.1639    0.6213 C   0  0  0  0  0  0  0  0  0  0  0  0
  -11.1231   -1.6506    0.9515 C   0  0  0  0  0  0  0  0  0  0  0  0
    7.3446   -3.0839   -0.7880 H   0  0  0  0  0  0  0  0  0  0  0  0
    8.7253   -2.1234   -0.3016 H   0  0  0  0  0  0  0  0  0  0  0  0
    3.4606    1.4229   -0.2516 H   0  0  0  0  0  0  0  0  0  0  0  0
    5.0378   -3.2811   -0.7560 H   0  0  0  0  0  0  0  0  0  0  0  0
    9.4442   -0.2165    0.7972 H   0  0  0  0  0  0  0  0  0  0  0  0
    5.5903    2.9531    0.5103 H   0  0  0  0  0  0  0  0  0  0  0  0
    2.6713   -2.7468   -1.1932 H   0  0  0  0  0  0  0  0  0  0  0  0
    8.1342   -2.4877    2.1272 H   0  0  0  0  0  0  0  0  0  0  0  0
    8.3806   -4.0235    1.2771 H   0  0  0  0  0  0  0  0  0  0  0  0
    6.7394   -3.4580    1.6356 H   0  0  0  0  0  0  0  0  0  0  0  0
    9.7439    2.1909    1.3037 H   0  0  0  0  0  0  0  0  0  0  0  0
    7.8400    3.7554    1.1632 H   0  0  0  0  0  0  0  0  0  0  0  0
    0.9571   -1.1509   -1.2840 H   0  0  0  0  0  0  0  0  0  0  0  0
   -0.7300    0.0408   -2.0002 H   0  0  0  0  0  0  0  0  0  0  0  0
   -0.8359    1.7857   -1.7007 H   0  0  0  0  0  0  0  0  0  0  0  0
   -6.6166   -1.9799   -0.4047 H   0  0  0  0  0  0  0  0  0  0  0  0
   -6.9545    2.2690    0.2676 H   0  0  0  0  0  0  0  0  0  0  0  0
   -8.9164   -2.2862    0.2240 H   0  0  0  0  0  0  0  0  0  0  0  0
   -9.3118    1.9741    0.9146 H   0  0  0  0  0  0  0  0  0  0  0  0
   -4.8173    0.7603    2.2499 H   0  0  0  0  0  0  0  0  0  0  0  0
   -4.6901   -0.8457    1.9953 H   0  0  0  0  0  0  0  0  0  0  0  0
  -11.1149   -2.0655   -0.0622 H   0  0  0  0  0  0  0  0  0  0  0  0
  -10.6112   -2.2999    1.6699 H   0  0  0  0  0  0  0  0  0  0  0  0
  -12.1708   -1.5918    1.2642 H   0  0  0  0  0  0  0  0  0  0  0  0
  1 25  1  0  0  0  0
  1 27  1  0  0  0  0
  2 24  2  0  0  0  0
  3 33  1  0  0  0  0
  3 34  1  0  0  0  0
  4 10  1  0  0  0  0
  4 12  1  0  0  0  0
  4 14  1  0  0  0  0
  5 19  1  0  0  0  0
  5 24  1  0  0  0  0
  5 47  1  0  0  0  0
  6  9  1  0  0  0  0
  6 26  1  0  0  0  0
  6 27  1  0  0  0  0
  7  8  1  0  0  0  0
  7 26  2  0  0  0  0
  8 27  2  0  0  0  0
  9 54  1  0  0  0  0
  9 55  1  0  0  0  0
 10 11  2  0  0  0  0
 10 16  1  0  0  0  0
 11 13  1  0  0  0  0
 11 15  1  0  0  0  0
 12 13  1  0  0  0  0
 12 17  2  0  0  0  0
 13 18  2  0  0  0  0
 14 21  1  0  0  0  0
 14 35  1  0  0  0  0
 14 36  1  0  0  0  0
 15 19  2  0  0  0  0
 15 37  1  0  0  0  0
 16 20  2  0  0  0  0
 16 38  1  0  0  0  0
 17 22  1  0  0  0  0
 17 39  1  0  0  0  0
 18 23  1  0  0  0  0
 18 40  1  0  0  0  0
 19 20  1  0  0  0  0
 20 41  1  0  0  0  0
 21 42  1  0  0  0  0
 21 43  1  0  0  0  0
 21 44  1  0  0  0  0
 22 23  2  0  0  0  0
 22 45  1  0  0  0  0
 23 46  1  0  0  0  0
 24 25  1  0  0  0  0
 25 48  1  0  0  0  0
 25 49  1  0  0  0  0
 26 28  1  0  0  0  0
 28 29  2  0  0  0  0
 28 30  1  0  0  0  0
 29 31  1  0  0  0  0
 29 50  1  0  0  0  0
 30 32  2  0  0  0  0
 30 51  1  0  0  0  0
 31 33  2  0  0  0  0
 31 52  1  0  0  0  0
 32 33  1  0  0  0  0
 32 53  1  0  0  0  0
 34 56  1  0  0  0  0
 34 57  1  0  0  0  0
 34 58  1  0  0  0  0
M  END
> <PUBCHEM_COMPOUND_CID>
1988521

> <PUBCHEM_CONFORMER_RMSD>
1

> <PUBCHEM_CONFORMER_DIVERSEORDER>
1
6
247
157
249
151
158
246
22
169
68
221
114
227
55
17
218
173
87
152
167
46
13
78
178
252
130
219
245
64
149
112
192
126
66
210
212
204
116
222
71
47
241
136
16
165
48
110
105
234
205
75
37
11
67
95
194
84
104
224
30
236
138
217
171
142
77
98
240
97
121
41
150
200
33
207
209
248
101
60
131
86
109
36
164
91
146
185
5
162
137
108
198
44
3
94
129
145
35
102
21
230
59
62
93
69
82
88
141
191
203
29
202
57
196
24
39
153
106
183
208
206
65
100
193
56
120
4
135
187
79
147
53
103
96
143
2
23
199
31
233
63
72
99
161
81
40
216
180
168
134
226
211
125
113
228
80
83
166
128
182
50
215
132
123
189
239
243
213
154
19
9
43
25
61
148
27
15
144
229
124
172
170
118
179
174
195
107
244
201
238
38
220
223
58
49
51
74
190
155
85
231
10
92
188
242
89
177
156
115
14
111
70
42
225
90
7
117
160
140
28
54
119
133
184
250
12
32
214
186
251
73
34
237
139
197
76
26
181
176
52
8
175
235
122
159
232
18
163
127
45
20

> <PUBCHEM_MMFF94_PARTIAL_CHARGES>
45
1 -0.29
10 -0.15
12 -0.15
14 0.26
15 -0.15
16 -0.15
17 -0.15
18 -0.15
19 0.12
2 -0.57
20 -0.15
22 -0.15
23 -0.15
24 0.57
25 0.29
26 0.13
27 0.24
28 0.05
29 -0.15
3 -0.36
30 -0.15
31 -0.15
32 -0.15
33 0.08
34 0.28
37 0.15
38 0.15
39 0.15
4 0.05
40 0.15
41 0.15
45 0.15
46 0.15
47 0.37
5 -0.55
50 0.15
51 0.15
52 0.15
53 0.15
54 0.36
55 0.36
6 0.45
7 -0.34
8 -0.34
9 -0.87

> <PUBCHEM_EFFECTIVE_ROTOR_COUNT>
8

> <PUBCHEM_PHARMACOPHORE_FEATURES>
12
1 2 acceptor
1 3 acceptor
1 4 cation
1 5 donor
1 9 donor
3 6 7 26 cation
3 6 8 27 cation
5 4 10 11 12 13 rings
5 6 7 8 26 27 rings
6 10 11 15 16 19 20 rings
6 12 13 17 18 22 23 rings
6 28 29 30 31 32 33 rings

> <PUBCHEM_HEAVY_ATOM_COUNT>
34

> <PUBCHEM_ATOM_DEF_STEREO_COUNT>
0

> <PUBCHEM_ATOM_UDEF_STEREO_COUNT>
0

> <PUBCHEM_BOND_DEF_STEREO_COUNT>
0

> <PUBCHEM_BOND_UDEF_STEREO_COUNT>
0

> <PUBCHEM_ISOTOPIC_ATOM_COUNT>
0

> <PUBCHEM_COMPONENT_COUNT>
1

> <PUBCHEM_CACTVS_TAUTO_COUNT>
2

> <PUBCHEM_CONFORMER_ID>
001E57A900000001

> <PUBCHEM_MMFF94_ENERGY>
90.283

> <PUBCHEM_FEATURE_SELFOVERLAP>
63.655

> <PUBCHEM_SHAPE_FINGERPRINT>
10 15 17060340721632317893
10625338 86 14548737271102390923
106641 1 18343866632533540117
11534866 41 17603300449859511426
11607047 141 14333132915505658470
11638347 137 18334294241136509082
11966995 178 18131356324174565852
12089408 11 16988556905609839845
12144603 126 17489591177591534193
12664476 115 12175623962525803906
13560911 43 17346882251749657705
13811026 1 18040157322521089419
14118638 360 14692585277562578623
14150022 121 17917435281444856001
15065858 18 18259981566293495495
15152005 1 12615520909012524560
15183329 4 13551195455197415662
15247644 1 16443066110749196155
15320294 125 14923940180747095586
15392192 104 17418094338620445494
15419008 91 17896020127060053884
15461852 350 9583508825229973909
15510794 2 18187081737036134839
1577012 14 17131825486696114140
15840311 113 18272655658486614900
1754911 235 9727634991141635001
19315958 150 17846504712246555463
19841028 212 18189617146463129594
20156587 128 12685077195826888487
2026 5 17749385902057880043
212700 22 17676490588462002331
21362267 20 18409730699554964867
21362267 313 17845661326634750307
22149856 69 18411139100254329788
232437 2 18409732850588605355
249057 3 14490481897634901847
3383291 50 17458068170865032867
3711267 37 15985108543315942472
3991529 128 16487259906110309001
42767 2 11097853000020346435
57359948 33 11743832596036691090
59521099 67 13118004418316461374
59682541 35 18408323306340093413
6126387 218 18412266121695905537
6523845 18 16298381397077280867
6691757 9 15626220248341328141
67123 10 18343865533074718241
9937071 3 18040722472331476123
9962374 69 17313390084391213479

> <PUBCHEM_SHAPE_MULTIPOLES>
661.93
40.95
2.42
1.22
60.7
0.77
-0.05
5.78
16.96
-6.84
0.57
0.45
0.01
1.42

> <PUBCHEM_SHAPE_SELFOVERLAP>
1447.888

> <PUBCHEM_SHAPE_VOLUME>
363.7

> <PUBCHEM_COORDINATE_TYPE>
2
5
10

$$$$
