1479848
  -OEChem-01171809473D

 28 28  0     0  0  0  0  0  0999 V2000
    3.2116   -2.2446   -0.4075 Cl  0  0  0  0  0  0  0  0  0  0  0  0
    4.7079    0.6715   -0.6272 Cl  0  0  0  0  0  0  0  0  0  0  0  0
   -1.4974    1.1921   -1.1720 O   0  0  0  0  0  0  0  0  0  0  0  0
    0.4439   -1.8673    0.4446 O   0  0  0  0  0  0  0  0  0  0  0  0
    0.3954    0.4416    0.6361 N   0  0  0  0  0  0  0  0  0  0  0  0
    1.0532    1.6442    0.5334 N   0  0  0  0  0  0  0  0  0  0  0  0
   -3.2362   -0.1575   -0.1533 C   0  0  0  0  0  0  0  0  0  0  0  0
   -1.8620    0.5429   -0.1882 C   0  0  0  0  0  0  0  0  0  0  0  0
   -4.0696    0.4281    0.9934 C   0  0  0  0  0  0  0  0  0  0  0  0
   -3.0411   -1.6639    0.0937 C   0  0  0  0  0  0  0  0  0  0  0  0
   -3.9635    0.0267   -1.4918 C   0  0  0  0  0  0  0  0  0  0  0  0
   -0.9791    0.4383    1.0438 C   0  0  0  0  0  0  0  0  0  0  0  0
    1.0204   -0.7825    0.3563 C   0  0  0  0  0  0  0  0  0  0  0  0
    2.4500   -0.7346   -0.0650 C   0  0  0  0  0  0  0  0  0  0  0  0
    2.2891    1.6282    0.1649 C   0  0  0  0  0  0  0  0  0  0  0  0
    3.0776    0.4368   -0.1610 C   0  0  0  0  0  0  0  0  0  0  0  0
   -5.0708   -0.0162    1.0218 H   0  0  0  0  0  0  0  0  0  0  0  0
   -3.6034    0.2552    1.9695 H   0  0  0  0  0  0  0  0  0  0  0  0
   -4.1858    1.5119    0.8770 H   0  0  0  0  0  0  0  0  0  0  0  0
   -2.6822   -1.8828    1.1040 H   0  0  0  0  0  0  0  0  0  0  0  0
   -2.3176   -2.0865   -0.6128 H   0  0  0  0  0  0  0  0  0  0  0  0
   -3.9853   -2.2070   -0.0298 H   0  0  0  0  0  0  0  0  0  0  0  0
   -4.9426   -0.4651   -1.4854 H   0  0  0  0  0  0  0  0  0  0  0  0
   -3.3825   -0.3929   -2.3212 H   0  0  0  0  0  0  0  0  0  0  0  0
   -4.1271    1.0884   -1.7100 H   0  0  0  0  0  0  0  0  0  0  0  0
   -1.1883   -0.4677    1.6135 H   0  0  0  0  0  0  0  0  0  0  0  0
   -1.1749    1.3014    1.6888 H   0  0  0  0  0  0  0  0  0  0  0  0
    2.8148    2.5939    0.0830 H   0  0  0  0  0  0  0  0  0  0  0  0
  1 14  1  0  0  0  0
  2 16  1  0  0  0  0
  3  8  2  0  0  0  0
  4 13  2  0  0  0  0
  5  6  1  0  0  0  0
  5 12  1  0  0  0  0
  5 13  1  0  0  0  0
  6 15  2  0  0  0  0
  7  8  1  0  0  0  0
  7  9  1  0  0  0  0
  7 10  1  0  0  0  0
  7 11  1  0  0  0  0
  8 12  1  0  0  0  0
  9 17  1  0  0  0  0
  9 18  1  0  0  0  0
  9 19  1  0  0  0  0
 10 20  1  0  0  0  0
 10 21  1  0  0  0  0
 10 22  1  0  0  0  0
 11 23  1  0  0  0  0
 11 24  1  0  0  0  0
 11 25  1  0  0  0  0
 12 26  1  0  0  0  0
 12 27  1  0  0  0  0
 13 14  1  0  0  0  0
 14 16  2  0  0  0  0
 15 16  1  0  0  0  0
 15 28  1  0  0  0  0
M  END
> <PUBCHEM_COMPOUND_CID>
1479848

> <PUBCHEM_CONFORMER_RMSD>
0.6

> <PUBCHEM_CONFORMER_DIVERSEORDER>
1
13
21
16
22
15
12
20
5
3
14
17
9
19
18
10
11
7
4
8
2
6

> <PUBCHEM_MMFF94_PARTIAL_CHARGES>
14
1 -0.14
12 0.36
13 0.62
14 0.15
15 0.38
16 0.15
2 -0.14
28 0.06
3 -0.57
4 -0.57
5 -0.3
6 -0.51
7 0.06
8 0.45

> <PUBCHEM_EFFECTIVE_ROTOR_COUNT>
3

> <PUBCHEM_PHARMACOPHORE_FEATURES>
5
1 3 acceptor
1 4 acceptor
1 6 acceptor
4 7 9 10 11 hydrophobe
6 5 6 13 14 15 16 rings

> <PUBCHEM_HEAVY_ATOM_COUNT>
16

> <PUBCHEM_ATOM_DEF_STEREO_COUNT>
0

> <PUBCHEM_ATOM_UDEF_STEREO_COUNT>
0

> <PUBCHEM_BOND_DEF_STEREO_COUNT>
0

> <PUBCHEM_BOND_UDEF_STEREO_COUNT>
0

> <PUBCHEM_ISOTOPIC_ATOM_COUNT>
0

> <PUBCHEM_COMPONENT_COUNT>
1

> <PUBCHEM_CACTVS_TAUTO_COUNT>
2

> <PUBCHEM_CONFORMER_ID>
001694A800000001

> <PUBCHEM_MMFF94_ENERGY>
40.4346

> <PUBCHEM_FEATURE_SELFOVERLAP>
25.373

> <PUBCHEM_SHAPE_FINGERPRINT>
11471102 20 18411697668881549312
12236239 1 17632584842063040897
12932764 1 17822003195011368507
13705890 14 18341328916588769334
14576447 43 18130780200480106078
14911166 2 18339933692447446796
15775835 57 18408608071272386854
16945 1 18411975875398775361
18186145 218 18412262873698342233
19422 9 17989486320897471927
200 152 17988927785932982704
20281475 54 18343299267021643307
20645477 70 18411132494246273911
20871999 31 17968366949218095967
221490 88 18409738386648735626
23402539 116 17167855396285524532
23402655 69 18410855438711627061
23557571 272 17530966912572669773
23559900 14 18341334491989271000
23598291 2 18129665175372226415
25 1 18408042913758536018
2748010 2 17907308993926446496
2838139 119 16661783252942906764
3323516 105 18411141359026883786
58051976 378 18410009948972302292
77492 1 17632864118011169289

> <PUBCHEM_SHAPE_MULTIPOLES>
311.31
8.29
1.87
1.05
0.48
0.76
-0.19
0.22
-1.82
-1.32
0.04
0.85
-0.14
0.05

> <PUBCHEM_SHAPE_SELFOVERLAP>
617.797

> <PUBCHEM_SHAPE_VOLUME>
187.3

> <PUBCHEM_COORDINATE_TYPE>
2
5
10

$$$$
