2971874
  -OEChem-01171810063D

 58 61  0     0  0  0  0  0  0999 V2000
   -0.3341    1.0596   -3.5986 S   0  0  0  0  0  0  0  0  0  0  0  0
   -6.3423    0.5308    0.8280 O   0  0  0  0  0  0  0  0  0  0  0  0
    2.4082   -0.8836   -3.2681 O   0  0  0  0  0  0  0  0  0  0  0  0
   -0.7880   -2.1083    2.1140 O   0  0  0  0  0  0  0  0  0  0  0  0
   -1.2216   -2.5364   -0.1058 O   0  0  0  0  0  0  0  0  0  0  0  0
   -3.6211    0.7420    0.1573 N   0  0  0  0  0  0  0  0  0  0  0  0
   -1.4095    1.2210    0.7288 N   0  0  0  0  0  0  0  0  0  0  0  0
   -2.0503    0.8997   -1.5611 N   0  0  0  0  0  0  0  0  0  0  0  0
    0.2332    1.3914   -1.0120 N   0  0  0  0  0  0  0  0  0  0  0  0
    0.8301    1.7013    1.2343 N   0  0  0  0  0  0  0  0  0  0  0  0
    0.8126   -1.4649   -1.6447 N   0  0  0  0  0  0  0  0  0  0  0  0
   -4.1401    1.3971    1.3630 C   0  0  0  0  0  0  0  0  0  0  0  0
   -4.6219    0.4582   -0.8804 C   0  0  0  0  0  0  0  0  0  0  0  0
   -5.3702    0.6500    1.8661 C   0  0  0  0  0  0  0  0  0  0  0  0
   -5.8258   -0.2392   -0.2575 C   0  0  0  0  0  0  0  0  0  0  0  0
   -2.2996    0.9643   -0.2432 C   0  0  0  0  0  0  0  0  0  0  0  0
   -0.1639    1.4243    0.2703 C   0  0  0  0  0  0  0  0  0  0  0  0
   -0.7632    1.1238   -1.8714 C   0  0  0  0  0  0  0  0  0  0  0  0
    2.2093    1.9615    1.1323 C   0  0  0  0  0  0  0  0  0  0  0  0
    0.0936   -0.6920   -3.8091 C   0  0  0  0  0  0  0  0  0  0  0  0
    1.6087   -1.8612   -0.5433 C   0  0  0  0  0  0  0  0  0  0  0  0
    1.2484   -1.0266   -2.8895 C   0  0  0  0  0  0  0  0  0  0  0  0
    1.0243   -2.2794    0.6522 C   0  0  0  0  0  0  0  0  0  0  0  0
    3.0660    1.6017    2.1728 C   0  0  0  0  0  0  0  0  0  0  0  0
    2.7198    2.5796   -0.0093 C   0  0  0  0  0  0  0  0  0  0  0  0
    2.9979   -1.8276   -0.6662 C   0  0  0  0  0  0  0  0  0  0  0  0
    1.8291   -2.6641    1.7247 C   0  0  0  0  0  0  0  0  0  0  0  0
    3.8025   -2.2124    0.4063 C   0  0  0  0  0  0  0  0  0  0  0  0
    4.4330    1.8602    2.0717 C   0  0  0  0  0  0  0  0  0  0  0  0
    4.0868    2.8380   -0.1103 C   0  0  0  0  0  0  0  0  0  0  0  0
    3.2181   -2.6305    1.6017 C   0  0  0  0  0  0  0  0  0  0  0  0
    4.9434    2.4782    0.9303 C   0  0  0  0  0  0  0  0  0  0  0  0
   -0.4235   -2.3258    0.8146 C   0  0  0  0  0  0  0  0  0  0  0  0
   -2.1901   -2.1307    2.4021 C   0  0  0  0  0  0  0  0  0  0  0  0
   -4.4054    2.4318    1.1141 H   0  0  0  0  0  0  0  0  0  0  0  0
   -3.4000    1.4196    2.1705 H   0  0  0  0  0  0  0  0  0  0  0  0
   -4.9332    1.4033   -1.3420 H   0  0  0  0  0  0  0  0  0  0  0  0
   -4.2267   -0.1989   -1.6640 H   0  0  0  0  0  0  0  0  0  0  0  0
   -5.8282    1.2005    2.6940 H   0  0  0  0  0  0  0  0  0  0  0  0
   -5.1084   -0.3486    2.2365 H   0  0  0  0  0  0  0  0  0  0  0  0
   -5.5655   -1.2430    0.0999 H   0  0  0  0  0  0  0  0  0  0  0  0
   -6.6212   -0.3479   -1.0016 H   0  0  0  0  0  0  0  0  0  0  0  0
    0.4945    1.5754    2.1846 H   0  0  0  0  0  0  0  0  0  0  0  0
   -0.7767   -1.3225   -3.6013 H   0  0  0  0  0  0  0  0  0  0  0  0
    0.3989   -0.8717   -4.8444 H   0  0  0  0  0  0  0  0  0  0  0  0
   -0.1920   -1.5201   -1.5013 H   0  0  0  0  0  0  0  0  0  0  0  0
    2.6811    1.1171    3.0664 H   0  0  0  0  0  0  0  0  0  0  0  0
    2.0862    2.9152   -0.8235 H   0  0  0  0  0  0  0  0  0  0  0  0
    3.5311   -1.5176   -1.5526 H   0  0  0  0  0  0  0  0  0  0  0  0
    1.4072   -3.0084    2.6653 H   0  0  0  0  0  0  0  0  0  0  0  0
    4.8844   -2.1861    0.3123 H   0  0  0  0  0  0  0  0  0  0  0  0
    3.8450   -2.9321    2.4357 H   0  0  0  0  0  0  0  0  0  0  0  0
    5.1001    1.5793    2.8815 H   0  0  0  0  0  0  0  0  0  0  0  0
    4.4836    3.3278   -0.9948 H   0  0  0  0  0  0  0  0  0  0  0  0
    6.0075    2.6810    0.8524 H   0  0  0  0  0  0  0  0  0  0  0  0
   -2.7654   -1.6042    1.6366 H   0  0  0  0  0  0  0  0  0  0  0  0
   -2.5264   -3.1679    2.4842 H   0  0  0  0  0  0  0  0  0  0  0  0
   -2.3481   -1.6298    3.3609 H   0  0  0  0  0  0  0  0  0  0  0  0
  1 18  1  0  0  0  0
  1 20  1  0  0  0  0
  2 14  1  0  0  0  0
  2 15  1  0  0  0  0
  3 22  2  0  0  0  0
  4 33  1  0  0  0  0
  4 34  1  0  0  0  0
  5 33  2  0  0  0  0
  6 12  1  0  0  0  0
  6 13  1  0  0  0  0
  6 16  1  0  0  0  0
  7 16  1  0  0  0  0
  7 17  2  0  0  0  0
  8 16  2  0  0  0  0
  8 18  1  0  0  0  0
  9 17  1  0  0  0  0
  9 18  2  0  0  0  0
 10 17  1  0  0  0  0
 10 19  1  0  0  0  0
 10 43  1  0  0  0  0
 11 21  1  0  0  0  0
 11 22  1  0  0  0  0
 11 46  1  0  0  0  0
 12 14  1  0  0  0  0
 12 35  1  0  0  0  0
 12 36  1  0  0  0  0
 13 15  1  0  0  0  0
 13 37  1  0  0  0  0
 13 38  1  0  0  0  0
 14 39  1  0  0  0  0
 14 40  1  0  0  0  0
 15 41  1  0  0  0  0
 15 42  1  0  0  0  0
 19 24  2  0  0  0  0
 19 25  1  0  0  0  0
 20 22  1  0  0  0  0
 20 44  1  0  0  0  0
 20 45  1  0  0  0  0
 21 23  1  0  0  0  0
 21 26  2  0  0  0  0
 23 27  2  0  0  0  0
 23 33  1  0  0  0  0
 24 29  1  0  0  0  0
 24 47  1  0  0  0  0
 25 30  2  0  0  0  0
 25 48  1  0  0  0  0
 26 28  1  0  0  0  0
 26 49  1  0  0  0  0
 27 31  1  0  0  0  0
 27 50  1  0  0  0  0
 28 31  2  0  0  0  0
 28 51  1  0  0  0  0
 29 32  2  0  0  0  0
 29 53  1  0  0  0  0
 30 32  1  0  0  0  0
 30 54  1  0  0  0  0
 31 52  1  0  0  0  0
 32 55  1  0  0  0  0
 34 56  1  0  0  0  0
 34 57  1  0  0  0  0
 34 58  1  0  0  0  0
M  END
> <PUBCHEM_COMPOUND_CID>
2971874

> <PUBCHEM_CONFORMER_RMSD>
1.2

> <PUBCHEM_CONFORMER_DIVERSEORDER>
1
73
47
16
15
90
59
62
13
24
88
35
53
69
57
17
80
83
22
56
5
81
75
54
82
55
58
51
66
72
67
2
36
6
64
49
9
91
4
61
21
40
85
19
31
89
50
52
7
41
33
28
74
63
20
23
71
14
43
12
68
86
60
18
76
34
32
10
26
42
30
44
11
25
84
79
65
27
78
70
8
29
38
48
46
87
3
39
77
45
37

> <PUBCHEM_MMFF94_PARTIAL_CHARGES>
45
1 -0.33
10 -0.6
11 -0.55
12 0.37
13 0.37
14 0.28
15 0.28
16 0.72
17 0.72
18 0.72
19 0.1
2 -0.56
20 0.29
21 0.12
22 0.57
23 0.09
24 -0.15
25 -0.15
26 -0.15
27 -0.15
28 -0.15
29 -0.15
3 -0.57
30 -0.15
31 -0.15
32 -0.15
33 0.63
34 0.28
4 -0.43
43 0.4
46 0.37
47 0.15
48 0.15
49 0.15
5 -0.57
50 0.15
51 0.15
52 0.15
53 0.15
54 0.15
55 0.15
6 -0.84
7 -0.62
8 -0.62
9 -0.62

> <PUBCHEM_EFFECTIVE_ROTOR_COUNT>
11.2

> <PUBCHEM_PHARMACOPHORE_FEATURES>
11
1 10 donor
1 11 donor
1 2 acceptor
1 3 acceptor
1 5 acceptor
4 6 7 8 16 cation
4 7 9 10 17 cation
6 19 24 25 29 30 32 rings
6 2 6 12 13 14 15 rings
6 21 23 26 27 28 31 rings
6 7 8 9 16 17 18 rings

> <PUBCHEM_HEAVY_ATOM_COUNT>
34

> <PUBCHEM_ATOM_DEF_STEREO_COUNT>
0

> <PUBCHEM_ATOM_UDEF_STEREO_COUNT>
0

> <PUBCHEM_BOND_DEF_STEREO_COUNT>
0

> <PUBCHEM_BOND_UDEF_STEREO_COUNT>
0

> <PUBCHEM_ISOTOPIC_ATOM_COUNT>
0

> <PUBCHEM_COMPONENT_COUNT>
1

> <PUBCHEM_CACTVS_TAUTO_COUNT>
12

> <PUBCHEM_CONFORMER_ID>
002D58E200000001

> <PUBCHEM_MMFF94_ENERGY>
113.1359

> <PUBCHEM_FEATURE_SELFOVERLAP>
55.866

> <PUBCHEM_SHAPE_FINGERPRINT>
11578080 2 18194148379851130906
12156800 1 17681015164107720054
12422481 6 17604416505057713280
12597179 24 18200037368371692852
133893 2 17835192902196635252
14955137 171 17488743342583683772
16114785 44 17478316999945322736
20691752 17 17821717351963584731
21033648 29 17677041353059798093
22223350 30 18041295325952566003
23419403 2 17840347511518004516
23559900 14 16878230736653579531
3052486 1 17606135097598221715
3411729 13 18273217503784413561
35225 105 17974828860458259516
392239 28 18335689512364424834
4093350 32 17703524224739415739
4340502 62 18411418448858010913
563151 248 17631429281707969376
6287921 2 16844999096825209838
6669772 16 18259978288722064754

> <PUBCHEM_SHAPE_MULTIPOLES>
650.19
9.68
3.68
3.44
11.4
1.81
-3.57
-4.02
6.39
-4.13
1.46
-0.78
-0.48
1.59

> <PUBCHEM_SHAPE_SELFOVERLAP>
1380.124

> <PUBCHEM_SHAPE_VOLUME>
362.7

> <PUBCHEM_COORDINATE_TYPE>
2
5
10

$$$$
