12004519
  -OEChem-01171809313D

 43 46  0     0  0  0  0  0  0999 V2000
    2.1526   -0.8423    2.2943 S   0  0  0  0  0  0  0  0  0  0  0  0
    1.0520   -4.1926   -0.5944 O   0  0  0  0  0  0  0  0  0  0  0  0
   -4.2713    2.3773   -0.0032 O   0  0  0  0  0  0  0  0  0  0  0  0
   -2.7335   -3.2968   -1.7716 O   0  5  0  0  0  0  0  0  0  0  0  0
   -3.8020   -1.5254   -1.0372 O   0  0  0  0  0  0  0  0  0  0  0  0
   -6.3138    3.2831    0.5837 O   0  0  0  0  0  0  0  0  0  0  0  0
   -2.7060    0.1018    0.6288 N   0  0  0  0  0  0  0  0  0  0  0  0
    4.2181    0.6713    1.4744 N   0  0  0  0  0  0  0  0  0  0  0  0
   -2.7809   -2.2582   -1.0648 N   0  3  0  0  0  0  0  0  0  0  0  0
    2.6263    0.4517   -0.0614 N   0  0  0  0  0  0  0  0  0  0  0  0
   -0.2343   -3.8266   -0.9527 N   0  0  0  0  0  0  0  0  0  0  0  0
    1.6111   -3.2992    0.3030 N   0  0  0  0  0  0  0  0  0  0  0  0
   -1.5874   -0.7730    0.5509 C   0  0  0  0  0  0  0  0  0  0  0  0
   -1.6571   -1.9055   -0.2806 C   0  0  0  0  0  0  0  0  0  0  0  0
    0.6964   -1.2322    1.3214 C   0  0  0  0  0  0  0  0  0  0  0  0
   -0.4943   -2.6976   -0.2817 C   0  0  0  0  0  0  0  0  0  0  0  0
    0.6787   -2.3623    0.5166 C   0  0  0  0  0  0  0  0  0  0  0  0
   -0.4451   -0.4465    1.3283 C   0  0  0  0  0  0  0  0  0  0  0  0
   -2.7099    1.2677    1.4460 C   0  0  0  0  0  0  0  0  0  0  0  0
    4.6540    1.3891    0.3901 C   0  0  0  0  0  0  0  0  0  0  0  0
    3.0034    0.1309    1.1561 C   0  0  0  0  0  0  0  0  0  0  0  0
   -4.0526    1.9709    1.3418 C   0  0  0  0  0  0  0  0  0  0  0  0
    3.6432    1.2363   -0.5550 C   0  0  0  0  0  0  0  0  0  0  0  0
    5.8103    2.1359    0.1620 C   0  0  0  0  0  0  0  0  0  0  0  0
    3.7773    1.8587   -1.8076 C   0  0  0  0  0  0  0  0  0  0  0  0
    5.9270    2.7486   -1.0901 C   0  0  0  0  0  0  0  0  0  0  0  0
    4.9299    2.6135   -2.0587 C   0  0  0  0  0  0  0  0  0  0  0  0
   -5.4498    3.0274   -0.2441 C   0  0  0  0  0  0  0  0  0  0  0  0
   -5.5425    3.3939   -1.6943 C   0  0  0  0  0  0  0  0  0  0  0  0
   -0.4315    0.4407    1.9570 H   0  0  0  0  0  0  0  0  0  0  0  0
   -3.5198   -0.1052    0.0645 H   0  0  0  0  0  0  0  0  0  0  0  0
   -2.5413    1.0135    2.4987 H   0  0  0  0  0  0  0  0  0  0  0  0
   -1.9294    1.9629    1.1140 H   0  0  0  0  0  0  0  0  0  0  0  0
   -4.0534    2.8528    1.9929 H   0  0  0  0  0  0  0  0  0  0  0  0
   -4.8593    1.2963    1.6543 H   0  0  0  0  0  0  0  0  0  0  0  0
    4.7068    0.5611    2.3527 H   0  0  0  0  0  0  0  0  0  0  0  0
    6.5829    2.2391    0.9154 H   0  0  0  0  0  0  0  0  0  0  0  0
    3.0081    1.7599   -2.5668 H   0  0  0  0  0  0  0  0  0  0  0  0
    6.8112    3.3408   -1.3127 H   0  0  0  0  0  0  0  0  0  0  0  0
    5.0492    3.1015   -3.0227 H   0  0  0  0  0  0  0  0  0  0  0  0
   -5.5118    2.4896   -2.3073 H   0  0  0  0  0  0  0  0  0  0  0  0
   -4.7233    4.0670   -1.9593 H   0  0  0  0  0  0  0  0  0  0  0  0
   -6.4901    3.9079   -1.8789 H   0  0  0  0  0  0  0  0  0  0  0  0
  1 15  1  0  0  0  0
  1 21  1  0  0  0  0
  2 11  1  0  0  0  0
  2 12  1  0  0  0  0
  3 22  1  0  0  0  0
  3 28  1  0  0  0  0
  4  9  1  0  0  0  0
  5  9  2  0  0  0  0
  6 28  2  0  0  0  0
  7 13  1  0  0  0  0
  7 19  1  0  0  0  0
  7 31  1  0  0  0  0
  8 20  1  0  0  0  0
  8 21  1  0  0  0  0
  8 36  1  0  0  0  0
  9 14  1  0  0  0  0
 10 21  2  0  0  0  0
 10 23  1  0  0  0  0
 11 16  2  0  0  0  0
 12 17  2  0  0  0  0
 13 14  2  0  0  0  0
 13 18  1  0  0  0  0
 14 16  1  0  0  0  0
 15 17  1  0  0  0  0
 15 18  2  0  0  0  0
 16 17  1  0  0  0  0
 18 30  1  0  0  0  0
 19 22  1  0  0  0  0
 19 32  1  0  0  0  0
 19 33  1  0  0  0  0
 20 23  1  0  0  0  0
 20 24  2  0  0  0  0
 22 34  1  0  0  0  0
 22 35  1  0  0  0  0
 23 25  2  0  0  0  0
 24 26  1  0  0  0  0
 24 37  1  0  0  0  0
 25 27  1  0  0  0  0
 25 38  1  0  0  0  0
 26 27  2  0  0  0  0
 26 39  1  0  0  0  0
 27 40  1  0  0  0  0
 28 29  1  0  0  0  0
 29 41  1  0  0  0  0
 29 42  1  0  0  0  0
 29 43  1  0  0  0  0
M  CHG  2   4  -1   9   1
M  END
> <PUBCHEM_COMPOUND_CID>
12004519

> <PUBCHEM_CONFORMER_RMSD>
1

> <PUBCHEM_CONFORMER_DIVERSEORDER>
1
10
59
46
43
48
22
23
55
12
35
5
21
18
24
7
62
38
20
50
25
51
28
6
49
54
61
13
19
39
8
30
11
53
34
40
57
42
33
15
2
45
44
36
27
29
14
58
47
56
16
3
9
41
4
60
17
37
52
31
32
26

> <PUBCHEM_MMFF94_PARTIAL_CHARGES>
36
1 -0.16
10 -0.57
11 -0.41
12 -0.41
13 0.1
14 0.13
15 0.1
16 0.29
17 0.29
18 -0.15
19 0.37
2 0.24
20 -0.15
21 0.24
22 0.28
23 0.23
24 -0.15
25 -0.15
26 -0.15
27 -0.15
28 0.66
29 0.06
3 -0.43
30 0.15
31 0.4
36 0.27
37 0.15
38 0.15
39 0.15
4 -0.52
40 0.15
5 -0.52
6 -0.57
7 -0.87
8 0.03
9 0.91

> <PUBCHEM_EFFECTIVE_ROTOR_COUNT>
8

> <PUBCHEM_PHARMACOPHORE_FEATURES>
14
1 11 acceptor
1 12 acceptor
1 4 acceptor
1 4 anion
1 5 acceptor
1 6 acceptor
1 7 cation
1 7 donor
1 8 donor
3 8 10 21 cation
5 2 11 12 16 17 rings
5 8 10 20 21 23 rings
6 13 14 15 16 17 18 rings
6 20 23 24 25 26 27 rings

> <PUBCHEM_HEAVY_ATOM_COUNT>
29

> <PUBCHEM_ATOM_DEF_STEREO_COUNT>
0

> <PUBCHEM_ATOM_UDEF_STEREO_COUNT>
0

> <PUBCHEM_BOND_DEF_STEREO_COUNT>
0

> <PUBCHEM_BOND_UDEF_STEREO_COUNT>
0

> <PUBCHEM_ISOTOPIC_ATOM_COUNT>
0

> <PUBCHEM_COMPONENT_COUNT>
1

> <PUBCHEM_CACTVS_TAUTO_COUNT>
2

> <PUBCHEM_CONFORMER_ID>
00B72CA700000001

> <PUBCHEM_MMFF94_ENERGY>
83.0661

> <PUBCHEM_FEATURE_SELFOVERLAP>
71.417

> <PUBCHEM_SHAPE_FINGERPRINT>
10871710 139 18337110184804095757
10928967 22 12172302342616019804
10937287 8 18411706469253792578
11049842 53 18200869583443818466
12422481 6 17604145930639752892
12633257 1 14563105774394727216
12788726 201 18196086874675445011
13383661 66 14330274369376630261
14251764 75 18408044000443972693
14294032 229 18342185509451388691
15064981 113 18200321047658521268
15163728 17 18410014333759534207
15475509 35 10734717316089928357
15575132 122 18409731798537707417
16988056 13 17616249182987033140
16992828 155 18114176471095003701
21033648 29 14635139114736029593
21033650 10 17985849218438107600
21756936 100 17969796352793608568
22122407 14 16734080432339549532
312425 83 18052003556153556012
3388396 114 16967745637182820052
6034566 193 18335421270767476357

> <PUBCHEM_SHAPE_MULTIPOLES>
541.42
13.4
5.49
1.9
1.33
1.92
0.01
-21.87
-3.07
4.48
-2.84
-0.41
-0.14
-2.63

> <PUBCHEM_SHAPE_SELFOVERLAP>
1172.163

> <PUBCHEM_SHAPE_VOLUME>
297.8

> <PUBCHEM_COORDINATE_TYPE>
2
5
10

$$$$
