2097287
  -OEChem-01171809483D

 43 45  0     0  0  0  0  0  0999 V2000
    1.9751    4.0601   -0.4648 Cl  0  0  0  0  0  0  0  0  0  0  0  0
    2.4295   -1.9320    1.1856 O   0  0  0  0  0  0  0  0  0  0  0  0
    0.1483   -1.7325   -0.2347 O   0  0  0  0  0  0  0  0  0  0  0  0
   -1.0691   -1.5359   -2.1786 O   0  0  0  0  0  0  0  0  0  0  0  0
   -3.7651    0.9047   -1.7037 O   0  0  0  0  0  0  0  0  0  0  0  0
    1.6630    1.6241    2.1036 O   0  5  0  0  0  0  0  0  0  0  0  0
    0.4017    3.3401    2.6356 O   0  0  0  0  0  0  0  0  0  0  0  0
    3.7458   -1.7923   -0.7238 N   0  0  0  0  0  0  0  0  0  0  0  0
    0.7555    2.4449    1.8335 N   0  3  0  0  0  0  0  0  0  0  0  0
    5.0174   -1.8848   -0.0651 C   0  0  0  0  0  0  0  0  0  0  0  0
    6.2603   -1.3307   -0.6976 C   0  0  0  0  0  0  0  0  0  0  0  0
    5.6798   -0.6717    0.5192 C   0  0  0  0  0  0  0  0  0  0  0  0
    2.5443   -1.8243   -0.0325 C   0  0  0  0  0  0  0  0  0  0  0  0
    1.3570   -1.7111   -0.9639 C   0  0  0  0  0  0  0  0  0  0  0  0
   -2.1982   -1.6694   -0.0828 C   0  0  0  0  0  0  0  0  0  0  0  0
   -1.0031   -1.6369   -0.9634 C   0  0  0  0  0  0  0  0  0  0  0  0
   -3.1011   -0.6069   -0.0470 C   0  0  0  0  0  0  0  0  0  0  0  0
   -2.9077    0.5790   -0.8713 C   0  0  0  0  0  0  0  0  0  0  0  0
   -1.6948    1.4414   -0.7567 C   0  0  0  0  0  0  0  0  0  0  0  0
   -2.4094   -2.7914    0.7186 C   0  0  0  0  0  0  0  0  0  0  0  0
   -4.2150   -0.6662    0.7904 C   0  0  0  0  0  0  0  0  0  0  0  0
   -1.0310    1.5534    0.4649 C   0  0  0  0  0  0  0  0  0  0  0  0
   -3.5234   -2.8508    1.5560 C   0  0  0  0  0  0  0  0  0  0  0  0
   -4.4262   -1.7882    1.5919 C   0  0  0  0  0  0  0  0  0  0  0  0
   -1.2237    2.1334   -1.8725 C   0  0  0  0  0  0  0  0  0  0  0  0
    0.1039    2.3573    0.5708 C   0  0  0  0  0  0  0  0  0  0  0  0
   -0.0888    2.9373   -1.7667 C   0  0  0  0  0  0  0  0  0  0  0  0
    0.5751    3.0493   -0.5449 C   0  0  0  0  0  0  0  0  0  0  0  0
    5.1329   -2.8182    0.4772 H   0  0  0  0  0  0  0  0  0  0  0  0
    6.1720   -0.8083   -1.6423 H   0  0  0  0  0  0  0  0  0  0  0  0
    7.1802   -1.8897   -0.5782 H   0  0  0  0  0  0  0  0  0  0  0  0
    6.2077   -0.7882    1.4576 H   0  0  0  0  0  0  0  0  0  0  0  0
    5.2010    0.2912    0.3898 H   0  0  0  0  0  0  0  0  0  0  0  0
    3.7427   -1.7074   -1.7368 H   0  0  0  0  0  0  0  0  0  0  0  0
    1.3846   -2.5543   -1.6638 H   0  0  0  0  0  0  0  0  0  0  0  0
    1.4400   -0.7677   -1.5165 H   0  0  0  0  0  0  0  0  0  0  0  0
   -1.7161   -3.6284    0.6986 H   0  0  0  0  0  0  0  0  0  0  0  0
   -4.9256    0.1556    0.8305 H   0  0  0  0  0  0  0  0  0  0  0  0
   -1.3956    1.0275    1.3445 H   0  0  0  0  0  0  0  0  0  0  0  0
   -3.6882   -3.7247    2.1795 H   0  0  0  0  0  0  0  0  0  0  0  0
   -5.2933   -1.8342    2.2443 H   0  0  0  0  0  0  0  0  0  0  0  0
   -1.7235    2.0536   -2.8341 H   0  0  0  0  0  0  0  0  0  0  0  0
    0.2660    3.4687   -2.6462 H   0  0  0  0  0  0  0  0  0  0  0  0
  1 28  1  0  0  0  0
  2 13  2  0  0  0  0
  3 14  1  0  0  0  0
  3 16  1  0  0  0  0
  4 16  2  0  0  0  0
  5 18  2  0  0  0  0
  6  9  1  0  0  0  0
  7  9  2  0  0  0  0
  8 10  1  0  0  0  0
  8 13  1  0  0  0  0
  8 34  1  0  0  0  0
  9 26  1  0  0  0  0
 10 11  1  0  0  0  0
 10 12  1  0  0  0  0
 10 29  1  0  0  0  0
 11 12  1  0  0  0  0
 11 30  1  0  0  0  0
 11 31  1  0  0  0  0
 12 32  1  0  0  0  0
 12 33  1  0  0  0  0
 13 14  1  0  0  0  0
 14 35  1  0  0  0  0
 14 36  1  0  0  0  0
 15 16  1  0  0  0  0
 15 17  1  0  0  0  0
 15 20  2  0  0  0  0
 17 18  1  0  0  0  0
 17 21  2  0  0  0  0
 18 19  1  0  0  0  0
 19 22  2  0  0  0  0
 19 25  1  0  0  0  0
 20 23  1  0  0  0  0
 20 37  1  0  0  0  0
 21 24  1  0  0  0  0
 21 38  1  0  0  0  0
 22 26  1  0  0  0  0
 22 39  1  0  0  0  0
 23 24  2  0  0  0  0
 23 40  1  0  0  0  0
 24 41  1  0  0  0  0
 25 27  2  0  0  0  0
 25 42  1  0  0  0  0
 26 28  2  0  0  0  0
 27 28  1  0  0  0  0
 27 43  1  0  0  0  0
M  CHG  2   6  -1   9   1
M  END
> <PUBCHEM_COMPOUND_CID>
2097287

> <PUBCHEM_CONFORMER_RMSD>
1

> <PUBCHEM_CONFORMER_DIVERSEORDER>
1
15
175
188
140
130
126
55
33
99
108
206
189
139
13
137
155
109
217
174
19
172
31
45
182
120
145
133
117
110
129
94
89
71
79
141
178
21
219
90
54
207
87
171
119
163
50
14
125
30
177
35
23
42
20
167
41
105
154
26
159
116
3
76
122
37
191
114
115
59
121
152
81
215
169
148
124
34
52
38
84
205
136
127
51
144
2
62
197
8
4
185
86
216
93
16
142
103
27
220
194
157
29
147
49
104
85
210
186
73
200
43
9
221
97
100
24
173
77
69
203
181
101
195
170
91
58
138
74
180
44
112
6
211
153
17
214
158
212
143
128
183
213
7
209
65
135
10
208
179
98
78
162
193
184
146
149
190
88
68
161
46
53
199
92
32
134
64
123
39
150
131
164
198
151
165
192
102
218
28
40
82
107
70
25
75
118
187
57
95
176
106
48
168
156
22
18
111
201
56
113
60
63
132
47
202
83
72
61
204
96
166
67
36
5
160
196
80
12
66
11

> <PUBCHEM_MMFF94_PARTIAL_CHARGES>
41
1 -0.18
10 0.05
11 -0.2
12 -0.2
13 0.57
14 0.34
15 0.09
16 0.63
17 0.09
18 0.4
19 0.09
2 -0.57
20 -0.15
21 -0.15
22 -0.15
23 -0.15
24 -0.15
25 -0.15
26 0.13
27 -0.15
28 0.18
29 0.1
3 -0.43
30 0.1
31 0.1
32 0.1
33 0.1
34 0.37
37 0.15
38 0.15
39 0.15
4 -0.57
40 0.15
41 0.15
42 0.15
43 0.15
5 -0.57
6 -0.52
7 -0.52
8 -0.58
9 0.91

> <PUBCHEM_EFFECTIVE_ROTOR_COUNT>
9.6

> <PUBCHEM_PHARMACOPHORE_FEATURES>
9
1 2 acceptor
1 4 acceptor
1 5 acceptor
1 6 acceptor
1 6 anion
1 7 acceptor
1 8 donor
6 15 17 20 21 23 24 rings
6 19 22 25 26 27 28 rings

> <PUBCHEM_HEAVY_ATOM_COUNT>
28

> <PUBCHEM_ATOM_DEF_STEREO_COUNT>
0

> <PUBCHEM_ATOM_UDEF_STEREO_COUNT>
0

> <PUBCHEM_BOND_DEF_STEREO_COUNT>
0

> <PUBCHEM_BOND_UDEF_STEREO_COUNT>
0

> <PUBCHEM_ISOTOPIC_ATOM_COUNT>
0

> <PUBCHEM_COMPONENT_COUNT>
1

> <PUBCHEM_CACTVS_TAUTO_COUNT>
2

> <PUBCHEM_CONFORMER_ID>
0020008700000001

> <PUBCHEM_MMFF94_ENERGY>
86.0627

> <PUBCHEM_FEATURE_SELFOVERLAP>
45.755

> <PUBCHEM_SHAPE_FINGERPRINT>
10290309 65 18191027802743959503
10670039 82 18265070042046798830
10675989 125 16748168182816726341
11578080 2 17386560405692854375
12035758 1 18189915136437594257
12156800 1 16411026272536845784
12422481 6 18339085989776825304
12596602 18 17458346321748520046
12788726 201 18053652582216850746
133893 2 18052521459735596319
14142880 1 17984427334696241545
14363568 33 18267589198593759912
14787075 74 17551222979163645901
14955137 171 18129957774483558466
15064986 96 17899977433027918699
20510252 161 18192714432126782287
20600515 1 18268454380969029519
20771845 171 17246118797708504343
20771845 35 18124027103479871763
22956985 138 17756717694831874954
23419403 2 18411693301638287717
23558518 356 17118881752225072314
23559900 14 17823136899174903583
469060 322 18116453482814043226
6287921 2 17977946022561171539

> <PUBCHEM_SHAPE_MULTIPOLES>
532.92
9.2
4.93
1.94
11.77
3.71
0.55
-9.4
0.94
1.22
0.6
-0.6
1.13
1.94

> <PUBCHEM_SHAPE_SELFOVERLAP>
1136.026

> <PUBCHEM_SHAPE_VOLUME>
296.3

> <PUBCHEM_COORDINATE_TYPE>
2
5
10

$$$$
