1092907
  -OEChem-01171809213D

 47 49  0     1  0  0  0  0  0999 V2000
    1.7715    2.6811    0.0324 S   0  0  0  0  0  0  0  0  0  0  0  0
    1.9366    3.5365   -1.1235 O   0  0  0  0  0  0  0  0  0  0  0  0
    2.0623    3.1650    1.3651 O   0  0  0  0  0  0  0  0  0  0  0  0
   -3.7704    0.6623   -0.0170 O   0  0  0  0  0  0  0  0  0  0  0  0
   -5.4376   -2.3396   -1.0139 O   0  0  0  0  0  0  0  0  0  0  0  0
   -5.7613   -0.9515    0.8017 O   0  0  0  0  0  0  0  0  0  0  0  0
    2.6239    1.2191   -0.2273 N   0  0  2  0  0  0  0  0  0  0  0  0
    2.5585    0.6655   -1.6075 C   0  0  0  0  0  0  0  0  0  0  0  0
    2.4155    0.1619    0.8089 C   0  0  0  0  0  0  0  0  0  0  0  0
    3.7147   -0.3125   -1.7972 C   0  0  0  0  0  0  0  0  0  0  0  0
    3.1711   -1.1168    0.5398 C   0  0  0  0  0  0  0  0  0  0  0  0
    3.7620   -1.3583   -0.7130 C   0  0  0  0  0  0  0  0  0  0  0  0
    0.1126    2.0771    0.0237 C   0  0  0  0  0  0  0  0  0  0  0  0
    3.2500   -2.0953    1.5405 C   0  0  0  0  0  0  0  0  0  0  0  0
    4.4513   -2.5587   -0.9324 C   0  0  0  0  0  0  0  0  0  0  0  0
   -0.4663    1.6659    1.2133 C   0  0  0  0  0  0  0  0  0  0  0  0
    3.9277   -3.2917    1.3074 C   0  0  0  0  0  0  0  0  0  0  0  0
    4.5298   -3.5221    0.0729 C   0  0  0  0  0  0  0  0  0  0  0  0
   -0.5828    2.0230   -1.1733 C   0  0  0  0  0  0  0  0  0  0  0  0
   -1.7765    1.1875    1.2057 C   0  0  0  0  0  0  0  0  0  0  0  0
   -2.4899    1.1270    0.0084 C   0  0  0  0  0  0  0  0  0  0  0  0
   -1.8931    1.5447   -1.1809 C   0  0  0  0  0  0  0  0  0  0  0  0
   -2.3999    0.7458    2.4883 C   0  0  0  0  0  0  0  0  0  0  0  0
   -4.0283   -0.4825   -0.8273 C   0  0  0  0  0  0  0  0  0  0  0  0
   -5.1724   -1.2560   -0.2266 C   0  0  0  0  0  0  0  0  0  0  0  0
   -6.5092   -3.1773   -0.5683 C   0  0  0  0  0  0  0  0  0  0  0  0
    2.6519    1.4595   -2.3546 H   0  0  0  0  0  0  0  0  0  0  0  0
    1.6014    0.1541   -1.7621 H   0  0  0  0  0  0  0  0  0  0  0  0
    1.3630   -0.1256    0.8572 H   0  0  0  0  0  0  0  0  0  0  0  0
    2.7346    0.5600    1.7788 H   0  0  0  0  0  0  0  0  0  0  0  0
    4.6666    0.2329   -1.7849 H   0  0  0  0  0  0  0  0  0  0  0  0
    3.6147   -0.7921   -2.7780 H   0  0  0  0  0  0  0  0  0  0  0  0
    2.7838   -1.9282    2.5083 H   0  0  0  0  0  0  0  0  0  0  0  0
    4.9304   -2.7494   -1.8894 H   0  0  0  0  0  0  0  0  0  0  0  0
    0.0850    1.7113    2.1482 H   0  0  0  0  0  0  0  0  0  0  0  0
    3.9871   -4.0430    2.0894 H   0  0  0  0  0  0  0  0  0  0  0  0
    5.0618   -4.4517   -0.1068 H   0  0  0  0  0  0  0  0  0  0  0  0
   -0.1358    2.3403   -2.1103 H   0  0  0  0  0  0  0  0  0  0  0  0
   -2.4386    1.5101   -2.1201 H   0  0  0  0  0  0  0  0  0  0  0  0
   -1.7166    0.8584    3.3369 H   0  0  0  0  0  0  0  0  0  0  0  0
   -3.2925    1.3428    2.7026 H   0  0  0  0  0  0  0  0  0  0  0  0
   -2.6807   -0.3110    2.4296 H   0  0  0  0  0  0  0  0  0  0  0  0
   -4.3123   -0.1503   -1.8309 H   0  0  0  0  0  0  0  0  0  0  0  0
   -3.1520   -1.1405   -0.8663 H   0  0  0  0  0  0  0  0  0  0  0  0
   -7.4456   -2.6119   -0.5412 H   0  0  0  0  0  0  0  0  0  0  0  0
   -6.2797   -3.5935    0.4173 H   0  0  0  0  0  0  0  0  0  0  0  0
   -6.6164   -3.9999   -1.2803 H   0  0  0  0  0  0  0  0  0  0  0  0
  1  2  2  0  0  0  0
  1  3  2  0  0  0  0
  1  7  1  0  0  0  0
  1 13  1  0  0  0  0
  4 21  1  0  0  0  0
  4 24  1  0  0  0  0
  5 25  1  0  0  0  0
  5 26  1  0  0  0  0
  6 25  2  0  0  0  0
  7  8  1  0  0  0  0
  7  9  1  0  0  0  0
  8 10  1  0  0  0  0
  8 27  1  0  0  0  0
  8 28  1  0  0  0  0
  9 11  1  0  0  0  0
  9 29  1  0  0  0  0
  9 30  1  0  0  0  0
 10 12  1  0  0  0  0
 10 31  1  0  0  0  0
 10 32  1  0  0  0  0
 11 12  1  0  0  0  0
 11 14  2  0  0  0  0
 12 15  2  0  0  0  0
 13 16  2  0  0  0  0
 13 19  1  0  0  0  0
 14 17  1  0  0  0  0
 14 33  1  0  0  0  0
 15 18  1  0  0  0  0
 15 34  1  0  0  0  0
 16 20  1  0  0  0  0
 16 35  1  0  0  0  0
 17 18  2  0  0  0  0
 17 36  1  0  0  0  0
 18 37  1  0  0  0  0
 19 22  2  0  0  0  0
 19 38  1  0  0  0  0
 20 21  2  0  0  0  0
 20 23  1  0  0  0  0
 21 22  1  0  0  0  0
 22 39  1  0  0  0  0
 23 40  1  0  0  0  0
 23 41  1  0  0  0  0
 23 42  1  0  0  0  0
 24 25  1  0  0  0  0
 24 43  1  0  0  0  0
 24 44  1  0  0  0  0
 26 45  1  0  0  0  0
 26 46  1  0  0  0  0
 26 47  1  0  0  0  0
M  END
> <PUBCHEM_COMPOUND_CID>
1092907

> <PUBCHEM_CONFORMER_RMSD>
0.8

> <PUBCHEM_CONFORMER_DIVERSEORDER>
1
296
399
113
50
369
401
259
263
412
240
142
393
249
165
354
392
140
178
389
409
405
144
320
408
395
187
398
329
37
243
17
43
163
154
330
282
247
172
148
368
236
241
416
384
153
188
295
225
101
90
79
299
210
138
375
292
233
71
261
190
289
386
18
107
21
271
267
139
394
92
221
93
14
25
371
302
6
390
245
290
158
383
186
284
109
122
211
256
119
16
311
212
106
400
312
76
199
314
413
244
274
343
121
182
151
91
342
57
2
323
127
12
257
326
38
159
364
69
338
337
135
32
204
102
310
202
170
309
11
218
377
36
300
65
362
288
237
327
348
219
340
82
5
283
242
112
120
208
227
111
207
133
321
149
298
213
335
332
78
235
222
264
41
176
287
234
34
301
87
324
194
46
316
255
185
358
238
180
80
193
397
357
132
269
411
415
303
196
252
372
179
319
70
116
402
266
147
407
250
246
152
22
156
177
58
230
365
61
373
31
334
378
94
192
10
141
23
281
382
162
387
209
403
108
137
341
3
110
294
385
322
197
66
24
123
129
169
42
117
293
20
270
181
84
126
379
404
59
344
136
291
74
35
355
347
191
201
206
64
285
367
223
99
359
134
333
40
157
171
260
229
351
370
98
95
146
160
214
217
328
297
254
97
145
30
29
155
150
318
391
406
83
128
306
352
253
161
331
279
374
19
248
85
77
15
220
173
349
216
164
278
81
239
174
313
33
350
166
304
105
115
251
228
124
198
363
4
143
280
345
414
45
307
167
68
54
277
376
195
48
215
189
51
131
103
168
125
26
317
100
114
381
305
205
73
96
417
47
28
183
276
8
286
361
308
353
60
13
49
258
265
325
339
118
396
232
410
27
356
268
184
72
275
380
56
9
226
315
89
272
388
336
86
55
224
53
360
366
39
346
67
231
44
88
175
273
63
130
62
7
104
203
75
52
200
262

> <PUBCHEM_MMFF94_PARTIAL_CHARGES>
33
1 1.45
10 0.14
11 -0.14
12 -0.14
13 -0.01
14 -0.15
15 -0.15
16 -0.15
17 -0.15
18 -0.15
19 -0.15
2 -0.65
20 -0.14
21 0.08
22 -0.15
23 0.14
24 0.34
25 0.66
26 0.28
3 -0.65
33 0.15
34 0.15
35 0.15
36 0.15
37 0.15
38 0.15
39 0.15
4 -0.36
5 -0.43
6 -0.57
7 -0.85
8 0.36
9 0.5

> <PUBCHEM_EFFECTIVE_ROTOR_COUNT>
6.8

> <PUBCHEM_PHARMACOPHORE_FEATURES>
7
1 2 acceptor
1 3 acceptor
1 4 acceptor
1 6 acceptor
6 11 12 14 15 17 18 rings
6 13 16 19 20 21 22 rings
6 7 8 9 10 11 12 rings

> <PUBCHEM_HEAVY_ATOM_COUNT>
26

> <PUBCHEM_ATOM_DEF_STEREO_COUNT>
0

> <PUBCHEM_ATOM_UDEF_STEREO_COUNT>
0

> <PUBCHEM_BOND_DEF_STEREO_COUNT>
0

> <PUBCHEM_BOND_UDEF_STEREO_COUNT>
0

> <PUBCHEM_ISOTOPIC_ATOM_COUNT>
0

> <PUBCHEM_COMPONENT_COUNT>
1

> <PUBCHEM_CACTVS_TAUTO_COUNT>
1

> <PUBCHEM_CONFORMER_ID>
0010AD2B00000001

> <PUBCHEM_MMFF94_ENERGY>
60.6447

> <PUBCHEM_FEATURE_SELFOVERLAP>
35.57

> <PUBCHEM_SHAPE_FINGERPRINT>
10042902 136 18198348351614827326
10074138 170 17058098684168800505
10928967 22 18265625285663455938
11763715 3 18266201542069294429
11796584 16 18193838145868475668
11991303 11 17469882651077000308
12107183 9 18271257015266559585
12363563 72 18196086638990066944
12422481 6 12247400042716401306
13533116 47 18341335608379892777
13911987 19 17752800023902938244
13965767 371 11815889042479353146
14251740 57 18271803548931815459
14713325 29 7815301149720274825
14848178 5 18341884182803721079
14848178 96 8935004789012550407
15163728 17 12324517581233932691
15342168 16 9511455611356925169
15475509 35 17843113964737005315
16120349 67 9294424209715530866
17134984 74 18047186638340383215
17492 89 18413103970429454063
20626108 58 18339921520003682280
20775438 99 18045207495672163523
20775530 9 18115876208722943554
21641784 216 15213561405190940735
21703447 108 18201151169641279321
25222932 49 18342453789903561406
2838139 119 10809340044874494411
33382 64 18268713999394844619
345986 75 17846784039807715235
44062 13 18263076613979130845
46194498 28 15721683175298767100
463206 1 18189337879072754595
484985 159 17763179138009662916
5104073 3 17775011215266099513
70251023 43 18334016086064081969
7970288 3 18196373615519736398
88748 71 18408887304613876447
960060 61 17894636950100619717

> <PUBCHEM_SHAPE_MULTIPOLES>
504.59
12.47
4.55
1.77
15.62
1.09
0.44
17.06
-1.98
-1.88
-0.03
-0.38
-0.23
-1.72

> <PUBCHEM_SHAPE_SELFOVERLAP>
1062.163

> <PUBCHEM_SHAPE_VOLUME>
284.7

> <PUBCHEM_COORDINATE_TYPE>
2
5
10

$$$$
