24819824
  -OEChem-01171810073D

 71 73  0     0  0  0  0  0  0999 V2000
   -6.7603   -1.9652    0.8235 S   0  0  0  0  0  0  0  0  0  0  0  0
   -7.0276   -3.1691    0.0656 O   0  0  0  0  0  0  0  0  0  0  0  0
   -6.8510   -1.9587    2.2682 O   0  0  0  0  0  0  0  0  0  0  0  0
    1.0048    1.2687   -1.8102 O   0  0  0  0  0  0  0  0  0  0  0  0
    3.5783    0.2925    0.5409 O   0  0  0  0  0  0  0  0  0  0  0  0
    9.2889   -3.1940    0.6151 O   0  0  0  0  0  0  0  0  0  0  0  0
   -7.7149   -0.6882    0.2001 N   0  0  0  0  0  0  0  0  0  0  0  0
    1.5407    2.0503    0.3119 N   0  0  0  0  0  0  0  0  0  0  0  0
    5.1442    1.8204   -0.3146 N   0  0  0  0  0  0  0  0  0  0  0  0
    9.9254   -1.0945   -0.2483 N   0  0  0  0  0  0  0  0  0  0  0  0
   -7.6191   -0.4377   -1.2602 C   0  0  0  0  0  0  0  0  0  0  0  0
   -7.8115    0.5180    1.0628 C   0  0  0  0  0  0  0  0  0  0  0  0
   -9.0192   -0.4958   -1.8613 C   0  0  0  0  0  0  0  0  0  0  0  0
   -8.7216    1.6127    0.5116 C   0  0  0  0  0  0  0  0  0  0  0  0
   -9.8760    0.7385   -1.5839 C   0  0  0  0  0  0  0  0  0  0  0  0
  -10.0252    1.1105   -0.1078 C   0  0  0  0  0  0  0  0  0  0  0  0
   -5.1505   -1.3936    0.3778 C   0  0  0  0  0  0  0  0  0  0  0  0
   -4.6013   -1.7474   -0.8546 C   0  0  0  0  0  0  0  0  0  0  0  0
   -4.4281   -0.5877    1.2578 C   0  0  0  0  0  0  0  0  0  0  0  0
   -3.3298   -1.2952   -1.2072 C   0  0  0  0  0  0  0  0  0  0  0  0
   -3.1566   -0.1356    0.9053 C   0  0  0  0  0  0  0  0  0  0  0  0
   -2.6073   -0.4894   -0.3271 C   0  0  0  0  0  0  0  0  0  0  0  0
   -1.2817   -0.0170   -0.6950 C   0  0  0  0  0  0  0  0  0  0  0  0
   -0.6496    1.0426   -0.1417 C   0  0  0  0  0  0  0  0  0  0  0  0
    0.7011    1.4493   -0.6301 C   0  0  0  0  0  0  0  0  0  0  0  0
    2.8648    2.5023   -0.0954 C   0  0  0  0  0  0  0  0  0  0  0  0
    1.1900    2.3054    1.7078 C   0  0  0  0  0  0  0  0  0  0  0  0
    3.8830    1.3920    0.0904 C   0  0  0  0  0  0  0  0  0  0  0  0
    0.5524    3.6687    1.8795 C   0  0  0  0  0  0  0  0  0  0  0  0
    6.3522    1.0833   -0.2983 C   0  0  0  0  0  0  0  0  0  0  0  0
    6.3603   -0.2330    0.1634 C   0  0  0  0  0  0  0  0  0  0  0  0
    7.5351    1.6736   -0.7434 C   0  0  0  0  0  0  0  0  0  0  0  0
    8.7341   -0.3686   -0.2652 C   0  0  0  0  0  0  0  0  0  0  0  0
    7.5513   -0.9588    0.1799 C   0  0  0  0  0  0  0  0  0  0  0  0
    8.7260    0.9477   -0.7267 C   0  0  0  0  0  0  0  0  0  0  0  0
   10.1281   -2.4146    0.1758 C   0  0  0  0  0  0  0  0  0  0  0  0
   11.5704   -2.8323    0.0337 C   0  0  0  0  0  0  0  0  0  0  0  0
   -7.0513   -1.2278   -1.7554 H   0  0  0  0  0  0  0  0  0  0  0  0
   -7.1093    0.5064   -1.4776 H   0  0  0  0  0  0  0  0  0  0  0  0
   -6.8194    0.9462    1.2340 H   0  0  0  0  0  0  0  0  0  0  0  0
   -8.2173    0.2092    2.0336 H   0  0  0  0  0  0  0  0  0  0  0  0
   -8.9309   -0.6053   -2.9494 H   0  0  0  0  0  0  0  0  0  0  0  0
   -9.5443   -1.3887   -1.4988 H   0  0  0  0  0  0  0  0  0  0  0  0
   -8.9633    2.2896    1.3412 H   0  0  0  0  0  0  0  0  0  0  0  0
   -8.1736    2.2238   -0.2163 H   0  0  0  0  0  0  0  0  0  0  0  0
  -10.8752    0.5611   -2.0006 H   0  0  0  0  0  0  0  0  0  0  0  0
   -9.4638    1.5938   -2.1341 H   0  0  0  0  0  0  0  0  0  0  0  0
  -10.4365    0.2718    0.4657 H   0  0  0  0  0  0  0  0  0  0  0  0
  -10.7619    1.9215   -0.0481 H   0  0  0  0  0  0  0  0  0  0  0  0
   -5.1336   -2.3873   -1.5520 H   0  0  0  0  0  0  0  0  0  0  0  0
   -4.8347   -0.3028    2.2241 H   0  0  0  0  0  0  0  0  0  0  0  0
   -2.9170   -1.5829   -2.1712 H   0  0  0  0  0  0  0  0  0  0  0  0
   -2.6237    0.4722    1.6306 H   0  0  0  0  0  0  0  0  0  0  0  0
   -0.7861   -0.5777   -1.4850 H   0  0  0  0  0  0  0  0  0  0  0  0
   -1.1168    1.6513    0.6204 H   0  0  0  0  0  0  0  0  0  0  0  0
    2.8470    2.7793   -1.1556 H   0  0  0  0  0  0  0  0  0  0  0  0
    3.1577    3.3828    0.4863 H   0  0  0  0  0  0  0  0  0  0  0  0
    0.5147    1.5270    2.0756 H   0  0  0  0  0  0  0  0  0  0  0  0
    2.0979    2.2345    2.3185 H   0  0  0  0  0  0  0  0  0  0  0  0
   -0.3531    3.7739    1.2742 H   0  0  0  0  0  0  0  0  0  0  0  0
    0.2817    3.8314    2.9274 H   0  0  0  0  0  0  0  0  0  0  0  0
    1.2399    4.4670    1.5815 H   0  0  0  0  0  0  0  0  0  0  0  0
    5.2256    2.7723   -0.6659 H   0  0  0  0  0  0  0  0  0  0  0  0
    5.4856   -0.7564    0.5229 H   0  0  0  0  0  0  0  0  0  0  0  0
    7.5426    2.6985   -1.1055 H   0  0  0  0  0  0  0  0  0  0  0  0
    7.4802   -1.9718    0.5509 H   0  0  0  0  0  0  0  0  0  0  0  0
    9.6404    1.4204   -1.0763 H   0  0  0  0  0  0  0  0  0  0  0  0
   10.7439   -0.5938   -0.5883 H   0  0  0  0  0  0  0  0  0  0  0  0
   12.2094   -2.1659    0.6200 H   0  0  0  0  0  0  0  0  0  0  0  0
   11.8653   -2.7899   -1.0185 H   0  0  0  0  0  0  0  0  0  0  0  0
   11.6975   -3.8557    0.3978 H   0  0  0  0  0  0  0  0  0  0  0  0
  1  2  2  0  0  0  0
  1  3  2  0  0  0  0
  1  7  1  0  0  0  0
  1 17  1  0  0  0  0
  4 25  2  0  0  0  0
  5 28  2  0  0  0  0
  6 36  2  0  0  0  0
  7 11  1  0  0  0  0
  7 12  1  0  0  0  0
  8 25  1  0  0  0  0
  8 26  1  0  0  0  0
  8 27  1  0  0  0  0
  9 28  1  0  0  0  0
  9 30  1  0  0  0  0
  9 63  1  0  0  0  0
 10 33  1  0  0  0  0
 10 36  1  0  0  0  0
 10 68  1  0  0  0  0
 11 13  1  0  0  0  0
 11 38  1  0  0  0  0
 11 39  1  0  0  0  0
 12 14  1  0  0  0  0
 12 40  1  0  0  0  0
 12 41  1  0  0  0  0
 13 15  1  0  0  0  0
 13 42  1  0  0  0  0
 13 43  1  0  0  0  0
 14 16  1  0  0  0  0
 14 44  1  0  0  0  0
 14 45  1  0  0  0  0
 15 16  1  0  0  0  0
 15 46  1  0  0  0  0
 15 47  1  0  0  0  0
 16 48  1  0  0  0  0
 16 49  1  0  0  0  0
 17 18  2  0  0  0  0
 17 19  1  0  0  0  0
 18 20  1  0  0  0  0
 18 50  1  0  0  0  0
 19 21  2  0  0  0  0
 19 51  1  0  0  0  0
 20 22  2  0  0  0  0
 20 52  1  0  0  0  0
 21 22  1  0  0  0  0
 21 53  1  0  0  0  0
 22 23  1  0  0  0  0
 23 24  2  0  0  0  0
 23 54  1  0  0  0  0
 24 25  1  0  0  0  0
 24 55  1  0  0  0  0
 26 28  1  0  0  0  0
 26 56  1  0  0  0  0
 26 57  1  0  0  0  0
 27 29  1  0  0  0  0
 27 58  1  0  0  0  0
 27 59  1  0  0  0  0
 29 60  1  0  0  0  0
 29 61  1  0  0  0  0
 29 62  1  0  0  0  0
 30 31  2  0  0  0  0
 30 32  1  0  0  0  0
 31 34  1  0  0  0  0
 31 64  1  0  0  0  0
 32 35  2  0  0  0  0
 32 65  1  0  0  0  0
 33 34  2  0  0  0  0
 33 35  1  0  0  0  0
 34 66  1  0  0  0  0
 35 67  1  0  0  0  0
 36 37  1  0  0  0  0
 37 69  1  0  0  0  0
 37 70  1  0  0  0  0
 37 71  1  0  0  0  0
M  END
> <PUBCHEM_COMPOUND_CID>
24819824

> <PUBCHEM_CONFORMER_RMSD>
1.4

> <PUBCHEM_CONFORMER_DIVERSEORDER>
2
46
7
6
28
13
55
48
15
30
9
16
31
5
37
34
24
47
25
3
19
40
18
14
11
32
49
10
53
17
12
51
36
39
35
54
42
29
20
26
8
43
22
33
38
21
41
45
56
1
27
4
23
44
52
50

> <PUBCHEM_MMFF94_PARTIAL_CHARGES>
44
1 1.45
10 -0.55
11 0.36
12 0.36
17 -0.01
18 -0.15
19 -0.15
2 -0.65
20 -0.15
21 -0.15
22 0.03
23 -0.18
24 -0.14
25 0.62
26 0.36
27 0.3
28 0.57
3 -0.65
30 0.12
31 -0.15
32 -0.15
33 0.12
34 -0.15
35 -0.15
36 0.57
37 0.06
4 -0.57
5 -0.57
50 0.15
51 0.15
52 0.15
53 0.15
54 0.15
55 0.15
6 -0.57
63 0.37
64 0.15
65 0.15
66 0.15
67 0.15
68 0.37
7 -0.85
8 -0.66
9 -0.55

> <PUBCHEM_EFFECTIVE_ROTOR_COUNT>
13.4

> <PUBCHEM_PHARMACOPHORE_FEATURES>
10
1 10 donor
1 2 acceptor
1 3 acceptor
1 4 acceptor
1 5 acceptor
1 6 acceptor
1 9 donor
6 17 18 19 20 21 22 rings
6 30 31 32 33 34 35 rings
7 7 11 12 13 14 15 16 rings

> <PUBCHEM_HEAVY_ATOM_COUNT>
37

> <PUBCHEM_ATOM_DEF_STEREO_COUNT>
0

> <PUBCHEM_ATOM_UDEF_STEREO_COUNT>
0

> <PUBCHEM_BOND_DEF_STEREO_COUNT>
1

> <PUBCHEM_BOND_UDEF_STEREO_COUNT>
0

> <PUBCHEM_ISOTOPIC_ATOM_COUNT>
0

> <PUBCHEM_COMPONENT_COUNT>
1

> <PUBCHEM_CACTVS_TAUTO_COUNT>
4

> <PUBCHEM_CONFORMER_ID>
017AB87000000002

> <PUBCHEM_MMFF94_ENERGY>
93.445

> <PUBCHEM_FEATURE_SELFOVERLAP>
50.766

> <PUBCHEM_SHAPE_FINGERPRINT>
10076449 9 13406793342258858917
10162869 55 14333408964862675689
10209105 3 18336262341533722390
10577160 183 17918272065790879943
10674148 151 17385721438980560577
10930396 42 14548732893781824555
11115154 58 17095242540286421996
12013929 2 18334292059593530349
12539745 222 18412547570265073920
12559415 193 18341899532916760157
12592606 108 18343301513210274999
12758862 56 18340762736318899289
13740195 50 12031783678158305509
13947934 56 18409445857006680948
14675019 173 18261956349128351341
15065858 18 18335136531082474262
15198563 99 16660635237948711964
15289351 153 18273210890167592369
15320295 40 15195288633811638769
15461852 350 15267348448627674509
16728433 110 18412825812365410268
19301679 30 17988373568513393596
19304144 158 9655036437219467491
19841028 212 18407758149876171994
20105231 36 15646769007677516465
20156587 128 15647325296500346306
2026 5 18261952943931136618
20609170 114 12678879265101460581
20737093 207 17274808156859004247
20766409 102 10881393219592211127
212700 22 18060424603661994174
21792961 116 18411133610800601341
406291 66 18409729535786540906
4173938 188 12247674989854135893
4353968 344 17632854219167047773
437795 160 14549016611116261029
439807 62 18408886235884184844
44389302 135 18131348576191324726
474113 269 18272932704987922572
5028188 123 16298668386649633299
5381727 24 11095892553513726980
54039377 194 18410577276257202838
54583773 228 8790878584018538933
5470011 282 17895478124584599092
57303763 176 18129664089701036497
6126387 218 18411421704922944575
6201320 215 18201723900031987529
6691757 9 16128102243297778119
9937071 3 18407759240766307434
9980921 7 10303804394328316050

> <PUBCHEM_SHAPE_MULTIPOLES>
716.02
44.19
3.25
1.46
39.76
0.09
-0.14
25.73
4.98
4.51
-1.19
-2.97
-0.23
-0.51

> <PUBCHEM_SHAPE_SELFOVERLAP>
1477.465

> <PUBCHEM_SHAPE_VOLUME>
408

> <PUBCHEM_COORDINATE_TYPE>
2
5
10

$$$$
