1163357
  -OEChem-01171809213D

 57 60  0     0  0  0  0  0  0999 V2000
    1.8140    0.0336   -1.0009 S   0  0  0  0  0  0  0  0  0  0  0  0
    5.5496   -0.3723    0.2515 O   0  0  0  0  0  0  0  0  0  0  0  0
    4.6111    0.9775   -1.3629 O   0  0  0  0  0  0  0  0  0  0  0  0
   -3.5261   -1.0927    0.9685 O   0  0  0  0  0  0  0  0  0  0  0  0
   -0.7758   -0.8630   -0.6437 N   0  0  0  0  0  0  0  0  0  0  0  0
    0.6690   -1.8339    0.6821 N   0  0  0  0  0  0  0  0  0  0  0  0
   -0.5822   -2.3547    0.9454 N   0  0  0  0  0  0  0  0  0  0  0  0
    6.8324    0.1765   -0.0303 C   0  0  0  0  0  0  0  0  0  0  0  0
    7.9076   -0.8815    0.2131 C   0  0  0  0  0  0  0  0  0  0  0  0
    7.0596    1.4183    0.8308 C   0  0  0  0  0  0  0  0  0  0  0  0
    9.3092   -0.3124    0.0183 C   0  0  0  0  0  0  0  0  0  0  0  0
    8.4610    1.9876    0.6362 C   0  0  0  0  0  0  0  0  0  0  0  0
    9.5355    0.9298    0.8772 C   0  0  0  0  0  0  0  0  0  0  0  0
    4.5099    0.1213   -0.4955 C   0  0  0  0  0  0  0  0  0  0  0  0
    3.2394   -0.5665   -0.0634 C   0  0  0  0  0  0  0  0  0  0  0  0
    0.5323   -0.9419   -0.2730 C   0  0  0  0  0  0  0  0  0  0  0  0
   -1.4344   -1.7603    0.1412 C   0  0  0  0  0  0  0  0  0  0  0  0
   -1.3652   -0.0142   -1.6531 C   0  0  0  0  0  0  0  0  0  0  0  0
   -2.8879   -1.9909    0.0606 C   0  0  0  0  0  0  0  0  0  0  0  0
   -5.1386    0.6316    0.4501 C   0  0  0  0  0  0  0  0  0  0  0  0
   -4.8043   -0.7162    0.6598 C   0  0  0  0  0  0  0  0  0  0  0  0
   -1.3873   -0.6764   -3.0200 C   0  0  0  0  0  0  0  0  0  0  0  0
   -6.4754    0.9716    0.1336 C   0  0  0  0  0  0  0  0  0  0  0  0
   -5.7739   -1.7144    0.5592 C   0  0  0  0  0  0  0  0  0  0  0  0
   -4.1757    1.6494    0.5473 C   0  0  0  0  0  0  0  0  0  0  0  0
   -7.4385   -0.0461    0.0360 C   0  0  0  0  0  0  0  0  0  0  0  0
   -6.8101    2.3193   -0.0762 C   0  0  0  0  0  0  0  0  0  0  0  0
   -7.0884   -1.3800    0.2476 C   0  0  0  0  0  0  0  0  0  0  0  0
   -4.5260    2.9831    0.3359 C   0  0  0  0  0  0  0  0  0  0  0  0
   -5.8408    3.3176    0.0248 C   0  0  0  0  0  0  0  0  0  0  0  0
    6.8998    0.4587   -1.0901 H   0  0  0  0  0  0  0  0  0  0  0  0
    7.8054   -1.2837    1.2294 H   0  0  0  0  0  0  0  0  0  0  0  0
    7.7495   -1.7327   -0.4601 H   0  0  0  0  0  0  0  0  0  0  0  0
    6.3120    2.1847    0.5945 H   0  0  0  0  0  0  0  0  0  0  0  0
    6.9024    1.1668    1.8878 H   0  0  0  0  0  0  0  0  0  0  0  0
   10.0551   -1.0748    0.2691 H   0  0  0  0  0  0  0  0  0  0  0  0
    9.4561   -0.0568   -1.0383 H   0  0  0  0  0  0  0  0  0  0  0  0
    8.5573    2.3794   -0.3839 H   0  0  0  0  0  0  0  0  0  0  0  0
    8.6148    2.8312    1.3184 H   0  0  0  0  0  0  0  0  0  0  0  0
    9.5342    0.6448    1.9365 H   0  0  0  0  0  0  0  0  0  0  0  0
   10.5234    1.3521    0.6613 H   0  0  0  0  0  0  0  0  0  0  0  0
    3.3545   -1.6419   -0.2305 H   0  0  0  0  0  0  0  0  0  0  0  0
    3.0820   -0.3651    1.0008 H   0  0  0  0  0  0  0  0  0  0  0  0
   -0.8114    0.9291   -1.6896 H   0  0  0  0  0  0  0  0  0  0  0  0
   -2.3817    0.2431   -1.3455 H   0  0  0  0  0  0  0  0  0  0  0  0
   -3.1064   -3.0172    0.3783 H   0  0  0  0  0  0  0  0  0  0  0  0
   -3.2673   -1.8734   -0.9610 H   0  0  0  0  0  0  0  0  0  0  0  0
   -1.9565   -1.6115   -3.0036 H   0  0  0  0  0  0  0  0  0  0  0  0
   -1.8495   -0.0104   -3.7551 H   0  0  0  0  0  0  0  0  0  0  0  0
   -0.3748   -0.9111   -3.3645 H   0  0  0  0  0  0  0  0  0  0  0  0
   -5.5222   -2.7573    0.7313 H   0  0  0  0  0  0  0  0  0  0  0  0
   -3.1406    1.4238    0.7936 H   0  0  0  0  0  0  0  0  0  0  0  0
   -8.4722    0.1923   -0.2058 H   0  0  0  0  0  0  0  0  0  0  0  0
   -7.8315    2.6037   -0.3206 H   0  0  0  0  0  0  0  0  0  0  0  0
   -7.8434   -2.1571    0.1715 H   0  0  0  0  0  0  0  0  0  0  0  0
   -3.7721    3.7609    0.4153 H   0  0  0  0  0  0  0  0  0  0  0  0
   -6.1127    4.3562   -0.1395 H   0  0  0  0  0  0  0  0  0  0  0  0
  1 15  1  0  0  0  0
  1 16  1  0  0  0  0
  2  8  1  0  0  0  0
  2 14  1  0  0  0  0
  3 14  2  0  0  0  0
  4 19  1  0  0  0  0
  4 21  1  0  0  0  0
  5 16  1  0  0  0  0
  5 17  1  0  0  0  0
  5 18  1  0  0  0  0
  6  7  1  0  0  0  0
  6 16  2  0  0  0  0
  7 17  2  0  0  0  0
  8  9  1  0  0  0  0
  8 10  1  0  0  0  0
  8 31  1  0  0  0  0
  9 11  1  0  0  0  0
  9 32  1  0  0  0  0
  9 33  1  0  0  0  0
 10 12  1  0  0  0  0
 10 34  1  0  0  0  0
 10 35  1  0  0  0  0
 11 13  1  0  0  0  0
 11 36  1  0  0  0  0
 11 37  1  0  0  0  0
 12 13  1  0  0  0  0
 12 38  1  0  0  0  0
 12 39  1  0  0  0  0
 13 40  1  0  0  0  0
 13 41  1  0  0  0  0
 14 15  1  0  0  0  0
 15 42  1  0  0  0  0
 15 43  1  0  0  0  0
 17 19  1  0  0  0  0
 18 22  1  0  0  0  0
 18 44  1  0  0  0  0
 18 45  1  0  0  0  0
 19 46  1  0  0  0  0
 19 47  1  0  0  0  0
 20 21  1  0  0  0  0
 20 23  1  0  0  0  0
 20 25  2  0  0  0  0
 21 24  2  0  0  0  0
 22 48  1  0  0  0  0
 22 49  1  0  0  0  0
 22 50  1  0  0  0  0
 23 26  1  0  0  0  0
 23 27  2  0  0  0  0
 24 28  1  0  0  0  0
 24 51  1  0  0  0  0
 25 29  1  0  0  0  0
 25 52  1  0  0  0  0
 26 28  2  0  0  0  0
 26 53  1  0  0  0  0
 27 30  1  0  0  0  0
 27 54  1  0  0  0  0
 28 55  1  0  0  0  0
 29 30  2  0  0  0  0
 29 56  1  0  0  0  0
 30 57  1  0  0  0  0
M  END
> <PUBCHEM_COMPOUND_CID>
1163357

> <PUBCHEM_CONFORMER_RMSD>
1.4

> <PUBCHEM_CONFORMER_DIVERSEORDER>
1
48
10
55
85
64
82
107
56
11
73
44
75
103
54
28
59
57
92
67
95
106
97
34
35
50
76
109
94
84
69
96
31
105
86
65
2
17
41
6
101
102
3
29
49
51
37
36
22
33
79
27
43
98
78
47
70
14
81
104
53
63
58
25
99
24
80
91
8
32
5
40
18
87
62
88
83
23
20
52
61
21
39
60
77
93
72
66
19
15
71
89
9
13
4
90
100
26
45
42
16
38
108
68
7
46
74
12
30

> <PUBCHEM_MMFF94_PARTIAL_CHARGES>
29
1 -0.29
14 0.66
15 0.29
16 0.24
17 0.01
18 0.26
19 0.46
2 -0.43
21 0.08
24 -0.15
25 -0.15
26 -0.15
27 -0.15
28 -0.15
29 -0.15
3 -0.57
30 -0.15
4 -0.36
5 0.05
51 0.15
52 0.15
53 0.15
54 0.15
55 0.15
56 0.15
57 0.15
6 -0.34
7 -0.34
8 0.28

> <PUBCHEM_EFFECTIVE_ROTOR_COUNT>
10.2

> <PUBCHEM_PHARMACOPHORE_FEATURES>
8
1 3 acceptor
1 4 acceptor
3 5 6 16 cation
3 5 7 17 cation
5 5 6 7 16 17 rings
6 20 21 23 24 26 28 rings
6 20 23 25 27 29 30 rings
6 8 9 10 11 12 13 rings

> <PUBCHEM_HEAVY_ATOM_COUNT>
30

> <PUBCHEM_ATOM_DEF_STEREO_COUNT>
0

> <PUBCHEM_ATOM_UDEF_STEREO_COUNT>
0

> <PUBCHEM_BOND_DEF_STEREO_COUNT>
0

> <PUBCHEM_BOND_UDEF_STEREO_COUNT>
0

> <PUBCHEM_ISOTOPIC_ATOM_COUNT>
0

> <PUBCHEM_COMPONENT_COUNT>
1

> <PUBCHEM_CACTVS_TAUTO_COUNT>
1

> <PUBCHEM_CONFORMER_ID>
0011C05D00000001

> <PUBCHEM_MMFF94_ENERGY>
59.2343

> <PUBCHEM_FEATURE_SELFOVERLAP>
43.126

> <PUBCHEM_SHAPE_FINGERPRINT>
10 15 18202001040721012020
100830 39 18411138026295974449
10580692 12 18410576180529099138
10625338 131 18342451518188063600
10625338 86 18273212006526819128
10666366 153 18202013097490959934
10670039 82 18409163312450660497
10674148 151 18186237338983466298
10951579 204 18193860162509541764
11200772 48 12319447805584842757
11477941 20 18201992249661903437
11524674 6 13479135722492836217
11991303 11 17131825504335153551
12104220 1 18260263049717924293
12664476 115 17989487433626422017
13726171 33 18056487158550541617
13885169 127 18410012152269685850
13911987 19 16702301214114156119
14251764 18 18113620101521114766
14767858 380 13901908894879753990
15289351 153 18339636751335662658
15352257 5 11169907286722758624
15419008 145 18186794765145578084
15461852 350 17704067430005575295
15604295 49 18271802484550436752
17686467 74 18129375068382020443
18603816 31 13407084738552040793
20580484 106 18410285922913558666
21150785 3 11959732672863836174
21756936 100 18342171163996921471
21781055 127 17895490137671474934
23522609 53 17169296860683125364
2838139 119 18343580755046805845
4339292 15 17059766854220970111
437795 83 17346321449264261305
44802255 64 17632295687685072023
5047190 69 18411979156849488728
54039377 194 10663810902404982997
5470011 282 10665230350605083650
54728670 133 14996551838814866351
58083652 198 15791735238578995012
6201320 215 18200591397947683328
636775 72 18411419526826523048
99344 41 18335703814937524114
9953998 17 18113338592190122437

> <PUBCHEM_SHAPE_MULTIPOLES>
588.68
30.43
2.7
1.3
58.34
1.66
-1.06
13.59
7.84
-4.89
0.53
-0.1
-0.3
0.9

> <PUBCHEM_SHAPE_SELFOVERLAP>
1240.252

> <PUBCHEM_SHAPE_VOLUME>
332.6

> <PUBCHEM_COORDINATE_TYPE>
2
5
10

$$$$
