5350690
  -OEChem-01171810003D

 34 35  0     0  0  0  0  0  0999 V2000
   -7.2426   -0.0778    0.2300 Br  0  0  0  0  0  0  0  0  0  0  0  0
    3.7351   -2.7302   -0.1561 O   0  0  0  0  0  0  0  0  0  0  0  0
    3.9704    1.9217   -0.1728 O   0  0  0  0  0  0  0  0  0  0  0  0
    0.0574    2.1619    0.5186 O   0  5  0  0  0  0  0  0  0  0  0  0
    2.0008    3.1407    0.1777 O   0  0  0  0  0  0  0  0  0  0  0  0
    1.7846   -1.4944    0.1584 N   0  0  0  0  0  0  0  0  0  0  0  0
    3.8958   -0.4160   -0.1737 N   0  0  0  0  0  0  0  0  0  0  0  0
    1.2726    2.1485    0.2925 N   0  3  0  0  0  0  0  0  0  0  0  0
    1.1611   -0.2470    0.2623 C   0  0  0  0  0  0  0  0  0  0  0  0
    1.8918    0.8695    0.1504 C   0  0  0  0  0  0  0  0  0  0  0  0
    3.1739   -1.6327   -0.0643 C   0  0  0  0  0  0  0  0  0  0  0  0
    3.3456    0.8673   -0.0804 C   0  0  0  0  0  0  0  0  0  0  0  0
   -0.2773   -0.2277    0.4881 C   0  0  0  0  0  0  0  0  0  0  0  0
    0.9660   -2.7056    0.2852 C   0  0  0  0  0  0  0  0  0  0  0  0
    5.3343   -0.5112   -0.4030 C   0  0  0  0  0  0  0  0  0  0  0  0
   -1.1549   -0.2019   -0.5118 C   0  0  0  0  0  0  0  0  0  0  0  0
   -2.6171   -0.1721   -0.3336 C   0  0  0  0  0  0  0  0  0  0  0  0
   -3.1621   -0.5824    0.8722 C   0  0  0  0  0  0  0  0  0  0  0  0
   -3.4188    0.2656   -1.3754 C   0  0  0  0  0  0  0  0  0  0  0  0
   -4.5465   -0.5541    1.0409 C   0  0  0  0  0  0  0  0  0  0  0  0
   -4.8031    0.2938   -1.2067 C   0  0  0  0  0  0  0  0  0  0  0  0
   -5.3671   -0.1161    0.0014 C   0  0  0  0  0  0  0  0  0  0  0  0
   -0.5650   -0.2624    1.5349 H   0  0  0  0  0  0  0  0  0  0  0  0
    0.4346   -2.6987    1.2423 H   0  0  0  0  0  0  0  0  0  0  0  0
    1.5852   -3.6068    0.2573 H   0  0  0  0  0  0  0  0  0  0  0  0
    0.2616   -2.7611   -0.5504 H   0  0  0  0  0  0  0  0  0  0  0  0
    5.8143    0.4669   -0.4829 H   0  0  0  0  0  0  0  0  0  0  0  0
    5.5053   -1.0742   -1.3261 H   0  0  0  0  0  0  0  0  0  0  0  0
    5.7840   -1.0681    0.4253 H   0  0  0  0  0  0  0  0  0  0  0  0
   -0.8024   -0.1706   -1.5410 H   0  0  0  0  0  0  0  0  0  0  0  0
   -2.5670   -0.9531    1.7005 H   0  0  0  0  0  0  0  0  0  0  0  0
   -2.9942    0.5894   -2.3219 H   0  0  0  0  0  0  0  0  0  0  0  0
   -4.9708   -0.8816    1.9866 H   0  0  0  0  0  0  0  0  0  0  0  0
   -5.4283    0.6383   -2.0265 H   0  0  0  0  0  0  0  0  0  0  0  0
  1 22  1  0  0  0  0
  2 11  2  0  0  0  0
  3 12  2  0  0  0  0
  4  8  1  0  0  0  0
  5  8  2  0  0  0  0
  6  9  1  0  0  0  0
  6 11  1  0  0  0  0
  6 14  1  0  0  0  0
  7 11  1  0  0  0  0
  7 12  1  0  0  0  0
  7 15  1  0  0  0  0
  8 10  1  0  0  0  0
  9 10  2  0  0  0  0
  9 13  1  0  0  0  0
 10 12  1  0  0  0  0
 13 16  2  0  0  0  0
 13 23  1  0  0  0  0
 14 24  1  0  0  0  0
 14 25  1  0  0  0  0
 14 26  1  0  0  0  0
 15 27  1  0  0  0  0
 15 28  1  0  0  0  0
 15 29  1  0  0  0  0
 16 17  1  0  0  0  0
 16 30  1  0  0  0  0
 17 18  2  0  0  0  0
 17 19  1  0  0  0  0
 18 20  1  0  0  0  0
 18 31  1  0  0  0  0
 19 21  2  0  0  0  0
 19 32  1  0  0  0  0
 20 22  2  0  0  0  0
 20 33  1  0  0  0  0
 21 22  1  0  0  0  0
 21 34  1  0  0  0  0
M  CHG  2   4  -1   8   1
M  END
> <PUBCHEM_COMPOUND_CID>
5350690

> <PUBCHEM_CONFORMER_RMSD>
0.6

> <PUBCHEM_CONFORMER_DIVERSEORDER>
1
2

> <PUBCHEM_MMFF94_PARTIAL_CHARGES>
28
1 -0.11
10 0.22
11 0.69
12 0.62
13 -0.15
14 0.3
15 0.3
16 -0.18
17 0.03
18 -0.15
19 -0.15
2 -0.57
20 -0.15
21 -0.15
22 0.11
23 0.15
3 -0.57
30 0.15
31 0.15
32 0.15
33 0.15
34 0.15
4 -0.52
5 -0.52
6 -0.47
7 -0.42
8 0.84
9 0.11

> <PUBCHEM_EFFECTIVE_ROTOR_COUNT>
3

> <PUBCHEM_PHARMACOPHORE_FEATURES>
8
1 1 hydrophobe
1 2 acceptor
1 3 acceptor
1 4 acceptor
1 4 anion
1 5 acceptor
6 17 18 19 20 21 22 rings
6 6 7 9 10 11 12 rings

> <PUBCHEM_HEAVY_ATOM_COUNT>
22

> <PUBCHEM_ATOM_DEF_STEREO_COUNT>
0

> <PUBCHEM_ATOM_UDEF_STEREO_COUNT>
0

> <PUBCHEM_BOND_DEF_STEREO_COUNT>
1

> <PUBCHEM_BOND_UDEF_STEREO_COUNT>
0

> <PUBCHEM_ISOTOPIC_ATOM_COUNT>
0

> <PUBCHEM_COMPONENT_COUNT>
1

> <PUBCHEM_CACTVS_TAUTO_COUNT>
1

> <PUBCHEM_CONFORMER_ID>
0051A52200000001

> <PUBCHEM_MMFF94_ENERGY>
81.6691

> <PUBCHEM_FEATURE_SELFOVERLAP>
40.718

> <PUBCHEM_SHAPE_FINGERPRINT>
10366900 7 17967530173450345923
10411042 1 18122908629935291930
10673678 19 17678197068798701412
10693767 8 18129946672415540590
11471102 20 18410854382223369264
12107183 9 17766287470915089307
12236239 1 17560802152113089697
12403259 415 17894904119285020493
12596602 18 17131825521314295251
12730499 353 18260550043532509067
13140716 1 18123464149473368224
13402501 40 18113901567881510547
13533116 47 18342176666066298707
13540713 5 17976836285676371586
14170010 4 18410854377865195961
14341114 176 18408610262523372257
14386348 63 17894351081825987091
14464042 87 17989212516737887073
15961568 22 16515973673881803268
17844677 252 18410297978369955789
1813 80 17988092071085913462
18785283 64 18116716411816508012
200 152 18273211972303912011
20612939 158 18411704308890790213
20645477 70 18410854339300407943
21033648 29 18041263436242021877
21033650 10 15265969660275862483
21267235 1 18341619178926279358
21279426 13 18191301581455007685
21641784 216 18115889424817751556
21792961 116 18113905905920065078
221357 26 18336261267538775357
22289505 5 18336819814644381173
23557571 272 17095240294123182879
23559900 14 17894632574130175623
2748010 2 18051705627241237378
2871803 45 18409731721085793270
29717793 49 17561089089697480901
3060560 45 18413105078489117454
335352 9 18410859884751767454
345986 75 17987792995338479362
34797466 226 16877954836228005823
3545911 37 18259985985572308303
4073 2 18041848423625179427
42630746 31 18412825793972042770
46194498 28 17749112205213571541
5281201 14 18260266326371743613
602551 16 16371294449294007553
7495541 125 18040720289585944347
8272917 22 18341897385496174871
9981440 41 16621772165708745345
9999458 23 18335138738827566022

> <PUBCHEM_SHAPE_MULTIPOLES>
420.27
13.46
2.38
0.92
15.9
0.4
0.12
-1.28
0.83
-3.84
-0.28
1.01
0.01
0.54

> <PUBCHEM_SHAPE_SELFOVERLAP>
890.83

> <PUBCHEM_SHAPE_VOLUME>
241.6

> <PUBCHEM_COORDINATE_TYPE>
2
5
10

$$$$
