376034
  -OEChem-01171810153D

 63 66  0     0  0  0  0  0  0999 V2000
    1.2644    0.3272    1.9109 S   0  0  0  0  0  0  0  0  0  0  0  0
   -2.3116   -2.6871   -0.9310 S   0  0  0  0  0  0  0  0  0  0  0  0
   -0.0002    3.3028    0.4932 O   0  0  0  0  0  0  0  0  0  0  0  0
   -3.1297    2.2011    0.2516 O   0  0  0  0  0  0  0  0  0  0  0  0
   -0.9657    3.0381    2.5806 O   0  0  0  0  0  0  0  0  0  0  0  0
    4.5938    0.4895   -0.4129 N   0  0  0  0  0  0  0  0  0  0  0  0
   -0.6913   -1.0321    0.5881 N   0  0  0  0  0  0  0  0  0  0  0  0
   -2.7632   -0.0668   -0.1688 N   0  0  0  0  0  0  0  0  0  0  0  0
    6.0099    0.4431   -0.0229 C   0  0  0  0  0  0  0  0  0  0  0  0
    4.3218   -0.4199   -1.5350 C   0  0  0  0  0  0  0  0  0  0  0  0
    6.9172    0.8284   -1.1923 C   0  0  0  0  0  0  0  0  0  0  0  0
    5.1739   -0.0627   -2.7540 C   0  0  0  0  0  0  0  0  0  0  0  0
    6.6586   -0.0531   -2.4089 C   0  0  0  0  0  0  0  0  0  0  0  0
    3.7381    0.1646    0.7280 C   0  0  0  0  0  0  0  0  0  0  0  0
    2.3388    0.7228    0.5007 C   0  0  0  0  0  0  0  0  0  0  0  0
   -0.2945    0.2292    1.0805 C   0  0  0  0  0  0  0  0  0  0  0  0
   -1.0700    1.3232    0.9457 C   0  0  0  0  0  0  0  0  0  0  0  0
   -1.9238   -1.2246   -0.1222 C   0  0  0  0  0  0  0  0  0  0  0  0
   -2.4053    1.2043    0.3004 C   0  0  0  0  0  0  0  0  0  0  0  0
    0.1608   -2.1814    0.7647 C   0  0  0  0  0  0  0  0  0  0  0  0
   -4.0979   -0.1561   -0.7126 C   0  0  0  0  0  0  0  0  0  0  0  0
   -0.6834    2.6584    1.4654 C   0  0  0  0  0  0  0  0  0  0  0  0
    0.0308   -2.9776    1.9027 C   0  0  0  0  0  0  0  0  0  0  0  0
    1.1149   -2.4979   -0.2025 C   0  0  0  0  0  0  0  0  0  0  0  0
   -4.4602    0.6325   -1.8047 C   0  0  0  0  0  0  0  0  0  0  0  0
   -5.0249   -1.0314   -0.1463 C   0  0  0  0  0  0  0  0  0  0  0  0
    0.8549   -4.0899    2.0736 C   0  0  0  0  0  0  0  0  0  0  0  0
    1.9389   -3.6103   -0.0316 C   0  0  0  0  0  0  0  0  0  0  0  0
    1.8088   -4.4063    1.1066 C   0  0  0  0  0  0  0  0  0  0  0  0
   -5.7493    0.5461   -2.3304 C   0  0  0  0  0  0  0  0  0  0  0  0
   -6.3140   -1.1177   -0.6722 C   0  0  0  0  0  0  0  0  0  0  0  0
   -6.6761   -0.3291   -1.7642 C   0  0  0  0  0  0  0  0  0  0  0  0
    0.4453    4.6165    0.8465 C   0  0  0  0  0  0  0  0  0  0  0  0
    1.1902    5.2166   -0.3268 C   0  0  0  0  0  0  0  0  0  0  0  0
    6.1966    1.1508    0.7941 H   0  0  0  0  0  0  0  0  0  0  0  0
    6.2811   -0.5564    0.3419 H   0  0  0  0  0  0  0  0  0  0  0  0
    4.5158   -1.4624   -1.2491 H   0  0  0  0  0  0  0  0  0  0  0  0
    3.2752   -0.3611   -1.8492 H   0  0  0  0  0  0  0  0  0  0  0  0
    7.9672    0.7424   -0.8902 H   0  0  0  0  0  0  0  0  0  0  0  0
    6.7462    1.8790   -1.4593 H   0  0  0  0  0  0  0  0  0  0  0  0
    4.9873   -0.7816   -3.5598 H   0  0  0  0  0  0  0  0  0  0  0  0
    4.8796    0.9248   -3.1315 H   0  0  0  0  0  0  0  0  0  0  0  0
    6.9918   -1.0765   -2.1969 H   0  0  0  0  0  0  0  0  0  0  0  0
    7.2416    0.3052   -3.2643 H   0  0  0  0  0  0  0  0  0  0  0  0
    3.7212   -0.9165    0.9184 H   0  0  0  0  0  0  0  0  0  0  0  0
    4.1392    0.6376    1.6349 H   0  0  0  0  0  0  0  0  0  0  0  0
    2.3791    1.8131    0.3995 H   0  0  0  0  0  0  0  0  0  0  0  0
    1.8895    0.3321   -0.4147 H   0  0  0  0  0  0  0  0  0  0  0  0
   -0.7096   -2.7410    2.6626 H   0  0  0  0  0  0  0  0  0  0  0  0
    1.2217   -1.8922   -1.0984 H   0  0  0  0  0  0  0  0  0  0  0  0
   -3.7470    1.3093   -2.2683 H   0  0  0  0  0  0  0  0  0  0  0  0
   -4.7732   -1.6322    0.7241 H   0  0  0  0  0  0  0  0  0  0  0  0
    0.7536   -4.7097    2.9597 H   0  0  0  0  0  0  0  0  0  0  0  0
    2.6811   -3.8567   -0.7852 H   0  0  0  0  0  0  0  0  0  0  0  0
    2.4504   -5.2724    1.2395 H   0  0  0  0  0  0  0  0  0  0  0  0
   -6.0305    1.1579   -3.1825 H   0  0  0  0  0  0  0  0  0  0  0  0
   -7.0379   -1.7939   -0.2271 H   0  0  0  0  0  0  0  0  0  0  0  0
   -7.6801   -0.3958   -2.1730 H   0  0  0  0  0  0  0  0  0  0  0  0
    1.1112    4.5552    1.7146 H   0  0  0  0  0  0  0  0  0  0  0  0
   -0.4198    5.2418    1.0946 H   0  0  0  0  0  0  0  0  0  0  0  0
    1.5464    6.2232   -0.0907 H   0  0  0  0  0  0  0  0  0  0  0  0
    0.5430    5.2679   -1.2086 H   0  0  0  0  0  0  0  0  0  0  0  0
    2.0479    4.5922   -0.5981 H   0  0  0  0  0  0  0  0  0  0  0  0
  1 15  1  0  0  0  0
  1 16  1  0  0  0  0
  2 18  2  0  0  0  0
  3 22  1  0  0  0  0
  3 33  1  0  0  0  0
  4 19  2  0  0  0  0
  5 22  2  0  0  0  0
  6  9  1  0  0  0  0
  6 10  1  0  0  0  0
  6 14  1  0  0  0  0
  7 16  1  0  0  0  0
  7 18  1  0  0  0  0
  7 20  1  0  0  0  0
  8 18  1  0  0  0  0
  8 19  1  0  0  0  0
  8 21  1  0  0  0  0
  9 11  1  0  0  0  0
  9 35  1  0  0  0  0
  9 36  1  0  0  0  0
 10 12  1  0  0  0  0
 10 37  1  0  0  0  0
 10 38  1  0  0  0  0
 11 13  1  0  0  0  0
 11 39  1  0  0  0  0
 11 40  1  0  0  0  0
 12 13  1  0  0  0  0
 12 41  1  0  0  0  0
 12 42  1  0  0  0  0
 13 43  1  0  0  0  0
 13 44  1  0  0  0  0
 14 15  1  0  0  0  0
 14 45  1  0  0  0  0
 14 46  1  0  0  0  0
 15 47  1  0  0  0  0
 15 48  1  0  0  0  0
 16 17  2  0  0  0  0
 17 19  1  0  0  0  0
 17 22  1  0  0  0  0
 20 23  2  0  0  0  0
 20 24  1  0  0  0  0
 21 25  2  0  0  0  0
 21 26  1  0  0  0  0
 23 27  1  0  0  0  0
 23 49  1  0  0  0  0
 24 28  2  0  0  0  0
 24 50  1  0  0  0  0
 25 30  1  0  0  0  0
 25 51  1  0  0  0  0
 26 31  2  0  0  0  0
 26 52  1  0  0  0  0
 27 29  2  0  0  0  0
 27 53  1  0  0  0  0
 28 29  1  0  0  0  0
 28 54  1  0  0  0  0
 29 55  1  0  0  0  0
 30 32  2  0  0  0  0
 30 56  1  0  0  0  0
 31 32  1  0  0  0  0
 31 57  1  0  0  0  0
 32 58  1  0  0  0  0
 33 34  1  0  0  0  0
 33 59  1  0  0  0  0
 33 60  1  0  0  0  0
 34 61  1  0  0  0  0
 34 62  1  0  0  0  0
 34 63  1  0  0  0  0
M  END
> <PUBCHEM_COMPOUND_CID>
376034

> <PUBCHEM_CONFORMER_RMSD>
1

> <PUBCHEM_CONFORMER_DIVERSEORDER>
2
15
7
12
11
29
14
18
9
19
31
25
10
26
20
8
32
3
13
23
27
4
1
22
5
33
28
17
16
6
30
24
21

> <PUBCHEM_MMFF94_PARTIAL_CHARGES>
40
1 -0.33
10 0.27
14 0.27
15 0.23
16 0.21
17 0.03
18 0.5
19 0.62
2 -0.38
20 0.12
21 0.12
22 0.71
23 -0.15
24 -0.15
25 -0.15
26 -0.15
27 -0.15
28 -0.15
29 -0.15
3 -0.43
30 -0.15
31 -0.15
32 -0.15
33 0.28
4 -0.57
49 0.15
5 -0.57
50 0.15
51 0.15
52 0.15
53 0.15
54 0.15
55 0.15
56 0.15
57 0.15
58 0.15
6 -0.81
7 -0.29
8 -0.24
9 0.27

> <PUBCHEM_EFFECTIVE_ROTOR_COUNT>
10.2

> <PUBCHEM_PHARMACOPHORE_FEATURES>
9
1 17 anion
1 2 acceptor
1 4 acceptor
1 5 acceptor
1 6 cation
6 20 23 24 27 28 29 rings
6 21 25 26 30 31 32 rings
6 6 9 10 11 12 13 rings
6 7 8 16 17 18 19 rings

> <PUBCHEM_HEAVY_ATOM_COUNT>
34

> <PUBCHEM_ATOM_DEF_STEREO_COUNT>
0

> <PUBCHEM_ATOM_UDEF_STEREO_COUNT>
0

> <PUBCHEM_BOND_DEF_STEREO_COUNT>
0

> <PUBCHEM_BOND_UDEF_STEREO_COUNT>
0

> <PUBCHEM_ISOTOPIC_ATOM_COUNT>
0

> <PUBCHEM_COMPONENT_COUNT>
1

> <PUBCHEM_CACTVS_TAUTO_COUNT>
1

> <PUBCHEM_CONFORMER_ID>
0005BCE200000002

> <PUBCHEM_MMFF94_ENERGY>
134.9632

> <PUBCHEM_FEATURE_SELFOVERLAP>
45.672

> <PUBCHEM_SHAPE_FINGERPRINT>
10190206 1 18341903965602369620
10673678 19 17676482839264424390
11578080 2 17751344098418153943
12293681 160 18410294722252034722
13140716 1 17836615859627467307
133893 2 17753617836782634810
13540713 5 18053383197599595259
13911987 19 18261117382615277178
14931854 50 18413108338258382670
15444296 8 14764358110841777715
15475509 35 13757776166437186111
15664445 248 18339630196498514385
15775530 1 17474672131657221754
17492 54 18113334215043473905
17980427 23 12180136396626771307
19319366 153 18334564720660202451
20642791 239 18335979852454191273
20775438 99 17768231771922796532
22122407 14 15864366765297774252
22440779 20 16375535381601747466
22899556 105 18200886067249018166
23559900 14 18056753449810298016
3178227 256 18337952406917133027
3388396 114 18339088082027044988
4353968 344 18200317590347283510
4394409 98 18114181956331755076
484989 97 18118127106994559587
5265222 85 17969787573252545519
59755656 215 18344144795679483382
6371009 1 18189897514234576154
6669772 16 18124863809994608569

> <PUBCHEM_SHAPE_MULTIPOLES>
674.85
13.8
5.53
2.32
2.61
1.98
-0.56
0.77
-14.56
1.98
3.43
1.06
0.04
-0.75

> <PUBCHEM_SHAPE_SELFOVERLAP>
1408.74

> <PUBCHEM_SHAPE_VOLUME>
384.4

> <PUBCHEM_COORDINATE_TYPE>
2
5
10

$$$$
