16808857
  -OEChem-01171810053D

 60 62  0     0  0  0  0  0  0999 V2000
   -4.1345    0.1633    0.1544 S   0  0  0  0  0  0  0  0  0  0  0  0
    3.6333    1.4190    0.3510 S   0  0  0  0  0  0  0  0  0  0  0  0
    0.1049   -1.4042    0.0572 O   0  0  0  0  0  0  0  0  0  0  0  0
   -4.2765    0.9478   -1.0593 O   0  0  0  0  0  0  0  0  0  0  0  0
   -4.3313    0.7816    1.4537 O   0  0  0  0  0  0  0  0  0  0  0  0
    1.0596    0.7289    0.3093 N   0  0  0  0  0  0  0  0  0  0  0  0
   -0.7962    4.6849    0.0292 N   0  0  0  0  0  0  0  0  0  0  0  0
    2.7918   -1.0021    0.0626 N   0  0  0  0  0  0  0  0  0  0  0  0
    0.8316    2.1723    0.4945 C   0  0  0  0  0  0  0  0  0  0  0  0
    0.7175    2.9221   -0.8314 C   0  0  0  0  0  0  0  0  0  0  0  0
   -1.4150    0.4272    0.2629 C   0  0  0  0  0  0  0  0  0  0  0  0
    0.4454    4.4223   -0.6884 C   0  0  0  0  0  0  0  0  0  0  0  0
   -2.5388   -0.5949    0.1552 C   0  0  0  0  0  0  0  0  0  0  0  0
   -0.0158   -0.1861    0.2123 C   0  0  0  0  0  0  0  0  0  0  0  0
    2.4003    0.2401    0.2253 C   0  0  0  0  0  0  0  0  0  0  0  0
    4.1778   -1.0523    0.0324 C   0  0  0  0  0  0  0  0  0  0  0  0
    4.8206    0.1811    0.1756 C   0  0  0  0  0  0  0  0  0  0  0  0
    4.9660   -2.2128   -0.1261 C   0  0  0  0  0  0  0  0  0  0  0  0
   -5.2540   -1.1985    0.0234 C   0  0  0  0  0  0  0  0  0  0  0  0
    6.3599   -2.1083   -0.1366 C   0  0  0  0  0  0  0  0  0  0  0  0
    6.2201    0.2936    0.1655 C   0  0  0  0  0  0  0  0  0  0  0  0
   -0.7743    6.0217    0.6257 C   0  0  0  0  0  0  0  0  0  0  0  0
   -1.9475    4.5469   -0.8646 C   0  0  0  0  0  0  0  0  0  0  0  0
    6.9766   -0.8704    0.0074 C   0  0  0  0  0  0  0  0  0  0  0  0
    4.3298   -3.5594   -0.2855 C   0  0  0  0  0  0  0  0  0  0  0  0
   -5.7357   -1.8189    1.1763 C   0  0  0  0  0  0  0  0  0  0  0  0
   -5.6554   -1.6531   -1.2328 C   0  0  0  0  0  0  0  0  0  0  0  0
    7.2169   -3.3218   -0.3033 C   0  0  0  0  0  0  0  0  0  0  0  0
   -6.6187   -2.8937    1.0729 C   0  0  0  0  0  0  0  0  0  0  0  0
   -6.5385   -2.7279   -1.3360 C   0  0  0  0  0  0  0  0  0  0  0  0
   -7.0201   -3.3482   -0.1831 C   0  0  0  0  0  0  0  0  0  0  0  0
    1.5717    2.6281    1.1597 H   0  0  0  0  0  0  0  0  0  0  0  0
   -0.0937    2.3139    1.0568 H   0  0  0  0  0  0  0  0  0  0  0  0
   -0.0444    2.4625   -1.4695 H   0  0  0  0  0  0  0  0  0  0  0  0
    1.6520    2.8100   -1.3947 H   0  0  0  0  0  0  0  0  0  0  0  0
   -1.5374    0.9430    1.2208 H   0  0  0  0  0  0  0  0  0  0  0  0
   -1.5185    1.1538   -0.5460 H   0  0  0  0  0  0  0  0  0  0  0  0
    0.4568    4.9054   -1.6740 H   0  0  0  0  0  0  0  0  0  0  0  0
    1.2961    4.8421   -0.1345 H   0  0  0  0  0  0  0  0  0  0  0  0
   -2.4472   -1.1669   -0.7743 H   0  0  0  0  0  0  0  0  0  0  0  0
   -2.5011   -1.2950    0.9966 H   0  0  0  0  0  0  0  0  0  0  0  0
    6.7084    1.2567    0.2775 H   0  0  0  0  0  0  0  0  0  0  0  0
    0.0449    6.1091    1.3481 H   0  0  0  0  0  0  0  0  0  0  0  0
   -1.6997    6.2106    1.1813 H   0  0  0  0  0  0  0  0  0  0  0  0
   -0.6575    6.8084   -0.1286 H   0  0  0  0  0  0  0  0  0  0  0  0
   -2.0203    3.5340   -1.2724 H   0  0  0  0  0  0  0  0  0  0  0  0
   -1.9115    5.2546   -1.7010 H   0  0  0  0  0  0  0  0  0  0  0  0
   -2.8788    4.7197   -0.3132 H   0  0  0  0  0  0  0  0  0  0  0  0
    8.0609   -0.7860   -0.0006 H   0  0  0  0  0  0  0  0  0  0  0  0
    4.6340   -4.2289    0.5256 H   0  0  0  0  0  0  0  0  0  0  0  0
    3.2369   -3.4986   -0.2591 H   0  0  0  0  0  0  0  0  0  0  0  0
    4.6037   -4.0048   -1.2474 H   0  0  0  0  0  0  0  0  0  0  0  0
   -5.4305   -1.4850    2.1639 H   0  0  0  0  0  0  0  0  0  0  0  0
   -5.2870   -1.1897   -2.1436 H   0  0  0  0  0  0  0  0  0  0  0  0
    7.0445   -4.0324    0.5115 H   0  0  0  0  0  0  0  0  0  0  0  0
    7.0158   -3.8089   -1.2630 H   0  0  0  0  0  0  0  0  0  0  0  0
    8.2833   -3.0705   -0.2889 H   0  0  0  0  0  0  0  0  0  0  0  0
   -6.9924   -3.3780    1.9704 H   0  0  0  0  0  0  0  0  0  0  0  0
   -6.8498   -3.0833   -2.3140 H   0  0  0  0  0  0  0  0  0  0  0  0
   -7.7069   -4.1857   -0.2636 H   0  0  0  0  0  0  0  0  0  0  0  0
  1  4  2  0  0  0  0
  1  5  2  0  0  0  0
  1 13  1  0  0  0  0
  1 19  1  0  0  0  0
  2 15  1  0  0  0  0
  2 17  1  0  0  0  0
  3 14  2  0  0  0  0
  6  9  1  0  0  0  0
  6 14  1  0  0  0  0
  6 15  1  0  0  0  0
  7 12  1  0  0  0  0
  7 22  1  0  0  0  0
  7 23  1  0  0  0  0
  8 15  2  0  0  0  0
  8 16  1  0  0  0  0
  9 10  1  0  0  0  0
  9 32  1  0  0  0  0
  9 33  1  0  0  0  0
 10 12  1  0  0  0  0
 10 34  1  0  0  0  0
 10 35  1  0  0  0  0
 11 13  1  0  0  0  0
 11 14  1  0  0  0  0
 11 36  1  0  0  0  0
 11 37  1  0  0  0  0
 12 38  1  0  0  0  0
 12 39  1  0  0  0  0
 13 40  1  0  0  0  0
 13 41  1  0  0  0  0
 16 17  2  0  0  0  0
 16 18  1  0  0  0  0
 17 21  1  0  0  0  0
 18 20  2  0  0  0  0
 18 25  1  0  0  0  0
 19 26  2  0  0  0  0
 19 27  1  0  0  0  0
 20 24  1  0  0  0  0
 20 28  1  0  0  0  0
 21 24  2  0  0  0  0
 21 42  1  0  0  0  0
 22 43  1  0  0  0  0
 22 44  1  0  0  0  0
 22 45  1  0  0  0  0
 23 46  1  0  0  0  0
 23 47  1  0  0  0  0
 23 48  1  0  0  0  0
 24 49  1  0  0  0  0
 25 50  1  0  0  0  0
 25 51  1  0  0  0  0
 25 52  1  0  0  0  0
 26 29  1  0  0  0  0
 26 53  1  0  0  0  0
 27 30  2  0  0  0  0
 27 54  1  0  0  0  0
 28 55  1  0  0  0  0
 28 56  1  0  0  0  0
 28 57  1  0  0  0  0
 29 31  2  0  0  0  0
 29 58  1  0  0  0  0
 30 31  1  0  0  0  0
 30 59  1  0  0  0  0
 31 60  1  0  0  0  0
M  END
> <PUBCHEM_COMPOUND_CID>
16808857

> <PUBCHEM_CONFORMER_RMSD>
1.4

> <PUBCHEM_CONFORMER_DIVERSEORDER>
1
96
102
84
98
61
9
114
60
38
115
59
71
16
27
48
37
13
113
20
50
7
36
42
18
111
95
108
110
64
44
21
65
15
39
97
76
43
93
31
69
51
46
22
66
105
107
74
33
72
30
78
75
58
73
40
94
86
47
32
79
90
23
68
5
12
45
29
91
53
62
3
54
8
56
6
10
63
35
26
52
106
104
109
82
19
70
11
25
103
80
41
85
92
87
89
2
77
34
101
81
83
4
100
28
55
99
17
49
14
24
67
57
88
112

> <PUBCHEM_MMFF94_PARTIAL_CHARGES>
37
1 1.2
11 0.06
12 0.27
13 0.11
14 0.57
15 0.44
16 0.23
17 0.04
18 -0.14
19 -0.01
2 -0.08
20 -0.14
21 -0.15
22 0.27
23 0.27
24 -0.15
25 0.14
26 -0.15
27 -0.15
28 0.14
29 -0.15
3 -0.57
30 -0.15
31 -0.15
4 -0.65
42 0.15
49 0.15
5 -0.65
53 0.15
54 0.15
58 0.15
59 0.15
6 -0.42
60 0.15
7 -0.81
8 -0.57
9 0.3

> <PUBCHEM_EFFECTIVE_ROTOR_COUNT>
10

> <PUBCHEM_PHARMACOPHORE_FEATURES>
7
1 3 acceptor
1 4 acceptor
1 5 acceptor
1 7 cation
5 2 8 15 16 17 rings
6 16 17 18 20 21 24 rings
6 19 26 27 29 30 31 rings

> <PUBCHEM_HEAVY_ATOM_COUNT>
31

> <PUBCHEM_ATOM_DEF_STEREO_COUNT>
0

> <PUBCHEM_ATOM_UDEF_STEREO_COUNT>
0

> <PUBCHEM_BOND_DEF_STEREO_COUNT>
0

> <PUBCHEM_BOND_UDEF_STEREO_COUNT>
0

> <PUBCHEM_ISOTOPIC_ATOM_COUNT>
0

> <PUBCHEM_COMPONENT_COUNT>
1

> <PUBCHEM_CACTVS_TAUTO_COUNT>
1

> <PUBCHEM_CONFORMER_ID>
01007B9900000001

> <PUBCHEM_MMFF94_ENERGY>
71.4134

> <PUBCHEM_FEATURE_SELFOVERLAP>
35.611

> <PUBCHEM_SHAPE_FINGERPRINT>
10050765 1 18122062006318806522
10411042 1 18410012143304879945
11062273 19 17973732664266323500
11093857 51 17248939079146049565
11227688 84 18338780248662244871
11497681 19 18343027666833966926
117089 54 18408608080237127663
12061779 8 13624905559984524543
12166972 35 18271810189336117705
12516196 113 18408885156993065530
12645989 146 18411140263884388327
13248334 5 18051131698608544545
13782708 43 18130504137732043218
13835254 42 18412544314864603416
15021287 119 18270960267190861503
15320294 125 17131833209733465623
15419008 47 17822565101614687631
15803439 3 17030195209391929061
15876981 60 18261681376657696069
15890870 6 18047747102162550453
18365409 1 18044936762524880549
18608769 82 18266740191265890848
18681886 176 18339634654975124675
21049683 271 18341054129119439992
21130935 74 18202002089073639634
21236236 1 18194964037518251152
21424621 283 8790882982218030974
21682296 61 18411140251358182427
23522609 53 18126036890038440624
23559900 14 18192708063344066067
24771750 20 17465672590366872772
249057 3 18410009932626097045
255183 451 18337670927418529893
3103668 31 18115581540235044981
3627633 1 18337953389869492653
4015057 19 18189905386566323179
4046055 25 18335140860557689380
437815 12 18260545654038781943
44880568 143 17458057170915698637
46194498 28 17677042568324586180
465052 167 18202284697858120526
5969126 39 18410009893090371452
6004065 56 18264205988292839898
9555976 147 17632313245938568049
9962374 69 18124587837541254919
999808 66 18334862749131669643

> <PUBCHEM_SHAPE_MULTIPOLES>
613.11
20.14
6.73
0.99
2.89
11.2
0.03
-30.05
0.68
2.34
0.73
1.51
-0.03
0.46

> <PUBCHEM_SHAPE_SELFOVERLAP>
1262.564

> <PUBCHEM_SHAPE_VOLUME>
354

> <PUBCHEM_COORDINATE_TYPE>
2
5
10

$$$$
