46902726
  -OEChem-01171810173D

 58 62  0     1  0  0  0  0  0999 V2000
   -0.5728   -0.6089   -2.7871 S   0  0  0  0  0  0  0  0  0  0  0  0
    6.0756   -3.6780   -0.1755 F   0  0  0  0  0  0  0  0  0  0  0  0
   -1.7705    3.8725    2.1052 O   0  0  0  0  0  0  0  0  0  0  0  0
   -4.9084   -3.7806    1.0271 O   0  0  0  0  0  0  0  0  0  0  0  0
   -1.5071    1.4344   -0.4853 N   0  0  2  0  0  0  0  0  0  0  0  0
    1.3847    2.2596    0.8887 N   0  0  0  0  0  0  0  0  0  0  0  0
    2.4366    2.8322    1.4962 N   0  0  0  0  0  0  0  0  0  0  0  0
    3.4409    1.9639    1.4475 N   0  0  0  0  0  0  0  0  0  0  0  0
    0.0573    2.9989    0.7717 C   0  0  2  0  0  0  0  0  0  0  0  0
   -2.3599    1.2830    0.7167 C   0  0  2  0  0  0  0  0  0  0  0  0
   -0.8039    2.8226    2.0347 C   0  0  2  0  0  0  0  0  0  0  0  0
   -1.5461    1.4893    2.0158 C   0  0  0  0  0  0  0  0  0  0  0  0
   -0.7820    2.7189   -0.4955 C   0  0  0  0  0  0  0  0  0  0  0  0
   -2.2792    1.3160   -1.7294 C   0  0  0  0  0  0  0  0  0  0  0  0
   -3.0455   -0.0784    0.8006 C   0  0  0  0  0  0  0  0  0  0  0  0
   -1.4183    0.8771   -2.8839 C   0  0  0  0  0  0  0  0  0  0  0  0
    1.6851    1.0121    0.4351 C   0  0  0  0  0  0  0  0  0  0  0  0
   -4.4380   -0.1582    0.8262 C   0  0  0  0  0  0  0  0  0  0  0  0
   -2.2792   -1.2428    0.8513 C   0  0  0  0  0  0  0  0  0  0  0  0
    2.9971    0.8439    0.8008 C   0  0  0  0  0  0  0  0  0  0  0  0
   -5.0639   -1.4023    0.9027 C   0  0  0  0  0  0  0  0  0  0  0  0
   -2.9052   -2.4869    0.9278 C   0  0  0  0  0  0  0  0  0  0  0  0
   -1.1907    1.5245   -4.0784 C   0  0  0  0  0  0  0  0  0  0  0  0
   -4.2975   -2.5667    0.9535 C   0  0  0  0  0  0  0  0  0  0  0  0
    3.7880   -0.3178    0.5500 C   0  0  0  0  0  0  0  0  0  0  0  0
   -0.3107    0.7908   -4.9254 C   0  0  0  0  0  0  0  0  0  0  0  0
    0.1009   -0.3892   -4.3460 C   0  0  0  0  0  0  0  0  0  0  0  0
    3.5365   -1.1034   -0.5750 C   0  0  0  0  0  0  0  0  0  0  0  0
    4.8126   -0.6674    1.4296 C   0  0  0  0  0  0  0  0  0  0  0  0
    4.3091   -2.2385   -0.8201 C   0  0  0  0  0  0  0  0  0  0  0  0
    5.5853   -1.8024    1.1847 C   0  0  0  0  0  0  0  0  0  0  0  0
   -4.0644   -4.9301    1.0760 C   0  0  0  0  0  0  0  0  0  0  0  0
    5.3336   -2.5879    0.0598 C   0  0  0  0  0  0  0  0  0  0  0  0
    0.3792    4.0485    0.7042 H   0  0  0  0  0  0  0  0  0  0  0  0
   -3.1375    2.0599    0.6838 H   0  0  0  0  0  0  0  0  0  0  0  0
   -0.1918    2.8857    2.9417 H   0  0  0  0  0  0  0  0  0  0  0  0
   -0.8168    0.6827    2.1585 H   0  0  0  0  0  0  0  0  0  0  0  0
   -2.2320    1.4490    2.8729 H   0  0  0  0  0  0  0  0  0  0  0  0
   -1.4967    3.5451   -0.6157 H   0  0  0  0  0  0  0  0  0  0  0  0
   -0.1054    2.7592   -1.3582 H   0  0  0  0  0  0  0  0  0  0  0  0
   -3.0713    0.5612   -1.6535 H   0  0  0  0  0  0  0  0  0  0  0  0
   -2.8001    2.2526   -1.9703 H   0  0  0  0  0  0  0  0  0  0  0  0
   -1.2851    4.7142    2.1425 H   0  0  0  0  0  0  0  0  0  0  0  0
    0.9737    0.3770   -0.0701 H   0  0  0  0  0  0  0  0  0  0  0  0
   -5.0483    0.7399    0.7868 H   0  0  0  0  0  0  0  0  0  0  0  0
   -1.1936   -1.2030    0.8231 H   0  0  0  0  0  0  0  0  0  0  0  0
   -6.1489   -1.4583    0.9220 H   0  0  0  0  0  0  0  0  0  0  0  0
   -2.2499   -3.3506    0.9615 H   0  0  0  0  0  0  0  0  0  0  0  0
   -1.6316    2.4790   -4.3361 H   0  0  0  0  0  0  0  0  0  0  0  0
    0.0049    1.1124   -5.9093 H   0  0  0  0  0  0  0  0  0  0  0  0
    0.7653   -1.1327   -4.7632 H   0  0  0  0  0  0  0  0  0  0  0  0
    2.7537   -0.8529   -1.2866 H   0  0  0  0  0  0  0  0  0  0  0  0
    5.0244   -0.0720    2.3146 H   0  0  0  0  0  0  0  0  0  0  0  0
    4.1153   -2.8491   -1.6970 H   0  0  0  0  0  0  0  0  0  0  0  0
    6.3825   -2.0756    1.8697 H   0  0  0  0  0  0  0  0  0  0  0  0
   -3.4705   -5.0324    0.1613 H   0  0  0  0  0  0  0  0  0  0  0  0
   -3.4424   -4.9347    1.9776 H   0  0  0  0  0  0  0  0  0  0  0  0
   -4.7166   -5.8077    1.1333 H   0  0  0  0  0  0  0  0  0  0  0  0
  1 16  1  0  0  0  0
  1 27  1  0  0  0  0
  2 33  1  0  0  0  0
  3 11  1  0  0  0  0
  3 43  1  0  0  0  0
  4 24  1  0  0  0  0
  4 32  1  0  0  0  0
  5 10  1  0  0  0  0
  5 13  1  0  0  0  0
  5 14  1  0  0  0  0
  6  7  1  0  0  0  0
  6  9  1  0  0  0  0
  6 17  1  0  0  0  0
  7  8  2  0  0  0  0
  8 20  1  0  0  0  0
  9 11  1  0  0  0  0
  9 13  1  0  0  0  0
  9 34  1  0  0  0  0
 10 12  1  0  0  0  0
 10 15  1  0  0  0  0
 10 35  1  0  0  0  0
 11 12  1  0  0  0  0
 11 36  1  0  0  0  0
 12 37  1  0  0  0  0
 12 38  1  0  0  0  0
 13 39  1  0  0  0  0
 13 40  1  0  0  0  0
 14 16  1  0  0  0  0
 14 41  1  0  0  0  0
 14 42  1  0  0  0  0
 15 18  2  0  0  0  0
 15 19  1  0  0  0  0
 16 23  2  0  0  0  0
 17 20  2  0  0  0  0
 17 44  1  0  0  0  0
 18 21  1  0  0  0  0
 18 45  1  0  0  0  0
 19 22  2  0  0  0  0
 19 46  1  0  0  0  0
 20 25  1  0  0  0  0
 21 24  2  0  0  0  0
 21 47  1  0  0  0  0
 22 24  1  0  0  0  0
 22 48  1  0  0  0  0
 23 26  1  0  0  0  0
 23 49  1  0  0  0  0
 25 28  2  0  0  0  0
 25 29  1  0  0  0  0
 26 27  2  0  0  0  0
 26 50  1  0  0  0  0
 27 51  1  0  0  0  0
 28 30  1  0  0  0  0
 28 52  1  0  0  0  0
 29 31  2  0  0  0  0
 29 53  1  0  0  0  0
 30 33  2  0  0  0  0
 30 54  1  0  0  0  0
 31 33  1  0  0  0  0
 31 55  1  0  0  0  0
 32 56  1  0  0  0  0
 32 57  1  0  0  0  0
 32 58  1  0  0  0  0
M  END
> <PUBCHEM_COMPOUND_CID>
46902726

> <PUBCHEM_CONFORMER_RMSD>
1

> <PUBCHEM_CONFORMER_DIVERSEORDER>
1
16
51
11
39
49
32
30
13
33
8
38
50
54
15
26
25
47
53
41
29
28
17
36
3
37
34
31
4
22
45
12
20
19
44
27
5
21
6
10
18
52
48
42
35
46
7
9
23
24
14
2
43
40

> <PUBCHEM_MMFF94_PARTIAL_CHARGES>
45
1 -0.08
10 0.41
11 0.28
13 0.27
14 0.45
15 -0.14
16 -0.14
17 -0.3
18 -0.15
19 -0.15
2 -0.19
20 0.17
21 -0.15
22 -0.15
23 -0.15
24 0.08
25 0.05
26 -0.15
27 -0.11
28 -0.15
29 -0.15
3 -0.68
30 -0.15
31 -0.15
32 0.28
33 0.19
4 -0.36
43 0.4
44 0.15
45 0.15
46 0.15
47 0.15
48 0.15
49 0.15
5 -0.81
50 0.15
51 0.15
52 0.15
53 0.15
54 0.15
55 0.15
6 0.31
7 -0.42
8 -0.23
9 0.26

> <PUBCHEM_EFFECTIVE_ROTOR_COUNT>
7.2

> <PUBCHEM_PHARMACOPHORE_FEATURES>
9
1 3 acceptor
1 3 donor
1 4 acceptor
1 5 cation
5 1 16 23 26 27 rings
5 6 7 8 17 20 rings
6 15 18 19 21 22 24 rings
6 25 28 29 30 31 33 rings
6 5 9 10 11 12 13 rings

> <PUBCHEM_HEAVY_ATOM_COUNT>
33

> <PUBCHEM_ATOM_DEF_STEREO_COUNT>
3

> <PUBCHEM_ATOM_UDEF_STEREO_COUNT>
0

> <PUBCHEM_BOND_DEF_STEREO_COUNT>
0

> <PUBCHEM_BOND_UDEF_STEREO_COUNT>
0

> <PUBCHEM_ISOTOPIC_ATOM_COUNT>
0

> <PUBCHEM_COMPONENT_COUNT>
1

> <PUBCHEM_CACTVS_TAUTO_COUNT>
1

> <PUBCHEM_CONFORMER_ID>
02CBADC600000001

> <PUBCHEM_MMFF94_ENERGY>
83.2525

> <PUBCHEM_FEATURE_SELFOVERLAP>
45.673

> <PUBCHEM_SHAPE_FINGERPRINT>
10305334 12 17264414232485248115
10764073 3 18270971146306124613
107951 10 17692246339914409309
11477941 20 16299247717761556526
11763715 3 18046940283221334649
12422481 6 17060351681882493975
12655387 17 18270142170821834411
13965767 371 9910825146640412745
14725015 67 16185259989599244376
14844126 61 17057498372136692752
14866123 147 18198634233296341889
14910302 57 17967800639951149176
15064986 96 17202786858961316039
1813 80 16878780655623269253
19319366 153 17480581980723917705
20587220 46 17105115270251810915
21315759 227 18335972087506903850
21796203 349 17703517666366500794
25222932 49 17697048293987545823
3493558 16 10438092868254085009
4394409 98 16454573319756166826
469060 322 17489009497090517791
484985 159 18119526540082292186
5081480 168 15213856181497243831
9981440 41 15982285895051795849

> <PUBCHEM_SHAPE_MULTIPOLES>
644.04
10.87
5
4.07
10.49
3.92
7.44
15.59
-4.92
-2.94
-2.25
-1.13
-3.67
2.22

> <PUBCHEM_SHAPE_SELFOVERLAP>
1387.995

> <PUBCHEM_SHAPE_VOLUME>
358.9

> <PUBCHEM_COORDINATE_TYPE>
2
5
10

$$$$
