5335965
  -OEChem-01171809583D

 46 48  0     0  0  0  0  0  0999 V2000
    4.4043    1.9827    0.5967 O   0  0  0  0  0  0  0  0  0  0  0  0
    6.5996    0.4540   -0.4778 O   0  0  0  0  0  0  0  0  0  0  0  0
   -5.6977    1.2599   -0.3432 O   0  0  0  0  0  0  0  0  0  0  0  0
   -3.3368    2.6052    0.1923 O   0  0  0  0  0  0  0  0  0  0  0  0
   -5.6763   -1.4975   -0.6022 O   0  0  0  0  0  0  0  0  0  0  0  0
    1.4562   -3.1087    0.4855 O   0  0  0  0  0  0  0  0  0  0  0  0
    4.2875    0.6646    0.2404 C   0  0  0  0  0  0  0  0  0  0  0  0
    5.3544   -0.0793   -0.2700 C   0  0  0  0  0  0  0  0  0  0  0  0
    5.7719    2.3813    0.7254 C   0  0  0  0  0  0  0  0  0  0  0  0
    6.5775    1.8839   -0.4590 C   0  0  0  0  0  0  0  0  0  0  0  0
    2.8572   -1.2729    0.0718 C   0  0  0  0  0  0  0  0  0  0  0  0
    3.0344    0.0721    0.3975 C   0  0  0  0  0  0  0  0  0  0  0  0
    5.1797   -1.4276   -0.5825 C   0  0  0  0  0  0  0  0  0  0  0  0
    3.9295   -2.0229   -0.4122 C   0  0  0  0  0  0  0  0  0  0  0  0
   -2.1590   -0.8377    0.0678 C   0  0  0  0  0  0  0  0  0  0  0  0
    1.5547   -1.8960    0.2436 C   0  0  0  0  0  0  0  0  0  0  0  0
   -3.3299   -1.5283   -0.1998 C   0  0  0  0  0  0  0  0  0  0  0  0
   -2.1496    0.5413    0.2005 C   0  0  0  0  0  0  0  0  0  0  0  0
   -4.5306    0.5681   -0.2076 C   0  0  0  0  0  0  0  0  0  0  0  0
   -3.3436    1.2491    0.0619 C   0  0  0  0  0  0  0  0  0  0  0  0
   -4.5238   -0.8206   -0.3384 C   0  0  0  0  0  0  0  0  0  0  0  0
   -0.8977   -1.5853    0.2143 C   0  0  0  0  0  0  0  0  0  0  0  0
    0.3243   -1.0464    0.0911 C   0  0  0  0  0  0  0  0  0  0  0  0
   -6.1273    2.0297    0.7772 C   0  0  0  0  0  0  0  0  0  0  0  0
   -3.1186    3.3690   -0.9922 C   0  0  0  0  0  0  0  0  0  0  0  0
   -6.4403   -1.9379    0.5188 C   0  0  0  0  0  0  0  0  0  0  0  0
    6.1630    1.9906    1.6731 H   0  0  0  0  0  0  0  0  0  0  0  0
    5.7971    3.4745    0.7701 H   0  0  0  0  0  0  0  0  0  0  0  0
    6.1610    2.2403   -1.4094 H   0  0  0  0  0  0  0  0  0  0  0  0
    7.6127    2.2319   -0.3877 H   0  0  0  0  0  0  0  0  0  0  0  0
    2.2332    0.6733    0.8182 H   0  0  0  0  0  0  0  0  0  0  0  0
    6.0070   -2.0165   -0.9692 H   0  0  0  0  0  0  0  0  0  0  0  0
    3.8086   -3.0718   -0.6706 H   0  0  0  0  0  0  0  0  0  0  0  0
   -3.3328   -2.6105   -0.3054 H   0  0  0  0  0  0  0  0  0  0  0  0
   -1.2510    1.1043    0.4341 H   0  0  0  0  0  0  0  0  0  0  0  0
   -1.0087   -2.6421    0.4454 H   0  0  0  0  0  0  0  0  0  0  0  0
    0.4607   -0.0110   -0.1924 H   0  0  0  0  0  0  0  0  0  0  0  0
   -5.7505    1.6293    1.7250 H   0  0  0  0  0  0  0  0  0  0  0  0
   -7.2206    2.0000    0.8063 H   0  0  0  0  0  0  0  0  0  0  0  0
   -5.8211    3.0723    0.6556 H   0  0  0  0  0  0  0  0  0  0  0  0
   -3.8988    3.1651   -1.7324 H   0  0  0  0  0  0  0  0  0  0  0  0
   -2.1330    3.1480   -1.4141 H   0  0  0  0  0  0  0  0  0  0  0  0
   -3.1562    4.4292   -0.7278 H   0  0  0  0  0  0  0  0  0  0  0  0
   -5.8595   -2.6388    1.1267 H   0  0  0  0  0  0  0  0  0  0  0  0
   -7.3299   -2.4527    0.1459 H   0  0  0  0  0  0  0  0  0  0  0  0
   -6.7588   -1.0867    1.1284 H   0  0  0  0  0  0  0  0  0  0  0  0
  1  7  1  0  0  0  0
  1  9  1  0  0  0  0
  2  8  1  0  0  0  0
  2 10  1  0  0  0  0
  3 19  1  0  0  0  0
  3 24  1  0  0  0  0
  4 20  1  0  0  0  0
  4 25  1  0  0  0  0
  5 21  1  0  0  0  0
  5 26  1  0  0  0  0
  6 16  2  0  0  0  0
  7  8  2  0  0  0  0
  7 12  1  0  0  0  0
  8 13  1  0  0  0  0
  9 10  1  0  0  0  0
  9 27  1  0  0  0  0
  9 28  1  0  0  0  0
 10 29  1  0  0  0  0
 10 30  1  0  0  0  0
 11 12  2  0  0  0  0
 11 14  1  0  0  0  0
 11 16  1  0  0  0  0
 12 31  1  0  0  0  0
 13 14  2  0  0  0  0
 13 32  1  0  0  0  0
 14 33  1  0  0  0  0
 15 17  2  0  0  0  0
 15 18  1  0  0  0  0
 15 22  1  0  0  0  0
 16 23  1  0  0  0  0
 17 21  1  0  0  0  0
 17 34  1  0  0  0  0
 18 20  2  0  0  0  0
 18 35  1  0  0  0  0
 19 20  1  0  0  0  0
 19 21  2  0  0  0  0
 22 23  2  0  0  0  0
 22 36  1  0  0  0  0
 23 37  1  0  0  0  0
 24 38  1  0  0  0  0
 24 39  1  0  0  0  0
 24 40  1  0  0  0  0
 25 41  1  0  0  0  0
 25 42  1  0  0  0  0
 25 43  1  0  0  0  0
 26 44  1  0  0  0  0
 26 45  1  0  0  0  0
 26 46  1  0  0  0  0
M  END
> <PUBCHEM_COMPOUND_CID>
5335965

> <PUBCHEM_CONFORMER_RMSD>
0.8

> <PUBCHEM_CONFORMER_DIVERSEORDER>
1
30
8
18
43
35
26
3
15
32
17
12
37
5
23
28
42
41
2
39
21
4
45
40
14
20
27
34
24
19
9
36
11
31
44
13
29
7
25
33
38
22
6
16
10

> <PUBCHEM_MMFF94_PARTIAL_CHARGES>
33
1 -0.36
10 0.28
11 0.09
12 -0.15
13 -0.15
14 -0.15
15 0.03
16 0.47
17 -0.15
18 -0.15
19 0.08
2 -0.36
20 0.08
21 0.08
22 -0.18
23 -0.14
24 0.28
25 0.28
26 0.28
3 -0.36
31 0.15
32 0.15
33 0.15
34 0.15
35 0.15
36 0.15
37 0.15
4 -0.36
5 -0.36
6 -0.57
7 0.08
8 0.08
9 0.28

> <PUBCHEM_EFFECTIVE_ROTOR_COUNT>
6.8

> <PUBCHEM_PHARMACOPHORE_FEATURES>
9
1 1 acceptor
1 2 acceptor
1 3 acceptor
1 4 acceptor
1 5 acceptor
1 6 acceptor
6 1 2 7 8 9 10 rings
6 15 17 18 19 20 21 rings
6 7 8 11 12 13 14 rings

> <PUBCHEM_HEAVY_ATOM_COUNT>
26

> <PUBCHEM_ATOM_DEF_STEREO_COUNT>
0

> <PUBCHEM_ATOM_UDEF_STEREO_COUNT>
0

> <PUBCHEM_BOND_DEF_STEREO_COUNT>
1

> <PUBCHEM_BOND_UDEF_STEREO_COUNT>
0

> <PUBCHEM_ISOTOPIC_ATOM_COUNT>
0

> <PUBCHEM_COMPONENT_COUNT>
1

> <PUBCHEM_CACTVS_TAUTO_COUNT>
1

> <PUBCHEM_CONFORMER_ID>
00516B9D00000001

> <PUBCHEM_MMFF94_ENERGY>
117.0139

> <PUBCHEM_FEATURE_SELFOVERLAP>
45.726

> <PUBCHEM_SHAPE_FINGERPRINT>
10595046 47 18411697669071927555
10670039 82 18408321086385645244
11101153 10 18410855503600431701
12107183 9 17543342757330014059
12730499 353 18412268363394955962
13402501 40 18411416241524532096
14257110 125 18408603695280960814
14394314 77 18411426098622812601
14528608 73 18411980256503105806
14739800 52 18261377954450356586
14933364 13 18341898497491784183
15183329 4 18202003205163275680
15196674 1 18411981347181842066
15419008 145 18188474789227571544
15575132 122 18341889697520585159
15961568 22 18335138704552776052
17844677 252 18341337708075912718
18608769 82 18267585891142238731
19611394 137 17897457305053600027
21033648 29 18340200908122101304
21315763 129 18410853222983275390
21315764 268 18408035213404537164
221357 26 18273214222703238368
23559900 14 18341603850267563113
245318 6 17533234182848493900
2747138 104 18115041791631068347
2838139 119 18341325674141681598
335352 9 18411705414111058198
34797466 226 17846226582901480078
4073 2 18259991491267377178
44249763 50 17630593734454242674
44317340 157 17917991681118456226
46194498 28 18060146405803197006
465052 167 10809335634401718874
497634 4 17989211438964540755
5104073 3 18260266321945310643
53794403 172 18118688948931191284
550186 72 18407758127842874381
59682541 35 18187377549573880131
67856867 119 18262509282811466770
7808743 9 18337949090775274570

> <PUBCHEM_SHAPE_MULTIPOLES>
499.85
19.06
3.36
0.79
4.13
1.3
-0.01
6.82
-0.52
-0.89
-0.04
-0.04
0.18
0.64

> <PUBCHEM_SHAPE_SELFOVERLAP>
1078.25

> <PUBCHEM_SHAPE_VOLUME>
276

> <PUBCHEM_COORDINATE_TYPE>
2
5
10

$$$$
