657717
  -OEChem-01171810133D

 58 62  0     1  0  0  0  0  0999 V2000
    3.7694   -0.2387    1.5174 O   0  0  0  0  0  0  0  0  0  0  0  0
    1.7447    0.7919   -0.2439 N   0  0  0  0  0  0  0  0  0  0  0  0
   -2.7207   -0.5166   -0.0022 N   0  0  0  0  0  0  0  0  0  0  0  0
   -2.0292   -1.6776    0.0184 N   0  0  0  0  0  0  0  0  0  0  0  0
    2.6342   -3.4569    0.0851 N   0  0  0  0  0  0  0  0  0  0  0  0
    0.4125    1.0077   -0.0727 C   0  0  0  0  0  0  0  0  0  0  0  0
    0.1807    2.3655    0.0666 C   0  0  0  0  0  0  0  0  0  0  0  0
   -1.1861    2.9525    0.3227 C   0  0  0  0  0  0  0  0  0  0  0  0
   -0.6326    0.1045   -0.0405 C   0  0  0  0  0  0  0  0  0  0  0  0
   -2.3449    2.0136   -0.1170 C   0  0  0  0  0  0  0  0  0  0  0  0
    1.4496    3.0080   -0.0348 C   0  0  0  0  0  0  0  0  0  0  0  0
    2.4069    2.0033   -0.2308 C   0  0  0  0  0  0  0  0  0  0  0  0
   -1.9211    0.5853   -0.0390 C   0  0  0  0  0  0  0  0  0  0  0  0
    2.3908   -0.4902   -0.4327 C   0  0  0  0  0  0  0  0  0  0  0  0
    2.8327   -1.1206    0.8940 C   0  0  1  0  0  0  0  0  0  0  0  0
   -0.7473   -1.2866   -0.0096 C   0  0  0  0  0  0  0  0  0  0  0  0
    1.8810    4.3487    0.0278 C   0  0  0  0  0  0  0  0  0  0  0  0
    3.7714    2.2814   -0.3730 C   0  0  0  0  0  0  0  0  0  0  0  0
    3.5196   -2.4767    0.6993 C   0  0  0  0  0  0  0  0  0  0  0  0
    3.2428    4.6382   -0.1134 C   0  0  0  0  0  0  0  0  0  0  0  0
    4.1716    3.6191   -0.3113 C   0  0  0  0  0  0  0  0  0  0  0  0
   -4.1144   -0.5367   -0.0005 C   0  0  0  0  0  0  0  0  0  0  0  0
    3.2983   -4.7463   -0.0496 C   0  0  0  0  0  0  0  0  0  0  0  0
   -4.8162    0.4790   -0.6378 C   0  0  0  0  0  0  0  0  0  0  0  0
   -4.7853   -1.5726    0.6375 C   0  0  0  0  0  0  0  0  0  0  0  0
    2.3265   -5.7579   -0.6487 C   0  0  0  0  0  0  0  0  0  0  0  0
    4.5489   -4.6094   -0.9135 C   0  0  0  0  0  0  0  0  0  0  0  0
   -6.2109    0.4588   -0.6370 C   0  0  0  0  0  0  0  0  0  0  0  0
   -6.1801   -1.5931    0.6383 C   0  0  0  0  0  0  0  0  0  0  0  0
   -6.8928   -0.5773    0.0010 C   0  0  0  0  0  0  0  0  0  0  0  0
   -1.2692    3.1323    1.4029 H   0  0  0  0  0  0  0  0  0  0  0  0
   -1.2911    3.9243   -0.1728 H   0  0  0  0  0  0  0  0  0  0  0  0
   -3.2148    2.2397    0.5070 H   0  0  0  0  0  0  0  0  0  0  0  0
   -2.5694    2.2622   -1.1612 H   0  0  0  0  0  0  0  0  0  0  0  0
    3.2620   -0.3225   -1.0774 H   0  0  0  0  0  0  0  0  0  0  0  0
    1.7259   -1.1341   -1.0122 H   0  0  0  0  0  0  0  0  0  0  0  0
    1.9821   -1.2341    1.5771 H   0  0  0  0  0  0  0  0  0  0  0  0
    0.0086   -2.0551    0.0084 H   0  0  0  0  0  0  0  0  0  0  0  0
    1.1693    5.1549    0.1823 H   0  0  0  0  0  0  0  0  0  0  0  0
    4.5090    1.5015   -0.5276 H   0  0  0  0  0  0  0  0  0  0  0  0
    3.8754   -2.8320    1.6753 H   0  0  0  0  0  0  0  0  0  0  0  0
    4.4117   -2.2897    0.0914 H   0  0  0  0  0  0  0  0  0  0  0  0
    3.5783    5.6709   -0.0675 H   0  0  0  0  0  0  0  0  0  0  0  0
    5.2246    3.8666   -0.4185 H   0  0  0  0  0  0  0  0  0  0  0  0
    1.7931   -3.5601    0.6522 H   0  0  0  0  0  0  0  0  0  0  0  0
    3.5917   -5.1201    0.9398 H   0  0  0  0  0  0  0  0  0  0  0  0
    3.2654    0.4844    1.9276 H   0  0  0  0  0  0  0  0  0  0  0  0
   -4.3575    1.2538   -1.2351 H   0  0  0  0  0  0  0  0  0  0  0  0
   -4.2579   -2.3719    1.1515 H   0  0  0  0  0  0  0  0  0  0  0  0
    2.7967   -6.7435   -0.7350 H   0  0  0  0  0  0  0  0  0  0  0  0
    1.9971   -5.4542   -1.6489 H   0  0  0  0  0  0  0  0  0  0  0  0
    1.4367   -5.8708   -0.0192 H   0  0  0  0  0  0  0  0  0  0  0  0
    4.9292   -5.5998   -1.1903 H   0  0  0  0  0  0  0  0  0  0  0  0
    4.3438   -4.0699   -1.8453 H   0  0  0  0  0  0  0  0  0  0  0  0
    5.3674   -4.1065   -0.3889 H   0  0  0  0  0  0  0  0  0  0  0  0
   -6.7669    1.2367   -1.1523 H   0  0  0  0  0  0  0  0  0  0  0  0
   -6.7115   -2.3989    1.1362 H   0  0  0  0  0  0  0  0  0  0  0  0
   -7.9787   -0.5958   -0.0025 H   0  0  0  0  0  0  0  0  0  0  0  0
  1 15  1  0  0  0  0
  1 47  1  0  0  0  0
  2  6  1  0  0  0  0
  2 12  1  0  0  0  0
  2 14  1  0  0  0  0
  3  4  1  0  0  0  0
  3 13  1  0  0  0  0
  3 22  1  0  0  0  0
  4 16  2  0  0  0  0
  5 19  1  0  0  0  0
  5 23  1  0  0  0  0
  5 45  1  0  0  0  0
  6  7  2  0  0  0  0
  6  9  1  0  0  0  0
  7  8  1  0  0  0  0
  7 11  1  0  0  0  0
  8 10  1  0  0  0  0
  8 31  1  0  0  0  0
  8 32  1  0  0  0  0
  9 13  2  0  0  0  0
  9 16  1  0  0  0  0
 10 13  1  0  0  0  0
 10 33  1  0  0  0  0
 10 34  1  0  0  0  0
 11 12  1  0  0  0  0
 11 17  2  0  0  0  0
 12 18  2  0  0  0  0
 14 15  1  0  0  0  0
 14 35  1  0  0  0  0
 14 36  1  0  0  0  0
 15 19  1  0  0  0  0
 15 37  1  0  0  0  0
 16 38  1  0  0  0  0
 17 20  1  0  0  0  0
 17 39  1  0  0  0  0
 18 21  1  0  0  0  0
 18 40  1  0  0  0  0
 19 41  1  0  0  0  0
 19 42  1  0  0  0  0
 20 21  2  0  0  0  0
 20 43  1  0  0  0  0
 21 44  1  0  0  0  0
 22 24  2  0  0  0  0
 22 25  1  0  0  0  0
 23 26  1  0  0  0  0
 23 27  1  0  0  0  0
 23 46  1  0  0  0  0
 24 28  1  0  0  0  0
 24 48  1  0  0  0  0
 25 29  2  0  0  0  0
 25 49  1  0  0  0  0
 26 50  1  0  0  0  0
 26 51  1  0  0  0  0
 26 52  1  0  0  0  0
 27 53  1  0  0  0  0
 27 54  1  0  0  0  0
 27 55  1  0  0  0  0
 28 30  2  0  0  0  0
 28 56  1  0  0  0  0
 29 30  1  0  0  0  0
 29 57  1  0  0  0  0
 30 58  1  0  0  0  0
M  END
> <PUBCHEM_COMPOUND_CID>
657717

> <PUBCHEM_CONFORMER_RMSD>
0.8

> <PUBCHEM_CONFORMER_DIVERSEORDER>
1
23
17
20
19
9
12
16
13
24
7
10
5
25
3
14
21
22
8
15
11
18
6
4
2

> <PUBCHEM_MMFF94_PARTIAL_CHARGES>
38
1 -0.68
10 0.18
12 -0.15
13 -0.33
14 0.26
15 0.28
16 0.14
17 -0.15
18 -0.15
19 0.27
2 0.05
20 -0.15
21 -0.15
22 -0.02
23 0.27
24 -0.15
25 -0.15
28 -0.15
29 -0.15
3 0.59
30 -0.15
38 0.15
39 0.15
4 -0.71
40 0.15
43 0.15
44 0.15
45 0.36
47 0.4
48 0.15
49 0.15
5 -0.9
56 0.15
57 0.15
58 0.15
6 -0.15
7 -0.18
8 0.18

> <PUBCHEM_EFFECTIVE_ROTOR_COUNT>
6.4

> <PUBCHEM_PHARMACOPHORE_FEATURES>
12
1 1 acceptor
1 1 donor
1 2 cation
1 4 acceptor
1 5 cation
1 5 donor
3 23 26 27 hydrophobe
5 2 6 7 11 12 rings
5 3 4 9 13 16 rings
6 11 12 17 18 20 21 rings
6 22 24 25 28 29 30 rings
6 6 7 8 9 10 13 rings

> <PUBCHEM_HEAVY_ATOM_COUNT>
30

> <PUBCHEM_ATOM_DEF_STEREO_COUNT>
0

> <PUBCHEM_ATOM_UDEF_STEREO_COUNT>
1

> <PUBCHEM_BOND_DEF_STEREO_COUNT>
0

> <PUBCHEM_BOND_UDEF_STEREO_COUNT>
0

> <PUBCHEM_ISOTOPIC_ATOM_COUNT>
0

> <PUBCHEM_COMPONENT_COUNT>
1

> <PUBCHEM_CACTVS_TAUTO_COUNT>
1

> <PUBCHEM_CONFORMER_ID>
000A093500000001

> <PUBCHEM_MMFF94_ENERGY>
72.7949

> <PUBCHEM_FEATURE_SELFOVERLAP>
61.163

> <PUBCHEM_SHAPE_FINGERPRINT>
10411042 1 18194683657399504926
10554248 39 18337095818866478749
10622 236 17701229617145837591
11014199 57 18050289159553378346
11135926 11 18265041603928673220
11578080 2 17314206935299606692
11719270 70 18338229492089555288
11756154 67 17907302044157963782
12107183 9 18053957160577417185
12730499 353 18190747625010376489
12788726 201 17774736341464797009
131258 43 18057335994343319510
13140716 1 17908135826080268528
13757389 114 17180542884255287492
13785724 45 18197506116748744519
138480 1 18338235955967427534
14790565 3 17760088810319961293
14866123 147 17547854049591600715
15042514 8 17835241142931531089
15250474 111 18126552643297775263
15400415 2 18050568740302389933
15420108 30 17977087287416940768
15927050 60 18196374950980265486
16992752 21 18122352272988947926
16993438 75 17469042619038166626
17492 89 18339079285543761955
19319366 153 18199466756212875212
1979834 28 18342161277003610658
20028762 73 18270683190260239462
21033648 29 17764303238331601064
21133410 32 16230321579958217410
21279426 13 18189046500723872317
21421861 104 18188195606787580968
22223350 30 17911791376015130944
23559900 14 18337104579961685699
24771750 20 18115601490215041044
255183 451 18199473173258175094
335352 9 18266742578751334180
3421961 26 18410853243962207322
34934 24 18196089073925475941
38695281 34 18122062263288785672
4073 2 17897728906301118041
4144715 1 18259992570258242419
4340502 62 17168979157394002481
5104073 3 18260832644312949697
5309563 4 18195528086503583814
5385378 56 18338807822542026505
59755656 215 18335705004380383852
613672 6 17977077112238950934
6679774 75 18117259558477218066
6695519 79 17836387199431196459
6697151 62 18119782765352828287
6700243 42 17196036751690857006
70251023 43 18337115566266138889
77188 2 18266741277596860342
9777508 108 17331679553712201216

> <PUBCHEM_SHAPE_MULTIPOLES>
591.59
12.51
7.41
0.83
22.41
5.77
0.08
5.62
-0.22
-15.66
-1.22
-0.25
0.28
0.7

> <PUBCHEM_SHAPE_SELFOVERLAP>
1306.326

> <PUBCHEM_SHAPE_VOLUME>
321.1

> <PUBCHEM_COORDINATE_TYPE>
2
5
10

$$$$
