5713277
  -OEChem-01171810013D

 88 91  0     1  0  0  0  0  0999 V2000
   -1.9748   -0.3040    2.6213 O   0  0  0  0  0  0  0  0  0  0  0  0
    2.3718   -1.7693   -2.7378 O   0  0  0  0  0  0  0  0  0  0  0  0
   -2.3955   -3.1623    0.0141 O   0  0  0  0  0  0  0  0  0  0  0  0
    3.4758   -3.5567   -0.5407 O   0  0  0  0  0  0  0  0  0  0  0  0
    6.3912    3.5741   -1.0054 O   0  0  0  0  0  0  0  0  0  0  0  0
   -4.3596   -1.8487    1.2657 O   0  0  0  0  0  0  0  0  0  0  0  0
   -5.7392    2.3254   -0.9334 O   0  0  0  0  0  0  0  0  0  0  0  0
   -5.5607    2.1970    1.3662 O   0  0  0  0  0  0  0  0  0  0  0  0
    0.9757   -0.8902    1.0983 C   0  0  2  0  0  0  0  0  0  0  0  0
    0.0978   -1.5170   -0.0450 C   0  0  1  0  0  0  0  0  0  0  0  0
    2.4351   -1.4267    0.9582 C   0  0  1  0  0  0  0  0  0  0  0  0
    3.0756   -1.2025   -0.4668 C   0  0  2  0  0  0  0  0  0  0  0  0
   -1.3204   -1.0830    0.4003 C   0  0  2  0  0  0  0  0  0  0  0  0
    0.1993   -1.3710    2.3509 C   0  0  0  0  0  0  0  0  0  0  0  0
    0.5811   -0.9740   -1.3863 C   0  0  0  0  0  0  0  0  0  0  0  0
   -1.2919   -1.3407    1.9304 C   0  0  1  0  0  0  0  0  0  0  0  0
    3.7130    0.2351   -0.6411 C   0  0  1  0  0  0  0  0  0  0  0  0
    2.0332   -1.3809   -1.6154 C   0  0  0  0  0  0  0  0  0  0  0  0
    3.3987   -0.9968    2.0788 C   0  0  0  0  0  0  0  0  0  0  0  0
    0.9414    0.6675    1.1648 C   0  0  0  0  0  0  0  0  0  0  0  0
    0.1437   -3.0794   -0.1316 C   0  0  0  0  0  0  0  0  0  0  0  0
   -2.5019   -1.7693   -0.2801 C   0  0  1  0  0  0  0  0  0  0  0  0
    4.2747    0.8766    0.6319 C   0  0  0  0  0  0  0  0  0  0  0  0
    4.1421   -2.3224   -0.6434 C   0  0  0  0  0  0  0  0  0  0  0  0
    4.7857    0.2737   -1.7569 C   0  0  0  0  0  0  0  0  0  0  0  0
    4.1479    0.2697    1.8260 C   0  0  0  0  0  0  0  0  0  0  0  0
    4.9235    2.2740    0.4683 C   0  0  0  0  0  0  0  0  0  0  0  0
    5.3204    1.6768   -2.0017 C   0  0  0  0  0  0  0  0  0  0  0  0
    5.9211    2.2558   -0.7243 C   0  0  1  0  0  0  0  0  0  0  0  0
   -2.4535   -1.6001   -1.7969 C   0  0  0  0  0  0  0  0  0  0  0  0
   -3.8354   -1.2850    0.3051 C   0  0  0  0  0  0  0  0  0  0  0  0
    5.7085    2.7535    1.7185 C   0  0  0  0  0  0  0  0  0  0  0  0
    3.7974    3.3133    0.2441 C   0  0  0  0  0  0  0  0  0  0  0  0
   -4.4799   -0.0968   -0.3338 C   0  0  0  0  0  0  0  0  0  0  0  0
   -5.8138    0.0423   -0.3323 C   0  0  0  0  0  0  0  0  0  0  0  0
   -6.6048    1.1837   -0.9344 C   0  0  0  0  0  0  0  0  0  0  0  0
   -7.8798    1.5713   -0.1769 C   0  0  0  0  0  0  0  0  0  0  0  0
   -6.9457    0.8510   -2.3911 C   0  0  0  0  0  0  0  0  0  0  0  0
   -5.2934    2.7196    0.2925 C   0  0  0  0  0  0  0  0  0  0  0  0
   -4.4040    3.9162    0.1398 C   0  0  0  0  0  0  0  0  0  0  0  0
    2.3346   -2.5029    1.1396 H   0  0  0  0  0  0  0  0  0  0  0  0
   -1.4478   -0.0073    0.2194 H   0  0  0  0  0  0  0  0  0  0  0  0
    0.3942   -0.7527    3.2342 H   0  0  0  0  0  0  0  0  0  0  0  0
    0.4874   -2.3979    2.6053 H   0  0  0  0  0  0  0  0  0  0  0  0
    0.0255   -1.3851   -2.2296 H   0  0  0  0  0  0  0  0  0  0  0  0
    0.5033    0.1137   -1.4629 H   0  0  0  0  0  0  0  0  0  0  0  0
   -1.7437   -2.2838    2.2474 H   0  0  0  0  0  0  0  0  0  0  0  0
    2.9127    0.8963   -0.9934 H   0  0  0  0  0  0  0  0  0  0  0  0
    2.8498   -0.8985    3.0226 H   0  0  0  0  0  0  0  0  0  0  0  0
    4.1389   -1.7882    2.2525 H   0  0  0  0  0  0  0  0  0  0  0  0
    1.5448    1.0393    1.9989 H   0  0  0  0  0  0  0  0  0  0  0  0
    1.2932    1.1488    0.2550 H   0  0  0  0  0  0  0  0  0  0  0  0
   -0.0594    1.0695    1.3470 H   0  0  0  0  0  0  0  0  0  0  0  0
   -0.2135   -3.5778    0.7742 H   0  0  0  0  0  0  0  0  0  0  0  0
    1.1530   -3.4578   -0.2765 H   0  0  0  0  0  0  0  0  0  0  0  0
   -0.3901   -3.4670   -1.0041 H   0  0  0  0  0  0  0  0  0  0  0  0
    4.6122   -2.3027   -1.6308 H   0  0  0  0  0  0  0  0  0  0  0  0
    4.9302   -2.2690    0.1135 H   0  0  0  0  0  0  0  0  0  0  0  0
    5.6390   -0.3631   -1.4933 H   0  0  0  0  0  0  0  0  0  0  0  0
    4.3735   -0.1052   -2.6982 H   0  0  0  0  0  0  0  0  0  0  0  0
    4.5590    0.7195    2.7235 H   0  0  0  0  0  0  0  0  0  0  0  0
    6.0878    1.6502   -2.7854 H   0  0  0  0  0  0  0  0  0  0  0  0
    4.5305    2.3293   -2.3926 H   0  0  0  0  0  0  0  0  0  0  0  0
    6.7988    1.6498   -0.4603 H   0  0  0  0  0  0  0  0  0  0  0  0
   -2.9232   -0.3876    2.4315 H   0  0  0  0  0  0  0  0  0  0  0  0
   -3.4373   -1.8158   -2.2344 H   0  0  0  0  0  0  0  0  0  0  0  0
   -1.7918   -2.3228   -2.2803 H   0  0  0  0  0  0  0  0  0  0  0  0
   -2.1878   -0.5831   -2.1022 H   0  0  0  0  0  0  0  0  0  0  0  0
    5.0563    2.8496    2.5945 H   0  0  0  0  0  0  0  0  0  0  0  0
    6.1545    3.7427    1.5681 H   0  0  0  0  0  0  0  0  0  0  0  0
    6.5194    2.0603    1.9700 H   0  0  0  0  0  0  0  0  0  0  0  0
    3.0872    3.3071    1.0800 H   0  0  0  0  0  0  0  0  0  0  0  0
    3.2244    3.1237   -0.6685 H   0  0  0  0  0  0  0  0  0  0  0  0
    4.1985    4.3305    0.1685 H   0  0  0  0  0  0  0  0  0  0  0  0
   -2.7541   -3.3350    0.8998 H   0  0  0  0  0  0  0  0  0  0  0  0
    4.1431   -4.2565   -0.6414 H   0  0  0  0  0  0  0  0  0  0  0  0
    7.0686    3.7966   -0.3453 H   0  0  0  0  0  0  0  0  0  0  0  0
   -3.8266    0.6155   -0.8239 H   0  0  0  0  0  0  0  0  0  0  0  0
   -6.4185   -0.7396    0.1252 H   0  0  0  0  0  0  0  0  0  0  0  0
   -8.6749    0.8387   -0.3603 H   0  0  0  0  0  0  0  0  0  0  0  0
   -7.7530    1.6106    0.9085 H   0  0  0  0  0  0  0  0  0  0  0  0
   -8.2443    2.5547   -0.4959 H   0  0  0  0  0  0  0  0  0  0  0  0
   -6.0384    0.6678   -2.9795 H   0  0  0  0  0  0  0  0  0  0  0  0
   -7.5909   -0.0309   -2.4671 H   0  0  0  0  0  0  0  0  0  0  0  0
   -7.4546    1.6951   -2.8711 H   0  0  0  0  0  0  0  0  0  0  0  0
   -4.9638    4.7394   -0.3109 H   0  0  0  0  0  0  0  0  0  0  0  0
   -3.5373    3.6572   -0.4736 H   0  0  0  0  0  0  0  0  0  0  0  0
   -4.0509    4.2332    1.1252 H   0  0  0  0  0  0  0  0  0  0  0  0
  1 16  1  0  0  0  0
  1 65  1  0  0  0  0
  2 18  2  0  0  0  0
  3 22  1  0  0  0  0
  3 75  1  0  0  0  0
  4 24  1  0  0  0  0
  4 76  1  0  0  0  0
  5 29  1  0  0  0  0
  5 77  1  0  0  0  0
  6 31  2  0  0  0  0
  7 36  1  0  0  0  0
  7 39  1  0  0  0  0
  8 39  2  0  0  0  0
  9 10  1  0  0  0  0
  9 11  1  0  0  0  0
  9 14  1  0  0  0  0
  9 20  1  0  0  0  0
 10 13  1  0  0  0  0
 10 15  1  0  0  0  0
 10 21  1  0  0  0  0
 11 12  1  0  0  0  0
 11 19  1  0  0  0  0
 11 41  1  0  0  0  0
 12 17  1  0  0  0  0
 12 18  1  0  0  0  0
 12 24  1  0  0  0  0
 13 16  1  0  0  0  0
 13 22  1  0  0  0  0
 13 42  1  0  0  0  0
 14 16  1  0  0  0  0
 14 43  1  0  0  0  0
 14 44  1  0  0  0  0
 15 18  1  0  0  0  0
 15 45  1  0  0  0  0
 15 46  1  0  0  0  0
 16 47  1  0  0  0  0
 17 23  1  0  0  0  0
 17 25  1  0  0  0  0
 17 48  1  0  0  0  0
 19 26  1  0  0  0  0
 19 49  1  0  0  0  0
 19 50  1  0  0  0  0
 20 51  1  0  0  0  0
 20 52  1  0  0  0  0
 20 53  1  0  0  0  0
 21 54  1  0  0  0  0
 21 55  1  0  0  0  0
 21 56  1  0  0  0  0
 22 30  1  0  0  0  0
 22 31  1  0  0  0  0
 23 26  2  0  0  0  0
 23 27  1  0  0  0  0
 24 57  1  0  0  0  0
 24 58  1  0  0  0  0
 25 28  1  0  0  0  0
 25 59  1  0  0  0  0
 25 60  1  0  0  0  0
 26 61  1  0  0  0  0
 27 29  1  0  0  0  0
 27 32  1  0  0  0  0
 27 33  1  0  0  0  0
 28 29  1  0  0  0  0
 28 62  1  0  0  0  0
 28 63  1  0  0  0  0
 29 64  1  0  0  0  0
 30 66  1  0  0  0  0
 30 67  1  0  0  0  0
 30 68  1  0  0  0  0
 31 34  1  0  0  0  0
 32 69  1  0  0  0  0
 32 70  1  0  0  0  0
 32 71  1  0  0  0  0
 33 72  1  0  0  0  0
 33 73  1  0  0  0  0
 33 74  1  0  0  0  0
 34 35  2  0  0  0  0
 34 78  1  0  0  0  0
 35 36  1  0  0  0  0
 35 79  1  0  0  0  0
 36 37  1  0  0  0  0
 36 38  1  0  0  0  0
 37 80  1  0  0  0  0
 37 81  1  0  0  0  0
 37 82  1  0  0  0  0
 38 83  1  0  0  0  0
 38 84  1  0  0  0  0
 38 85  1  0  0  0  0
 39 40  1  0  0  0  0
 40 86  1  0  0  0  0
 40 87  1  0  0  0  0
 40 88  1  0  0  0  0
M  END
> <PUBCHEM_COMPOUND_CID>
5713277

> <PUBCHEM_CONFORMER_RMSD>
1

> <PUBCHEM_CONFORMER_DIVERSEORDER>
48
140
83
45
141
92
144
121
101
68
195
156
161
114
15
51
49
53
199
184
109
123
126
162
4
28
130
191
7
43
166
133
197
11
112
55
147
81
25
93
10
18
78
105
124
207
77
90
117
50
84
188
128
122
152
189
40
16
136
75
88
59
96
104
169
37
201
139
110
73
58
24
193
134
72
165
31
194
54
30
167
202
95
157
137
42
39
200
190
29
69
52
153
148
13
209
106
46
35
179
70
120
168
41
175
111
17
177
205
94
89
203
129
210
2
143
100
131
164
12
116
211
38
74
208
155
76
82
3
204
66
80
86
185
21
163
171
6
145
159
99
172
149
151
56
186
32
97
154
214
150
57
119
22
182
65
62
160
183
174
115
132
85
181
135
158
14
215
187
64
142
67
118
1
206
61
113
47
146
180
213
33
60
91
198
212
20
173
79
44
170
34
108
196
87
127
9
178
192
5
216
63
19
98
71
8
103
138
107
125
23
176
26
102
36
27

> <PUBCHEM_MMFF94_PARTIAL_CHARGES>
33
1 -0.68
12 0.06
15 0.06
16 0.28
17 0.14
18 0.45
19 0.14
2 -0.57
22 0.34
23 -0.28
24 0.28
26 -0.29
27 0.14
29 0.28
3 -0.68
31 0.49
34 -0.14
35 -0.29
36 0.42
39 0.66
4 -0.68
40 0.06
5 -0.68
6 -0.57
61 0.15
65 0.4
7 -0.43
75 0.4
76 0.4
77 0.4
78 0.15
79 0.15
8 -0.57

> <PUBCHEM_EFFECTIVE_ROTOR_COUNT>
8.8

> <PUBCHEM_PHARMACOPHORE_FEATURES>
17
1 1 acceptor
1 1 donor
1 2 acceptor
1 3 acceptor
1 3 donor
1 4 acceptor
1 4 donor
1 5 acceptor
1 5 donor
1 6 acceptor
1 8 acceptor
3 27 32 33 hydrophobe
3 36 37 38 hydrophobe
5 9 10 13 14 16 rings
6 11 12 17 19 23 26 rings
6 17 23 25 27 28 29 rings
6 9 10 11 12 15 18 rings

> <PUBCHEM_HEAVY_ATOM_COUNT>
40

> <PUBCHEM_ATOM_DEF_STEREO_COUNT>
5

> <PUBCHEM_ATOM_UDEF_STEREO_COUNT>
4

> <PUBCHEM_BOND_DEF_STEREO_COUNT>
1

> <PUBCHEM_BOND_UDEF_STEREO_COUNT>
0

> <PUBCHEM_ISOTOPIC_ATOM_COUNT>
0

> <PUBCHEM_COMPONENT_COUNT>
1

> <PUBCHEM_CACTVS_TAUTO_COUNT>
2

> <PUBCHEM_CONFORMER_ID>
00572D7D00000030

> <PUBCHEM_MMFF94_ENERGY>
171.7731

> <PUBCHEM_FEATURE_SELFOVERLAP>
86.397

> <PUBCHEM_SHAPE_FINGERPRINT>
10190206 1 17845951713780149864
10319926 262 11819260132234967895
10554248 39 17846224306437074319
10556698 54 17130121136985396025
10675989 125 18339081475792817666
11093857 51 16056598712398396494
11377469 6 13110964254127597427
11411753 29 18190486941928304051
11578080 2 18335424594776861822
11578821 258 17609786658485504028
11991303 11 17203321265269295975
12047536 79 14056991715737591446
12422481 6 14418133985467282587
12633257 1 15213023777610906067
1361 4 10735292360650000621
13627167 48 18271817770006681705
13690498 29 17273409702627844711
13782708 43 15122923189956970245
13911987 19 16988567922565236647
14347332 77 10519992573514519651
14705955 166 17026570497158260984
14739800 52 18188198824118485993
14790565 3 18410572843165066601
14950920 106 11746932067058294039
15001296 14 18334572469245116225
15082195 135 18060140907827916928
15163728 17 18410578383240439651
15183329 4 16630520701375442787
15352257 5 9223227455814211589
15475509 35 8358262544489288980
15684393 108 13470401236265639753
15840311 113 17749380434975247351
15968369 153 18200019763771044217
16112460 7 18261673684218404517
16708801 149 18196644112771002705
19438510 23 18186802503953329193
20691028 202 18198346157240227025
20715895 44 18341607161850469296
21033648 29 18040719211971360622
21424621 283 18113619006024879587
21599406 157 16272205289094997261
22121540 332 18130776872318944344
22122407 14 17897169228691335064
23559900 14 18343023264208528650
23569914 152 16483339940935833684
23569914 2 17829564566588809357
2748736 6 18408595947133858261
2838139 119 18265896861494163145
3918712 181 18411971447968838973
392239 28 15719663363753824746
4058900 60 18409172125412731426
4144715 1 18261402186123642603
439807 62 10735881698898059109
44249763 50 17845076540635105161
50677037 204 18408045096035452461
5104073 3 15791733043982607675
57527293 21 11458719300510145379
6523845 18 16733267824775520450

> <PUBCHEM_SHAPE_MULTIPOLES>
776.23
17.85
4.18
2.24
20.01
2.07
-0.04
18.32
4.93
-1.43
0.19
-1
-0.37
0.48

> <PUBCHEM_SHAPE_SELFOVERLAP>
1649.625

> <PUBCHEM_SHAPE_VOLUME>
428.3

> <PUBCHEM_COORDINATE_TYPE>
2
5
10

$$$$
