46903214
  -OEChem-01171810183D

 78 82  0     1  0  0  0  0  0999 V2000
    4.5134    0.4879    0.3738 S   0  0  0  0  0  0  0  0  0  0  0  0
   -1.5534    1.4937   -0.4629 O   0  0  0  0  0  0  0  0  0  0  0  0
   -1.8013   -0.5705   -2.3008 O   0  0  0  0  0  0  0  0  0  0  0  0
    2.2382    3.4677    0.3985 O   0  0  0  0  0  0  0  0  0  0  0  0
    2.1404    1.6632   -4.6131 O   0  0  0  0  0  0  0  0  0  0  0  0
    5.3601    1.3752    1.1499 O   0  0  0  0  0  0  0  0  0  0  0  0
    4.4802    0.6167   -1.0715 O   0  0  0  0  0  0  0  0  0  0  0  0
   -1.9759    0.9863    1.7368 O   0  0  0  0  0  0  0  0  0  0  0  0
   -1.3441   -2.6425   -1.4222 O   0  0  0  0  0  0  0  0  0  0  0  0
   -6.3806    3.0659    1.6692 O   0  0  0  0  0  0  0  0  0  0  0  0
   -4.4158   -4.4981   -0.0934 O   0  0  0  0  0  0  0  0  0  0  0  0
    1.3308    1.9740   -1.1278 N   0  0  0  0  0  0  0  0  0  0  0  0
    1.2464    1.5586   -2.4754 N   0  0  0  0  0  0  0  0  0  0  0  0
    2.9030    0.5426    1.0063 N   0  0  1  0  0  0  0  0  0  0  0  0
   -3.1078    2.6861    0.6358 N   0  0  0  0  0  0  0  0  0  0  0  0
   -3.3822   -2.1710   -2.4258 N   0  0  0  0  0  0  0  0  0  0  0  0
    0.7883    1.0445   -0.1188 C   0  0  1  0  0  0  0  0  0  0  0  0
   -0.5705    0.4554   -0.5083 C   0  0  2  0  0  0  0  0  0  0  0  0
   -0.5086   -0.1209   -1.9132 C   0  0  2  0  0  0  0  0  0  0  0  0
   -0.0138    0.9428   -2.8759 C   0  0  0  0  0  0  0  0  0  0  0  0
    1.8196   -0.0440    0.2023 C   0  0  0  0  0  0  0  0  0  0  0  0
    2.1538    3.0205   -0.7454 C   0  0  0  0  0  0  0  0  0  0  0  0
    2.1343    2.0151   -3.4336 C   0  0  0  0  0  0  0  0  0  0  0  0
    3.0483    3.5688   -1.7805 C   0  0  0  0  0  0  0  0  0  0  0  0
    2.7362    0.2813    2.4638 C   0  0  0  0  0  0  0  0  0  0  0  0
    3.0834    3.0591   -3.0083 C   0  0  0  0  0  0  0  0  0  0  0  0
   -2.1931    1.6588    0.7341 C   0  0  0  0  0  0  0  0  0  0  0  0
    5.0129   -1.1709    0.7420 C   0  0  0  0  0  0  0  0  0  0  0  0
   -2.1068   -1.8714   -1.9953 C   0  0  0  0  0  0  0  0  0  0  0  0
    2.8653    1.5229    3.2284 C   0  0  0  0  0  0  0  0  0  0  0  0
    5.9830   -1.4067    1.7161 C   0  0  0  0  0  0  0  0  0  0  0  0
    4.4384   -2.2411    0.0562 C   0  0  0  0  0  0  0  0  0  0  0  0
   -3.9510    3.1165    1.7270 C   0  0  0  0  0  0  0  0  0  0  0  0
   -4.0035   -3.4639   -2.2542 C   0  0  0  0  0  0  0  0  0  0  0  0
    6.3786   -2.7128    2.0044 C   0  0  0  0  0  0  0  0  0  0  0  0
    4.8341   -3.5471    0.3445 C   0  0  0  0  0  0  0  0  0  0  0  0
    5.8041   -3.7831    1.3187 C   0  0  0  0  0  0  0  0  0  0  0  0
    2.9704    2.5392    3.8588 C   0  0  0  0  0  0  0  0  0  0  0  0
   -5.2361    2.3421    1.7833 C   0  0  0  0  0  0  0  0  0  0  0  0
   -4.7959   -3.5421   -0.9813 C   0  0  0  0  0  0  0  0  0  0  0  0
    6.2273   -5.1795    1.6270 C   0  0  0  0  0  0  0  0  0  0  0  0
   -5.5227    1.0048    1.9308 C   0  0  0  0  0  0  0  0  0  0  0  0
   -5.8670   -2.8291   -0.4950 C   0  0  0  0  0  0  0  0  0  0  0  0
   -6.9339    0.9002    1.9055 C   0  0  0  0  0  0  0  0  0  0  0  0
   -7.4092    2.1811    1.7445 C   0  0  0  0  0  0  0  0  0  0  0  0
   -6.1639   -3.3824    0.7735 C   0  0  0  0  0  0  0  0  0  0  0  0
   -5.2533   -4.3942    0.9716 C   0  0  0  0  0  0  0  0  0  0  0  0
    0.6329    1.6390    0.7916 H   0  0  0  0  0  0  0  0  0  0  0  0
   -0.8586   -0.3493    0.1797 H   0  0  0  0  0  0  0  0  0  0  0  0
    0.2104   -0.9500   -1.9480 H   0  0  0  0  0  0  0  0  0  0  0  0
   -0.7511    1.7481   -2.9924 H   0  0  0  0  0  0  0  0  0  0  0  0
    0.0889    0.5062   -3.8768 H   0  0  0  0  0  0  0  0  0  0  0  0
    2.2058   -0.4603   -0.7322 H   0  0  0  0  0  0  0  0  0  0  0  0
    1.3583   -0.8857    0.7316 H   0  0  0  0  0  0  0  0  0  0  0  0
    3.7269    4.3634   -1.4905 H   0  0  0  0  0  0  0  0  0  0  0  0
    1.7464   -0.1417    2.6725 H   0  0  0  0  0  0  0  0  0  0  0  0
    3.4541   -0.4631    2.8168 H   0  0  0  0  0  0  0  0  0  0  0  0
    3.7733    3.4465   -3.7499 H   0  0  0  0  0  0  0  0  0  0  0  0
   -3.2023    3.1568   -0.2591 H   0  0  0  0  0  0  0  0  0  0  0  0
   -3.9188   -1.4360   -2.8766 H   0  0  0  0  0  0  0  0  0  0  0  0
    6.4444   -0.5928    2.2673 H   0  0  0  0  0  0  0  0  0  0  0  0
    3.6963   -2.0847   -0.7193 H   0  0  0  0  0  0  0  0  0  0  0  0
   -3.4103    2.9918    2.6714 H   0  0  0  0  0  0  0  0  0  0  0  0
   -4.1498    4.1835    1.5837 H   0  0  0  0  0  0  0  0  0  0  0  0
   -4.6685   -3.6240   -3.1091 H   0  0  0  0  0  0  0  0  0  0  0  0
   -3.2308   -4.2401   -2.2721 H   0  0  0  0  0  0  0  0  0  0  0  0
    7.1336   -2.8841    2.7672 H   0  0  0  0  0  0  0  0  0  0  0  0
    4.3811   -4.3726   -0.1983 H   0  0  0  0  0  0  0  0  0  0  0  0
    3.0637    3.4413    4.4170 H   0  0  0  0  0  0  0  0  0  0  0  0
    5.5992   -5.5957    2.4209 H   0  0  0  0  0  0  0  0  0  0  0  0
    6.1467   -5.8212    0.7429 H   0  0  0  0  0  0  0  0  0  0  0  0
    7.2726   -5.2130    1.9525 H   0  0  0  0  0  0  0  0  0  0  0  0
   -4.8085    0.2018    2.0431 H   0  0  0  0  0  0  0  0  0  0  0  0
   -6.3716   -2.0116   -0.9898 H   0  0  0  0  0  0  0  0  0  0  0  0
   -7.5298    0.0033    1.9932 H   0  0  0  0  0  0  0  0  0  0  0  0
   -8.3988    2.6073    1.6688 H   0  0  0  0  0  0  0  0  0  0  0  0
   -6.9434   -3.0806    1.4579 H   0  0  0  0  0  0  0  0  0  0  0  0
   -5.0776   -5.0953    1.7743 H   0  0  0  0  0  0  0  0  0  0  0  0
  1  6  2  0  0  0  0
  1  7  2  0  0  0  0
  1 14  1  0  0  0  0
  1 28  1  0  0  0  0
  2 18  1  0  0  0  0
  2 27  1  0  0  0  0
  3 19  1  0  0  0  0
  3 29  1  0  0  0  0
  4 22  2  0  0  0  0
  5 23  2  0  0  0  0
  8 27  2  0  0  0  0
  9 29  2  0  0  0  0
 10 39  1  0  0  0  0
 10 45  1  0  0  0  0
 11 40  1  0  0  0  0
 11 47  1  0  0  0  0
 12 13  1  0  0  0  0
 12 17  1  0  0  0  0
 12 22  1  0  0  0  0
 13 20  1  0  0  0  0
 13 23  1  0  0  0  0
 14 21  1  0  0  0  0
 14 25  1  0  0  0  0
 15 27  1  0  0  0  0
 15 33  1  0  0  0  0
 15 59  1  0  0  0  0
 16 29  1  0  0  0  0
 16 34  1  0  0  0  0
 16 60  1  0  0  0  0
 17 18  1  0  0  0  0
 17 21  1  0  0  0  0
 17 48  1  0  0  0  0
 18 19  1  0  0  0  0
 18 49  1  0  0  0  0
 19 20  1  0  0  0  0
 19 50  1  0  0  0  0
 20 51  1  0  0  0  0
 20 52  1  0  0  0  0
 21 53  1  0  0  0  0
 21 54  1  0  0  0  0
 22 24  1  0  0  0  0
 23 26  1  0  0  0  0
 24 26  2  0  0  0  0
 24 55  1  0  0  0  0
 25 30  1  0  0  0  0
 25 56  1  0  0  0  0
 25 57  1  0  0  0  0
 26 58  1  0  0  0  0
 28 31  2  0  0  0  0
 28 32  1  0  0  0  0
 30 38  3  0  0  0  0
 31 35  1  0  0  0  0
 31 61  1  0  0  0  0
 32 36  2  0  0  0  0
 32 62  1  0  0  0  0
 33 39  1  0  0  0  0
 33 63  1  0  0  0  0
 33 64  1  0  0  0  0
 34 40  1  0  0  0  0
 34 65  1  0  0  0  0
 34 66  1  0  0  0  0
 35 37  2  0  0  0  0
 35 67  1  0  0  0  0
 36 37  1  0  0  0  0
 36 68  1  0  0  0  0
 37 41  1  0  0  0  0
 38 69  1  0  0  0  0
 39 42  2  0  0  0  0
 40 43  2  0  0  0  0
 41 70  1  0  0  0  0
 41 71  1  0  0  0  0
 41 72  1  0  0  0  0
 42 44  1  0  0  0  0
 42 73  1  0  0  0  0
 43 46  1  0  0  0  0
 43 74  1  0  0  0  0
 44 45  2  0  0  0  0
 44 75  1  0  0  0  0
 45 76  1  0  0  0  0
 46 47  2  0  0  0  0
 46 77  1  0  0  0  0
 47 78  1  0  0  0  0
M  END
> <PUBCHEM_COMPOUND_CID>
46903214

> <PUBCHEM_CONFORMER_RMSD>
1.4

> <PUBCHEM_CONFORMER_DIVERSEORDER>
1
93
48
27
73
78
21
47
16
54
84
69
57
9
28
91
68
90
92
31
82
77
39
70
71
56
67
24
98
62
5
7
49
35
100
81
14
13
25
64
44
46
66
29
6
95
86
88
75
79
85
11
60
41
43
65
23
33
80
76
87
4
37
74
97
61
42
52
45
17
26
15
51
20
63
101
89
72
32
2
10
58
50
94
22
8
30
96
19
99
36
12
59
83
53
18
3
38
34
55
40

> <PUBCHEM_MMFF94_PARTIAL_CHARGES>
62
1 1.45
10 -0.28
11 -0.28
12 -0.36
13 -0.36
14 -0.85
15 -0.73
16 -0.73
17 0.3
18 0.28
19 0.28
2 -0.43
20 0.3
21 0.36
22 0.62
23 0.62
24 -0.14
25 0.56
26 -0.14
27 0.78
28 -0.01
29 0.78
3 -0.43
30 -0.2
31 -0.15
32 -0.15
33 0.48
34 0.48
35 -0.15
36 -0.15
37 -0.14
38 -0.18
39 -0.04
4 -0.57
40 -0.04
41 0.14
42 -0.15
43 -0.15
44 -0.15
45 -0.01
46 -0.15
47 -0.01
5 -0.57
55 0.15
58 0.15
59 0.37
6 -0.65
60 0.37
61 0.15
62 0.15
67 0.15
68 0.15
69 0.18
7 -0.65
73 0.15
74 0.15
75 0.15
76 0.15
77 0.15
78 0.15
8 -0.57
9 -0.57

> <PUBCHEM_EFFECTIVE_ROTOR_COUNT>
15.8

> <PUBCHEM_PHARMACOPHORE_FEATURES>
16
1 10 acceptor
1 11 acceptor
1 15 donor
1 16 donor
1 38 hydrophobe
1 4 acceptor
1 5 acceptor
1 6 acceptor
1 7 acceptor
1 8 acceptor
1 9 acceptor
5 10 39 42 44 45 rings
5 11 40 43 46 47 rings
6 12 13 17 18 19 20 rings
6 12 13 22 23 24 26 rings
6 28 31 32 35 36 37 rings

> <PUBCHEM_HEAVY_ATOM_COUNT>
47

> <PUBCHEM_ATOM_DEF_STEREO_COUNT>
3

> <PUBCHEM_ATOM_UDEF_STEREO_COUNT>
0

> <PUBCHEM_BOND_DEF_STEREO_COUNT>
0

> <PUBCHEM_BOND_UDEF_STEREO_COUNT>
0

> <PUBCHEM_ISOTOPIC_ATOM_COUNT>
0

> <PUBCHEM_COMPONENT_COUNT>
1

> <PUBCHEM_CACTVS_TAUTO_COUNT>
4

> <PUBCHEM_CONFORMER_ID>
02CBAFAE00000001

> <PUBCHEM_MMFF94_ENERGY>
74.7062

> <PUBCHEM_FEATURE_SELFOVERLAP>
81.25

> <PUBCHEM_SHAPE_FINGERPRINT>
11227688 84 16806995555358500202
11387372 6 18196646307172353407
11399939 17 18337117851078288582
12422481 6 16844734286606554399
131258 38 18335978740221445512
13751561 76 16702037339470423445
25223398 141 18201439207612386945
44880168 125 18118110378007173786
563151 248 18340769222078575843

> <PUBCHEM_SHAPE_MULTIPOLES>
887.49
17.77
6.67
3.99
12.95
6.62
-1.89
13.36
13.56
1.22
0.33
-1.57
-3.07
-7.74

> <PUBCHEM_SHAPE_SELFOVERLAP>
1883.911

> <PUBCHEM_SHAPE_VOLUME>
493.7

> <PUBCHEM_COORDINATE_TYPE>
2
5
10

$$$$
