367978
  -OEChem-01171810203D

 40 42  0     0  0  0  0  0  0999 V2000
    6.0526    0.0737    0.6624 F   0  0  0  0  0  0  0  0  0  0  0  0
   -1.6301    2.5564   -1.6880 O   0  0  0  0  0  0  0  0  0  0  0  0
   -0.1071    0.3477    1.9132 O   0  0  0  0  0  0  0  0  0  0  0  0
   -0.2716    1.1360   -0.3405 C   0  0  0  0  0  0  0  0  0  0  0  0
    0.8978    1.6196   -0.8259 C   0  0  0  0  0  0  0  0  0  0  0  0
   -1.5756    1.6626   -0.8503 C   0  0  0  0  0  0  0  0  0  0  0  0
   -0.1716    0.0794    0.7181 C   0  0  0  0  0  0  0  0  0  0  0  0
    2.2406    1.2168   -0.4385 C   0  0  0  0  0  0  0  0  0  0  0  0
   -2.8237    1.0979   -0.2845 C   0  0  0  0  0  0  0  0  0  0  0  0
   -0.1255   -1.3360    0.2924 C   0  0  0  0  0  0  0  0  0  0  0  0
    2.8900    1.8709    0.6084 C   0  0  0  0  0  0  0  0  0  0  0  0
    2.8790    0.1764   -1.1135 C   0  0  0  0  0  0  0  0  0  0  0  0
   -3.3823    1.6901    0.8314 C   0  0  0  0  0  0  0  0  0  0  0  0
   -0.1758   -1.6362   -1.0566 C   0  0  0  0  0  0  0  0  0  0  0  0
   -3.3939   -0.0044   -0.8906 C   0  0  0  0  0  0  0  0  0  0  0  0
   -0.0318   -2.3246    1.2547 C   0  0  0  0  0  0  0  0  0  0  0  0
    4.1777    1.4847    0.9803 C   0  0  0  0  0  0  0  0  0  0  0  0
    4.1668   -0.2099   -0.7416 C   0  0  0  0  0  0  0  0  0  0  0  0
   -4.5578    1.1589    1.3620 C   0  0  0  0  0  0  0  0  0  0  0  0
   -0.1304   -2.9715   -1.4571 C   0  0  0  0  0  0  0  0  0  0  0  0
   -4.5694   -0.5356   -0.3599 C   0  0  0  0  0  0  0  0  0  0  0  0
    0.0135   -3.6599    0.8541 C   0  0  0  0  0  0  0  0  0  0  0  0
    4.8161    0.4444    0.3052 C   0  0  0  0  0  0  0  0  0  0  0  0
   -5.1514    0.0460    0.7664 C   0  0  0  0  0  0  0  0  0  0  0  0
   -0.0359   -3.9835   -0.5018 C   0  0  0  0  0  0  0  0  0  0  0  0
    0.8837    2.3908   -1.5937 H   0  0  0  0  0  0  0  0  0  0  0  0
    2.4056    2.6836    1.1445 H   0  0  0  0  0  0  0  0  0  0  0  0
    2.3942   -0.3367   -1.9399 H   0  0  0  0  0  0  0  0  0  0  0  0
   -2.9249    2.5568    1.2996 H   0  0  0  0  0  0  0  0  0  0  0  0
   -0.2546   -0.8888   -1.8383 H   0  0  0  0  0  0  0  0  0  0  0  0
   -2.9526   -0.4575   -1.7731 H   0  0  0  0  0  0  0  0  0  0  0  0
    0.0080   -2.0970    2.3158 H   0  0  0  0  0  0  0  0  0  0  0  0
    4.6835    1.9936    1.7955 H   0  0  0  0  0  0  0  0  0  0  0  0
    4.6650   -1.0182   -1.2685 H   0  0  0  0  0  0  0  0  0  0  0  0
   -5.0109    1.6117    2.2391 H   0  0  0  0  0  0  0  0  0  0  0  0
   -0.1701   -3.2241   -2.5127 H   0  0  0  0  0  0  0  0  0  0  0  0
   -5.0324   -1.4011   -0.8248 H   0  0  0  0  0  0  0  0  0  0  0  0
    0.0871   -4.4480    1.5979 H   0  0  0  0  0  0  0  0  0  0  0  0
   -6.0669   -0.3674    1.1793 H   0  0  0  0  0  0  0  0  0  0  0  0
   -0.0009   -5.0232   -0.8137 H   0  0  0  0  0  0  0  0  0  0  0  0
  1 23  1  0  0  0  0
  2  6  2  0  0  0  0
  3  7  2  0  0  0  0
  4  5  2  0  0  0  0
  4  6  1  0  0  0  0
  4  7  1  0  0  0  0
  5  8  1  0  0  0  0
  5 26  1  0  0  0  0
  6  9  1  0  0  0  0
  7 10  1  0  0  0  0
  8 11  2  0  0  0  0
  8 12  1  0  0  0  0
  9 13  2  0  0  0  0
  9 15  1  0  0  0  0
 10 14  2  0  0  0  0
 10 16  1  0  0  0  0
 11 17  1  0  0  0  0
 11 27  1  0  0  0  0
 12 18  2  0  0  0  0
 12 28  1  0  0  0  0
 13 19  1  0  0  0  0
 13 29  1  0  0  0  0
 14 20  1  0  0  0  0
 14 30  1  0  0  0  0
 15 21  2  0  0  0  0
 15 31  1  0  0  0  0
 16 22  2  0  0  0  0
 16 32  1  0  0  0  0
 17 23  2  0  0  0  0
 17 33  1  0  0  0  0
 18 23  1  0  0  0  0
 18 34  1  0  0  0  0
 19 24  2  0  0  0  0
 19 35  1  0  0  0  0
 20 25  2  0  0  0  0
 20 36  1  0  0  0  0
 21 24  1  0  0  0  0
 21 37  1  0  0  0  0
 22 25  1  0  0  0  0
 22 38  1  0  0  0  0
 24 39  1  0  0  0  0
 25 40  1  0  0  0  0
M  END
> <PUBCHEM_COMPOUND_CID>
367978

> <PUBCHEM_CONFORMER_RMSD>
0.8

> <PUBCHEM_CONFORMER_DIVERSEORDER>
1
13
27
5
19
15
26
23
11
17
6
7
24
31
14
30
16
32
8
2
20
29
18
21
28
12
22
25
9
10
4
3

> <PUBCHEM_MMFF94_PARTIAL_CHARGES>
40
1 -0.19
10 0.09
11 -0.15
12 -0.15
13 -0.15
14 -0.15
15 -0.15
16 -0.15
17 -0.15
18 -0.15
19 -0.15
2 -0.57
20 -0.15
21 -0.15
22 -0.15
23 0.19
24 -0.15
25 -0.15
26 0.15
27 0.15
28 0.15
29 0.15
3 -0.57
30 0.15
31 0.15
32 0.15
33 0.15
34 0.15
35 0.15
36 0.15
37 0.15
38 0.15
39 0.15
4 0.03
40 0.15
5 -0.18
6 0.47
7 0.47
8 0.03
9 0.09

> <PUBCHEM_EFFECTIVE_ROTOR_COUNT>
5

> <PUBCHEM_PHARMACOPHORE_FEATURES>
6
1 2 acceptor
1 3 acceptor
1 4 anion
6 10 14 16 20 22 25 rings
6 8 11 12 17 18 23 rings
6 9 13 15 19 21 24 rings

> <PUBCHEM_HEAVY_ATOM_COUNT>
25

> <PUBCHEM_ATOM_DEF_STEREO_COUNT>
0

> <PUBCHEM_ATOM_UDEF_STEREO_COUNT>
0

> <PUBCHEM_BOND_DEF_STEREO_COUNT>
0

> <PUBCHEM_BOND_UDEF_STEREO_COUNT>
0

> <PUBCHEM_ISOTOPIC_ATOM_COUNT>
0

> <PUBCHEM_COMPONENT_COUNT>
1

> <PUBCHEM_CACTVS_TAUTO_COUNT>
1

> <PUBCHEM_CONFORMER_ID>
00059D6A00000001

> <PUBCHEM_MMFF94_ENERGY>
88.0511

> <PUBCHEM_FEATURE_SELFOVERLAP>
30.446

> <PUBCHEM_SHAPE_FINGERPRINT>
10906281 52 17988097676704426224
11370993 70 18201723967695460936
11488393 25 18121497960104850075
11578080 2 17485363709859140496
12011746 2 9151174233862729541
12035758 1 18338805605758451880
12422481 6 18191296083495838330
12516196 113 8934997066460924401
12592029 89 18334861571692666178
12633257 1 18266437958754631912
12715332 25 18410571833504821676
12788726 201 17615416186791035902
12839892 36 18334853896602036387
13134695 92 11025810807466311023
13140716 1 18189904303586003224
14178342 30 18337409188075240753
14251751 93 18341888593624059239
14866123 147 18337664321527564458
15209289 33 18343022220261781317
16728300 4 17460572750778730730
17980427 23 13045945677468912503
19591789 44 18409444748224117054
20028762 73 18269840972775239815
20197701 30 18341891896243068939
20567600 347 18336273361918981723
20905425 154 17899130516731813908
21033648 29 18339341025278545584
21524375 3 18409167709880005838
22182313 1 17752212687014069677
22224240 67 18413109476851983785
22956985 138 17679583337543588099
23419403 2 17693992545116070887
3383291 50 18267864991788466282
38695281 34 18201440233972498591
404807 14 15189137755518587638
4340502 62 18130520669103045313
465052 167 17313402148553817257
5265222 85 18334866013622423100
59755656 215 18188490151697796261
6138700 20 18267874870017633166
6669772 16 18341611474130029750
69090 78 18410288146820556508
79837 15 18339370763610620843
81228 2 17904186371627715160

> <PUBCHEM_SHAPE_MULTIPOLES>
495.48
9.23
3.62
1.45
2.82
4.56
-0.06
-4.88
-2.23
-0.28
0.3
-0.27
0.01
0.13

> <PUBCHEM_SHAPE_SELFOVERLAP>
1090.24

> <PUBCHEM_SHAPE_VOLUME>
266.6

> <PUBCHEM_COORDINATE_TYPE>
2
5
10

$$$$
