4301144
  -OEChem-01171809513D

 47 49  0     0  0  0  0  0  0999 V2000
   -3.6755   -0.2146   -1.5321 S   0  0  0  0  0  0  0  0  0  0  0  0
   -4.6843    0.6766   -2.0625 O   0  0  0  0  0  0  0  0  0  0  0  0
   -3.1404   -1.2964   -2.3300 O   0  0  0  0  0  0  0  0  0  0  0  0
    0.8322    3.0997    0.3363 O   0  0  0  0  0  0  0  0  0  0  0  0
    3.8381   -0.2103    0.0215 O   0  0  0  0  0  0  0  0  0  0  0  0
    0.9345   -1.7953   -1.0756 O   0  0  0  0  0  0  0  0  0  0  0  0
    7.2555   -0.2868    0.7596 O   0  5  0  0  0  0  0  0  0  0  0  0
    5.7666    1.3195    0.9080 O   0  0  0  0  0  0  0  0  0  0  0  0
   -4.2210   -0.8467   -0.0350 N   0  0  0  0  0  0  0  0  0  0  0  0
    1.2814    0.4167   -0.3591 N   0  0  0  0  0  0  0  0  0  0  0  0
    6.0659    0.1237    0.6172 N   0  3  0  0  0  0  0  0  0  0  0  0
   -4.9323    0.1261    0.8459 C   0  0  0  0  0  0  0  0  0  0  0  0
   -3.2183   -1.6570    0.7175 C   0  0  0  0  0  0  0  0  0  0  0  0
   -5.6556   -0.6249    1.9589 C   0  0  0  0  0  0  0  0  0  0  0  0
   -3.9180   -2.4338    1.8280 C   0  0  0  0  0  0  0  0  0  0  0  0
   -4.6922   -1.5008    2.7550 C   0  0  0  0  0  0  0  0  0  0  0  0
   -2.3222    0.7714   -0.9737 C   0  0  0  0  0  0  0  0  0  0  0  0
   -1.0603    0.2061   -0.8876 C   0  0  0  0  0  0  0  0  0  0  0  0
   -2.5442    2.0953   -0.6305 C   0  0  0  0  0  0  0  0  0  0  0  0
    0.0087    0.9859   -0.4463 C   0  0  0  0  0  0  0  0  0  0  0  0
   -1.4751    2.8751   -0.1894 C   0  0  0  0  0  0  0  0  0  0  0  0
   -0.1988    2.3204   -0.0972 C   0  0  0  0  0  0  0  0  0  0  0  0
    1.6607   -0.8953   -0.6675 C   0  0  0  0  0  0  0  0  0  0  0  0
    3.0957   -1.2118   -0.4433 C   0  0  0  0  0  0  0  0  0  0  0  0
    1.0830    3.1193    1.7399 C   0  0  0  0  0  0  0  0  0  0  0  0
    3.7520   -2.3568   -0.6400 C   0  0  0  0  0  0  0  0  0  0  0  0
    5.0819   -2.0615   -0.2562 C   0  0  0  0  0  0  0  0  0  0  0  0
    5.0822   -0.7438    0.1382 C   0  0  0  0  0  0  0  0  0  0  0  0
   -4.2212    0.8336    1.2847 H   0  0  0  0  0  0  0  0  0  0  0  0
   -5.6754    0.6876    0.2713 H   0  0  0  0  0  0  0  0  0  0  0  0
   -2.7286   -2.3714    0.0482 H   0  0  0  0  0  0  0  0  0  0  0  0
   -2.4576   -1.0098    1.1655 H   0  0  0  0  0  0  0  0  0  0  0  0
   -6.1478    0.0883    2.6293 H   0  0  0  0  0  0  0  0  0  0  0  0
   -6.4413   -1.2557    1.5245 H   0  0  0  0  0  0  0  0  0  0  0  0
   -4.6114   -3.1602    1.3860 H   0  0  0  0  0  0  0  0  0  0  0  0
   -3.1804   -3.0017    2.4058 H   0  0  0  0  0  0  0  0  0  0  0  0
   -5.2475   -2.0876    3.4950 H   0  0  0  0  0  0  0  0  0  0  0  0
   -3.9895   -0.8657    3.3081 H   0  0  0  0  0  0  0  0  0  0  0  0
   -0.9623   -0.8302   -1.1690 H   0  0  0  0  0  0  0  0  0  0  0  0
   -3.5302    2.5456   -0.6918 H   0  0  0  0  0  0  0  0  0  0  0  0
   -1.6444    3.9139    0.0810 H   0  0  0  0  0  0  0  0  0  0  0  0
    2.0152    1.0407   -0.0304 H   0  0  0  0  0  0  0  0  0  0  0  0
    1.9573    3.7500    1.9225 H   0  0  0  0  0  0  0  0  0  0  0  0
    0.2274    3.5444    2.2742 H   0  0  0  0  0  0  0  0  0  0  0  0
    1.2949    2.1123    2.1128 H   0  0  0  0  0  0  0  0  0  0  0  0
    3.3686   -3.2978   -1.0068 H   0  0  0  0  0  0  0  0  0  0  0  0
    5.9304   -2.7313   -0.2680 H   0  0  0  0  0  0  0  0  0  0  0  0
  1  2  2  0  0  0  0
  1  3  2  0  0  0  0
  1  9  1  0  0  0  0
  1 17  1  0  0  0  0
  4 22  1  0  0  0  0
  4 25  1  0  0  0  0
  5 24  1  0  0  0  0
  5 28  1  0  0  0  0
  6 23  2  0  0  0  0
  7 11  1  0  0  0  0
  8 11  2  0  0  0  0
  9 12  1  0  0  0  0
  9 13  1  0  0  0  0
 10 20  1  0  0  0  0
 10 23  1  0  0  0  0
 10 42  1  0  0  0  0
 11 28  1  0  0  0  0
 12 14  1  0  0  0  0
 12 29  1  0  0  0  0
 12 30  1  0  0  0  0
 13 15  1  0  0  0  0
 13 31  1  0  0  0  0
 13 32  1  0  0  0  0
 14 16  1  0  0  0  0
 14 33  1  0  0  0  0
 14 34  1  0  0  0  0
 15 16  1  0  0  0  0
 15 35  1  0  0  0  0
 15 36  1  0  0  0  0
 16 37  1  0  0  0  0
 16 38  1  0  0  0  0
 17 18  2  0  0  0  0
 17 19  1  0  0  0  0
 18 20  1  0  0  0  0
 18 39  1  0  0  0  0
 19 21  2  0  0  0  0
 19 40  1  0  0  0  0
 20 22  2  0  0  0  0
 21 22  1  0  0  0  0
 21 41  1  0  0  0  0
 23 24  1  0  0  0  0
 24 26  2  0  0  0  0
 25 43  1  0  0  0  0
 25 44  1  0  0  0  0
 25 45  1  0  0  0  0
 26 27  1  0  0  0  0
 26 46  1  0  0  0  0
 27 28  2  0  0  0  0
 27 47  1  0  0  0  0
M  CHG  2   7  -1  11   1
M  END
> <PUBCHEM_COMPOUND_CID>
4301144

> <PUBCHEM_CONFORMER_RMSD>
1

> <PUBCHEM_CONFORMER_DIVERSEORDER>
1
28
43
34
24
27
9
46
18
14
38
16
30
44
35
6
26
12
39
33
17
49
7
20
10
8
23
47
32
41
2
48
40
42
36
13
19
51
5
31
11
25
29
45
37
15
4
21
50
22
3

> <PUBCHEM_MMFF94_PARTIAL_CHARGES>
31
1 1.45
10 -0.55
11 0.96
12 0.36
13 0.36
17 -0.01
18 -0.15
19 -0.15
2 -0.65
20 0.12
21 -0.15
22 0.08
23 0.71
24 0.05
25 0.28
26 -0.15
27 -0.15
28 0.22
3 -0.65
39 0.15
4 -0.36
40 0.15
41 0.15
42 0.37
46 0.15
47 0.15
5 -0.28
6 -0.57
7 -0.52
8 -0.52
9 -0.85

> <PUBCHEM_EFFECTIVE_ROTOR_COUNT>
8.2

> <PUBCHEM_PHARMACOPHORE_FEATURES>
12
1 10 donor
1 2 acceptor
1 3 acceptor
1 4 acceptor
1 5 acceptor
1 6 acceptor
1 7 acceptor
1 7 anion
1 8 acceptor
5 5 24 26 27 28 rings
6 17 18 19 20 21 22 rings
6 9 12 13 14 15 16 rings

> <PUBCHEM_HEAVY_ATOM_COUNT>
28

> <PUBCHEM_ATOM_DEF_STEREO_COUNT>
0

> <PUBCHEM_ATOM_UDEF_STEREO_COUNT>
0

> <PUBCHEM_BOND_DEF_STEREO_COUNT>
0

> <PUBCHEM_BOND_UDEF_STEREO_COUNT>
0

> <PUBCHEM_ISOTOPIC_ATOM_COUNT>
0

> <PUBCHEM_COMPONENT_COUNT>
1

> <PUBCHEM_CACTVS_TAUTO_COUNT>
2

> <PUBCHEM_CONFORMER_ID>
0041A15800000001

> <PUBCHEM_MMFF94_ENERGY>
61.7543

> <PUBCHEM_FEATURE_SELFOVERLAP>
61.011

> <PUBCHEM_SHAPE_FINGERPRINT>
10675989 125 16963773643037835773
11135609 12 18113624520895133105
11488393 25 17461743953658271725
11552529 35 15983952969517358335
11796584 16 17603579712226339931
12553582 1 18272664436697907887
12596602 18 17458339741757882922
12788726 201 18049992308467140897
13257819 101 12031513142299689513
13544653 18 18411698772762069348
14251751 18 17530970214864599642
14765038 42 17846505845811777246
14787075 74 18340194259433501524
14790565 3 17400655212220691436
14840074 17 18060424624656315030
15183329 4 8358260345866674028
17844677 252 17987797398376244238
17980427 23 16702021998010954109
19611394 137 18261678168780797266
20642791 268 17203620288954797453
21521239 73 12540699270519214129
22440779 20 16833254066373218638
23559900 14 18187635925251524061
314194 84 18343015605832485942
329604 57 18113628905803028134
392239 28 18273206517748141642
4073 2 18261674758234041122
484985 159 18041570131319202019
5104073 3 18267863879201116986
5326457 24 16081357519421771018
57527295 17 18045470107921916279
6371380 46 18187086131832469665
9862886 166 17748829622035032059

> <PUBCHEM_SHAPE_MULTIPOLES>
524.05
14.42
3.18
1.93
16.07
1.81
0.32
-7.42
5.39
-0.11
1.03
-3.24
-0.48
2.87

> <PUBCHEM_SHAPE_SELFOVERLAP>
1106.81

> <PUBCHEM_SHAPE_VOLUME>
295.5

> <PUBCHEM_COORDINATE_TYPE>
2
5
10

$$$$
