1550029
  -OEChem-01171809493D

 32 34  0     0  0  0  0  0  0999 V2000
    1.3960    0.6891   -1.4432 O   0  0  0  0  0  0  0  0  0  0  0  0
    1.5644   -1.5000    2.0229 O   0  0  0  0  0  0  0  0  0  0  0  0
   -2.9554    2.7557    0.7987 O   0  5  0  0  0  0  0  0  0  0  0  0
   -1.1909    1.5731    1.3529 O   0  0  0  0  0  0  0  0  0  0  0  0
   -2.3175    1.6775    0.8145 N   0  3  0  0  0  0  0  0  0  0  0  0
    0.2589   -0.7156    0.1814 C   0  0  0  0  0  0  0  0  0  0  0  0
    0.4211   -0.3432   -1.2569 C   0  0  0  0  0  0  0  0  0  0  0  0
    2.7253   -0.3830    0.2928 C   0  0  0  0  0  0  0  0  0  0  0  0
    1.5154   -0.9263    0.9441 C   0  0  0  0  0  0  0  0  0  0  0  0
    2.6015    0.4060   -0.8556 C   0  0  0  0  0  0  0  0  0  0  0  0
   -0.9186   -0.8694    0.7988 C   0  0  0  0  0  0  0  0  0  0  0  0
   -2.2432   -0.6961    0.1800 C   0  0  0  0  0  0  0  0  0  0  0  0
    3.9852   -0.6130    0.8532 C   0  0  0  0  0  0  0  0  0  0  0  0
    3.7338    0.9889   -1.4261 C   0  0  0  0  0  0  0  0  0  0  0  0
   -2.8935    0.5299    0.1993 C   0  0  0  0  0  0  0  0  0  0  0  0
   -2.8235   -1.8029   -0.4252 C   0  0  0  0  0  0  0  0  0  0  0  0
    5.1168   -0.0456    0.2658 C   0  0  0  0  0  0  0  0  0  0  0  0
    4.9911    0.7570   -0.8685 C   0  0  0  0  0  0  0  0  0  0  0  0
   -4.1482    0.6520   -0.3980 C   0  0  0  0  0  0  0  0  0  0  0  0
   -4.0783   -1.6807   -1.0223 C   0  0  0  0  0  0  0  0  0  0  0  0
   -4.7405   -0.4534   -1.0087 C   0  0  0  0  0  0  0  0  0  0  0  0
    0.7191   -1.2211   -1.8453 H   0  0  0  0  0  0  0  0  0  0  0  0
   -0.5061    0.0311   -1.7009 H   0  0  0  0  0  0  0  0  0  0  0  0
   -0.9612   -1.1532    1.8489 H   0  0  0  0  0  0  0  0  0  0  0  0
    4.1040   -1.2210    1.7456 H   0  0  0  0  0  0  0  0  0  0  0  0
    3.6457    1.6179   -2.3078 H   0  0  0  0  0  0  0  0  0  0  0  0
   -2.3203   -2.7664   -0.4438 H   0  0  0  0  0  0  0  0  0  0  0  0
    6.0976   -0.2216    0.6984 H   0  0  0  0  0  0  0  0  0  0  0  0
    5.8739    1.2037   -1.3168 H   0  0  0  0  0  0  0  0  0  0  0  0
   -4.6980    1.5896   -0.4098 H   0  0  0  0  0  0  0  0  0  0  0  0
   -4.5396   -2.5413   -1.4979 H   0  0  0  0  0  0  0  0  0  0  0  0
   -5.7174   -0.3589   -1.4739 H   0  0  0  0  0  0  0  0  0  0  0  0
  1  7  1  0  0  0  0
  1 10  1  0  0  0  0
  2  9  2  0  0  0  0
  3  5  1  0  0  0  0
  4  5  2  0  0  0  0
  5 15  1  0  0  0  0
  6  7  1  0  0  0  0
  6  9  1  0  0  0  0
  6 11  2  0  0  0  0
  7 22  1  0  0  0  0
  7 23  1  0  0  0  0
  8  9  1  0  0  0  0
  8 10  1  0  0  0  0
  8 13  2  0  0  0  0
 10 14  2  0  0  0  0
 11 12  1  0  0  0  0
 11 24  1  0  0  0  0
 12 15  1  0  0  0  0
 12 16  2  0  0  0  0
 13 17  1  0  0  0  0
 13 25  1  0  0  0  0
 14 18  1  0  0  0  0
 14 26  1  0  0  0  0
 15 19  2  0  0  0  0
 16 20  1  0  0  0  0
 16 27  1  0  0  0  0
 17 18  2  0  0  0  0
 17 28  1  0  0  0  0
 18 29  1  0  0  0  0
 19 21  1  0  0  0  0
 19 30  1  0  0  0  0
 20 21  2  0  0  0  0
 20 31  1  0  0  0  0
 21 32  1  0  0  0  0
M  CHG  2   3  -1   5   1
M  END
> <PUBCHEM_COMPOUND_CID>
1550029

> <PUBCHEM_CONFORMER_RMSD>
0.6

> <PUBCHEM_CONFORMER_DIVERSEORDER>
1
4
3
2

> <PUBCHEM_MMFF94_PARTIAL_CHARGES>
30
1 -0.36
10 0.08
11 -0.18
12 0.03
13 -0.15
14 -0.15
15 0.13
16 -0.15
17 -0.15
18 -0.15
19 -0.15
2 -0.57
20 -0.15
21 -0.15
24 0.15
25 0.15
26 0.15
27 0.15
28 0.15
29 0.15
3 -0.52
30 0.15
31 0.15
32 0.15
4 -0.52
5 0.91
6 -0.12
7 0.42
8 0.09
9 0.47

> <PUBCHEM_EFFECTIVE_ROTOR_COUNT>
2.4

> <PUBCHEM_PHARMACOPHORE_FEATURES>
8
1 1 acceptor
1 2 acceptor
1 3 acceptor
1 3 anion
1 4 acceptor
6 1 6 7 8 9 10 rings
6 12 15 16 19 20 21 rings
6 8 10 13 14 17 18 rings

> <PUBCHEM_HEAVY_ATOM_COUNT>
21

> <PUBCHEM_ATOM_DEF_STEREO_COUNT>
0

> <PUBCHEM_ATOM_UDEF_STEREO_COUNT>
0

> <PUBCHEM_BOND_DEF_STEREO_COUNT>
1

> <PUBCHEM_BOND_UDEF_STEREO_COUNT>
0

> <PUBCHEM_ISOTOPIC_ATOM_COUNT>
0

> <PUBCHEM_COMPONENT_COUNT>
1

> <PUBCHEM_CACTVS_TAUTO_COUNT>
1

> <PUBCHEM_CONFORMER_ID>
0017A6CD00000001

> <PUBCHEM_MMFF94_ENERGY>
77.5986

> <PUBCHEM_FEATURE_SELFOVERLAP>
40.71

> <PUBCHEM_SHAPE_FINGERPRINT>
10366900 7 17274818056478642807
10498660 4 18060138682840081689
10646746 165 18202282485717594528
10937287 8 17266957437478117609
11089746 13 18261393382236874244
11471102 20 17240758502223325094
11578080 2 17900220265794139197
11640471 11 18189907422001220705
12107183 9 17762053242603711402
12166972 35 17895195566495460021
12236239 1 18260824895495582223
12403259 415 16487252175485440482
12507557 5 17167866399706835261
12670546 56 18410570682949354552
12788726 201 18342735187961023201
128620 24 15841555179985817996
13583140 156 13984662598489380256
13675066 3 14273458089199904282
14386348 63 16558750130868594719
14739800 52 18269260430983908064
15848702 151 18261954034151021170
15961568 22 18057591265334790952
16752209 62 18343575231602805571
16988056 13 15457910980294769369
17349148 13 18259987088951700438
1813 80 12679194842102358400
192875 21 18334577974833585500
19489759 90 18273215296455605214
19862831 5 18334293188515989775
200 152 18261106409148123679
20300324 65 18343303682189819405
20511986 3 18188471536887295172
20645477 70 16660634146963824482
21033648 29 15574984113306796260
21033650 10 18127719083289602420
22094290 60 18060140950640504587
23402539 116 18272083916038682911
235170 7 17275113829412102956
23557571 272 17561368370009304233
23559900 14 17486210015879796830
2838139 119 17024289865803857829
3268164 11 17988921158957012469
3472631 163 18270123405392565573
34797466 226 17845660373115139316
351380 180 18272931643825207796
474 4 17676210186493203386
5104073 3 17095521854967870224
5385378 56 11820090233902608437
57724786 102 15936423246522311244
6034566 193 16011876261874999492
633830 44 17896340063874340622
6913067 236 16988833986608218190
7495541 125 16845568755781304394

> <PUBCHEM_SHAPE_MULTIPOLES>
403.71
10.32
1.77
1.44
3.09
0.6
0.07
0.78
-2.55
-1.55
0.52
0.25
0.06
-1.92

> <PUBCHEM_SHAPE_SELFOVERLAP>
896.409

> <PUBCHEM_SHAPE_VOLUME>
213.4

> <PUBCHEM_COORDINATE_TYPE>
2
5
10

$$$$
