5389514
  -OEChem-01171809163D

 49 52  0     0  0  0  0  0  0999 V2000
   -3.8493    0.6272   -1.5793 O   0  0  0  0  0  0  0  0  0  0  0  0
   -4.6415    1.1164    1.2653 O   0  0  0  0  0  0  0  0  0  0  0  0
    3.4975    3.2065   -0.0633 O   0  0  0  0  0  0  0  0  0  0  0  0
   -0.3191    0.4805    0.2828 O   0  0  0  0  0  0  0  0  0  0  0  0
    1.7844   -3.0654   -0.4579 N   0  0  0  0  0  0  0  0  0  0  0  0
    0.8690   -4.0476   -0.4470 N   0  0  0  0  0  0  0  0  0  0  0  0
    1.1829   -1.8436   -0.2311 C   0  0  0  0  0  0  0  0  0  0  0  0
   -0.2515   -2.1602   -0.0220 C   0  0  0  0  0  0  0  0  0  0  0  0
    1.7537   -0.6354   -0.1941 C   0  0  0  0  0  0  0  0  0  0  0  0
   -1.3755   -1.2747    0.2800 C   0  0  0  0  0  0  0  0  0  0  0  0
    3.7360    0.7869   -0.3739 C   0  0  0  0  0  0  0  0  0  0  0  0
    5.2118    0.9456   -0.6087 C   0  0  0  0  0  0  0  0  0  0  0  0
    3.1709   -0.4347   -0.4132 C   0  0  0  0  0  0  0  0  0  0  0  0
   -3.2127    0.1153   -0.4768 C   0  0  0  0  0  0  0  0  0  0  0  0
   -2.1320   -0.7288   -0.7566 C   0  0  0  0  0  0  0  0  0  0  0  0
   -3.5690    0.3647    0.8558 C   0  0  0  0  0  0  0  0  0  0  0  0
   -0.3574   -3.5044   -0.1523 C   0  0  0  0  0  0  0  0  0  0  0  0
   -5.7102    1.9564   -0.7515 C   0  0  0  0  0  0  0  0  0  0  0  0
   -1.6975   -0.9841    1.6030 C   0  0  0  0  0  0  0  0  0  0  0  0
   -4.3357    1.9576   -1.4025 C   0  0  0  0  0  0  0  0  0  0  0  0
    0.8883    0.5508    0.0843 C   0  0  0  0  0  0  0  0  0  0  0  0
    5.9760    0.8526    0.7029 C   0  0  0  0  0  0  0  0  0  0  0  0
   -5.7892    0.9959    0.4250 C   0  0  0  0  0  0  0  0  0  0  0  0
    2.9030    1.9571   -0.1016 C   0  0  0  0  0  0  0  0  0  0  0  0
   -2.7891   -0.1653    1.8901 C   0  0  0  0  0  0  0  0  0  0  0  0
    1.5827    1.8641    0.1127 C   0  0  0  0  0  0  0  0  0  0  0  0
    7.4732    1.0668    0.5299 C   0  0  0  0  0  0  0  0  0  0  0  0
    5.4411    1.8728   -1.1462 H   0  0  0  0  0  0  0  0  0  0  0  0
    5.5658    0.1477   -1.2765 H   0  0  0  0  0  0  0  0  0  0  0  0
    3.7955   -1.3003   -0.6129 H   0  0  0  0  0  0  0  0  0  0  0  0
   -1.8754   -0.9434   -1.7929 H   0  0  0  0  0  0  0  0  0  0  0  0
    2.7483   -3.1914   -0.7294 H   0  0  0  0  0  0  0  0  0  0  0  0
   -1.2190   -4.1438   -0.0457 H   0  0  0  0  0  0  0  0  0  0  0  0
   -5.9394    2.9769   -0.4239 H   0  0  0  0  0  0  0  0  0  0  0  0
   -6.4757    1.6725   -1.4828 H   0  0  0  0  0  0  0  0  0  0  0  0
   -1.1170   -1.3985    2.4240 H   0  0  0  0  0  0  0  0  0  0  0  0
   -4.4086    2.4150   -2.3957 H   0  0  0  0  0  0  0  0  0  0  0  0
   -3.6181    2.5693   -0.8388 H   0  0  0  0  0  0  0  0  0  0  0  0
    5.8153   -0.1306    1.1628 H   0  0  0  0  0  0  0  0  0  0  0  0
    5.6025    1.5970    1.4168 H   0  0  0  0  0  0  0  0  0  0  0  0
   -6.6676    1.2425    1.0320 H   0  0  0  0  0  0  0  0  0  0  0  0
   -5.9304   -0.0422    0.0948 H   0  0  0  0  0  0  0  0  0  0  0  0
    1.0872   -5.0164   -0.2591 H   0  0  0  0  0  0  0  0  0  0  0  0
   -3.0416    0.0391    2.9276 H   0  0  0  0  0  0  0  0  0  0  0  0
    0.9768    2.7413    0.3137 H   0  0  0  0  0  0  0  0  0  0  0  0
    7.6803    2.0587    0.1159 H   0  0  0  0  0  0  0  0  0  0  0  0
    7.8999    0.3166   -0.1432 H   0  0  0  0  0  0  0  0  0  0  0  0
    7.9825    0.9875    1.4955 H   0  0  0  0  0  0  0  0  0  0  0  0
    4.4518    3.1142    0.0795 H   0  0  0  0  0  0  0  0  0  0  0  0
  1 14  1  0  0  0  0
  1 20  1  0  0  0  0
  2 16  1  0  0  0  0
  2 23  1  0  0  0  0
  3 24  1  0  0  0  0
  3 49  1  0  0  0  0
  4 21  2  0  0  0  0
  5  6  1  0  0  0  0
  5  7  1  0  0  0  0
  5 32  1  0  0  0  0
  6 17  1  0  0  0  0
  6 43  1  0  0  0  0
  7  8  1  0  0  0  0
  7  9  2  0  0  0  0
  8 10  1  0  0  0  0
  8 17  2  0  0  0  0
  9 13  1  0  0  0  0
  9 21  1  0  0  0  0
 10 15  2  0  0  0  0
 10 19  1  0  0  0  0
 11 12  1  0  0  0  0
 11 13  2  0  0  0  0
 11 24  1  0  0  0  0
 12 22  1  0  0  0  0
 12 28  1  0  0  0  0
 12 29  1  0  0  0  0
 13 30  1  0  0  0  0
 14 15  1  0  0  0  0
 14 16  2  0  0  0  0
 15 31  1  0  0  0  0
 16 25  1  0  0  0  0
 17 33  1  0  0  0  0
 18 20  1  0  0  0  0
 18 23  1  0  0  0  0
 18 34  1  0  0  0  0
 18 35  1  0  0  0  0
 19 25  2  0  0  0  0
 19 36  1  0  0  0  0
 20 37  1  0  0  0  0
 20 38  1  0  0  0  0
 21 26  1  0  0  0  0
 22 27  1  0  0  0  0
 22 39  1  0  0  0  0
 22 40  1  0  0  0  0
 23 41  1  0  0  0  0
 23 42  1  0  0  0  0
 24 26  2  0  0  0  0
 25 44  1  0  0  0  0
 26 45  1  0  0  0  0
 27 46  1  0  0  0  0
 27 47  1  0  0  0  0
 27 48  1  0  0  0  0
M  END
> <PUBCHEM_COMPOUND_CID>
5389514

> <PUBCHEM_CONFORMER_RMSD>
0.8

> <PUBCHEM_CONFORMER_DIVERSEORDER>
1
3
4
2

> <PUBCHEM_MMFF94_PARTIAL_CHARGES>
33
1 -0.36
10 0.03
11 -0.14
12 0.14
13 -0.15
14 0.08
15 -0.15
16 0.08
17 -0.05
19 -0.15
2 -0.36
20 0.28
21 0.54
23 0.28
24 0.08
25 -0.15
26 -0.14
3 -0.53
30 0.15
31 0.15
32 0.4
33 0.15
36 0.15
4 -0.57
43 0.4
44 0.15
45 0.15
49 0.45
5 -0.5
6 -0.5
7 0.1
8 -0.03
9 0.01

> <PUBCHEM_EFFECTIVE_ROTOR_COUNT>
4.4

> <PUBCHEM_PHARMACOPHORE_FEATURES>
11
1 1 acceptor
1 2 acceptor
1 27 hydrophobe
1 3 donor
1 4 acceptor
1 5 donor
1 6 donor
5 5 6 7 8 17 rings
6 10 14 15 16 19 25 rings
6 9 11 13 21 24 26 rings
7 1 2 14 16 18 20 23 rings

> <PUBCHEM_HEAVY_ATOM_COUNT>
27

> <PUBCHEM_ATOM_DEF_STEREO_COUNT>
0

> <PUBCHEM_ATOM_UDEF_STEREO_COUNT>
0

> <PUBCHEM_BOND_DEF_STEREO_COUNT>
1

> <PUBCHEM_BOND_UDEF_STEREO_COUNT>
0

> <PUBCHEM_ISOTOPIC_ATOM_COUNT>
0

> <PUBCHEM_COMPONENT_COUNT>
1

> <PUBCHEM_CACTVS_TAUTO_COUNT>
21

> <PUBCHEM_CONFORMER_ID>
00523CCA00000001

> <PUBCHEM_MMFF94_ENERGY>
158.1839

> <PUBCHEM_FEATURE_SELFOVERLAP>
57.509

> <PUBCHEM_SHAPE_FINGERPRINT>
10165383 225 18410859871560994581
10319926 262 17022914418858044690
10411042 1 17618791249433929326
105312 117 18335984241815835166
12107183 9 18409161143845474128
12128747 34 16588574293519612248
12236239 1 17489309642447987665
12293681 160 17918273147130771034
12730499 353 18336554833054074459
12769317 202 18340482288097964417
12788726 201 16916511325012423865
13140716 1 18124319561109028840
13402501 40 18187645769448487373
13583140 156 16878491432050776938
13673619 4 11527940171580093499
13947920 75 16487252157883753140
14466204 15 18411134710808361208
14790565 3 18339654394603027848
14856354 85 16008753545778200610
17980427 23 17313673749379499079
1813 80 17339851764027823007
20511986 3 17489298634257417297
20554085 129 17988626490099270890
21033648 29 17532104800176665425
21298829 104 18272091552280194785
21859007 373 18334562543697111868
23569917 315 18342461465058728614
2838139 119 18335132115872425213
335352 9 18411703210281054516
3411729 13 18114742633851967602
350125 39 18195817490147678243
38695281 34 18341894078034045702
4017518 198 17847067688729559542
474 4 18413673495914612523
495365 180 18341324535421544881
5104073 3 18042133064092579049
5385378 56 18339368456822279571
53917941 68 18201150052891402430
6328613 192 18267307715665944024
7226269 152 18130791191961014048
9862886 166 12967127224733308348

> <PUBCHEM_SHAPE_MULTIPOLES>
522.21
13.28
3.44
1.2
8.21
3.07
-0.26
-12.13
-0.62
0.96
0.76
-1.37
-0.14
1

> <PUBCHEM_SHAPE_SELFOVERLAP>
1156.209

> <PUBCHEM_SHAPE_VOLUME>
277.5

> <PUBCHEM_COORDINATE_TYPE>
2
5
10

$$$$
