16446369
  -OEChem-01171810033D

 43 45  0     0  0  0  0  0  0999 V2000
    2.5149    4.2208   -0.5720 Cl  0  0  0  0  0  0  0  0  0  0  0  0
   -2.8063    1.1714    0.0774 S   0  0  0  0  0  0  0  0  0  0  0  0
   -3.2334    1.3531    1.4545 O   0  0  0  0  0  0  0  0  0  0  0  0
   -3.6767    1.5701   -1.0159 O   0  0  0  0  0  0  0  0  0  0  0  0
    2.9041    1.7731    1.3878 O   0  0  0  0  0  0  0  0  0  0  0  0
   -0.1605    1.3674    0.2491 N   0  0  0  0  0  0  0  0  0  0  0  0
   -1.3466    3.2933   -0.5824 N   0  0  0  0  0  0  0  0  0  0  0  0
    2.4112    0.1202   -0.2029 N   0  0  0  0  0  0  0  0  0  0  0  0
   -2.3742   -0.5212   -0.1651 C   0  0  0  0  0  0  0  0  0  0  0  0
   -3.6162   -1.3360   -0.0287 C   0  0  0  0  0  0  0  0  0  0  0  0
   -1.2746    2.0363   -0.1046 C   0  0  0  0  0  0  0  0  0  0  0  0
   -3.9903   -1.8334    1.2195 C   0  0  0  0  0  0  0  0  0  0  0  0
   -4.4037   -1.6000   -1.1493 C   0  0  0  0  0  0  0  0  0  0  0  0
    0.9895    2.0565    0.0974 C   0  0  0  0  0  0  0  0  0  0  0  0
    3.4660   -0.8089   -0.0282 C   0  0  0  0  0  0  0  0  0  0  0  0
   -5.1519   -2.5950    1.3472 C   0  0  0  0  0  0  0  0  0  0  0  0
   -5.5655   -2.3615   -1.0217 C   0  0  0  0  0  0  0  0  0  0  0  0
    2.1852    1.3204    0.4837 C   0  0  0  0  0  0  0  0  0  0  0  0
    4.5588   -2.8744   -0.6417 C   0  0  0  0  0  0  0  0  0  0  0  0
    1.0515    3.3492   -0.3813 C   0  0  0  0  0  0  0  0  0  0  0  0
    3.5204   -1.9594   -0.8150 C   0  0  0  0  0  0  0  0  0  0  0  0
   -5.9395   -2.8590    0.2266 C   0  0  0  0  0  0  0  0  0  0  0  0
   -0.1602    3.9232   -0.7086 C   0  0  0  0  0  0  0  0  0  0  0  0
    4.4501   -0.5734    0.9318 C   0  0  0  0  0  0  0  0  0  0  0  0
    5.5430   -2.6389    0.3185 C   0  0  0  0  0  0  0  0  0  0  0  0
    5.4886   -1.4884    1.1052 C   0  0  0  0  0  0  0  0  0  0  0  0
    4.6161   -4.1056   -1.4814 C   0  0  0  0  0  0  0  0  0  0  0  0
   -1.9289   -0.6328   -1.1589 H   0  0  0  0  0  0  0  0  0  0  0  0
   -1.6327   -0.8146    0.5844 H   0  0  0  0  0  0  0  0  0  0  0  0
   -3.3857   -1.6356    2.1007 H   0  0  0  0  0  0  0  0  0  0  0  0
   -4.1232   -1.2192   -2.1278 H   0  0  0  0  0  0  0  0  0  0  0  0
   -5.4432   -2.9825    2.3191 H   0  0  0  0  0  0  0  0  0  0  0  0
   -6.1786   -2.5672   -1.8942 H   0  0  0  0  0  0  0  0  0  0  0  0
    1.7339   -0.1307   -0.9207 H   0  0  0  0  0  0  0  0  0  0  0  0
    2.7523   -2.1452   -1.5623 H   0  0  0  0  0  0  0  0  0  0  0  0
   -6.8440   -3.4519    0.3261 H   0  0  0  0  0  0  0  0  0  0  0  0
   -0.2254    4.9359   -1.0941 H   0  0  0  0  0  0  0  0  0  0  0  0
    4.4769    0.2923    1.5781 H   0  0  0  0  0  0  0  0  0  0  0  0
    6.3560   -3.3452    0.4648 H   0  0  0  0  0  0  0  0  0  0  0  0
    6.2553   -1.3063    1.8529 H   0  0  0  0  0  0  0  0  0  0  0  0
    4.0396   -4.9083   -1.0109 H   0  0  0  0  0  0  0  0  0  0  0  0
    4.2095   -3.9198   -2.4813 H   0  0  0  0  0  0  0  0  0  0  0  0
    5.6483   -4.4474   -1.6142 H   0  0  0  0  0  0  0  0  0  0  0  0
  1 20  1  0  0  0  0
  2  3  2  0  0  0  0
  2  4  2  0  0  0  0
  2  9  1  0  0  0  0
  2 11  1  0  0  0  0
  5 18  2  0  0  0  0
  6 11  1  0  0  0  0
  6 14  2  0  0  0  0
  7 11  2  0  0  0  0
  7 23  1  0  0  0  0
  8 15  1  0  0  0  0
  8 18  1  0  0  0  0
  8 34  1  0  0  0  0
  9 10  1  0  0  0  0
  9 28  1  0  0  0  0
  9 29  1  0  0  0  0
 10 12  2  0  0  0  0
 10 13  1  0  0  0  0
 12 16  1  0  0  0  0
 12 30  1  0  0  0  0
 13 17  2  0  0  0  0
 13 31  1  0  0  0  0
 14 18  1  0  0  0  0
 14 20  1  0  0  0  0
 15 21  1  0  0  0  0
 15 24  2  0  0  0  0
 16 22  2  0  0  0  0
 16 32  1  0  0  0  0
 17 22  1  0  0  0  0
 17 33  1  0  0  0  0
 19 21  2  0  0  0  0
 19 25  1  0  0  0  0
 19 27  1  0  0  0  0
 20 23  2  0  0  0  0
 21 35  1  0  0  0  0
 22 36  1  0  0  0  0
 23 37  1  0  0  0  0
 24 26  1  0  0  0  0
 24 38  1  0  0  0  0
 25 26  2  0  0  0  0
 25 39  1  0  0  0  0
 26 40  1  0  0  0  0
 27 41  1  0  0  0  0
 27 42  1  0  0  0  0
 27 43  1  0  0  0  0
M  END
> <PUBCHEM_COMPOUND_CID>
16446369

> <PUBCHEM_CONFORMER_RMSD>
0.8

> <PUBCHEM_CONFORMER_DIVERSEORDER>
1
120
123
106
50
196
63
218
181
203
261
250
185
249
217
103
199
114
213
245
88
160
84
126
230
220
262
235
104
124
225
105
233
159
59
214
118
205
176
216
202
252
209
188
69
20
263
201
267
192
149
19
107
131
180
100
110
2
152
82
234
197
266
54
210
222
206
23
204
145
144
256
219
257
26
34
116
81
271
273
132
79
42
259
60
241
162
169
72
239
45
109
96
189
91
174
140
232
49
243
113
166
99
272
128
167
254
237
211
31
184
115
4
158
260
153
143
190
11
177
168
38
183
92
200
147
78
141
66
29
264
53
258
226
165
56
172
154
247
97
269
248
238
133
195
122
251
242
135
62
244
173
93
246
3
57
193
89
94
156
87
268
47
175
71
157
52
41
65
191
24
90
80
70
212
40
74
231
130
186
44
25
179
253
255
68
37
161
134
155
208
5
146
108
64
137
221
265
170
117
83
55
164
125
33
228
85
18
148
95
121
240
36
215
198
127
7
75
12
229
236
139
35
194
73
138
61
102
46
48
119
129
227
111
163
178
16
150
21
8
223
101
32
9
67
58
17
39
28
51
142
10
112
187
171
77
14
270
224
207
151
6
30
182
86
76
136
43
22
27
13
98
15

> <PUBCHEM_MMFF94_PARTIAL_CHARGES>
38
1 -0.18
10 -0.14
11 0.61
12 -0.15
13 -0.15
14 0.4
15 0.12
16 -0.15
17 -0.15
18 0.54
19 -0.14
2 1.2
20 0.18
21 -0.15
22 -0.15
23 0.16
24 -0.15
25 -0.15
26 -0.15
27 0.14
3 -0.65
30 0.15
31 0.15
32 0.15
33 0.15
34 0.37
35 0.15
36 0.15
37 0.15
38 0.15
39 0.15
4 -0.65
40 0.15
5 -0.57
6 -0.62
7 -0.62
8 -0.55
9 0.25

> <PUBCHEM_EFFECTIVE_ROTOR_COUNT>
6

> <PUBCHEM_PHARMACOPHORE_FEATURES>
9
1 3 acceptor
1 4 acceptor
1 5 acceptor
1 6 acceptor
1 8 donor
3 6 7 11 cation
6 10 12 13 16 17 22 rings
6 15 19 21 24 25 26 rings
6 6 7 11 14 20 23 rings

> <PUBCHEM_HEAVY_ATOM_COUNT>
27

> <PUBCHEM_ATOM_DEF_STEREO_COUNT>
0

> <PUBCHEM_ATOM_UDEF_STEREO_COUNT>
0

> <PUBCHEM_BOND_DEF_STEREO_COUNT>
0

> <PUBCHEM_BOND_UDEF_STEREO_COUNT>
0

> <PUBCHEM_ISOTOPIC_ATOM_COUNT>
0

> <PUBCHEM_COMPONENT_COUNT>
1

> <PUBCHEM_CACTVS_TAUTO_COUNT>
2

> <PUBCHEM_CONFORMER_ID>
00FAF3A100000001

> <PUBCHEM_MMFF94_ENERGY>
72.466

> <PUBCHEM_FEATURE_SELFOVERLAP>
45.69

> <PUBCHEM_SHAPE_FINGERPRINT>
10319688 140 18265057014508603884
10429389 16 18043224986660888373
10622 236 17556559269965708631
11014199 57 18411142406967450584
11069576 57 18122903389615807365
11135609 12 18408599292544097289
11135926 11 18049155871706960789
11186622 123 18046062658231499514
11455722 242 18338525154235126542
11719270 70 17904476651546774504
11828532 37 17751365195235267219
12107183 9 18341347613066959593
12422481 6 17918002641944035167
12990986 174 18337108952222321810
13533116 47 18196936793596222867
1361 87 17554339008080696190
13785724 45 18339656589478509111
13989917 61 18049725419221415011
14114206 34 17168146685109922209
14168556 18 18410849981047598450
14429380 30 18335420149686261346
14848178 96 8862951562703239135
14863182 85 17975698608247270652
14866123 147 18267023856712858849
14950920 106 16200140019523288675
15352361 1 18410852148819373774
17492 89 18337670927350068297
17859628 70 18267308826954165121
17909252 39 18336550529112099016
19301676 85 17977940190665977391
19301679 30 18268720570805947907
19315092 285 17130696365964901139
1979834 28 18123743429083818584
20775530 9 18342172284471630370
21033650 10 16081630220044293117
21133410 58 18192697055317519535
21307412 95 18267018345831773709
22849339 104 17903923253673907844
23424784 1240 18342741776183171450
23466295 7 18124324808947219096
23559900 14 18338503201686253801
2838139 119 7853274407741573202
3421961 26 18338516468449561777
345986 75 17773611584034527137
4280585 95 18262223427094168760
437795 96 17840027338470297735
44062 13 18334573491383158741
5309563 4 18410292506007081863
56633871 153 18269568143461518787
613672 6 18338216203133459942
7970288 3 18409163328987568443

> <PUBCHEM_SHAPE_MULTIPOLES>
528.82
14.13
6.06
1.24
4.08
2.95
-0.1
-20.13
-0.94
-3.53
1.82
0.16
-0.58
1.3

> <PUBCHEM_SHAPE_SELFOVERLAP>
1121.661

> <PUBCHEM_SHAPE_VOLUME>
295.9

> <PUBCHEM_COORDINATE_TYPE>
2
5
10

$$$$
