4655086
  -OEChem-01171809233D

 33 34  0     0  0  0  0  0  0999 V2000
    2.2243    2.6438   -0.0372 S   0  0  0  0  0  0  0  0  0  0  0  0
    1.7619   -3.5514    0.1079 F   0  0  0  0  0  0  0  0  0  0  0  0
    3.1599   -2.4923   -1.1680 F   0  0  0  0  0  0  0  0  0  0  0  0
    3.4095   -2.4409    0.9915 F   0  0  0  0  0  0  0  0  0  0  0  0
   -2.2511   -0.1439   -1.8810 O   0  0  0  0  0  0  0  0  0  0  0  0
    3.0957    2.8158    1.1245 O   0  0  0  0  0  0  0  0  0  0  0  0
    2.7891    2.8170   -1.3759 O   0  0  0  0  0  0  0  0  0  0  0  0
    0.1166    1.1105    0.2337 N   0  0  0  0  0  0  0  0  0  0  0  0
    2.2536    0.0232   -0.0066 N   0  0  0  0  0  0  0  0  0  0  0  0
   -0.4469   -0.1095    0.3211 C   0  0  0  0  0  0  0  0  0  0  0  0
   -1.8856   -0.1054    0.4948 C   0  0  0  0  0  0  0  0  0  0  0  0
    1.4536    1.1036    0.0727 C   0  0  0  0  0  0  0  0  0  0  0  0
    0.2550   -1.2922    0.2557 C   0  0  0  0  0  0  0  0  0  0  0  0
    1.6188   -1.1635    0.0889 C   0  0  0  0  0  0  0  0  0  0  0  0
   -2.7397   -0.1227   -0.6079 C   0  0  0  0  0  0  0  0  0  0  0  0
   -2.4135   -0.0838    1.7857 C   0  0  0  0  0  0  0  0  0  0  0  0
    0.9028    3.8328    0.1087 C   0  0  0  0  0  0  0  0  0  0  0  0
    2.4682   -2.3870    0.0049 C   0  0  0  0  0  0  0  0  0  0  0  0
   -4.1218   -0.1181   -0.4196 C   0  0  0  0  0  0  0  0  0  0  0  0
   -3.7956   -0.0792    1.9741 C   0  0  0  0  0  0  0  0  0  0  0  0
   -4.6496   -0.0962    0.8714 C   0  0  0  0  0  0  0  0  0  0  0  0
   -3.2055   -0.1605   -2.9397 C   0  0  0  0  0  0  0  0  0  0  0  0
   -0.2340   -2.2561    0.3296 H   0  0  0  0  0  0  0  0  0  0  0  0
   -1.7623   -0.0694    2.6567 H   0  0  0  0  0  0  0  0  0  0  0  0
    0.4120    3.7087    1.0759 H   0  0  0  0  0  0  0  0  0  0  0  0
    1.3439    4.8305    0.0477 H   0  0  0  0  0  0  0  0  0  0  0  0
    0.1993    3.6926   -0.7142 H   0  0  0  0  0  0  0  0  0  0  0  0
   -4.8489   -0.1304   -1.2240 H   0  0  0  0  0  0  0  0  0  0  0  0
   -4.2068   -0.0621    2.9792 H   0  0  0  0  0  0  0  0  0  0  0  0
   -5.7257   -0.0924    1.0195 H   0  0  0  0  0  0  0  0  0  0  0  0
   -3.8129    0.7511   -2.9520 H   0  0  0  0  0  0  0  0  0  0  0  0
   -3.8148   -1.0707   -2.9219 H   0  0  0  0  0  0  0  0  0  0  0  0
   -2.6425   -0.1766   -3.8789 H   0  0  0  0  0  0  0  0  0  0  0  0
  1  6  2  0  0  0  0
  1  7  2  0  0  0  0
  1 12  1  0  0  0  0
  1 17  1  0  0  0  0
  2 18  1  0  0  0  0
  3 18  1  0  0  0  0
  4 18  1  0  0  0  0
  5 15  1  0  0  0  0
  5 22  1  0  0  0  0
  8 10  1  0  0  0  0
  8 12  2  0  0  0  0
  9 12  1  0  0  0  0
  9 14  2  0  0  0  0
 10 11  1  0  0  0  0
 10 13  2  0  0  0  0
 11 15  1  0  0  0  0
 11 16  2  0  0  0  0
 13 14  1  0  0  0  0
 13 23  1  0  0  0  0
 14 18  1  0  0  0  0
 15 19  2  0  0  0  0
 16 20  1  0  0  0  0
 16 24  1  0  0  0  0
 17 25  1  0  0  0  0
 17 26  1  0  0  0  0
 17 27  1  0  0  0  0
 19 21  1  0  0  0  0
 19 28  1  0  0  0  0
 20 21  2  0  0  0  0
 20 29  1  0  0  0  0
 21 30  1  0  0  0  0
 22 31  1  0  0  0  0
 22 32  1  0  0  0  0
 22 33  1  0  0  0  0
M  END
> <PUBCHEM_COMPOUND_CID>
4655086

> <PUBCHEM_CONFORMER_RMSD>
0.6

> <PUBCHEM_CONFORMER_DIVERSEORDER>
24
33
9
15
13
26
23
22
25
18
14
31
19
16
5
34
2
28
30
8
11
6
32
21
27
29
4
1
35
17
20
12
3
36
7
10

> <PUBCHEM_MMFF94_PARTIAL_CHARGES>
26
1 1.2
10 0.31
12 0.61
13 -0.15
14 0.17
15 0.08
16 -0.15
17 0.11
18 1.16
19 -0.15
2 -0.34
20 -0.15
21 -0.15
22 0.28
23 0.15
24 0.15
28 0.15
29 0.15
3 -0.34
30 0.15
4 -0.34
5 -0.36
6 -0.65
7 -0.65
8 -0.62
9 -0.62

> <PUBCHEM_EFFECTIVE_ROTOR_COUNT>
4

> <PUBCHEM_PHARMACOPHORE_FEATURES>
7
1 5 acceptor
1 6 acceptor
1 7 acceptor
1 9 acceptor
3 8 9 12 cation
6 11 15 16 19 20 21 rings
6 8 9 10 12 13 14 rings

> <PUBCHEM_HEAVY_ATOM_COUNT>
22

> <PUBCHEM_ATOM_DEF_STEREO_COUNT>
0

> <PUBCHEM_ATOM_UDEF_STEREO_COUNT>
0

> <PUBCHEM_BOND_DEF_STEREO_COUNT>
0

> <PUBCHEM_BOND_UDEF_STEREO_COUNT>
0

> <PUBCHEM_ISOTOPIC_ATOM_COUNT>
0

> <PUBCHEM_COMPONENT_COUNT>
1

> <PUBCHEM_CACTVS_TAUTO_COUNT>
1

> <PUBCHEM_CONFORMER_ID>
004707EE00000018

> <PUBCHEM_MMFF94_ENERGY>
59.3541

> <PUBCHEM_FEATURE_SELFOVERLAP>
35.54

> <PUBCHEM_SHAPE_FINGERPRINT>
10165383 225 17827951685650581996
11640471 11 17702956953674620889
11725454 13 17027642413779096749
121448 382 17624967618552496480
12160290 23 17113812995526371384
12173636 292 17692823996178548457
12236239 1 17775851207462784539
12553582 1 18268432326222624958
12707595 3 18188210883870227499
12788726 201 17182763382235892834
13009979 54 17561075900138154159
13134695 92 18336254640198353422
13140716 1 18266461104079682208
13681431 1 18335702694035598864
13911987 19 18044687281096706366
15842332 3 17846776338910182831
16945 1 18410294722188406146
1813 80 17985562060650341870
18219364 16 18045494472485759301
18785283 64 18188783862846104096
18915476 22 18261666056313606677
19765921 60 17844255244267496945
19784866 34 18126570251988306137
20361792 2 18198056984774467919
20600515 1 15339116810524093611
20645477 70 18335132107603957859
21041028 32 18266467498764096952
21486144 27 18260554463101121499
21524375 3 17828194729544485232
21639500 275 18338509854358142385
22112679 90 17489867133403049865
2255824 54 18341339937142879346
23175994 123 18189902998190271267
23419403 2 18040428863206815486
23526113 38 17822573802501342026
23559900 14 16370724820476880467
23598291 2 17988374697414519829
238 59 18046595027674037749
266924 78 18339352054716800735
3091708 16 8927767773487428960
31174 14 18334306365739294235
3286 77 18188503393245311627
3729539 64 17900297266774177748
458136 41 18190759706494676736
474 4 18198063783829172969
59025328 239 17695019428556364919
6049 1 17676489423897396005
621550 5 17461189615387844675
633830 44 17913785065231471892
6438718 38 17551507743610083817
7364860 26 18411987970358970800
7615 1 17704061907051983601
77492 1 17775568645896225707
81228 2 17615399260772951744
84936 31 18335711580132900575
88987 49 15913610566695424785

> <PUBCHEM_SHAPE_MULTIPOLES>
407.21
7.32
3.66
1.79
4.99
0.39
1.02
0.11
-0.35
-6.91
-0.03
2.32
0.08
-0.11

> <PUBCHEM_SHAPE_SELFOVERLAP>
863.742

> <PUBCHEM_SHAPE_VOLUME>
231.6

> <PUBCHEM_COORDINATE_TYPE>
2
5
10

$$$$
