1223083
  -OEChem-01171809423D

 53 55  0     0  0  0  0  0  0999 V2000
   -4.4097   -1.1227   -1.8190 O   0  0  0  0  0  0  0  0  0  0  0  0
    1.4404   -0.6673    0.5154 O   0  0  0  0  0  0  0  0  0  0  0  0
    6.5404    1.3135   -0.1537 O   0  0  0  0  0  0  0  0  0  0  0  0
   -4.3750    0.3348    0.0152 N   0  0  0  0  0  0  0  0  0  0  0  0
   -3.4383    3.1720    0.5402 C   0  0  0  0  0  0  0  0  0  0  0  0
   -4.5610    3.4966   -0.4443 C   0  0  0  0  0  0  0  0  0  0  0  0
   -3.8750    2.2211    1.6530 C   0  0  0  0  0  0  0  0  0  0  0  0
   -5.0325    2.3229   -1.2996 C   0  0  0  0  0  0  0  0  0  0  0  0
   -3.7549    0.7432    1.2822 C   0  0  0  0  0  0  0  0  0  0  0  0
   -5.5031    1.1152   -0.4940 C   0  0  0  0  0  0  0  0  0  0  0  0
   -3.9288   -0.7583   -0.7464 C   0  0  0  0  0  0  0  0  0  0  0  0
   -2.7977   -1.5501   -0.2379 C   0  0  0  0  0  0  0  0  0  0  0  0
   -1.4963   -1.1997   -0.5853 C   0  0  0  0  0  0  0  0  0  0  0  0
   -3.0363   -2.6450    0.5878 C   0  0  0  0  0  0  0  0  0  0  0  0
   -0.4242   -1.9504   -0.1029 C   0  0  0  0  0  0  0  0  0  0  0  0
   -1.9644   -3.3958    1.0702 C   0  0  0  0  0  0  0  0  0  0  0  0
   -0.6583   -3.0484    0.7249 C   0  0  0  0  0  0  0  0  0  0  0  0
    0.9727   -1.5788   -0.4712 C   0  0  0  0  0  0  0  0  0  0  0  0
    2.7081   -0.1748    0.3490 C   0  0  0  0  0  0  0  0  0  0  0  0
    3.4636   -0.5756   -0.7470 C   0  0  0  0  0  0  0  0  0  0  0  0
    3.2260    0.7207    1.2779 C   0  0  0  0  0  0  0  0  0  0  0  0
    5.2807    0.8246    0.0114 C   0  0  0  0  0  0  0  0  0  0  0  0
    4.7543   -0.0743   -0.9163 C   0  0  0  0  0  0  0  0  0  0  0  0
    4.5166    1.2220    1.1086 C   0  0  0  0  0  0  0  0  0  0  0  0
    7.4819    0.4712   -0.8167 C   0  0  0  0  0  0  0  0  0  0  0  0
    8.8709    0.7832   -0.3016 C   0  0  0  0  0  0  0  0  0  0  0  0
   -3.1252    4.1159    1.0038 H   0  0  0  0  0  0  0  0  0  0  0  0
   -2.5629    2.7780    0.0106 H   0  0  0  0  0  0  0  0  0  0  0  0
   -4.2155    4.2927   -1.1155 H   0  0  0  0  0  0  0  0  0  0  0  0
   -5.4167    3.9100    0.1046 H   0  0  0  0  0  0  0  0  0  0  0  0
   -4.8969    2.4548    1.9745 H   0  0  0  0  0  0  0  0  0  0  0  0
   -3.2387    2.3925    2.5305 H   0  0  0  0  0  0  0  0  0  0  0  0
   -4.2318    2.0287   -1.9894 H   0  0  0  0  0  0  0  0  0  0  0  0
   -5.8670    2.6754   -1.9182 H   0  0  0  0  0  0  0  0  0  0  0  0
   -2.6934    0.4802    1.2730 H   0  0  0  0  0  0  0  0  0  0  0  0
   -4.2216    0.1369    2.0677 H   0  0  0  0  0  0  0  0  0  0  0  0
   -6.1602    1.3969    0.3358 H   0  0  0  0  0  0  0  0  0  0  0  0
   -6.0987    0.4753   -1.1556 H   0  0  0  0  0  0  0  0  0  0  0  0
   -1.3175   -0.3410   -1.2282 H   0  0  0  0  0  0  0  0  0  0  0  0
   -4.0502   -2.9229    0.8630 H   0  0  0  0  0  0  0  0  0  0  0  0
   -2.1466   -4.2502    1.7155 H   0  0  0  0  0  0  0  0  0  0  0  0
    0.1682   -3.6401    1.1096 H   0  0  0  0  0  0  0  0  0  0  0  0
    0.9615   -1.1168   -1.4672 H   0  0  0  0  0  0  0  0  0  0  0  0
    1.5903   -2.4861   -0.4962 H   0  0  0  0  0  0  0  0  0  0  0  0
    3.1192   -1.2665   -1.5082 H   0  0  0  0  0  0  0  0  0  0  0  0
    2.6341    1.0327    2.1336 H   0  0  0  0  0  0  0  0  0  0  0  0
    5.3061   -0.3874   -1.7977 H   0  0  0  0  0  0  0  0  0  0  0  0
    4.9214    1.9217    1.8346 H   0  0  0  0  0  0  0  0  0  0  0  0
    7.2894   -0.5910   -0.6195 H   0  0  0  0  0  0  0  0  0  0  0  0
    7.4358    0.6586   -1.8951 H   0  0  0  0  0  0  0  0  0  0  0  0
    8.9289    0.6136    0.7787 H   0  0  0  0  0  0  0  0  0  0  0  0
    9.1174    1.8365   -0.4716 H   0  0  0  0  0  0  0  0  0  0  0  0
    9.6214    0.1612   -0.7974 H   0  0  0  0  0  0  0  0  0  0  0  0
  1 11  2  0  0  0  0
  2 18  1  0  0  0  0
  2 19  1  0  0  0  0
  3 22  1  0  0  0  0
  3 25  1  0  0  0  0
  4  9  1  0  0  0  0
  4 10  1  0  0  0  0
  4 11  1  0  0  0  0
  5  6  1  0  0  0  0
  5  7  1  0  0  0  0
  5 27  1  0  0  0  0
  5 28  1  0  0  0  0
  6  8  1  0  0  0  0
  6 29  1  0  0  0  0
  6 30  1  0  0  0  0
  7  9  1  0  0  0  0
  7 31  1  0  0  0  0
  7 32  1  0  0  0  0
  8 10  1  0  0  0  0
  8 33  1  0  0  0  0
  8 34  1  0  0  0  0
  9 35  1  0  0  0  0
  9 36  1  0  0  0  0
 10 37  1  0  0  0  0
 10 38  1  0  0  0  0
 11 12  1  0  0  0  0
 12 13  1  0  0  0  0
 12 14  2  0  0  0  0
 13 15  2  0  0  0  0
 13 39  1  0  0  0  0
 14 16  1  0  0  0  0
 14 40  1  0  0  0  0
 15 17  1  0  0  0  0
 15 18  1  0  0  0  0
 16 17  2  0  0  0  0
 16 41  1  0  0  0  0
 17 42  1  0  0  0  0
 18 43  1  0  0  0  0
 18 44  1  0  0  0  0
 19 20  2  0  0  0  0
 19 21  1  0  0  0  0
 20 23  1  0  0  0  0
 20 45  1  0  0  0  0
 21 24  2  0  0  0  0
 21 46  1  0  0  0  0
 22 23  2  0  0  0  0
 22 24  1  0  0  0  0
 23 47  1  0  0  0  0
 24 48  1  0  0  0  0
 25 26  1  0  0  0  0
 25 49  1  0  0  0  0
 25 50  1  0  0  0  0
 26 51  1  0  0  0  0
 26 52  1  0  0  0  0
 26 53  1  0  0  0  0
M  END
> <PUBCHEM_COMPOUND_CID>
1223083

> <PUBCHEM_CONFORMER_RMSD>
1

> <PUBCHEM_CONFORMER_DIVERSEORDER>
1
63
92
17
56
99
21
2
50
43
100
94
65
64
42
70
51
32
49
23
83
60
57
66
5
31
10
87
59
93
72
52
16
19
39
27
80
103
79
67
38
98
8
45
102
35
47
46
53
26
20
40
34
105
4
82
12
77
61
29
101
73
81
37
3
68
85
104
11
14
18
7
28
55
76
9
84
88
96
6
15
91
74
69
48
24
90
54
36
13
22
58
33
71
86
89
75
30
62
41
25
44
97
78
95

> <PUBCHEM_MMFF94_PARTIAL_CHARGES>
29
1 -0.57
10 0.3
11 0.54
12 0.09
13 -0.15
14 -0.15
15 -0.14
16 -0.15
17 -0.15
18 0.42
19 0.08
2 -0.36
20 -0.15
21 -0.15
22 0.08
23 -0.15
24 -0.15
25 0.28
3 -0.36
39 0.15
4 -0.66
40 0.15
41 0.15
42 0.15
45 0.15
46 0.15
47 0.15
48 0.15
9 0.3

> <PUBCHEM_EFFECTIVE_ROTOR_COUNT>
8.4

> <PUBCHEM_PHARMACOPHORE_FEATURES>
6
1 1 acceptor
1 2 acceptor
1 3 acceptor
6 12 13 14 15 16 17 rings
6 19 20 21 22 23 24 rings
7 4 5 6 7 8 9 10 rings

> <PUBCHEM_HEAVY_ATOM_COUNT>
26

> <PUBCHEM_ATOM_DEF_STEREO_COUNT>
0

> <PUBCHEM_ATOM_UDEF_STEREO_COUNT>
0

> <PUBCHEM_BOND_DEF_STEREO_COUNT>
0

> <PUBCHEM_BOND_UDEF_STEREO_COUNT>
0

> <PUBCHEM_ISOTOPIC_ATOM_COUNT>
0

> <PUBCHEM_COMPONENT_COUNT>
1

> <PUBCHEM_CACTVS_TAUTO_COUNT>
1

> <PUBCHEM_CONFORMER_ID>
0012A9AB00000001

> <PUBCHEM_MMFF94_ENERGY>
80.5849

> <PUBCHEM_FEATURE_SELFOVERLAP>
30.448

> <PUBCHEM_SHAPE_FINGERPRINT>
100830 39 18409451397049671672
10291535 26 18411986892422744179
10319688 45 9583522014183269323
10411042 1 17831866016588543011
10670039 82 18412822499373398176
11273773 118 18261121772514907010
12107183 9 18043515145677050914
14251751 18 9079121063883917498
14251764 75 17838909140146574961
14347329 18 18341608226833456688
14848178 96 18267582408176345363
14931854 50 18059846221975493345
14950920 106 15285940085977215149
15183329 4 18060702771618803314
15198563 99 18056460972082210119
15513586 35 16590582186472624005
155225 5 18339644421520421368
15629462 23 16629136360333167336
16120349 189 18042675118877592181
17844677 252 18192721261636076538
17980427 26 18191851341443472911
18608769 82 18339648936131877795
19304152 47 18188502259527387657
21033648 29 18058722641387453042
21279426 13 18271818869802853614
21623969 137 12973878213696072808
21756936 100 18408886248073319471
21859007 373 18130494306915900056
21927370 108 18120664784580608363
23522609 53 17168722920319856572
23559900 14 18338797922832585810
23569914 152 17053883083689085510
2838139 119 18341891922413598092
312425 54 11747201425383558660
397830 11 7853566865356166926
4144715 1 18044666527988304770
44555599 121 18041006193782246364
445580 204 18412542102581133084
44802255 64 17632296817519875526
469060 322 18261692423856386945
508706 21 18341325686404338489
5283173 99 18342177786857571312
531348 171 17918277549736564958
5372103 7 17314772024811256709
6299153 45 18190734246577464642
6328613 192 18407761422350918850
636775 72 18411979204748243360
68570916 9 10015866492685963666
7288768 16 18040438746665425243
7808743 9 18335417963394413659
7970288 3 10087338042262120437
9953998 17 11241964889097101870
9981440 41 18334011662738514355

> <PUBCHEM_SHAPE_MULTIPOLES>
512.48
18.81
3.79
1.31
38.75
0.21
-0.09
-14.16
4.11
-7.05
-0.77
-0.92
-0.22
0.36

> <PUBCHEM_SHAPE_SELFOVERLAP>
1077.221

> <PUBCHEM_SHAPE_VOLUME>
286.4

> <PUBCHEM_COORDINATE_TYPE>
2
5
10

$$$$
