2040656
  -OEChem-01171809343D

 40 41  0     0  0  0  0  0  0999 V2000
   -0.0517   -1.2888   -0.3124 S   0  0  0  0  0  0  0  0  0  0  0  0
    2.0988    0.8690    1.9930 O   0  0  0  0  0  0  0  0  0  0  0  0
    1.9376   -2.9764   -0.6346 O   0  0  0  0  0  0  0  0  0  0  0  0
    5.6014    2.4420   -1.2475 O   0  0  0  0  0  0  0  0  0  0  0  0
    6.5117    0.4007   -1.6444 O   0  0  0  0  0  0  0  0  0  0  0  0
    2.2899   -1.1224    0.7634 N   0  0  0  0  0  0  0  0  0  0  0  0
    3.6490   -1.4343    1.1127 C   0  0  0  0  0  0  0  0  0  0  0  0
    4.6582   -0.9174    0.0883 C   0  0  0  0  0  0  0  0  0  0  0  0
    4.6607    0.6049   -0.0732 C   0  0  0  0  0  0  0  0  0  0  0  0
    1.6376    0.0167    1.2462 C   0  0  0  0  0  0  0  0  0  0  0  0
    0.2561    0.0581    0.7090 C   0  0  0  0  0  0  0  0  0  0  0  0
    1.5649   -1.9466   -0.0919 C   0  0  0  0  0  0  0  0  0  0  0  0
   -0.6144    1.0273    0.9962 C   0  0  0  0  0  0  0  0  0  0  0  0
   -1.9922    1.1476    0.5130 C   0  0  0  0  0  0  0  0  0  0  0  0
    5.6960    1.0994   -1.0594 C   0  0  0  0  0  0  0  0  0  0  0  0
   -2.7485    0.0332    0.4294 C   0  0  0  0  0  0  0  0  0  0  0  0
   -4.1360   -0.0310   -0.0425 C   0  0  0  0  0  0  0  0  0  0  0  0
   -2.4854    2.5258    0.1489 C   0  0  0  0  0  0  0  0  0  0  0  0
   -5.1766    0.1258    0.8634 C   0  0  0  0  0  0  0  0  0  0  0  0
   -4.3904   -0.2460   -1.3906 C   0  0  0  0  0  0  0  0  0  0  0  0
   -6.4955    0.0665    0.4130 C   0  0  0  0  0  0  0  0  0  0  0  0
   -5.7093   -0.3052   -1.8408 C   0  0  0  0  0  0  0  0  0  0  0  0
   -6.7619   -0.1490   -0.9391 C   0  0  0  0  0  0  0  0  0  0  0  0
    3.8751   -1.0073    2.0964 H   0  0  0  0  0  0  0  0  0  0  0  0
    3.7511   -2.5229    1.1916 H   0  0  0  0  0  0  0  0  0  0  0  0
    4.4619   -1.3797   -0.8876 H   0  0  0  0  0  0  0  0  0  0  0  0
    5.6601   -1.2488    0.3886 H   0  0  0  0  0  0  0  0  0  0  0  0
    4.8638    1.0793    0.8932 H   0  0  0  0  0  0  0  0  0  0  0  0
    3.6855    0.9414   -0.4402 H   0  0  0  0  0  0  0  0  0  0  0  0
   -0.3009    1.8471    1.6407 H   0  0  0  0  0  0  0  0  0  0  0  0
   -2.4143   -0.9269    0.8112 H   0  0  0  0  0  0  0  0  0  0  0  0
   -3.5128    2.5376   -0.2246 H   0  0  0  0  0  0  0  0  0  0  0  0
   -1.8499    2.9572   -0.6323 H   0  0  0  0  0  0  0  0  0  0  0  0
   -2.4474    3.1834    1.0243 H   0  0  0  0  0  0  0  0  0  0  0  0
   -4.9830    0.2945    1.9196 H   0  0  0  0  0  0  0  0  0  0  0  0
   -3.5795   -0.3693   -2.1039 H   0  0  0  0  0  0  0  0  0  0  0  0
   -7.3152    0.1883    1.1151 H   0  0  0  0  0  0  0  0  0  0  0  0
   -5.9167   -0.4730   -2.8937 H   0  0  0  0  0  0  0  0  0  0  0  0
    6.2630    2.7677   -1.8944 H   0  0  0  0  0  0  0  0  0  0  0  0
   -7.7888   -0.1950   -1.2896 H   0  0  0  0  0  0  0  0  0  0  0  0
  1 11  1  0  0  0  0
  1 12  1  0  0  0  0
  2 10  2  0  0  0  0
  3 12  2  0  0  0  0
  4 15  1  0  0  0  0
  4 39  1  0  0  0  0
  5 15  2  0  0  0  0
  6  7  1  0  0  0  0
  6 10  1  0  0  0  0
  6 12  1  0  0  0  0
  7  8  1  0  0  0  0
  7 24  1  0  0  0  0
  7 25  1  0  0  0  0
  8  9  1  0  0  0  0
  8 26  1  0  0  0  0
  8 27  1  0  0  0  0
  9 15  1  0  0  0  0
  9 28  1  0  0  0  0
  9 29  1  0  0  0  0
 10 11  1  0  0  0  0
 11 13  2  0  0  0  0
 13 14  1  0  0  0  0
 13 30  1  0  0  0  0
 14 16  2  0  0  0  0
 14 18  1  0  0  0  0
 16 17  1  0  0  0  0
 16 31  1  0  0  0  0
 17 19  2  0  0  0  0
 17 20  1  0  0  0  0
 18 32  1  0  0  0  0
 18 33  1  0  0  0  0
 18 34  1  0  0  0  0
 19 21  1  0  0  0  0
 19 35  1  0  0  0  0
 20 22  2  0  0  0  0
 20 36  1  0  0  0  0
 21 23  2  0  0  0  0
 21 37  1  0  0  0  0
 22 23  1  0  0  0  0
 22 38  1  0  0  0  0
 23 40  1  0  0  0  0
M  END
> <PUBCHEM_COMPOUND_CID>
2040656

> <PUBCHEM_CONFORMER_RMSD>
0.8

> <PUBCHEM_CONFORMER_DIVERSEORDER>
1
15
32
40
25
17
42
41
2
33
9
14
43
44
22
12
35
24
38
37
31
23
34
10
29
36
13
18
11
21
20
39
28
8
16
30
27
6
19
26
5
7
4
3

> <PUBCHEM_MMFF94_PARTIAL_CHARGES>
30
1 -0.24
10 0.62
11 0.12
12 0.77
13 -0.15
14 -0.14
15 0.66
16 -0.18
17 0.03
18 0.14
19 -0.15
2 -0.57
20 -0.15
21 -0.15
22 -0.15
23 -0.15
3 -0.57
30 0.15
31 0.15
35 0.15
36 0.15
37 0.15
38 0.15
39 0.5
4 -0.65
40 0.15
5 -0.57
6 -0.42
7 0.3
9 0.06

> <PUBCHEM_EFFECTIVE_ROTOR_COUNT>
6.4

> <PUBCHEM_PHARMACOPHORE_FEATURES>
7
1 18 hydrophobe
1 2 acceptor
1 4 acceptor
1 5 acceptor
3 4 5 15 anion
5 1 6 10 11 12 rings
6 17 19 20 21 22 23 rings

> <PUBCHEM_HEAVY_ATOM_COUNT>
23

> <PUBCHEM_ATOM_DEF_STEREO_COUNT>
0

> <PUBCHEM_ATOM_UDEF_STEREO_COUNT>
0

> <PUBCHEM_BOND_DEF_STEREO_COUNT>
2

> <PUBCHEM_BOND_UDEF_STEREO_COUNT>
0

> <PUBCHEM_ISOTOPIC_ATOM_COUNT>
0

> <PUBCHEM_COMPONENT_COUNT>
1

> <PUBCHEM_CACTVS_TAUTO_COUNT>
1

> <PUBCHEM_CONFORMER_ID>
001F235000000001

> <PUBCHEM_MMFF94_ENERGY>
47.2839

> <PUBCHEM_FEATURE_SELFOVERLAP>
35.579

> <PUBCHEM_SHAPE_FINGERPRINT>
10366900 7 18272366473431684851
10906281 52 18342188734871743955
11405975 8 8790301353567656439
11545043 162 13830132780588387651
11646440 116 13695874684153602765
11961588 58 18334858363826654706
13150687 139 18340498841872413094
13685833 64 14189579628809413212
13782708 43 13038897876554281205
14123256 10 18411982464184581836
14251764 30 15841555154363830676
14528608 73 18410294705393860068
14617045 38 18202563973716584359
14767858 380 18342740732210121964
14787075 74 18341891870568366835
14840074 17 18342174479706321389
15183329 4 16272217383442937758
15537594 2 17846772993152148223
15575132 122 18411698755957084453
15961568 22 17530684299155826676
18335252 114 18259983786992229860
19319366 153 18410564068410614278
20511986 3 14418400101698815451
20554085 129 13984653781043341025
20567600 234 15502667043526071614
21033648 29 15068344527490813840
21049683 118 17532923012852741392
21049683 271 18335987579591466917
21150785 3 18186798115235302223
21267235 1 17489867176985881319
21344244 181 16630537236773018038
21344244 246 17916039958540086022
21475661 188 16371293350199533212
21641784 216 18338525148563324940
2297311 6 16487259863598440577
23016692 55 17275105032954999089
23035841 295 17203328896961780559
23522609 53 18058472957358286881
23559900 14 18335979874140186697
2916195 48 16081366362775113973
33382 64 13973692719655502452
34797466 226 17458345225808802899
4325135 7 18341896272809313052
5104073 3 13335007254415380773
5207 217 18261115196561241602
59755656 215 16200435753938485143

> <PUBCHEM_SHAPE_MULTIPOLES>
448.72
17
2.04
1.5
3.58
0.05
-0.23
-2.81
-7.85
-2.32
-0.29
-0.38
-0.23
-1.69

> <PUBCHEM_SHAPE_SELFOVERLAP>
929.877

> <PUBCHEM_SHAPE_VOLUME>
257.1

> <PUBCHEM_COORDINATE_TYPE>
2
5
10

$$$$
