2214004
  -OEChem-01171810063D

 52 55  0     0  0  0  0  0  0999 V2000
   -7.7719   -1.4243   -1.7419 F   0  0  0  0  0  0  0  0  0  0  0  0
    6.4053   -0.1042   -0.1643 O   0  0  0  0  0  0  0  0  0  0  0  0
    3.9882    2.4098    0.2469 O   0  0  0  0  0  0  0  0  0  0  0  0
    9.7191   -1.1451   -0.5490 O   0  5  0  0  0  0  0  0  0  0  0  0
    7.8290   -2.2685   -0.4896 O   0  0  0  0  0  0  0  0  0  0  0  0
   -4.6209   -0.8381    0.7138 N   0  0  0  0  0  0  0  0  0  0  0  0
   -1.7965   -0.6107    0.3533 N   0  0  0  0  0  0  0  0  0  0  0  0
    3.7649    0.0960    0.0821 N   0  0  0  0  0  0  0  0  0  0  0  0
    8.4581   -1.1712   -0.4419 N   0  3  0  0  0  0  0  0  0  0  0  0
   -4.0748   -0.1373   -0.4546 C   0  0  0  0  0  0  0  0  0  0  0  0
   -3.7329   -1.9441    1.0929 C   0  0  0  0  0  0  0  0  0  0  0  0
   -2.6882    0.4368   -0.1537 C   0  0  0  0  0  0  0  0  0  0  0  0
   -2.3355   -1.4297    1.4464 C   0  0  0  0  0  0  0  0  0  0  0  0
   -5.9670   -1.3351    0.4314 C   0  0  0  0  0  0  0  0  0  0  0  0
   -0.4099   -0.4344    0.2859 C   0  0  0  0  0  0  0  0  0  0  0  0
   -6.8878   -0.1971    0.0877 C   0  0  0  0  0  0  0  0  0  0  0  0
    0.4563   -1.5377    0.1505 C   0  0  0  0  0  0  0  0  0  0  0  0
    0.1625    0.8518    0.3513 C   0  0  0  0  0  0  0  0  0  0  0  0
   -7.7496   -0.3113   -0.9955 C   0  0  0  0  0  0  0  0  0  0  0  0
   -6.8653    0.9562    0.8615 C   0  0  0  0  0  0  0  0  0  0  0  0
    1.8385   -1.3622    0.0830 C   0  0  0  0  0  0  0  0  0  0  0  0
    1.5446    1.0274    0.2839 C   0  0  0  0  0  0  0  0  0  0  0  0
    2.3826   -0.0796    0.1497 C   0  0  0  0  0  0  0  0  0  0  0  0
   -8.6034    0.7458   -1.3103 C   0  0  0  0  0  0  0  0  0  0  0  0
   -7.7191    2.0132    0.5468 C   0  0  0  0  0  0  0  0  0  0  0  0
   -8.5881    1.9080   -0.5392 C   0  0  0  0  0  0  0  0  0  0  0  0
    4.4998    1.2980    0.1315 C   0  0  0  0  0  0  0  0  0  0  0  0
    5.9580    1.1454   -0.0086 C   0  0  0  0  0  0  0  0  0  0  0  0
    6.9257    2.0765   -0.0047 C   0  0  0  0  0  0  0  0  0  0  0  0
    8.1242    1.3437   -0.1766 C   0  0  0  0  0  0  0  0  0  0  0  0
    7.7542    0.0220   -0.2687 C   0  0  0  0  0  0  0  0  0  0  0  0
   -4.0040   -0.8209   -1.3123 H   0  0  0  0  0  0  0  0  0  0  0  0
   -4.6931    0.7081   -0.7732 H   0  0  0  0  0  0  0  0  0  0  0  0
   -4.1372   -2.4660    1.9688 H   0  0  0  0  0  0  0  0  0  0  0  0
   -3.6579   -2.6791    0.2799 H   0  0  0  0  0  0  0  0  0  0  0  0
   -2.7751    1.2433    0.5858 H   0  0  0  0  0  0  0  0  0  0  0  0
   -2.2893    0.8675   -1.0806 H   0  0  0  0  0  0  0  0  0  0  0  0
   -1.6968   -2.2951    1.6569 H   0  0  0  0  0  0  0  0  0  0  0  0
   -2.3756   -0.8264    2.3626 H   0  0  0  0  0  0  0  0  0  0  0  0
   -5.9417   -2.0758   -0.3785 H   0  0  0  0  0  0  0  0  0  0  0  0
   -6.3789   -1.8380    1.3158 H   0  0  0  0  0  0  0  0  0  0  0  0
    0.0542   -2.5463    0.0834 H   0  0  0  0  0  0  0  0  0  0  0  0
   -0.4591    1.7361    0.4687 H   0  0  0  0  0  0  0  0  0  0  0  0
   -6.2091    1.0548    1.7218 H   0  0  0  0  0  0  0  0  0  0  0  0
    2.4795   -2.2335   -0.0243 H   0  0  0  0  0  0  0  0  0  0  0  0
    1.8820    2.0515    0.3460 H   0  0  0  0  0  0  0  0  0  0  0  0
   -9.2802    0.6636   -2.1557 H   0  0  0  0  0  0  0  0  0  0  0  0
   -7.7102    2.9168    1.1493 H   0  0  0  0  0  0  0  0  0  0  0  0
   -9.2536    2.7307   -0.7838 H   0  0  0  0  0  0  0  0  0  0  0  0
    4.3057   -0.7604   -0.0214 H   0  0  0  0  0  0  0  0  0  0  0  0
    6.8205    3.1462    0.1045 H   0  0  0  0  0  0  0  0  0  0  0  0
    9.1299    1.7367   -0.2264 H   0  0  0  0  0  0  0  0  0  0  0  0
  1 19  1  0  0  0  0
  2 28  1  0  0  0  0
  2 31  1  0  0  0  0
  3 27  2  0  0  0  0
  4  9  1  0  0  0  0
  5  9  2  0  0  0  0
  6 10  1  0  0  0  0
  6 11  1  0  0  0  0
  6 14  1  0  0  0  0
  7 12  1  0  0  0  0
  7 13  1  0  0  0  0
  7 15  1  0  0  0  0
  8 23  1  0  0  0  0
  8 27  1  0  0  0  0
  8 50  1  0  0  0  0
  9 31  1  0  0  0  0
 10 12  1  0  0  0  0
 10 32  1  0  0  0  0
 10 33  1  0  0  0  0
 11 13  1  0  0  0  0
 11 34  1  0  0  0  0
 11 35  1  0  0  0  0
 12 36  1  0  0  0  0
 12 37  1  0  0  0  0
 13 38  1  0  0  0  0
 13 39  1  0  0  0  0
 14 16  1  0  0  0  0
 14 40  1  0  0  0  0
 14 41  1  0  0  0  0
 15 17  2  0  0  0  0
 15 18  1  0  0  0  0
 16 19  1  0  0  0  0
 16 20  2  0  0  0  0
 17 21  1  0  0  0  0
 17 42  1  0  0  0  0
 18 22  2  0  0  0  0
 18 43  1  0  0  0  0
 19 24  2  0  0  0  0
 20 25  1  0  0  0  0
 20 44  1  0  0  0  0
 21 23  2  0  0  0  0
 21 45  1  0  0  0  0
 22 23  1  0  0  0  0
 22 46  1  0  0  0  0
 24 26  1  0  0  0  0
 24 47  1  0  0  0  0
 25 26  2  0  0  0  0
 25 48  1  0  0  0  0
 26 49  1  0  0  0  0
 27 28  1  0  0  0  0
 28 29  2  0  0  0  0
 29 30  1  0  0  0  0
 29 51  1  0  0  0  0
 30 31  2  0  0  0  0
 30 52  1  0  0  0  0
M  CHG  2   4  -1   9   1
M  END
> <PUBCHEM_COMPOUND_CID>
2214004

> <PUBCHEM_CONFORMER_RMSD>
1

> <PUBCHEM_CONFORMER_DIVERSEORDER>
1
41
74
69
46
6
53
14
59
60
84
81
76
27
73
78
62
85
23
38
82
75
66
58
54
12
79
2
71
32
50
80
51
26
52
9
70
42
68
77
57
33
72
37
16
34
83
30
47
87
21
48
49
67
45
56
13
64
55
22
11
10
15
5
43
24
3
63
28
36
44
35
18
19
4
29
40
86
7
25
65
8
31
39
17
20
61

> <PUBCHEM_MMFF94_PARTIAL_CHARGES>
42
1 -0.19
10 0.27
11 0.27
12 0.37
13 0.37
14 0.41
15 0.1
16 -0.14
17 -0.15
18 -0.15
19 0.19
2 -0.28
20 -0.15
21 -0.15
22 -0.15
23 0.12
24 -0.15
25 -0.15
26 -0.15
27 0.71
28 0.05
29 -0.15
3 -0.57
30 -0.15
31 0.22
4 -0.52
42 0.15
43 0.15
44 0.15
45 0.15
46 0.15
47 0.15
48 0.15
49 0.15
5 -0.52
50 0.37
51 0.15
52 0.15
6 -0.81
7 -0.84
8 -0.55
9 0.96

> <PUBCHEM_EFFECTIVE_ROTOR_COUNT>
8.2

> <PUBCHEM_PHARMACOPHORE_FEATURES>
12
1 2 acceptor
1 3 acceptor
1 4 acceptor
1 4 anion
1 5 acceptor
1 6 cation
1 7 cation
1 8 donor
5 2 28 29 30 31 rings
6 15 17 18 21 22 23 rings
6 16 19 20 24 25 26 rings
6 6 7 10 11 12 13 rings

> <PUBCHEM_HEAVY_ATOM_COUNT>
31

> <PUBCHEM_ATOM_DEF_STEREO_COUNT>
0

> <PUBCHEM_ATOM_UDEF_STEREO_COUNT>
0

> <PUBCHEM_BOND_DEF_STEREO_COUNT>
0

> <PUBCHEM_BOND_UDEF_STEREO_COUNT>
0

> <PUBCHEM_ISOTOPIC_ATOM_COUNT>
0

> <PUBCHEM_COMPONENT_COUNT>
1

> <PUBCHEM_CACTVS_TAUTO_COUNT>
2

> <PUBCHEM_CONFORMER_ID>
0021C87400000001

> <PUBCHEM_MMFF94_ENERGY>
91.7986

> <PUBCHEM_FEATURE_SELFOVERLAP>
60.99

> <PUBCHEM_SHAPE_FINGERPRINT>
10 15 16950558870845019265
10162869 55 14692567732969412440
10209105 3 18264208016404295714
106641 1 8790881882917165788
10666366 153 18341059545230754518
10669705 176 18410292497696338925
11181472 205 17676205728428244608
11315181 36 18341896316740154889
11421887 21 18197213652064488693
11719270 70 18131917057550517518
12082328 90 18342736347607825143
12089408 11 14692580922708203882
13885169 127 18410576184444083009
14150022 121 11891319938434839935
14400156 413 18200591531751767544
14428016 86 18409451376070642505
14617042 71 15285934632222967796
14671636 106 9367334934682441905
15131766 46 16698901713040525344
15183329 4 18409163316729784209
15247644 1 15841554072306263102
15289351 153 18412259515055081216
15301273 46 18040154024344934406
15461852 350 18060135475364187599
15510794 2 18408327700788502267
1754908 1 10809341161122932269
1754911 235 18409446981453870519
18335252 114 18341609339272508568
20156587 128 17775279427848049597
21095123 145 14634877461756161297
21150785 3 16559034900380613849
21360442 43 18129657634492110047
21585482 111 18115584834733508109
21781055 127 16660936464941848038
21792934 111 18343576349143733032
21792961 116 18342176635373890608
232437 2 18413390947423080503
23576562 1 17985819557257175013
249057 3 17313106383877625140
28498 318 18411139139129912090
335352 9 18412267251145365956
3633792 109 18411704262068195562
3711267 37 16153710920489231468
4073 2 17968382350190247562
4169191 19 18334856109216886937
42767 2 18412827980310655726
4339292 15 15625931089673510045
439807 62 17894911803393346458
4625314 4 18408604794455173374
474113 269 18130509635685866430
57303763 176 18128541453209495408
58083652 198 17060060393137569616
58902169 19 17988917924910202389
5937810 71 18201160954510599137
59682541 35 10231752293025675300
6009941 240 17676492774008921211
636775 72 18334012796699914397
6691757 9 15410901803177927767
9962374 69 11023810769918586219

> <PUBCHEM_SHAPE_MULTIPOLES>
587.29
34.08
2.14
0.98
16.14
0.18
-0.09
6.46
-9.39
0.56
0.19
-1.84
-0.2
0.89

> <PUBCHEM_SHAPE_SELFOVERLAP>
1276.254

> <PUBCHEM_SHAPE_VOLUME>
320.8

> <PUBCHEM_COORDINATE_TYPE>
2
5
10

$$$$
