2346972
  -OEChem-01171809503D

 49 50  0     0  0  0  0  0  0999 V2000
   -5.0692   -1.4384   -0.6004 S   0  0  0  0  0  0  0  0  0  0  0  0
   -0.4288    0.8850   -0.1328 O   0  0  0  0  0  0  0  0  0  0  0  0
   -6.4744   -1.3326   -0.9782 O   0  0  0  0  0  0  0  0  0  0  0  0
   -4.1585   -2.1377   -1.5004 O   0  0  0  0  0  0  0  0  0  0  0  0
    3.2756    0.4280    2.2992 O   0  0  0  0  0  0  0  0  0  0  0  0
    7.2153   -0.2845   -0.0227 O   0  0  0  0  0  0  0  0  0  0  0  0
    1.0507   -1.2800    0.4792 O   0  0  0  0  0  0  0  0  0  0  0  0
   -0.7302    3.0666   -0.8031 O   0  0  0  0  0  0  0  0  0  0  0  0
    5.1847   -0.6300   -1.0951 N   0  0  0  0  0  0  0  0  0  0  0  0
    5.2734    0.0825    1.1698 N   0  0  0  0  0  0  0  0  0  0  0  0
   -4.9675   -2.1615    0.9680 N   0  0  0  0  0  0  0  0  0  0  0  0
    3.0842   -0.9977   -2.2238 N   0  0  0  0  0  0  0  0  0  0  0  0
    3.1314   -0.2825    0.0555 C   0  0  0  0  0  0  0  0  0  0  0  0
   -4.4505    0.1741   -0.3439 C   0  0  0  0  0  0  0  0  0  0  0  0
    3.7759   -0.6358   -1.0830 C   0  0  0  0  0  0  0  0  0  0  0  0
    3.8880    0.1098    1.2798 C   0  0  0  0  0  0  0  0  0  0  0  0
    5.9795   -0.2792    0.0098 C   0  0  0  0  0  0  0  0  0  0  0  0
   -3.0875    0.4306   -0.4927 C   0  0  0  0  0  0  0  0  0  0  0  0
    1.6520   -0.2720    0.1289 C   0  0  0  0  0  0  0  0  0  0  0  0
   -2.6236    1.7135   -0.2846 C   0  0  0  0  0  0  0  0  0  0  0  0
   -5.3198    1.2061    0.0100 C   0  0  0  0  0  0  0  0  0  0  0  0
    0.9734    1.0226   -0.2444 C   0  0  0  0  0  0  0  0  0  0  0  0
    5.8783   -1.0131   -2.3306 C   0  0  0  0  0  0  0  0  0  0  0  0
    6.0528    0.4575    2.3468 C   0  0  0  0  0  0  0  0  0  0  0  0
   -3.4633    2.7510    0.0659 C   0  0  0  0  0  0  0  0  0  0  0  0
   -4.8261    2.4946    0.2147 C   0  0  0  0  0  0  0  0  0  0  0  0
   -3.6246   -2.2557    1.5951 C   0  0  0  0  0  0  0  0  0  0  0  0
   -6.0184   -1.8081    1.9559 C   0  0  0  0  0  0  0  0  0  0  0  0
   -1.1729    1.9871   -0.4426 C   0  0  0  0  0  0  0  0  0  0  0  0
   -2.4139   -0.3724   -0.7768 H   0  0  0  0  0  0  0  0  0  0  0  0
   -6.3838    1.0279    0.1376 H   0  0  0  0  0  0  0  0  0  0  0  0
    1.3197    1.8066    0.4380 H   0  0  0  0  0  0  0  0  0  0  0  0
    1.2351    1.2728   -1.2783 H   0  0  0  0  0  0  0  0  0  0  0  0
    5.6074   -2.0408   -2.5933 H   0  0  0  0  0  0  0  0  0  0  0  0
    6.9653   -0.9711   -2.2215 H   0  0  0  0  0  0  0  0  0  0  0  0
    5.5952   -0.3241   -3.1327 H   0  0  0  0  0  0  0  0  0  0  0  0
    5.4275    0.7270    3.2010 H   0  0  0  0  0  0  0  0  0  0  0  0
    6.6933    1.3062    2.0861 H   0  0  0  0  0  0  0  0  0  0  0  0
    6.6966   -0.3841    2.6220 H   0  0  0  0  0  0  0  0  0  0  0  0
   -3.0904    3.7572    0.2318 H   0  0  0  0  0  0  0  0  0  0  0  0
   -5.5027    3.2976    0.4925 H   0  0  0  0  0  0  0  0  0  0  0  0
   -3.6344   -3.0369    2.3619 H   0  0  0  0  0  0  0  0  0  0  0  0
   -3.3427   -1.3074    2.0610 H   0  0  0  0  0  0  0  0  0  0  0  0
   -2.8713   -2.5397    0.8550 H   0  0  0  0  0  0  0  0  0  0  0  0
   -5.8734   -0.7908    2.3293 H   0  0  0  0  0  0  0  0  0  0  0  0
   -5.9801   -2.5027    2.8012 H   0  0  0  0  0  0  0  0  0  0  0  0
   -7.0121   -1.8986    1.5094 H   0  0  0  0  0  0  0  0  0  0  0  0
    2.0722   -1.0105   -2.2243 H   0  0  0  0  0  0  0  0  0  0  0  0
    3.5786   -1.2585   -3.0654 H   0  0  0  0  0  0  0  0  0  0  0  0
  1  3  2  0  0  0  0
  1  4  2  0  0  0  0
  1 11  1  0  0  0  0
  1 14  1  0  0  0  0
  2 22  1  0  0  0  0
  2 29  1  0  0  0  0
  5 16  2  0  0  0  0
  6 17  2  0  0  0  0
  7 19  2  0  0  0  0
  8 29  2  0  0  0  0
  9 15  1  0  0  0  0
  9 17  1  0  0  0  0
  9 23  1  0  0  0  0
 10 16  1  0  0  0  0
 10 17  1  0  0  0  0
 10 24  1  0  0  0  0
 11 27  1  0  0  0  0
 11 28  1  0  0  0  0
 12 15  1  0  0  0  0
 12 48  1  0  0  0  0
 12 49  1  0  0  0  0
 13 15  2  0  0  0  0
 13 16  1  0  0  0  0
 13 19  1  0  0  0  0
 14 18  1  0  0  0  0
 14 21  2  0  0  0  0
 18 20  2  0  0  0  0
 18 30  1  0  0  0  0
 19 22  1  0  0  0  0
 20 25  1  0  0  0  0
 20 29  1  0  0  0  0
 21 26  1  0  0  0  0
 21 31  1  0  0  0  0
 22 32  1  0  0  0  0
 22 33  1  0  0  0  0
 23 34  1  0  0  0  0
 23 35  1  0  0  0  0
 23 36  1  0  0  0  0
 24 37  1  0  0  0  0
 24 38  1  0  0  0  0
 24 39  1  0  0  0  0
 25 26  2  0  0  0  0
 25 40  1  0  0  0  0
 26 41  1  0  0  0  0
 27 42  1  0  0  0  0
 27 43  1  0  0  0  0
 27 44  1  0  0  0  0
 28 45  1  0  0  0  0
 28 46  1  0  0  0  0
 28 47  1  0  0  0  0
M  END
> <PUBCHEM_COMPOUND_CID>
2346972

> <PUBCHEM_CONFORMER_RMSD>
1.2

> <PUBCHEM_CONFORMER_DIVERSEORDER>
2
171
90
31
118
130
126
182
108
161
46
188
166
165
18
194
50
160
28
158
3
11
157
144
64
175
71
186
86
143
184
93
180
156
123
111
7
115
55
5
19
136
97
53
152
9
178
124
96
62
84
151
168
79
173
198
159
67
176
6
179
74
121
40
66
167
148
22
36
128
193
102
199
16
113
82
45
10
89
127
133
164
154
54
142
187
137
106
39
37
109
125
4
132
83
14
33
61
172
8
13
94
1
49
197
27
38
59
68
117
56
183
105
99
195
101
70
147
65
25
112
116
44
12
189
185
88
95
140
98
149
177
107
78
153
60
15
20
100
191
24
30
26
72
141
146
17
145
196
134
103
119
190
29
85
76
87
135
21
131
48
169
174
34
42
92
181
52
110
73
41
23
47
122
120
192
51
75
63
129
139
163
170
43
150
58
138
77
80
35
91
57
114
104
162
32
81
155
69

> <PUBCHEM_MMFF94_PARTIAL_CHARGES>
35
1 1.45
10 -0.42
11 -0.85
12 -0.9
13 0.03
14 -0.01
15 0.21
16 0.62
17 0.69
18 -0.15
19 0.49
2 -0.43
20 0.09
21 -0.15
22 0.34
23 0.3
24 0.3
25 -0.15
26 -0.15
27 0.36
28 0.36
29 0.63
3 -0.65
30 0.15
31 0.15
4 -0.65
40 0.15
41 0.15
48 0.4
49 0.4
5 -0.57
6 -0.57
7 -0.57
8 -0.57
9 -0.47

> <PUBCHEM_EFFECTIVE_ROTOR_COUNT>
7

> <PUBCHEM_PHARMACOPHORE_FEATURES>
11
1 12 cation
1 12 donor
1 13 anion
1 3 acceptor
1 4 acceptor
1 5 acceptor
1 6 acceptor
1 7 acceptor
1 8 acceptor
6 14 18 20 21 25 26 rings
6 9 10 13 15 16 17 rings

> <PUBCHEM_HEAVY_ATOM_COUNT>
29

> <PUBCHEM_ATOM_DEF_STEREO_COUNT>
0

> <PUBCHEM_ATOM_UDEF_STEREO_COUNT>
0

> <PUBCHEM_BOND_DEF_STEREO_COUNT>
0

> <PUBCHEM_BOND_UDEF_STEREO_COUNT>
0

> <PUBCHEM_ISOTOPIC_ATOM_COUNT>
0

> <PUBCHEM_COMPONENT_COUNT>
1

> <PUBCHEM_CACTVS_TAUTO_COUNT>
7

> <PUBCHEM_CONFORMER_ID>
0023CFDC00000002

> <PUBCHEM_MMFF94_ENERGY>
72.2402

> <PUBCHEM_FEATURE_SELFOVERLAP>
55.843

> <PUBCHEM_SHAPE_FINGERPRINT>
11014199 57 17839168959586884423
11370993 144 17203335459967136449
11545043 162 18059856138442653945
11552529 35 15050300515044430053
12166972 35 16950285147608843796
12236239 1 17168143421240238416
12616971 3 16877948195944756724
12730499 353 17489582356240001766
13782708 43 18131352969188020334
14461889 52 18342730824311368578
15021287 119 14477241561401660698
15183329 4 17095243622675818602
15328829 1 17095239246578768122
15510800 12 18339926034558155455
15513586 35 12318306611858725259
15537594 2 18188213100668957409
17138139 8 17168420600917552595
17349148 13 17385725764170441064
17686467 74 18260266387177148628
17844677 252 18060420222225405921
18927931 339 18410855473830747903
21033648 29 17846202354616131336
21315759 148 17917711279619955284
21623969 137 17132114632832289006
21792961 116 17917722271628182734
2303208 19 17917998256681725084
23559900 14 18201710743913948969
3383291 50 18410011079303796259
397830 11 17845924230057042816
4015057 19 14851899065992416189
4073 2 18271248222671529324
439807 62 16588310540274609139
5104073 3 18129659690794091426
5364581 5 18199738297120648001
5486654 36 18187093879821641849

> <PUBCHEM_SHAPE_MULTIPOLES>
539.65
19.13
2.64
1.9
10.84
0.93
0.28
-6.68
1.35
-6
0.09
2.53
-0.88
1.79

> <PUBCHEM_SHAPE_SELFOVERLAP>
1123.789

> <PUBCHEM_SHAPE_VOLUME>
309.2

> <PUBCHEM_COORDINATE_TYPE>
2
5
10

$$$$
