224561
  -OEChem-01171809193D

 24 25  0     0  0  0  0  0  0999 V2000
    1.7212   -2.1386   -0.0073 S   0  0  0  0  0  0  0  0  0  0  0  0
   -1.2972   -1.8482   -0.0003 S   0  0  0  0  0  0  0  0  0  0  0  0
   -5.9608    0.3634    0.0095 O   0  0  0  0  0  0  0  0  0  0  0  0
   -4.1595    1.7460   -0.0193 O   0  0  0  0  0  0  0  0  0  0  0  0
    0.5012    0.1337    0.0046 N   0  0  0  0  0  0  0  0  0  0  0  0
    2.6941   -0.7151   -0.0034 C   0  0  0  0  0  0  0  0  0  0  0  0
    1.8611    0.4079    0.0030 C   0  0  0  0  0  0  0  0  0  0  0  0
   -2.2986   -0.3384    0.0080 C   0  0  0  0  0  0  0  0  0  0  0  0
   -3.7905   -0.6414    0.0097 C   0  0  0  0  0  0  0  0  0  0  0  0
    0.3146   -1.1655   -0.0006 C   0  0  0  0  0  0  0  0  0  0  0  0
    4.0935   -0.6003   -0.0058 C   0  0  0  0  0  0  0  0  0  0  0  0
    2.4522    1.6900    0.0072 C   0  0  0  0  0  0  0  0  0  0  0  0
    4.6529    0.6800   -0.0016 C   0  0  0  0  0  0  0  0  0  0  0  0
    3.8448    1.8116    0.0048 C   0  0  0  0  0  0  0  0  0  0  0  0
   -4.6287    0.6149   -0.0086 C   0  0  0  0  0  0  0  0  0  0  0  0
   -2.0448    0.2553    0.8939 H   0  0  0  0  0  0  0  0  0  0  0  0
   -2.0474    0.2603   -0.8754 H   0  0  0  0  0  0  0  0  0  0  0  0
   -4.0584   -1.2288   -0.8763 H   0  0  0  0  0  0  0  0  0  0  0  0
   -4.0595   -1.2071    0.9093 H   0  0  0  0  0  0  0  0  0  0  0  0
    4.7306   -1.4792   -0.0108 H   0  0  0  0  0  0  0  0  0  0  0  0
    1.8303    2.5806    0.0122 H   0  0  0  0  0  0  0  0  0  0  0  0
    5.7340    0.7911   -0.0034 H   0  0  0  0  0  0  0  0  0  0  0  0
    4.2977    2.7993    0.0080 H   0  0  0  0  0  0  0  0  0  0  0  0
   -6.4897    1.1896    0.0069 H   0  0  0  0  0  0  0  0  0  0  0  0
  1  6  1  0  0  0  0
  1 10  1  0  0  0  0
  2  8  1  0  0  0  0
  2 10  1  0  0  0  0
  3 15  1  0  0  0  0
  3 24  1  0  0  0  0
  4 15  2  0  0  0  0
  5  7  1  0  0  0  0
  5 10  2  0  0  0  0
  6  7  1  0  0  0  0
  6 11  2  0  0  0  0
  7 12  2  0  0  0  0
  8  9  1  0  0  0  0
  8 16  1  0  0  0  0
  8 17  1  0  0  0  0
  9 15  1  0  0  0  0
  9 18  1  0  0  0  0
  9 19  1  0  0  0  0
 11 13  1  0  0  0  0
 11 20  1  0  0  0  0
 12 14  1  0  0  0  0
 12 21  1  0  0  0  0
 13 14  2  0  0  0  0
 13 22  1  0  0  0  0
 14 23  1  0  0  0  0
M  END
> <PUBCHEM_COMPOUND_CID>
224561

> <PUBCHEM_CONFORMER_RMSD>
0.6

> <PUBCHEM_CONFORMER_DIVERSEORDER>
1
60
63
3
65
52
62
44
35
14
58
21
27
57
26
48
22
49
56
59
10
42
15
41
51
24
54
30
2
61
23
9
12
8
11
28
53
32
50
66
13
19
34
7
4
38
55
5
39
40
6
45
18
16
20
37
25
17
31
29
33
46
36
64
43
47

> <PUBCHEM_MMFF94_PARTIAL_CHARGES>
20
1 -0.08
10 0.43
11 -0.15
12 -0.15
13 -0.15
14 -0.15
15 0.66
2 -0.29
20 0.15
21 0.15
22 0.15
23 0.15
24 0.5
3 -0.65
4 -0.57
5 -0.57
6 0.04
7 0.23
8 0.23
9 0.06

> <PUBCHEM_EFFECTIVE_ROTOR_COUNT>
4

> <PUBCHEM_PHARMACOPHORE_FEATURES>
6
1 3 acceptor
1 4 acceptor
1 5 acceptor
3 3 4 15 anion
5 1 5 6 7 10 rings
6 6 7 11 12 13 14 rings

> <PUBCHEM_HEAVY_ATOM_COUNT>
15

> <PUBCHEM_ATOM_DEF_STEREO_COUNT>
0

> <PUBCHEM_ATOM_UDEF_STEREO_COUNT>
0

> <PUBCHEM_BOND_DEF_STEREO_COUNT>
0

> <PUBCHEM_BOND_UDEF_STEREO_COUNT>
0

> <PUBCHEM_ISOTOPIC_ATOM_COUNT>
0

> <PUBCHEM_COMPONENT_COUNT>
1

> <PUBCHEM_CACTVS_TAUTO_COUNT>
1

> <PUBCHEM_CONFORMER_ID>
00036D3100000001

> <PUBCHEM_MMFF94_ENERGY>
21.298

> <PUBCHEM_FEATURE_SELFOVERLAP>
30.575

> <PUBCHEM_SHAPE_FINGERPRINT>
100836 57 18335144214731578588
10411042 1 17690280409014114254
11471102 20 18412263926308123574
122479 349 18334860566517591179
12596602 18 14779556703027914093
13081056 2 18409449172372565893
13922767 16 18412825815557473746
14123255 352 18334008376850746333
14123255 52 18411136956775245031
14252887 29 12829481528868009066
14415576 193 18411421717269828150
15188451 53 15792304820911493579
15196674 1 18410856602605325763
17834072 32 18339364166170893589
17834072 33 18343578564692593231
17834072 8 18201165399204826390
19784866 9 18410007728321417986
20645477 56 18333453145016982563
20645477 70 18201160953418316062
212847 35 18412262848155300864
21652331 79 18408885127302931733
231179 274 18335138682861297462
23402539 116 18202277030639461415
23402655 69 18273214213712468054
23559900 14 18272652338213351882
25 1 18409163337925201278
293599 30 18338800117338931764
335352 9 18410856556210356254
351380 180 18409446986207864345
3545911 37 18409451388602057779
4047638 21 18408323293787682786
4072396 5 18339631279505298362
4214541 1 18410575115144789251
474 4 18259988209874783145
495365 180 17489579117497109202
5104073 3 18335418006064785354
602551 16 15864649365170657987
633830 44 18335979874145519862
6430166 295 18410571803450548058
8272917 22 18342741775776833974

> <PUBCHEM_SHAPE_MULTIPOLES>
299.67
11.19
2.09
0.61
12.44
0.18
0
-5.27
-0.01
-0.71
0
-0.06
0.04
0.02

> <PUBCHEM_SHAPE_SELFOVERLAP>
607.346

> <PUBCHEM_SHAPE_VOLUME>
175.5

> <PUBCHEM_COORDINATE_TYPE>
2
5
10

$$$$
