9550470
  -OEChem-01171809233D

 58 61  0     0  0  0  0  0  0999 V2000
    5.1249    1.2780   -2.1180 O   0  0  0  0  0  0  0  0  0  0  0  0
   -5.4617    0.4649    2.0011 O   0  0  0  0  0  0  0  0  0  0  0  0
   -5.0502   -0.5098   -2.6526 O   0  0  0  0  0  0  0  0  0  0  0  0
    1.8632    2.6866    1.4810 O   0  0  0  0  0  0  0  0  0  0  0  0
    0.8809   -1.1885   -0.2294 N   0  0  0  0  0  0  0  0  0  0  0  0
    1.7744   -2.0917    1.8059 N   0  0  0  0  0  0  0  0  0  0  0  0
   -0.3139   -0.7824   -0.7481 N   0  0  0  0  0  0  0  0  0  0  0  0
    3.8655    1.4698   -0.1766 N   0  0  0  0  0  0  0  0  0  0  0  0
    3.2215   -1.6195   -0.1845 C   0  0  0  0  0  0  0  0  0  0  0  0
    2.1376   -1.1847   -0.8647 C   0  0  0  0  0  0  0  0  0  0  0  0
    4.6373   -1.6571   -0.6730 C   0  0  0  0  0  0  0  0  0  0  0  0
    2.9374   -2.0938    1.2257 C   0  0  0  0  0  0  0  0  0  0  0  0
    0.7249   -1.6328    1.0802 C   0  0  0  0  0  0  0  0  0  0  0  0
    5.4012   -0.3732   -0.3651 C   0  0  0  0  0  0  0  0  0  0  0  0
   -1.1936   -0.9737    0.2326 C   0  0  0  0  0  0  0  0  0  0  0  0
   -0.6092   -1.4987    1.3896 C   0  0  0  0  0  0  0  0  0  0  0  0
    2.1589   -0.6866   -2.2865 C   0  0  0  0  0  0  0  0  0  0  0  0
    4.0963   -2.6177    2.0480 C   0  0  0  0  0  0  0  0  0  0  0  0
   -2.5829   -0.6483    0.0418 C   0  0  0  0  0  0  0  0  0  0  0  0
    4.8004    0.8679   -1.0069 C   0  0  0  0  0  0  0  0  0  0  0  0
   -3.1482   -0.7380   -1.2283 C   0  0  0  0  0  0  0  0  0  0  0  0
   -3.3567   -0.2453    1.1277 C   0  0  0  0  0  0  0  0  0  0  0  0
    3.1577    2.6743   -0.5434 C   0  0  0  0  0  0  0  0  0  0  0  0
   -4.7028    0.0696    0.9426 C   0  0  0  0  0  0  0  0  0  0  0  0
   -4.4943   -0.4230   -1.4133 C   0  0  0  0  0  0  0  0  0  0  0  0
   -5.2717   -0.0192   -0.3278 C   0  0  0  0  0  0  0  0  0  0  0  0
    1.8223    2.6977    0.1355 C   0  0  0  0  0  0  0  0  0  0  0  0
    0.5552    2.7282   -0.3463 C   0  0  0  0  0  0  0  0  0  0  0  0
   -0.2776    2.7372    0.7979 C   0  0  0  0  0  0  0  0  0  0  0  0
    0.5656    2.7112    1.8843 C   0  0  0  0  0  0  0  0  0  0  0  0
   -6.8306    0.7714    1.7402 C   0  0  0  0  0  0  0  0  0  0  0  0
   -6.4318   -0.1729   -2.7697 C   0  0  0  0  0  0  0  0  0  0  0  0
    5.1807   -2.5157   -0.2661 H   0  0  0  0  0  0  0  0  0  0  0  0
    4.6534   -1.8288   -1.7557 H   0  0  0  0  0  0  0  0  0  0  0  0
    6.4272   -0.4659   -0.7424 H   0  0  0  0  0  0  0  0  0  0  0  0
    5.4913   -0.2142    0.7154 H   0  0  0  0  0  0  0  0  0  0  0  0
   -1.0704   -1.7600    2.3318 H   0  0  0  0  0  0  0  0  0  0  0  0
    3.1465   -0.7191   -2.7502 H   0  0  0  0  0  0  0  0  0  0  0  0
    1.4979   -1.2991   -2.9101 H   0  0  0  0  0  0  0  0  0  0  0  0
    1.8111    0.3505   -2.3355 H   0  0  0  0  0  0  0  0  0  0  0  0
    3.7596   -2.8528    3.0631 H   0  0  0  0  0  0  0  0  0  0  0  0
    4.4834   -3.5378    1.6019 H   0  0  0  0  0  0  0  0  0  0  0  0
    4.8886   -1.8715    2.1259 H   0  0  0  0  0  0  0  0  0  0  0  0
   -2.5646   -1.0583   -2.0885 H   0  0  0  0  0  0  0  0  0  0  0  0
   -2.9336   -0.1573    2.1256 H   0  0  0  0  0  0  0  0  0  0  0  0
    3.7157    1.0920    0.7550 H   0  0  0  0  0  0  0  0  0  0  0  0
    3.7619    3.5282   -0.2205 H   0  0  0  0  0  0  0  0  0  0  0  0
    3.0455    2.7233   -1.6314 H   0  0  0  0  0  0  0  0  0  0  0  0
   -6.3137    0.2247   -0.4711 H   0  0  0  0  0  0  0  0  0  0  0  0
    0.2494    2.7400   -1.3824 H   0  0  0  0  0  0  0  0  0  0  0  0
   -1.3574    2.7575    0.8271 H   0  0  0  0  0  0  0  0  0  0  0  0
    0.4082    2.7048    2.9530 H   0  0  0  0  0  0  0  0  0  0  0  0
   -6.9318    1.6283    1.0653 H   0  0  0  0  0  0  0  0  0  0  0  0
   -7.2806    1.0663    2.6941 H   0  0  0  0  0  0  0  0  0  0  0  0
   -7.3823   -0.1075    1.3894 H   0  0  0  0  0  0  0  0  0  0  0  0
   -6.7042   -0.2984   -3.8229 H   0  0  0  0  0  0  0  0  0  0  0  0
   -6.6146    0.8778   -2.5194 H   0  0  0  0  0  0  0  0  0  0  0  0
   -7.0653   -0.8581   -2.1960 H   0  0  0  0  0  0  0  0  0  0  0  0
  1 20  2  0  0  0  0
  2 24  1  0  0  0  0
  2 31  1  0  0  0  0
  3 25  1  0  0  0  0
  3 32  1  0  0  0  0
  4 27  1  0  0  0  0
  4 30  1  0  0  0  0
  5  7  1  0  0  0  0
  5 10  1  0  0  0  0
  5 13  1  0  0  0  0
  6 12  2  0  0  0  0
  6 13  1  0  0  0  0
  7 15  2  0  0  0  0
  8 20  1  0  0  0  0
  8 23  1  0  0  0  0
  8 46  1  0  0  0  0
  9 10  2  0  0  0  0
  9 11  1  0  0  0  0
  9 12  1  0  0  0  0
 10 17  1  0  0  0  0
 11 14  1  0  0  0  0
 11 33  1  0  0  0  0
 11 34  1  0  0  0  0
 12 18  1  0  0  0  0
 13 16  2  0  0  0  0
 14 20  1  0  0  0  0
 14 35  1  0  0  0  0
 14 36  1  0  0  0  0
 15 16  1  0  0  0  0
 15 19  1  0  0  0  0
 16 37  1  0  0  0  0
 17 38  1  0  0  0  0
 17 39  1  0  0  0  0
 17 40  1  0  0  0  0
 18 41  1  0  0  0  0
 18 42  1  0  0  0  0
 18 43  1  0  0  0  0
 19 21  2  0  0  0  0
 19 22  1  0  0  0  0
 21 25  1  0  0  0  0
 21 44  1  0  0  0  0
 22 24  2  0  0  0  0
 22 45  1  0  0  0  0
 23 27  1  0  0  0  0
 23 47  1  0  0  0  0
 23 48  1  0  0  0  0
 24 26  1  0  0  0  0
 25 26  2  0  0  0  0
 26 49  1  0  0  0  0
 27 28  2  0  0  0  0
 28 29  1  0  0  0  0
 28 50  1  0  0  0  0
 29 30  2  0  0  0  0
 29 51  1  0  0  0  0
 30 52  1  0  0  0  0
 31 53  1  0  0  0  0
 31 54  1  0  0  0  0
 31 55  1  0  0  0  0
 32 56  1  0  0  0  0
 32 57  1  0  0  0  0
 32 58  1  0  0  0  0
M  END
> <PUBCHEM_COMPOUND_CID>
9550470

> <PUBCHEM_CONFORMER_RMSD>
1

> <PUBCHEM_CONFORMER_DIVERSEORDER>
23
179
12
20
36
140
85
138
15
51
154
25
100
65
164
38
115
185
39
92
129
10
79
7
136
182
103
29
90
130
141
27
71
60
147
30
175
113
77
19
47
168
127
53
55
153
3
76
48
102
91
9
64
167
16
152
35
165
46
18
131
40
146
59
56
162
181
173
11
43
86
125
67
142
123
14
84
124
21
69
160
22
109
183
157
117
128
63
170
28
188
114
44
83
101
26
105
155
61
139
58
149
24
132
81
99
52
121
5
45
17
73
135
78
112
72
106
1
150
96
145
13
68
137
50
8
184
82
122
98
119
97
189
163
186
34
111
191
93
49
134
178
31
192
120
156
194
176
148
54
32
158
6
195
180
66
87
169
62
108
126
174
33
161
37
95
166
172
41
116
104
80
171
94
2
133
4
159
88
107
110
42
193
187
151
89
70
177
143
144
74
57
118
75
190

> <PUBCHEM_MMFF94_PARTIAL_CHARGES>
40
1 -0.57
10 -0.17
11 0.14
12 0.37
13 -0.03
14 0.06
15 0.23
16 -0.15
17 0.14
18 0.06
19 0.05
2 -0.36
20 0.57
21 -0.15
22 -0.15
23 0.48
24 0.08
25 0.08
26 -0.15
27 -0.04
28 -0.15
29 -0.15
3 -0.36
30 -0.01
31 0.28
32 0.28
37 0.15
4 -0.28
44 0.15
45 0.15
46 0.37
49 0.15
5 0.6
50 0.15
51 0.15
52 0.15
6 -0.58
7 -0.71
8 -0.73
9 -0.12

> <PUBCHEM_EFFECTIVE_ROTOR_COUNT>
9

> <PUBCHEM_PHARMACOPHORE_FEATURES>
11
1 1 acceptor
1 2 acceptor
1 3 acceptor
1 4 acceptor
1 6 acceptor
1 7 acceptor
1 8 donor
5 4 27 28 29 30 rings
5 5 7 13 15 16 rings
6 19 21 22 24 25 26 rings
6 5 6 9 10 12 13 rings

> <PUBCHEM_HEAVY_ATOM_COUNT>
32

> <PUBCHEM_ATOM_DEF_STEREO_COUNT>
0

> <PUBCHEM_ATOM_UDEF_STEREO_COUNT>
0

> <PUBCHEM_BOND_DEF_STEREO_COUNT>
0

> <PUBCHEM_BOND_UDEF_STEREO_COUNT>
0

> <PUBCHEM_ISOTOPIC_ATOM_COUNT>
0

> <PUBCHEM_COMPONENT_COUNT>
1

> <PUBCHEM_CACTVS_TAUTO_COUNT>
2

> <PUBCHEM_CONFORMER_ID>
0091BA8600000017

> <PUBCHEM_MMFF94_ENERGY>
83.6313

> <PUBCHEM_FEATURE_SELFOVERLAP>
55.952

> <PUBCHEM_SHAPE_FINGERPRINT>
10675989 125 18266746955666107648
11578080 2 17897469377926756147
12107698 1 18270690762535703806
12156800 1 15796749935637105024
12166972 35 17749681683886618538
12403259 415 17312827065365270375
12788726 201 18269843016915370096
14464042 87 18200890490880014872
14931854 50 18335991908949533444
17980427 23 17632278082803671891
1813 80 18130496440744434427
21033648 29 17385998499099480517
2132832 1 17971463006384335890
21927370 108 17681823022288441234
22122407 14 18266197049934033921
23559900 14 16081920435321765547
24771293 8 17917701436114238600
508706 21 17386847382427620803
5104073 3 16443624589261586771
513532 50 17345742127095629280
581034 39 16987455109191344137
5895379 119 17131007385963554073
6669772 16 12822999980984406598
70251023 43 18124048836283252106
7471813 234 18266445539002533274

> <PUBCHEM_SHAPE_MULTIPOLES>
615.14
13.85
3.17
2.37
16.75
2.31
0.66
-1.06
3.76
-4.4
-1.45
2.18
-0.31
-1.97

> <PUBCHEM_SHAPE_SELFOVERLAP>
1332.546

> <PUBCHEM_SHAPE_VOLUME>
336.8

> <PUBCHEM_COORDINATE_TYPE>
2
5
10

$$$$
