24979352
  -OEChem-01171810083D

 46 48  0     0  0  0  0  0  0999 V2000
    3.8755   -2.1633   -0.2324 S   0  0  0  0  0  0  0  0  0  0  0  0
   -4.6983   -0.3589    0.5402 S   0  0  0  0  0  0  0  0  0  0  0  0
    3.9803   -3.4973    0.3269 O   0  0  0  0  0  0  0  0  0  0  0  0
    4.3790   -1.8834   -1.5634 O   0  0  0  0  0  0  0  0  0  0  0  0
   -2.0095    1.0012   -1.8975 O   0  0  0  0  0  0  0  0  0  0  0  0
   -8.4449    0.5396    0.8176 O   0  5  0  0  0  0  0  0  0  0  0  0
   -7.1762   -0.8511    1.9469 O   0  0  0  0  0  0  0  0  0  0  0  0
    4.7014    0.7042   -0.6871 N   0  0  0  0  0  0  0  0  0  0  0  0
    4.5336   -1.0328    0.8591 N   0  0  0  0  0  0  0  0  0  0  0  0
   -1.8654   -0.5910   -0.1734 N   0  0  0  0  0  0  0  0  0  0  0  0
   -7.3196    0.0060    1.0299 N   0  3  0  0  0  0  0  0  0  0  0  0
    4.5527    2.2326    2.0375 C   0  0  0  0  0  0  0  0  0  0  0  0
    4.5959    3.4205    1.0776 C   0  0  0  0  0  0  0  0  0  0  0  0
    5.4977    1.1054    1.6366 C   0  0  0  0  0  0  0  0  0  0  0  0
    4.1748    3.0934   -0.3550 C   0  0  0  0  0  0  0  0  0  0  0  0
    4.9059    0.2914    0.5131 C   0  0  0  0  0  0  0  0  0  0  0  0
    5.0797    2.0712   -1.0362 C   0  0  0  0  0  0  0  0  0  0  0  0
    2.1705   -1.6963   -0.2149 C   0  0  0  0  0  0  0  0  0  0  0  0
    1.6981   -0.7469   -1.1211 C   0  0  0  0  0  0  0  0  0  0  0  0
    1.2978   -2.2771    0.7053 C   0  0  0  0  0  0  0  0  0  0  0  0
   -0.5199   -0.9594   -0.1871 C   0  0  0  0  0  0  0  0  0  0  0  0
    0.3530   -0.3785   -1.1072 C   0  0  0  0  0  0  0  0  0  0  0  0
   -0.0474   -1.9087    0.7192 C   0  0  0  0  0  0  0  0  0  0  0  0
   -2.5146    0.3360   -0.9995 C   0  0  0  0  0  0  0  0  0  0  0  0
   -3.9612    0.5345   -0.7210 C   0  0  0  0  0  0  0  0  0  0  0  0
   -4.8559    1.3680   -1.3553 C   0  0  0  0  0  0  0  0  0  0  0  0
   -6.2191    0.3685    0.2398 C   0  0  0  0  0  0  0  0  0  0  0  0
   -6.1640    1.2720   -0.7987 C   0  0  0  0  0  0  0  0  0  0  0  0
    3.5238    1.8601    2.1164 H   0  0  0  0  0  0  0  0  0  0  0  0
    4.8391    2.5913    3.0336 H   0  0  0  0  0  0  0  0  0  0  0  0
    3.9324    4.2037    1.4644 H   0  0  0  0  0  0  0  0  0  0  0  0
    5.6067    3.8473    1.0713 H   0  0  0  0  0  0  0  0  0  0  0  0
    5.6658    0.4574    2.5043 H   0  0  0  0  0  0  0  0  0  0  0  0
    6.4761    1.4938    1.3350 H   0  0  0  0  0  0  0  0  0  0  0  0
    3.1325    2.7521   -0.3692 H   0  0  0  0  0  0  0  0  0  0  0  0
    4.2115    4.0258   -0.9318 H   0  0  0  0  0  0  0  0  0  0  0  0
    4.9503    2.1680   -2.1206 H   0  0  0  0  0  0  0  0  0  0  0  0
    6.1414    2.2624   -0.8418 H   0  0  0  0  0  0  0  0  0  0  0  0
    4.7126   -1.3648    1.8153 H   0  0  0  0  0  0  0  0  0  0  0  0
    2.3565   -0.2832   -1.8496 H   0  0  0  0  0  0  0  0  0  0  0  0
    1.6469   -3.0134    1.4236 H   0  0  0  0  0  0  0  0  0  0  0  0
    0.0643    0.3618   -1.8398 H   0  0  0  0  0  0  0  0  0  0  0  0
   -0.7162   -2.3682    1.4426 H   0  0  0  0  0  0  0  0  0  0  0  0
   -2.4358   -1.0564    0.5293 H   0  0  0  0  0  0  0  0  0  0  0  0
   -4.5932    2.0181   -2.1803 H   0  0  0  0  0  0  0  0  0  0  0  0
   -7.0135    1.8431   -1.1520 H   0  0  0  0  0  0  0  0  0  0  0  0
  1  3  2  0  0  0  0
  1  4  2  0  0  0  0
  1  9  1  0  0  0  0
  1 18  1  0  0  0  0
  2 25  1  0  0  0  0
  2 27  1  0  0  0  0
  5 24  2  0  0  0  0
  6 11  1  0  0  0  0
  7 11  2  0  0  0  0
  8 16  2  0  0  0  0
  8 17  1  0  0  0  0
  9 16  1  0  0  0  0
  9 39  1  0  0  0  0
 10 21  1  0  0  0  0
 10 24  1  0  0  0  0
 10 44  1  0  0  0  0
 11 27  1  0  0  0  0
 12 13  1  0  0  0  0
 12 14  1  0  0  0  0
 12 29  1  0  0  0  0
 12 30  1  0  0  0  0
 13 15  1  0  0  0  0
 13 31  1  0  0  0  0
 13 32  1  0  0  0  0
 14 16  1  0  0  0  0
 14 33  1  0  0  0  0
 14 34  1  0  0  0  0
 15 17  1  0  0  0  0
 15 35  1  0  0  0  0
 15 36  1  0  0  0  0
 17 37  1  0  0  0  0
 17 38  1  0  0  0  0
 18 19  2  0  0  0  0
 18 20  1  0  0  0  0
 19 22  1  0  0  0  0
 19 40  1  0  0  0  0
 20 23  2  0  0  0  0
 20 41  1  0  0  0  0
 21 22  2  0  0  0  0
 21 23  1  0  0  0  0
 22 42  1  0  0  0  0
 23 43  1  0  0  0  0
 24 25  1  0  0  0  0
 25 26  2  0  0  0  0
 26 28  1  0  0  0  0
 26 45  1  0  0  0  0
 27 28  2  0  0  0  0
 28 46  1  0  0  0  0
M  CHG  2   6  -1  11   1
M  END
> <PUBCHEM_COMPOUND_CID>
24979352

> <PUBCHEM_CONFORMER_RMSD>
1

> <PUBCHEM_CONFORMER_DIVERSEORDER>
1
34
13
58
61
49
36
37
32
12
59
57
3
46
55
52
2
33
50
23
62
21
48
56
63
26
42
15
7
6
18
43
20
39
29
8
16
25
31
30
40
54
45
51
47
44
41
5
60
24
22
27
4
14
53
11
35
9
10
19
38
28
64
17

> <PUBCHEM_MMFF94_PARTIAL_CHARGES>
33
1 1.45
10 -0.55
11 0.96
14 0.06
16 0.63
17 0.25
18 -0.01
19 -0.15
2 -0.08
20 -0.15
21 0.12
22 -0.15
23 -0.15
24 0.71
25 -0.05
26 -0.15
27 0.12
28 -0.15
3 -0.65
39 0.42
4 -0.65
40 0.15
41 0.15
42 0.15
43 0.15
44 0.37
45 0.15
46 0.15
5 -0.57
6 -0.52
7 -0.52
8 -0.7
9 -0.79

> <PUBCHEM_EFFECTIVE_ROTOR_COUNT>
8

> <PUBCHEM_PHARMACOPHORE_FEATURES>
12
1 10 donor
1 3 acceptor
1 4 acceptor
1 5 acceptor
1 6 acceptor
1 6 anion
1 7 acceptor
1 8 acceptor
1 9 donor
5 2 25 26 27 28 rings
6 18 19 20 21 22 23 rings
7 8 12 13 14 15 16 17 rings

> <PUBCHEM_HEAVY_ATOM_COUNT>
28

> <PUBCHEM_ATOM_DEF_STEREO_COUNT>
0

> <PUBCHEM_ATOM_UDEF_STEREO_COUNT>
0

> <PUBCHEM_BOND_DEF_STEREO_COUNT>
0

> <PUBCHEM_BOND_UDEF_STEREO_COUNT>
0

> <PUBCHEM_ISOTOPIC_ATOM_COUNT>
0

> <PUBCHEM_COMPONENT_COUNT>
1

> <PUBCHEM_CACTVS_TAUTO_COUNT>
4

> <PUBCHEM_CONFORMER_ID>
017D279800000001

> <PUBCHEM_MMFF94_ENERGY>
50.8733

> <PUBCHEM_FEATURE_SELFOVERLAP>
61.004

> <PUBCHEM_SHAPE_FINGERPRINT>
10 15 17821732762311173093
10165383 225 18187936101623039646
10391435 84 17968377949109687995
10638233 991 17775566429714466609
10673678 19 17917993905600447946
10675989 125 17845364613315385392
11456790 92 18338505349517490752
11578080 2 18269557294026528242
11719270 70 14779261999820483515
12616971 3 18058995199490032358
12730499 353 18409450250251712174
13533116 47 18413108334068793142
13692114 37 17095529530317418275
13782708 43 11530478939628581147
13878862 14 18265309777787320308
13955234 65 18339918195847454794
14251757 52 17346883343056095257
14251764 75 18123468543236188648
14347332 77 8214156152649113927
14461889 52 17968100841291531339
14904525 67 17845936217738658321
15183329 4 11095890371463981687
15475509 8 13686306781313842299
16760501 71 18408322219972083853
1768 85 18339074990281528069
17844677 252 18268991994720129933
19304671 126 17488470852959222848
1979834 28 18333448759686718284
20567600 234 18040716999846808389
21033648 29 18266737081873267572
21521721 280 18341898485208457643
21641784 216 15769783433391453475
21792934 111 17968096392428235485
22149856 69 18042144089468884209
23081809 10 17060329700741059239
23522609 53 16486983907839146515
23559900 14 18335981983227851574
249057 3 18060138713749086342
29717793 49 9151168753600874735
3004659 81 13686306764250037244
34797466 226 18201444649146105615
397830 11 18337676412187082707
4093350 32 17775571918350069358
4340502 62 18261110776881937239
44317340 157 18272371974957879471
5104073 3 17896597293950491585
5109719 28 18261119612020250217
5364581 5 18116153453774097785
552612 73 18268711782770117075
5951187 136 16773229730075633088
59682541 52 9655577413534587245
68570916 9 18272645766945115775

> <PUBCHEM_SHAPE_MULTIPOLES>
534.66
20.09
3.25
1.62
34.62
0.34
-0.21
9.06
-6.76
-7.41
-0.44
0.02
0.48
2.1

> <PUBCHEM_SHAPE_SELFOVERLAP>
1109.302

> <PUBCHEM_SHAPE_VOLUME>
302.6

> <PUBCHEM_COORDINATE_TYPE>
2
5
10

$$$$
