16725261
  -OEChem-01171809563D

 49 52  0     1  0  0  0  0  0999 V2000
   -4.1875   -0.4499   -0.8263 S   0  0  0  0  0  0  0  0  0  0  0  0
   -1.1498   -2.6895   -0.3924 O   0  0  0  0  0  0  0  0  0  0  0  0
   -2.5137   -4.4381   -0.7894 O   0  0  0  0  0  0  0  0  0  0  0  0
   -1.9199   -0.6506    0.8019 C   0  0  2  0  0  0  0  0  0  0  0  0
   -3.3604   -1.1650    0.6485 C   0  0  2  0  0  0  0  0  0  0  0  0
   -1.0459   -1.2487   -0.3176 C   0  0  1  0  0  0  0  0  0  0  0  0
   -3.3919   -2.6858    0.5780 C   0  0  0  0  0  0  0  0  0  0  0  0
   -1.3918   -0.9865    2.2080 C   0  0  0  0  0  0  0  0  0  0  0  0
    0.4112   -0.8289   -0.2384 C   0  0  0  0  0  0  0  0  0  0  0  0
   -2.3417   -3.3252   -0.2972 C   0  0  0  0  0  0  0  0  0  0  0  0
    0.8388    0.3320   -0.8826 C   0  0  0  0  0  0  0  0  0  0  0  0
    1.3222   -1.6046    0.4788 C   0  0  0  0  0  0  0  0  0  0  0  0
   -4.0903    1.2933   -0.4520 C   0  0  0  0  0  0  0  0  0  0  0  0
    2.1772    0.7176   -0.8095 C   0  0  0  0  0  0  0  0  0  0  0  0
    2.6608   -1.2190    0.5520 C   0  0  0  0  0  0  0  0  0  0  0  0
    3.0882   -0.0579   -0.0922 C   0  0  0  0  0  0  0  0  0  0  0  0
    4.4763    0.3422   -0.0166 C   0  0  0  0  0  0  0  0  0  0  0  0
   -4.6912    1.7932    0.7034 C   0  0  0  0  0  0  0  0  0  0  0  0
   -3.4131    2.1552   -1.3147 C   0  0  0  0  0  0  0  0  0  0  0  0
   -4.6153    3.1550    0.9958 C   0  0  0  0  0  0  0  0  0  0  0  0
   -3.3371    3.5170   -1.0221 C   0  0  0  0  0  0  0  0  0  0  0  0
    5.3843   -0.1051   -0.9765 C   0  0  0  0  0  0  0  0  0  0  0  0
    4.9071    1.1757    1.0157 C   0  0  0  0  0  0  0  0  0  0  0  0
   -3.9382    4.0168    0.1332 C   0  0  0  0  0  0  0  0  0  0  0  0
    6.7228    0.2808   -0.9041 C   0  0  0  0  0  0  0  0  0  0  0  0
    6.2455    1.5617    1.0880 C   0  0  0  0  0  0  0  0  0  0  0  0
    7.1533    1.1142    0.1281 C   0  0  0  0  0  0  0  0  0  0  0  0
   -1.8858    0.4431    0.7356 H   0  0  0  0  0  0  0  0  0  0  0  0
   -3.9594   -0.8610    1.5144 H   0  0  0  0  0  0  0  0  0  0  0  0
   -1.4058   -0.8966   -1.2927 H   0  0  0  0  0  0  0  0  0  0  0  0
   -4.3775   -3.0377    0.2489 H   0  0  0  0  0  0  0  0  0  0  0  0
   -3.2372   -3.0979    1.5832 H   0  0  0  0  0  0  0  0  0  0  0  0
   -1.2209   -2.0589    2.3431 H   0  0  0  0  0  0  0  0  0  0  0  0
   -0.4515   -0.4644    2.4117 H   0  0  0  0  0  0  0  0  0  0  0  0
   -2.1032   -0.6596    2.9746 H   0  0  0  0  0  0  0  0  0  0  0  0
    0.1381    0.9464   -1.4418 H   0  0  0  0  0  0  0  0  0  0  0  0
    1.0107   -2.5107    0.9912 H   0  0  0  0  0  0  0  0  0  0  0  0
    2.4935    1.6259   -1.3167 H   0  0  0  0  0  0  0  0  0  0  0  0
    3.3577   -1.8343    1.1161 H   0  0  0  0  0  0  0  0  0  0  0  0
   -5.2335    1.1438    1.3858 H   0  0  0  0  0  0  0  0  0  0  0  0
   -2.9367    1.7833   -2.2185 H   0  0  0  0  0  0  0  0  0  0  0  0
   -5.0851    3.5447    1.8941 H   0  0  0  0  0  0  0  0  0  0  0  0
   -2.8092    4.1881   -1.6933 H   0  0  0  0  0  0  0  0  0  0  0  0
    5.0654   -0.7552   -1.7880 H   0  0  0  0  0  0  0  0  0  0  0  0
    4.2125    1.5337    1.7722 H   0  0  0  0  0  0  0  0  0  0  0  0
   -3.8792    5.0771    0.3608 H   0  0  0  0  0  0  0  0  0  0  0  0
    7.4298   -0.0674   -1.6514 H   0  0  0  0  0  0  0  0  0  0  0  0
    6.5810    2.2106    1.8917 H   0  0  0  0  0  0  0  0  0  0  0  0
    8.1955    1.4148    0.1845 H   0  0  0  0  0  0  0  0  0  0  0  0
  1  5  1  0  0  0  0
  1 13  1  0  0  0  0
  2  6  1  0  0  0  0
  2 10  1  0  0  0  0
  3 10  2  0  0  0  0
  4  5  1  0  0  0  0
  4  6  1  0  0  0  0
  4  8  1  0  0  0  0
  4 28  1  0  0  0  0
  5  7  1  0  0  0  0
  5 29  1  0  0  0  0
  6  9  1  0  0  0  0
  6 30  1  0  0  0  0
  7 10  1  0  0  0  0
  7 31  1  0  0  0  0
  7 32  1  0  0  0  0
  8 33  1  0  0  0  0
  8 34  1  0  0  0  0
  8 35  1  0  0  0  0
  9 11  2  0  0  0  0
  9 12  1  0  0  0  0
 11 14  1  0  0  0  0
 11 36  1  0  0  0  0
 12 15  2  0  0  0  0
 12 37  1  0  0  0  0
 13 18  2  0  0  0  0
 13 19  1  0  0  0  0
 14 16  2  0  0  0  0
 14 38  1  0  0  0  0
 15 16  1  0  0  0  0
 15 39  1  0  0  0  0
 16 17  1  0  0  0  0
 17 22  2  0  0  0  0
 17 23  1  0  0  0  0
 18 20  1  0  0  0  0
 18 40  1  0  0  0  0
 19 21  2  0  0  0  0
 19 41  1  0  0  0  0
 20 24  2  0  0  0  0
 20 42  1  0  0  0  0
 21 24  1  0  0  0  0
 21 43  1  0  0  0  0
 22 25  1  0  0  0  0
 22 44  1  0  0  0  0
 23 26  2  0  0  0  0
 23 45  1  0  0  0  0
 24 46  1  0  0  0  0
 25 27  2  0  0  0  0
 25 47  1  0  0  0  0
 26 27  1  0  0  0  0
 26 48  1  0  0  0  0
 27 49  1  0  0  0  0
M  END
> <PUBCHEM_COMPOUND_CID>
16725261

> <PUBCHEM_CONFORMER_RMSD>
0.8

> <PUBCHEM_CONFORMER_DIVERSEORDER>
1
17
5
3
13
11
4
2
16
14
12
8
19
18
15
9
21
7
20
6
10

> <PUBCHEM_MMFF94_PARTIAL_CHARGES>
37
1 -0.33
10 0.66
11 -0.15
12 -0.15
13 0.1
14 -0.15
15 -0.15
18 -0.15
19 -0.15
2 -0.43
20 -0.15
21 -0.15
22 -0.15
23 -0.15
24 -0.15
25 -0.15
26 -0.15
27 -0.15
3 -0.57
36 0.15
37 0.15
38 0.15
39 0.15
40 0.15
41 0.15
42 0.15
43 0.15
44 0.15
45 0.15
46 0.15
47 0.15
48 0.15
49 0.15
5 0.23
6 0.42
7 0.06
9 -0.14

> <PUBCHEM_EFFECTIVE_ROTOR_COUNT>
5

> <PUBCHEM_PHARMACOPHORE_FEATURES>
5
1 3 acceptor
6 13 18 19 20 21 24 rings
6 17 22 23 25 26 27 rings
6 2 4 5 6 7 10 rings
6 9 11 12 14 15 16 rings

> <PUBCHEM_HEAVY_ATOM_COUNT>
27

> <PUBCHEM_ATOM_DEF_STEREO_COUNT>
3

> <PUBCHEM_ATOM_UDEF_STEREO_COUNT>
0

> <PUBCHEM_BOND_DEF_STEREO_COUNT>
0

> <PUBCHEM_BOND_UDEF_STEREO_COUNT>
0

> <PUBCHEM_ISOTOPIC_ATOM_COUNT>
0

> <PUBCHEM_COMPONENT_COUNT>
1

> <PUBCHEM_CACTVS_TAUTO_COUNT>
1

> <PUBCHEM_CONFORMER_ID>
00FF350D00000001

> <PUBCHEM_MMFF94_ENERGY>
86.8964

> <PUBCHEM_FEATURE_SELFOVERLAP>
25.374

> <PUBCHEM_SHAPE_FINGERPRINT>
100830 39 18410008849656242836
10165383 225 18201449039277584201
10291535 26 18411981377747805625
10411042 1 17906452478674744135
105312 117 18342741792834955247
11101153 10 17974854174737474332
11135609 187 18191855727401504645
11135609 201 18130232554181080129
12107183 9 18118955902644261698
12390115 104 18339929224953510725
12422481 6 17313942996805538948
12788726 201 18262224630012663747
13583140 156 17917710262076800630
13785724 45 10840887760315468997
14251764 75 17766001602124706793
14294032 229 18343303652932202531
14347329 18 18341605984713049528
14395042 24 18115042891796732841
14466204 15 18333728022802808776
14508225 48 17982154932447177503
14675019 173 17695616739166922535
14713325 29 18335990826544252699
14765038 42 18127986217276235809
14790565 3 18265613178392546502
14856354 85 16660943143922104378
15021287 119 16660364792553589772
15119646 57 17203333256786714113
15163728 17 18198065776994197671
15463212 79 18334850602747398219
15513586 35 17388281170695796676
16087824 20 18410852193167473511
17844677 252 18337394967269705732
20101258 96 18119817060740643947
20691028 202 18340209566181032089
20771845 165 18270130006461530822
21033648 29 18131058364575212384
21033650 10 18189639248923341246
21401589 2 18262524680675164513
21623969 137 13407076981735861896
21756936 100 18341326721507216069
23081809 10 17676482896190762070
23522609 53 17749969829543867052
23559900 14 17917996131058418762
23569914 152 16695282842305115412
25019877 29 17988938786252044575
2838139 119 18341044121523581520
32027 91 17986408689553351022
3418910 222 17755027724296272988
445580 37 18336555988484822956
508706 21 18270950345046352289
5104073 3 18186799141437191474
5283173 99 18342175579202312864
531348 171 18410575072232578738
5372103 7 16952510414069961573
550186 7 18343584036090369861
6327066 14 18262232197797559421
6697151 62 16988287453169789142
6700243 42 17623893326946557039
7288768 16 18042414526105616881
7808743 9 18409727348334481840
7970288 3 8645895873106539449
9981440 41 18336551508717661387

> <PUBCHEM_SHAPE_MULTIPOLES>
547.76
15.34
4.39
1.3
26.6
0.31
-0.31
-11.14
-0.28
-9.1
0.36
-0.23
-0.15
0.39

> <PUBCHEM_SHAPE_SELFOVERLAP>
1178.182

> <PUBCHEM_SHAPE_VOLUME>
301.9

> <PUBCHEM_COORDINATE_TYPE>
2
5
10

$$$$
