12004957
  -OEChem-01171809333D

 59 60  0     1  0  0  0  0  0999 V2000
   -3.3859   -2.1006   -3.4152 Cl  0  0  0  0  0  0  0  0  0  0  0  0
   -0.0662    1.0292   -1.6796 O   0  0  0  0  0  0  0  0  0  0  0  0
   -1.9564    2.3906    0.3894 O   0  0  0  0  0  0  0  0  0  0  0  0
   -4.2214    2.1413    1.0447 O   0  0  0  0  0  0  0  0  0  0  0  0
   -0.9597   -1.5077   -2.0356 O   0  0  0  0  0  0  0  0  0  0  0  0
    1.5963    1.0623   -0.0575 N   0  0  0  0  0  0  0  0  0  0  0  0
   -1.7430   -0.3736   -0.1719 N   0  0  0  0  0  0  0  0  0  0  0  0
    2.5226    1.9293   -0.7514 C   0  0  0  0  0  0  0  0  0  0  0  0
    3.3190    2.7879    0.2369 C   0  0  0  0  0  0  0  0  0  0  0  0
    3.4541    1.1234   -1.6631 C   0  0  0  0  0  0  0  0  0  0  0  0
    4.3497    1.9747    1.0198 C   0  0  0  0  0  0  0  0  0  0  0  0
    4.4845    0.3128   -0.8769 C   0  0  0  0  0  0  0  0  0  0  0  0
    5.2717    1.1906    0.0911 C   0  0  0  0  0  0  0  0  0  0  0  0
   -0.4230   -0.1930    0.3808 C   0  0  2  0  0  0  0  0  0  0  0  0
    0.3693    0.6815   -0.5836 C   0  0  0  0  0  0  0  0  0  0  0  0
    0.2691   -1.5105    0.6422 C   0  0  0  0  0  0  0  0  0  0  0  0
   -2.8466    0.1822    0.6205 C   0  0  0  0  0  0  0  0  0  0  0  0
    0.0868   -2.1702    1.8473 C   0  0  0  0  0  0  0  0  0  0  0  0
   -1.9103   -1.0526   -1.3947 C   0  0  0  0  0  0  0  0  0  0  0  0
   -3.1612    1.6279    0.2328 C   0  0  0  0  0  0  0  0  0  0  0  0
    1.0839   -2.0355   -0.3492 C   0  0  0  0  0  0  0  0  0  0  0  0
    0.7356   -3.3853    2.0672 C   0  0  0  0  0  0  0  0  0  0  0  0
   -0.7890   -1.6113    2.9202 C   0  0  0  0  0  0  0  0  0  0  0  0
    1.7326   -3.2507   -0.1294 C   0  0  0  0  0  0  0  0  0  0  0  0
   -3.3359   -1.1967   -1.8885 C   0  0  0  0  0  0  0  0  0  0  0  0
    1.5585   -3.9255    1.0788 C   0  0  0  0  0  0  0  0  0  0  0  0
   -2.1197    3.7457   -0.0074 C   0  0  0  0  0  0  0  0  0  0  0  0
   -3.9154    2.1334    2.4323 C   0  0  0  0  0  0  0  0  0  0  0  0
    1.9260    2.5998   -1.3824 H   0  0  0  0  0  0  0  0  0  0  0  0
    2.6408    3.2876    0.9391 H   0  0  0  0  0  0  0  0  0  0  0  0
    3.8412    3.5780   -0.3177 H   0  0  0  0  0  0  0  0  0  0  0  0
    3.9856    1.8154   -2.3289 H   0  0  0  0  0  0  0  0  0  0  0  0
    2.8758    0.4489   -2.3057 H   0  0  0  0  0  0  0  0  0  0  0  0
    3.8437    1.2835    1.7040 H   0  0  0  0  0  0  0  0  0  0  0  0
    4.9479    2.6494    1.6432 H   0  0  0  0  0  0  0  0  0  0  0  0
    5.1750   -0.1758   -1.5737 H   0  0  0  0  0  0  0  0  0  0  0  0
    3.9810   -0.4855   -0.3189 H   0  0  0  0  0  0  0  0  0  0  0  0
    5.8960    1.8905   -0.4779 H   0  0  0  0  0  0  0  0  0  0  0  0
    5.9508    0.5684    0.6847 H   0  0  0  0  0  0  0  0  0  0  0  0
    1.8768    0.6891    0.8444 H   0  0  0  0  0  0  0  0  0  0  0  0
   -0.4755    0.4003    1.3005 H   0  0  0  0  0  0  0  0  0  0  0  0
   -3.7466   -0.4289    0.5084 H   0  0  0  0  0  0  0  0  0  0  0  0
   -2.5697    0.1066    1.6733 H   0  0  0  0  0  0  0  0  0  0  0  0
   -3.4784    1.6824   -0.8139 H   0  0  0  0  0  0  0  0  0  0  0  0
    1.2826   -1.5382   -1.2925 H   0  0  0  0  0  0  0  0  0  0  0  0
    0.6102   -3.9249    3.0021 H   0  0  0  0  0  0  0  0  0  0  0  0
   -0.6631   -2.1684    3.8564 H   0  0  0  0  0  0  0  0  0  0  0  0
   -0.5421   -0.5735    3.1591 H   0  0  0  0  0  0  0  0  0  0  0  0
   -1.8414   -1.7055    2.6412 H   0  0  0  0  0  0  0  0  0  0  0  0
    2.3801   -3.6676   -0.8953 H   0  0  0  0  0  0  0  0  0  0  0  0
   -3.7812   -0.2168   -2.0679 H   0  0  0  0  0  0  0  0  0  0  0  0
   -3.9302   -1.7615   -1.1671 H   0  0  0  0  0  0  0  0  0  0  0  0
    2.0650   -4.8708    1.2504 H   0  0  0  0  0  0  0  0  0  0  0  0
   -2.4428    3.8038   -1.0512 H   0  0  0  0  0  0  0  0  0  0  0  0
   -2.8345    4.2630    0.6386 H   0  0  0  0  0  0  0  0  0  0  0  0
   -1.1513    4.2452    0.0832 H   0  0  0  0  0  0  0  0  0  0  0  0
   -4.6259    2.7997    2.9308 H   0  0  0  0  0  0  0  0  0  0  0  0
   -2.9072    2.4985    2.6478 H   0  0  0  0  0  0  0  0  0  0  0  0
   -4.0624    1.1352    2.8541 H   0  0  0  0  0  0  0  0  0  0  0  0
  1 25  1  0  0  0  0
  2 15  2  0  0  0  0
  3 20  1  0  0  0  0
  3 27  1  0  0  0  0
  4 20  1  0  0  0  0
  4 28  1  0  0  0  0
  5 19  2  0  0  0  0
  6  8  1  0  0  0  0
  6 15  1  0  0  0  0
  6 40  1  0  0  0  0
  7 14  1  0  0  0  0
  7 17  1  0  0  0  0
  7 19  1  0  0  0  0
  8  9  1  0  0  0  0
  8 10  1  0  0  0  0
  8 29  1  0  0  0  0
  9 11  1  0  0  0  0
  9 30  1  0  0  0  0
  9 31  1  0  0  0  0
 10 12  1  0  0  0  0
 10 32  1  0  0  0  0
 10 33  1  0  0  0  0
 11 13  1  0  0  0  0
 11 34  1  0  0  0  0
 11 35  1  0  0  0  0
 12 13  1  0  0  0  0
 12 36  1  0  0  0  0
 12 37  1  0  0  0  0
 13 38  1  0  0  0  0
 13 39  1  0  0  0  0
 14 15  1  0  0  0  0
 14 16  1  0  0  0  0
 14 41  1  0  0  0  0
 16 18  1  0  0  0  0
 16 21  2  0  0  0  0
 17 20  1  0  0  0  0
 17 42  1  0  0  0  0
 17 43  1  0  0  0  0
 18 22  2  0  0  0  0
 18 23  1  0  0  0  0
 19 25  1  0  0  0  0
 20 44  1  0  0  0  0
 21 24  1  0  0  0  0
 21 45  1  0  0  0  0
 22 26  1  0  0  0  0
 22 46  1  0  0  0  0
 23 47  1  0  0  0  0
 23 48  1  0  0  0  0
 23 49  1  0  0  0  0
 24 26  2  0  0  0  0
 24 50  1  0  0  0  0
 25 51  1  0  0  0  0
 25 52  1  0  0  0  0
 26 53  1  0  0  0  0
 27 54  1  0  0  0  0
 27 55  1  0  0  0  0
 27 56  1  0  0  0  0
 28 57  1  0  0  0  0
 28 58  1  0  0  0  0
 28 59  1  0  0  0  0
M  END
> <PUBCHEM_COMPOUND_CID>
12004957

> <PUBCHEM_CONFORMER_RMSD>
1

> <PUBCHEM_CONFORMER_DIVERSEORDER>
5
54
32
8
88
3
53
68
75
28
25
38
98
79
36
40
71
31
15
17
6
61
43
91
62
22
89
63
72
97
33
50
76
11
10
42
80
55
37
81
48
2
19
47
73
35
82
30
77
16
21
49
27
93
44
66
4
9
57
20
14
87
69
94
58
65
1
59
39
23
85
84
51
83
45
52
18
70
96
74
13
78
56
41
95
46
34
7
99
86
92
12
64
60
26
24
29
67
90

> <PUBCHEM_MMFF94_PARTIAL_CHARGES>
28
1 -0.29
14 0.5
15 0.57
16 -0.14
17 0.3
18 -0.14
19 0.57
2 -0.57
20 0.56
21 -0.15
22 -0.15
23 0.14
24 -0.15
25 0.35
26 -0.15
27 0.28
28 0.28
3 -0.56
4 -0.56
40 0.37
45 0.15
46 0.15
5 -0.57
50 0.15
53 0.15
6 -0.73
7 -0.66
8 0.3

> <PUBCHEM_EFFECTIVE_ROTOR_COUNT>
12.2

> <PUBCHEM_PHARMACOPHORE_FEATURES>
7
1 2 acceptor
1 3 acceptor
1 4 acceptor
1 5 acceptor
1 6 donor
6 16 18 21 22 24 26 rings
6 8 9 10 11 12 13 rings

> <PUBCHEM_HEAVY_ATOM_COUNT>
28

> <PUBCHEM_ATOM_DEF_STEREO_COUNT>
0

> <PUBCHEM_ATOM_UDEF_STEREO_COUNT>
1

> <PUBCHEM_BOND_DEF_STEREO_COUNT>
0

> <PUBCHEM_BOND_UDEF_STEREO_COUNT>
0

> <PUBCHEM_ISOTOPIC_ATOM_COUNT>
0

> <PUBCHEM_COMPONENT_COUNT>
1

> <PUBCHEM_CACTVS_TAUTO_COUNT>
2

> <PUBCHEM_CONFORMER_ID>
00B72E5D00000005

> <PUBCHEM_MMFF94_ENERGY>
76.8188

> <PUBCHEM_FEATURE_SELFOVERLAP>
35.565

> <PUBCHEM_SHAPE_FINGERPRINT>
10721379 63 17537954227173326583
1100329 8 16966615863399890656
11421498 54 18197197339139752079
11578080 2 16589716634761607183
11582403 64 18128561317279848819
12035759 4 18270662251788471095
12160290 23 17463137082367074874
12422481 6 17972862676170153592
12553582 1 16821105975220761570
12788726 201 17833845136826533886
133893 2 17825076273796872770
13583140 156 17608939685926185245
14251757 17 16558742468678613792
14787075 74 17392787781400929594
14955137 171 17691700990794683695
15420108 30 18056473946160350461
17980427 26 17896879842447610011
20600515 1 17117990499493060329
20642791 35 17834119641725405398
21033650 10 17914924121192913028
21524375 3 18269291108985704361
22907989 373 17611766886608467102
23419403 2 16807009819071470503
23558518 356 18196379344910793388
25147074 1 18271511006351650591
266924 1 18270382963208667647
3027735 51 18115564028982836029
3380486 145 16968582369841536522
474 4 18333454226847353960
5845 1 10519167960878134306
79837 15 18262248827430648018
81228 2 18125157392421056928

> <PUBCHEM_SHAPE_MULTIPOLES>
544.66
7.78
4.71
2.64
5.18
1.34
0.41
-6.39
1.37
-0.15
-2.01
-2.95
1.72
-2.8

> <PUBCHEM_SHAPE_SELFOVERLAP>
1108.572

> <PUBCHEM_SHAPE_VOLUME>
315.7

> <PUBCHEM_COORDINATE_TYPE>
2
5
10

$$$$
