665742
  -OEChem-01171809163D

 46 48  0     0  0  0  0  0  0999 V2000
    2.8418   -2.3716   -0.8835 S   0  0  0  0  0  0  0  0  0  0  0  0
    1.6600    1.8070    0.1599 O   0  0  0  0  0  0  0  0  0  0  0  0
    4.4420    0.2412   -1.4539 O   0  0  0  0  0  0  0  0  0  0  0  0
    2.4263    3.9762    0.1237 O   0  0  0  0  0  0  0  0  0  0  0  0
   -2.0357   -1.8093   -0.4198 N   0  0  0  0  0  0  0  0  0  0  0  0
   -1.7601   -1.9244   -1.7323 N   0  0  0  0  0  0  0  0  0  0  0  0
   -0.8965   -1.7952    1.7166 N   0  0  0  0  0  0  0  0  0  0  0  0
    1.5128   -2.0742    1.4559 N   0  0  0  0  0  0  0  0  0  0  0  0
    3.9673    0.7680    0.7595 N   0  0  0  0  0  0  0  0  0  0  0  0
   -3.4040   -1.6405    0.0083 C   0  0  0  0  0  0  0  0  0  0  0  0
   -0.9318   -1.8778    0.3771 C   0  0  0  0  0  0  0  0  0  0  0  0
    0.1445   -2.0500   -0.4753 C   0  0  0  0  0  0  0  0  0  0  0  0
   -3.7788   -0.1854    0.0887 C   0  0  0  0  0  0  0  0  0  0  0  0
   -0.4308   -2.0704   -1.7596 C   0  0  0  0  0  0  0  0  0  0  0  0
    1.4034   -2.1493    0.1078 C   0  0  0  0  0  0  0  0  0  0  0  0
   -4.3166    0.4589   -1.0256 C   0  0  0  0  0  0  0  0  0  0  0  0
   -3.5890    0.5193    1.2776 C   0  0  0  0  0  0  0  0  0  0  0  0
    4.1291   -1.5515    0.1070 C   0  0  0  0  0  0  0  0  0  0  0  0
    0.3723   -1.9042    2.1665 C   0  0  0  0  0  0  0  0  0  0  0  0
   -4.6642    1.8077   -0.9511 C   0  0  0  0  0  0  0  0  0  0  0  0
   -3.9367    1.8680    1.3519 C   0  0  0  0  0  0  0  0  0  0  0  0
   -4.4744    2.5122    0.2375 C   0  0  0  0  0  0  0  0  0  0  0  0
    4.2052   -0.0975   -0.2956 C   0  0  0  0  0  0  0  0  0  0  0  0
    3.9698    2.2064    0.6179 C   0  0  0  0  0  0  0  0  0  0  0  0
    2.6123    2.7731    0.2744 C   0  0  0  0  0  0  0  0  0  0  0  0
    0.3436    2.2668   -0.1639 C   0  0  0  0  0  0  0  0  0  0  0  0
    0.1881    2.2966   -1.6695 C   0  0  0  0  0  0  0  0  0  0  0  0
   -3.5273   -2.1329    0.9803 H   0  0  0  0  0  0  0  0  0  0  0  0
   -4.0535   -2.1764   -0.6947 H   0  0  0  0  0  0  0  0  0  0  0  0
    0.0556   -2.1842   -2.7181 H   0  0  0  0  0  0  0  0  0  0  0  0
   -4.4687   -0.0785   -1.9577 H   0  0  0  0  0  0  0  0  0  0  0  0
   -3.1741    0.0301    2.1545 H   0  0  0  0  0  0  0  0  0  0  0  0
    3.9817   -1.6885    1.1810 H   0  0  0  0  0  0  0  0  0  0  0  0
    5.0935   -2.0069   -0.1427 H   0  0  0  0  0  0  0  0  0  0  0  0
    0.4960   -1.8468    3.2426 H   0  0  0  0  0  0  0  0  0  0  0  0
   -5.0822    2.3095   -1.8189 H   0  0  0  0  0  0  0  0  0  0  0  0
   -3.7890    2.4168    2.2775 H   0  0  0  0  0  0  0  0  0  0  0  0
   -4.7447    3.5624    0.2954 H   0  0  0  0  0  0  0  0  0  0  0  0
    4.6730    2.4881   -0.1715 H   0  0  0  0  0  0  0  0  0  0  0  0
    4.2896    2.6247    1.5764 H   0  0  0  0  0  0  0  0  0  0  0  0
    3.7531    0.3895    1.6773 H   0  0  0  0  0  0  0  0  0  0  0  0
    0.1281    3.2427    0.2853 H   0  0  0  0  0  0  0  0  0  0  0  0
   -0.3633    1.5502    0.2669 H   0  0  0  0  0  0  0  0  0  0  0  0
    0.8883    3.0053   -2.1231 H   0  0  0  0  0  0  0  0  0  0  0  0
    0.4068    1.3134   -2.0994 H   0  0  0  0  0  0  0  0  0  0  0  0
   -0.8297    2.5837   -1.9484 H   0  0  0  0  0  0  0  0  0  0  0  0
  1 15  1  0  0  0  0
  1 18  1  0  0  0  0
  2 25  1  0  0  0  0
  2 26  1  0  0  0  0
  3 23  2  0  0  0  0
  4 25  2  0  0  0  0
  5  6  1  0  0  0  0
  5 10  1  0  0  0  0
  5 11  1  0  0  0  0
  6 14  2  0  0  0  0
  7 11  1  0  0  0  0
  7 19  2  0  0  0  0
  8 15  2  0  0  0  0
  8 19  1  0  0  0  0
  9 23  1  0  0  0  0
  9 24  1  0  0  0  0
  9 41  1  0  0  0  0
 10 13  1  0  0  0  0
 10 28  1  0  0  0  0
 10 29  1  0  0  0  0
 11 12  2  0  0  0  0
 12 14  1  0  0  0  0
 12 15  1  0  0  0  0
 13 16  2  0  0  0  0
 13 17  1  0  0  0  0
 14 30  1  0  0  0  0
 16 20  1  0  0  0  0
 16 31  1  0  0  0  0
 17 21  2  0  0  0  0
 17 32  1  0  0  0  0
 18 23  1  0  0  0  0
 18 33  1  0  0  0  0
 18 34  1  0  0  0  0
 19 35  1  0  0  0  0
 20 22  2  0  0  0  0
 20 36  1  0  0  0  0
 21 22  1  0  0  0  0
 21 37  1  0  0  0  0
 22 38  1  0  0  0  0
 24 25  1  0  0  0  0
 24 39  1  0  0  0  0
 24 40  1  0  0  0  0
 26 27  1  0  0  0  0
 26 42  1  0  0  0  0
 26 43  1  0  0  0  0
 27 44  1  0  0  0  0
 27 45  1  0  0  0  0
 27 46  1  0  0  0  0
M  END
> <PUBCHEM_COMPOUND_CID>
665742

> <PUBCHEM_CONFORMER_RMSD>
1.2

> <PUBCHEM_CONFORMER_DIVERSEORDER>
1
122
58
56
67
95
42
118
83
102
92
16
43
8
70
108
10
114
9
111
3
100
44
72
38
117
121
61
41
81
90
57
60
80
84
104
51
37
18
34
116
11
97
29
85
69
94
54
59
119
106
4
23
30
103
15
64
93
87
50
98
39
96
17
89
6
86
105
66
2
71
33
49
62
7
109
110
115
79
74
75
107
20
63
113
14
40
25
76
35
47
101
82
78
5
99
77
48
123
88
46
68
112
24
120
28
32
91
19
55
12
26
31
53
13
73
27
36
65
45
22
52
21

> <PUBCHEM_MMFF94_PARTIAL_CHARGES>
33
1 -0.33
10 0.4
11 0.11
13 -0.14
14 0.14
15 0.41
16 -0.15
17 -0.15
18 0.29
19 0.47
2 -0.43
20 -0.15
21 -0.15
22 -0.15
23 0.57
24 0.36
25 0.66
26 0.28
3 -0.57
30 0.15
31 0.15
32 0.15
35 0.15
36 0.15
37 0.15
38 0.15
4 -0.57
41 0.37
5 0.31
6 -0.71
7 -0.57
8 -0.62
9 -0.73

> <PUBCHEM_EFFECTIVE_ROTOR_COUNT>
10

> <PUBCHEM_PHARMACOPHORE_FEATURES>
9
1 3 acceptor
1 4 acceptor
1 6 acceptor
1 8 acceptor
1 9 donor
3 7 8 19 cation
5 5 6 11 12 14 rings
6 13 16 17 20 21 22 rings
6 7 8 11 12 15 19 rings

> <PUBCHEM_HEAVY_ATOM_COUNT>
27

> <PUBCHEM_ATOM_DEF_STEREO_COUNT>
0

> <PUBCHEM_ATOM_UDEF_STEREO_COUNT>
0

> <PUBCHEM_BOND_DEF_STEREO_COUNT>
0

> <PUBCHEM_BOND_UDEF_STEREO_COUNT>
0

> <PUBCHEM_ISOTOPIC_ATOM_COUNT>
0

> <PUBCHEM_COMPONENT_COUNT>
1

> <PUBCHEM_CACTVS_TAUTO_COUNT>
2

> <PUBCHEM_CONFORMER_ID>
000A288E00000001

> <PUBCHEM_MMFF94_ENERGY>
45.1012

> <PUBCHEM_FEATURE_SELFOVERLAP>
45.787

> <PUBCHEM_SHAPE_FINGERPRINT>
10708813 3 18341899592729810153
11513181 2 17846216596875475735
12107698 1 18410575123935528363
12422481 6 18265309769418724008
12788726 201 17758971315970319066
13583140 156 18187931630014153211
14251751 93 18339075007872386377
14251757 17 18059307516536938692
14251764 38 18340208604007422865
14790565 3 17976545232696640796
15238133 3 18260548923031347682
1601671 61 18341051818041379990
16067690 210 15936404503385817045
19930381 70 16899329638492981723
20567600 299 18273213127471026656
20775530 9 10989486787053696080
21475661 188 18334292080324516207
21860390 5 18272656692977524086
23227448 37 18411135853132251719
25265897 201 17844274940897846159
3298306 158 18261665983257640189
338550 245 18334017177170612332
445580 2 18261396628488240836
6287921 2 17629202611304788449

> <PUBCHEM_SHAPE_MULTIPOLES>
516.98
9.56
4.31
1.64
2.76
2.4
-0.12
4.84
0.3
-1.98
0.06
0.38
-0.62
0

> <PUBCHEM_SHAPE_SELFOVERLAP>
1084.936

> <PUBCHEM_SHAPE_VOLUME>
292.8

> <PUBCHEM_COORDINATE_TYPE>
2
5
10

$$$$
