24792840
  -OEChem-01171810053D

 72 76  0     0  0  0  0  0  0999 V2000
    9.5256   -0.0731   -2.8500 Cl  0  0  0  0  0  0  0  0  0  0  0  0
    1.5459   -0.1548    0.3280 O   0  0  0  0  0  0  0  0  0  0  0  0
   -4.1342    3.2370   -1.9976 O   0  0  0  0  0  0  0  0  0  0  0  0
    4.1148    1.9441    1.7790 O   0  0  0  0  0  0  0  0  0  0  0  0
   -7.5230   -0.6670    0.0720 N   0  0  0  0  0  0  0  0  0  0  0  0
   -7.7627   -3.5419   -0.1171 N   0  0  0  0  0  0  0  0  0  0  0  0
   -4.8875    2.7921    0.1499 N   0  0  0  0  0  0  0  0  0  0  0  0
    4.2254   -0.3087    1.2360 N   0  0  0  0  0  0  0  0  0  0  0  0
   -7.9681   -1.4716    1.2163 C   0  0  0  0  0  0  0  0  0  0  0  0
   -6.6288   -1.4512   -0.7885 C   0  0  0  0  0  0  0  0  0  0  0  0
   -8.6560   -2.7572    0.7439 C   0  0  0  0  0  0  0  0  0  0  0  0
   -7.3155   -2.7374   -1.2607 C   0  0  0  0  0  0  0  0  0  0  0  0
   -6.8663    0.5584    0.5232 C   0  0  0  0  0  0  0  0  0  0  0  0
   -6.9533    1.6347   -0.5601 C   0  0  0  0  0  0  0  0  0  0  0  0
   -8.4207   -4.7661   -0.5692 C   0  0  0  0  0  0  0  0  0  0  0  0
   -6.2967    2.9439   -0.1321 C   0  0  0  0  0  0  0  0  0  0  0  0
   -3.8841    2.9504   -0.8133 C   0  0  0  0  0  0  0  0  0  0  0  0
   -2.5124    2.7402   -0.3785 C   0  0  0  0  0  0  0  0  0  0  0  0
    3.5620   -1.4503    0.7045 C   0  0  0  0  0  0  0  0  0  0  0  0
    5.6066   -0.4346    1.6946 C   0  0  0  0  0  0  0  0  0  0  0  0
    3.5863    0.9269    1.3287 C   0  0  0  0  0  0  0  0  0  0  0  0
    2.2429   -1.3290    0.2698 C   0  0  0  0  0  0  0  0  0  0  0  0
    2.1760    0.9629    0.8367 C   0  0  0  0  0  0  0  0  0  0  0  0
   -2.1623    2.9541    0.9547 C   0  0  0  0  0  0  0  0  0  0  0  0
   -1.5469    2.3239   -1.2951 C   0  0  0  0  0  0  0  0  0  0  0  0
    0.1189    2.3352    0.4547 C   0  0  0  0  0  0  0  0  0  0  0  0
    6.5857   -0.3434    0.5600 C   0  0  0  0  0  0  0  0  0  0  0  0
    1.5072    2.1220    0.8938 C   0  0  0  0  0  0  0  0  0  0  0  0
    4.1841   -2.7047    0.5983 C   0  0  0  0  0  0  0  0  0  0  0  0
   -0.8466    2.7516    1.3712 C   0  0  0  0  0  0  0  0  0  0  0  0
   -0.2312    2.1215   -0.8785 C   0  0  0  0  0  0  0  0  0  0  0  0
    1.5534   -2.4258   -0.2584 C   0  0  0  0  0  0  0  0  0  0  0  0
    3.4976   -3.8022    0.0705 C   0  0  0  0  0  0  0  0  0  0  0  0
    7.8013   -1.0240    0.6313 C   0  0  0  0  0  0  0  0  0  0  0  0
    6.2791    0.4204   -0.5661 C   0  0  0  0  0  0  0  0  0  0  0  0
    2.1818   -3.6631   -0.3578 C   0  0  0  0  0  0  0  0  0  0  0  0
    8.7101   -0.9406   -0.4235 C   0  0  0  0  0  0  0  0  0  0  0  0
    7.1879    0.5038   -1.6209 C   0  0  0  0  0  0  0  0  0  0  0  0
    8.4035   -0.1767   -1.5495 C   0  0  0  0  0  0  0  0  0  0  0  0
   -8.6887   -0.9017    1.8157 H   0  0  0  0  0  0  0  0  0  0  0  0
   -7.1222   -1.7220    1.8708 H   0  0  0  0  0  0  0  0  0  0  0  0
   -6.3469   -0.8810   -1.6800 H   0  0  0  0  0  0  0  0  0  0  0  0
   -5.7001   -1.7074   -0.2602 H   0  0  0  0  0  0  0  0  0  0  0  0
   -8.9303   -3.3460    1.6277 H   0  0  0  0  0  0  0  0  0  0  0  0
   -9.5867   -2.5057    0.2171 H   0  0  0  0  0  0  0  0  0  0  0  0
   -8.1598   -2.4854   -1.9167 H   0  0  0  0  0  0  0  0  0  0  0  0
   -6.5977   -3.3119   -1.8590 H   0  0  0  0  0  0  0  0  0  0  0  0
   -7.3807    0.9554    1.4086 H   0  0  0  0  0  0  0  0  0  0  0  0
   -5.8299    0.3670    0.8276 H   0  0  0  0  0  0  0  0  0  0  0  0
   -8.0056    1.8318   -0.8005 H   0  0  0  0  0  0  0  0  0  0  0  0
   -6.4730    1.2934   -1.4842 H   0  0  0  0  0  0  0  0  0  0  0  0
   -8.7121   -5.3844    0.2871 H   0  0  0  0  0  0  0  0  0  0  0  0
   -7.7352   -5.3700   -1.1739 H   0  0  0  0  0  0  0  0  0  0  0  0
   -9.3165   -4.5597   -1.1661 H   0  0  0  0  0  0  0  0  0  0  0  0
   -6.4226    3.6936   -0.9208 H   0  0  0  0  0  0  0  0  0  0  0  0
   -6.7696    3.3306    0.7769 H   0  0  0  0  0  0  0  0  0  0  0  0
   -4.6479    2.4979    1.0905 H   0  0  0  0  0  0  0  0  0  0  0  0
    5.8338    0.3867    2.3861 H   0  0  0  0  0  0  0  0  0  0  0  0
    5.7251   -1.3506    2.2841 H   0  0  0  0  0  0  0  0  0  0  0  0
   -2.8743    3.3082    1.6943 H   0  0  0  0  0  0  0  0  0  0  0  0
   -1.7999    2.1482   -2.3375 H   0  0  0  0  0  0  0  0  0  0  0  0
    1.9680    3.0134    1.3138 H   0  0  0  0  0  0  0  0  0  0  0  0
    5.2090   -2.8768    0.9098 H   0  0  0  0  0  0  0  0  0  0  0  0
   -0.5865    2.9283    2.4121 H   0  0  0  0  0  0  0  0  0  0  0  0
    0.5082    1.8016   -1.6089 H   0  0  0  0  0  0  0  0  0  0  0  0
    0.5251   -2.3187   -0.5942 H   0  0  0  0  0  0  0  0  0  0  0  0
    3.9941   -4.7653   -0.0060 H   0  0  0  0  0  0  0  0  0  0  0  0
    8.0512   -1.6218    1.5038 H   0  0  0  0  0  0  0  0  0  0  0  0
    5.3534    0.9775   -0.6612 H   0  0  0  0  0  0  0  0  0  0  0  0
    1.6482   -4.5149   -0.7681 H   0  0  0  0  0  0  0  0  0  0  0  0
    9.6535   -1.4760   -0.3541 H   0  0  0  0  0  0  0  0  0  0  0  0
    6.9375    1.1051   -2.4912 H   0  0  0  0  0  0  0  0  0  0  0  0
  1 39  1  0  0  0  0
  2 22  1  0  0  0  0
  2 23  1  0  0  0  0
  3 17  2  0  0  0  0
  4 21  2  0  0  0  0
  5  9  1  0  0  0  0
  5 10  1  0  0  0  0
  5 13  1  0  0  0  0
  6 11  1  0  0  0  0
  6 12  1  0  0  0  0
  6 15  1  0  0  0  0
  7 16  1  0  0  0  0
  7 17  1  0  0  0  0
  7 57  1  0  0  0  0
  8 19  1  0  0  0  0
  8 20  1  0  0  0  0
  8 21  1  0  0  0  0
  9 11  1  0  0  0  0
  9 40  1  0  0  0  0
  9 41  1  0  0  0  0
 10 12  1  0  0  0  0
 10 42  1  0  0  0  0
 10 43  1  0  0  0  0
 11 44  1  0  0  0  0
 11 45  1  0  0  0  0
 12 46  1  0  0  0  0
 12 47  1  0  0  0  0
 13 14  1  0  0  0  0
 13 48  1  0  0  0  0
 13 49  1  0  0  0  0
 14 16  1  0  0  0  0
 14 50  1  0  0  0  0
 14 51  1  0  0  0  0
 15 52  1  0  0  0  0
 15 53  1  0  0  0  0
 15 54  1  0  0  0  0
 16 55  1  0  0  0  0
 16 56  1  0  0  0  0
 17 18  1  0  0  0  0
 18 24  2  0  0  0  0
 18 25  1  0  0  0  0
 19 22  1  0  0  0  0
 19 29  2  0  0  0  0
 20 27  1  0  0  0  0
 20 58  1  0  0  0  0
 20 59  1  0  0  0  0
 21 23  1  0  0  0  0
 22 32  2  0  0  0  0
 23 28  2  0  0  0  0
 24 30  1  0  0  0  0
 24 60  1  0  0  0  0
 25 31  2  0  0  0  0
 25 61  1  0  0  0  0
 26 28  1  0  0  0  0
 26 30  2  0  0  0  0
 26 31  1  0  0  0  0
 27 34  2  0  0  0  0
 27 35  1  0  0  0  0
 28 62  1  0  0  0  0
 29 33  1  0  0  0  0
 29 63  1  0  0  0  0
 30 64  1  0  0  0  0
 31 65  1  0  0  0  0
 32 36  1  0  0  0  0
 32 66  1  0  0  0  0
 33 36  2  0  0  0  0
 33 67  1  0  0  0  0
 34 37  1  0  0  0  0
 34 68  1  0  0  0  0
 35 38  2  0  0  0  0
 35 69  1  0  0  0  0
 36 70  1  0  0  0  0
 37 39  2  0  0  0  0
 37 71  1  0  0  0  0
 38 39  1  0  0  0  0
 38 72  1  0  0  0  0
M  END
> <PUBCHEM_COMPOUND_CID>
24792840

> <PUBCHEM_CONFORMER_RMSD>
1.2

> <PUBCHEM_CONFORMER_DIVERSEORDER>
1
22
23
5
10
72
56
19
63
40
66
6
38
53
12
51
71
57
59
37
21
62
55
70
11
41
69
35
30
48
43
32
60
14
39
50
34
31
9
45
28
54
65
46
8
52
64
67
3
13
7
20
42
68
27
2
24
26
17
61
18
33
29
36
15
47
25
16
44
49
4
58

> <PUBCHEM_MMFF94_PARTIAL_CHARGES>
52
1 -0.18
10 0.27
11 0.27
12 0.27
13 0.27
15 0.27
16 0.3
17 0.54
18 0.09
19 0.12
2 -0.16
20 0.44
21 0.62
22 0.08
23 0.09
24 -0.15
25 -0.15
26 0.03
27 -0.14
28 -0.18
29 -0.15
3 -0.57
30 -0.15
31 -0.15
32 -0.15
33 -0.15
34 -0.15
35 -0.15
36 -0.15
37 -0.15
38 -0.15
39 0.18
4 -0.57
5 -0.81
57 0.37
6 -0.81
60 0.15
61 0.15
62 0.15
63 0.15
64 0.15
65 0.15
66 0.15
67 0.15
68 0.15
69 0.15
7 -0.73
70 0.15
71 0.15
72 0.15
8 -0.48
9 0.27

> <PUBCHEM_EFFECTIVE_ROTOR_COUNT>
10.6

> <PUBCHEM_PHARMACOPHORE_FEATURES>
11
1 2 acceptor
1 3 acceptor
1 4 acceptor
1 5 cation
1 6 cation
1 7 donor
6 18 24 25 26 30 31 rings
6 19 22 29 32 33 36 rings
6 2 8 19 21 22 23 rings
6 27 34 35 37 38 39 rings
6 5 6 9 10 11 12 rings

> <PUBCHEM_HEAVY_ATOM_COUNT>
39

> <PUBCHEM_ATOM_DEF_STEREO_COUNT>
0

> <PUBCHEM_ATOM_UDEF_STEREO_COUNT>
0

> <PUBCHEM_BOND_DEF_STEREO_COUNT>
1

> <PUBCHEM_BOND_UDEF_STEREO_COUNT>
0

> <PUBCHEM_ISOTOPIC_ATOM_COUNT>
0

> <PUBCHEM_COMPONENT_COUNT>
1

> <PUBCHEM_CACTVS_TAUTO_COUNT>
2

> <PUBCHEM_CONFORMER_ID>
017A4F0800000001

> <PUBCHEM_MMFF94_ENERGY>
103.7433

> <PUBCHEM_FEATURE_SELFOVERLAP>
55.854

> <PUBCHEM_SHAPE_FINGERPRINT>
10190108 129 18413386566292896150
10391435 84 18336530643956700961
11456790 92 11455881460724523228
11497681 19 18335703818947810772
117089 54 18263644121520905899
11761917 116 18409728499823677519
11828042 74 18115010954498892325
11828532 37 18202002123712582252
11963148 33 18335974273091538515
12522641 126 18114749363902853165
12559416 138 18129085897077578439
13347071 3 18341611577256840763
1361 4 18337668590766709035
15361156 5 18113904827936456641
16989713 51 18333725815595820493
18608769 82 18410570648225859641
20105231 36 17704070660221895676
20982279 24 16916521267835217004
21344244 181 17060053689458524158
21781051 124 18273497871181632532
23569917 315 18268150852216936458
23729417 116 18261390018993808285
25269216 80 17458061569685375801
2747138 104 17917422103799162280
335507 130 18114190692290596565
397638 5 8430319017683301084
404807 78 18408887343411020266
4173938 306 13190346768353368152
437795 163 18409730647001272799
44880568 143 17316479501032599140
45377200 153 18273501173732044774
484989 97 18342453759501452856

> <PUBCHEM_SHAPE_MULTIPOLES>
766.94
31.83
5.47
1.68
14.02
2.97
-0.57
22.89
-9.82
13.14
-0.56
-2.86
-0.56
0.05

> <PUBCHEM_SHAPE_SELFOVERLAP>
1642.378

> <PUBCHEM_SHAPE_VOLUME>
423.7

> <PUBCHEM_COORDINATE_TYPE>
2
5
10

$$$$
