889599
  -OEChem-01171809453D

 25 26  0     0  0  0  0  0  0999 V2000
   -2.7456    2.0489    0.0934 O   0  0  0  0  0  0  0  0  0  0  0  0
   -3.8816   -0.0764    0.0710 O   0  0  0  0  0  0  0  0  0  0  0  0
    0.2515   -2.5052   -0.3342 O   0  0  0  0  0  0  0  0  0  0  0  0
    4.5741    1.2540    0.9268 O   0  5  0  0  0  0  0  0  0  0  0  0
    4.2129    0.2838   -1.0172 O   0  0  0  0  0  0  0  0  0  0  0  0
    3.8304    0.8134    0.0373 N   0  3  0  0  0  0  0  0  0  0  0  0
   -1.8823    1.0026   -0.0162 C   0  0  0  0  0  0  0  0  0  0  0  0
   -2.5309   -0.2110   -0.0288 C   0  0  0  0  0  0  0  0  0  0  0  0
    0.2133   -0.0984   -0.2162 C   0  0  0  0  0  0  0  0  0  0  0  0
   -0.4493   -1.3385   -0.2291 C   0  0  0  0  0  0  0  0  0  0  0  0
   -0.5087    1.0926   -0.1083 C   0  0  0  0  0  0  0  0  0  0  0  0
   -1.8416   -1.4017   -0.1342 C   0  0  0  0  0  0  0  0  0  0  0  0
   -4.0102    1.3580    0.1486 C   0  0  0  0  0  0  0  0  0  0  0  0
    1.6654   -0.0294   -0.3166 C   0  0  0  0  0  0  0  0  0  0  0  0
    2.4311    0.9247    0.2418 C   0  0  0  0  0  0  0  0  0  0  0  0
    0.6716   -3.1174    0.8819 C   0  0  0  0  0  0  0  0  0  0  0  0
   -0.0358    2.0692   -0.1083 H   0  0  0  0  0  0  0  0  0  0  0  0
   -2.3636   -2.3523   -0.1441 H   0  0  0  0  0  0  0  0  0  0  0  0
   -4.5097    1.6151    1.0898 H   0  0  0  0  0  0  0  0  0  0  0  0
   -4.6338    1.7000   -0.6854 H   0  0  0  0  0  0  0  0  0  0  0  0
    2.1095   -0.8361   -0.8967 H   0  0  0  0  0  0  0  0  0  0  0  0
    2.1414    1.7441    0.8824 H   0  0  0  0  0  0  0  0  0  0  0  0
    1.3087   -2.4421    1.4615 H   0  0  0  0  0  0  0  0  0  0  0  0
    1.2486   -4.0123    0.6332 H   0  0  0  0  0  0  0  0  0  0  0  0
   -0.1962   -3.4166    1.4783 H   0  0  0  0  0  0  0  0  0  0  0  0
  1  7  1  0  0  0  0
  1 13  1  0  0  0  0
  2  8  1  0  0  0  0
  2 13  1  0  0  0  0
  3 10  1  0  0  0  0
  3 16  1  0  0  0  0
  4  6  1  0  0  0  0
  5  6  2  0  0  0  0
  6 15  1  0  0  0  0
  7  8  2  0  0  0  0
  7 11  1  0  0  0  0
  8 12  1  0  0  0  0
  9 10  1  0  0  0  0
  9 11  2  0  0  0  0
  9 14  1  0  0  0  0
 10 12  2  0  0  0  0
 11 17  1  0  0  0  0
 12 18  1  0  0  0  0
 13 19  1  0  0  0  0
 13 20  1  0  0  0  0
 14 15  2  0  0  0  0
 14 21  1  0  0  0  0
 15 22  1  0  0  0  0
 16 23  1  0  0  0  0
 16 24  1  0  0  0  0
 16 25  1  0  0  0  0
M  CHG  2   4  -1   6   1
M  END
> <PUBCHEM_COMPOUND_CID>
889599

> <PUBCHEM_CONFORMER_RMSD>
0.6

> <PUBCHEM_CONFORMER_DIVERSEORDER>
1
3
4
2

> <PUBCHEM_MMFF94_PARTIAL_CHARGES>
20
1 -0.36
10 0.08
11 -0.15
12 -0.15
13 0.56
14 -0.18
15 0.05
16 0.28
17 0.15
18 0.15
2 -0.36
21 0.15
22 0.15
3 -0.36
4 -0.52
5 -0.52
6 0.84
7 0.08
8 0.08
9 0.03

> <PUBCHEM_EFFECTIVE_ROTOR_COUNT>
3.6

> <PUBCHEM_PHARMACOPHORE_FEATURES>
8
1 1 acceptor
1 2 acceptor
1 3 acceptor
1 4 acceptor
1 4 anion
1 5 acceptor
5 1 2 7 8 13 rings
6 7 8 9 10 11 12 rings

> <PUBCHEM_HEAVY_ATOM_COUNT>
16

> <PUBCHEM_ATOM_DEF_STEREO_COUNT>
0

> <PUBCHEM_ATOM_UDEF_STEREO_COUNT>
0

> <PUBCHEM_BOND_DEF_STEREO_COUNT>
1

> <PUBCHEM_BOND_UDEF_STEREO_COUNT>
0

> <PUBCHEM_ISOTOPIC_ATOM_COUNT>
0

> <PUBCHEM_COMPONENT_COUNT>
1

> <PUBCHEM_CACTVS_TAUTO_COUNT>
2

> <PUBCHEM_CONFORMER_ID>
000D92FF00000001

> <PUBCHEM_MMFF94_ENERGY>
56.8134

> <PUBCHEM_FEATURE_SELFOVERLAP>
40.833

> <PUBCHEM_SHAPE_FINGERPRINT>
10608611 8 18201154472665983528
10922049 32 18412550907169189622
11132069 177 18411699906570430396
11543360 7 15697988665292267445
12346645 44 18412262809452933913
12592029 89 18335424534404453978
12644460 14 18119259363162486331
12788726 201 17392493481910472802
13140716 1 18122072154946699649
13380535 76 18408324376119493339
13544592 145 18272663329123852902
14022349 108 18191021214279321970
15042514 8 18192997251407371931
15309172 13 18261108586458970884
15536298 74 18270120106551285430
15775835 57 18411419501008596640
16945 1 18335432261656968655
18186145 218 18059585671809942776
20510252 161 18271248347035683712
20645476 183 17896618347516348758
20645477 56 18341049722287542456
20671657 1 18196089936971198818
212916 134 18270661148245503184
21501502 16 18195804068843837307
21524375 3 18413107268552945767
23366157 5 17825113614332487594
23402539 116 18270671077782668837
23559900 14 17983856675139828742
2748010 2 18119820114525058047
305870 269 18335700494632573995
3071541 12 18052542066861990407
3071541 37 18263366897464221503
3091708 16 9194095856286454643
3250762 1 17465649096721001428
366044 4 18410292527354713651
43471831 8 18334572430041453210
5104073 3 18119540834678082633
53812653 166 18343019982404407241
5706482 22 18409161147159499595
58807428 26 18335417954667504706
6138700 20 18123196710724730558
633830 44 18272932696018466132
69090 78 17917710235837336246
7364860 26 18196935457086355815
81228 2 17906156709386735858
81539 233 18187363177663845095
9709674 26 18199754811765097310

> <PUBCHEM_SHAPE_MULTIPOLES>
294.94
7.13
2.5
0.76
4.19
2.19
-0.02
-4.78
-0.43
-0.03
-0.51
0.44
0.09
0

> <PUBCHEM_SHAPE_SELFOVERLAP>
636.306

> <PUBCHEM_SHAPE_VOLUME>
163.5

> <PUBCHEM_COORDINATE_TYPE>
2
5
10

$$$$
