5759185
  -OEChem-01171809213D

 38 39  0     0  0  0  0  0  0999 V2000
    1.1326   -0.6304   -2.2365 O   0  0  0  0  0  0  0  0  0  0  0  0
   -5.2166   -0.3282    0.8011 O   0  5  0  0  0  0  0  0  0  0  0  0
   -3.5698   -0.7794    2.1808 O   0  0  0  0  0  0  0  0  0  0  0  0
    2.8879    0.5976    0.2498 N   0  0  0  0  0  0  0  0  0  0  0  0
    3.8580   -0.2421   -0.0589 N   0  0  0  0  0  0  0  0  0  0  0  0
    4.5674    1.4991    1.2441 N   0  0  0  0  0  0  0  0  0  0  0  0
   -4.0068   -0.2574    1.1267 N   0  3  0  0  0  0  0  0  0  0  0  0
    0.6708   -2.0454   -0.3131 C   0  0  0  0  0  0  0  0  0  0  0  0
    1.1283   -0.7394   -1.0079 C   0  0  0  0  0  0  0  0  0  0  0  0
    0.7398   -1.8252    1.2077 C   0  0  0  0  0  0  0  0  0  0  0  0
   -0.7476   -2.4983   -0.6866 C   0  0  0  0  0  0  0  0  0  0  0  0
    1.6572   -3.1648   -0.6885 C   0  0  0  0  0  0  0  0  0  0  0  0
    1.5374    0.4488   -0.1760 C   0  0  0  0  0  0  0  0  0  0  0  0
    0.5376    1.3044    0.1360 C   0  0  0  0  0  0  0  0  0  0  0  0
   -0.8864    1.2057   -0.2234 C   0  0  0  0  0  0  0  0  0  0  0  0
   -1.7552    0.5269    0.6170 C   0  0  0  0  0  0  0  0  0  0  0  0
    3.2812    1.6257    1.0131 C   0  0  0  0  0  0  0  0  0  0  0  0
   -1.3335    1.7943   -1.3963 C   0  0  0  0  0  0  0  0  0  0  0  0
   -3.1046    0.4344    0.2760 C   0  0  0  0  0  0  0  0  0  0  0  0
   -2.6827    1.7018   -1.7372 C   0  0  0  0  0  0  0  0  0  0  0  0
   -3.5684    1.0220   -0.9011 C   0  0  0  0  0  0  0  0  0  0  0  0
    4.8736    0.3498    0.5731 C   0  0  0  0  0  0  0  0  0  0  0  0
    0.1522   -1.0046    1.5951 H   0  0  0  0  0  0  0  0  0  0  0  0
    0.3849   -2.7240    1.7289 H   0  0  0  0  0  0  0  0  0  0  0  0
    1.7716   -1.6769    1.5482 H   0  0  0  0  0  0  0  0  0  0  0  0
   -1.5114   -1.7895   -0.3812 H   0  0  0  0  0  0  0  0  0  0  0  0
   -0.8407   -2.6166   -1.7721 H   0  0  0  0  0  0  0  0  0  0  0  0
   -0.9925   -3.4614   -0.2245 H   0  0  0  0  0  0  0  0  0  0  0  0
    1.4214   -4.0987   -0.1661 H   0  0  0  0  0  0  0  0  0  0  0  0
    2.6878   -2.8914   -0.4367 H   0  0  0  0  0  0  0  0  0  0  0  0
    1.6314   -3.3660   -1.7657 H   0  0  0  0  0  0  0  0  0  0  0  0
    0.7228    2.1911    0.7360 H   0  0  0  0  0  0  0  0  0  0  0  0
   -1.4117    0.1439    1.5700 H   0  0  0  0  0  0  0  0  0  0  0  0
    2.6758    2.4365    1.3934 H   0  0  0  0  0  0  0  0  0  0  0  0
   -0.6534    2.3266   -2.0560 H   0  0  0  0  0  0  0  0  0  0  0  0
   -3.0434    2.1592   -2.6539 H   0  0  0  0  0  0  0  0  0  0  0  0
   -4.6125    0.9702   -1.1990 H   0  0  0  0  0  0  0  0  0  0  0  0
    5.8684   -0.0693    0.5436 H   0  0  0  0  0  0  0  0  0  0  0  0
  1  9  2  0  0  0  0
  2  7  1  0  0  0  0
  3  7  2  0  0  0  0
  4  5  1  0  0  0  0
  4 13  1  0  0  0  0
  4 17  1  0  0  0  0
  5 22  2  0  0  0  0
  6 17  2  0  0  0  0
  6 22  1  0  0  0  0
  7 19  1  0  0  0  0
  8  9  1  0  0  0  0
  8 10  1  0  0  0  0
  8 11  1  0  0  0  0
  8 12  1  0  0  0  0
  9 13  1  0  0  0  0
 10 23  1  0  0  0  0
 10 24  1  0  0  0  0
 10 25  1  0  0  0  0
 11 26  1  0  0  0  0
 11 27  1  0  0  0  0
 11 28  1  0  0  0  0
 12 29  1  0  0  0  0
 12 30  1  0  0  0  0
 12 31  1  0  0  0  0
 13 14  2  0  0  0  0
 14 15  1  0  0  0  0
 14 32  1  0  0  0  0
 15 16  2  0  0  0  0
 15 18  1  0  0  0  0
 16 19  1  0  0  0  0
 16 33  1  0  0  0  0
 17 34  1  0  0  0  0
 18 20  2  0  0  0  0
 18 35  1  0  0  0  0
 19 21  2  0  0  0  0
 20 21  1  0  0  0  0
 20 36  1  0  0  0  0
 21 37  1  0  0  0  0
 22 38  1  0  0  0  0
M  CHG  2   2  -1   7   1
M  END
> <PUBCHEM_COMPOUND_CID>
5759185

> <PUBCHEM_CONFORMER_RMSD>
0.8

> <PUBCHEM_CONFORMER_DIVERSEORDER>
1
3
8
12
11
7
10
6
5
9
2
4

> <PUBCHEM_MMFF94_PARTIAL_CHARGES>
26
1 -0.57
13 -0.02
14 -0.18
15 0.03
16 -0.15
17 0.04
18 -0.15
19 0.13
2 -0.52
20 -0.15
21 -0.15
22 0.37
3 -0.52
32 0.15
33 0.15
34 0.15
35 0.15
36 0.15
37 0.15
38 0.15
4 0.6
5 -0.71
6 -0.57
7 0.91
8 0.06
9 0.49

> <PUBCHEM_EFFECTIVE_ROTOR_COUNT>
5

> <PUBCHEM_PHARMACOPHORE_FEATURES>
9
1 1 acceptor
1 2 acceptor
1 2 anion
1 3 acceptor
3 4 6 17 cation
3 5 6 22 cation
4 8 10 11 12 hydrophobe
5 4 5 6 17 22 rings
6 15 16 18 19 20 21 rings

> <PUBCHEM_HEAVY_ATOM_COUNT>
22

> <PUBCHEM_ATOM_DEF_STEREO_COUNT>
0

> <PUBCHEM_ATOM_UDEF_STEREO_COUNT>
0

> <PUBCHEM_BOND_DEF_STEREO_COUNT>
1

> <PUBCHEM_BOND_UDEF_STEREO_COUNT>
0

> <PUBCHEM_ISOTOPIC_ATOM_COUNT>
0

> <PUBCHEM_COMPONENT_COUNT>
1

> <PUBCHEM_CACTVS_TAUTO_COUNT>
1

> <PUBCHEM_CONFORMER_ID>
0057E0D100000001

> <PUBCHEM_MMFF94_ENERGY>
80.4733

> <PUBCHEM_FEATURE_SELFOVERLAP>
48.545

> <PUBCHEM_SHAPE_FINGERPRINT>
10871710 139 16964086454132880500
10922049 32 18413385432663687566
11132069 177 18411138081871702986
11578080 2 17899984832782283596
12236239 1 16487253274818213545
12403259 415 18410292493454236068
12592029 89 18341890758440823538
12596602 18 17203614800566627827
12892183 10 17531235171877073144
12930653 34 18339924792737515977
13140716 1 18193560201381275177
13583140 156 17169523342624731500
14178342 30 18188785937563689129
14223421 5 18264488373464935381
14787075 74 17632013164904827225
15099037 37 17894348878265340061
15295992 7 16988272213998043264
15309172 13 18342451556351956528
15375358 24 18261386711867904837
16945 1 18200584792577443502
17349148 13 15936416619493280697
17980427 23 17167864162150512541
1813 80 12252742518528942298
18186145 218 18060133254592067996
18915476 22 18269549447279124455
20261772 1 18336264647292733530
204376 136 18342452677422680428
20603629 256 18058459711599744659
20645477 70 17986660472824330805
21033648 29 18268688615738212424
22079108 93 17775000249592054881
22182313 1 18261395482021987095
22224240 67 18272649099385608649
23419403 2 18191588540915298102
23557571 272 17894918373843911629
23559900 14 17751077999076352062
2748010 2 18190746332119277327
34934 24 16988567862288137961
4340502 62 18060149760288348475
465052 167 17749681786649030729
469060 322 18189599713527913879
474 4 17346597521171872720
49207404 50 18408319969488121176
57100710 210 16515676762744890461
59755656 520 17775288296090150990
633830 44 17704077295877996932
6913067 236 18261385681096450111
81228 2 17690536990554386970
9709674 26 18117833301034522437

> <PUBCHEM_SHAPE_MULTIPOLES>
415.22
8.18
2.61
1.61
0.12
1.91
0.08
-2.82
-3.47
0.98
0.56
-0.95
0.05
1.85

> <PUBCHEM_SHAPE_SELFOVERLAP>
886.013

> <PUBCHEM_SHAPE_VOLUME>
233

> <PUBCHEM_COORDINATE_TYPE>
2
5
10

$$$$
