283138
  -OEChem-01171812263D

 34 37  0     1  0  0  0  0  0999 V2000
   -2.5490   -1.5989   -0.2541 O   0  0  0  0  0  0  0  0  0  0  0  0
   -2.5786    1.3820   -0.4373 O   0  0  0  0  0  0  0  0  0  0  0  0
    0.0197    2.5332    0.7430 O   0  0  0  0  0  0  0  0  0  0  0  0
   -4.6384    1.6197   -1.4160 O   0  0  0  0  0  0  0  0  0  0  0  0
    1.5700   -2.4148   -0.5536 O   0  0  0  0  0  0  0  0  0  0  0  0
    4.0191   -1.7075   -0.6782 O   0  0  0  0  0  0  0  0  0  0  0  0
   -2.9409   -0.6198    0.7106 C   0  0  1  0  0  0  0  0  0  0  0  0
   -2.0384    0.5974    0.6391 C   0  0  1  0  0  0  0  0  0  0  0  0
   -0.5985    0.2784    0.3568 C   0  0  0  0  0  0  0  0  0  0  0  0
   -1.2139   -2.0954   -0.0712 C   0  0  1  0  0  0  0  0  0  0  0  0
   -0.2113   -0.9697    0.0516 C   0  0  0  0  0  0  0  0  0  0  0  0
   -4.2845   -0.0580    0.2968 C   0  0  0  0  0  0  0  0  0  0  0  0
   -3.8932    1.0583   -0.6280 C   0  0  0  0  0  0  0  0  0  0  0  0
    0.3778    1.3954    0.4608 C   0  0  0  0  0  0  0  0  0  0  0  0
    1.2156   -1.2863   -0.2318 C   0  0  0  0  0  0  0  0  0  0  0  0
   -1.1619   -3.0653    1.1093 C   0  0  0  0  0  0  0  0  0  0  0  0
    1.7992    1.0946    0.2152 C   0  0  0  0  0  0  0  0  0  0  0  0
    2.2027   -0.1973   -0.1182 C   0  0  0  0  0  0  0  0  0  0  0  0
    3.5573   -0.4670   -0.3504 C   0  0  0  0  0  0  0  0  0  0  0  0
    2.7489    2.1189    0.3172 C   0  0  0  0  0  0  0  0  0  0  0  0
    4.5009    0.5555   -0.2475 C   0  0  0  0  0  0  0  0  0  0  0  0
    4.0973    1.8464    0.0859 C   0  0  0  0  0  0  0  0  0  0  0  0
   -2.9831   -1.0780    1.7035 H   0  0  0  0  0  0  0  0  0  0  0  0
   -2.1293    1.1893    1.5587 H   0  0  0  0  0  0  0  0  0  0  0  0
   -1.0002   -2.6618   -0.9854 H   0  0  0  0  0  0  0  0  0  0  0  0
   -4.8223    0.3731    1.1461 H   0  0  0  0  0  0  0  0  0  0  0  0
   -4.8996   -0.7894   -0.2335 H   0  0  0  0  0  0  0  0  0  0  0  0
   -0.2092   -3.6029    1.1443 H   0  0  0  0  0  0  0  0  0  0  0  0
   -1.2866   -2.5484    2.0669 H   0  0  0  0  0  0  0  0  0  0  0  0
   -1.9712   -3.7997    1.0353 H   0  0  0  0  0  0  0  0  0  0  0  0
    2.4594    3.1341    0.5755 H   0  0  0  0  0  0  0  0  0  0  0  0
    5.5560    0.3629   -0.4238 H   0  0  0  0  0  0  0  0  0  0  0  0
    4.8327    2.6417    0.1657 H   0  0  0  0  0  0  0  0  0  0  0  0
    4.9840   -1.6764   -0.7947 H   0  0  0  0  0  0  0  0  0  0  0  0
  1  7  1  0  0  0  0
  1 10  1  0  0  0  0
  2  8  1  0  0  0  0
  2 13  1  0  0  0  0
  3 14  2  0  0  0  0
  4 13  2  0  0  0  0
  5 15  2  0  0  0  0
  6 19  1  0  0  0  0
  6 34  1  0  0  0  0
  7  8  1  0  0  0  0
  7 12  1  0  0  0  0
  7 23  1  0  0  0  0
  8  9  1  0  0  0  0
  8 24  1  0  0  0  0
  9 11  2  0  0  0  0
  9 14  1  0  0  0  0
 10 11  1  0  0  0  0
 10 16  1  0  0  0  0
 10 25  1  0  0  0  0
 11 15  1  0  0  0  0
 12 13  1  0  0  0  0
 12 26  1  0  0  0  0
 12 27  1  0  0  0  0
 14 17  1  0  0  0  0
 15 18  1  0  0  0  0
 16 28  1  0  0  0  0
 16 29  1  0  0  0  0
 16 30  1  0  0  0  0
 17 18  2  0  0  0  0
 17 20  1  0  0  0  0
 18 19  1  0  0  0  0
 19 21  2  0  0  0  0
 20 22  2  0  0  0  0
 20 31  1  0  0  0  0
 21 22  1  0  0  0  0
 21 32  1  0  0  0  0
 22 33  1  0  0  0  0
M  END
> <PUBCHEM_COMPOUND_CID>
283138

> <PUBCHEM_CONFORMER_RMSD>
0.6

> <PUBCHEM_CONFORMER_DIVERSEORDER>
1
2
3
4

> <PUBCHEM_MMFF94_PARTIAL_CHARGES>
25
1 -0.56
10 0.42
11 -0.12
12 0.06
13 0.66
14 0.47
15 0.47
17 0.09
18 0.09
19 0.08
2 -0.43
20 -0.15
21 -0.15
22 -0.15
3 -0.57
31 0.15
32 0.15
33 0.15
34 0.45
4 -0.57
5 -0.57
6 -0.53
7 0.28
8 0.42
9 -0.12

> <PUBCHEM_EFFECTIVE_ROTOR_COUNT>
0.8

> <PUBCHEM_PHARMACOPHORE_FEATURES>
9
1 1 acceptor
1 3 acceptor
1 4 acceptor
1 5 acceptor
1 6 donor
5 2 7 8 12 13 rings
6 1 7 8 9 10 11 rings
6 17 18 19 20 21 22 rings
6 9 11 14 15 17 18 rings

> <PUBCHEM_HEAVY_ATOM_COUNT>
22

> <PUBCHEM_ATOM_DEF_STEREO_COUNT>
0

> <PUBCHEM_ATOM_UDEF_STEREO_COUNT>
3

> <PUBCHEM_BOND_DEF_STEREO_COUNT>
0

> <PUBCHEM_BOND_UDEF_STEREO_COUNT>
0

> <PUBCHEM_ISOTOPIC_ATOM_COUNT>
0

> <PUBCHEM_COMPONENT_COUNT>
1

> <PUBCHEM_CACTVS_TAUTO_COUNT>
10

> <PUBCHEM_CONFORMER_ID>
0004520200000001

> <PUBCHEM_MMFF94_ENERGY>
49.9751

> <PUBCHEM_FEATURE_SELFOVERLAP>
45.919

> <PUBCHEM_SHAPE_FINGERPRINT>
10411042 1 16897366413833345299
10498660 4 18339931506087657532
10608611 8 18339080500913920792
10616163 171 18196096766301346382
10693767 8 17914036626182959879
10759866 29 18114468941846282556
10967382 1 18341337751283658842
1100329 8 17259066190774068080
11132069 177 18340766030854174856
11370993 70 18408881841077664605
11471102 20 18341894074034139540
12011746 2 18341056225010005524
12236239 1 17346883313112669249
12403259 415 18334300855333274037
12500047 106 18335418006059184910
12730499 353 18189050903139495765
12969540 114 18114443601322998061
13140716 1 18341337781432988722
13583140 156 17458068174564381928
14223421 5 18051415363991156602
14790565 3 18197508329010680945
15196674 1 18412829109275208723
15375358 24 18412824707186905456
15536298 74 18273219711776859568
16945 1 18270412576854984562
18186145 218 18412269414965078553
19591789 44 18411141359095812963
200 152 17704069582058503137
20645477 70 18202287987227751046
21033648 29 18334850632585549585
21267235 1 18341908389123402122
21279426 13 18267589000856264476
21521239 73 18201139006794258223
22182313 1 18199202848153279182
23227448 37 18337109085118258639
2334 1 18197784508175878242
23493267 7 18187359977912982712
23559900 14 18342177757088159994
238 59 17613114561562644381
25 1 18411413986650325181
2748010 2 18198913685121629650
335352 9 18340209579344482606
34934 24 18341327877275171138
350125 39 18051138291430004729
3545911 37 18340492261180739760
4028521 119 18410009940229347765
495365 180 17703496792498504976
5104073 3 18411422833935004139
633830 44 18341890732676307461
69090 78 18341332274931525907
8809292 202 18337116764404031530
9709674 26 18340211907079957454

> <PUBCHEM_SHAPE_MULTIPOLES>
417.53
8.22
2.84
0.88
0.29
1.03
0.02
-2.83
1.75
-0.02
-0.22
-0.49
-0.03
1.27

> <PUBCHEM_SHAPE_SELFOVERLAP>
944.117

> <PUBCHEM_SHAPE_VOLUME>
217

> <PUBCHEM_COORDINATE_TYPE>
2
5
10

$$$$
