5894846
  -OEChem-01171812263D

 44 47  0     0  0  0  0  0  0999 V2000
    1.0882   -1.9627   -0.3796 S   0  0  0  0  0  0  0  0  0  0  0  0
    2.5302   -3.8749    1.2974 S   0  0  0  0  0  0  0  0  0  0  0  0
    0.3562    4.2561   -0.1995 O   0  0  0  0  0  0  0  0  0  0  0  0
    0.6223   -1.8905   -1.7528 O   0  0  0  0  0  0  0  0  0  0  0  0
    0.1373   -1.9704    0.7178 O   0  0  0  0  0  0  0  0  0  0  0  0
   -6.9602   -0.7334   -0.3266 O   0  0  0  0  0  0  0  0  0  0  0  0
   -6.0353   -1.7166    1.5023 O   0  0  0  0  0  0  0  0  0  0  0  0
   -1.4021    2.2184   -0.6535 N   0  0  0  0  0  0  0  0  0  0  0  0
    2.2223   -0.8281   -0.0975 N   0  0  0  0  0  0  0  0  0  0  0  0
    2.7409    1.5687    0.1281 C   0  0  0  0  0  0  0  0  0  0  0  0
    2.2299    2.8675    0.0948 C   0  0  0  0  0  0  0  0  0  0  0  0
    1.8514    0.4150   -0.1068 C   0  0  0  0  0  0  0  0  0  0  0  0
   -0.0881    1.9377   -0.4102 C   0  0  0  0  0  0  0  0  0  0  0  0
    0.7983    3.1121   -0.1743 C   0  0  0  0  0  0  0  0  0  0  0  0
    0.4224    0.7009   -0.3739 C   0  0  0  0  0  0  0  0  0  0  0  0
    4.1031    1.3642    0.3862 C   0  0  0  0  0  0  0  0  0  0  0  0
    3.0796    3.9588    0.3190 C   0  0  0  0  0  0  0  0  0  0  0  0
   -2.5258    1.4405   -0.3535 C   0  0  0  0  0  0  0  0  0  0  0  0
    4.9453    2.4541    0.6093 C   0  0  0  0  0  0  0  0  0  0  0  0
    4.4345    3.7492    0.5758 C   0  0  0  0  0  0  0  0  0  0  0  0
    2.0044   -3.4752   -0.2767 C   0  0  0  0  0  0  0  0  0  0  0  0
   -2.5182    0.5807    0.7520 C   0  0  0  0  0  0  0  0  0  0  0  0
   -3.6712    1.5113   -1.1562 C   0  0  0  0  0  0  0  0  0  0  0  0
   -3.6380   -0.1959    1.0500 C   0  0  0  0  0  0  0  0  0  0  0  0
   -4.7911    0.7348   -0.8582 C   0  0  0  0  0  0  0  0  0  0  0  0
   -4.7744   -0.1188    0.2449 C   0  0  0  0  0  0  0  0  0  0  0  0
    2.3811   -4.3992   -1.2133 C   0  0  0  0  0  0  0  0  0  0  0  0
    3.1219   -5.4673   -0.6297 C   0  0  0  0  0  0  0  0  0  0  0  0
    3.2764   -5.3077    0.7298 C   0  0  0  0  0  0  0  0  0  0  0  0
   -5.9415   -0.9294    0.5549 C   0  0  0  0  0  0  0  0  0  0  0  0
   -0.2969   -0.0631   -0.6149 H   0  0  0  0  0  0  0  0  0  0  0  0
    4.5252    0.3632    0.4176 H   0  0  0  0  0  0  0  0  0  0  0  0
    2.7063    4.9792    0.2984 H   0  0  0  0  0  0  0  0  0  0  0  0
   -1.5936    3.1264   -1.0641 H   0  0  0  0  0  0  0  0  0  0  0  0
    6.0006    2.2919    0.8092 H   0  0  0  0  0  0  0  0  0  0  0  0
    5.0912    4.5967    0.7496 H   0  0  0  0  0  0  0  0  0  0  0  0
   -1.6642    0.5184    1.4214 H   0  0  0  0  0  0  0  0  0  0  0  0
   -3.6968    2.1718   -2.0197 H   0  0  0  0  0  0  0  0  0  0  0  0
   -3.6075   -0.8498    1.9177 H   0  0  0  0  0  0  0  0  0  0  0  0
   -5.6542    0.8254   -1.5117 H   0  0  0  0  0  0  0  0  0  0  0  0
    2.1441   -4.3241   -2.2666 H   0  0  0  0  0  0  0  0  0  0  0  0
    3.5213   -6.3099   -1.1791 H   0  0  0  0  0  0  0  0  0  0  0  0
    3.7919   -5.9639    1.4167 H   0  0  0  0  0  0  0  0  0  0  0  0
   -7.7424   -1.2840   -0.1086 H   0  0  0  0  0  0  0  0  0  0  0  0
  1  4  2  0  0  0  0
  1  5  2  0  0  0  0
  1  9  1  0  0  0  0
  1 21  1  0  0  0  0
  2 21  1  0  0  0  0
  2 29  1  0  0  0  0
  3 14  2  0  0  0  0
  6 30  1  0  0  0  0
  6 44  1  0  0  0  0
  7 30  2  0  0  0  0
  8 13  1  0  0  0  0
  8 18  1  0  0  0  0
  8 34  1  0  0  0  0
  9 12  2  0  0  0  0
 10 11  1  0  0  0  0
 10 12  1  0  0  0  0
 10 16  2  0  0  0  0
 11 14  1  0  0  0  0
 11 17  2  0  0  0  0
 12 15  1  0  0  0  0
 13 14  1  0  0  0  0
 13 15  2  0  0  0  0
 15 31  1  0  0  0  0
 16 19  1  0  0  0  0
 16 32  1  0  0  0  0
 17 20  1  0  0  0  0
 17 33  1  0  0  0  0
 18 22  2  0  0  0  0
 18 23  1  0  0  0  0
 19 20  2  0  0  0  0
 19 35  1  0  0  0  0
 20 36  1  0  0  0  0
 21 27  2  0  0  0  0
 22 24  1  0  0  0  0
 22 37  1  0  0  0  0
 23 25  2  0  0  0  0
 23 38  1  0  0  0  0
 24 26  2  0  0  0  0
 24 39  1  0  0  0  0
 25 26  1  0  0  0  0
 25 40  1  0  0  0  0
 26 30  1  0  0  0  0
 27 28  1  0  0  0  0
 27 41  1  0  0  0  0
 28 29  2  0  0  0  0
 28 42  1  0  0  0  0
 29 43  1  0  0  0  0
M  END
> <PUBCHEM_COMPOUND_CID>
5894846

> <PUBCHEM_CONFORMER_RMSD>
0.8

> <PUBCHEM_CONFORMER_DIVERSEORDER>
2
8
12
10
5
13
7
3
11
6
9
4
1

> <PUBCHEM_MMFF94_PARTIAL_CHARGES>
44
1 1.55
10 0.09
11 0.09
12 0.35
13 0.11
14 0.47
15 -0.14
16 -0.15
17 -0.15
18 0.1
19 -0.15
2 -0.08
20 -0.15
21 -0.02
22 -0.15
23 -0.15
24 -0.15
25 -0.15
26 0.09
27 -0.15
28 -0.15
29 -0.11
3 -0.57
30 0.63
31 0.15
32 0.15
33 0.15
34 0.4
35 0.15
36 0.15
37 0.15
38 0.15
39 0.15
4 -0.65
40 0.15
41 0.15
42 0.15
43 0.15
44 0.5
5 -0.65
6 -0.65
7 -0.57
8 -0.6
9 -0.64

> <PUBCHEM_EFFECTIVE_ROTOR_COUNT>
5

> <PUBCHEM_PHARMACOPHORE_FEATURES>
14
1 3 acceptor
1 4 acceptor
1 5 acceptor
1 6 acceptor
1 7 acceptor
1 8 cation
1 8 donor
1 9 acceptor
1 9 donor
3 6 7 30 anion
5 2 21 27 28 29 rings
6 10 11 12 13 14 15 rings
6 10 11 16 17 19 20 rings
6 18 22 23 24 25 26 rings

> <PUBCHEM_HEAVY_ATOM_COUNT>
30

> <PUBCHEM_ATOM_DEF_STEREO_COUNT>
0

> <PUBCHEM_ATOM_UDEF_STEREO_COUNT>
0

> <PUBCHEM_BOND_DEF_STEREO_COUNT>
1

> <PUBCHEM_BOND_UDEF_STEREO_COUNT>
0

> <PUBCHEM_ISOTOPIC_ATOM_COUNT>
0

> <PUBCHEM_COMPONENT_COUNT>
1

> <PUBCHEM_CACTVS_TAUTO_COUNT>
4

> <PUBCHEM_CONFORMER_ID>
0059F2BE00000002

> <PUBCHEM_MMFF94_ENERGY>
101.6455

> <PUBCHEM_FEATURE_SELFOVERLAP>
71.179

> <PUBCHEM_SHAPE_FINGERPRINT>
10050765 1 18338796707567889533
10074138 170 17692223637418409472
102385 1 18122627158821239780
10411042 1 17835516029534301182
11014199 57 17908423558944921210
11421498 54 17704083905732523945
11445158 3 17678167407142833596
11488393 25 18410013195677590402
11719270 70 18338231695154459977
11991303 11 17902522811321264012
12202916 173 17824252925057220363
12293681 25 17896344491880355867
12788726 201 16822490762232781112
13402501 40 18188207731918120041
13540713 4 18114740435561961013
138480 1 18195243321913233292
14347424 109 18269849627656061225
14790565 3 18194396934115125092
14844126 61 17038670162981099018
14863182 85 18335994171854407956
14866123 147 18123459751558491680
16114785 44 17551785250353348882
16728300 4 17607490645876520616
17138139 8 17126739292483270631
17909252 39 18337398123696148002
19319366 153 18129377258108251589
19611394 137 17976528413657548626
20028762 73 18126002899846140359
20101258 96 17620477909265956258
20609170 109 16740252945269998706
21133410 32 16303225767362567914
21197605 99 17977673331404757555
21796203 349 17981073849648511674
22224240 67 18127688438286885281
22440779 20 15476224600780547422
22956985 138 18263081033484809682
23558518 356 17109587022607087864
23559900 14 18120643644159953677
255183 313 18120916559531061848
283562 15 15887150097413464132
3178227 256 18411420643992578720
4403749 210 17833261296389984057
4461854 278 17687205483323952315
5265222 85 18118974826006722420
5309563 4 18267868277026185350
58260988 647 16771580376697713244
613672 6 17834376939835860959
6669772 16 18271249421658502028
6673363 416 17909843033976474118
6679774 75 18188195599199856170
6700243 42 17053325631162882782
86090 222 18339094773470008036
9777508 108 17548972716547196328

> <PUBCHEM_SHAPE_MULTIPOLES>
585.78
11.59
7.81
1.12
21.52
6.49
-0.02
2.74
2.37
-15.16
0.09
0.36
0.78
1.83

> <PUBCHEM_SHAPE_SELFOVERLAP>
1274.065

> <PUBCHEM_SHAPE_VOLUME>
318.4

> <PUBCHEM_COORDINATE_TYPE>
2
5
10

$$$$
