3155999
  -OEChem-01171812213D

 50 53  0     0  0  0  0  0  0999 V2000
   -0.5716    0.7927    0.5404 O   0  0  0  0  0  0  0  0  0  0  0  0
    2.6709   -0.3887   -2.1753 O   0  0  0  0  0  0  0  0  0  0  0  0
    0.3294   -1.6199   -1.0670 O   0  0  0  0  0  0  0  0  0  0  0  0
   -3.8048   -2.0617   -0.7780 O   0  0  0  0  0  0  0  0  0  0  0  0
   -2.3796   -0.6500   -1.8879 O   0  0  0  0  0  0  0  0  0  0  0  0
    5.1230    1.4579   -0.7005 N   0  0  0  0  0  0  0  0  0  0  0  0
    1.6996   -3.1204    1.6659 N   0  0  0  0  0  0  0  0  0  0  0  0
    4.6890    0.7335   -1.7599 N   0  0  0  0  0  0  0  0  0  0  0  0
    0.9467   -3.2107    0.5433 N   0  0  0  0  0  0  0  0  0  0  0  0
    1.8064    0.4473    0.5815 C   0  0  0  0  0  0  0  0  0  0  0  0
    3.0831    0.7622   -0.0947 C   0  0  0  0  0  0  0  0  0  0  0  0
    1.6624   -1.0331    0.8570 C   0  0  0  0  0  0  0  0  0  0  0  0
    0.5686    1.0343   -0.1051 C   0  0  0  0  0  0  0  0  0  0  0  0
    4.1771    1.4438    0.2891 C   0  0  0  0  0  0  0  0  0  0  0  0
    2.0931   -1.8229    1.8568 C   0  0  0  0  0  0  0  0  0  0  0  0
    3.4115    0.2793   -1.4739 C   0  0  0  0  0  0  0  0  0  0  0  0
    0.8904   -1.9538   -0.0372 C   0  0  0  0  0  0  0  0  0  0  0  0
    0.4394    1.7400   -1.2293 C   0  0  0  0  0  0  0  0  0  0  0  0
   -1.5218    1.3899   -0.2259 C   0  0  0  0  0  0  0  0  0  0  0  0
   -0.9508    1.9864   -1.3259 C   0  0  0  0  0  0  0  0  0  0  0  0
    4.4457    2.1097    1.5913 C   0  0  0  0  0  0  0  0  0  0  0  0
    2.8729   -1.4472    3.0657 C   0  0  0  0  0  0  0  0  0  0  0  0
   -2.8676    1.2735    0.2605 C   0  0  0  0  0  0  0  0  0  0  0  0
   -3.6909    0.2035   -0.1100 C   0  0  0  0  0  0  0  0  0  0  0  0
   -3.3667    2.2542    1.1255 C   0  0  0  0  0  0  0  0  0  0  0  0
   -4.9947    0.1157    0.3780 C   0  0  0  0  0  0  0  0  0  0  0  0
   -4.6706    2.1665    1.6132 C   0  0  0  0  0  0  0  0  0  0  0  0
   -5.4846    1.0973    1.2394 C   0  0  0  0  0  0  0  0  0  0  0  0
   -3.2191   -0.8434   -1.0096 C   0  0  0  0  0  0  0  0  0  0  0  0
   -3.3865   -3.1362   -1.6274 C   0  0  0  0  0  0  0  0  0  0  0  0
    1.8135    0.9406    1.5636 H   0  0  0  0  0  0  0  0  0  0  0  0
    1.2010    2.0696   -1.9201 H   0  0  0  0  0  0  0  0  0  0  0  0
    6.0983    1.6681   -0.5436 H   0  0  0  0  0  0  0  0  0  0  0  0
    1.6750   -3.8146    2.3989 H   0  0  0  0  0  0  0  0  0  0  0  0
    5.2556    0.6180   -2.5894 H   0  0  0  0  0  0  0  0  0  0  0  0
    0.5533   -4.0912    0.2395 H   0  0  0  0  0  0  0  0  0  0  0  0
   -1.4677    2.5331   -2.1022 H   0  0  0  0  0  0  0  0  0  0  0  0
    3.5986    2.0450    2.2792 H   0  0  0  0  0  0  0  0  0  0  0  0
    4.6639    3.1715    1.4363 H   0  0  0  0  0  0  0  0  0  0  0  0
    5.3098    1.6500    2.0821 H   0  0  0  0  0  0  0  0  0  0  0  0
    3.8256   -1.9861    3.0868 H   0  0  0  0  0  0  0  0  0  0  0  0
    2.3148   -1.6984    3.9735 H   0  0  0  0  0  0  0  0  0  0  0  0
    3.0946   -0.3770    3.0971 H   0  0  0  0  0  0  0  0  0  0  0  0
   -2.7471    3.0954    1.4287 H   0  0  0  0  0  0  0  0  0  0  0  0
   -5.6587   -0.6972    0.0957 H   0  0  0  0  0  0  0  0  0  0  0  0
   -5.0524    2.9309    2.2835 H   0  0  0  0  0  0  0  0  0  0  0  0
   -6.5007    1.0311    1.6171 H   0  0  0  0  0  0  0  0  0  0  0  0
   -3.6190   -2.9057   -2.6713 H   0  0  0  0  0  0  0  0  0  0  0  0
   -3.9366   -4.0344   -1.3347 H   0  0  0  0  0  0  0  0  0  0  0  0
   -2.3158   -3.3224   -1.5005 H   0  0  0  0  0  0  0  0  0  0  0  0
  1 13  1  0  0  0  0
  1 19  1  0  0  0  0
  2 16  2  0  0  0  0
  3 17  2  0  0  0  0
  4 29  1  0  0  0  0
  4 30  1  0  0  0  0
  5 29  2  0  0  0  0
  6  8  1  0  0  0  0
  6 14  1  0  0  0  0
  6 33  1  0  0  0  0
  7  9  1  0  0  0  0
  7 15  1  0  0  0  0
  7 34  1  0  0  0  0
  8 16  1  0  0  0  0
  8 35  1  0  0  0  0
  9 17  1  0  0  0  0
  9 36  1  0  0  0  0
 10 11  1  0  0  0  0
 10 12  1  0  0  0  0
 10 13  1  0  0  0  0
 10 31  1  0  0  0  0
 11 14  2  0  0  0  0
 11 16  1  0  0  0  0
 12 15  2  0  0  0  0
 12 17  1  0  0  0  0
 13 18  2  0  0  0  0
 14 21  1  0  0  0  0
 15 22  1  0  0  0  0
 18 20  1  0  0  0  0
 18 32  1  0  0  0  0
 19 20  2  0  0  0  0
 19 23  1  0  0  0  0
 20 37  1  0  0  0  0
 21 38  1  0  0  0  0
 21 39  1  0  0  0  0
 21 40  1  0  0  0  0
 22 41  1  0  0  0  0
 22 42  1  0  0  0  0
 22 43  1  0  0  0  0
 23 24  1  0  0  0  0
 23 25  2  0  0  0  0
 24 26  2  0  0  0  0
 24 29  1  0  0  0  0
 25 27  1  0  0  0  0
 25 44  1  0  0  0  0
 26 28  1  0  0  0  0
 26 45  1  0  0  0  0
 27 28  2  0  0  0  0
 27 46  1  0  0  0  0
 28 47  1  0  0  0  0
 30 48  1  0  0  0  0
 30 49  1  0  0  0  0
 30 50  1  0  0  0  0
M  END
> <PUBCHEM_COMPOUND_CID>
3155999

> <PUBCHEM_CONFORMER_RMSD>
1

> <PUBCHEM_CONFORMER_DIVERSEORDER>
1
342
205
302
184
522
23
383
55
566
144
300
350
560
326
68
237
27
542
121
372
308
427
534
167
489
69
164
513
254
204
340
313
557
567
545
503
136
385
159
568
72
106
85
42
51
550
477
48
187
311
107
66
558
374
105
124
172
479
341
273
531
352
353
67
530
511
482
226
241
469
12
520
52
160
218
247
433
315
333
259
430
525
34
125
191
267
236
49
571
109
127
7
221
168
420
148
31
325
20
8
98
145
13
371
162
86
46
88
365
130
280
24
400
118
444
99
110
89
73
115
37
305
509
572
97
28
194
158
87
59
29
439
180
6
351
65
252
140
4
119
532
279
57
63
245
228
388
47
17
45
41
128
18
40
251
519
275
22
36
410
25
2
93
211
474
181
114
79
32
149
71
26
135
11
54
133
123
9
402
139
78
5
44
202
3
296
174
134
287
75
142
290
82

> <PUBCHEM_MMFF94_PARTIAL_CHARGES>
40
1 -0.28
10 0.46
11 -0.12
12 -0.12
13 -0.04
14 -0.04
15 -0.04
16 0.62
17 0.62
18 -0.15
19 0.09
2 -0.57
20 -0.15
21 0.14
22 0.14
23 0.05
24 0.09
25 -0.15
26 -0.15
27 -0.15
28 -0.15
29 0.63
3 -0.57
30 0.28
32 0.15
33 0.4
34 0.4
35 0.37
36 0.37
37 0.15
4 -0.43
44 0.15
45 0.15
46 0.15
47 0.15
5 -0.57
6 -0.52
7 -0.52
8 -0.41
9 -0.41

> <PUBCHEM_EFFECTIVE_ROTOR_COUNT>
6

> <PUBCHEM_PHARMACOPHORE_FEATURES>
12
1 1 acceptor
1 2 acceptor
1 3 acceptor
1 5 acceptor
1 6 donor
1 7 donor
1 8 donor
1 9 donor
5 1 13 18 19 20 rings
5 6 8 11 14 16 rings
5 7 9 12 15 17 rings
6 23 24 25 26 27 28 rings

> <PUBCHEM_HEAVY_ATOM_COUNT>
30

> <PUBCHEM_ATOM_DEF_STEREO_COUNT>
0

> <PUBCHEM_ATOM_UDEF_STEREO_COUNT>
0

> <PUBCHEM_BOND_DEF_STEREO_COUNT>
0

> <PUBCHEM_BOND_UDEF_STEREO_COUNT>
0

> <PUBCHEM_ISOTOPIC_ATOM_COUNT>
0

> <PUBCHEM_COMPONENT_COUNT>
1

> <PUBCHEM_CACTVS_TAUTO_COUNT>
15

> <PUBCHEM_CONFORMER_ID>
0030281F00000001

> <PUBCHEM_MMFF94_ENERGY>
89.4537

> <PUBCHEM_FEATURE_SELFOVERLAP>
64.138

> <PUBCHEM_SHAPE_FINGERPRINT>
10090160 65 17458064880535176072
10369192 42 16299826154749608990
10382601 240 18261961751594848171
12166972 35 10087634858655556221
12553582 1 18410849941617698869
12788726 201 17323253970417721578
13140716 1 17824278204538826841
13224815 77 18336259063787866717
13911987 19 16805900592027075196
14787075 74 17983287415800230760
14790565 3 18188223111806000452
14840074 17 18187652409594248285
14863182 85 17749682809130789106
15238133 3 17273412773054174817
15537594 2 18334019397652269161
161222 10 18263378034335753670
17349148 13 17168140139759026408
20511986 3 18335127684035770865
20739085 24 18114749222057200404
21033648 29 15985097492808324353
21421861 104 18117846503400214473
21796203 349 17614587846540114250
22956985 138 17315345935062294234
23558518 356 17979637062876147312
23559900 14 17416694531384864637
23566358 27 18264491689327900702
23569914 2 16626542615976324456
244849 19 16343695578019225226
392239 28 18127401478668274937
427121 178 18408889534055402616
4409770 3 15093388507490215445
460360 51 17971467395545818277
469060 322 17822842203903461533
59755656 520 18334019419306525366
613672 6 16052050204888008023

> <PUBCHEM_SHAPE_MULTIPOLES>
568.12
10.46
3.26
2.17
3.81
2.31
0.54
-4.41
1.48
0.61
0.52
-1.39
0.66
-2.83

> <PUBCHEM_SHAPE_SELFOVERLAP>
1261.168

> <PUBCHEM_SHAPE_VOLUME>
306.9

> <PUBCHEM_COORDINATE_TYPE>
2
5
10

$$$$
