341543
  -OEChem-01171812263D

 21 22  0     0  0  0  0  0  0999 V2000
   -4.5530   -0.2430    0.2140 Cl  0  0  0  0  0  0  0  0  0  0  0  0
    3.4763    0.0698   -0.3182 O   0  0  0  0  0  0  0  0  0  0  0  0
    1.6518    2.1622   -0.2160 O   0  0  0  0  0  0  0  0  0  0  0  0
   -0.2352   -2.8326   -0.0495 O   0  0  0  0  0  0  0  0  0  0  0  0
   -2.0378   -0.8465    0.0533 N   0  0  0  0  0  0  0  0  0  0  0  0
   -0.2338    0.7598   -0.0790 C   0  0  0  0  0  0  0  0  0  0  0  0
   -0.7245   -0.5355   -0.0359 C   0  0  0  0  0  0  0  0  0  0  0  0
    1.2127    1.0193   -0.1766 C   0  0  0  0  0  0  0  0  0  0  0  0
    2.1182   -0.1561   -0.2267 C   0  0  0  0  0  0  0  0  0  0  0  0
    0.1887   -1.6844   -0.0869 C   0  0  0  0  0  0  0  0  0  0  0  0
    1.6366   -1.4039   -0.1848 C   0  0  0  0  0  0  0  0  0  0  0  0
   -1.1503    1.8086   -0.0275 C   0  0  0  0  0  0  0  0  0  0  0  0
   -2.5095    1.5248    0.0645 C   0  0  0  0  0  0  0  0  0  0  0  0
   -2.8979    0.1949    0.1013 C   0  0  0  0  0  0  0  0  0  0  0  0
    4.0575    0.1626    0.9678 C   0  0  0  0  0  0  0  0  0  0  0  0
    2.3007   -2.2614   -0.2231 H   0  0  0  0  0  0  0  0  0  0  0  0
   -0.8268    2.8451   -0.0575 H   0  0  0  0  0  0  0  0  0  0  0  0
   -3.2336    2.3318    0.1055 H   0  0  0  0  0  0  0  0  0  0  0  0
    3.9545   -0.7779    1.5203 H   0  0  0  0  0  0  0  0  0  0  0  0
    3.6234    0.9865    1.5451 H   0  0  0  0  0  0  0  0  0  0  0  0
    5.1258    0.3646    0.8451 H   0  0  0  0  0  0  0  0  0  0  0  0
  1 14  1  0  0  0  0
  2  9  1  0  0  0  0
  2 15  1  0  0  0  0
  3  8  2  0  0  0  0
  4 10  2  0  0  0  0
  5  7  1  0  0  0  0
  5 14  2  0  0  0  0
  6  7  2  0  0  0  0
  6  8  1  0  0  0  0
  6 12  1  0  0  0  0
  7 10  1  0  0  0  0
  8  9  1  0  0  0  0
  9 11  2  0  0  0  0
 10 11  1  0  0  0  0
 11 16  1  0  0  0  0
 12 13  2  0  0  0  0
 12 17  1  0  0  0  0
 13 14  1  0  0  0  0
 13 18  1  0  0  0  0
 15 19  1  0  0  0  0
 15 20  1  0  0  0  0
 15 21  1  0  0  0  0
M  END
> <PUBCHEM_COMPOUND_CID>
341543

> <PUBCHEM_CONFORMER_RMSD>
0.4

> <PUBCHEM_CONFORMER_DIVERSEORDER>
2
1

> <PUBCHEM_MMFF94_PARTIAL_CHARGES>
18
1 -0.18
10 0.47
11 -0.14
12 -0.15
13 -0.15
14 0.49
15 0.28
16 0.15
17 0.15
18 0.15
2 -0.36
3 -0.57
4 -0.57
5 -0.62
6 0.09
7 0.4
8 0.47
9 0.09

> <PUBCHEM_EFFECTIVE_ROTOR_COUNT>
1

> <PUBCHEM_PHARMACOPHORE_FEATURES>
6
1 2 acceptor
1 3 acceptor
1 4 acceptor
1 5 acceptor
6 5 6 7 12 13 14 rings
6 6 7 8 9 10 11 rings

> <PUBCHEM_HEAVY_ATOM_COUNT>
15

> <PUBCHEM_ATOM_DEF_STEREO_COUNT>
0

> <PUBCHEM_ATOM_UDEF_STEREO_COUNT>
0

> <PUBCHEM_BOND_DEF_STEREO_COUNT>
0

> <PUBCHEM_BOND_UDEF_STEREO_COUNT>
0

> <PUBCHEM_ISOTOPIC_ATOM_COUNT>
0

> <PUBCHEM_COMPONENT_COUNT>
1

> <PUBCHEM_CACTVS_TAUTO_COUNT>
1

> <PUBCHEM_CONFORMER_ID>
0005362700000002

> <PUBCHEM_MMFF94_ENERGY>
41.7376

> <PUBCHEM_FEATURE_SELFOVERLAP>
30.486

> <PUBCHEM_SHAPE_FINGERPRINT>
10967382 1 18410577283702184791
11132069 177 18342738533149936483
11471102 20 18338233765692264853
11806522 49 18412823599386030039
12251169 10 18336258033433539752
12382932 28 18267300924335660000
13140716 1 18194118740281899426
13380535 76 18410294709261702307
14178342 30 18195526987044249072
14251717 144 18411699894239150135
14614273 12 18116427051332310429
15196674 1 18338800005005078773
15309172 13 18411143515047537171
15536298 74 18200595778660973814
15775835 57 18131632274820682491
16945 1 18410300215351376830
17846911 113 18412258437091850178
1813 80 16879064141156884202
193761 8 17834397104490433509
200 152 18201428174073408141
20201158 50 18408325462777640419
20510252 161 18273215261758705416
20645476 183 17606138396180435358
21267235 1 18410303488148364670
21501502 16 18193558853004052801
2334 1 17834398199786286766
23402539 116 18342164600901888071
23402655 69 18268982104133510749
23463225 33 18261954029655015706
23559900 14 18271533070189435428
2748010 2 18194686960271008102
4072396 5 18189881063765618307
43471831 8 18335981948150590962
5104073 3 18267306435047460499
528886 8 18411134736250532515
53655031 270 18411138026364208321
53812653 166 18343297055123899192
54173680 148 18192996139005379066
69090 78 18060413642440782671
7364860 26 17982731866064845958
8809292 202 18114752632699317579

> <PUBCHEM_SHAPE_MULTIPOLES>
287.97
6.17
2.17
0.68
1.11
0.54
0.07
-0.51
1.17
-0.01
-0.13
-0.25
-0.03
0.07

> <PUBCHEM_SHAPE_SELFOVERLAP>
619.885

> <PUBCHEM_SHAPE_VOLUME>
160

> <PUBCHEM_COORDINATE_TYPE>
2
5
10

$$$$
