992586
  -OEChem-01171812243D

 41 43  0     0  0  0  0  0  0999 V2000
    3.6881   -1.4812   -3.8580 Br  0  0  0  0  0  0  0  0  0  0  0  0
    1.0018   -1.9499    1.9598 S   0  0  0  0  0  0  0  0  0  0  0  0
   -3.6775    0.8688    0.1719 S   0  0  0  0  0  0  0  0  0  0  0  0
   -1.9951    3.0414   -1.0901 O   0  0  0  0  0  0  0  0  0  0  0  0
    1.9895   -2.5595    2.8306 O   0  0  0  0  0  0  0  0  0  0  0  0
   -0.2981   -2.5723    1.7980 O   0  0  0  0  0  0  0  0  0  0  0  0
   -5.2015   -2.6201   -0.6330 O   0  0  0  0  0  0  0  0  0  0  0  0
   -5.9663   -0.5250   -1.0697 O   0  0  0  0  0  0  0  0  0  0  0  0
    0.8162   -0.2982    2.4018 N   0  0  0  0  0  0  0  0  0  0  0  0
    0.8053    1.6320    0.8463 C   0  0  0  0  0  0  0  0  0  0  0  0
    0.1366    0.5828    1.4976 C   0  0  0  0  0  0  0  0  0  0  0  0
    0.0835    2.4710   -0.0357 C   0  0  0  0  0  0  0  0  0  0  0  0
   -1.2243    0.3639    1.2823 C   0  0  0  0  0  0  0  0  0  0  0  0
   -1.2859    2.2361   -0.2404 C   0  0  0  0  0  0  0  0  0  0  0  0
   -1.9343    1.1890    0.4150 C   0  0  0  0  0  0  0  0  0  0  0  0
    2.1748    1.8670    1.0510 C   0  0  0  0  0  0  0  0  0  0  0  0
    1.7419   -1.8199    0.3573 C   0  0  0  0  0  0  0  0  0  0  0  0
    0.7523    3.5203   -0.6870 C   0  0  0  0  0  0  0  0  0  0  0  0
    2.8231    2.9140    0.3954 C   0  0  0  0  0  0  0  0  0  0  0  0
    2.1132    3.7391   -0.4718 C   0  0  0  0  0  0  0  0  0  0  0  0
    3.1201   -1.7824    0.2533 C   0  0  0  0  0  0  0  0  0  0  0  0
    0.9261   -1.7595   -0.7578 C   0  0  0  0  0  0  0  0  0  0  0  0
    3.7032   -1.6810   -1.0097 C   0  0  0  0  0  0  0  0  0  0  0  0
    1.5091   -1.6583   -2.0209 C   0  0  0  0  0  0  0  0  0  0  0  0
   -3.6473   -0.8221   -0.4836 C   0  0  0  0  0  0  0  0  0  0  0  0
    2.8978   -1.6190   -2.1469 C   0  0  0  0  0  0  0  0  0  0  0  0
   -5.0522   -1.2770   -0.7561 C   0  0  0  0  0  0  0  0  0  0  0  0
    1.5599    0.1187    2.9741 H   0  0  0  0  0  0  0  0  0  0  0  0
   -1.7352   -0.4299    1.8217 H   0  0  0  0  0  0  0  0  0  0  0  0
    2.7752    1.2479    1.7120 H   0  0  0  0  0  0  0  0  0  0  0  0
    0.2455    4.2054   -1.3608 H   0  0  0  0  0  0  0  0  0  0  0  0
    3.8829    3.0845    0.5612 H   0  0  0  0  0  0  0  0  0  0  0  0
    2.6184    4.5560   -0.9790 H   0  0  0  0  0  0  0  0  0  0  0  0
    3.7637   -1.8203    1.1265 H   0  0  0  0  0  0  0  0  0  0  0  0
   -0.1563   -1.7912   -0.6824 H   0  0  0  0  0  0  0  0  0  0  0  0
    4.7867   -1.6489   -1.0904 H   0  0  0  0  0  0  0  0  0  0  0  0
    0.8671   -1.6107   -2.8967 H   0  0  0  0  0  0  0  0  0  0  0  0
   -1.4337    3.3084   -1.8355 H   0  0  0  0  0  0  0  0  0  0  0  0
   -3.1986   -1.4902    0.2571 H   0  0  0  0  0  0  0  0  0  0  0  0
   -3.0737   -0.8657   -1.4137 H   0  0  0  0  0  0  0  0  0  0  0  0
   -6.1214   -2.9049   -0.8202 H   0  0  0  0  0  0  0  0  0  0  0  0
  1 26  1  0  0  0  0
  2  5  2  0  0  0  0
  2  6  2  0  0  0  0
  2  9  1  0  0  0  0
  2 17  1  0  0  0  0
  3 15  1  0  0  0  0
  3 25  1  0  0  0  0
  4 14  1  0  0  0  0
  4 38  1  0  0  0  0
  7 27  1  0  0  0  0
  7 41  1  0  0  0  0
  8 27  2  0  0  0  0
  9 11  1  0  0  0  0
  9 28  1  0  0  0  0
 10 11  1  0  0  0  0
 10 12  1  0  0  0  0
 10 16  2  0  0  0  0
 11 13  2  0  0  0  0
 12 14  1  0  0  0  0
 12 18  2  0  0  0  0
 13 15  1  0  0  0  0
 13 29  1  0  0  0  0
 14 15  2  0  0  0  0
 16 19  1  0  0  0  0
 16 30  1  0  0  0  0
 17 21  2  0  0  0  0
 17 22  1  0  0  0  0
 18 20  1  0  0  0  0
 18 31  1  0  0  0  0
 19 20  2  0  0  0  0
 19 32  1  0  0  0  0
 20 33  1  0  0  0  0
 21 23  1  0  0  0  0
 21 34  1  0  0  0  0
 22 24  2  0  0  0  0
 22 35  1  0  0  0  0
 23 26  2  0  0  0  0
 23 36  1  0  0  0  0
 24 26  1  0  0  0  0
 24 37  1  0  0  0  0
 25 27  1  0  0  0  0
 25 39  1  0  0  0  0
 25 40  1  0  0  0  0
M  END
> <PUBCHEM_COMPOUND_CID>
992586

> <PUBCHEM_CONFORMER_RMSD>
0.8

> <PUBCHEM_CONFORMER_DIVERSEORDER>
1
165
157
107
127
150
155
174
158
40
8
91
122
12
168
167
132
86
138
183
99
140
108
126
145
164
5
23
182
123
152
166
143
69
162
62
170
93
175
146
125
148
186
154
4
176
70
61
87
2
172
149
134
119
97
159
161
114
188
65
22
124
184
131
24
117
179
173
133
43
29
153
104
106
55
73
90
85
7
178
9
26
100
120
79
98
3
116
141
6
181
163
89
137
121
115
136
81
135
156
105
169
72
180
57
54
76
58
63
139
10
151
46
185
88
95
64
15
118
112
92
20
35
56
187
49
102
14
110
41
80
94
103
11
177
52
33
101
142
66
39
129
34
96
77
84
60
109
144
59
21
128
78
111
113
31
16
68
47
25
171
30
19
37
48
44
32
74
28
160
36
75
17
13
71
50
53
42
51
83
147
18
130
45
82
27
67
38

> <PUBCHEM_MMFF94_PARTIAL_CHARGES>
37
1 -0.11
11 0.2
13 -0.15
14 0.08
15 0.1
16 -0.15
17 -0.01
18 -0.15
19 -0.15
2 1.45
20 -0.15
21 -0.15
22 -0.15
23 -0.15
24 -0.15
25 0.29
26 0.11
27 0.66
28 0.42
29 0.15
3 -0.33
30 0.15
31 0.15
32 0.15
33 0.15
34 0.15
35 0.15
36 0.15
37 0.15
38 0.45
4 -0.53
41 0.5
5 -0.65
6 -0.65
7 -0.65
8 -0.57
9 -0.76

> <PUBCHEM_EFFECTIVE_ROTOR_COUNT>
6

> <PUBCHEM_PHARMACOPHORE_FEATURES>
11
1 1 hydrophobe
1 4 donor
1 5 acceptor
1 6 acceptor
1 7 acceptor
1 8 acceptor
1 9 donor
3 7 8 27 anion
6 10 11 12 13 14 15 rings
6 10 12 16 18 19 20 rings
6 17 21 22 23 24 26 rings

> <PUBCHEM_HEAVY_ATOM_COUNT>
27

> <PUBCHEM_ATOM_DEF_STEREO_COUNT>
0

> <PUBCHEM_ATOM_UDEF_STEREO_COUNT>
0

> <PUBCHEM_BOND_DEF_STEREO_COUNT>
0

> <PUBCHEM_BOND_UDEF_STEREO_COUNT>
0

> <PUBCHEM_ISOTOPIC_ATOM_COUNT>
0

> <PUBCHEM_COMPONENT_COUNT>
1

> <PUBCHEM_CACTVS_TAUTO_COUNT>
3

> <PUBCHEM_CONFORMER_ID>
000F254A00000001

> <PUBCHEM_MMFF94_ENERGY>
69.5563

> <PUBCHEM_FEATURE_SELFOVERLAP>
55.923

> <PUBCHEM_SHAPE_FINGERPRINT>
11477941 20 17549595818149958884
11488393 25 18127144179972983890
12422481 6 17914301767308989586
12553582 1 18263921030445831411
12596599 1 17915467098988446339
12788726 201 17686920322784947672
13149001 5 18119000024526483290
13383661 66 16548091697103867598
133893 2 18196679442823319649
14863182 85 17845362413684571058
15484559 13 17902784499030441405
15664445 248 18339641144538657823
17492 54 18338814397983865676
17909252 39 17917724542415655462
19319366 153 16956203574410785497
20567600 347 18124877012676344037
20600515 1 17699561442471275224
20691752 17 18186524302132049177
20775438 99 18198057186897017935
20905425 154 18337657634136500824
21344244 246 18057901306222584252
23419403 2 17760696724137733666
23557571 272 17117454595259828128
23559900 14 18059570261894552757
23598288 3 17394730571249607689
238 59 18266190602327908308
4112364 45 13840550730191253469
4280585 95 18340201882457483542
469060 322 17771935769073374774
5081480 168 18124344776519645271
6669772 16 18116149064111604696
6823239 73 18201153270027401519

> <PUBCHEM_SHAPE_MULTIPOLES>
534.96
7.85
4.6
2.73
11.36
3.54
0.16
-6.6
5.86
-1.61
0.81
-3.04
-2.33
0.53

> <PUBCHEM_SHAPE_SELFOVERLAP>
1121.493

> <PUBCHEM_SHAPE_VOLUME>
309.3

> <PUBCHEM_COORDINATE_TYPE>
2
5
10

$$$$
