1818715
  -OEChem-01171812193D

 34 38  0     0  0  0  0  0  0999 V2000
    6.0571    1.8273    0.1137 Cl  0  0  0  0  0  0  0  0  0  0  0  0
   -0.3419   -3.6384   -0.0423 S   0  0  0  0  0  0  0  0  0  0  0  0
   -0.2317   -1.0236   -0.0443 N   0  0  0  0  0  0  0  0  0  0  0  0
   -2.4594   -2.0181    0.0240 N   0  0  0  0  0  0  0  0  0  0  0  0
   -0.7652    0.3049   -0.0619 C   0  0  0  0  0  0  0  0  0  0  0  0
   -2.1849    0.4302   -0.0064 C   0  0  0  0  0  0  0  0  0  0  0  0
    1.0892   -1.4972   -0.0509 C   0  0  0  0  0  0  0  0  0  0  0  0
   -3.0086   -0.7187    0.0422 C   0  0  0  0  0  0  0  0  0  0  0  0
   -2.7969    1.7089   -0.0032 C   0  0  0  0  0  0  0  0  0  0  0  0
   -1.1685   -2.0637   -0.0167 C   0  0  0  0  0  0  0  0  0  0  0  0
   -0.0046    1.4775   -0.1375 C   0  0  0  0  0  0  0  0  0  0  0  0
    2.3024   -0.6852   -0.0107 C   0  0  0  0  0  0  0  0  0  0  0  0
    1.2062   -2.8402   -0.0532 C   0  0  0  0  0  0  0  0  0  0  0  0
   -1.9956    2.8524   -0.0658 C   0  0  0  0  0  0  0  0  0  0  0  0
   -4.4008   -0.5878    0.1015 C   0  0  0  0  0  0  0  0  0  0  0  0
   -4.1948    1.8135    0.0587 C   0  0  0  0  0  0  0  0  0  0  0  0
   -0.6122    2.7351   -0.1368 C   0  0  0  0  0  0  0  0  0  0  0  0
   -4.9909    0.6719    0.1118 C   0  0  0  0  0  0  0  0  0  0  0  0
    2.9255   -0.2873   -1.1987 C   0  0  0  0  0  0  0  0  0  0  0  0
    2.8525   -0.2979    1.2162 C   0  0  0  0  0  0  0  0  0  0  0  0
    4.0844    0.4881   -1.1603 C   0  0  0  0  0  0  0  0  0  0  0  0
    4.0113    0.4777    1.2545 C   0  0  0  0  0  0  0  0  0  0  0  0
    4.6274    0.8706    0.0663 C   0  0  0  0  0  0  0  0  0  0  0  0
    1.0735    1.4740   -0.1971 H   0  0  0  0  0  0  0  0  0  0  0  0
    2.1330   -3.3983   -0.0456 H   0  0  0  0  0  0  0  0  0  0  0  0
   -2.4397    3.8453   -0.0658 H   0  0  0  0  0  0  0  0  0  0  0  0
   -5.0329   -1.4718    0.1388 H   0  0  0  0  0  0  0  0  0  0  0  0
   -4.6778    2.7885    0.0637 H   0  0  0  0  0  0  0  0  0  0  0  0
    0.0026    3.6295   -0.1916 H   0  0  0  0  0  0  0  0  0  0  0  0
   -6.0719    0.7654    0.1582 H   0  0  0  0  0  0  0  0  0  0  0  0
    2.5144   -0.5754   -2.1635 H   0  0  0  0  0  0  0  0  0  0  0  0
    2.3840   -0.5943    2.1519 H   0  0  0  0  0  0  0  0  0  0  0  0
    4.5532    0.7875   -2.0942 H   0  0  0  0  0  0  0  0  0  0  0  0
    4.4227    0.7688    2.2175 H   0  0  0  0  0  0  0  0  0  0  0  0
  1 23  1  0  0  0  0
  2 10  1  0  0  0  0
  2 13  1  0  0  0  0
  3  5  1  0  0  0  0
  3  7  1  0  0  0  0
  3 10  1  0  0  0  0
  4  8  1  0  0  0  0
  4 10  2  0  0  0  0
  5  6  1  0  0  0  0
  5 11  2  0  0  0  0
  6  8  1  0  0  0  0
  6  9  2  0  0  0  0
  7 12  1  0  0  0  0
  7 13  2  0  0  0  0
  8 15  2  0  0  0  0
  9 14  1  0  0  0  0
  9 16  1  0  0  0  0
 11 17  1  0  0  0  0
 11 24  1  0  0  0  0
 12 19  2  0  0  0  0
 12 20  1  0  0  0  0
 13 25  1  0  0  0  0
 14 17  2  0  0  0  0
 14 26  1  0  0  0  0
 15 18  1  0  0  0  0
 15 27  1  0  0  0  0
 16 18  2  0  0  0  0
 16 28  1  0  0  0  0
 17 29  1  0  0  0  0
 18 30  1  0  0  0  0
 19 21  1  0  0  0  0
 19 31  1  0  0  0  0
 20 22  2  0  0  0  0
 20 32  1  0  0  0  0
 21 23  2  0  0  0  0
 21 33  1  0  0  0  0
 22 23  1  0  0  0  0
 22 34  1  0  0  0  0
M  END
> <PUBCHEM_COMPOUND_CID>
1818715

> <PUBCHEM_CONFORMER_RMSD>
0.6

> <PUBCHEM_CONFORMER_DIVERSEORDER>
1

> <PUBCHEM_MMFF94_PARTIAL_CHARGES>
32
1 -0.18
10 0.64
11 -0.15
12 0.03
13 -0.05
14 -0.15
15 -0.15
16 -0.15
17 -0.15
18 -0.15
19 -0.15
2 -0.24
20 -0.15
21 -0.15
22 -0.15
23 0.18
24 0.15
25 0.15
26 0.15
27 0.15
28 0.15
29 0.15
3 -0.25
30 0.15
31 0.15
32 0.15
33 0.15
34 0.15
4 -0.63
5 0.1
7 0.07
8 0.18

> <PUBCHEM_EFFECTIVE_ROTOR_COUNT>
1.2

> <PUBCHEM_PHARMACOPHORE_FEATURES>
6
3 3 4 10 cation
5 2 3 7 10 13 rings
6 12 19 20 21 22 23 rings
6 3 4 5 6 8 10 rings
6 5 6 9 11 14 17 rings
6 6 8 9 15 16 18 rings

> <PUBCHEM_HEAVY_ATOM_COUNT>
23

> <PUBCHEM_ATOM_DEF_STEREO_COUNT>
0

> <PUBCHEM_ATOM_UDEF_STEREO_COUNT>
0

> <PUBCHEM_BOND_DEF_STEREO_COUNT>
0

> <PUBCHEM_BOND_UDEF_STEREO_COUNT>
0

> <PUBCHEM_ISOTOPIC_ATOM_COUNT>
0

> <PUBCHEM_COMPONENT_COUNT>
1

> <PUBCHEM_CACTVS_TAUTO_COUNT>
1

> <PUBCHEM_CONFORMER_ID>
001BC05B00000001

> <PUBCHEM_MMFF94_ENERGY>
82.6756

> <PUBCHEM_FEATURE_SELFOVERLAP>
30.606

> <PUBCHEM_SHAPE_FINGERPRINT>
10090160 65 18260544498629425039
10319926 262 18269820061143166424
10411042 1 17546165667656957758
10493431 412 18411986858009965777
10498660 4 18410577249458802844
10670039 82 18335149665693969732
10730089 173 18409732889617857396
10759866 29 18186520986628293242
10906281 52 18335152960113337193
10967382 1 18338518530577052775
1100329 8 18193277613944698685
11112241 14 16557038277016119592
11135609 187 18337379458385860989
11578080 2 13828199796197461665
12107183 9 18263350427372450258
12173636 292 18338515231567565621
12236239 1 17749105621603446056
12390115 104 18272102577476697472
12403814 3 17385719197318277389
12596602 18 17240761830648848160
12838862 33 18338217345811265701
13140716 1 18193842776254670675
13224815 77 18337673005634198057
13402501 40 18272649091033557560
138480 1 17618222801969270070
13965767 371 17751920216599217292
14223421 5 18121780521960792591
14341114 328 17894906339208184192
14739800 52 18121765391609453472
14787075 74 18201994452030585993
14790565 3 18410865368845418001
14840074 17 17604159206805593628
15196674 1 18410575046008379751
15927050 60 17475241674654629973
16087824 20 18340484565676129175
19591789 44 18266182906094478597
19784866 170 18410014321090805963
20028762 73 18057327395719209135
20510252 161 18342741788540098209
20511986 3 17677034837484082028
20642791 178 18188503487592622173
20715895 44 17464237350004346413
21756936 100 18270950354490315676
22149856 69 18193300528729574729
23227448 37 18269835483521782972
2334 1 17906172103040057087
23366157 5 17899140403520409971
23402539 116 18270112539219687302
23557571 272 18200037381937044326
23558518 356 17831017923386003497
23559900 14 17906447732197201159
2748010 2 18122340452784488715
34934 24 18411132507674202295
350125 39 18265616472912420494
3524813 1 18131060563118238112
3680242 22 18334860493835391888
469060 322 18264509415058507963
474 4 17603596222444505654
5104073 3 18191875526756549465
5486654 2 18411421730096850693
59755656 215 18340211778753295350
6442390 28 18413390925673995934
7097593 13 17464517725210791154
7364860 26 17981041908150622302
7808743 9 18338795740772668424
8863177 126 11742681432599768869
9709674 26 17979356357278824927
9981440 41 18333734610749956474

> <PUBCHEM_SHAPE_MULTIPOLES>
469.09
9.98
3.48
0.88
6.25
1.6
-0.02
-6.02
-0.52
-1.24
0.1
0.89
-0.03
0.09

> <PUBCHEM_SHAPE_SELFOVERLAP>
1050.176

> <PUBCHEM_SHAPE_VOLUME>
251

> <PUBCHEM_COORDINATE_TYPE>
2
5
10

$$$$
