658849
  -OEChem-01171812253D

 42 45  0     0  0  0  0  0  0999 V2000
   -4.5064   -2.3201   -1.2227 Cl  0  0  0  0  0  0  0  0  0  0  0  0
   -2.3610   -1.7554    0.9451 O   0  0  0  0  0  0  0  0  0  0  0  0
    0.6679    1.1041    0.1578 N   0  0  0  0  0  0  0  0  0  0  0  0
   -1.5700    0.2509   -0.0039 N   0  0  0  0  0  0  0  0  0  0  0  0
    3.0757    1.3386    0.2444 N   0  0  0  0  0  0  0  0  0  0  0  0
    3.0114   -1.4907   -0.1139 N   0  0  0  0  0  0  0  0  0  0  0  0
   -0.4620   -3.4793   -0.4488 N   0  0  0  0  0  0  0  0  0  0  0  0
    1.9479    0.6240    0.1274 C   0  0  0  0  0  0  0  0  0  0  0  0
   -0.2103    0.0591    0.0043 C   0  0  0  0  0  0  0  0  0  0  0  0
    1.8858   -0.7453   -0.0469 C   0  0  0  0  0  0  0  0  0  0  0  0
    0.5209   -1.1040   -0.1252 C   0  0  0  0  0  0  0  0  0  0  0  0
    0.3069    2.4957    0.3253 C   0  0  0  0  0  0  0  0  0  0  0  0
    4.1908    0.5969    0.1774 C   0  0  0  0  0  0  0  0  0  0  0  0
    4.1594   -0.8072    0.0001 C   0  0  0  0  0  0  0  0  0  0  0  0
    0.2023    3.1998   -0.9917 C   0  0  0  0  0  0  0  0  0  0  0  0
   -2.5445   -0.6461    0.4561 C   0  0  0  0  0  0  0  0  0  0  0  0
    5.4238    1.2328    0.2870 C   0  0  0  0  0  0  0  0  0  0  0  0
    5.3619   -1.5049   -0.0588 C   0  0  0  0  0  0  0  0  0  0  0  0
   -0.0196   -2.4103   -0.3031 C   0  0  0  0  0  0  0  0  0  0  0  0
   -3.9477   -0.1643    0.3547 C   0  0  0  0  0  0  0  0  0  0  0  0
    6.6202    0.5207    0.2258 C   0  0  0  0  0  0  0  0  0  0  0  0
    6.5892   -0.8540    0.0525 C   0  0  0  0  0  0  0  0  0  0  0  0
   -4.8855   -0.8615   -0.3790 C   0  0  0  0  0  0  0  0  0  0  0  0
   -4.2602    1.0018    1.0260 C   0  0  0  0  0  0  0  0  0  0  0  0
   -0.9103    3.8005   -1.4286 C   0  0  0  0  0  0  0  0  0  0  0  0
   -6.1906   -0.3735   -0.4451 C   0  0  0  0  0  0  0  0  0  0  0  0
   -5.5654    1.4897    0.9597 C   0  0  0  0  0  0  0  0  0  0  0  0
   -6.5305    0.8021    0.2242 C   0  0  0  0  0  0  0  0  0  0  0  0
   -0.6173    2.5518    0.9107 H   0  0  0  0  0  0  0  0  0  0  0  0
    1.0835    2.9746    0.9330 H   0  0  0  0  0  0  0  0  0  0  0  0
   -1.8826    1.1957   -0.2110 H   0  0  0  0  0  0  0  0  0  0  0  0
    1.0907    3.2360   -1.6173 H   0  0  0  0  0  0  0  0  0  0  0  0
    5.4670    2.3119    0.4237 H   0  0  0  0  0  0  0  0  0  0  0  0
    5.3563   -2.5850   -0.1947 H   0  0  0  0  0  0  0  0  0  0  0  0
    7.5693    1.0404    0.3139 H   0  0  0  0  0  0  0  0  0  0  0  0
    7.5137   -1.4210    0.0033 H   0  0  0  0  0  0  0  0  0  0  0  0
   -3.5209    1.5436    1.6090 H   0  0  0  0  0  0  0  0  0  0  0  0
   -0.9225    4.3025   -2.3898 H   0  0  0  0  0  0  0  0  0  0  0  0
   -1.8220    3.8012   -0.8414 H   0  0  0  0  0  0  0  0  0  0  0  0
   -6.9547   -0.8974   -1.0138 H   0  0  0  0  0  0  0  0  0  0  0  0
   -5.8305    2.4041    1.4824 H   0  0  0  0  0  0  0  0  0  0  0  0
   -7.5467    1.1819    0.1732 H   0  0  0  0  0  0  0  0  0  0  0  0
  1 23  1  0  0  0  0
  2 16  2  0  0  0  0
  3  8  1  0  0  0  0
  3  9  1  0  0  0  0
  3 12  1  0  0  0  0
  4  9  1  0  0  0  0
  4 16  1  0  0  0  0
  4 31  1  0  0  0  0
  5  8  2  0  0  0  0
  5 13  1  0  0  0  0
  6 10  2  0  0  0  0
  6 14  1  0  0  0  0
  7 19  3  0  0  0  0
  8 10  1  0  0  0  0
  9 11  2  0  0  0  0
 10 11  1  0  0  0  0
 11 19  1  0  0  0  0
 12 15  1  0  0  0  0
 12 29  1  0  0  0  0
 12 30  1  0  0  0  0
 13 14  1  0  0  0  0
 13 17  2  0  0  0  0
 14 18  2  0  0  0  0
 15 25  2  0  0  0  0
 15 32  1  0  0  0  0
 16 20  1  0  0  0  0
 17 21  1  0  0  0  0
 17 33  1  0  0  0  0
 18 22  1  0  0  0  0
 18 34  1  0  0  0  0
 20 23  1  0  0  0  0
 20 24  2  0  0  0  0
 21 22  2  0  0  0  0
 21 35  1  0  0  0  0
 22 36  1  0  0  0  0
 23 26  2  0  0  0  0
 24 27  1  0  0  0  0
 24 37  1  0  0  0  0
 25 38  1  0  0  0  0
 25 39  1  0  0  0  0
 26 28  1  0  0  0  0
 26 40  1  0  0  0  0
 27 28  2  0  0  0  0
 27 41  1  0  0  0  0
 28 42  1  0  0  0  0
M  END
> <PUBCHEM_COMPOUND_CID>
658849

> <PUBCHEM_CONFORMER_RMSD>
0.8

> <PUBCHEM_CONFORMER_DIVERSEORDER>
1
15
11
7
13
10
8
14
4
9
3
2
5
12
6

> <PUBCHEM_MMFF94_PARTIAL_CHARGES>
40
1 -0.18
10 0.26
11 0.02
12 0.39
13 0.31
14 0.31
15 -0.29
16 0.54
17 -0.15
18 -0.15
19 0.54
2 -0.57
20 0.09
21 -0.15
22 -0.15
23 0.18
24 -0.15
25 -0.3
26 -0.15
27 -0.15
28 -0.15
3 0.05
31 0.37
32 0.15
33 0.15
34 0.15
35 0.15
36 0.15
37 0.15
38 0.15
39 0.15
4 -0.49
40 0.15
41 0.15
42 0.15
5 -0.57
6 -0.57
7 -0.56
8 0.11
9 -0.09

> <PUBCHEM_EFFECTIVE_ROTOR_COUNT>
5

> <PUBCHEM_PHARMACOPHORE_FEATURES>
10
1 2 acceptor
1 25 hydrophobe
1 4 donor
1 6 acceptor
1 7 acceptor
3 3 5 8 cation
5 3 8 9 10 11 rings
6 13 14 17 18 21 22 rings
6 20 23 24 26 27 28 rings
6 5 6 8 10 13 14 rings

> <PUBCHEM_HEAVY_ATOM_COUNT>
28

> <PUBCHEM_ATOM_DEF_STEREO_COUNT>
0

> <PUBCHEM_ATOM_UDEF_STEREO_COUNT>
0

> <PUBCHEM_BOND_DEF_STEREO_COUNT>
0

> <PUBCHEM_BOND_UDEF_STEREO_COUNT>
0

> <PUBCHEM_ISOTOPIC_ATOM_COUNT>
0

> <PUBCHEM_COMPONENT_COUNT>
1

> <PUBCHEM_CACTVS_TAUTO_COUNT>
4

> <PUBCHEM_CONFORMER_ID>
000A0DA100000001

> <PUBCHEM_MMFF94_ENERGY>
77.6542

> <PUBCHEM_FEATURE_SELFOVERLAP>
50.92

> <PUBCHEM_SHAPE_FINGERPRINT>
10688039 33 17968096391310065996
10906281 52 18265354878832479187
10940486 97 18269274741134053471
11578080 2 16771804788712126466
12166972 35 18270963552672148345
12236239 1 17917991676654774639
12516196 113 18334575754409040873
12788726 201 17895750704014438616
13402501 40 18410011013760389477
14068700 675 18060416941376995625
14790565 3 18411705395765481416
15183329 4 18410854347789849611
15276724 80 18261110781773419924
15849732 13 18413670231496842263
1601671 61 18410013247201470681
16087824 20 18336547118892501493
17492 89 18049161365729761195
17980427 23 17917443016427325785
18681886 176 18272361023355634283
20028762 73 18131631166645754838
20511986 3 18271795809732667915
21033648 29 18131061688310038243
21236236 1 18338797810535928961
21285901 2 18341620274264136214
21298829 104 18270685247803587425
21641784 216 17750250131303461732
21709351 56 18337946887873503967
23402539 116 18343580754593092654
23559900 14 18271236240171813841
23569917 315 18342746221000134759
24771293 8 18270111448435663696
249057 3 18411979183583883487
283562 15 18337391517957332088
3178227 256 18335996345545443395
335352 9 18413110563658129166
34797466 226 16415484890850470312
34934 24 18335980947845197762
350125 39 18411983525442852928
397830 11 16009892690815895496
4017518 198 17489596666961108014
4073 2 18262241122307109834
5104073 3 18410008884015858722
59755656 215 18337958887637985086
6009941 240 17385445453161451930
6138700 20 18410857629218995898
6328613 192 18339084899277293752

> <PUBCHEM_SHAPE_MULTIPOLES>
547.32
15.92
3.27
0.92
2.24
1.27
-0.12
-1.36
1.66
-1
-1.32
-0.84
0.3
-0.65

> <PUBCHEM_SHAPE_SELFOVERLAP>
1212.184

> <PUBCHEM_SHAPE_VOLUME>
292.6

> <PUBCHEM_COORDINATE_TYPE>
2
5
10

$$$$
