2732882
  -OEChem-01171812233D

 35 37  0     0  0  0  0  0  0999 V2000
    1.3084    2.4386   -1.0184 O   0  0  0  0  0  0  0  0  0  0  0  0
    2.5670    1.9764    1.6977 O   0  0  0  0  0  0  0  0  0  0  0  0
    0.5806   -0.3354   -1.9469 O   0  0  0  0  0  0  0  0  0  0  0  0
   -1.4170    1.4598   -1.4359 O   0  0  0  0  0  0  0  0  0  0  0  0
   -0.0774    1.3133    0.4565 N   0  0  0  0  0  0  0  0  0  0  0  0
    1.1843    1.2987   -0.2162 C   0  0  0  0  0  0  0  0  0  0  0  0
    3.0734   -0.0152    0.4970 C   0  0  0  0  0  0  0  0  0  0  0  0
    2.4903   -0.6935   -0.5724 C   0  0  0  0  0  0  0  0  0  0  0  0
    2.3164    1.2047    0.7918 C   0  0  0  0  0  0  0  0  0  0  0  0
    1.3122    0.0367   -1.0495 C   0  0  0  0  0  0  0  0  0  0  0  0
    4.1984   -0.4987    1.1362 C   0  0  0  0  0  0  0  0  0  0  0  0
    3.0089   -1.8828   -1.0464 C   0  0  0  0  0  0  0  0  0  0  0  0
   -1.2978    1.3938   -0.2152 C   0  0  0  0  0  0  0  0  0  0  0  0
   -2.4746    1.3855    0.7416 C   0  0  0  0  0  0  0  0  0  0  0  0
    4.7376   -1.7000    0.6679 C   0  0  0  0  0  0  0  0  0  0  0  0
    4.1488   -2.3852   -0.4127 C   0  0  0  0  0  0  0  0  0  0  0  0
   -3.4138    0.2292    0.5223 C   0  0  0  0  0  0  0  0  0  0  0  0
   -4.4785    0.3711   -0.3565 C   0  0  0  0  0  0  0  0  0  0  0  0
   -3.2016   -0.9620    1.2021 C   0  0  0  0  0  0  0  0  0  0  0  0
   -5.3486   -0.7000   -0.5597 C   0  0  0  0  0  0  0  0  0  0  0  0
   -4.0719   -2.0329    0.9989 C   0  0  0  0  0  0  0  0  0  0  0  0
   -5.1453   -1.9020    0.1179 C   0  0  0  0  0  0  0  0  0  0  0  0
   -0.0766    1.2695    1.4715 H   0  0  0  0  0  0  0  0  0  0  0  0
    4.6530    0.0251    1.9692 H   0  0  0  0  0  0  0  0  0  0  0  0
    2.5572   -2.4139   -1.8763 H   0  0  0  0  0  0  0  0  0  0  0  0
   -2.1398    1.3896    1.7862 H   0  0  0  0  0  0  0  0  0  0  0  0
   -3.0086    2.3354    0.6084 H   0  0  0  0  0  0  0  0  0  0  0  0
    2.1710    2.4059   -1.4662 H   0  0  0  0  0  0  0  0  0  0  0  0
    5.6231   -2.1138    1.1436 H   0  0  0  0  0  0  0  0  0  0  0  0
    4.5879   -3.3182   -0.7562 H   0  0  0  0  0  0  0  0  0  0  0  0
   -4.6448    1.3022   -0.8907 H   0  0  0  0  0  0  0  0  0  0  0  0
   -2.3670   -1.0744    1.8884 H   0  0  0  0  0  0  0  0  0  0  0  0
   -6.1842   -0.5982   -1.2460 H   0  0  0  0  0  0  0  0  0  0  0  0
   -3.9131   -2.9692    1.5260 H   0  0  0  0  0  0  0  0  0  0  0  0
   -5.8226   -2.7361   -0.0406 H   0  0  0  0  0  0  0  0  0  0  0  0
  1  6  1  0  0  0  0
  1 28  1  0  0  0  0
  2  9  2  0  0  0  0
  3 10  2  0  0  0  0
  4 13  2  0  0  0  0
  5  6  1  0  0  0  0
  5 13  1  0  0  0  0
  5 23  1  0  0  0  0
  6  9  1  0  0  0  0
  6 10  1  0  0  0  0
  7  8  1  0  0  0  0
  7  9  1  0  0  0  0
  7 11  2  0  0  0  0
  8 10  1  0  0  0  0
  8 12  2  0  0  0  0
 11 15  1  0  0  0  0
 11 24  1  0  0  0  0
 12 16  1  0  0  0  0
 12 25  1  0  0  0  0
 13 14  1  0  0  0  0
 14 17  1  0  0  0  0
 14 26  1  0  0  0  0
 14 27  1  0  0  0  0
 15 16  2  0  0  0  0
 15 29  1  0  0  0  0
 16 30  1  0  0  0  0
 17 18  2  0  0  0  0
 17 19  1  0  0  0  0
 18 20  1  0  0  0  0
 18 31  1  0  0  0  0
 19 21  2  0  0  0  0
 19 32  1  0  0  0  0
 20 22  2  0  0  0  0
 20 33  1  0  0  0  0
 21 22  1  0  0  0  0
 21 34  1  0  0  0  0
 22 35  1  0  0  0  0
M  END
> <PUBCHEM_COMPOUND_CID>
2732882

> <PUBCHEM_CONFORMER_RMSD>
0.6

> <PUBCHEM_CONFORMER_DIVERSEORDER>
1
2
6
11
8
9
5
12
10
3
4
7

> <PUBCHEM_MMFF94_PARTIAL_CHARGES>
33
1 -0.68
10 0.42
11 -0.15
12 -0.15
13 0.57
14 0.2
15 -0.15
16 -0.15
17 -0.14
18 -0.15
19 -0.15
2 -0.57
20 -0.15
21 -0.15
22 -0.15
23 0.37
24 0.15
25 0.15
28 0.4
29 0.15
3 -0.57
30 0.15
31 0.15
32 0.15
33 0.15
34 0.15
35 0.15
4 -0.57
5 -0.73
6 0.7
7 0.09
8 0.09
9 0.42

> <PUBCHEM_EFFECTIVE_ROTOR_COUNT>
4.2

> <PUBCHEM_PHARMACOPHORE_FEATURES>
9
1 1 acceptor
1 1 donor
1 2 acceptor
1 3 acceptor
1 4 acceptor
1 5 donor
5 6 7 8 9 10 rings
6 17 18 19 20 21 22 rings
6 7 8 11 12 15 16 rings

> <PUBCHEM_HEAVY_ATOM_COUNT>
22

> <PUBCHEM_ATOM_DEF_STEREO_COUNT>
0

> <PUBCHEM_ATOM_UDEF_STEREO_COUNT>
0

> <PUBCHEM_BOND_DEF_STEREO_COUNT>
0

> <PUBCHEM_BOND_UDEF_STEREO_COUNT>
0

> <PUBCHEM_ISOTOPIC_ATOM_COUNT>
0

> <PUBCHEM_COMPONENT_COUNT>
1

> <PUBCHEM_CACTVS_TAUTO_COUNT>
2

> <PUBCHEM_CONFORMER_ID>
0029B35200000001

> <PUBCHEM_MMFF94_ENERGY>
60.7228

> <PUBCHEM_FEATURE_SELFOVERLAP>
45.81

> <PUBCHEM_SHAPE_FINGERPRINT>
10498660 4 10087648070149428507
11405975 8 18272377443047404961
11595378 159 14261359024524918067
11720765 8 11171002400446221040
11796584 16 18187923928630973259
12363563 72 18335713736327730667
12553582 1 17240490178083170601
12596602 18 15697989756372359027
12633257 1 18059310768196265195
12788726 201 15068887613072487199
12892183 10 17774997943389834776
13103583 49 17844543114281569930
13464514 151 8934997066671849596
13533116 47 18201438112432415867
13544653 18 18342461447851316089
13583140 156 17060044913975402177
13944108 23 8570556249997926307
14178342 30 17985844639581125993
1420 369 18411142450344378403
14251764 30 17487635030710896174
14341114 328 14836400354656299219
14790565 3 17547004590886717476
14848178 5 18408602556835409843
14848178 96 9367348115367237659
14955137 171 17775289327262285284
15352361 1 18409168796654496299
16752209 62 16732975389031383025
17492 89 18044382849372079251
17959699 21 8502654822126934598
18186145 218 13623529099800461869
193927 3 18260840319007927131
19438510 23 14043739423249594338
19862831 5 15068346704669811873
20028762 73 17775278378805924447
20261772 1 17704067400014709134
20403669 9 18408605838164063323
20645477 70 18187929542453675425
21864079 5 10015315576777056443
231179 274 8646762301132035588
23402655 69 12035448328611570847
23559900 14 18335698360392699473
2838139 119 9727048946959808778
3009799 131 11602817983295246896
316301 35 18336823105027478706
3286 77 18344146981622450025
38570 142 15337980057814831232
439807 62 17558243675135727567
44062 13 17894912958338693635
474 4 11743832573443437787
5104073 3 18202570587981707473
5207 123 18334856117585113157
633830 44 8790622381309854273
76465 3 18261391126513705027
7918774 8 16914275966291733294
8988823 20 17774999150544748105
960060 61 15574712491027487466
9709674 26 18188494704505230011

> <PUBCHEM_SHAPE_MULTIPOLES>
424.29
11.24
2.49
1.38
7.49
0.17
-0.12
7.87
1.81
-0.73
0.06
-0.44
-0.12
0.96

> <PUBCHEM_SHAPE_SELFOVERLAP>
938.177

> <PUBCHEM_SHAPE_VOLUME>
227.7

> <PUBCHEM_COORDINATE_TYPE>
2
5
10

$$$$
