367790
  -OEChem-01171812253D

 37 39  0     0  0  0  0  0  0999 V2000
   -5.4121    0.3490    0.3100 O   0  0  0  0  0  0  0  0  0  0  0  0
    4.0654   -2.5127    0.1344 O   0  0  0  0  0  0  0  0  0  0  0  0
    1.6130   -3.3182   -0.5170 O   0  0  0  0  0  0  0  0  0  0  0  0
    0.0183    1.1294   -0.5988 N   0  0  0  0  0  0  0  0  0  0  0  0
    2.3874    0.6912   -0.0501 C   0  0  0  0  0  0  0  0  0  0  0  0
    1.0229    0.2137   -0.4166 C   0  0  0  0  0  0  0  0  0  0  0  0
    3.4419   -0.2212    0.1426 C   0  0  0  0  0  0  0  0  0  0  0  0
   -1.3429    0.9333   -0.3710 C   0  0  0  0  0  0  0  0  0  0  0  0
    0.7837   -1.1009   -0.5666 C   0  0  0  0  0  0  0  0  0  0  0  0
    2.6891    2.0556    0.1205 C   0  0  0  0  0  0  0  0  0  0  0  0
    3.2002   -1.6650   -0.0171 C   0  0  0  0  0  0  0  0  0  0  0  0
    4.7334    0.2031    0.4868 C   0  0  0  0  0  0  0  0  0  0  0  0
    1.8248   -2.1231   -0.3833 C   0  0  0  0  0  0  0  0  0  0  0  0
    3.9768    2.4833    0.4650 C   0  0  0  0  0  0  0  0  0  0  0  0
   -2.2998    1.6268   -1.1273 C   0  0  0  0  0  0  0  0  0  0  0  0
   -1.7799    0.0398    0.6187 C   0  0  0  0  0  0  0  0  0  0  0  0
    4.9975    1.5585    0.6473 C   0  0  0  0  0  0  0  0  0  0  0  0
   -4.0831    0.5399    0.0877 C   0  0  0  0  0  0  0  0  0  0  0  0
   -3.6620    1.4312   -0.8992 C   0  0  0  0  0  0  0  0  0  0  0  0
   -3.1420   -0.1558    0.8466 C   0  0  0  0  0  0  0  0  0  0  0  0
   -5.8132   -0.9355    0.7846 C   0  0  0  0  0  0  0  0  0  0  0  0
   -7.2194   -1.2222    0.3029 C   0  0  0  0  0  0  0  0  0  0  0  0
    0.2795    2.0212   -1.0028 H   0  0  0  0  0  0  0  0  0  0  0  0
   -0.1804   -1.4930   -0.8745 H   0  0  0  0  0  0  0  0  0  0  0  0
    1.9285    2.8228   -0.0014 H   0  0  0  0  0  0  0  0  0  0  0  0
    5.5414   -0.5087    0.6333 H   0  0  0  0  0  0  0  0  0  0  0  0
    4.1769    3.5436    0.5916 H   0  0  0  0  0  0  0  0  0  0  0  0
   -1.9869    2.3244   -1.9007 H   0  0  0  0  0  0  0  0  0  0  0  0
   -1.0809   -0.4855    1.2646 H   0  0  0  0  0  0  0  0  0  0  0  0
    5.9954    1.8924    0.9146 H   0  0  0  0  0  0  0  0  0  0  0  0
   -4.3906    1.9755   -1.4937 H   0  0  0  0  0  0  0  0  0  0  0  0
   -3.4277   -0.8303    1.6483 H   0  0  0  0  0  0  0  0  0  0  0  0
   -5.1649   -1.7334    0.4007 H   0  0  0  0  0  0  0  0  0  0  0  0
   -5.7890   -0.9381    1.8799 H   0  0  0  0  0  0  0  0  0  0  0  0
   -7.5641   -2.1974    0.6583 H   0  0  0  0  0  0  0  0  0  0  0  0
   -7.9127   -0.4522    0.6573 H   0  0  0  0  0  0  0  0  0  0  0  0
   -7.2625   -1.2093   -0.7913 H   0  0  0  0  0  0  0  0  0  0  0  0
  1 18  1  0  0  0  0
  1 21  1  0  0  0  0
  2 11  2  0  0  0  0
  3 13  2  0  0  0  0
  4  6  1  0  0  0  0
  4  8  1  0  0  0  0
  4 23  1  0  0  0  0
  5  6  1  0  0  0  0
  5  7  1  0  0  0  0
  5 10  2  0  0  0  0
  6  9  2  0  0  0  0
  7 11  1  0  0  0  0
  7 12  2  0  0  0  0
  8 15  2  0  0  0  0
  8 16  1  0  0  0  0
  9 13  1  0  0  0  0
  9 24  1  0  0  0  0
 10 14  1  0  0  0  0
 10 25  1  0  0  0  0
 11 13  1  0  0  0  0
 12 17  1  0  0  0  0
 12 26  1  0  0  0  0
 14 17  2  0  0  0  0
 14 27  1  0  0  0  0
 15 19  1  0  0  0  0
 15 28  1  0  0  0  0
 16 20  2  0  0  0  0
 16 29  1  0  0  0  0
 17 30  1  0  0  0  0
 18 19  2  0  0  0  0
 18 20  1  0  0  0  0
 19 31  1  0  0  0  0
 20 32  1  0  0  0  0
 21 22  1  0  0  0  0
 21 33  1  0  0  0  0
 21 34  1  0  0  0  0
 22 35  1  0  0  0  0
 22 36  1  0  0  0  0
 22 37  1  0  0  0  0
M  END
> <PUBCHEM_COMPOUND_CID>
367790

> <PUBCHEM_CONFORMER_RMSD>
0.6

> <PUBCHEM_CONFORMER_DIVERSEORDER>
1
34
30
27
31
10
25
33
11
24
32
3
16
6
18
29
28
2
4
23
26
13
9
14
5
12
22
17
8
21
20
15
7
19

> <PUBCHEM_MMFF94_PARTIAL_CHARGES>
31
1 -0.36
10 -0.15
11 0.48
12 -0.15
13 0.56
14 -0.15
15 -0.15
16 -0.15
17 -0.15
18 0.08
19 -0.15
2 -0.57
20 -0.15
21 0.28
23 0.4
24 0.15
25 0.15
26 0.15
27 0.15
28 0.15
29 0.15
3 -0.57
30 0.15
31 0.15
32 0.15
4 -0.6
5 0.03
6 0.07
7 0.09
8 0.1
9 -0.14

> <PUBCHEM_EFFECTIVE_ROTOR_COUNT>
4

> <PUBCHEM_PHARMACOPHORE_FEATURES>
8
1 1 acceptor
1 2 acceptor
1 3 acceptor
1 4 cation
1 4 donor
6 5 6 7 9 11 13 rings
6 5 7 10 12 14 17 rings
6 8 15 16 18 19 20 rings

> <PUBCHEM_HEAVY_ATOM_COUNT>
22

> <PUBCHEM_ATOM_DEF_STEREO_COUNT>
0

> <PUBCHEM_ATOM_UDEF_STEREO_COUNT>
0

> <PUBCHEM_BOND_DEF_STEREO_COUNT>
0

> <PUBCHEM_BOND_UDEF_STEREO_COUNT>
0

> <PUBCHEM_ISOTOPIC_ATOM_COUNT>
0

> <PUBCHEM_COMPONENT_COUNT>
1

> <PUBCHEM_CACTVS_TAUTO_COUNT>
3

> <PUBCHEM_CONFORMER_ID>
00059CAE00000001

> <PUBCHEM_MMFF94_ENERGY>
80.7441

> <PUBCHEM_FEATURE_SELFOVERLAP>
40.626

> <PUBCHEM_SHAPE_FINGERPRINT>
10 15 18189327026524074832
10165383 225 18340208621952546744
10366900 7 18187943754247237442
10411042 1 18052822443282375110
10835480 77 18409722938305525693
11963148 33 18188769582059772659
12107183 9 17623864426601991745
12236239 1 17203609285174771081
12403259 226 18117555133040191852
12403259 415 18260265201011470013
12507560 40 18335417937350589205
12596602 18 17561092406066491331
12616971 3 17703780397377950877
12730499 353 18411983585287181688
13009979 54 17129587826463490610
13140716 1 18196359528733328680
13402501 40 18334015012316684427
13533116 47 18343024393435800377
13955234 65 18343013385793479402
14341114 328 17418098724061440275
146900 427 17917991715256772249
15475509 35 17096069296358589930
15880784 105 18412832365583158027
15961568 22 17168151177936118460
16126227 98 18052536866427546904
17349148 13 15357983347840891529
17492 89 18197781007413840339
17844677 252 18341901736387885329
17859628 70 18271250404383755262
18222031 100 16660365878573413389
19377110 9 17918283052058448475
204376 136 18342173414486028580
20645477 70 18409446955979465602
21065199 12 18336827502915506565
21065201 7 17168705224137016573
21197605 99 18266745860185469275
21267235 1 18342179926009747278
21623969 137 18410294731042130251
22079108 93 17916863637648607457
221490 88 18266176124240820212
22224240 67 18270396217060966032
23402539 116 17676480666765288013
23557571 272 17603584102015622485
23559900 14 18192987123747133764
239999 70 18202010906203232822
33824 294 18410573976941480666
3545911 37 18411419531411185624
42630746 31 18343304777490811060
4325135 7 18272650186392194375
4340502 62 18272370909800351290
465052 167 18040711464071690576
5104073 3 18338231549130801777
59755656 215 18408892845195508910
621550 34 18408038515770287653
7399639 24 18335128804415827204
8272917 22 18271807882917456860
9709674 26 18260271832588349555

> <PUBCHEM_SHAPE_MULTIPOLES>
430.16
13.71
2.68
0.89
18.82
1.39
-0.04
0.86
3.67
-3.15
-0.35
0.39
-0.14
1.36

> <PUBCHEM_SHAPE_SELFOVERLAP>
940.64

> <PUBCHEM_SHAPE_VOLUME>
232.5

> <PUBCHEM_COORDINATE_TYPE>
2
5
10

$$$$
