2769183
  -OEChem-01171812193D

 33 36  0     0  0  0  0  0  0999 V2000
   -1.9445    2.7784   -0.0062 O   0  0  0  0  0  0  0  0  0  0  0  0
   -0.4665   -1.7055   -0.1289 N   0  0  0  0  0  0  0  0  0  0  0  0
    0.8787   -1.4760   -0.1631 N   0  0  0  0  0  0  0  0  0  0  0  0
   -0.7924    0.6679   -0.0779 C   0  0  0  0  0  0  0  0  0  0  0  0
   -2.7076   -0.6392   -0.0460 C   0  0  0  0  0  0  0  0  0  0  0  0
   -1.2679   -0.6356   -0.0872 C   0  0  0  0  0  0  0  0  0  0  0  0
   -3.1580    0.6932   -0.0096 C   0  0  0  0  0  0  0  0  0  0  0  0
   -1.9618    1.5677   -0.0286 C   0  0  0  0  0  0  0  0  0  0  0  0
    0.5507    0.9276   -0.1115 C   0  0  0  0  0  0  0  0  0  0  0  0
    1.3544   -0.1970   -0.1542 C   0  0  0  0  0  0  0  0  0  0  0  0
    2.7926   -0.0847   -0.1944 C   0  0  0  0  0  0  0  0  0  0  0  0
   -3.6211   -1.6761   -0.0382 C   0  0  0  0  0  0  0  0  0  0  0  0
   -4.4931    1.0372    0.0348 C   0  0  0  0  0  0  0  0  0  0  0  0
    3.5513   -0.0487    0.9794 C   0  0  0  0  0  0  0  0  0  0  0  0
   -4.9829   -1.3530    0.0065 C   0  0  0  0  0  0  0  0  0  0  0  0
   -5.4135   -0.0117    0.0426 C   0  0  0  0  0  0  0  0  0  0  0  0
    3.4354   -0.0109   -1.4335 C   0  0  0  0  0  0  0  0  0  0  0  0
    4.9404    0.0601    0.9143 C   0  0  0  0  0  0  0  0  0  0  0  0
    2.9043   -0.1254    2.3251 C   0  0  0  0  0  0  0  0  0  0  0  0
    4.8245    0.0980   -1.4986 C   0  0  0  0  0  0  0  0  0  0  0  0
    5.5771    0.1335   -0.3247 C   0  0  0  0  0  0  0  0  0  0  0  0
    0.9446    1.9358   -0.1047 H   0  0  0  0  0  0  0  0  0  0  0  0
   -3.3047   -2.7133   -0.0656 H   0  0  0  0  0  0  0  0  0  0  0  0
   -4.8202    2.0696    0.0624 H   0  0  0  0  0  0  0  0  0  0  0  0
   -5.7225   -2.1499    0.0136 H   0  0  0  0  0  0  0  0  0  0  0  0
   -6.4778    0.2061    0.0769 H   0  0  0  0  0  0  0  0  0  0  0  0
    2.8656   -0.0377   -2.3598 H   0  0  0  0  0  0  0  0  0  0  0  0
    5.5429    0.0896    1.8183 H   0  0  0  0  0  0  0  0  0  0  0  0
    2.2528    0.7389    2.4900 H   0  0  0  0  0  0  0  0  0  0  0  0
    2.3209   -1.0467    2.4238 H   0  0  0  0  0  0  0  0  0  0  0  0
    3.6455   -0.1294    3.1322 H   0  0  0  0  0  0  0  0  0  0  0  0
    5.3203    0.1550   -2.4632 H   0  0  0  0  0  0  0  0  0  0  0  0
    6.6586    0.2183   -0.3756 H   0  0  0  0  0  0  0  0  0  0  0  0
  1  8  2  0  0  0  0
  2  3  1  0  0  0  0
  2  6  2  0  0  0  0
  3 10  2  0  0  0  0
  4  6  1  0  0  0  0
  4  8  1  0  0  0  0
  4  9  2  0  0  0  0
  5  6  1  0  0  0  0
  5  7  1  0  0  0  0
  5 12  2  0  0  0  0
  7  8  1  0  0  0  0
  7 13  2  0  0  0  0
  9 10  1  0  0  0  0
  9 22  1  0  0  0  0
 10 11  1  0  0  0  0
 11 14  1  0  0  0  0
 11 17  2  0  0  0  0
 12 15  1  0  0  0  0
 12 23  1  0  0  0  0
 13 16  1  0  0  0  0
 13 24  1  0  0  0  0
 14 18  2  0  0  0  0
 14 19  1  0  0  0  0
 15 16  2  0  0  0  0
 15 25  1  0  0  0  0
 16 26  1  0  0  0  0
 17 20  1  0  0  0  0
 17 27  1  0  0  0  0
 18 21  1  0  0  0  0
 18 28  1  0  0  0  0
 19 29  1  0  0  0  0
 19 30  1  0  0  0  0
 19 31  1  0  0  0  0
 20 21  2  0  0  0  0
 20 32  1  0  0  0  0
 21 33  1  0  0  0  0
M  END
> <PUBCHEM_COMPOUND_CID>
2769183

> <PUBCHEM_CONFORMER_RMSD>
0.6

> <PUBCHEM_CONFORMER_DIVERSEORDER>
1
5
4
3
2

> <PUBCHEM_MMFF94_PARTIAL_CHARGES>
28
1 -0.57
10 0.31
12 -0.15
13 -0.15
14 -0.14
15 -0.15
16 -0.15
17 -0.15
18 -0.15
19 0.14
2 -0.31
20 -0.15
21 -0.15
22 0.15
23 0.15
24 0.15
25 0.15
26 0.15
27 0.15
28 0.15
3 -0.31
32 0.15
33 0.15
4 0.09
6 0.31
7 0.09
8 0.4
9 -0.15

> <PUBCHEM_EFFECTIVE_ROTOR_COUNT>
1

> <PUBCHEM_PHARMACOPHORE_FEATURES>
7
1 1 acceptor
1 2 acceptor
1 3 acceptor
5 4 5 6 7 8 rings
6 11 14 17 18 20 21 rings
6 2 3 4 6 9 10 rings
6 5 7 12 13 15 16 rings

> <PUBCHEM_HEAVY_ATOM_COUNT>
21

> <PUBCHEM_ATOM_DEF_STEREO_COUNT>
0

> <PUBCHEM_ATOM_UDEF_STEREO_COUNT>
0

> <PUBCHEM_BOND_DEF_STEREO_COUNT>
0

> <PUBCHEM_BOND_UDEF_STEREO_COUNT>
0

> <PUBCHEM_ISOTOPIC_ATOM_COUNT>
0

> <PUBCHEM_COMPONENT_COUNT>
1

> <PUBCHEM_CACTVS_TAUTO_COUNT>
1

> <PUBCHEM_CONFORMER_ID>
002A411F00000001

> <PUBCHEM_MMFF94_ENERGY>
79.895

> <PUBCHEM_FEATURE_SELFOVERLAP>
37.281

> <PUBCHEM_SHAPE_FINGERPRINT>
10 15 18058717114186380704
10366900 7 18411417319397390747
10498660 4 18411136892303360340
10670039 82 18262811657636713940
10906281 52 18262818293360808777
11552529 35 14907038547844119727
11963148 33 18336823199485896315
12107183 9 17101976829909943816
12236239 1 17821446855070566260
12390115 104 17986685761977326417
12403259 415 17917705799389534872
12403814 3 17385721383699146229
12596602 18 17530968011762466472
12670546 56 16877938326304979060
12730499 353 17275107249796460038
12788726 201 18260546680562826961
12916748 109 18412266134148030600
13140716 1 18194962065922047019
13288520 33 18412266151253962479
13533116 47 17240475888768850330
13631057 29 16590011552712174107
13760787 19 17385726927874593451
13862211 1 18410570725793909279
14386348 63 17775288265861849430
14573314 32 17703796894400049460
15196674 1 18339081488703865759
15788980 27 17022899038616775231
15961568 22 18338794649920501716
16988056 13 14945316447259056852
17138139 8 17242726747901094691
17349148 13 18113899364051578359
17804303 29 18341611551006339369
17844677 252 16415204472398778552
18186145 218 16845282835376318146
18222031 100 18341043120874926591
18681886 176 18336550516453673652
19141452 34 17417811794323478343
200 152 16443342074396440108
20028762 73 17986392415790572911
20511986 3 17676474077530945501
20645477 70 15068612765425460328
21033648 29 17131538466784729488
21033650 10 18045809822096146932
21065198 48 17822286839009886656
21267235 1 18339088185317528903
221357 26 16702303416931511800
2297311 6 18271816717248563764
23175994 123 17060340738400828161
23402539 116 18409444804190417999
23536379 177 15936403438602516071
23557571 272 18202011992692827949
23559900 14 18272091565591675854
23569914 152 16406194799670572549
300161 21 17675918811289795311
335352 9 18410574012092334773
34797466 226 18130520720526992020
34934 24 18337666417935035823
4340502 62 16081092592827256050
474 4 17024321932035262868
5104073 3 18268997488331786467
5281201 14 16917354714660303448
542803 24 17748547038977663134
59755656 215 18342463603962374518
67856867 119 18115029743878869156
8272917 22 16588301649227880866

> <PUBCHEM_SHAPE_MULTIPOLES>
416.34
12.26
1.6
1.18
1.88
0.44
0.39
-0.8
-0.48
-2.07
-0.04
2.06
-0.05
-0.14

> <PUBCHEM_SHAPE_SELFOVERLAP>
948.617

> <PUBCHEM_SHAPE_VOLUME>
218.7

> <PUBCHEM_COORDINATE_TYPE>
2
5
10

$$$$
