3151565
  -OEChem-01171812213D

 47 50  0     0  0  0  0  0  0999 V2000
    0.5216    0.5235   -0.2980 O   0  0  0  0  0  0  0  0  0  0  0  0
   -3.3027    0.9982    1.8077 O   0  0  0  0  0  0  0  0  0  0  0  0
   -0.8256   -0.3717    2.2709 O   0  0  0  0  0  0  0  0  0  0  0  0
    6.4532   -1.5252   -0.6493 O   0  0  0  0  0  0  0  0  0  0  0  0
    4.4040   -2.4347   -1.0240 O   0  0  0  0  0  0  0  0  0  0  0  0
   -5.2716    1.1576   -0.9664 N   0  0  0  0  0  0  0  0  0  0  0  0
   -1.6001   -3.4264    0.9799 N   0  0  0  0  0  0  0  0  0  0  0  0
   -5.1224    1.3427    0.3673 N   0  0  0  0  0  0  0  0  0  0  0  0
   -1.1277   -2.6837    2.0097 N   0  0  0  0  0  0  0  0  0  0  0  0
   -1.7970   -0.0430   -0.5788 C   0  0  0  0  0  0  0  0  0  0  0  0
   -3.1794    0.4807   -0.5461 C   0  0  0  0  0  0  0  0  0  0  0  0
   -1.6581   -1.3230    0.2154 C   0  0  0  0  0  0  0  0  0  0  0  0
   -0.7241    0.9880   -0.2126 C   0  0  0  0  0  0  0  0  0  0  0  0
   -4.1265    0.6207   -1.4906 C   0  0  0  0  0  0  0  0  0  0  0  0
   -1.8833   -2.6144   -0.0854 C   0  0  0  0  0  0  0  0  0  0  0  0
   -3.8342    0.9649    0.7108 C   0  0  0  0  0  0  0  0  0  0  0  0
   -1.1510   -1.3529    1.6243 C   0  0  0  0  0  0  0  0  0  0  0  0
   -0.8243    2.2605    0.1736 C   0  0  0  0  0  0  0  0  0  0  0  0
    1.2971    1.5798    0.0620 C   0  0  0  0  0  0  0  0  0  0  0  0
    0.5166    2.6721    0.3618 C   0  0  0  0  0  0  0  0  0  0  0  0
   -4.0620    0.2545   -2.9304 C   0  0  0  0  0  0  0  0  0  0  0  0
   -2.3499   -3.1999   -1.3701 C   0  0  0  0  0  0  0  0  0  0  0  0
    2.7120    1.3365    0.0524 C   0  0  0  0  0  0  0  0  0  0  0  0
    3.2084    0.0806   -0.3099 C   0  0  0  0  0  0  0  0  0  0  0  0
    3.6033    2.3540    0.4060 C   0  0  0  0  0  0  0  0  0  0  0  0
    4.5831   -0.1556   -0.3186 C   0  0  0  0  0  0  0  0  0  0  0  0
    4.9781    2.1177    0.3976 C   0  0  0  0  0  0  0  0  0  0  0  0
    5.4680    0.8630    0.0352 C   0  0  0  0  0  0  0  0  0  0  0  0
    5.0941   -1.4645   -0.6944 C   0  0  0  0  0  0  0  0  0  0  0  0
   -1.5586   -0.3031   -1.6196 H   0  0  0  0  0  0  0  0  0  0  0  0
   -1.7083    2.8652    0.3102 H   0  0  0  0  0  0  0  0  0  0  0  0
   -6.1754    1.1010   -1.4134 H   0  0  0  0  0  0  0  0  0  0  0  0
   -1.4393   -4.4205    0.9027 H   0  0  0  0  0  0  0  0  0  0  0  0
   -5.8676    1.7229    0.9352 H   0  0  0  0  0  0  0  0  0  0  0  0
   -0.8530   -3.1080    2.8854 H   0  0  0  0  0  0  0  0  0  0  0  0
    0.8552    3.6494    0.6757 H   0  0  0  0  0  0  0  0  0  0  0  0
   -4.8105   -0.5104   -3.1618 H   0  0  0  0  0  0  0  0  0  0  0  0
   -3.0841   -0.1379   -3.2210 H   0  0  0  0  0  0  0  0  0  0  0  0
   -4.2637    1.1316   -3.5542 H   0  0  0  0  0  0  0  0  0  0  0  0
   -1.6108   -3.9087   -1.7574 H   0  0  0  0  0  0  0  0  0  0  0  0
   -2.5122   -2.4368   -2.1361 H   0  0  0  0  0  0  0  0  0  0  0  0
   -3.2951   -3.7328   -1.2243 H   0  0  0  0  0  0  0  0  0  0  0  0
    2.5339   -0.7265   -0.5878 H   0  0  0  0  0  0  0  0  0  0  0  0
    3.2536    3.3424    0.6932 H   0  0  0  0  0  0  0  0  0  0  0  0
    5.6669    2.9111    0.6732 H   0  0  0  0  0  0  0  0  0  0  0  0
    6.5452    0.7227    0.0425 H   0  0  0  0  0  0  0  0  0  0  0  0
    6.7876   -2.4113   -0.9048 H   0  0  0  0  0  0  0  0  0  0  0  0
  1 13  1  0  0  0  0
  1 19  1  0  0  0  0
  2 16  2  0  0  0  0
  3 17  2  0  0  0  0
  4 29  1  0  0  0  0
  4 47  1  0  0  0  0
  5 29  2  0  0  0  0
  6  8  1  0  0  0  0
  6 14  1  0  0  0  0
  6 32  1  0  0  0  0
  7  9  1  0  0  0  0
  7 15  1  0  0  0  0
  7 33  1  0  0  0  0
  8 16  1  0  0  0  0
  8 34  1  0  0  0  0
  9 17  1  0  0  0  0
  9 35  1  0  0  0  0
 10 11  1  0  0  0  0
 10 12  1  0  0  0  0
 10 13  1  0  0  0  0
 10 30  1  0  0  0  0
 11 14  2  0  0  0  0
 11 16  1  0  0  0  0
 12 15  2  0  0  0  0
 12 17  1  0  0  0  0
 13 18  2  0  0  0  0
 14 21  1  0  0  0  0
 15 22  1  0  0  0  0
 18 20  1  0  0  0  0
 18 31  1  0  0  0  0
 19 20  2  0  0  0  0
 19 23  1  0  0  0  0
 20 36  1  0  0  0  0
 21 37  1  0  0  0  0
 21 38  1  0  0  0  0
 21 39  1  0  0  0  0
 22 40  1  0  0  0  0
 22 41  1  0  0  0  0
 22 42  1  0  0  0  0
 23 24  2  0  0  0  0
 23 25  1  0  0  0  0
 24 26  1  0  0  0  0
 24 43  1  0  0  0  0
 25 27  2  0  0  0  0
 25 44  1  0  0  0  0
 26 28  2  0  0  0  0
 26 29  1  0  0  0  0
 27 28  1  0  0  0  0
 27 45  1  0  0  0  0
 28 46  1  0  0  0  0
M  END
> <PUBCHEM_COMPOUND_CID>
3151565

> <PUBCHEM_CONFORMER_RMSD>
0.8

> <PUBCHEM_CONFORMER_DIVERSEORDER>
1
262
124
238
135
291
294
132
341
340
346
146
248
348
292
239
265
320
293
198
141
307
345
222
236
260
100
338
251
181
89
314
156
177
224
334
344
125
225
189
241
322
301
65
221
263
280
321
44
179
300
117
305
85
226
247
199
39
17
255
268
329
145
157
287
105
109
266
213
336
325
303
313
209
215
211
176
151
223
112
171
323
235
304
115
108
216
172
298
195
136
175
217
299
83
267
88
275
9
324
309
25
111
350
253
331
14
257
193
152
252
330
311
103
202
164
258
66
185
337
123
150
52
191
316
6
91
249
192
290
114
219
214
339
49
78
319
121
197
200
7
161
332
206
207
242
154
227
69
96
166
326
58
210
342
93
333
220
60
182
144
250
131
155
126
347
26
231
45
56
328
186
284
143
81
218
261
272
259
130
233
169
159
61
128
281
87
237
232
139
102
254
138
245
53
55
137
302
187
168
335
147
149
246
68
278
142
327
229
282
310
208
140
22
127
118
18
30
57
184
228
41
33
170
276
306
31
158
113
76
188
165
308
11
274
43
286
279
116
5
120
92
119
75
59
19
122
67
285
95
51
167
178
317
106
101
205
240
243
97
244
42
110
77
271
99
264
288
54
269
71
160
315
180
34
190
196
32
47
349
86
162
133
318
183
234
273
148
295
80
82
79
20
36
98
21
312
70
8
204
62
129
107
13
163
16
37
24
343
73
15
72
173
230
283
27
203
256
4
194
153
289
74
12
174
90
2
201
134
35
212
104
277
63
64
28
46
50
23
3
94
296
10
40
84
29
297
38
270
48

> <PUBCHEM_MMFF94_PARTIAL_CHARGES>
40
1 -0.28
10 0.46
11 -0.12
12 -0.12
13 -0.04
14 -0.04
15 -0.04
16 0.62
17 0.62
18 -0.15
19 0.09
2 -0.57
20 -0.15
21 0.14
22 0.14
23 0.05
24 -0.15
25 -0.15
26 0.09
27 -0.15
28 -0.15
29 0.63
3 -0.57
31 0.15
32 0.4
33 0.4
34 0.37
35 0.37
36 0.15
4 -0.65
43 0.15
44 0.15
45 0.15
46 0.15
47 0.5
5 -0.57
6 -0.52
7 -0.52
8 -0.41
9 -0.41

> <PUBCHEM_EFFECTIVE_ROTOR_COUNT>
5

> <PUBCHEM_PHARMACOPHORE_FEATURES>
14
1 1 acceptor
1 2 acceptor
1 3 acceptor
1 4 acceptor
1 5 acceptor
1 6 donor
1 7 donor
1 8 donor
1 9 donor
3 4 5 29 anion
5 1 13 18 19 20 rings
5 6 8 11 14 16 rings
5 7 9 12 15 17 rings
6 23 24 25 26 27 28 rings

> <PUBCHEM_HEAVY_ATOM_COUNT>
29

> <PUBCHEM_ATOM_DEF_STEREO_COUNT>
0

> <PUBCHEM_ATOM_UDEF_STEREO_COUNT>
0

> <PUBCHEM_BOND_DEF_STEREO_COUNT>
0

> <PUBCHEM_BOND_UDEF_STEREO_COUNT>
0

> <PUBCHEM_ISOTOPIC_ATOM_COUNT>
0

> <PUBCHEM_COMPONENT_COUNT>
1

> <PUBCHEM_CACTVS_TAUTO_COUNT>
15

> <PUBCHEM_CONFORMER_ID>
003016CD00000001

> <PUBCHEM_MMFF94_ENERGY>
80.4745

> <PUBCHEM_FEATURE_SELFOVERLAP>
74.345

> <PUBCHEM_SHAPE_FINGERPRINT>
10254770 206 18048018689776308106
10369192 42 13767935607023481626
105312 117 17313649495830787199
10764073 3 17973198177561956643
107951 10 16950288385893307643
10906281 52 18200612344376630628
11578080 2 17129010879000493129
12555020 224 18411132524278993871
12596602 18 15554436393659219166
12643181 29 18335422349194754938
12788726 201 18338795590322492216
12969540 114 18114173112719564613
13135754 10 16806467961865795811
13533116 47 18060136518703929040
13544592 145 18334012783365989500
13583140 156 17488180594251489832
1361 2 18059572417388478494
140371 6 18410294761176609804
14790565 3 18266178318885452841
17349148 13 17632583755262345452
19930381 70 17837497345066284694
20511986 3 17417514848700558780
21033648 29 18114726201349999325
23559900 14 18410291450188743624
3298306 158 17822282432030614475
3383291 50 18410013212821121066
340366 18 17603591858589136476
3729539 64 18043807585256686194
4015057 19 18272079547999505032
404807 14 15691280300022351134
4073 2 18338234990043112152
4403749 210 17982154928426399792
508706 21 17968942014847244738
5104073 3 18266735960712756832
5309563 4 17400367135947708178
550186 7 16081917128069938661
58260988 521 17604736394897010187
59755656 520 18411414030159271613
6138700 20 18338519608075910455
7399639 24 17257653846408060464
9709674 26 18336828710064703424

> <PUBCHEM_SHAPE_MULTIPOLES>
547.54
12.1
3.45
1.69
12.39
2.36
0.07
-0.91
4.07
0.16
-0.42
-2.38
0.63
1.22

> <PUBCHEM_SHAPE_SELFOVERLAP>
1220.963

> <PUBCHEM_SHAPE_VOLUME>
294.2

> <PUBCHEM_COORDINATE_TYPE>
2
5
10

$$$$
