2916452
  -OEChem-01171812203D

 42 44  0     0  0  0  0  0  0999 V2000
    2.5108   -2.2695   -1.0649 O   0  0  0  0  0  0  0  0  0  0  0  0
    0.7792    2.1552    1.3767 O   0  0  0  0  0  0  0  0  0  0  0  0
   -2.3986   -3.8056   -0.4640 O   0  0  0  0  0  0  0  0  0  0  0  0
   -0.0224   -2.2832   -0.1463 N   0  0  0  0  0  0  0  0  0  0  0  0
   -0.9790    0.1024    1.1780 N   0  0  0  0  0  0  0  0  0  0  0  0
    0.7316   -1.1529    0.0386 C   0  0  0  0  0  0  0  0  0  0  0  0
    0.2763   -0.0499    0.6563 C   0  0  0  0  0  0  0  0  0  0  0  0
    2.9983   -0.0886   -0.3528 C   0  0  0  0  0  0  0  0  0  0  0  0
    2.5439    1.0637    0.2841 C   0  0  0  0  0  0  0  0  0  0  0  0
    2.1116   -1.2536   -0.5058 C   0  0  0  0  0  0  0  0  0  0  0  0
    1.1708    1.1367    0.8155 C   0  0  0  0  0  0  0  0  0  0  0  0
   -0.6125   -3.0195    0.9364 C   0  0  0  0  0  0  0  0  0  0  0  0
    4.3054   -0.1433   -0.8527 C   0  0  0  0  0  0  0  0  0  0  0  0
    3.3977    2.1656    0.4230 C   0  0  0  0  0  0  0  0  0  0  0  0
   -2.1255    0.5925    0.5462 C   0  0  0  0  0  0  0  0  0  0  0  0
    5.1527    0.9558   -0.7126 C   0  0  0  0  0  0  0  0  0  0  0  0
    4.6996    2.1086   -0.0756 C   0  0  0  0  0  0  0  0  0  0  0  0
   -3.3387    0.6780    1.2422 C   0  0  0  0  0  0  0  0  0  0  0  0
   -2.0769    1.0049   -0.7920 C   0  0  0  0  0  0  0  0  0  0  0  0
   -1.3514   -4.2329    0.3980 C   0  0  0  0  0  0  0  0  0  0  0  0
   -4.4235    1.5754   -0.7211 C   0  0  0  0  0  0  0  0  0  0  0  0
   -4.4824    1.1673    0.6114 C   0  0  0  0  0  0  0  0  0  0  0  0
   -3.2208    1.4942   -1.4228 C   0  0  0  0  0  0  0  0  0  0  0  0
   -5.6463    2.0985   -1.3957 C   0  0  0  0  0  0  0  0  0  0  0  0
    0.2851   -2.8541   -0.9308 H   0  0  0  0  0  0  0  0  0  0  0  0
   -1.0088    0.1410    2.1927 H   0  0  0  0  0  0  0  0  0  0  0  0
   -1.3281   -2.4008    1.4861 H   0  0  0  0  0  0  0  0  0  0  0  0
    0.1633   -3.3471    1.6379 H   0  0  0  0  0  0  0  0  0  0  0  0
    4.6822   -1.0312   -1.3534 H   0  0  0  0  0  0  0  0  0  0  0  0
    3.0687    3.0767    0.9156 H   0  0  0  0  0  0  0  0  0  0  0  0
    6.1663    0.9126   -1.1005 H   0  0  0  0  0  0  0  0  0  0  0  0
    5.3599    2.9641    0.0331 H   0  0  0  0  0  0  0  0  0  0  0  0
   -3.4002    0.3621    2.2809 H   0  0  0  0  0  0  0  0  0  0  0  0
   -1.1576    0.9566   -1.3700 H   0  0  0  0  0  0  0  0  0  0  0  0
   -1.7906   -4.8059    1.2206 H   0  0  0  0  0  0  0  0  0  0  0  0
   -0.6802   -4.8866   -0.1691 H   0  0  0  0  0  0  0  0  0  0  0  0
   -5.4141    1.2238    1.1680 H   0  0  0  0  0  0  0  0  0  0  0  0
   -3.1629    1.8076   -2.4619 H   0  0  0  0  0  0  0  0  0  0  0  0
   -6.1931    1.2780   -1.8709 H   0  0  0  0  0  0  0  0  0  0  0  0
   -6.3107    2.5950   -0.6803 H   0  0  0  0  0  0  0  0  0  0  0  0
   -5.3894    2.8389   -2.1609 H   0  0  0  0  0  0  0  0  0  0  0  0
   -2.8501   -4.6059   -0.7822 H   0  0  0  0  0  0  0  0  0  0  0  0
  1 10  2  0  0  0  0
  2 11  2  0  0  0  0
  3 20  1  0  0  0  0
  3 42  1  0  0  0  0
  4  6  1  0  0  0  0
  4 12  1  0  0  0  0
  4 25  1  0  0  0  0
  5  7  1  0  0  0  0
  5 15  1  0  0  0  0
  5 26  1  0  0  0  0
  6  7  2  0  0  0  0
  6 10  1  0  0  0  0
  7 11  1  0  0  0  0
  8  9  1  0  0  0  0
  8 10  1  0  0  0  0
  8 13  2  0  0  0  0
  9 11  1  0  0  0  0
  9 14  2  0  0  0  0
 12 20  1  0  0  0  0
 12 27  1  0  0  0  0
 12 28  1  0  0  0  0
 13 16  1  0  0  0  0
 13 29  1  0  0  0  0
 14 17  1  0  0  0  0
 14 30  1  0  0  0  0
 15 18  2  0  0  0  0
 15 19  1  0  0  0  0
 16 17  2  0  0  0  0
 16 31  1  0  0  0  0
 17 32  1  0  0  0  0
 18 22  1  0  0  0  0
 18 33  1  0  0  0  0
 19 23  2  0  0  0  0
 19 34  1  0  0  0  0
 20 35  1  0  0  0  0
 20 36  1  0  0  0  0
 21 22  2  0  0  0  0
 21 23  1  0  0  0  0
 21 24  1  0  0  0  0
 22 37  1  0  0  0  0
 23 38  1  0  0  0  0
 24 39  1  0  0  0  0
 24 40  1  0  0  0  0
 24 41  1  0  0  0  0
M  END
> <PUBCHEM_COMPOUND_CID>
2916452

> <PUBCHEM_CONFORMER_RMSD>
0.8

> <PUBCHEM_CONFORMER_DIVERSEORDER>
1
14
4
29
17
7
24
6
23
5
20
21
10
8
2
15
28
12
16
11
13
22
27
9
18
19
26
3
25

> <PUBCHEM_MMFF94_PARTIAL_CHARGES>
35
1 -0.57
10 0.47
11 0.47
12 0.37
13 -0.15
14 -0.15
15 0.1
16 -0.15
17 -0.15
18 -0.15
19 -0.15
2 -0.57
20 0.28
21 -0.14
22 -0.15
23 -0.15
24 0.14
25 0.4
26 0.4
29 0.15
3 -0.68
30 0.15
31 0.15
32 0.15
33 0.15
34 0.15
37 0.15
38 0.15
4 -0.87
42 0.4
5 -0.6
6 0.11
7 0.11
8 0.09
9 0.09

> <PUBCHEM_EFFECTIVE_ROTOR_COUNT>
5

> <PUBCHEM_PHARMACOPHORE_FEATURES>
11
1 1 acceptor
1 2 acceptor
1 3 acceptor
1 3 donor
1 4 cation
1 4 donor
1 5 cation
1 5 donor
6 15 18 19 21 22 23 rings
6 6 7 8 9 10 11 rings
6 8 9 13 14 16 17 rings

> <PUBCHEM_HEAVY_ATOM_COUNT>
24

> <PUBCHEM_ATOM_DEF_STEREO_COUNT>
0

> <PUBCHEM_ATOM_UDEF_STEREO_COUNT>
0

> <PUBCHEM_BOND_DEF_STEREO_COUNT>
0

> <PUBCHEM_BOND_UDEF_STEREO_COUNT>
0

> <PUBCHEM_ISOTOPIC_ATOM_COUNT>
0

> <PUBCHEM_COMPONENT_COUNT>
1

> <PUBCHEM_CACTVS_TAUTO_COUNT>
17

> <PUBCHEM_CONFORMER_ID>
002C806400000001

> <PUBCHEM_MMFF94_ENERGY>
87.599

> <PUBCHEM_FEATURE_SELFOVERLAP>
55.849

> <PUBCHEM_SHAPE_FINGERPRINT>
10165383 225 18334864887354859461
105312 117 18335139825639213588
10688039 33 17759530258265312795
10693767 8 17844242913464266078
1100329 8 18337671893765988482
12236239 1 17060058103698836913
12403259 415 18187940447112084289
12730499 353 18261959527540397201
12788726 201 17901936762342849226
12969540 114 18334851706221547397
13540713 4 18057612173524899592
13583140 156 17676777556184614584
14790565 3 18198075685278716745
15885798 251 9943804508331207069
17357779 13 17910387625788289799
21033648 29 18408036320973973160
21641784 216 17685511135456292591
23227448 37 18264494047391326228
23558518 356 17972880546922384312
23559900 14 17024600988280461043
23566358 2 18272662271808205950
238 59 18119794825784246271
25 1 18342458127662352072
3060560 45 18263922133762010655
3472631 163 16443353040060234333
350125 39 17909277123724123888
3729539 64 18049176483756343222
4058900 60 18264778653583883129
465052 167 9151165476641301452
469060 322 17023460971344066351
495365 180 18191569879514310393
53917941 68 18338227262568609055
633830 44 18057900043196204465
81228 2 17902510724840116363

> <PUBCHEM_SHAPE_MULTIPOLES>
466.34
10.06
3.95
1.24
1.74
5.75
-0.01
-8.9
-3.45
1.87
-0.05
0.74
-0.35
1.35

> <PUBCHEM_SHAPE_SELFOVERLAP>
1015.844

> <PUBCHEM_SHAPE_VOLUME>
253

> <PUBCHEM_COORDINATE_TYPE>
2
5
10

$$$$
