3711067
  -OEChem-01171812253D

 28 30  0     0  0  0  0  0  0999 V2000
   -4.2350   -0.3765    0.2848 O   0  0  0  0  0  0  0  0  0  0  0  0
   -0.1968   -2.5944    0.1078 O   0  0  0  0  0  0  0  0  0  0  0  0
   -2.8554    2.0154    0.1831 O   0  0  0  0  0  0  0  0  0  0  0  0
    3.4226    1.3787   -0.1172 N   0  0  0  0  0  0  0  0  0  0  0  0
    3.7516   -0.9902   -0.1003 N   0  0  0  0  0  0  0  0  0  0  0  0
    2.0819   -2.4799    0.0077 N   0  0  0  0  0  0  0  0  0  0  0  0
    0.0488   -0.1601    0.0683 C   0  0  0  0  0  0  0  0  0  0  0  0
   -0.7191    1.0121    0.0905 C   0  0  0  0  0  0  0  0  0  0  0  0
    1.4811   -0.0659   -0.0029 C   0  0  0  0  0  0  0  0  0  0  0  0
    2.0924    1.2050   -0.0500 C   0  0  0  0  0  0  0  0  0  0  0  0
   -0.6671   -1.4682    0.1205 C   0  0  0  0  0  0  0  0  0  0  0  0
   -0.0934    2.2569    0.0433 C   0  0  0  0  0  0  0  0  0  0  0  0
   -2.1949    0.9830    0.1639 C   0  0  0  0  0  0  0  0  0  0  0  0
    1.2941    2.3381   -0.0260 C   0  0  0  0  0  0  0  0  0  0  0  0
    2.4094   -1.1237   -0.0332 C   0  0  0  0  0  0  0  0  0  0  0  0
   -2.8579   -0.3351    0.2150 C   0  0  0  0  0  0  0  0  0  0  0  0
   -2.1434   -1.4588    0.1942 C   0  0  0  0  0  0  0  0  0  0  0  0
    4.1835    0.2729   -0.1390 C   0  0  0  0  0  0  0  0  0  0  0  0
   -4.8027   -0.4092   -1.0103 C   0  0  0  0  0  0  0  0  0  0  0  0
   -0.6647    3.1814    0.0592 H   0  0  0  0  0  0  0  0  0  0  0  0
    1.7528    3.3252   -0.0617 H   0  0  0  0  0  0  0  0  0  0  0  0
   -2.6406   -2.4239    0.2334 H   0  0  0  0  0  0  0  0  0  0  0  0
    5.2545    0.4220   -0.1931 H   0  0  0  0  0  0  0  0  0  0  0  0
    1.3397   -2.7900   -0.6058 H   0  0  0  0  0  0  0  0  0  0  0  0
    2.8705   -3.1153    0.0611 H   0  0  0  0  0  0  0  0  0  0  0  0
   -5.8918   -0.4175   -0.9048 H   0  0  0  0  0  0  0  0  0  0  0  0
   -4.5104   -1.3167   -1.5504 H   0  0  0  0  0  0  0  0  0  0  0  0
   -4.5276    0.4782   -1.5910 H   0  0  0  0  0  0  0  0  0  0  0  0
  1 16  1  0  0  0  0
  1 19  1  0  0  0  0
  2 11  2  0  0  0  0
  3 13  2  0  0  0  0
  4 10  1  0  0  0  0
  4 18  2  0  0  0  0
  5 15  2  0  0  0  0
  5 18  1  0  0  0  0
  6 15  1  0  0  0  0
  6 24  1  0  0  0  0
  6 25  1  0  0  0  0
  7  8  2  0  0  0  0
  7  9  1  0  0  0  0
  7 11  1  0  0  0  0
  8 12  1  0  0  0  0
  8 13  1  0  0  0  0
  9 10  2  0  0  0  0
  9 15  1  0  0  0  0
 10 14  1  0  0  0  0
 11 17  1  0  0  0  0
 12 14  2  0  0  0  0
 12 20  1  0  0  0  0
 13 16  1  0  0  0  0
 14 21  1  0  0  0  0
 16 17  2  0  0  0  0
 17 22  1  0  0  0  0
 18 23  1  0  0  0  0
 19 26  1  0  0  0  0
 19 27  1  0  0  0  0
 19 28  1  0  0  0  0
M  END
> <PUBCHEM_COMPOUND_CID>
3711067

> <PUBCHEM_CONFORMER_RMSD>
0.6

> <PUBCHEM_CONFORMER_DIVERSEORDER>
1

> <PUBCHEM_MMFF94_PARTIAL_CHARGES>
24
1 -0.36
10 0.31
11 0.47
12 -0.15
13 0.47
14 -0.15
15 0.41
16 0.09
17 -0.14
18 0.47
19 0.28
2 -0.57
20 0.15
21 0.15
22 0.15
23 0.15
24 0.4
25 0.4
3 -0.57
4 -0.62
5 -0.62
6 -0.9
7 0.09
8 0.09

> <PUBCHEM_EFFECTIVE_ROTOR_COUNT>
1

> <PUBCHEM_PHARMACOPHORE_FEATURES>
9
1 1 acceptor
1 2 acceptor
1 3 acceptor
1 6 donor
3 4 5 18 cation
3 5 6 15 cation
6 4 5 9 10 15 18 rings
6 7 8 11 13 16 17 rings
6 7 8 9 10 12 14 rings

> <PUBCHEM_HEAVY_ATOM_COUNT>
19

> <PUBCHEM_ATOM_DEF_STEREO_COUNT>
0

> <PUBCHEM_ATOM_UDEF_STEREO_COUNT>
0

> <PUBCHEM_BOND_DEF_STEREO_COUNT>
0

> <PUBCHEM_BOND_UDEF_STEREO_COUNT>
0

> <PUBCHEM_ISOTOPIC_ATOM_COUNT>
0

> <PUBCHEM_COMPONENT_COUNT>
1

> <PUBCHEM_CACTVS_TAUTO_COUNT>
7

> <PUBCHEM_CONFORMER_ID>
0038A05B00000001

> <PUBCHEM_MMFF94_ENERGY>
88.078

> <PUBCHEM_FEATURE_SELFOVERLAP>
45.882

> <PUBCHEM_SHAPE_FINGERPRINT>
10608611 8 18410855473256124584
10693767 8 18129362887591473767
10967382 1 18410576201565650458
11132069 177 18338512040570258336
11471102 20 18410008870587279788
11680986 33 18193559088974144105
11806522 49 18411979182840052325
12011746 2 18410294722156751356
13140716 1 18050289472452696208
13221675 6 18410013277207992130
13380535 76 18410294748079873370
13862211 1 18410851045334772402
14115302 16 18114472261344267396
14144814 61 18410578383256062680
14251717 144 18411134744740305247
15196674 1 18410857616449742208
15442244 35 18267024951306819082
15536298 74 18343022194359861912
16945 1 18266464384833549560
193761 8 17834398195533394016
19591789 44 18410295778793007050
200 152 18131064957286480373
20510252 161 18272373044378486065
20645477 70 18410291423880609959
21029758 11 18342453755538794481
21267235 1 18410866451282086962
21501502 16 18339645516540889697
221490 88 18191872442632725387
2334 1 18410577257985167504
23402539 116 18343576335066321029
23463225 33 18409169883291485760
23559900 14 18269834392748088120
2748010 2 18337956692524269532
2871803 45 18408882923404135438
335352 9 18410293626876845830
34934 24 18339072817486382098
5104073 3 18410857625066187960
57005193 9 18410566327356748114
69090 78 18342455975794065967
7364860 26 18270118040856762312
8809292 202 18188777274097389842
9709674 26 18412270505887122590

> <PUBCHEM_SHAPE_MULTIPOLES>
358.46
7.17
2.57
0.66
2.6
0.08
-0.06
0.56
-1.1
-0.65
0.1
0.3
0
-0.1

> <PUBCHEM_SHAPE_SELFOVERLAP>
808.008

> <PUBCHEM_SHAPE_VOLUME>
185

> <PUBCHEM_COORDINATE_TYPE>
2
5
10

$$$$
