2813221
  -OEChem-01171812243D

 41 43  0     0  0  0  0  0  0999 V2000
   -1.6122   -1.5826   -0.1787 S   0  0  0  0  0  0  0  0  0  0  0  0
   -1.3633   -2.1528    1.1313 O   0  0  0  0  0  0  0  0  0  0  0  0
   -1.7926   -2.4427   -1.3330 O   0  0  0  0  0  0  0  0  0  0  0  0
    2.6509   -1.9196    0.1898 N   0  0  0  0  0  0  0  0  0  0  0  0
   -0.3700   -0.4082   -0.5438 N   0  0  0  0  0  0  0  0  0  0  0  0
    1.0953    2.4259   -0.4081 N   0  0  0  0  0  0  0  0  0  0  0  0
    1.3390   -2.0230   -0.0813 N   0  0  0  0  0  0  0  0  0  0  0  0
   -4.5177    0.8097    0.5860 N   0  0  0  0  0  0  0  0  0  0  0  0
   -4.0106   -0.6584   -1.0011 N   0  0  0  0  0  0  0  0  0  0  0  0
    2.0164    0.1630   -0.0735 C   0  0  0  0  0  0  0  0  0  0  0  0
    3.1200   -0.6338    0.2097 C   0  0  0  0  0  0  0  0  0  0  0  0
    0.9566   -0.7541   -0.2410 C   0  0  0  0  0  0  0  0  0  0  0  0
    2.1707    1.5583   -0.1275 C   0  0  0  0  0  0  0  0  0  0  0  0
    4.3942   -0.1137    0.4473 C   0  0  0  0  0  0  0  0  0  0  0  0
    3.4404    2.1006    0.1077 C   0  0  0  0  0  0  0  0  0  0  0  0
    4.5318    1.2771    0.3906 C   0  0  0  0  0  0  0  0  0  0  0  0
   -3.0631   -0.5769   -0.0583 C   0  0  0  0  0  0  0  0  0  0  0  0
    3.4173   -3.1217    0.4250 C   0  0  0  0  0  0  0  0  0  0  0  0
    0.7932    2.8029   -1.7749 C   0  0  0  0  0  0  0  0  0  0  0  0
    0.2684    2.9415    0.6652 C   0  0  0  0  0  0  0  0  0  0  0  0
   -3.3022    0.2901    0.9317 C   0  0  0  0  0  0  0  0  0  0  0  0
   -4.9030    0.2104   -0.5807 C   0  0  0  0  0  0  0  0  0  0  0  0
   -5.2594    1.8078    1.3175 C   0  0  0  0  0  0  0  0  0  0  0  0
   -0.6225    0.5872   -0.5493 H   0  0  0  0  0  0  0  0  0  0  0  0
    5.2432   -0.7514    0.6667 H   0  0  0  0  0  0  0  0  0  0  0  0
    3.5897    3.1777    0.0728 H   0  0  0  0  0  0  0  0  0  0  0  0
    5.5066    1.7238    0.5696 H   0  0  0  0  0  0  0  0  0  0  0  0
    2.7621   -3.9941    0.3565 H   0  0  0  0  0  0  0  0  0  0  0  0
    4.2004   -3.1844   -0.3346 H   0  0  0  0  0  0  0  0  0  0  0  0
    3.8525   -3.0626    1.4257 H   0  0  0  0  0  0  0  0  0  0  0  0
    0.4693    1.9315   -2.3532 H   0  0  0  0  0  0  0  0  0  0  0  0
    1.6773    3.2300   -2.2608 H   0  0  0  0  0  0  0  0  0  0  0  0
   -0.0023    3.5537   -1.8261 H   0  0  0  0  0  0  0  0  0  0  0  0
    0.7862    3.7555    1.1828 H   0  0  0  0  0  0  0  0  0  0  0  0
    0.0387    2.1587    1.3966 H   0  0  0  0  0  0  0  0  0  0  0  0
   -0.6867    3.3276    0.2937 H   0  0  0  0  0  0  0  0  0  0  0  0
   -2.7652    0.5934    1.8196 H   0  0  0  0  0  0  0  0  0  0  0  0
   -5.8370    0.4435   -1.0740 H   0  0  0  0  0  0  0  0  0  0  0  0
   -5.9201    1.2933    2.0194 H   0  0  0  0  0  0  0  0  0  0  0  0
   -4.5582    2.4513    1.8549 H   0  0  0  0  0  0  0  0  0  0  0  0
   -5.8422    2.4064    0.6129 H   0  0  0  0  0  0  0  0  0  0  0  0
  1  2  2  0  0  0  0
  1  3  2  0  0  0  0
  1  5  1  0  0  0  0
  1 17  1  0  0  0  0
  4  7  1  0  0  0  0
  4 11  1  0  0  0  0
  4 18  1  0  0  0  0
  5 12  1  0  0  0  0
  5 24  1  0  0  0  0
  6 13  1  0  0  0  0
  6 19  1  0  0  0  0
  6 20  1  0  0  0  0
  7 12  2  0  0  0  0
  8 21  1  0  0  0  0
  8 22  1  0  0  0  0
  8 23  1  0  0  0  0
  9 17  1  0  0  0  0
  9 22  2  0  0  0  0
 10 11  2  0  0  0  0
 10 12  1  0  0  0  0
 10 13  1  0  0  0  0
 11 14  1  0  0  0  0
 13 15  2  0  0  0  0
 14 16  2  0  0  0  0
 14 25  1  0  0  0  0
 15 16  1  0  0  0  0
 15 26  1  0  0  0  0
 16 27  1  0  0  0  0
 17 21  2  0  0  0  0
 18 28  1  0  0  0  0
 18 29  1  0  0  0  0
 18 30  1  0  0  0  0
 19 31  1  0  0  0  0
 19 32  1  0  0  0  0
 19 33  1  0  0  0  0
 20 34  1  0  0  0  0
 20 35  1  0  0  0  0
 20 36  1  0  0  0  0
 21 37  1  0  0  0  0
 22 38  1  0  0  0  0
 23 39  1  0  0  0  0
 23 40  1  0  0  0  0
 23 41  1  0  0  0  0
M  END
> <PUBCHEM_COMPOUND_CID>
2813221

> <PUBCHEM_CONFORMER_RMSD>
0.6

> <PUBCHEM_CONFORMER_DIVERSEORDER>
15
12
47
38
49
53
57
46
9
55
48
32
45
10
56
21
44
58
11
54
18
42
52
25
51
20
33
2
17
35
13
1
43
41
39
3
34
23
40
37
4
14
16
27
22
26
50
36
31
28
8
5
30
19
29
24
6
7

> <PUBCHEM_MMFF94_PARTIAL_CHARGES>
28
1 1.5
11 -0.15
12 0.43
13 0.1
14 -0.15
15 -0.15
16 -0.15
17 0.16
18 0.26
19 0.37
2 -0.65
20 0.37
21 -0.3
22 0.04
23 0.26
24 0.42
25 0.15
26 0.15
27 0.15
3 -0.65
37 0.15
38 0.15
4 0.31
5 -0.7
6 -0.84
7 -0.71
8 0.05
9 -0.57

> <PUBCHEM_EFFECTIVE_ROTOR_COUNT>
4

> <PUBCHEM_PHARMACOPHORE_FEATURES>
9
1 2 acceptor
1 3 acceptor
1 5 donor
1 6 cation
1 7 acceptor
3 8 9 22 cation
5 4 7 10 11 12 rings
5 8 9 17 21 22 rings
6 10 11 13 14 15 16 rings

> <PUBCHEM_HEAVY_ATOM_COUNT>
23

> <PUBCHEM_ATOM_DEF_STEREO_COUNT>
0

> <PUBCHEM_ATOM_UDEF_STEREO_COUNT>
0

> <PUBCHEM_BOND_DEF_STEREO_COUNT>
0

> <PUBCHEM_BOND_UDEF_STEREO_COUNT>
0

> <PUBCHEM_ISOTOPIC_ATOM_COUNT>
0

> <PUBCHEM_COMPONENT_COUNT>
1

> <PUBCHEM_CACTVS_TAUTO_COUNT>
2

> <PUBCHEM_CONFORMER_ID>
002AED250000000F

> <PUBCHEM_MMFF94_ENERGY>
61.5012

> <PUBCHEM_FEATURE_SELFOVERLAP>
45.781

> <PUBCHEM_SHAPE_FINGERPRINT>
10688039 33 17822290124211897701
10906281 52 18261120711958743144
11089746 13 17846490461523512944
11513181 2 17845377652312966399
11578080 2 14058160561655981364
12107183 9 18054227618562080219
12633257 1 17822837788745581354
13140716 1 18193559097548624560
13583140 156 18113336440548858635
14178342 30 18194669595876726274
14466204 15 18267855258927882480
14739800 52 17559936849252032930
14790565 3 18046916154253853900
15081414 286 18335425638411567260
15196674 1 18413389834820686145
15238133 3 18260278442411233940
15420108 30 18200858687159078754
1601671 61 18335984259417762276
17492 89 18340485664106646951
20511986 3 18059278907997429673
20715895 44 17984143652592066545
20739085 24 18263656077633321212
21033648 29 17313377890915763063
21298829 104 18342455903413319865
21304253 335 18341899601340895636
21421861 104 18187918418820929210
23184049 59 18410859815541686527
23557571 272 15339125662920876321
23559900 14 18341892961717289962
3459 110 18116735086829924235
34934 24 18412822508290373866
350125 39 18411416169163826040
474 4 18335979856706934171
5104073 3 18408038528534013723
543358 83 18412826876298507154
6328613 192 18266464381377885044
653340 110 18199181780896406152
6786 2 13918009219892003196
7064713 232 18131068191070118801
7832392 63 18341330088803728294
9981440 41 17618770797062695953

> <PUBCHEM_SHAPE_MULTIPOLES>
435.55
9.92
3.48
1.1
8.22
0.16
0.18
1.66
-2.22
-2.14
0.18
0.78
0.35
-1.21

> <PUBCHEM_SHAPE_SELFOVERLAP>
926.348

> <PUBCHEM_SHAPE_VOLUME>
249.3

> <PUBCHEM_COORDINATE_TYPE>
2
5
10

$$$$
