2974206
  -OEChem-01171812233D

 45 47  0     0  0  0  0  0  0999 V2000
    2.3841   -2.6425   -2.2557 Br  0  0  0  0  0  0  0  0  0  0  0  0
   -4.2564   -1.7049    1.4970 O   0  0  0  0  0  0  0  0  0  0  0  0
   -5.8238    0.3978    0.5857 O   0  0  0  0  0  0  0  0  0  0  0  0
    3.9874    1.4877    1.8629 O   0  0  0  0  0  0  0  0  0  0  0  0
    0.0321   -2.0282   -0.2049 O   0  0  0  0  0  0  0  0  0  0  0  0
    5.9168    0.1139    0.4087 O   0  0  0  0  0  0  0  0  0  0  0  0
    0.1331    1.1058   -1.6161 N   0  0  0  0  0  0  0  0  0  0  0  0
   -1.7981    0.1898   -0.4559 C   0  0  0  0  0  0  0  0  0  0  0  0
   -2.5908    1.2596   -0.9206 C   0  0  0  0  0  0  0  0  0  0  0  0
   -0.4546    0.1708   -0.8360 C   0  0  0  0  0  0  0  0  0  0  0  0
   -2.3709   -0.8020    0.3572 C   0  0  0  0  0  0  0  0  0  0  0  0
   -3.9468    1.3128   -0.5587 C   0  0  0  0  0  0  0  0  0  0  0  0
    0.4592   -0.8857   -0.4152 C   0  0  0  0  0  0  0  0  0  0  0  0
   -3.7193   -0.7337    0.7066 C   0  0  0  0  0  0  0  0  0  0  0  0
   -4.5055    0.3215    0.2497 C   0  0  0  0  0  0  0  0  0  0  0  0
    1.9189   -0.6461   -0.2230 C   0  0  0  0  0  0  0  0  0  0  0  0
   -2.0012    2.2381   -1.7295 C   0  0  0  0  0  0  0  0  0  0  0  0
    2.2708    0.2980    0.7191 C   0  0  0  0  0  0  0  0  0  0  0  0
   -0.6561    2.1148   -2.0423 C   0  0  0  0  0  0  0  0  0  0  0  0
    2.8541   -1.3409   -0.9573 C   0  0  0  0  0  0  0  0  0  0  0  0
    3.6239    0.5583    0.9357 C   0  0  0  0  0  0  0  0  0  0  0  0
    4.5921   -0.1311    0.2058 C   0  0  0  0  0  0  0  0  0  0  0  0
    4.2073   -1.0808   -0.7407 C   0  0  0  0  0  0  0  0  0  0  0  0
   -4.8150   -2.8403    0.8390 C   0  0  0  0  0  0  0  0  0  0  0  0
   -6.1482    1.1072    1.7794 C   0  0  0  0  0  0  0  0  0  0  0  0
    4.1298    2.8329    1.4108 C   0  0  0  0  0  0  0  0  0  0  0  0
    6.5771   -0.6728    1.3983 C   0  0  0  0  0  0  0  0  0  0  0  0
   -1.8176   -1.6244    0.7918 H   0  0  0  0  0  0  0  0  0  0  0  0
   -4.5741    2.1308   -0.9088 H   0  0  0  0  0  0  0  0  0  0  0  0
   -2.5719    3.0795   -2.1102 H   0  0  0  0  0  0  0  0  0  0  0  0
    1.5206    0.8331    1.2952 H   0  0  0  0  0  0  0  0  0  0  0  0
   -0.1631    2.8530   -2.6664 H   0  0  0  0  0  0  0  0  0  0  0  0
    4.9714   -1.6115   -1.3043 H   0  0  0  0  0  0  0  0  0  0  0  0
   -5.6373   -2.5394    0.1823 H   0  0  0  0  0  0  0  0  0  0  0  0
   -5.2068   -3.5195    1.6011 H   0  0  0  0  0  0  0  0  0  0  0  0
   -4.0467   -3.3659    0.2630 H   0  0  0  0  0  0  0  0  0  0  0  0
   -7.2327    1.0735    1.9141 H   0  0  0  0  0  0  0  0  0  0  0  0
   -5.8376    2.1538    1.6999 H   0  0  0  0  0  0  0  0  0  0  0  0
   -5.6732    0.6390    2.6473 H   0  0  0  0  0  0  0  0  0  0  0  0
    4.9060    2.9009    0.6419 H   0  0  0  0  0  0  0  0  0  0  0  0
    4.4261    3.4511    2.2625 H   0  0  0  0  0  0  0  0  0  0  0  0
    3.1790    3.2085    1.0193 H   0  0  0  0  0  0  0  0  0  0  0  0
    6.5454   -1.7332    1.1289 H   0  0  0  0  0  0  0  0  0  0  0  0
    6.1189   -0.5206    2.3807 H   0  0  0  0  0  0  0  0  0  0  0  0
    7.6222   -0.3552    1.4471 H   0  0  0  0  0  0  0  0  0  0  0  0
  1 20  1  0  0  0  0
  2 14  1  0  0  0  0
  2 24  1  0  0  0  0
  3 15  1  0  0  0  0
  3 25  1  0  0  0  0
  4 21  1  0  0  0  0
  4 26  1  0  0  0  0
  5 13  2  0  0  0  0
  6 22  1  0  0  0  0
  6 27  1  0  0  0  0
  7 10  2  0  0  0  0
  7 19  1  0  0  0  0
  8  9  1  0  0  0  0
  8 10  1  0  0  0  0
  8 11  2  0  0  0  0
  9 12  2  0  0  0  0
  9 17  1  0  0  0  0
 10 13  1  0  0  0  0
 11 14  1  0  0  0  0
 11 28  1  0  0  0  0
 12 15  1  0  0  0  0
 12 29  1  0  0  0  0
 13 16  1  0  0  0  0
 14 15  2  0  0  0  0
 16 18  2  0  0  0  0
 16 20  1  0  0  0  0
 17 19  2  0  0  0  0
 17 30  1  0  0  0  0
 18 21  1  0  0  0  0
 18 31  1  0  0  0  0
 19 32  1  0  0  0  0
 20 23  2  0  0  0  0
 21 22  2  0  0  0  0
 22 23  1  0  0  0  0
 23 33  1  0  0  0  0
 24 34  1  0  0  0  0
 24 35  1  0  0  0  0
 24 36  1  0  0  0  0
 25 37  1  0  0  0  0
 25 38  1  0  0  0  0
 25 39  1  0  0  0  0
 26 40  1  0  0  0  0
 26 41  1  0  0  0  0
 26 42  1  0  0  0  0
 27 43  1  0  0  0  0
 27 44  1  0  0  0  0
 27 45  1  0  0  0  0
M  END
> <PUBCHEM_COMPOUND_CID>
2974206

> <PUBCHEM_CONFORMER_RMSD>
0.8

> <PUBCHEM_CONFORMER_DIVERSEORDER>
1
31
18
14
6
30
25
19
36
20
11
35
12
26
15
29
17
32
39
38
16
34
37
22
9
33
21
7
27
2
13
10
28
24
8
23
5
4
3

> <PUBCHEM_MMFF94_PARTIAL_CHARGES>
31
1 -0.11
10 0.4
11 -0.15
12 -0.15
13 0.4
14 0.08
15 0.08
16 0.09
17 -0.15
18 -0.15
19 0.16
2 -0.36
20 0.11
21 0.08
22 0.08
23 -0.15
24 0.28
25 0.28
26 0.28
27 0.28
28 0.15
29 0.15
3 -0.36
30 0.15
31 0.15
32 0.15
33 0.15
4 -0.36
5 -0.57
6 -0.36
7 -0.62

> <PUBCHEM_EFFECTIVE_ROTOR_COUNT>
6

> <PUBCHEM_PHARMACOPHORE_FEATURES>
10
1 1 hydrophobe
1 2 acceptor
1 3 acceptor
1 4 acceptor
1 5 acceptor
1 6 acceptor
1 7 acceptor
6 16 18 20 21 22 23 rings
6 7 8 9 10 17 19 rings
6 8 9 11 12 14 15 rings

> <PUBCHEM_HEAVY_ATOM_COUNT>
27

> <PUBCHEM_ATOM_DEF_STEREO_COUNT>
0

> <PUBCHEM_ATOM_UDEF_STEREO_COUNT>
0

> <PUBCHEM_BOND_DEF_STEREO_COUNT>
0

> <PUBCHEM_BOND_UDEF_STEREO_COUNT>
0

> <PUBCHEM_ISOTOPIC_ATOM_COUNT>
0

> <PUBCHEM_COMPONENT_COUNT>
1

> <PUBCHEM_CACTVS_TAUTO_COUNT>
1

> <PUBCHEM_CONFORMER_ID>
002D61FE00000001

> <PUBCHEM_MMFF94_ENERGY>
133.7163

> <PUBCHEM_FEATURE_SELFOVERLAP>
50.786

> <PUBCHEM_SHAPE_FINGERPRINT>
10165383 225 18343590650925535244
10319926 262 18042385977341715648
10369192 42 17913488219289579656
11045977 3 18413107277427795065
11370993 144 18059021566689575935
11595378 159 17313654976098390476
11796584 16 14996288007194509097
12035758 1 18270942593716598776
12236239 1 15719679775061077518
12422481 6 18337391642257922437
12553582 1 17603875503009601443
12616971 3 15864080866220054207
12633257 1 18271795844261295698
12788726 201 17096101186026934533
13034934 17 18412260640389363991
13140716 1 17969801824813850233
13540713 5 17826256235564560205
13583140 156 18116689877803536638
13782708 43 18410012109605304262
14081887 123 18114174199298980085
15183329 4 13326862115104734652
15348495 7 18411982493943339923
17349148 13 15936411126103547450
18785283 64 18270679900342112624
20511986 3 15502372331064600420
20567600 247 13190344608180088705
21033648 29 18272075081059177817
21792961 116 18341049598498291190
22122407 14 17131841966918093953
22182313 1 18189616038750976727
23366157 5 13900534450143839301
23402539 116 17894909641990801807
23557571 272 18188494575176319277
23559900 14 18042971960735552350
3004659 81 14996285811986218065
3383291 50 18114475565177367547
392239 28 18412545405289807553
439807 62 14057588803162466849
474 4 17632852040868964294
5104073 3 18410572928615922817
5252454 2 17840854494191234016
57527293 21 18333728052508493898
7495541 125 18334853927331354552
8272917 22 17131838603573695766

> <PUBCHEM_SHAPE_MULTIPOLES>
527.26
13.92
2.68
1.91
0.28
0.42
0.49
-0.63
-8.83
0.23
0.39
-0.08
-0.38
2.96

> <PUBCHEM_SHAPE_SELFOVERLAP>
1136.671

> <PUBCHEM_SHAPE_VOLUME>
298.9

> <PUBCHEM_COORDINATE_TYPE>
2
5
10

$$$$
