1020489
  -OEChem-01171812243D

 35 37  0     0  0  0  0  0  0999 V2000
    5.5472   -1.0555   -2.3400 Br  0  0  0  0  0  0  0  0  0  0  0  0
   -4.6304   -3.6153    0.3129 Br  0  0  0  0  0  0  0  0  0  0  0  0
   -1.8051    1.5556   -1.0293 O   0  0  0  0  0  0  0  0  0  0  0  0
   -0.7579   -0.2835    2.0291 O   0  0  0  0  0  0  0  0  0  0  0  0
   -0.7955    4.5057    0.7425 O   0  0  0  0  0  0  0  0  0  0  0  0
    0.2592    3.3279   -0.8969 O   0  0  0  0  0  0  0  0  0  0  0  0
    1.6013   -0.2338    2.1429 N   0  0  0  0  0  0  0  0  0  0  0  0
    2.1230   -0.6548   -0.0569 C   0  0  0  0  0  0  0  0  0  0  0  0
    0.6717   -0.6434    0.0918 C   0  0  0  0  0  0  0  0  0  0  0  0
    2.6378   -0.4010    1.2178 C   0  0  0  0  0  0  0  0  0  0  0  0
    0.3501   -0.3675    1.5322 C   0  0  0  0  0  0  0  0  0  0  0  0
   -0.2613   -0.8359   -0.8425 C   0  0  0  0  0  0  0  0  0  0  0  0
   -1.7196   -0.8113   -0.6253 C   0  0  0  0  0  0  0  0  0  0  0  0
    2.9678   -0.8531   -1.1325 C   0  0  0  0  0  0  0  0  0  0  0  0
    3.9945   -0.3359    1.4679 C   0  0  0  0  0  0  0  0  0  0  0  0
   -2.4234    0.3781   -0.7280 C   0  0  0  0  0  0  0  0  0  0  0  0
    4.3463   -0.7910   -0.9014 C   0  0  0  0  0  0  0  0  0  0  0  0
    4.8544   -0.5349    0.3861 C   0  0  0  0  0  0  0  0  0  0  0  0
   -2.3596   -2.0021   -0.3184 C   0  0  0  0  0  0  0  0  0  0  0  0
   -3.8023    0.3773   -0.5183 C   0  0  0  0  0  0  0  0  0  0  0  0
   -3.7385   -2.0030   -0.1087 C   0  0  0  0  0  0  0  0  0  0  0  0
   -4.4599   -0.8134   -0.2086 C   0  0  0  0  0  0  0  0  0  0  0  0
   -1.9074    2.6041   -0.0690 C   0  0  0  0  0  0  0  0  0  0  0  0
   -0.6926    3.4866   -0.1474 C   0  0  0  0  0  0  0  0  0  0  0  0
    0.0297   -1.0326   -1.8720 H   0  0  0  0  0  0  0  0  0  0  0  0
    1.7539   -0.0409    3.1257 H   0  0  0  0  0  0  0  0  0  0  0  0
    2.5714   -1.0500   -2.1234 H   0  0  0  0  0  0  0  0  0  0  0  0
    4.3843   -0.1386    2.4599 H   0  0  0  0  0  0  0  0  0  0  0  0
    5.9279   -0.4887    0.5553 H   0  0  0  0  0  0  0  0  0  0  0  0
   -1.7945   -2.9283   -0.2409 H   0  0  0  0  0  0  0  0  0  0  0  0
   -4.3798    1.2940   -0.6011 H   0  0  0  0  0  0  0  0  0  0  0  0
   -5.5351   -0.7971   -0.0497 H   0  0  0  0  0  0  0  0  0  0  0  0
   -2.7931    3.2058   -0.2974 H   0  0  0  0  0  0  0  0  0  0  0  0
   -1.9678    2.1990    0.9482 H   0  0  0  0  0  0  0  0  0  0  0  0
   -0.0144    5.0984    0.7121 H   0  0  0  0  0  0  0  0  0  0  0  0
  1 17  1  0  0  0  0
  2 21  1  0  0  0  0
  3 16  1  0  0  0  0
  3 23  1  0  0  0  0
  4 11  2  0  0  0  0
  5 24  1  0  0  0  0
  5 35  1  0  0  0  0
  6 24  2  0  0  0  0
  7 10  1  0  0  0  0
  7 11  1  0  0  0  0
  7 26  1  0  0  0  0
  8  9  1  0  0  0  0
  8 10  2  0  0  0  0
  8 14  1  0  0  0  0
  9 11  1  0  0  0  0
  9 12  2  0  0  0  0
 10 15  1  0  0  0  0
 12 13  1  0  0  0  0
 12 25  1  0  0  0  0
 13 16  2  0  0  0  0
 13 19  1  0  0  0  0
 14 17  2  0  0  0  0
 14 27  1  0  0  0  0
 15 18  2  0  0  0  0
 15 28  1  0  0  0  0
 16 20  1  0  0  0  0
 17 18  1  0  0  0  0
 18 29  1  0  0  0  0
 19 21  2  0  0  0  0
 19 30  1  0  0  0  0
 20 22  2  0  0  0  0
 20 31  1  0  0  0  0
 21 22  1  0  0  0  0
 22 32  1  0  0  0  0
 23 24  1  0  0  0  0
 23 33  1  0  0  0  0
 23 34  1  0  0  0  0
M  END
> <PUBCHEM_COMPOUND_CID>
1020489

> <PUBCHEM_CONFORMER_RMSD>
0.8

> <PUBCHEM_CONFORMER_DIVERSEORDER>
1
2
4
9
10
8
3
7
5
6

> <PUBCHEM_MMFF94_PARTIAL_CHARGES>
33
1 -0.11
10 0.12
11 0.62
12 -0.18
13 0.03
14 -0.15
15 -0.15
16 0.08
17 0.11
18 -0.15
19 -0.15
2 -0.11
20 -0.15
21 0.11
22 -0.15
23 0.34
24 0.66
25 0.15
26 0.37
27 0.15
28 0.15
29 0.15
3 -0.36
30 0.15
31 0.15
32 0.15
35 0.5
4 -0.57
5 -0.65
6 -0.57
7 -0.55
8 0.03
9 -0.01

> <PUBCHEM_EFFECTIVE_ROTOR_COUNT>
4.2

> <PUBCHEM_PHARMACOPHORE_FEATURES>
11
1 1 hydrophobe
1 2 hydrophobe
1 3 acceptor
1 4 acceptor
1 5 acceptor
1 6 acceptor
1 7 donor
3 5 6 24 anion
5 7 8 9 10 11 rings
6 13 16 19 20 21 22 rings
6 8 10 14 15 17 18 rings

> <PUBCHEM_HEAVY_ATOM_COUNT>
24

> <PUBCHEM_ATOM_DEF_STEREO_COUNT>
0

> <PUBCHEM_ATOM_UDEF_STEREO_COUNT>
0

> <PUBCHEM_BOND_DEF_STEREO_COUNT>
1

> <PUBCHEM_BOND_UDEF_STEREO_COUNT>
0

> <PUBCHEM_ISOTOPIC_ATOM_COUNT>
0

> <PUBCHEM_COMPONENT_COUNT>
1

> <PUBCHEM_CACTVS_TAUTO_COUNT>
2

> <PUBCHEM_CONFORMER_ID>
000F924900000001

> <PUBCHEM_MMFF94_ENERGY>
76.8918

> <PUBCHEM_FEATURE_SELFOVERLAP>
55.972

> <PUBCHEM_SHAPE_FINGERPRINT>
10165383 225 17554345621744814433
10369192 42 17200774869591440504
10498660 4 18194106435248530269
11049842 53 17690547599050372594
11640471 11 17315913256780634320
12156800 1 16412427101790630281
12236239 1 17240196625853784119
12553582 1 18335692858734733103
12741549 16 17560504180014093457
12788726 201 18260551078345164955
13009979 54 17461693152858363778
13540713 4 17755000224221706095
13782708 43 17775564234380082502
13994607 96 17606143721961344668
14713325 29 18198637535619692206
14787075 74 17823411776437957360
14955137 171 18339374062413957555
15324884 4 18058427946242929103
15961568 22 18337945818527763536
17349148 13 17095512960306780618
17357779 13 18058708261430906877
17818456 19 17758376505938186906
1813 80 18270119148763087279
18222031 100 18268983358016301095
200 152 16226036799970714575
21033648 29 17632565077035345899
21033650 10 18192448389710786482
2297311 6 18411427206201414831
23175994 123 17418375804901725811
23352939 185 18199760295731491345
23557571 272 18341886368820644896
23559900 14 18340485560963641390
4058900 60 17049944594010172441
46194498 28 18201726176311198868
495365 180 9150360612348419243
621550 5 17988649618060004218
6287921 2 17841418542864466105
6442390 28 17766285280271414537
6786 2 17405731185069948369

> <PUBCHEM_SHAPE_MULTIPOLES>
477.34
10.05
3.8
1.71
5.81
5.04
0.36
-8.72
-3.02
-4.66
-0.21
2.24
-0.3
1.02

> <PUBCHEM_SHAPE_SELFOVERLAP>
1017.963

> <PUBCHEM_SHAPE_VOLUME>
272.6

> <PUBCHEM_COORDINATE_TYPE>
2
5
10

$$$$
