4834963
  -OEChem-01171812243D

 40 41  0     1  0  0  0  0  0999 V2000
    4.1281    0.4505    1.0640 S   0  0  0  0  0  0  0  0  0  0  0  0
    0.2953   -0.2736    0.6936 O   0  0  0  0  0  0  0  0  0  0  0  0
   -2.6851    2.0797   -0.7945 O   0  0  0  0  0  0  0  0  0  0  0  0
   -2.6320   -3.9099   -0.7264 O   0  0  0  0  0  0  0  0  0  0  0  0
   -3.7725    2.0189    1.2482 O   0  0  0  0  0  0  0  0  0  0  0  0
    1.4489    0.7436    2.3948 O   0  0  0  0  0  0  0  0  0  0  0  0
    6.8717   -0.4558   -1.4962 O   0  5  0  0  0  0  0  0  0  0  0  0
    6.9484    0.5475    0.4596 O   0  0  0  0  0  0  0  0  0  0  0  0
   -3.8738   -2.0035   -0.9969 N   0  0  0  0  0  0  0  0  0  0  0  0
   -1.9551   -1.9982    0.3433 N   0  0  0  0  0  0  0  0  0  0  0  0
    6.2949   -0.0137   -0.4637 N   0  3  0  0  0  0  0  0  0  0  0  0
   -4.2579   -0.6551   -0.5891 C   0  0  2  0  0  0  0  0  0  0  0  0
   -3.1262    0.0292    0.1343 C   0  0  0  0  0  0  0  0  0  0  0  0
   -2.0581   -0.6454    0.5989 C   0  0  0  0  0  0  0  0  0  0  0  0
   -5.5144   -0.7279    0.2784 C   0  0  0  0  0  0  0  0  0  0  0  0
   -0.9162   -0.0847    1.3986 C   0  0  0  0  0  0  0  0  0  0  0  0
   -2.8154   -2.7188   -0.4681 C   0  0  0  0  0  0  0  0  0  0  0  0
   -3.2465    1.4878    0.2874 C   0  0  0  0  0  0  0  0  0  0  0  0
   -2.7235    3.5105   -0.7923 C   0  0  0  0  0  0  0  0  0  0  0  0
    1.4400    0.1901    1.3001 C   0  0  0  0  0  0  0  0  0  0  0  0
    2.6233   -0.0617    0.4763 C   0  0  0  0  0  0  0  0  0  0  0  0
   -2.0638    4.0235   -2.0545 C   0  0  0  0  0  0  0  0  0  0  0  0
    2.6734   -0.6661   -0.7352 C   0  0  0  0  0  0  0  0  0  0  0  0
    4.9044   -0.1474   -0.3403 C   0  0  0  0  0  0  0  0  0  0  0  0
    4.0121   -0.7195   -1.2203 C   0  0  0  0  0  0  0  0  0  0  0  0
   -4.4874   -0.1179   -1.5168 H   0  0  0  0  0  0  0  0  0  0  0  0
   -4.4891   -2.4885   -1.6431 H   0  0  0  0  0  0  0  0  0  0  0  0
   -6.3197   -1.2484   -0.2525 H   0  0  0  0  0  0  0  0  0  0  0  0
   -5.3286   -1.2774    1.2086 H   0  0  0  0  0  0  0  0  0  0  0  0
   -5.8801    0.2705    0.5397 H   0  0  0  0  0  0  0  0  0  0  0  0
   -1.1528   -2.4864    0.7321 H   0  0  0  0  0  0  0  0  0  0  0  0
   -0.8649   -0.6030    2.3646 H   0  0  0  0  0  0  0  0  0  0  0  0
   -1.0528    0.9837    1.5989 H   0  0  0  0  0  0  0  0  0  0  0  0
   -3.7653    3.8479   -0.7554 H   0  0  0  0  0  0  0  0  0  0  0  0
   -2.1875    3.8886    0.0855 H   0  0  0  0  0  0  0  0  0  0  0  0
   -2.5779    3.6389   -2.9415 H   0  0  0  0  0  0  0  0  0  0  0  0
   -1.0262    3.6788   -2.1141 H   0  0  0  0  0  0  0  0  0  0  0  0
   -2.0754    5.1165   -2.0855 H   0  0  0  0  0  0  0  0  0  0  0  0
    1.8209   -1.0594   -1.2740 H   0  0  0  0  0  0  0  0  0  0  0  0
    4.2929   -1.1589   -2.1695 H   0  0  0  0  0  0  0  0  0  0  0  0
  1 21  1  0  0  0  0
  1 24  1  0  0  0  0
  2 16  1  0  0  0  0
  2 20  1  0  0  0  0
  3 18  1  0  0  0  0
  3 19  1  0  0  0  0
  4 17  2  0  0  0  0
  5 18  2  0  0  0  0
  6 20  2  0  0  0  0
  7 11  1  0  0  0  0
  8 11  2  0  0  0  0
  9 12  1  0  0  0  0
  9 17  1  0  0  0  0
  9 27  1  0  0  0  0
 10 14  1  0  0  0  0
 10 17  1  0  0  0  0
 10 31  1  0  0  0  0
 11 24  1  0  0  0  0
 12 13  1  0  0  0  0
 12 15  1  0  0  0  0
 12 26  1  0  0  0  0
 13 14  2  0  0  0  0
 13 18  1  0  0  0  0
 14 16  1  0  0  0  0
 15 28  1  0  0  0  0
 15 29  1  0  0  0  0
 15 30  1  0  0  0  0
 16 32  1  0  0  0  0
 16 33  1  0  0  0  0
 19 22  1  0  0  0  0
 19 34  1  0  0  0  0
 19 35  1  0  0  0  0
 20 21  1  0  0  0  0
 21 23  2  0  0  0  0
 22 36  1  0  0  0  0
 22 37  1  0  0  0  0
 22 38  1  0  0  0  0
 23 25  1  0  0  0  0
 23 39  1  0  0  0  0
 24 25  2  0  0  0  0
 25 40  1  0  0  0  0
M  CHG  2   7  -1  11   1
M  END
> <PUBCHEM_COMPOUND_CID>
4834963

> <PUBCHEM_CONFORMER_RMSD>
1

> <PUBCHEM_CONFORMER_DIVERSEORDER>
1
122
110
5
44
7
13
120
96
67
57
115
124
48
84
46
71
88
16
62
22
118
82
70
27
20
92
11
12
134
19
104
72
10
15
86
93
121
24
128
108
116
45
43
55
59
26
53
101
36
33
30
8
56
18
89
117
127
91
2
49
64
129
3
132
50
73
131
28
51
75
31
76
80
17
39
60
87
74
32
83
68
102
6
90
114
106
41
21
61
105
103
123
47
107
23
100
81
37
65
126
58
99
85
111
79
135
69
4
77
54
14
119
52
98
95
112
35
34
38
130
97
109
133
40
78
113
42
125
66
29
9
94
63
25

> <PUBCHEM_MMFF94_PARTIAL_CHARGES>
27
1 -0.08
10 -0.54
11 0.96
12 0.44
13 -0.12
14 -0.03
16 0.42
17 0.69
18 0.71
19 0.28
2 -0.43
20 0.81
21 -0.05
23 -0.15
24 0.12
25 -0.15
27 0.37
3 -0.43
31 0.37
39 0.15
4 -0.57
40 0.15
5 -0.57
6 -0.57
7 -0.52
8 -0.52
9 -0.73

> <PUBCHEM_EFFECTIVE_ROTOR_COUNT>
8.6

> <PUBCHEM_PHARMACOPHORE_FEATURES>
10
1 10 donor
1 4 acceptor
1 5 acceptor
1 6 acceptor
1 7 acceptor
1 7 anion
1 8 acceptor
1 9 donor
5 1 21 23 24 25 rings
6 9 10 12 13 14 17 rings

> <PUBCHEM_HEAVY_ATOM_COUNT>
25

> <PUBCHEM_ATOM_DEF_STEREO_COUNT>
0

> <PUBCHEM_ATOM_UDEF_STEREO_COUNT>
1

> <PUBCHEM_BOND_DEF_STEREO_COUNT>
0

> <PUBCHEM_BOND_UDEF_STEREO_COUNT>
0

> <PUBCHEM_ISOTOPIC_ATOM_COUNT>
0

> <PUBCHEM_COMPONENT_COUNT>
1

> <PUBCHEM_CACTVS_TAUTO_COUNT>
5

> <PUBCHEM_CONFORMER_ID>
0049C69300000001

> <PUBCHEM_MMFF94_ENERGY>
47.1028

> <PUBCHEM_FEATURE_SELFOVERLAP>
50.87

> <PUBCHEM_SHAPE_FINGERPRINT>
10087517 78 18040715866535066524
10165383 225 18200320888592139745
10319688 140 16609696311422569399
10670039 82 18187363199450041340
10803635 8 18343022151563481530
10871710 139 17967810497339378781
12236239 1 17240478100587408050
12788726 201 18114452397289516729
13402501 40 17846782935569084103
13761468 95 17389944457422138620
14251757 5 18411421691484433944
14910302 57 18201146736960021346
14955137 171 18266185114367195139
15183329 4 16588025685311493450
15463212 79 18260825969005467011
15575132 122 17969498217786891397
19489759 90 18410293618804025066
19958102 18 18341612564371000639
20693207 138 17988917911692549025
21033650 10 18116451258173996764
21756936 100 17676215636532746745
22393880 68 18273213089085430578
22907989 373 18043788932820069773
23557571 272 18273498974571424640
23559900 14 17916577773215177826
314194 84 15410896237300646910
3633792 109 11095063465990326209
46194498 28 18342739663132907012
5283173 99 18343303635330450848
531348 171 18263363599383298146
59755656 520 17702399355160604937
6327066 14 17898845747880048581
7808743 9 18043526110201192141

> <PUBCHEM_SHAPE_MULTIPOLES>
462.31
14.13
3.46
1.58
23.62
2
0.22
-1.02
-3.23
-7.05
-2.32
0.61
0.62
0.55

> <PUBCHEM_SHAPE_SELFOVERLAP>
959.716

> <PUBCHEM_SHAPE_VOLUME>
264.8

> <PUBCHEM_COORDINATE_TYPE>
2
5
10

$$$$
