5737802
  -OEChem-01171812203D

 50 53  0     0  0  0  0  0  0999 V2000
    7.2839    0.3103   -1.4811 O   0  0  0  0  0  0  0  0  0  0  0  0
   -2.1924    1.5903    1.7385 O   0  0  0  0  0  0  0  0  0  0  0  0
    5.0492    0.9828   -1.0465 N   0  0  0  0  0  0  0  0  0  0  0  0
    5.9036   -0.7619    0.1253 N   0  0  0  0  0  0  0  0  0  0  0  0
   -2.6094   -0.0070    0.0208 N   0  0  0  0  0  0  0  0  0  0  0  0
   -1.8494   -0.8693   -0.7663 N   0  0  0  0  0  0  0  0  0  0  0  0
    4.0573    0.5196   -0.1678 C   0  0  0  0  0  0  0  0  0  0  0  0
    4.5828   -0.5536    0.5530 C   0  0  0  0  0  0  0  0  0  0  0  0
    1.9994    0.2989    0.9905 C   0  0  0  0  0  0  0  0  0  0  0  0
    2.7667    0.9667    0.0317 C   0  0  0  0  0  0  0  0  0  0  0  0
    6.2231    0.1928   -0.8824 C   0  0  0  0  0  0  0  0  0  0  0  0
    3.8396   -1.2245    1.5033 C   0  0  0  0  0  0  0  0  0  0  0  0
    2.5302   -0.7848    1.7185 C   0  0  0  0  0  0  0  0  0  0  0  0
   -0.4740    0.2983    0.6407 C   0  0  0  0  0  0  0  0  0  0  0  0
    0.6317    0.7290    1.2430 C   0  0  0  0  0  0  0  0  0  0  0  0
    4.8769    2.0844   -1.9588 C   0  0  0  0  0  0  0  0  0  0  0  0
    6.7733   -1.7868    0.6435 C   0  0  0  0  0  0  0  0  0  0  0  0
   -0.6034   -0.7047   -0.4163 C   0  0  0  0  0  0  0  0  0  0  0  0
   -1.8483    0.7572    0.9225 C   0  0  0  0  0  0  0  0  0  0  0  0
   -3.9889    0.0887   -0.0761 C   0  0  0  0  0  0  0  0  0  0  0  0
   -6.1370   -0.9240   -0.5606 C   0  0  0  0  0  0  0  0  0  0  0  0
   -4.7491   -1.0208   -0.4624 C   0  0  0  0  0  0  0  0  0  0  0  0
   -6.7739    0.2833   -0.2729 C   0  0  0  0  0  0  0  0  0  0  0  0
   -4.6348    1.2966    0.2109 C   0  0  0  0  0  0  0  0  0  0  0  0
    0.5447   -1.4409   -1.0167 C   0  0  0  0  0  0  0  0  0  0  0  0
   -6.0229    1.3936    0.1128 C   0  0  0  0  0  0  0  0  0  0  0  0
   -6.9205   -2.1258   -0.9756 C   0  0  0  0  0  0  0  0  0  0  0  0
   -8.2586    0.4114   -0.3714 C   0  0  0  0  0  0  0  0  0  0  0  0
    2.3656    1.8021   -0.5327 H   0  0  0  0  0  0  0  0  0  0  0  0
    4.2412   -2.0586    2.0666 H   0  0  0  0  0  0  0  0  0  0  0  0
    1.9223   -1.2960    2.4625 H   0  0  0  0  0  0  0  0  0  0  0  0
    0.5477    1.4887    2.0181 H   0  0  0  0  0  0  0  0  0  0  0  0
    4.0596    1.8575   -2.6493 H   0  0  0  0  0  0  0  0  0  0  0  0
    5.7952    2.2434   -2.5305 H   0  0  0  0  0  0  0  0  0  0  0  0
    4.6462    2.9908   -1.3919 H   0  0  0  0  0  0  0  0  0  0  0  0
    7.7459   -1.7380    0.1464 H   0  0  0  0  0  0  0  0  0  0  0  0
    6.3259   -2.7677    0.4599 H   0  0  0  0  0  0  0  0  0  0  0  0
    6.9120   -1.6346    1.7176 H   0  0  0  0  0  0  0  0  0  0  0  0
   -4.2597   -1.9674   -0.6816 H   0  0  0  0  0  0  0  0  0  0  0  0
   -4.0907    2.1989    0.4713 H   0  0  0  0  0  0  0  0  0  0  0  0
   -6.5027    2.3441    0.3310 H   0  0  0  0  0  0  0  0  0  0  0  0
    1.2305   -0.7525   -1.5127 H   0  0  0  0  0  0  0  0  0  0  0  0
    0.1652   -2.1279   -1.7807 H   0  0  0  0  0  0  0  0  0  0  0  0
    1.0554   -2.0437   -0.2646 H   0  0  0  0  0  0  0  0  0  0  0  0
   -6.2721   -2.9880   -1.1666 H   0  0  0  0  0  0  0  0  0  0  0  0
   -7.6230   -2.4187   -0.1887 H   0  0  0  0  0  0  0  0  0  0  0  0
   -7.4718   -1.9263   -1.9003 H   0  0  0  0  0  0  0  0  0  0  0  0
   -8.7523   -0.2828    0.3164 H   0  0  0  0  0  0  0  0  0  0  0  0
   -8.5972    1.4201   -0.1099 H   0  0  0  0  0  0  0  0  0  0  0  0
   -8.5958    0.2128   -1.3940 H   0  0  0  0  0  0  0  0  0  0  0  0
  1 11  2  0  0  0  0
  2 19  2  0  0  0  0
  3  7  1  0  0  0  0
  3 11  1  0  0  0  0
  3 16  1  0  0  0  0
  4  8  1  0  0  0  0
  4 11  1  0  0  0  0
  4 17  1  0  0  0  0
  5  6  1  0  0  0  0
  5 19  1  0  0  0  0
  5 20  1  0  0  0  0
  6 18  2  0  0  0  0
  7  8  2  0  0  0  0
  7 10  1  0  0  0  0
  8 12  1  0  0  0  0
  9 10  2  0  0  0  0
  9 13  1  0  0  0  0
  9 15  1  0  0  0  0
 10 29  1  0  0  0  0
 12 13  2  0  0  0  0
 12 30  1  0  0  0  0
 13 31  1  0  0  0  0
 14 15  2  0  0  0  0
 14 18  1  0  0  0  0
 14 19  1  0  0  0  0
 15 32  1  0  0  0  0
 16 33  1  0  0  0  0
 16 34  1  0  0  0  0
 16 35  1  0  0  0  0
 17 36  1  0  0  0  0
 17 37  1  0  0  0  0
 17 38  1  0  0  0  0
 18 25  1  0  0  0  0
 20 22  2  0  0  0  0
 20 24  1  0  0  0  0
 21 22  1  0  0  0  0
 21 23  2  0  0  0  0
 21 27  1  0  0  0  0
 22 39  1  0  0  0  0
 23 26  1  0  0  0  0
 23 28  1  0  0  0  0
 24 26  2  0  0  0  0
 24 40  1  0  0  0  0
 25 42  1  0  0  0  0
 25 43  1  0  0  0  0
 25 44  1  0  0  0  0
 26 41  1  0  0  0  0
 27 45  1  0  0  0  0
 27 46  1  0  0  0  0
 27 47  1  0  0  0  0
 28 48  1  0  0  0  0
 28 49  1  0  0  0  0
 28 50  1  0  0  0  0
M  END
> <PUBCHEM_COMPOUND_CID>
5737802

> <PUBCHEM_CONFORMER_RMSD>
0.6

> <PUBCHEM_CONFORMER_DIVERSEORDER>
1
4
5
3
2

> <PUBCHEM_MMFF94_PARTIAL_CHARGES>
35
1 -0.57
10 -0.15
11 0.69
12 -0.15
13 -0.15
14 0.03
15 -0.18
16 0.3
17 0.3
18 0.37
19 0.62
2 -0.57
20 0.12
21 -0.14
22 -0.15
23 -0.14
24 -0.15
25 0.06
26 -0.15
27 0.14
28 0.14
29 0.15
3 -0.48
30 0.15
31 0.15
32 0.15
39 0.15
4 -0.48
40 0.15
41 0.15
5 -0.11
6 -0.51
7 0.12
8 0.12
9 0.03

> <PUBCHEM_EFFECTIVE_ROTOR_COUNT>
2.2

> <PUBCHEM_PHARMACOPHORE_FEATURES>
7
1 1 acceptor
1 2 acceptor
1 6 acceptor
5 3 4 7 8 11 rings
5 5 6 14 18 19 rings
6 20 21 22 23 24 26 rings
6 7 8 9 10 12 13 rings

> <PUBCHEM_HEAVY_ATOM_COUNT>
28

> <PUBCHEM_ATOM_DEF_STEREO_COUNT>
0

> <PUBCHEM_ATOM_UDEF_STEREO_COUNT>
0

> <PUBCHEM_BOND_DEF_STEREO_COUNT>
1

> <PUBCHEM_BOND_UDEF_STEREO_COUNT>
0

> <PUBCHEM_ISOTOPIC_ATOM_COUNT>
0

> <PUBCHEM_COMPONENT_COUNT>
1

> <PUBCHEM_CACTVS_TAUTO_COUNT>
1

> <PUBCHEM_CONFORMER_ID>
00578D4A00000001

> <PUBCHEM_MMFF94_ENERGY>
107.176

> <PUBCHEM_FEATURE_SELFOVERLAP>
35.621

> <PUBCHEM_SHAPE_FINGERPRINT>
10165383 225 16298109796504755302
10299344 5 18334856108837189227
10319688 140 16806432609885046426
10638233 991 17967813859982254037
10670039 82 17845942835512718305
10693767 8 18263082107828605346
11181472 205 17460579339981352829
11524674 6 16200147725485376335
11646440 116 15985104132400651939
11719270 70 17989485191005251151
11963148 33 18060409231874302767
11991303 11 18411131481072297327
12166972 35 18412544344675945897
12236239 1 18409729547863944672
13533116 47 17531519893601107522
13617811 41 17988927764326790484
13673619 4 15626230108710896832
13685833 64 14979960263690356224
13782708 43 16056884628033173407
13862211 1 17774998016499230403
14170010 4 14405181777305009730
14294032 229 17915194416290904441
14344974 204 16557045995853397639
14856354 85 18343022207988432701
14933364 13 17603867801932747349
15183329 4 18342462534061498812
15419008 47 16415193455997601609
15510800 12 15625681440045903212
1577012 14 18335703827511403936
18335252 114 17603585236324383708
18608769 82 17632572781752818663
18681886 176 18201432618557516040
21130935 74 11672066350045315365
21150785 3 18333732433280196781
21267235 1 17917712440025912331
21315759 40 18412544288513686883
21781051 124 17988085598797616855
220451 1 18408036304542404387
221357 26 17530680992510750820
22224240 67 14634871967569966392
22956985 138 17627237754115261246
2303208 19 16845572045752620223
23035841 295 18202844353565883179
23081809 10 18260823791899724241
23198884 109 17967814946898759801
23516275 137 18190757344870236115
23522609 53 18266763345039620489
23559900 14 17274814813467228344
249057 25 18337681832225073456
29717793 49 18409169892277052746
3004659 81 18272086114867006424
335352 9 17846212272423675949
3383291 50 16630807729270478175
34797466 226 17676206857582540007
394071 54 16298392378712727444
4073 2 16805331010654679083
4325135 7 18411417298465717013
4340502 62 11743838071181216844
504579 68 18336533985388321775
5758199 1 14418130691612689337
58902169 19 18187082879476467254
59755656 215 17275387581752622983
59755656 520 18334007311783896007

> <PUBCHEM_SHAPE_MULTIPOLES>
544.56
22.28
1.69
1.44
11.57
0.06
0.08
1.65
-7.02
-0.32
-0.32
-1.4
-0.18
-2.85

> <PUBCHEM_SHAPE_SELFOVERLAP>
1197.944

> <PUBCHEM_SHAPE_VOLUME>
295.9

> <PUBCHEM_COORDINATE_TYPE>
2
5
10

$$$$
