2424610
  -OEChem-01171812223D

 36 37  0     0  0  0  0  0  0999 V2000
    7.3032   -0.7812   -0.0688 S   0  0  0  0  0  0  0  0  0  0  0  0
   -5.7258    0.9482    0.0273 S   0  0  0  0  0  0  0  0  0  0  0  0
   -1.8427    0.5314   -0.0142 O   0  0  0  0  0  0  0  0  0  0  0  0
    7.3101   -2.1076   -0.6698 O   0  0  0  0  0  0  0  0  0  0  0  0
    8.1634    0.2622   -0.6096 O   0  0  0  0  0  0  0  0  0  0  0  0
    0.4835   -0.7859   -0.0602 O   0  0  0  0  0  0  0  0  0  0  0  0
   -3.1502    2.4259    0.0242 O   0  0  0  0  0  0  0  0  0  0  0  0
   -8.3173   -1.9131    0.0076 O   0  5  0  0  0  0  0  0  0  0  0  0
   -8.5322    0.2755    0.0485 O   0  0  0  0  0  0  0  0  0  0  0  0
    1.7206    1.2189   -0.0136 N   0  0  0  0  0  0  0  0  0  0  0  0
    7.6121   -0.9330    1.6049 N   0  0  0  0  0  0  0  0  0  0  0  0
   -7.8072   -0.7581    0.0226 N   0  3  0  0  0  0  0  0  0  0  0  0
    5.6600   -0.1923   -0.0520 C   0  0  0  0  0  0  0  0  0  0  0  0
    3.0338    0.7485   -0.0258 C   0  0  0  0  0  0  0  0  0  0  0  0
    4.5960   -1.0939   -0.0734 C   0  0  0  0  0  0  0  0  0  0  0  0
    5.4109    1.1797   -0.0173 C   0  0  0  0  0  0  0  0  0  0  0  0
    3.2829   -0.6237   -0.0605 C   0  0  0  0  0  0  0  0  0  0  0  0
    4.0977    1.6501   -0.0042 C   0  0  0  0  0  0  0  0  0  0  0  0
    0.5694    0.4372   -0.0315 C   0  0  0  0  0  0  0  0  0  0  0  0
   -0.6686    1.3155   -0.0095 C   0  0  0  0  0  0  0  0  0  0  0  0
   -4.1810    0.2760   -0.0013 C   0  0  0  0  0  0  0  0  0  0  0  0
   -4.1306   -1.0649   -0.0227 C   0  0  0  0  0  0  0  0  0  0  0  0
   -3.0276    1.2109    0.0043 C   0  0  0  0  0  0  0  0  0  0  0  0
   -6.4116   -0.6207    0.0110 C   0  0  0  0  0  0  0  0  0  0  0  0
   -5.4488   -1.6056   -0.0157 C   0  0  0  0  0  0  0  0  0  0  0  0
    4.7683   -2.1665   -0.0939 H   0  0  0  0  0  0  0  0  0  0  0  0
    6.2241    1.8995    0.0064 H   0  0  0  0  0  0  0  0  0  0  0  0
    2.5244   -1.3919   -0.0777 H   0  0  0  0  0  0  0  0  0  0  0  0
    3.9180    2.7219    0.0242 H   0  0  0  0  0  0  0  0  0  0  0  0
    1.6087    2.2300    0.0110 H   0  0  0  0  0  0  0  0  0  0  0  0
   -0.6502    1.9600   -0.8964 H   0  0  0  0  0  0  0  0  0  0  0  0
   -0.6392    1.9321    0.8967 H   0  0  0  0  0  0  0  0  0  0  0  0
    7.6800   -1.8818    1.9930 H   0  0  0  0  0  0  0  0  0  0  0  0
    8.2613   -0.2615    2.0328 H   0  0  0  0  0  0  0  0  0  0  0  0
   -3.2315   -1.6670   -0.0419 H   0  0  0  0  0  0  0  0  0  0  0  0
   -5.6661   -2.6665   -0.0300 H   0  0  0  0  0  0  0  0  0  0  0  0
  1  4  2  0  0  0  0
  1  5  2  0  0  0  0
  1 11  1  0  0  0  0
  1 13  1  0  0  0  0
  2 21  1  0  0  0  0
  2 24  1  0  0  0  0
  3 20  1  0  0  0  0
  3 23  1  0  0  0  0
  6 19  2  0  0  0  0
  7 23  2  0  0  0  0
  8 12  1  0  0  0  0
  9 12  2  0  0  0  0
 10 14  1  0  0  0  0
 10 19  1  0  0  0  0
 10 30  1  0  0  0  0
 11 33  1  0  0  0  0
 11 34  1  0  0  0  0
 12 24  1  0  0  0  0
 13 15  2  0  0  0  0
 13 16  1  0  0  0  0
 14 17  2  0  0  0  0
 14 18  1  0  0  0  0
 15 17  1  0  0  0  0
 15 26  1  0  0  0  0
 16 18  2  0  0  0  0
 16 27  1  0  0  0  0
 17 28  1  0  0  0  0
 18 29  1  0  0  0  0
 19 20  1  0  0  0  0
 20 31  1  0  0  0  0
 20 32  1  0  0  0  0
 21 22  2  0  0  0  0
 21 23  1  0  0  0  0
 22 25  1  0  0  0  0
 22 35  1  0  0  0  0
 24 25  2  0  0  0  0
 25 36  1  0  0  0  0
M  CHG  2   8  -1  12   1
M  END
> <PUBCHEM_COMPOUND_CID>
2424610

> <PUBCHEM_CONFORMER_RMSD>
0.8

> <PUBCHEM_CONFORMER_DIVERSEORDER>
1
48
319
299
266
78
175
282
305
62
333
42
330
109
292
72
268
55
138
348
337
66
245
310
148
53
30
276
339
334
238
307
117
250
297
291
154
61
302
358
44
198
107
131
355
57
259
46
260
97
316
164
320
171
23
298
303
108
73
205
167
18
267
210
99
2
133
274
98
141
178
71
177
87
134
231
263
331
135
224
278
122
283
346
77
32
76
40
277
311
192
359
255
60
214
115
26
284
196
195
112
301
216
125
189
193
37
342
258
86
248
323
153
293
203
59
228
243
222
180
165
223
91
345
294
161
39
249
287
174
338
219
199
246
12
332
94
158
92
5
308
353
325
220
190
212
290
49
361
127
79
204
121
150
132
240
300
101
321
343
166
206
296
304
130
36
208
261
10
360
185
58
233
22
169
309
329
218
163
191
288
63
19
179
156
144
262
232
8
56
253
82
142
182
350
186
324
341
75
146
257
183
273
181
187
95
6
227
312
215
123
251
176
317
295
354
52
149
327
43
252
247
265
105
84
50
234
139
145
237
184
213
152
239
275
335
344
45
197
103
328
157
347
111
244
25
188
314
140
47
137
29
128
271
143
225
230
159
110
209
194
27
35
241
221
147
336
90
74
151
226
24
211
28
315
155
160
93
67
100
83
104
351
20
65
129
235
68
270
51
136
119
89
88
102
349
318
81
356
124
173
113
242
54
69
13
34
120
168
285
272
114
200
38
357
254
279
70
33
96
269
322
16
116
80
289
4
118
15
313
256
281
326
3
306
85
280
64
286
7
236
202
201
352
17
264
9
41
31
21
340
11
229
207
170
172
162
14
217
106
126

> <PUBCHEM_MMFF94_PARTIAL_CHARGES>
34
1 1.45
10 -0.55
11 -0.98
12 0.96
13 -0.01
14 0.12
15 -0.15
16 -0.15
17 -0.15
18 -0.15
19 0.57
2 -0.08
20 0.34
21 -0.05
22 -0.15
23 0.81
24 0.12
25 -0.15
26 0.15
27 0.15
28 0.15
29 0.15
3 -0.43
30 0.37
33 0.42
34 0.42
35 0.15
36 0.15
4 -0.65
5 -0.65
6 -0.57
7 -0.57
8 -0.52
9 -0.52

> <PUBCHEM_EFFECTIVE_ROTOR_COUNT>
8

> <PUBCHEM_PHARMACOPHORE_FEATURES>
11
1 10 donor
1 11 donor
1 4 acceptor
1 5 acceptor
1 6 acceptor
1 7 acceptor
1 8 acceptor
1 8 anion
1 9 acceptor
5 2 21 22 24 25 rings
6 13 14 15 16 17 18 rings

> <PUBCHEM_HEAVY_ATOM_COUNT>
25

> <PUBCHEM_ATOM_DEF_STEREO_COUNT>
0

> <PUBCHEM_ATOM_UDEF_STEREO_COUNT>
0

> <PUBCHEM_BOND_DEF_STEREO_COUNT>
0

> <PUBCHEM_BOND_UDEF_STEREO_COUNT>
0

> <PUBCHEM_ISOTOPIC_ATOM_COUNT>
0

> <PUBCHEM_COMPONENT_COUNT>
1

> <PUBCHEM_CACTVS_TAUTO_COUNT>
2

> <PUBCHEM_CONFORMER_ID>
0024FF2200000001

> <PUBCHEM_MMFF94_ENERGY>
41.6238

> <PUBCHEM_FEATURE_SELFOVERLAP>
55.922

> <PUBCHEM_SHAPE_FINGERPRINT>
10 15 11455891364781541669
10299344 5 18410295813015153613
106641 1 18201995543785365608
11315181 36 18342461443968032953
11524674 6 16702020898641693607
11638347 137 15051740768292874620
11719270 70 18202283589572052406
11991303 11 15285649827623560586
12166972 35 18261114084529579524
13668630 136 18411419484287721878
13685833 64 18412826876509354244
13692114 37 18334849555039590250
13885169 127 18412263900907890201
14123256 10 18040716965297094411
14178184 131 18056763359313356015
14251764 18 18408324380546160616
14251764 46 18410856563934763362
14556957 393 15430328970759516166
15183329 4 18186238420139143483
15419008 91 18265029432155795788
15690457 1 18271803545048110095
15706992 2 16917059011395646488
15716309 27 18131069350890266245
16120349 18 17822014251064784556
1818759 1 18409455786279648059
18335252 98 18201721743867921766
18643901 69 18187367614960933845
21130935 74 18199186192745073522
21150785 3 14923945656255091675
21267235 1 18412266133631254348
21315763 28 18411700997924672613
21792934 111 17989198248619497305
22224240 67 15410894067719820117
23035841 295 18409730668824061065
232437 2 18411138057347045999
23522609 53 18122940652431190401
23559900 14 18266171915674621249
246663 6 18410858762958018926
28498 318 18410855447438523423
3004659 81 18186800292045327456
3178227 256 16917348143360041658
33532 11 18410292489180374182
4073 2 18041284382080008986
4325135 7 18410857667820486471
4340502 62 15339119027381365404
439807 62 18412265038404096553
5283156 175 18335140890738192725
59682541 35 17918270978293858610
59682541 52 13623807186591048840
6138700 20 18408604778050751283
636775 72 9367082056104812367
67123 10 18410013252192646820
999808 66 18041008392873761907

> <PUBCHEM_SHAPE_MULTIPOLES>
466.16
28.22
1.85
0.7
6.89
0.06
-0.12
-11.98
-0.55
0.45
0.06
-0.88
-0.1
-0.08

> <PUBCHEM_SHAPE_SELFOVERLAP>
968.1

> <PUBCHEM_SHAPE_VOLUME>
264.4

> <PUBCHEM_COORDINATE_TYPE>
2
5
10

$$$$
