16727383
  -OEChem-01171812233D

 45 48  0     0  0  0  0  0  0999 V2000
    2.3085    3.1920    0.8587 O   0  0  0  0  0  0  0  0  0  0  0  0
   -7.0080   -2.3920    0.6171 O   0  0  0  0  0  0  0  0  0  0  0  0
    2.8579    0.9715    0.5964 N   0  0  0  0  0  0  0  0  0  0  0  0
    3.5109   -1.3045    0.3409 N   0  0  0  0  0  0  0  0  0  0  0  0
    0.1961    0.3593    0.1659 C   0  0  0  0  0  0  0  0  0  0  0  0
    0.5435    1.6945    0.4089 C   0  0  0  0  0  0  0  0  0  0  0  0
   -2.1246    1.0257   -0.0302 C   0  0  0  0  0  0  0  0  0  0  0  0
   -1.1457    0.0303   -0.0538 C   0  0  0  0  0  0  0  0  0  0  0  0
   -3.5112    0.6806   -0.2592 C   0  0  0  0  0  0  0  0  0  0  0  0
    1.2369   -0.6689    0.1452 C   0  0  0  0  0  0  0  0  0  0  0  0
    2.5286   -0.3507    0.3571 C   0  0  0  0  0  0  0  0  0  0  0  0
   -0.4355    2.6923    0.4327 C   0  0  0  0  0  0  0  0  0  0  0  0
   -1.7700    2.3527    0.2123 C   0  0  0  0  0  0  0  0  0  0  0  0
    1.9677    2.0333    0.6413 C   0  0  0  0  0  0  0  0  0  0  0  0
   -3.9874   -0.5778    0.1091 C   0  0  0  0  0  0  0  0  0  0  0  0
   -4.3719    1.6072   -0.8477 C   0  0  0  0  0  0  0  0  0  0  0  0
   -5.3241   -0.9096   -0.1114 C   0  0  0  0  0  0  0  0  0  0  0  0
    4.8509   -1.1589   -0.0257 C   0  0  0  0  0  0  0  0  0  0  0  0
   -5.7085    1.2755   -1.0683 C   0  0  0  0  0  0  0  0  0  0  0  0
   -6.1847    0.0171   -0.7001 C   0  0  0  0  0  0  0  0  0  0  0  0
   -5.8216   -2.2213    0.2723 C   0  0  0  0  0  0  0  0  0  0  0  0
    5.8268   -1.9629    0.5634 C   0  0  0  0  0  0  0  0  0  0  0  0
    5.2133   -0.2089   -0.9807 C   0  0  0  0  0  0  0  0  0  0  0  0
    7.1649   -1.8169    0.1977 C   0  0  0  0  0  0  0  0  0  0  0  0
    6.5514   -0.0630   -1.3464 C   0  0  0  0  0  0  0  0  0  0  0  0
   -4.8914   -3.4294    0.2615 C   0  0  0  0  0  0  0  0  0  0  0  0
    7.5272   -0.8671   -0.7572 C   0  0  0  0  0  0  0  0  0  0  0  0
   -1.3911   -1.0063   -0.2735 H   0  0  0  0  0  0  0  0  0  0  0  0
    0.9362   -1.6947   -0.0466 H   0  0  0  0  0  0  0  0  0  0  0  0
   -0.1798    3.7301    0.6269 H   0  0  0  0  0  0  0  0  0  0  0  0
   -2.5032    3.1527    0.2703 H   0  0  0  0  0  0  0  0  0  0  0  0
    3.8351    1.1784    0.7781 H   0  0  0  0  0  0  0  0  0  0  0  0
   -3.3447   -1.2944    0.6132 H   0  0  0  0  0  0  0  0  0  0  0  0
    3.2079   -2.2607    0.4980 H   0  0  0  0  0  0  0  0  0  0  0  0
   -4.0396    2.5870   -1.1797 H   0  0  0  0  0  0  0  0  0  0  0  0
   -6.3771    1.9937   -1.5340 H   0  0  0  0  0  0  0  0  0  0  0  0
   -7.2281   -0.2253   -0.8849 H   0  0  0  0  0  0  0  0  0  0  0  0
    5.5568   -2.7061    1.3093 H   0  0  0  0  0  0  0  0  0  0  0  0
    4.4766    0.4137   -1.4810 H   0  0  0  0  0  0  0  0  0  0  0  0
    7.9248   -2.4430    0.6563 H   0  0  0  0  0  0  0  0  0  0  0  0
    6.8332    0.6718   -2.0949 H   0  0  0  0  0  0  0  0  0  0  0  0
   -4.4105   -3.5296    1.2375 H   0  0  0  0  0  0  0  0  0  0  0  0
   -4.1387   -3.3338   -0.5257 H   0  0  0  0  0  0  0  0  0  0  0  0
   -5.4773   -4.3285    0.0479 H   0  0  0  0  0  0  0  0  0  0  0  0
    8.5689   -0.7545   -1.0432 H   0  0  0  0  0  0  0  0  0  0  0  0
  1 14  2  0  0  0  0
  2 21  2  0  0  0  0
  3 11  1  0  0  0  0
  3 14  1  0  0  0  0
  3 32  1  0  0  0  0
  4 11  1  0  0  0  0
  4 18  1  0  0  0  0
  4 34  1  0  0  0  0
  5  6  2  0  0  0  0
  5  8  1  0  0  0  0
  5 10  1  0  0  0  0
  6 12  1  0  0  0  0
  6 14  1  0  0  0  0
  7  8  2  0  0  0  0
  7  9  1  0  0  0  0
  7 13  1  0  0  0  0
  8 28  1  0  0  0  0
  9 15  2  0  0  0  0
  9 16  1  0  0  0  0
 10 11  2  0  0  0  0
 10 29  1  0  0  0  0
 12 13  2  0  0  0  0
 12 30  1  0  0  0  0
 13 31  1  0  0  0  0
 15 17  1  0  0  0  0
 15 33  1  0  0  0  0
 16 19  2  0  0  0  0
 16 35  1  0  0  0  0
 17 20  2  0  0  0  0
 17 21  1  0  0  0  0
 18 22  2  0  0  0  0
 18 23  1  0  0  0  0
 19 20  1  0  0  0  0
 19 36  1  0  0  0  0
 20 37  1  0  0  0  0
 21 26  1  0  0  0  0
 22 24  1  0  0  0  0
 22 38  1  0  0  0  0
 23 25  2  0  0  0  0
 23 39  1  0  0  0  0
 24 27  2  0  0  0  0
 24 40  1  0  0  0  0
 25 27  1  0  0  0  0
 25 41  1  0  0  0  0
 26 42  1  0  0  0  0
 26 43  1  0  0  0  0
 26 44  1  0  0  0  0
 27 45  1  0  0  0  0
M  END
> <PUBCHEM_COMPOUND_CID>
16727383

> <PUBCHEM_CONFORMER_RMSD>
0.8

> <PUBCHEM_CONFORMER_DIVERSEORDER>
1
22
20
18
28
31
8
5
9
2
12
6
17
15
19
10
4
32
24
23
11
30
3
14
27
16
13
7
21
29
25
26

> <PUBCHEM_MMFF94_PARTIAL_CHARGES>
40
1 -0.57
10 -0.18
11 0.21
12 -0.15
13 -0.15
14 0.54
15 -0.15
16 -0.15
17 0.09
18 0.1
19 -0.15
2 -0.57
20 -0.15
21 0.42
22 -0.15
23 -0.15
24 -0.15
25 -0.15
26 0.06
27 -0.15
28 0.15
29 0.15
3 -0.54
30 0.15
31 0.15
32 0.37
33 0.15
34 0.4
35 0.15
36 0.15
37 0.15
38 0.15
39 0.15
4 -0.6
40 0.15
41 0.15
45 0.15
5 0.03
6 0.09
8 -0.15

> <PUBCHEM_EFFECTIVE_ROTOR_COUNT>
4

> <PUBCHEM_PHARMACOPHORE_FEATURES>
9
1 1 acceptor
1 2 acceptor
1 3 donor
1 4 cation
1 4 donor
6 18 22 23 24 25 27 rings
6 3 5 6 10 11 14 rings
6 5 6 7 8 12 13 rings
6 9 15 16 17 19 20 rings

> <PUBCHEM_HEAVY_ATOM_COUNT>
27

> <PUBCHEM_ATOM_DEF_STEREO_COUNT>
0

> <PUBCHEM_ATOM_UDEF_STEREO_COUNT>
0

> <PUBCHEM_BOND_DEF_STEREO_COUNT>
0

> <PUBCHEM_BOND_UDEF_STEREO_COUNT>
0

> <PUBCHEM_ISOTOPIC_ATOM_COUNT>
0

> <PUBCHEM_COMPONENT_COUNT>
1

> <PUBCHEM_CACTVS_TAUTO_COUNT>
12

> <PUBCHEM_CONFORMER_ID>
00FF3D5700000001

> <PUBCHEM_MMFF94_ENERGY>
100.9635

> <PUBCHEM_FEATURE_SELFOVERLAP>
45.731

> <PUBCHEM_SHAPE_FINGERPRINT>
10050765 1 18412545426791842673
10595046 47 18261678069901531846
11315181 36 18410857638188491761
11477941 20 16732978722041764751
11524674 6 17275102843155149495
117089 54 17609226989601928739
12166972 35 18041002855843343692
12236239 1 18114747032383515414
12516196 113 18272929393652611456
12643181 29 18336820910367281087
12645989 146 18268429225900218399
13288520 33 18411980239618434349
13540713 4 18268127877687712489
13673619 4 17917990572811458200
13685833 64 18272370871441012306
13690498 29 18186235139533000975
13740256 8 18411982459726038801
13782708 43 18334852839886834059
14123256 34 18343867718501064743
14849402 71 13325986955336463946
14931854 50 17822561790285332731
15183329 4 18260828159406742760
15289351 153 11386350557745287214
15361156 5 18040723580322268245
15927050 60 17768242767682872988
16087824 20 18123749761021724885
16993438 75 17386585663620614683
17492 89 18266737081714693699
18681886 176 18333729139335660432
19302320 297 10879990298157207123
19427546 20 18263364689988909117
19841028 212 17914317229798494943
20281389 69 9511167556585424974
20554085 129 12396579689393629332
21049683 271 18411141372682672524
21150785 3 17240485818490722974
21196832 93 18188780560074821554
21267235 1 18412546522482210617
21344244 246 18043259131250750452
21756936 100 8502366711911178545
22393880 68 18187070759748507993
23522609 53 18123223218419122296
23559900 14 18409720794715866313
23569917 315 18263086531592569186
24771750 20 18193847174702810300
249999 5 18058157513981260128
25269216 80 15864068815618007595
2747138 104 18060416898737896424
2748736 6 8935004750099628635
2838139 119 15213305209574147318
3004659 81 18187359930605207360
329604 57 18410295779378212292
335352 9 18410286983723202725
34797466 226 17203326707478057828
4046055 25 18041562417394655268
4107672 100 17894627007858205661
439807 62 18333736840328365415
465052 167 18201441393544726484
484989 97 18336554914400126778
5104073 3 18130787876014179353
54583773 228 18262244430280766548
58902169 19 17240489091720338646
59682541 35 18130775769181477026
636775 8 18341342128230477918
6697151 62 18057580175554957201
6700243 42 17982761622078471308
6823239 73 18411407436561650281
8863177 126 18340204210456326067
999808 66 18272937111192124791

> <PUBCHEM_SHAPE_MULTIPOLES>
533.95
20.48
3.17
0.93
11.67
0.19
0.17
15.65
4.59
-2.98
-0.87
0.44
-0.16
1.16

> <PUBCHEM_SHAPE_SELFOVERLAP>
1188.729

> <PUBCHEM_SHAPE_VOLUME>
284.1

> <PUBCHEM_COORDINATE_TYPE>
2
5
10

$$$$
