2058961
  -OEChem-01171812243D

 45 47  0     0  0  0  0  0  0999 V2000
    0.8489   -1.5613    2.3887 S   0  0  0  0  0  0  0  0  0  0  0  0
   -3.8084    0.7720   -0.0401 S   0  0  0  0  0  0  0  0  0  0  0  0
   -2.1331    2.8401   -1.4746 O   0  0  0  0  0  0  0  0  0  0  0  0
    1.7995   -2.0045    3.3912 O   0  0  0  0  0  0  0  0  0  0  0  0
   -0.4116   -2.2614    2.2317 O   0  0  0  0  0  0  0  0  0  0  0  0
    3.6482   -1.7051   -2.7999 O   0  0  0  0  0  0  0  0  0  0  0  0
   -5.1351   -2.8614   -0.4662 O   0  0  0  0  0  0  0  0  0  0  0  0
   -5.9514   -0.8802   -1.2236 O   0  0  0  0  0  0  0  0  0  0  0  0
    0.5686    0.1229    2.5956 N   0  0  0  0  0  0  0  0  0  0  0  0
    0.5852    1.8319    0.7997 C   0  0  0  0  0  0  0  0  0  0  0  0
   -0.0835    0.8454    1.5428 C   0  0  0  0  0  0  0  0  0  0  0  0
   -0.1087    2.5134   -0.2282 C   0  0  0  0  0  0  0  0  0  0  0  0
   -1.4174    0.5350    1.2760 C   0  0  0  0  0  0  0  0  0  0  0  0
   -1.4510    2.1882   -0.4830 C   0  0  0  0  0  0  0  0  0  0  0  0
   -2.0998    1.2050    0.2648 C   0  0  0  0  0  0  0  0  0  0  0  0
    1.6886   -1.6047    0.8312 C   0  0  0  0  0  0  0  0  0  0  0  0
    1.9274    2.1570    1.0548 C   0  0  0  0  0  0  0  0  0  0  0  0
    0.5601    3.5000   -0.9709 C   0  0  0  0  0  0  0  0  0  0  0  0
    2.5763    3.1398    0.3068 C   0  0  0  0  0  0  0  0  0  0  0  0
    1.8939    3.8101   -0.7041 C   0  0  0  0  0  0  0  0  0  0  0  0
    0.9484   -1.7278   -0.3309 C   0  0  0  0  0  0  0  0  0  0  0  0
    3.0686   -1.5140    0.8075 C   0  0  0  0  0  0  0  0  0  0  0  0
    1.6106   -1.7611   -1.5580 C   0  0  0  0  0  0  0  0  0  0  0  0
    3.7308   -1.5474   -0.4197 C   0  0  0  0  0  0  0  0  0  0  0  0
    3.0018   -1.6710   -1.6025 C   0  0  0  0  0  0  0  0  0  0  0  0
   -3.6671   -0.9863   -0.4620 C   0  0  0  0  0  0  0  0  0  0  0  0
   -5.0313   -1.5399   -0.7574 C   0  0  0  0  0  0  0  0  0  0  0  0
    2.8417   -1.8346   -3.9697 C   0  0  0  0  0  0  0  0  0  0  0  0
    1.2553    0.6459    3.1520 H   0  0  0  0  0  0  0  0  0  0  0  0
   -1.9312   -0.2057    1.8838 H   0  0  0  0  0  0  0  0  0  0  0  0
    2.5062    1.6590    1.8278 H   0  0  0  0  0  0  0  0  0  0  0  0
    0.0727    4.0666   -1.7595 H   0  0  0  0  0  0  0  0  0  0  0  0
    3.6151    3.3811    0.5130 H   0  0  0  0  0  0  0  0  0  0  0  0
    2.3992    4.5775   -1.2834 H   0  0  0  0  0  0  0  0  0  0  0  0
   -0.1345   -1.8018   -0.3177 H   0  0  0  0  0  0  0  0  0  0  0  0
    3.6533   -1.4080    1.7158 H   0  0  0  0  0  0  0  0  0  0  0  0
    0.9832   -1.8585   -2.4374 H   0  0  0  0  0  0  0  0  0  0  0  0
    4.8145   -1.4745   -0.4483 H   0  0  0  0  0  0  0  0  0  0  0  0
   -1.5338    3.0355   -2.2126 H   0  0  0  0  0  0  0  0  0  0  0  0
   -3.2430   -1.5300    0.3869 H   0  0  0  0  0  0  0  0  0  0  0  0
   -3.0309   -1.1226   -1.3411 H   0  0  0  0  0  0  0  0  0  0  0  0
    3.5191   -1.8450   -4.8299 H   0  0  0  0  0  0  0  0  0  0  0  0
    2.1765   -0.9737   -4.0970 H   0  0  0  0  0  0  0  0  0  0  0  0
    2.2973   -2.7849   -3.9799 H   0  0  0  0  0  0  0  0  0  0  0  0
   -6.0283   -3.2120   -0.6700 H   0  0  0  0  0  0  0  0  0  0  0  0
  1  4  2  0  0  0  0
  1  5  2  0  0  0  0
  1  9  1  0  0  0  0
  1 16  1  0  0  0  0
  2 15  1  0  0  0  0
  2 26  1  0  0  0  0
  3 14  1  0  0  0  0
  3 39  1  0  0  0  0
  6 25  1  0  0  0  0
  6 28  1  0  0  0  0
  7 27  1  0  0  0  0
  7 45  1  0  0  0  0
  8 27  2  0  0  0  0
  9 11  1  0  0  0  0
  9 29  1  0  0  0  0
 10 11  1  0  0  0  0
 10 12  1  0  0  0  0
 10 17  2  0  0  0  0
 11 13  2  0  0  0  0
 12 14  1  0  0  0  0
 12 18  2  0  0  0  0
 13 15  1  0  0  0  0
 13 30  1  0  0  0  0
 14 15  2  0  0  0  0
 16 21  2  0  0  0  0
 16 22  1  0  0  0  0
 17 19  1  0  0  0  0
 17 31  1  0  0  0  0
 18 20  1  0  0  0  0
 18 32  1  0  0  0  0
 19 20  2  0  0  0  0
 19 33  1  0  0  0  0
 20 34  1  0  0  0  0
 21 23  1  0  0  0  0
 21 35  1  0  0  0  0
 22 24  2  0  0  0  0
 22 36  1  0  0  0  0
 23 25  2  0  0  0  0
 23 37  1  0  0  0  0
 24 25  1  0  0  0  0
 24 38  1  0  0  0  0
 26 27  1  0  0  0  0
 26 40  1  0  0  0  0
 26 41  1  0  0  0  0
 28 42  1  0  0  0  0
 28 43  1  0  0  0  0
 28 44  1  0  0  0  0
M  END
> <PUBCHEM_COMPOUND_CID>
2058961

> <PUBCHEM_CONFORMER_RMSD>
0.8

> <PUBCHEM_CONFORMER_DIVERSEORDER>
1
222
77
120
46
180
186
148
182
169
197
224
213
138
235
202
220
179
122
147
153
21
181
178
243
117
81
132
165
116
205
170
223
230
233
136
160
23
214
211
240
16
188
19
201
140
245
257
226
260
4
249
172
86
101
155
41
185
195
85
158
2
217
234
106
244
206
22
193
262
190
184
134
157
119
215
151
198
133
24
199
105
61
219
171
232
32
129
229
203
191
225
114
96
104
95
238
8
192
163
175
212
168
6
139
194
227
27
154
15
5
259
34
62
239
14
137
152
228
7
209
242
200
74
218
123
66
236
207
131
254
255
216
69
65
50
183
18
88
130
251
98
150
221
187
164
258
57
53
231
3
159
79
167
204
237
246
91
127
166
20
49
26
70
196
17
11
174
38
143
82
51
47
9
40
128
144
110
256
12
141
210
253
108
10
145
80
252
125
75
146
250
59
118
113
103
54
97
115
71
13
261
39
124
189
121
112
142
48
29
111
100
84
208
173
109
25
36
102
68
89
67
52
44
45
33
28
176
156
92
56
55
30
58
247
43
73
94
161
177
135
78
76
248
42
37
87
99
90
83
72
149
31
63
60
64
162
93
35
107
126
241

> <PUBCHEM_MMFF94_PARTIAL_CHARGES>
38
1 1.45
11 0.2
13 -0.15
14 0.08
15 0.1
16 -0.01
17 -0.15
18 -0.15
19 -0.15
2 -0.33
20 -0.15
21 -0.15
22 -0.15
23 -0.15
24 -0.15
25 0.08
26 0.29
27 0.66
28 0.28
29 0.42
3 -0.53
30 0.15
31 0.15
32 0.15
33 0.15
34 0.15
35 0.15
36 0.15
37 0.15
38 0.15
39 0.45
4 -0.65
45 0.5
5 -0.65
6 -0.36
7 -0.65
8 -0.57
9 -0.76

> <PUBCHEM_EFFECTIVE_ROTOR_COUNT>
7

> <PUBCHEM_PHARMACOPHORE_FEATURES>
11
1 3 donor
1 4 acceptor
1 5 acceptor
1 6 acceptor
1 7 acceptor
1 8 acceptor
1 9 donor
3 7 8 27 anion
6 10 11 12 13 14 15 rings
6 10 12 17 18 19 20 rings
6 16 21 22 23 24 25 rings

> <PUBCHEM_HEAVY_ATOM_COUNT>
28

> <PUBCHEM_ATOM_DEF_STEREO_COUNT>
0

> <PUBCHEM_ATOM_UDEF_STEREO_COUNT>
0

> <PUBCHEM_BOND_DEF_STEREO_COUNT>
0

> <PUBCHEM_BOND_UDEF_STEREO_COUNT>
0

> <PUBCHEM_ISOTOPIC_ATOM_COUNT>
0

> <PUBCHEM_COMPONENT_COUNT>
1

> <PUBCHEM_CACTVS_TAUTO_COUNT>
3

> <PUBCHEM_CONFORMER_ID>
001F6AD100000001

> <PUBCHEM_MMFF94_ENERGY>
82.9926

> <PUBCHEM_FEATURE_SELFOVERLAP>
55.925

> <PUBCHEM_SHAPE_FINGERPRINT>
11477941 20 17547906972568772980
11488393 25 18126298664063110578
11578080 2 17097460177813586077
11640471 11 16597337225468774188
12422481 6 17912329269133998418
12553582 1 18189887626945093275
12596599 1 18058174916438818889
12788726 201 17684663029776727561
13149001 5 18044969910849335666
13383661 66 16619587436341776630
133893 2 18194989506362736113
14863182 85 17632005476744620642
15484559 13 17829319538741112373
15664445 248 18409724028599048955
17492 54 18336558213008636044
17909252 39 18059305364737139671
19319366 153 16882732012772598617
20567600 347 18122905605570966301
20578428 11 18043245937421686839
20600515 1 17841985598753920432
20691752 17 18040152924833482329
20775438 99 18195240251065429887
20905425 154 18263626433832809128
23419403 2 17687232854733031586
23559900 14 18201711839520408349
23598288 3 17321257914389537625
238 59 18264782132238321996
4112364 45 13335019468790298261
4280585 95 18338508647366986650
469060 322 17985853457059736558
5081480 168 18194429851055587827
6669772 16 17897439717178177808
6823239 73 18342730806820288563

> <PUBCHEM_SHAPE_MULTIPOLES>
543.73
7.65
4.59
2.98
11.8
3.59
0.17
-6.78
4.88
-1.47
1.38
-3.12
-2.56
0.71

> <PUBCHEM_SHAPE_SELFOVERLAP>
1152.41

> <PUBCHEM_SHAPE_VOLUME>
305.2

> <PUBCHEM_COORDINATE_TYPE>
2
5
10

$$$$
