6023693
  -OEChem-01171812243D

 50 53  0     0  0  0  0  0  0999 V2000
   -1.1380   -0.5960    0.2127 S   0  0  0  0  0  0  0  0  0  0  0  0
    4.5371    2.0536    0.0884 O   0  0  0  0  0  0  0  0  0  0  0  0
   -0.7925   -1.0688    1.5412 O   0  0  0  0  0  0  0  0  0  0  0  0
   -0.6795   -1.3139   -0.9633 O   0  0  0  0  0  0  0  0  0  0  0  0
   -7.6089   -0.7545   -1.2273 O   0  0  0  0  0  0  0  0  0  0  0  0
   -7.8710   -0.5121    1.0175 O   0  0  0  0  0  0  0  0  0  0  0  0
    3.7341   -0.5421    0.3485 N   0  0  0  0  0  0  0  0  0  0  0  0
   -0.7728    0.9833    0.0521 N   0  0  0  0  0  0  0  0  0  0  0  0
    0.9911    2.6966   -0.0817 C   0  0  0  0  0  0  0  0  0  0  0  0
    2.3658    2.9402   -0.0682 C   0  0  0  0  0  0  0  0  0  0  0  0
    0.4804    1.3186    0.0528 C   0  0  0  0  0  0  0  0  0  0  0  0
    2.8007    0.4456    0.2153 C   0  0  0  0  0  0  0  0  0  0  0  0
    3.3306    1.8317    0.0799 C   0  0  0  0  0  0  0  0  0  0  0  0
    1.4791    0.2341    0.1999 C   0  0  0  0  0  0  0  0  0  0  0  0
    0.0969    3.7662   -0.2241 C   0  0  0  0  0  0  0  0  0  0  0  0
    3.6502   -1.8768   -0.0629 C   0  0  0  0  0  0  0  0  0  0  0  0
    2.8444    4.2508   -0.1967 C   0  0  0  0  0  0  0  0  0  0  0  0
    4.3274   -2.8931    0.6247 C   0  0  0  0  0  0  0  0  0  0  0  0
   -2.9085   -0.6022    0.1610 C   0  0  0  0  0  0  0  0  0  0  0  0
    0.5785    5.0696   -0.3521 C   0  0  0  0  0  0  0  0  0  0  0  0
    1.9498    5.3115   -0.3384 C   0  0  0  0  0  0  0  0  0  0  0  0
    2.8766   -2.2109   -1.1826 C   0  0  0  0  0  0  0  0  0  0  0  0
    4.2325   -4.2185    0.2005 C   0  0  0  0  0  0  0  0  0  0  0  0
   -3.6161   -0.4742    1.3417 C   0  0  0  0  0  0  0  0  0  0  0  0
   -3.5450   -0.7351   -1.0590 C   0  0  0  0  0  0  0  0  0  0  0  0
    5.1628   -2.5769    1.8225 C   0  0  0  0  0  0  0  0  0  0  0  0
    2.7817   -3.5363   -1.6069 C   0  0  0  0  0  0  0  0  0  0  0  0
    3.4596   -4.5401   -0.9153 C   0  0  0  0  0  0  0  0  0  0  0  0
   -5.0104   -0.4794    1.3011 C   0  0  0  0  0  0  0  0  0  0  0  0
   -4.9393   -0.7403   -1.0997 C   0  0  0  0  0  0  0  0  0  0  0  0
   -5.6719   -0.6125    0.0804 C   0  0  0  0  0  0  0  0  0  0  0  0
   -7.1256   -0.6180    0.0380 C   0  0  0  0  0  0  0  0  0  0  0  0
    1.2112   -0.7955    0.3643 H   0  0  0  0  0  0  0  0  0  0  0  0
    4.6312   -0.2505    0.7219 H   0  0  0  0  0  0  0  0  0  0  0  0
   -0.9775    3.6029   -0.2377 H   0  0  0  0  0  0  0  0  0  0  0  0
    3.9095    4.4666   -0.1892 H   0  0  0  0  0  0  0  0  0  0  0  0
   -0.1174    5.8962   -0.4624 H   0  0  0  0  0  0  0  0  0  0  0  0
    2.3231    6.3265   -0.4381 H   0  0  0  0  0  0  0  0  0  0  0  0
    2.3627   -1.4546   -1.7701 H   0  0  0  0  0  0  0  0  0  0  0  0
    4.7553   -5.0128    0.7267 H   0  0  0  0  0  0  0  0  0  0  0  0
   -3.1207   -0.3599    2.3008 H   0  0  0  0  0  0  0  0  0  0  0  0
   -2.9919   -0.8277   -1.9884 H   0  0  0  0  0  0  0  0  0  0  0  0
    6.0325   -1.9777    1.5337 H   0  0  0  0  0  0  0  0  0  0  0  0
    4.5771   -2.0306    2.5694 H   0  0  0  0  0  0  0  0  0  0  0  0
    5.5353   -3.4848    2.3094 H   0  0  0  0  0  0  0  0  0  0  0  0
    2.1864   -3.7860   -2.4803 H   0  0  0  0  0  0  0  0  0  0  0  0
    3.3873   -5.5718   -1.2470 H   0  0  0  0  0  0  0  0  0  0  0  0
   -5.5629   -0.3764    2.2314 H   0  0  0  0  0  0  0  0  0  0  0  0
   -5.4138   -0.8443   -2.0715 H   0  0  0  0  0  0  0  0  0  0  0  0
   -8.5898   -0.7565   -1.2450 H   0  0  0  0  0  0  0  0  0  0  0  0
  1  3  2  0  0  0  0
  1  4  2  0  0  0  0
  1  8  1  0  0  0  0
  1 19  1  0  0  0  0
  2 13  2  0  0  0  0
  5 32  1  0  0  0  0
  5 50  1  0  0  0  0
  6 32  2  0  0  0  0
  7 12  1  0  0  0  0
  7 16  1  0  0  0  0
  7 34  1  0  0  0  0
  8 11  2  0  0  0  0
  9 10  1  0  0  0  0
  9 11  1  0  0  0  0
  9 15  2  0  0  0  0
 10 13  1  0  0  0  0
 10 17  2  0  0  0  0
 11 14  1  0  0  0  0
 12 13  1  0  0  0  0
 12 14  2  0  0  0  0
 14 33  1  0  0  0  0
 15 20  1  0  0  0  0
 15 35  1  0  0  0  0
 16 18  1  0  0  0  0
 16 22  2  0  0  0  0
 17 21  1  0  0  0  0
 17 36  1  0  0  0  0
 18 23  2  0  0  0  0
 18 26  1  0  0  0  0
 19 24  2  0  0  0  0
 19 25  1  0  0  0  0
 20 21  2  0  0  0  0
 20 37  1  0  0  0  0
 21 38  1  0  0  0  0
 22 27  1  0  0  0  0
 22 39  1  0  0  0  0
 23 28  1  0  0  0  0
 23 40  1  0  0  0  0
 24 29  1  0  0  0  0
 24 41  1  0  0  0  0
 25 30  2  0  0  0  0
 25 42  1  0  0  0  0
 26 43  1  0  0  0  0
 26 44  1  0  0  0  0
 26 45  1  0  0  0  0
 27 28  2  0  0  0  0
 27 46  1  0  0  0  0
 28 47  1  0  0  0  0
 29 31  2  0  0  0  0
 29 48  1  0  0  0  0
 30 31  1  0  0  0  0
 30 49  1  0  0  0  0
 31 32  1  0  0  0  0
M  END
> <PUBCHEM_COMPOUND_CID>
6023693

> <PUBCHEM_CONFORMER_RMSD>
0.8

> <PUBCHEM_CONFORMER_DIVERSEORDER>
1
4
6
3
2
5
7

> <PUBCHEM_MMFF94_PARTIAL_CHARGES>
47
1 1.5
10 0.09
11 0.35
12 0.11
13 0.47
14 -0.14
15 -0.15
16 0.1
17 -0.15
18 -0.14
19 -0.01
2 -0.57
20 -0.15
21 -0.15
22 -0.15
23 -0.15
24 -0.15
25 -0.15
26 0.14
27 -0.15
28 -0.15
29 -0.15
3 -0.65
30 -0.15
31 0.09
32 0.63
33 0.15
34 0.4
35 0.15
36 0.15
37 0.15
38 0.15
39 0.15
4 -0.65
40 0.15
41 0.15
42 0.15
46 0.15
47 0.15
48 0.15
49 0.15
5 -0.65
50 0.5
6 -0.57
7 -0.6
8 -0.64
9 0.09

> <PUBCHEM_EFFECTIVE_ROTOR_COUNT>
5

> <PUBCHEM_PHARMACOPHORE_FEATURES>
14
1 2 acceptor
1 3 acceptor
1 4 acceptor
1 5 acceptor
1 6 acceptor
1 7 cation
1 7 donor
1 8 acceptor
1 8 donor
3 5 6 32 anion
6 16 18 22 23 27 28 rings
6 19 24 25 29 30 31 rings
6 9 10 11 12 13 14 rings
6 9 10 15 17 20 21 rings

> <PUBCHEM_HEAVY_ATOM_COUNT>
32

> <PUBCHEM_ATOM_DEF_STEREO_COUNT>
0

> <PUBCHEM_ATOM_UDEF_STEREO_COUNT>
0

> <PUBCHEM_BOND_DEF_STEREO_COUNT>
1

> <PUBCHEM_BOND_UDEF_STEREO_COUNT>
0

> <PUBCHEM_ISOTOPIC_ATOM_COUNT>
0

> <PUBCHEM_COMPONENT_COUNT>
1

> <PUBCHEM_CACTVS_TAUTO_COUNT>
3

> <PUBCHEM_CONFORMER_ID>
005BEA0D00000001

> <PUBCHEM_MMFF94_ENERGY>
112.7095

> <PUBCHEM_FEATURE_SELFOVERLAP>
71.179

> <PUBCHEM_SHAPE_FINGERPRINT>
10411042 1 18265614290952898698
10675989 125 18197222657371146833
11135609 149 18268127804445564671
12107183 9 18198916803605978025
12422481 6 17701266811007932763
13533116 47 18272933825826921515
13540713 4 17553472597592965038
1361 2 18413389856153610930
13690498 29 17838917940581862078
13782708 43 17894919542618738275
13785724 45 18270129993576537535
14068700 686 17613446957751068427
14117953 113 18340488971636990900
14790565 3 17618505819033827854
15081414 286 18409729573180457369
15250474 111 17986097729356939479
15400415 2 17762055845523457317
15419008 47 17895473627315932159
15420108 30 17689983953628818712
15484559 13 18197227051797177412
1813 80 18270687454414191063
19301679 30 18337951190639482753
19311894 1 17977383837629373921
19319366 153 17984704677835649417
1979834 28 18342165700882878136
21033648 144 17828470694431849677
21033648 29 17024007437502857213
21133410 58 18410001118953266791
21344244 78 18201993313790199048
21478907 32 18266177227805042840
22033318 11 17984453796596648817
22223350 30 18056189168602119240
22849339 104 16973102995204786414
23536364 44 17971743381632842069
23559900 14 18337674233931444147
24771750 20 17826810414319570492
249057 25 17917436428548250513
255183 451 18200322013388092822
3103668 31 17828766136684944157
34797466 226 16660653976848935743
376196 1 17755297112649086712
38695281 34 17978511167733679432
394071 54 18341904012272055683
4144715 1 18260276265743653041
5309563 4 18267305318187937214
6004065 56 18408600374876115754
6086070 43 18116979023966364925
613672 6 18194103149862448766
6695519 79 17477225176493363939
70251023 43 18265336114447852714
79837 15 17186718867048928208

> <PUBCHEM_SHAPE_MULTIPOLES>
623.09
14.63
6.92
1.23
33.44
7.17
-0.11
-13.18
-1.54
-13.21
1.61
0.23
-1.05
-0.16

> <PUBCHEM_SHAPE_SELFOVERLAP>
1368.556

> <PUBCHEM_SHAPE_VOLUME>
335.6

> <PUBCHEM_COORDINATE_TYPE>
2
5
10

$$$$
