282415
  -OEChem-01171812263D

 36 38  0     0  0  0  0  0  0999 V2000
   -1.3174   -3.4480   -0.0068 O   0  0  0  0  0  0  0  0  0  0  0  0
    1.3175   -3.4480    0.0086 O   0  0  0  0  0  0  0  0  0  0  0  0
   -0.7429    0.1270   -0.0053 C   0  0  0  0  0  0  0  0  0  0  0  0
    0.7430    0.1270    0.0052 C   0  0  0  0  0  0  0  0  0  0  0  0
   -1.4665   -1.0814   -0.0103 C   0  0  0  0  0  0  0  0  0  0  0  0
    1.4666   -1.0814    0.0095 C   0  0  0  0  0  0  0  0  0  0  0  0
   -1.5075    1.3113   -0.0111 C   0  0  0  0  0  0  0  0  0  0  0  0
    1.5077    1.3113    0.0115 C   0  0  0  0  0  0  0  0  0  0  0  0
   -2.9075    1.2899   -0.0213 C   0  0  0  0  0  0  0  0  0  0  0  0
    2.9074    1.2900    0.0209 C   0  0  0  0  0  0  0  0  0  0  0  0
   -0.7483   -2.3672   -0.0046 C   0  0  0  0  0  0  0  0  0  0  0  0
    0.7484   -2.3671    0.0048 C   0  0  0  0  0  0  0  0  0  0  0  0
   -2.8698   -1.1092   -0.0205 C   0  0  0  0  0  0  0  0  0  0  0  0
    2.8698   -1.1092    0.0189 C   0  0  0  0  0  0  0  0  0  0  0  0
   -3.5881    0.0801   -0.0260 C   0  0  0  0  0  0  0  0  0  0  0  0
    3.5880    0.0802    0.0246 C   0  0  0  0  0  0  0  0  0  0  0  0
   -1.0632    2.6553    0.4979 C   0  0  0  0  0  0  0  0  0  0  0  0
    1.0628    2.6557   -0.4964 C   0  0  0  0  0  0  0  0  0  0  0  0
   -3.7290    2.5418   -0.0725 C   0  0  0  0  0  0  0  0  0  0  0  0
    3.7290    2.5419    0.0727 C   0  0  0  0  0  0  0  0  0  0  0  0
   -3.4157   -2.0489   -0.0251 H   0  0  0  0  0  0  0  0  0  0  0  0
    3.4158   -2.0489    0.0230 H   0  0  0  0  0  0  0  0  0  0  0  0
   -4.6740    0.0440   -0.0375 H   0  0  0  0  0  0  0  0  0  0  0  0
    4.6738    0.0441    0.0357 H   0  0  0  0  0  0  0  0  0  0  0  0
   -1.0582    3.4752   -0.2273 H   0  0  0  0  0  0  0  0  0  0  0  0
   -1.8037    3.0275    1.2264 H   0  0  0  0  0  0  0  0  0  0  0  0
   -0.2753    2.5725    1.2538 H   0  0  0  0  0  0  0  0  0  0  0  0
    0.2749    2.5732   -1.2524 H   0  0  0  0  0  0  0  0  0  0  0  0
    1.8031    3.0286   -1.2248 H   0  0  0  0  0  0  0  0  0  0  0  0
    1.0578    3.4750    0.2294 H   0  0  0  0  0  0  0  0  0  0  0  0
   -3.2718    3.3151   -0.6980 H   0  0  0  0  0  0  0  0  0  0  0  0
   -3.9212    2.9316    0.9322 H   0  0  0  0  0  0  0  0  0  0  0  0
   -4.7056    2.3424   -0.5312 H   0  0  0  0  0  0  0  0  0  0  0  0
    3.2720    3.3148    0.6990 H   0  0  0  0  0  0  0  0  0  0  0  0
    3.9208    2.9324   -0.9318 H   0  0  0  0  0  0  0  0  0  0  0  0
    4.7057    2.3421    0.5309 H   0  0  0  0  0  0  0  0  0  0  0  0
  1 11  2  0  0  0  0
  2 12  2  0  0  0  0
  3  4  1  0  0  0  0
  3  5  2  0  0  0  0
  3  7  1  0  0  0  0
  4  6  2  0  0  0  0
  4  8  1  0  0  0  0
  5 11  1  0  0  0  0
  5 13  1  0  0  0  0
  6 12  1  0  0  0  0
  6 14  1  0  0  0  0
  7  9  2  0  0  0  0
  7 17  1  0  0  0  0
  8 10  2  0  0  0  0
  8 18  1  0  0  0  0
  9 15  1  0  0  0  0
  9 19  1  0  0  0  0
 10 16  1  0  0  0  0
 10 20  1  0  0  0  0
 11 12  1  0  0  0  0
 13 15  2  0  0  0  0
 13 21  1  0  0  0  0
 14 16  2  0  0  0  0
 14 22  1  0  0  0  0
 15 23  1  0  0  0  0
 16 24  1  0  0  0  0
 17 25  1  0  0  0  0
 17 26  1  0  0  0  0
 17 27  1  0  0  0  0
 18 28  1  0  0  0  0
 18 29  1  0  0  0  0
 18 30  1  0  0  0  0
 19 31  1  0  0  0  0
 19 32  1  0  0  0  0
 19 33  1  0  0  0  0
 20 34  1  0  0  0  0
 20 35  1  0  0  0  0
 20 36  1  0  0  0  0
M  END
> <PUBCHEM_COMPOUND_CID>
282415

> <PUBCHEM_CONFORMER_RMSD>
0.6

> <PUBCHEM_CONFORMER_DIVERSEORDER>
1

> <PUBCHEM_MMFF94_PARTIAL_CHARGES>
22
1 -0.57
10 -0.14
11 0.48
12 0.48
13 -0.15
14 -0.15
15 -0.15
16 -0.15
17 0.14
18 0.14
19 0.14
2 -0.57
20 0.14
21 0.15
22 0.15
23 0.15
24 0.15
5 0.09
6 0.09
7 -0.14
8 -0.14
9 -0.14

> <PUBCHEM_EFFECTIVE_ROTOR_COUNT>
0

> <PUBCHEM_PHARMACOPHORE_FEATURES>
5
1 1 acceptor
1 2 acceptor
6 3 4 5 6 11 12 rings
6 3 5 7 9 13 15 rings
6 4 6 8 10 14 16 rings

> <PUBCHEM_HEAVY_ATOM_COUNT>
20

> <PUBCHEM_ATOM_DEF_STEREO_COUNT>
0

> <PUBCHEM_ATOM_UDEF_STEREO_COUNT>
0

> <PUBCHEM_BOND_DEF_STEREO_COUNT>
0

> <PUBCHEM_BOND_UDEF_STEREO_COUNT>
0

> <PUBCHEM_ISOTOPIC_ATOM_COUNT>
0

> <PUBCHEM_COMPONENT_COUNT>
1

> <PUBCHEM_CACTVS_TAUTO_COUNT>
1

> <PUBCHEM_CONFORMER_ID>
00044F2F00000001

> <PUBCHEM_MMFF94_ENERGY>
132.2193

> <PUBCHEM_FEATURE_SELFOVERLAP>
25.422

> <PUBCHEM_SHAPE_FINGERPRINT>
10319926 262 17839160142747065344
10411042 1 16681472886277002455
10608611 8 18410854364911917060
10616163 171 18122347036742428788
10967382 1 18410856551055136231
1100329 8 18339077073630368930
11370993 70 18410846664035607312
11680986 33 18265341599178689379
12173636 292 18338795740144921180
12403260 363 18338502097462712910
13027679 85 17330275485742254655
13140716 1 18409729521630099288
13583140 156 17023168462031499369
138480 1 17762336907628672482
14178342 30 17980751637149169408
14223421 5 18336835203849468307
14790565 3 18338814358765618404
15196674 1 18410855464423434405
15309172 13 18411146805230129145
15442244 35 17835802993309975729
15475509 8 16477708143905112733
16945 1 18410859862469958502
19591789 44 18410860961981592775
20510252 161 18270967971686879217
20739085 24 17689182027067732289
20905425 154 17908711966035874820
21267235 1 18411145735492965890
2334 1 18194683902238306416
23558518 356 18188773975541322891
23559900 14 18343868810551412084
238 59 17539364844704135733
2748010 2 18265901246012304575
3091708 16 9192969977801343651
335352 9 18194401095885096404
350125 39 18337678610529732545
352729 6 18338801229060442470
5104073 3 18409449180503844761
5939293 188 17978505334650873418
7364860 26 18123750855055515743
7832392 63 18196088850512829767
84936 182 18129655296937598312
9709674 26 18342461490753639854

> <PUBCHEM_SHAPE_MULTIPOLES>
399.85
5.9
4.04
0.63
0
1.53
0
-3.23
0
0
0
0
-0.1
-0.07

> <PUBCHEM_SHAPE_SELFOVERLAP>
898.508

> <PUBCHEM_SHAPE_VOLUME>
211.5

> <PUBCHEM_COORDINATE_TYPE>
2
5
10

$$$$
