286873
  -OEChem-01171812213D

 47 49  0     0  0  0  0  0  0999 V2000
   -4.4294   -1.7765   -1.1609 O   0  0  0  0  0  0  0  0  0  0  0  0
   -6.0016   -0.0077    0.2911 O   0  0  0  0  0  0  0  0  0  0  0  0
    4.9834    1.4793   -1.2050 O   0  0  0  0  0  0  0  0  0  0  0  0
    5.7859   -0.4981    0.5763 O   0  0  0  0  0  0  0  0  0  0  0  0
   -0.0098   -0.5960   -1.8430 O   0  0  0  0  0  0  0  0  0  0  0  0
    1.6516   -2.8957    1.7962 O   0  5  0  0  0  0  0  0  0  0  0  0
    0.0355   -1.9091    0.6853 O   0  0  0  0  0  0  0  0  0  0  0  0
    0.0788    1.9501    0.4663 N   0  0  0  0  0  0  0  0  0  0  0  0
    1.2443   -2.0195    0.9978 N   0  3  0  0  0  0  0  0  0  0  0  0
   -1.9007    0.6310   -0.0400 C   0  0  0  0  0  0  0  0  0  0  0  0
   -2.6958    1.5316    0.6987 C   0  0  0  0  0  0  0  0  0  0  0  0
   -0.5316    0.8942   -0.1174 C   0  0  0  0  0  0  0  0  0  0  0  0
    1.8162   -0.1299   -0.4577 C   0  0  0  0  0  0  0  0  0  0  0  0
    0.3870    0.0322   -0.8532 C   0  0  0  0  0  0  0  0  0  0  0  0
   -2.4965   -0.4788   -0.6615 C   0  0  0  0  0  0  0  0  0  0  0  0
   -4.0773    1.2996    0.7992 C   0  0  0  0  0  0  0  0  0  0  0  0
   -3.8701   -0.6938   -0.5516 C   0  0  0  0  0  0  0  0  0  0  0  0
   -4.6587    0.1934    0.1773 C   0  0  0  0  0  0  0  0  0  0  0  0
    2.1865   -1.1191    0.4268 C   0  0  0  0  0  0  0  0  0  0  0  0
   -2.0830    2.6313    1.3107 C   0  0  0  0  0  0  0  0  0  0  0  0
    2.7268    0.7447   -1.0124 C   0  0  0  0  0  0  0  0  0  0  0  0
    4.0723    0.6228   -0.6651 C   0  0  0  0  0  0  0  0  0  0  0  0
    3.5319   -1.2410    0.7742 C   0  0  0  0  0  0  0  0  0  0  0  0
    4.4748   -0.3700    0.2283 C   0  0  0  0  0  0  0  0  0  0  0  0
   -0.7135    2.7908    1.1650 C   0  0  0  0  0  0  0  0  0  0  0  0
   -4.5023   -2.9815   -0.4016 C   0  0  0  0  0  0  0  0  0  0  0  0
   -6.8324    0.5873   -0.7036 C   0  0  0  0  0  0  0  0  0  0  0  0
    5.2391    2.6877   -0.4918 C   0  0  0  0  0  0  0  0  0  0  0  0
    6.5887   -1.3593   -0.2284 C   0  0  0  0  0  0  0  0  0  0  0  0
   -1.9511   -1.2337   -1.2124 H   0  0  0  0  0  0  0  0  0  0  0  0
   -4.7065    1.9835    1.3660 H   0  0  0  0  0  0  0  0  0  0  0  0
   -2.6546    3.3506    1.8892 H   0  0  0  0  0  0  0  0  0  0  0  0
    2.4136    1.5169   -1.7097 H   0  0  0  0  0  0  0  0  0  0  0  0
    3.8788   -2.0029    1.4686 H   0  0  0  0  0  0  0  0  0  0  0  0
   -0.2021    3.6304    1.6245 H   0  0  0  0  0  0  0  0  0  0  0  0
   -3.4992   -3.3228   -0.1266 H   0  0  0  0  0  0  0  0  0  0  0  0
   -4.9752   -3.7486   -1.0209 H   0  0  0  0  0  0  0  0  0  0  0  0
   -5.1091   -2.8344    0.4974 H   0  0  0  0  0  0  0  0  0  0  0  0
   -7.8716    0.3314   -0.4799 H   0  0  0  0  0  0  0  0  0  0  0  0
   -6.5828    0.2001   -1.6966 H   0  0  0  0  0  0  0  0  0  0  0  0
   -6.7288    1.6769   -0.6880 H   0  0  0  0  0  0  0  0  0  0  0  0
    4.3268    3.2877   -0.4148 H   0  0  0  0  0  0  0  0  0  0  0  0
    5.9887    3.2600   -1.0452 H   0  0  0  0  0  0  0  0  0  0  0  0
    5.6315    2.4703    0.5066 H   0  0  0  0  0  0  0  0  0  0  0  0
    6.6160   -1.0050   -1.2637 H   0  0  0  0  0  0  0  0  0  0  0  0
    6.2067   -2.3845   -0.1918 H   0  0  0  0  0  0  0  0  0  0  0  0
    7.6066   -1.3509    0.1709 H   0  0  0  0  0  0  0  0  0  0  0  0
  1 17  1  0  0  0  0
  1 26  1  0  0  0  0
  2 18  1  0  0  0  0
  2 27  1  0  0  0  0
  3 22  1  0  0  0  0
  3 28  1  0  0  0  0
  4 24  1  0  0  0  0
  4 29  1  0  0  0  0
  5 14  2  0  0  0  0
  6  9  1  0  0  0  0
  7  9  2  0  0  0  0
  8 12  2  0  0  0  0
  8 25  1  0  0  0  0
  9 19  1  0  0  0  0
 10 11  1  0  0  0  0
 10 12  1  0  0  0  0
 10 15  2  0  0  0  0
 11 16  2  0  0  0  0
 11 20  1  0  0  0  0
 12 14  1  0  0  0  0
 13 14  1  0  0  0  0
 13 19  1  0  0  0  0
 13 21  2  0  0  0  0
 15 17  1  0  0  0  0
 15 30  1  0  0  0  0
 16 18  1  0  0  0  0
 16 31  1  0  0  0  0
 17 18  2  0  0  0  0
 19 23  2  0  0  0  0
 20 25  2  0  0  0  0
 20 32  1  0  0  0  0
 21 22  1  0  0  0  0
 21 33  1  0  0  0  0
 22 24  2  0  0  0  0
 23 24  1  0  0  0  0
 23 34  1  0  0  0  0
 25 35  1  0  0  0  0
 26 36  1  0  0  0  0
 26 37  1  0  0  0  0
 26 38  1  0  0  0  0
 27 39  1  0  0  0  0
 27 40  1  0  0  0  0
 27 41  1  0  0  0  0
 28 42  1  0  0  0  0
 28 43  1  0  0  0  0
 28 44  1  0  0  0  0
 29 45  1  0  0  0  0
 29 46  1  0  0  0  0
 29 47  1  0  0  0  0
M  CHG  2   6  -1   9   1
M  END
> <PUBCHEM_COMPOUND_CID>
286873

> <PUBCHEM_CONFORMER_RMSD>
0.8

> <PUBCHEM_CONFORMER_DIVERSEORDER>
1
12
17
8
13
16
9
7
14
11
2
15
3
5
4
6
10

> <PUBCHEM_MMFF94_PARTIAL_CHARGES>
33
1 -0.36
12 0.4
13 0.09
14 0.4
15 -0.15
16 -0.15
17 0.08
18 0.08
19 0.13
2 -0.36
20 -0.15
21 -0.15
22 0.08
23 -0.15
24 0.08
25 0.16
26 0.28
27 0.28
28 0.28
29 0.28
3 -0.36
30 0.15
31 0.15
32 0.15
33 0.15
34 0.15
35 0.15
4 -0.36
5 -0.57
6 -0.52
7 -0.52
8 -0.62
9 0.91

> <PUBCHEM_EFFECTIVE_ROTOR_COUNT>
7

> <PUBCHEM_PHARMACOPHORE_FEATURES>
12
1 1 acceptor
1 2 acceptor
1 3 acceptor
1 4 acceptor
1 5 acceptor
1 6 acceptor
1 6 anion
1 7 acceptor
1 8 acceptor
6 10 11 15 16 17 18 rings
6 13 19 21 22 23 24 rings
6 8 10 11 12 20 25 rings

> <PUBCHEM_HEAVY_ATOM_COUNT>
29

> <PUBCHEM_ATOM_DEF_STEREO_COUNT>
0

> <PUBCHEM_ATOM_UDEF_STEREO_COUNT>
0

> <PUBCHEM_BOND_DEF_STEREO_COUNT>
0

> <PUBCHEM_BOND_UDEF_STEREO_COUNT>
0

> <PUBCHEM_ISOTOPIC_ATOM_COUNT>
0

> <PUBCHEM_COMPONENT_COUNT>
1

> <PUBCHEM_CACTVS_TAUTO_COUNT>
1

> <PUBCHEM_CONFORMER_ID>
0004609900000001

> <PUBCHEM_MMFF94_ENERGY>
150.9323

> <PUBCHEM_FEATURE_SELFOVERLAP>
61.024

> <PUBCHEM_SHAPE_FINGERPRINT>
10090160 65 18113338617595643480
10366900 7 16487255448561996375
10369192 42 15407478009989348306
10906281 52 17988095404882796621
1100329 8 18339078301795713331
11135609 187 18188772884868218628
11578080 2 11603980217882141774
12107183 9 17546447778145254298
12166972 35 18114184146601850996
12236239 1 18409450297268869365
12553582 1 18272925017175661407
12596602 18 18337109063495826302
12788726 201 18129379315977842073
13140716 1 18059574750209223721
13533116 47 18408041806474449612
13631057 29 18266458887898188775
14341114 328 18412831278249556441
14787075 74 18337672017923471920
14849402 71 18411136983621709136
15927050 60 17337866479645344708
17138139 8 18191296281191577363
17349148 13 17967253079013151744
19319366 153 18260824882906658051
200 152 18187644674088927465
20028762 73 18410572864935951726
20511986 3 18334002883556030013
21033648 29 16443057309743871524
21267235 1 18340774762274670090
23402539 116 18343579646475680191
23557571 272 17703228412407542217
23559900 14 18200023079754614313
23569943 247 17833837067586318322
335352 9 18202001050176454381
34797466 226 16845580845882725084
3633792 109 18115300056725473125
392239 28 18411704313338446800
4098825 35 17676763181314105453
4258327 124 16952550228300522956
4340502 62 18040720289606906842
439807 62 18187931746463547275
5104073 3 17988647471030082633
5486654 2 18411984671475979702
59755656 215 18271248214240312102
7097593 13 17760928441986878818
7495541 125 17418370320597409696

> <PUBCHEM_SHAPE_MULTIPOLES>
545.76
14.26
2.91
1.24
1.18
0.06
0.04
-1.38
-2.29
-0.29
0.94
0.22
-0.13
-2.15

> <PUBCHEM_SHAPE_SELFOVERLAP>
1197.303

> <PUBCHEM_SHAPE_VOLUME>
296.6

> <PUBCHEM_COORDINATE_TYPE>
2
5
10

$$$$
