2732881
  -OEChem-01171812233D

 35 37  0     0  0  0  0  0  0999 V2000
   -6.6776   -0.1295    0.1736 F   0  0  0  0  0  0  0  0  0  0  0  0
   -5.9611    1.5278    1.3753 F   0  0  0  0  0  0  0  0  0  0  0  0
   -6.0065    1.6996   -0.7921 F   0  0  0  0  0  0  0  0  0  0  0  0
    2.0427   -1.8944   -1.6035 O   0  0  0  0  0  0  0  0  0  0  0  0
    2.5590    0.9655   -2.4573 O   0  0  0  0  0  0  0  0  0  0  0  0
    2.2550   -1.7895    1.4016 O   0  0  0  0  0  0  0  0  0  0  0  0
   -0.1504   -2.3788    0.2599 O   0  0  0  0  0  0  0  0  0  0  0  0
    0.5922   -0.3708   -0.6357 N   0  0  0  0  0  0  0  0  0  0  0  0
    1.9609   -0.7494   -0.8034 C   0  0  0  0  0  0  0  0  0  0  0  0
    3.8210    0.7408   -0.4520 C   0  0  0  0  0  0  0  0  0  0  0  0
    3.7315   -0.0677    0.6804 C   0  0  0  0  0  0  0  0  0  0  0  0
    2.7550    0.4003   -1.3986 C   0  0  0  0  0  0  0  0  0  0  0  0
    2.6008   -0.9916    0.5513 C   0  0  0  0  0  0  0  0  0  0  0  0
    4.8005    1.7064   -0.5785 C   0  0  0  0  0  0  0  0  0  0  0  0
    4.6184    0.0564    1.7321 C   0  0  0  0  0  0  0  0  0  0  0  0
   -0.3723   -1.2284   -0.1087 C   0  0  0  0  0  0  0  0  0  0  0  0
   -1.7556   -0.6932   -0.0236 C   0  0  0  0  0  0  0  0  0  0  0  0
    5.7078    1.8439    0.4755 C   0  0  0  0  0  0  0  0  0  0  0  0
    5.6177    1.0269    1.6194 C   0  0  0  0  0  0  0  0  0  0  0  0
   -2.8148   -1.5762   -0.0636 C   0  0  0  0  0  0  0  0  0  0  0  0
   -1.9372    0.6691    0.0942 C   0  0  0  0  0  0  0  0  0  0  0  0
   -4.3243    0.2995    0.1371 C   0  0  0  0  0  0  0  0  0  0  0  0
   -4.1137   -1.0743    0.0176 C   0  0  0  0  0  0  0  0  0  0  0  0
   -3.2361    1.1712    0.1754 C   0  0  0  0  0  0  0  0  0  0  0  0
   -5.7130    0.8364    0.2237 C   0  0  0  0  0  0  0  0  0  0  0  0
    0.3148    0.5321   -1.0064 H   0  0  0  0  0  0  0  0  0  0  0  0
    4.8717    2.3380   -1.4565 H   0  0  0  0  0  0  0  0  0  0  0  0
    4.5508   -0.5692    2.6148 H   0  0  0  0  0  0  0  0  0  0  0  0
    2.9802   -2.1333   -1.7019 H   0  0  0  0  0  0  0  0  0  0  0  0
    6.4941    2.5919    0.4143 H   0  0  0  0  0  0  0  0  0  0  0  0
    6.3357    1.1557    2.4253 H   0  0  0  0  0  0  0  0  0  0  0  0
   -2.6679   -2.6476   -0.1614 H   0  0  0  0  0  0  0  0  0  0  0  0
   -1.1172    1.3764    0.1620 H   0  0  0  0  0  0  0  0  0  0  0  0
   -4.9486   -1.7689   -0.0151 H   0  0  0  0  0  0  0  0  0  0  0  0
   -3.3905    2.2423    0.2759 H   0  0  0  0  0  0  0  0  0  0  0  0
  1 25  1  0  0  0  0
  2 25  1  0  0  0  0
  3 25  1  0  0  0  0
  4  9  1  0  0  0  0
  4 29  1  0  0  0  0
  5 12  2  0  0  0  0
  6 13  2  0  0  0  0
  7 16  2  0  0  0  0
  8  9  1  0  0  0  0
  8 16  1  0  0  0  0
  8 26  1  0  0  0  0
  9 12  1  0  0  0  0
  9 13  1  0  0  0  0
 10 11  1  0  0  0  0
 10 12  1  0  0  0  0
 10 14  2  0  0  0  0
 11 13  1  0  0  0  0
 11 15  2  0  0  0  0
 14 18  1  0  0  0  0
 14 27  1  0  0  0  0
 15 19  1  0  0  0  0
 15 28  1  0  0  0  0
 16 17  1  0  0  0  0
 17 20  2  0  0  0  0
 17 21  1  0  0  0  0
 18 19  2  0  0  0  0
 18 30  1  0  0  0  0
 19 31  1  0  0  0  0
 20 23  1  0  0  0  0
 20 32  1  0  0  0  0
 21 24  2  0  0  0  0
 21 33  1  0  0  0  0
 22 23  2  0  0  0  0
 22 24  1  0  0  0  0
 22 25  1  0  0  0  0
 23 34  1  0  0  0  0
 24 35  1  0  0  0  0
M  END
> <PUBCHEM_COMPOUND_CID>
2732881

> <PUBCHEM_CONFORMER_RMSD>
0.8

> <PUBCHEM_CONFORMER_DIVERSEORDER>
1
3
2

> <PUBCHEM_MMFF94_PARTIAL_CHARGES>
35
1 -0.34
10 0.09
11 0.09
12 0.42
13 0.42
14 -0.15
15 -0.15
16 0.54
17 0.09
18 -0.15
19 -0.15
2 -0.34
20 -0.15
21 -0.15
22 -0.14
23 -0.15
24 -0.15
25 1.16
26 0.37
27 0.15
28 0.15
29 0.4
3 -0.34
30 0.15
31 0.15
32 0.15
33 0.15
34 0.15
35 0.15
4 -0.68
5 -0.57
6 -0.57
7 -0.57
8 -0.73
9 0.7

> <PUBCHEM_EFFECTIVE_ROTOR_COUNT>
4.2

> <PUBCHEM_PHARMACOPHORE_FEATURES>
9
1 4 acceptor
1 4 donor
1 5 acceptor
1 6 acceptor
1 7 acceptor
1 8 donor
5 9 10 11 12 13 rings
6 10 11 14 15 18 19 rings
6 17 20 21 22 23 24 rings

> <PUBCHEM_HEAVY_ATOM_COUNT>
25

> <PUBCHEM_ATOM_DEF_STEREO_COUNT>
0

> <PUBCHEM_ATOM_UDEF_STEREO_COUNT>
0

> <PUBCHEM_BOND_DEF_STEREO_COUNT>
0

> <PUBCHEM_BOND_UDEF_STEREO_COUNT>
0

> <PUBCHEM_ISOTOPIC_ATOM_COUNT>
0

> <PUBCHEM_COMPONENT_COUNT>
1

> <PUBCHEM_CACTVS_TAUTO_COUNT>
2

> <PUBCHEM_CONFORMER_ID>
0029B35100000001

> <PUBCHEM_MMFF94_ENERGY>
66.7018

> <PUBCHEM_FEATURE_SELFOVERLAP>
45.81

> <PUBCHEM_SHAPE_FINGERPRINT>
10 15 18113341929347868169
10498660 4 17775290486296716026
10670039 82 18059871536597190776
10674148 151 18260270785845697468
10688039 33 15791723096875397268
10693767 8 12247139510839184724
11128504 68 13183024042360355560
11724838 91 18187365475793114759
11796584 16 11314845996143561032
12236239 1 18113896091333991082
12596602 18 17531245092803270728
12616971 3 17240766211420570207
12633257 1 16298106514310912786
12730499 353 16559038211447049654
13402501 40 17988920102242441040
13533116 47 17313381176006796362
13685833 64 12324236166133751424
13862211 1 7925625593017488785
13914758 101 15647320941371892367
14341114 176 17095237025827182352
14341114 328 18334010622812537480
14347332 77 9871479702992733291
14528608 73 15769772455365288545
14739800 52 18272357668701073616
15142383 8 16009017363548239149
15188451 53 14635161165826128009
15238133 3 18334297608638802156
15348495 7 15285648724275887133
15475509 35 12685355393338084928
15510800 12 12974699514633885472
17492 54 13182740411821979688
17857418 61 8142085355855123481
17980427 23 18336259166914444996
18222031 100 9295286114945792179
19377110 9 18113904909419055123
19784866 240 11025790977179948662
20028762 73 13262686958296703193
20511986 3 18188475939814232079
20715895 44 18115861902614486301
20739085 24 17240478118521449910
21033648 29 17773866666563622472
21150785 3 16630518553955111589
21304303 94 12751243610088540500
21475661 188 17987223620816012392
21521239 73 12751250224865534036
21792934 111 17604429584214590701
21859007 373 17315339350623766957
221357 26 13902194785383551738
22149856 69 18267892544261393091
22950370 63 9799418840242106287
23559900 14 18269288892787906974
2767999 5 18341608222475367097
2838139 119 17560790035625635440
29717793 49 10015866483109235035
300161 21 18411133632818373415
312425 54 15140963959038407993
345986 75 16806703154507630312
3472631 163 18201437029784425260
34797466 226 16630530648356163605
3680242 22 18335986393409983640
4340502 62 17385726893778430707
465052 167 10881403114663246840
5104073 3 17531809194113706968
543368 44 17917993867795185577
59682541 52 15410905011196549204
653340 110 18192992621290565997
7808743 9 18342735268874649394
7970288 3 9151183042825576560
8863177 126 8718243768326041293
960060 61 12823295693165851554
9981440 41 18334579074672664075

> <PUBCHEM_SHAPE_MULTIPOLES>
464.21
15.43
1.95
1.44
13.36
0.33
-0.29
-9.54
4.02
0.12
0.02
-1.99
-0.14
-0.26

> <PUBCHEM_SHAPE_SELFOVERLAP>
1036.637

> <PUBCHEM_SHAPE_VOLUME>
247.3

> <PUBCHEM_COORDINATE_TYPE>
2
5
10

$$$$
