697391
  -OEChem-01171812243D

 31 33  0     0  0  0  0  0  0999 V2000
   -2.4321    1.2000   -0.6421 S   0  0  0  0  0  0  0  0  0  0  0  0
   -2.8983   -1.6519   -0.1981 S   0  0  0  0  0  0  0  0  0  0  0  0
    3.7562    1.1495    1.5509 O   0  0  0  0  0  0  0  0  0  0  0  0
   -2.4495    2.3882    0.1906 O   0  0  0  0  0  0  0  0  0  0  0  0
   -3.5291    0.9442   -1.5555 O   0  0  0  0  0  0  0  0  0  0  0  0
   -0.9336    1.1337   -1.4836 N   0  0  0  0  0  0  0  0  0  0  0  0
    1.1103   -0.0511   -0.7300 C   0  0  0  0  0  0  0  0  0  0  0  0
    0.2803    1.0819   -0.7226 C   0  0  0  0  0  0  0  0  0  0  0  0
    2.2978   -0.0441    0.0398 C   0  0  0  0  0  0  0  0  0  0  0  0
    0.6164    2.2058    0.0327 C   0  0  0  0  0  0  0  0  0  0  0  0
    2.6204    1.0958    0.7941 C   0  0  0  0  0  0  0  0  0  0  0  0
    0.7874   -1.1908   -1.4842 C   0  0  0  0  0  0  0  0  0  0  0  0
    1.7844    2.2129    0.7895 C   0  0  0  0  0  0  0  0  0  0  0  0
   -2.3021   -0.1882    0.4482 C   0  0  0  0  0  0  0  0  0  0  0  0
    3.1275   -1.1772    0.0326 C   0  0  0  0  0  0  0  0  0  0  0  0
    1.6235   -2.3077   -1.4799 C   0  0  0  0  0  0  0  0  0  0  0  0
    2.7914   -2.3009   -0.7229 C   0  0  0  0  0  0  0  0  0  0  0  0
   -1.8153   -0.3302    1.7204 C   0  0  0  0  0  0  0  0  0  0  0  0
   -1.9317   -1.6730    2.1821 C   0  0  0  0  0  0  0  0  0  0  0  0
   -2.5041   -2.4969    1.2381 C   0  0  0  0  0  0  0  0  0  0  0  0
   -0.9325    0.5815   -2.3493 H   0  0  0  0  0  0  0  0  0  0  0  0
   -0.0020    3.0987    0.0253 H   0  0  0  0  0  0  0  0  0  0  0  0
   -0.1125   -1.2526   -2.0889 H   0  0  0  0  0  0  0  0  0  0  0  0
    2.0426    3.0944    1.3702 H   0  0  0  0  0  0  0  0  0  0  0  0
    4.0418   -1.2350    0.6161 H   0  0  0  0  0  0  0  0  0  0  0  0
    1.3615   -3.1840   -2.0659 H   0  0  0  0  0  0  0  0  0  0  0  0
    3.4393   -3.1726   -0.7170 H   0  0  0  0  0  0  0  0  0  0  0  0
   -1.3941    0.4814    2.2995 H   0  0  0  0  0  0  0  0  0  0  0  0
   -1.6113   -2.0173    3.1568 H   0  0  0  0  0  0  0  0  0  0  0  0
   -2.7090   -3.5547    1.3228 H   0  0  0  0  0  0  0  0  0  0  0  0
    4.4413    0.5760    1.1742 H   0  0  0  0  0  0  0  0  0  0  0  0
  1  4  2  0  0  0  0
  1  5  2  0  0  0  0
  1  6  1  0  0  0  0
  1 14  1  0  0  0  0
  2 14  1  0  0  0  0
  2 20  1  0  0  0  0
  3 11  1  0  0  0  0
  3 31  1  0  0  0  0
  6  8  1  0  0  0  0
  6 21  1  0  0  0  0
  7  8  1  0  0  0  0
  7  9  1  0  0  0  0
  7 12  2  0  0  0  0
  8 10  2  0  0  0  0
  9 11  1  0  0  0  0
  9 15  2  0  0  0  0
 10 13  1  0  0  0  0
 10 22  1  0  0  0  0
 11 13  2  0  0  0  0
 12 16  1  0  0  0  0
 12 23  1  0  0  0  0
 13 24  1  0  0  0  0
 14 18  2  0  0  0  0
 15 17  1  0  0  0  0
 15 25  1  0  0  0  0
 16 17  2  0  0  0  0
 16 26  1  0  0  0  0
 17 27  1  0  0  0  0
 18 19  1  0  0  0  0
 18 28  1  0  0  0  0
 19 20  2  0  0  0  0
 19 29  1  0  0  0  0
 20 30  1  0  0  0  0
M  END
> <PUBCHEM_COMPOUND_CID>
697391

> <PUBCHEM_CONFORMER_RMSD>
0.6

> <PUBCHEM_CONFORMER_DIVERSEORDER>
1
18
40
33
37
29
32
13
44
39
35
38
30
16
22
36
34
10
43
7
24
42
31
45
9
3
41
14
12
2
6
20
25
8
17
26
19
15
4
5
27
23
21
28
11

> <PUBCHEM_MMFF94_PARTIAL_CHARGES>
29
1 1.5
10 -0.15
11 0.08
12 -0.15
13 -0.15
14 -0.02
15 -0.15
16 -0.15
17 -0.15
18 -0.15
19 -0.15
2 -0.08
20 -0.11
21 0.42
22 0.15
23 0.15
24 0.15
25 0.15
26 0.15
27 0.15
28 0.15
29 0.15
3 -0.53
30 0.15
31 0.45
4 -0.65
5 -0.65
6 -0.76
8 0.2

> <PUBCHEM_EFFECTIVE_ROTOR_COUNT>
3

> <PUBCHEM_PHARMACOPHORE_FEATURES>
7
1 3 donor
1 4 acceptor
1 5 acceptor
1 6 donor
5 2 14 18 19 20 rings
6 7 8 9 10 11 13 rings
6 7 9 12 15 16 17 rings

> <PUBCHEM_HEAVY_ATOM_COUNT>
20

> <PUBCHEM_ATOM_DEF_STEREO_COUNT>
0

> <PUBCHEM_ATOM_UDEF_STEREO_COUNT>
0

> <PUBCHEM_BOND_DEF_STEREO_COUNT>
0

> <PUBCHEM_BOND_UDEF_STEREO_COUNT>
0

> <PUBCHEM_ISOTOPIC_ATOM_COUNT>
0

> <PUBCHEM_COMPONENT_COUNT>
1

> <PUBCHEM_CACTVS_TAUTO_COUNT>
3

> <PUBCHEM_CONFORMER_ID>
000AA42F00000001

> <PUBCHEM_MMFF94_ENERGY>
56.778

> <PUBCHEM_FEATURE_SELFOVERLAP>
35.565

> <PUBCHEM_SHAPE_FINGERPRINT>
10366900 7 18265616657136662577
10906281 52 17983868774347180796
1100329 8 15238923435560008617
11471102 22 18343581867237509516
11582403 64 16751199880108869085
11640471 11 16128662907536800035
11828532 37 16087821828289160075
12202030 40 18334872605284132263
12400797 245 17974011944213584586
12507560 18 17836087771201238409
12633257 1 18337667495391553098
12788726 201 17118336399306303746
128993 33 11239462370583596531
13294875 104 16966015551109158572
14223421 5 18338520857879660579
15207287 21 18190718934475559653
15309172 13 18057321901875054232
15664445 248 13556854912435142715
16752209 62 17168148936268507371
16945 1 18194970861962152596
18981168 100 11959463236253130115
19049666 15 18337677412317999723
20600515 1 18047488724706340102
20645476 183 15068920602700599177
20832881 197 17764027965561036597
21731516 1 17169858753773975643
232386 152 16950561112116236888
23559900 14 18115026291273451062
2748010 2 18413392029480318478
3797600 57 16414079792315596439
568465 68 18200307852822869384
576247 118 17411662058079874302
6442390 28 11455627499582240343
81228 2 18041010574215701929
8809292 202 18193563259461215518
9709674 26 18409724084475646543

> <PUBCHEM_SHAPE_MULTIPOLES>
396.7
5.67
3
1.76
0.02
0.24
-0.33
0.91
-1.03
0.1
0.06
-0.58
0.4
2.15

> <PUBCHEM_SHAPE_SELFOVERLAP>
847.519

> <PUBCHEM_SHAPE_VOLUME>
220.8

> <PUBCHEM_COORDINATE_TYPE>
2
5
10

$$$$
