889704
  -OEChem-01171812183D

 30 32  0     0  0  0  0  0  0999 V2000
   -1.9073    2.1875   -0.0010 S   0  0  0  0  0  0  0  0  0  0  0  0
    5.0226   -0.8691    0.0008 O   0  0  0  0  0  0  0  0  0  0  0  0
   -4.2205   -1.8932    0.0000 O   0  0  0  0  0  0  0  0  0  0  0  0
   -1.6329   -0.4253    0.0003 N   0  0  0  0  0  0  0  0  0  0  0  0
   -3.8890    0.4468   -0.0004 N   0  0  0  0  0  0  0  0  0  0  0  0
    1.0077    2.1112   -0.0003 C   0  0  0  0  0  0  0  0  0  0  0  0
    1.8077    0.8131   -0.0002 C   0  0  0  0  0  0  0  0  0  0  0  0
    0.9396   -0.3155   -0.0005 C   0  0  0  0  0  0  0  0  0  0  0  0
   -0.3660    1.5370    0.0001 C   0  0  0  0  0  0  0  0  0  0  0  0
   -0.4099    0.1644   -0.0001 C   0  0  0  0  0  0  0  0  0  0  0  0
    3.1786    0.6456    0.0003 C   0  0  0  0  0  0  0  0  0  0  0  0
    1.4186   -1.6078   -0.0009 C   0  0  0  0  0  0  0  0  0  0  0  0
    3.6745   -0.6623   -0.0002 C   0  0  0  0  0  0  0  0  0  0  0  0
   -2.5228    0.5559   -0.0002 C   0  0  0  0  0  0  0  0  0  0  0  0
    2.8062   -1.7734   -0.0013 C   0  0  0  0  0  0  0  0  0  0  0  0
   -4.6391   -0.7404   -0.0003 C   0  0  0  0  0  0  0  0  0  0  0  0
    5.8543    0.2887    0.0018 C   0  0  0  0  0  0  0  0  0  0  0  0
   -6.1222   -0.4631    0.0022 C   0  0  0  0  0  0  0  0  0  0  0  0
    1.2085    2.6922    0.9038 H   0  0  0  0  0  0  0  0  0  0  0  0
    1.2082    2.6919   -0.9047 H   0  0  0  0  0  0  0  0  0  0  0  0
    3.7928    1.5373    0.0009 H   0  0  0  0  0  0  0  0  0  0  0  0
    0.7570   -2.4665   -0.0012 H   0  0  0  0  0  0  0  0  0  0  0  0
    3.2205   -2.7792   -0.0017 H   0  0  0  0  0  0  0  0  0  0  0  0
   -4.3911    1.3310   -0.0003 H   0  0  0  0  0  0  0  0  0  0  0  0
    5.7173    0.8831    0.9117 H   0  0  0  0  0  0  0  0  0  0  0  0
    5.7185    0.8838   -0.9077 H   0  0  0  0  0  0  0  0  0  0  0  0
    6.8926   -0.0593    0.0024 H   0  0  0  0  0  0  0  0  0  0  0  0
   -6.3935    0.0847    0.9090 H   0  0  0  0  0  0  0  0  0  0  0  0
   -6.6762   -1.4056   -0.0234 H   0  0  0  0  0  0  0  0  0  0  0  0
   -6.3900    0.1296   -0.8769 H   0  0  0  0  0  0  0  0  0  0  0  0
  1  9  1  0  0  0  0
  1 14  1  0  0  0  0
  2 13  1  0  0  0  0
  2 17  1  0  0  0  0
  3 16  2  0  0  0  0
  4 10  1  0  0  0  0
  4 14  2  0  0  0  0
  5 14  1  0  0  0  0
  5 16  1  0  0  0  0
  5 24  1  0  0  0  0
  6  7  1  0  0  0  0
  6  9  1  0  0  0  0
  6 19  1  0  0  0  0
  6 20  1  0  0  0  0
  7  8  2  0  0  0  0
  7 11  1  0  0  0  0
  8 10  1  0  0  0  0
  8 12  1  0  0  0  0
  9 10  2  0  0  0  0
 11 13  2  0  0  0  0
 11 21  1  0  0  0  0
 12 15  2  0  0  0  0
 12 22  1  0  0  0  0
 13 15  1  0  0  0  0
 15 23  1  0  0  0  0
 16 18  1  0  0  0  0
 17 25  1  0  0  0  0
 17 26  1  0  0  0  0
 17 27  1  0  0  0  0
 18 28  1  0  0  0  0
 18 29  1  0  0  0  0
 18 30  1  0  0  0  0
M  END
> <PUBCHEM_COMPOUND_CID>
889704

> <PUBCHEM_CONFORMER_RMSD>
0.6

> <PUBCHEM_CONFORMER_DIVERSEORDER>
1
3
2
4
5

> <PUBCHEM_MMFF94_PARTIAL_CHARGES>
22
1 -0.08
10 0.17
11 -0.15
12 -0.15
13 0.08
14 0.44
15 -0.15
16 0.57
17 0.28
18 0.06
2 -0.36
21 0.15
22 0.15
23 0.15
24 0.37
3 -0.57
4 -0.57
5 -0.49
6 0.32
7 -0.14
8 0.05
9 -0.14

> <PUBCHEM_EFFECTIVE_ROTOR_COUNT>
3.2

> <PUBCHEM_PHARMACOPHORE_FEATURES>
6
1 2 acceptor
1 3 acceptor
1 5 donor
5 1 4 9 10 14 rings
5 6 7 8 9 10 rings
6 7 8 11 12 13 15 rings

> <PUBCHEM_HEAVY_ATOM_COUNT>
18

> <PUBCHEM_ATOM_DEF_STEREO_COUNT>
0

> <PUBCHEM_ATOM_UDEF_STEREO_COUNT>
0

> <PUBCHEM_BOND_DEF_STEREO_COUNT>
0

> <PUBCHEM_BOND_UDEF_STEREO_COUNT>
0

> <PUBCHEM_ISOTOPIC_ATOM_COUNT>
0

> <PUBCHEM_COMPONENT_COUNT>
1

> <PUBCHEM_CACTVS_TAUTO_COUNT>
3

> <PUBCHEM_CONFORMER_ID>
000D936800000001

> <PUBCHEM_MMFF94_ENERGY>
64.464

> <PUBCHEM_FEATURE_SELFOVERLAP>
30.749

> <PUBCHEM_SHAPE_FINGERPRINT>
10447042 23 18335410249311721574
11806522 49 18408604751447244292
11963148 33 18408879668068221978
12032990 46 18411983533346679884
12236239 1 17846781806092301155
13140716 1 18196084675672781938
13288520 33 18411702080282506261
13464513 79 18343020004000452430
13583140 156 13973679504125554527
13685833 64 18335424595409695579
13740256 8 18410013277471775147
13862211 1 18409727357283242330
13911882 115 17989497303097751974
14115302 16 17749400298798175199
14251764 18 18201443576142532209
14252887 29 17775293733423919118
14576447 43 18409164407076580886
14787075 74 18335423482596142096
15196674 1 18338798893046360004
15352361 1 18410575102423430675
17492 89 18121778331660217426
17834072 33 18408324406142001628
19141452 34 18343302596206925271
200 152 18343299258574010129
20028762 73 18130783516285322295
20261772 1 17989200464759045463
20645477 70 18409728491476316455
21267235 1 18411707573181836846
221490 88 18190748724611447731
23402539 116 18333445430648797853
23557571 272 18201162048550300932
23559900 14 18337103574833921473
26918003 58 18334013908726392947
2871803 45 18333730195591770499
335352 9 18410573998985919253
350125 39 18411982468216344208
4214541 1 18410575059684858209
4325135 7 18334861627970151372
4463277 17 18411982455404944521
465052 167 18343308101938293527
474229 33 18410855469203782854
5104073 3 18198899215440120298
5486654 2 18409735083982187902
8863177 126 17824558593727491619
9709674 26 18337117765168542418

> <PUBCHEM_SHAPE_MULTIPOLES>
352.58
11.53
2.02
0.6
4.17
0.39
0
-4.31
-0.01
0.33
0
-0.01
0.03
0

> <PUBCHEM_SHAPE_SELFOVERLAP>
762.699

> <PUBCHEM_SHAPE_VOLUME>
197.1

> <PUBCHEM_COORDINATE_TYPE>
2
5
10

$$$$
