323009
  -OEChem-01171812263D

 31 33  0     0  0  0  0  0  0999 V2000
    2.5460   -1.1783    0.5076 O   0  0  0  0  0  0  0  0  0  0  0  0
    3.1869    0.7532   -0.6693 O   0  0  0  0  0  0  0  0  0  0  0  0
    0.8417    1.6842   -0.2420 N   0  0  0  0  0  0  0  0  0  0  0  0
   -3.9875   -0.0003    0.3268 N   0  0  0  0  0  0  0  0  0  0  0  0
    2.1945   -0.2785   -0.5545 C   0  0  0  0  0  0  0  0  0  0  0  0
    0.8363    0.3348   -0.3271 C   0  0  0  0  0  0  0  0  0  0  0  0
   -0.3070   -0.4593   -0.2172 C   0  0  0  0  0  0  0  0  0  0  0  0
   -1.5369    0.1967   -0.0034 C   0  0  0  0  0  0  0  0  0  0  0  0
    3.9274   -0.9134    0.7459 C   0  0  0  0  0  0  0  0  0  0  0  0
    4.0560    0.5552    0.4462 C   0  0  0  0  0  0  0  0  0  0  0  0
   -1.5528    1.5934    0.0875 C   0  0  0  0  0  0  0  0  0  0  0  0
   -2.7087   -0.5689    0.1123 C   0  0  0  0  0  0  0  0  0  0  0  0
   -0.2697   -1.8603   -0.3111 C   0  0  0  0  0  0  0  0  0  0  0  0
   -0.3533    2.2778   -0.0371 C   0  0  0  0  0  0  0  0  0  0  0  0
   -2.6599   -1.9607    0.0173 C   0  0  0  0  0  0  0  0  0  0  0  0
   -1.4431   -2.6049   -0.1940 C   0  0  0  0  0  0  0  0  0  0  0  0
   -2.7700    2.4293    0.3122 C   0  0  0  0  0  0  0  0  0  0  0  0
    2.1961   -0.8291   -1.5027 H   0  0  0  0  0  0  0  0  0  0  0  0
    4.5155   -1.5195    0.0482 H   0  0  0  0  0  0  0  0  0  0  0  0
    4.2016   -1.1732    1.7712 H   0  0  0  0  0  0  0  0  0  0  0  0
    3.6838    1.1664    1.2755 H   0  0  0  0  0  0  0  0  0  0  0  0
    5.0761    0.8617    0.2022 H   0  0  0  0  0  0  0  0  0  0  0  0
    0.6490   -2.4088   -0.4943 H   0  0  0  0  0  0  0  0  0  0  0  0
   -0.3011    3.3607    0.0264 H   0  0  0  0  0  0  0  0  0  0  0  0
   -3.5633   -2.5595    0.1058 H   0  0  0  0  0  0  0  0  0  0  0  0
   -1.4088   -3.6877   -0.2717 H   0  0  0  0  0  0  0  0  0  0  0  0
   -2.5369    3.4968    0.2030 H   0  0  0  0  0  0  0  0  0  0  0  0
   -3.5440    2.2432   -0.4379 H   0  0  0  0  0  0  0  0  0  0  0  0
   -3.1438    2.3216    1.3345 H   0  0  0  0  0  0  0  0  0  0  0  0
   -4.7876   -0.6009    0.1590 H   0  0  0  0  0  0  0  0  0  0  0  0
   -4.0905    0.6248    1.1146 H   0  0  0  0  0  0  0  0  0  0  0  0
  1  5  1  0  0  0  0
  1  9  1  0  0  0  0
  2  5  1  0  0  0  0
  2 10  1  0  0  0  0
  3  6  2  0  0  0  0
  3 14  1  0  0  0  0
  4 12  1  0  0  0  0
  4 30  1  0  0  0  0
  4 31  1  0  0  0  0
  5  6  1  0  0  0  0
  5 18  1  0  0  0  0
  6  7  1  0  0  0  0
  7  8  2  0  0  0  0
  7 13  1  0  0  0  0
  8 11  1  0  0  0  0
  8 12  1  0  0  0  0
  9 10  1  0  0  0  0
  9 19  1  0  0  0  0
  9 20  1  0  0  0  0
 10 21  1  0  0  0  0
 10 22  1  0  0  0  0
 11 14  2  0  0  0  0
 11 17  1  0  0  0  0
 12 15  2  0  0  0  0
 13 16  2  0  0  0  0
 13 23  1  0  0  0  0
 14 24  1  0  0  0  0
 15 16  1  0  0  0  0
 15 25  1  0  0  0  0
 16 26  1  0  0  0  0
 17 27  1  0  0  0  0
 17 28  1  0  0  0  0
 17 29  1  0  0  0  0
M  END
> <PUBCHEM_COMPOUND_CID>
323009

> <PUBCHEM_CONFORMER_RMSD>
0.6

> <PUBCHEM_CONFORMER_DIVERSEORDER>
1
2
3

> <PUBCHEM_MMFF94_PARTIAL_CHARGES>
21
1 -0.56
10 0.28
11 -0.14
12 0.1
13 -0.15
14 0.16
15 -0.15
16 -0.15
17 0.14
2 -0.56
23 0.15
24 0.15
25 0.15
26 0.15
3 -0.62
30 0.4
31 0.4
4 -0.9
5 0.7
6 0.17
9 0.28

> <PUBCHEM_EFFECTIVE_ROTOR_COUNT>
2

> <PUBCHEM_PHARMACOPHORE_FEATURES>
8
1 1 acceptor
1 2 acceptor
1 3 acceptor
1 4 cation
1 4 donor
5 1 2 5 9 10 rings
6 3 6 7 8 11 14 rings
6 7 8 12 13 15 16 rings

> <PUBCHEM_HEAVY_ATOM_COUNT>
17

> <PUBCHEM_ATOM_DEF_STEREO_COUNT>
0

> <PUBCHEM_ATOM_UDEF_STEREO_COUNT>
0

> <PUBCHEM_BOND_DEF_STEREO_COUNT>
0

> <PUBCHEM_BOND_UDEF_STEREO_COUNT>
0

> <PUBCHEM_ISOTOPIC_ATOM_COUNT>
0

> <PUBCHEM_COMPONENT_COUNT>
1

> <PUBCHEM_CACTVS_TAUTO_COUNT>
1

> <PUBCHEM_CONFORMER_ID>
0004EDC100000001

> <PUBCHEM_MMFF94_ENERGY>
72.33

> <PUBCHEM_FEATURE_SELFOVERLAP>
40.678

> <PUBCHEM_SHAPE_FINGERPRINT>
10616163 171 18410858780597350270
10967382 1 18411141311908740207
11132069 177 18341896289867979579
11578080 2 17606087763075318436
12251169 10 18410290315952841440
12382932 28 18413390921341871506
12403814 3 17748824124782777141
12553582 1 18266746976554777630
13140716 1 18267872872614714731
13380535 76 18195244421556820885
13538477 17 18334577966659992430
13862211 1 18411697716875737079
14081887 123 18199452428592002448
14144814 61 18410576197281291122
14420673 8 17905602199899496914
14614273 12 18189332373330609621
15209294 21 17774454767655768081
15375462 189 18187364388881611066
15442244 35 18336544932911740586
15669948 3 18411983598024416638
16752209 62 18410568461923845847
16945 1 18412272748086462719
17804303 29 18342742944118123312
193761 8 17979639266478875517
20028762 73 17914623997695485487
20510252 161 18201159853832620881
20525323 117 18342170046783152302
20871998 184 18272933838310818838
21029758 11 18271798051853588005
21267235 1 18336274495827147698
21501502 16 18122911094670786037
22182313 1 18123767361284630631
22445834 79 18114455657227885586
23184049 29 18267586986226426036
232386 152 18337677524145548166
2334 1 17835525195120734511
23388829 49 18336826510651012510
23402539 116 18343291570698595199
23419403 2 14258210147972120015
23463225 33 18335422357024677054
23557571 272 18201727245346527012
23559900 14 18200318706795719318
257057 1 17981877859257615175
2748010 2 18051147895119193023
34934 24 18337948008126705798
4072396 5 18336537210644795659
427121 178 16338407884908982993
43471831 8 18263926531740281267
474 4 17242466142671342492
5104073 3 18338516447180350498
54173680 148 18337955709135300043
5706482 22 18268421348301416971
58807428 26 18121784928486624851
6992083 37 18186806841918063284
7097593 13 18044643214600146650
7364860 26 17694222570357263281
77492 1 17894355479677215622
81228 2 18411149038327993904
84936 182 17264398843507234961
90316 7 18115298982535879532
9709674 26 18343303635072221798

> <PUBCHEM_SHAPE_MULTIPOLES>
328.15
6.31
2.68
0.73
4.39
0.1
0.01
-0.22
1.25
-2.03
0
0.27
-0.02
-0.39

> <PUBCHEM_SHAPE_SELFOVERLAP>
724.25

> <PUBCHEM_SHAPE_VOLUME>
176.8

> <PUBCHEM_COORDINATE_TYPE>
2
5
10

$$$$
