3154666
  -OEChem-01171812203D

 54 58  0     0  0  0  0  0  0999 V2000
    2.4597    3.1281   -0.2781 Cl  0  0  0  0  0  0  0  0  0  0  0  0
   -0.7757    2.0955    1.0916 O   0  0  0  0  0  0  0  0  0  0  0  0
   -4.7596   -0.9933    0.2072 O   0  0  0  0  0  0  0  0  0  0  0  0
    1.6261   -0.2424   -1.3105 N   0  0  0  0  0  0  0  0  0  0  0  0
   -3.0529    3.3555   -1.1050 N   0  0  0  0  0  0  0  0  0  0  0  0
   -2.6818   -1.4958    2.8582 N   0  0  0  0  0  0  0  0  0  0  0  0
   -2.1754    3.5591   -0.0931 N   0  0  0  0  0  0  0  0  0  0  0  0
   -3.9308   -1.5328    2.3349 N   0  0  0  0  0  0  0  0  0  0  0  0
   -1.9450   -0.1662   -0.5514 C   0  0  0  0  0  0  0  0  0  0  0  0
   -0.5298   -0.4776   -0.8379 C   0  0  0  0  0  0  0  0  0  0  0  0
    0.0561   -1.7729   -0.8986 C   0  0  0  0  0  0  0  0  0  0  0  0
   -2.2639    1.3127   -0.6392 C   0  0  0  0  0  0  0  0  0  0  0  0
   -2.4281   -0.7290    0.7701 C   0  0  0  0  0  0  0  0  0  0  0  0
    1.4092   -1.5971   -1.1965 C   0  0  0  0  0  0  0  0  0  0  0  0
    0.4604    0.4423   -1.0954 C   0  0  0  0  0  0  0  0  0  0  0  0
   -3.1182    2.0200   -1.3998 C   0  0  0  0  0  0  0  0  0  0  0  0
   -1.8067   -0.9917    1.9336 C   0  0  0  0  0  0  0  0  0  0  0  0
    2.8960    0.3833   -1.6117 C   0  0  0  0  0  0  0  0  0  0  0  0
   -1.6195    2.3356    0.2447 C   0  0  0  0  0  0  0  0  0  0  0  0
   -3.8592   -1.0904    1.0236 C   0  0  0  0  0  0  0  0  0  0  0  0
   -0.4362   -3.0822   -0.7281 C   0  0  0  0  0  0  0  0  0  0  0  0
    2.2980   -2.6694   -1.3332 C   0  0  0  0  0  0  0  0  0  0  0  0
    3.6696    0.6873   -0.3573 C   0  0  0  0  0  0  0  0  0  0  0  0
    0.4413   -4.1643   -0.8617 C   0  0  0  0  0  0  0  0  0  0  0  0
   -4.0689    1.5265   -2.4311 C   0  0  0  0  0  0  0  0  0  0  0  0
   -0.3789   -0.7811    2.2910 C   0  0  0  0  0  0  0  0  0  0  0  0
    1.7870   -3.9588   -1.1597 C   0  0  0  0  0  0  0  0  0  0  0  0
    3.5274    1.9023    0.3017 C   0  0  0  0  0  0  0  0  0  0  0  0
    4.5355   -0.2863    0.1271 C   0  0  0  0  0  0  0  0  0  0  0  0
    4.2618    2.1479    1.4619 C   0  0  0  0  0  0  0  0  0  0  0  0
    5.2696   -0.0411    1.2877 C   0  0  0  0  0  0  0  0  0  0  0  0
    5.1329    1.1762    1.9549 C   0  0  0  0  0  0  0  0  0  0  0  0
   -2.5200   -0.6793   -1.3348 H   0  0  0  0  0  0  0  0  0  0  0  0
    0.4328    1.5145   -1.2054 H   0  0  0  0  0  0  0  0  0  0  0  0
    2.7080    1.2738   -2.2215 H   0  0  0  0  0  0  0  0  0  0  0  0
    3.4654   -0.2850   -2.2691 H   0  0  0  0  0  0  0  0  0  0  0  0
   -1.4827   -3.2658   -0.5028 H   0  0  0  0  0  0  0  0  0  0  0  0
    3.3410   -2.5320   -1.5906 H   0  0  0  0  0  0  0  0  0  0  0  0
   -3.7722    4.0213   -1.3483 H   0  0  0  0  0  0  0  0  0  0  0  0
   -2.5036   -1.5141    3.8521 H   0  0  0  0  0  0  0  0  0  0  0  0
   -1.9966    4.4842    0.2739 H   0  0  0  0  0  0  0  0  0  0  0  0
   -4.7196   -1.8670    2.8719 H   0  0  0  0  0  0  0  0  0  0  0  0
    0.0666   -5.1765   -0.7341 H   0  0  0  0  0  0  0  0  0  0  0  0
   -3.8416    1.9759   -3.4032 H   0  0  0  0  0  0  0  0  0  0  0  0
   -4.0297    0.4403   -2.5499 H   0  0  0  0  0  0  0  0  0  0  0  0
   -5.0958    1.7936   -2.1608 H   0  0  0  0  0  0  0  0  0  0  0  0
    0.1469   -1.7409    2.3233 H   0  0  0  0  0  0  0  0  0  0  0  0
   -0.3092   -0.3336    3.2893 H   0  0  0  0  0  0  0  0  0  0  0  0
    0.1666   -0.1158    1.6265 H   0  0  0  0  0  0  0  0  0  0  0  0
    2.4493   -4.8142   -1.2654 H   0  0  0  0  0  0  0  0  0  0  0  0
    4.6776   -1.2314   -0.3846 H   0  0  0  0  0  0  0  0  0  0  0  0
    4.1666    3.0912    1.9939 H   0  0  0  0  0  0  0  0  0  0  0  0
    5.9516   -0.7956    1.6689 H   0  0  0  0  0  0  0  0  0  0  0  0
    5.7054    1.3677    2.8578 H   0  0  0  0  0  0  0  0  0  0  0  0
  1 28  1  0  0  0  0
  2 19  2  0  0  0  0
  3 20  2  0  0  0  0
  4 14  1  0  0  0  0
  4 15  1  0  0  0  0
  4 18  1  0  0  0  0
  5  7  1  0  0  0  0
  5 16  1  0  0  0  0
  5 39  1  0  0  0  0
  6  8  1  0  0  0  0
  6 17  1  0  0  0  0
  6 40  1  0  0  0  0
  7 19  1  0  0  0  0
  7 41  1  0  0  0  0
  8 20  1  0  0  0  0
  8 42  1  0  0  0  0
  9 10  1  0  0  0  0
  9 12  1  0  0  0  0
  9 13  1  0  0  0  0
  9 33  1  0  0  0  0
 10 11  1  0  0  0  0
 10 15  2  0  0  0  0
 11 14  1  0  0  0  0
 11 21  2  0  0  0  0
 12 16  2  0  0  0  0
 12 19  1  0  0  0  0
 13 17  2  0  0  0  0
 13 20  1  0  0  0  0
 14 22  2  0  0  0  0
 15 34  1  0  0  0  0
 16 25  1  0  0  0  0
 17 26  1  0  0  0  0
 18 23  1  0  0  0  0
 18 35  1  0  0  0  0
 18 36  1  0  0  0  0
 21 24  1  0  0  0  0
 21 37  1  0  0  0  0
 22 27  1  0  0  0  0
 22 38  1  0  0  0  0
 23 28  1  0  0  0  0
 23 29  2  0  0  0  0
 24 27  2  0  0  0  0
 24 43  1  0  0  0  0
 25 44  1  0  0  0  0
 25 45  1  0  0  0  0
 25 46  1  0  0  0  0
 26 47  1  0  0  0  0
 26 48  1  0  0  0  0
 26 49  1  0  0  0  0
 27 50  1  0  0  0  0
 28 30  2  0  0  0  0
 29 31  1  0  0  0  0
 29 51  1  0  0  0  0
 30 32  1  0  0  0  0
 30 52  1  0  0  0  0
 31 32  2  0  0  0  0
 31 53  1  0  0  0  0
 32 54  1  0  0  0  0
M  END
> <PUBCHEM_COMPOUND_CID>
3154666

> <PUBCHEM_CONFORMER_RMSD>
0.8

> <PUBCHEM_CONFORMER_DIVERSEORDER>
25
353
448
176
320
241
445
157
109
417
440
443
332
393
377
338
50
369
236
60
32
189
342
358
278
399
330
232
306
67
408
116
360
95
419
356
250
208
405
314
9
86
285
321
441
222
77
416
34
261
394
317
92
274
206
244
276
423
412
68
384
252
425
296
439
381
382
390
270
422
368
239
161
183
308
134
26
415
385
167
402
175
318
194
122
29
410
179
434
398
70
114
221
372
380
89
427
411
387
19
344
373
231
403
407
139
102
39
265
421
142
401
286
284
289
156
339
195
174
242
107
85
395
185
396
386
160
228
147
392
371
173
300
153
87
316
233
172
213
65
258
72
249
319
201
301
193
428
378
246
140
212
75
311
260
66
346
430
269
389
248
329
181
130
124
355
429
312
435
374
54
272
82
132
298
227
123
267
243
436
307
266
7
327
309
444
433
127
383
136
186
254
447
293
225
205
288
404
170
400
52
196
209
418
290
216
264
141
197
271
78
191
17
152
83
177
48
137
351
120
295
110
335
348
361
151
171
409
310
41
214
76
188
282
349
315
263
313
226
112
279
63
144
164
325
352
149
133
207
121
5
363
106
104
345
414
420
397
255
215
105
391
96
280
204
138
354
30
437
47
287
304
49
262
180
343
71
115
379
62
125
84
234
166
51
143
334
211
365
275
268
376
229
101
438
218
324
247
154
192
224
424
199
79
238
223
253
362
98
359
21
240
366
128
245
113
292
370
37
35
294
118
283
182
198
162
281
91
337
331
203
219
150
131
117
56
58
108
148
273
333
431
187
336
302
406
24
347
217
169
163
146
235
13
340
155
322
341
94
44
259
73
55
375
200
40
57
305
119
18
257
328
4
432
202
277
297
388
10
367
126
59
69
14
99
178
15
364
97
74
168
190
11
220
237
159
6
16
111
426
22
45
442
80
36
184
135
8
43
230
413
46
3
446
31
165
38
210
158
357
129
64
93
90
291
61
350
251
299
326
256
1
303
42
53
88
103
28
145
81
323
100
20
33
23
2
27
12

> <PUBCHEM_MMFF94_PARTIAL_CHARGES>
44
1 -0.18
10 -0.18
12 -0.12
13 -0.12
14 -0.15
15 -0.3
16 -0.04
17 -0.04
18 0.4
19 0.62
2 -0.57
20 0.62
21 -0.15
22 -0.15
23 -0.14
24 -0.15
25 0.14
26 0.14
27 -0.15
28 0.18
29 -0.15
3 -0.57
30 -0.15
31 -0.15
32 -0.15
34 0.15
37 0.15
38 0.15
39 0.4
4 0.05
40 0.4
41 0.37
42 0.37
43 0.15
5 -0.52
50 0.15
51 0.15
52 0.15
53 0.15
54 0.15
6 -0.52
7 -0.41
8 -0.41
9 0.46

> <PUBCHEM_EFFECTIVE_ROTOR_COUNT>
5

> <PUBCHEM_PHARMACOPHORE_FEATURES>
12
1 2 acceptor
1 3 acceptor
1 4 cation
1 5 donor
1 6 donor
1 7 donor
1 8 donor
5 4 10 11 14 15 rings
5 5 7 12 16 19 rings
5 6 8 13 17 20 rings
6 11 14 21 22 24 27 rings
6 23 28 29 30 31 32 rings

> <PUBCHEM_HEAVY_ATOM_COUNT>
32

> <PUBCHEM_ATOM_DEF_STEREO_COUNT>
0

> <PUBCHEM_ATOM_UDEF_STEREO_COUNT>
0

> <PUBCHEM_BOND_DEF_STEREO_COUNT>
0

> <PUBCHEM_BOND_UDEF_STEREO_COUNT>
0

> <PUBCHEM_ISOTOPIC_ATOM_COUNT>
0

> <PUBCHEM_COMPONENT_COUNT>
1

> <PUBCHEM_CACTVS_TAUTO_COUNT>
15

> <PUBCHEM_CONFORMER_ID>
003022EA00000019

> <PUBCHEM_MMFF94_ENERGY>
90.7616

> <PUBCHEM_FEATURE_SELFOVERLAP>
64.226

> <PUBCHEM_SHAPE_FINGERPRINT>
10165383 225 17911275920125767302
11370993 70 18271228457638449044
11578080 2 18059297539897421251
11582403 64 17680952332709478407
11828532 37 16663751443529846803
12107698 1 18114738343480267400
12156800 1 17406777112369065787
12160290 23 17627795541580614022
12422481 6 18262540138246606377
12549972 3 18047488737211725882
12633257 1 18057324096967261640
12788726 201 17532677786656137769
131258 38 15364469641853891634
13140716 1 18123761012996302862
13583140 156 17532634910287687916
13911987 19 18268435809461954837
14468879 13 18338227185195777384
14787075 74 17059506277816317979
15513586 35 16834565054218154056
15775530 1 18118140090501223623
15815584 197 18199752453769912870
16728300 4 18042942342894234954
20511986 3 16988573377194418577
21033648 144 17916579981630175372
21033648 29 18272078410344718880
21304303 282 17532908564498218149
22182313 1 18338809913579365078
23559900 14 18191035507787798598
3380486 145 18337407036323226643
3493558 16 16836252327265361184
3886686 26 17460864095036776618
4015057 19 17836078975066336759
4340502 62 17773619263199175515
469060 322 18198057174159211127
5081480 168 16915405224967891948
5171179 24 18196942071389168086
6004065 56 18195532721806699331
6913067 236 18340770446181106511
81228 2 17462041767248913829
9981440 41 18268411491156417361

> <PUBCHEM_SHAPE_MULTIPOLES>
623.77
8.95
4.53
2.3
5.05
1.57
-1.18
-4.22
-3.03
-0.06
1.69
-1.34
0.42
3.22

> <PUBCHEM_SHAPE_SELFOVERLAP>
1385.172

> <PUBCHEM_SHAPE_VOLUME>
335.1

> <PUBCHEM_COORDINATE_TYPE>
2
5
10

$$$$
