3118982
  -OEChem-01171812203D

 65 69  0     0  0  0  0  0  0999 V2000
    1.1341    1.0257    0.2697 O   0  0  0  0  0  0  0  0  0  0  0  0
   -1.6436    0.1308    0.5601 O   0  0  0  0  0  0  0  0  0  0  0  0
   -0.4685   -3.4309    2.4146 O   0  0  0  0  0  0  0  0  0  0  0  0
   -2.4901   -4.9641    1.2791 O   0  0  0  0  0  0  0  0  0  0  0  0
    3.2769    0.2127   -0.2939 N   0  0  0  0  0  0  0  0  0  0  0  0
   -2.1877    1.9935   -0.7833 N   0  0  0  0  0  0  0  0  0  0  0  0
    3.6697   -0.7744   -1.1621 N   0  0  0  0  0  0  0  0  0  0  0  0
   -1.7888    2.3427   -2.0489 N   0  0  0  0  0  0  0  0  0  0  0  0
    0.0168   -0.9033   -1.7329 C   0  0  0  0  0  0  0  0  0  0  0  0
    1.4383   -0.7156   -1.3693 C   0  0  0  0  0  0  0  0  0  0  0  0
   -0.7727    0.3799   -1.6739 C   0  0  0  0  0  0  0  0  0  0  0  0
   -0.6584   -2.0001   -0.9160 C   0  0  0  0  0  0  0  0  0  0  0  0
    2.5720   -1.2880   -1.8046 C   0  0  0  0  0  0  0  0  0  0  0  0
   -0.9777    1.3636   -2.5640 C   0  0  0  0  0  0  0  0  0  0  0  0
    1.8858    0.2971   -0.3573 C   0  0  0  0  0  0  0  0  0  0  0  0
   -1.5770    0.7784   -0.4720 C   0  0  0  0  0  0  0  0  0  0  0  0
   -0.2467   -2.2094    0.3825 C   0  0  0  0  0  0  0  0  0  0  0  0
   -1.6578   -2.7452   -1.5039 C   0  0  0  0  0  0  0  0  0  0  0  0
    2.7423   -2.3262   -2.8557 C   0  0  0  0  0  0  0  0  0  0  0  0
   -0.4719    1.4730   -3.9583 C   0  0  0  0  0  0  0  0  0  0  0  0
    4.1061    0.9815    0.4974 C   0  0  0  0  0  0  0  0  0  0  0  0
   -3.0375    2.7126    0.0325 C   0  0  0  0  0  0  0  0  0  0  0  0
   -0.8645   -3.2124    1.1296 C   0  0  0  0  0  0  0  0  0  0  0  0
   -2.2754   -3.7483   -0.7570 C   0  0  0  0  0  0  0  0  0  0  0  0
   -1.8788   -3.9819    0.5599 C   0  0  0  0  0  0  0  0  0  0  0  0
    3.5728    1.9626    1.3458 C   0  0  0  0  0  0  0  0  0  0  0  0
   -3.3660    2.2406    1.3116 C   0  0  0  0  0  0  0  0  0  0  0  0
    5.4957    0.7945    0.4656 C   0  0  0  0  0  0  0  0  0  0  0  0
   -3.5868    3.9268   -0.4046 C   0  0  0  0  0  0  0  0  0  0  0  0
    4.4109    2.7399    2.1453 C   0  0  0  0  0  0  0  0  0  0  0  0
   -4.2252    2.9673    2.1359 C   0  0  0  0  0  0  0  0  0  0  0  0
    6.3339    1.5715    1.2653 C   0  0  0  0  0  0  0  0  0  0  0  0
   -4.4457    4.6535    0.4199 C   0  0  0  0  0  0  0  0  0  0  0  0
    5.7914    2.5443    2.1052 C   0  0  0  0  0  0  0  0  0  0  0  0
   -4.7649    4.1738    1.6902 C   0  0  0  0  0  0  0  0  0  0  0  0
   -1.1443   -2.6982    3.4346 C   0  0  0  0  0  0  0  0  0  0  0  0
   -1.9167   -6.2684    1.2128 C   0  0  0  0  0  0  0  0  0  0  0  0
   -0.0016   -1.2392   -2.7795 H   0  0  0  0  0  0  0  0  0  0  0  0
    4.5852   -0.7890   -1.5907 H   0  0  0  0  0  0  0  0  0  0  0  0
   -2.3445    2.9361   -2.6498 H   0  0  0  0  0  0  0  0  0  0  0  0
    0.5309   -1.6288    0.8651 H   0  0  0  0  0  0  0  0  0  0  0  0
   -1.9740   -2.5687   -2.5275 H   0  0  0  0  0  0  0  0  0  0  0  0
    3.2489   -3.2049   -2.4434 H   0  0  0  0  0  0  0  0  0  0  0  0
    1.7849   -2.6592   -3.2668 H   0  0  0  0  0  0  0  0  0  0  0  0
    3.3453   -1.9372   -3.6824 H   0  0  0  0  0  0  0  0  0  0  0  0
   -1.3062    1.5002   -4.6665 H   0  0  0  0  0  0  0  0  0  0  0  0
    0.1136    2.3903   -4.0796 H   0  0  0  0  0  0  0  0  0  0  0  0
    0.1714    0.6308   -4.2298 H   0  0  0  0  0  0  0  0  0  0  0  0
   -3.0659   -4.3430   -1.2068 H   0  0  0  0  0  0  0  0  0  0  0  0
    2.5187    2.1824    1.4384 H   0  0  0  0  0  0  0  0  0  0  0  0
   -2.9963    1.3178    1.7356 H   0  0  0  0  0  0  0  0  0  0  0  0
    5.9566    0.0448   -0.1715 H   0  0  0  0  0  0  0  0  0  0  0  0
   -3.3595    4.3363   -1.3849 H   0  0  0  0  0  0  0  0  0  0  0  0
    3.9901    3.4981    2.7994 H   0  0  0  0  0  0  0  0  0  0  0  0
   -4.4751    2.5949    3.1252 H   0  0  0  0  0  0  0  0  0  0  0  0
    7.4088    1.4190    1.2351 H   0  0  0  0  0  0  0  0  0  0  0  0
   -4.8655    5.5935    0.0736 H   0  0  0  0  0  0  0  0  0  0  0  0
    6.4440    3.1492    2.7278 H   0  0  0  0  0  0  0  0  0  0  0  0
   -5.4336    4.7397    2.3322 H   0  0  0  0  0  0  0  0  0  0  0  0
   -0.9997   -1.6222    3.2933 H   0  0  0  0  0  0  0  0  0  0  0  0
   -2.2125   -2.9366    3.4369 H   0  0  0  0  0  0  0  0  0  0  0  0
   -0.7198   -2.9844    4.4007 H   0  0  0  0  0  0  0  0  0  0  0  0
   -1.9387   -6.6450    0.1853 H   0  0  0  0  0  0  0  0  0  0  0  0
   -0.8882   -6.2568    1.5871 H   0  0  0  0  0  0  0  0  0  0  0  0
   -2.5105   -6.9361    1.8429 H   0  0  0  0  0  0  0  0  0  0  0  0
  1 15  2  0  0  0  0
  2 16  2  0  0  0  0
  3 23  1  0  0  0  0
  3 36  1  0  0  0  0
  4 25  1  0  0  0  0
  4 37  1  0  0  0  0
  5  7  1  0  0  0  0
  5 15  1  0  0  0  0
  5 21  1  0  0  0  0
  6  8  1  0  0  0  0
  6 16  1  0  0  0  0
  6 22  1  0  0  0  0
  7 13  1  0  0  0  0
  7 39  1  0  0  0  0
  8 14  1  0  0  0  0
  8 40  1  0  0  0  0
  9 10  1  0  0  0  0
  9 11  1  0  0  0  0
  9 12  1  0  0  0  0
  9 38  1  0  0  0  0
 10 13  2  0  0  0  0
 10 15  1  0  0  0  0
 11 14  2  0  0  0  0
 11 16  1  0  0  0  0
 12 17  2  0  0  0  0
 12 18  1  0  0  0  0
 13 19  1  0  0  0  0
 14 20  1  0  0  0  0
 17 23  1  0  0  0  0
 17 41  1  0  0  0  0
 18 24  2  0  0  0  0
 18 42  1  0  0  0  0
 19 43  1  0  0  0  0
 19 44  1  0  0  0  0
 19 45  1  0  0  0  0
 20 46  1  0  0  0  0
 20 47  1  0  0  0  0
 20 48  1  0  0  0  0
 21 26  2  0  0  0  0
 21 28  1  0  0  0  0
 22 27  2  0  0  0  0
 22 29  1  0  0  0  0
 23 25  2  0  0  0  0
 24 25  1  0  0  0  0
 24 49  1  0  0  0  0
 26 30  1  0  0  0  0
 26 50  1  0  0  0  0
 27 31  1  0  0  0  0
 27 51  1  0  0  0  0
 28 32  2  0  0  0  0
 28 52  1  0  0  0  0
 29 33  2  0  0  0  0
 29 53  1  0  0  0  0
 30 34  2  0  0  0  0
 30 54  1  0  0  0  0
 31 35  2  0  0  0  0
 31 55  1  0  0  0  0
 32 34  1  0  0  0  0
 32 56  1  0  0  0  0
 33 35  1  0  0  0  0
 33 57  1  0  0  0  0
 34 58  1  0  0  0  0
 35 59  1  0  0  0  0
 36 60  1  0  0  0  0
 36 61  1  0  0  0  0
 36 62  1  0  0  0  0
 37 63  1  0  0  0  0
 37 64  1  0  0  0  0
 37 65  1  0  0  0  0
M  END
> <PUBCHEM_COMPOUND_CID>
3118982

> <PUBCHEM_CONFORMER_RMSD>
1

> <PUBCHEM_CONFORMER_DIVERSEORDER>
1
3
48
15
11
17
45
37
34
42
41
10
18
33
47
14
19
43
39
50
40
16
49
6
26
23
9
8
35
29
28
12
36
2
13
46
7
31
25
5
22
27
44
51
38
32
21
20
24
4
30

> <PUBCHEM_MMFF94_PARTIAL_CHARGES>
52
1 -0.57
10 -0.12
11 -0.12
12 -0.14
13 -0.04
14 -0.04
15 0.62
16 0.62
17 -0.15
18 -0.15
19 0.14
2 -0.57
20 0.14
21 0.12
22 0.12
23 0.08
24 -0.15
25 0.08
26 -0.15
27 -0.15
28 -0.15
29 -0.15
3 -0.36
30 -0.15
31 -0.15
32 -0.15
33 -0.15
34 -0.15
35 -0.15
36 0.28
37 0.28
39 0.4
4 -0.36
40 0.4
41 0.15
42 0.15
49 0.15
5 -0.16
50 0.15
51 0.15
52 0.15
53 0.15
54 0.15
55 0.15
56 0.15
57 0.15
58 0.15
59 0.15
6 -0.16
7 -0.52
8 -0.52
9 0.42

> <PUBCHEM_EFFECTIVE_ROTOR_COUNT>
7

> <PUBCHEM_PHARMACOPHORE_FEATURES>
11
1 1 acceptor
1 2 acceptor
1 3 acceptor
1 4 acceptor
1 7 donor
1 8 donor
5 5 7 10 13 15 rings
5 6 8 11 14 16 rings
6 12 17 18 23 24 25 rings
6 21 26 28 30 32 34 rings
6 22 27 29 31 33 35 rings

> <PUBCHEM_HEAVY_ATOM_COUNT>
37

> <PUBCHEM_ATOM_DEF_STEREO_COUNT>
0

> <PUBCHEM_ATOM_UDEF_STEREO_COUNT>
0

> <PUBCHEM_BOND_DEF_STEREO_COUNT>
0

> <PUBCHEM_BOND_UDEF_STEREO_COUNT>
0

> <PUBCHEM_ISOTOPIC_ATOM_COUNT>
0

> <PUBCHEM_COMPONENT_COUNT>
1

> <PUBCHEM_CACTVS_TAUTO_COUNT>
6

> <PUBCHEM_CONFORMER_ID>
002F978600000001

> <PUBCHEM_MMFF94_ENERGY>
156.8669

> <PUBCHEM_FEATURE_SELFOVERLAP>
55.83

> <PUBCHEM_SHAPE_FINGERPRINT>
10074138 170 18335980964850487089
10165383 225 17903100857614881892
11070050 100 17973737882324189905
11115154 58 17840560907522852671
11578080 2 18197243432844252684
12160290 23 17968387826442426087
12522641 24 17620206330406456689
12741549 16 17766551731389194379
12788726 201 18117293659826463831
14020679 6 18267018363386604410
140371 6 18267019638469386125
14068700 675 17172624111776179458
14565420 104 18196371412380764209
14705955 166 18267011946393884288
15142526 21 18128816352644152953
15338160 23 18267307719433325692
15775530 1 18271261481584180718
15878777 1 15893948773228935309
16114785 44 18341332266584464067
16993438 75 18129654331002285080
17980427 26 17981310206172651909
18681886 176 17464302336758538853
19246450 95 17616497716308772384
20600515 1 17826500347597857863
21033648 29 18265914474411862528
21049683 118 18265604407858422896
21120745 212 17902247919849117948
21344244 78 17762361488191212451
22122407 14 17268926684431509177
23845131 108 18339358544549566853
24180151 214 18051374515037610221
24893989 43 14504079566843120465
3380486 145 17337005549345201134
3418910 222 17757258655307589008
376196 1 17987792995396806532
4408954 87 18271544043804886571
469060 322 17531235180303529525
46939830 39 10186568841560588843
7288768 16 18341603794190349368
81228 2 18260270797222098671
9658208 31 18267604441321657486
9896288 288 18339352089593763482
9981440 41 17773574149083483922

> <PUBCHEM_SHAPE_MULTIPOLES>
718.04
9.78
7.72
3.26
12.65
7.33
0.97
-15.12
-6.33
-10.97
-5.14
0.02
0.54
2.82

> <PUBCHEM_SHAPE_SELFOVERLAP>
1587.562

> <PUBCHEM_SHAPE_VOLUME>
388.3

> <PUBCHEM_COORDINATE_TYPE>
2
5
10

$$$$
