614841
  -OEChem-01171812223D

 30 32  0     0  0  0  0  0  0999 V2000
    3.9128   -0.5891   -0.0656 O   0  0  0  0  0  0  0  0  0  0  0  0
    1.6533    1.1212    0.0501 N   0  0  0  0  0  0  0  0  0  0  0  0
    0.8570   -2.2955   -0.0572 N   0  0  0  0  0  0  0  0  0  0  0  0
    2.2327   -2.2580   -0.0662 N   0  0  0  0  0  0  0  0  0  0  0  0
    0.5134    2.0283    0.1177 C   0  0  0  0  0  0  0  0  0  0  0  0
   -0.5924    1.6354   -0.8774 C   0  0  0  0  0  0  0  0  0  0  0  0
   -1.4983    0.5206   -0.4256 C   0  0  0  0  0  0  0  0  0  0  0  0
    1.0694    3.4027   -0.3129 C   0  0  0  0  0  0  0  0  0  0  0  0
    0.0390    2.1462    1.5731 C   0  0  0  0  0  0  0  0  0  0  0  0
   -1.0240   -0.7395   -0.0442 C   0  0  0  0  0  0  0  0  0  0  0  0
    1.5575   -0.1457   -0.0170 C   0  0  0  0  0  0  0  0  0  0  0  0
    0.4005   -1.0725   -0.0404 C   0  0  0  0  0  0  0  0  0  0  0  0
   -2.8879    0.7459   -0.4203 C   0  0  0  0  0  0  0  0  0  0  0  0
   -1.9283   -1.7454    0.3353 C   0  0  0  0  0  0  0  0  0  0  0  0
    2.7772   -1.0006   -0.0549 C   0  0  0  0  0  0  0  0  0  0  0  0
   -3.7813   -0.2537   -0.0363 C   0  0  0  0  0  0  0  0  0  0  0  0
   -3.3005   -1.5005    0.3420 C   0  0  0  0  0  0  0  0  0  0  0  0
   -0.1592    1.3549   -1.8474 H   0  0  0  0  0  0  0  0  0  0  0  0
   -1.2093    2.5220   -1.0785 H   0  0  0  0  0  0  0  0  0  0  0  0
    1.9065    3.7104    0.3251 H   0  0  0  0  0  0  0  0  0  0  0  0
    1.4442    3.3706   -1.3428 H   0  0  0  0  0  0  0  0  0  0  0  0
    0.3004    4.1812   -0.2559 H   0  0  0  0  0  0  0  0  0  0  0  0
    0.8400    2.5303    2.2161 H   0  0  0  0  0  0  0  0  0  0  0  0
   -0.8134    2.8293    1.6563 H   0  0  0  0  0  0  0  0  0  0  0  0
   -0.2569    1.1802    1.9943 H   0  0  0  0  0  0  0  0  0  0  0  0
   -3.2890    1.7121   -0.7185 H   0  0  0  0  0  0  0  0  0  0  0  0
   -1.5821   -2.7307    0.6382 H   0  0  0  0  0  0  0  0  0  0  0  0
   -4.8494   -0.0577   -0.0365 H   0  0  0  0  0  0  0  0  0  0  0  0
   -3.9912   -2.2834    0.6407 H   0  0  0  0  0  0  0  0  0  0  0  0
    2.7400   -3.1345   -0.0866 H   0  0  0  0  0  0  0  0  0  0  0  0
  1 15  2  0  0  0  0
  2  5  1  0  0  0  0
  2 11  2  0  0  0  0
  3  4  1  0  0  0  0
  3 12  2  0  0  0  0
  4 15  1  0  0  0  0
  4 30  1  0  0  0  0
  5  6  1  0  0  0  0
  5  8  1  0  0  0  0
  5  9  1  0  0  0  0
  6  7  1  0  0  0  0
  6 18  1  0  0  0  0
  6 19  1  0  0  0  0
  7 10  1  0  0  0  0
  7 13  2  0  0  0  0
  8 20  1  0  0  0  0
  8 21  1  0  0  0  0
  8 22  1  0  0  0  0
  9 23  1  0  0  0  0
  9 24  1  0  0  0  0
  9 25  1  0  0  0  0
 10 12  1  0  0  0  0
 10 14  2  0  0  0  0
 11 12  1  0  0  0  0
 11 15  1  0  0  0  0
 13 16  1  0  0  0  0
 13 26  1  0  0  0  0
 14 17  1  0  0  0  0
 14 27  1  0  0  0  0
 16 17  2  0  0  0  0
 16 28  1  0  0  0  0
 17 29  1  0  0  0  0
M  END
> <PUBCHEM_COMPOUND_CID>
614841

> <PUBCHEM_CONFORMER_RMSD>
0.6

> <PUBCHEM_CONFORMER_DIVERSEORDER>
1
2

> <PUBCHEM_MMFF94_PARTIAL_CHARGES>
20
1 -0.57
10 0.09
11 0.45
12 0.36
13 -0.15
14 -0.15
15 0.63
16 -0.15
17 -0.15
2 -0.7
26 0.15
27 0.15
28 0.15
29 0.15
3 -0.51
30 0.37
4 -0.37
5 0.25
6 0.14
7 -0.14

> <PUBCHEM_EFFECTIVE_ROTOR_COUNT>
0.6

> <PUBCHEM_PHARMACOPHORE_FEATURES>
8
1 1 acceptor
1 2 acceptor
1 3 acceptor
1 4 donor
3 5 8 9 hydrophobe
5 3 4 11 12 15 rings
6 7 10 13 14 16 17 rings
7 2 5 6 7 10 11 12 rings

> <PUBCHEM_HEAVY_ATOM_COUNT>
17

> <PUBCHEM_ATOM_DEF_STEREO_COUNT>
0

> <PUBCHEM_ATOM_UDEF_STEREO_COUNT>
0

> <PUBCHEM_BOND_DEF_STEREO_COUNT>
0

> <PUBCHEM_BOND_UDEF_STEREO_COUNT>
0

> <PUBCHEM_ISOTOPIC_ATOM_COUNT>
0

> <PUBCHEM_COMPONENT_COUNT>
1

> <PUBCHEM_CACTVS_TAUTO_COUNT>
3

> <PUBCHEM_CONFORMER_ID>
000961B900000001

> <PUBCHEM_MMFF94_ENERGY>
63.669

> <PUBCHEM_FEATURE_SELFOVERLAP>
40.651

> <PUBCHEM_SHAPE_FINGERPRINT>
104564 63 18057331586757132072
108231 29 18410857663620672490
10967382 1 18409729598902522094
11112241 14 16340034350718308968
11680986 33 18046630276623791571
12382932 28 18339923693083067275
13027679 85 18412544288751355893
13132413 78 18270125600015040377
13140716 1 18265334104371197707
14648413 74 18263080071227343785
15001771 113 18339649940399675409
16945 1 18409166614858400797
17990270 104 18336260249320023379
193761 8 17833831947066480742
19591789 44 17688599672472607828
20201158 50 18409165485187283671
20510252 161 18124027927843677018
20588541 1 18336827502757036647
20645477 70 18118673547293875575
21029758 11 18340196402437656733
21041028 32 18343032098749853041
21267235 1 18410022008892816319
21501502 16 18267588094866123431
21524375 3 17479743061941007932
22721475 48 18409169900460857463
2334 1 17905324379263617135
23402539 116 18270387287866383094
23419403 2 14581582779446483871
23557571 272 18199476467650811878
23559900 14 18265324179007569039
2748010 2 18191297393640178901
3071541 12 18266464397723914589
3071541 158 18335138717189426460
3312278 4 18338237046551510582
34934 24 18337943494084766983
353137 74 18048030779358970802
43471831 8 17615968150296754627
458136 41 17832162879925893465
5493415 88 18410009970241468731
7364860 26 18267586990627070165
81228 2 18053394188352132170
8809292 202 18187087277776477787

> <PUBCHEM_SHAPE_MULTIPOLES>
329.04
4.96
3.14
0.84
1.56
1.42
-0.2
-2.23
0.1
-1.67
-0.12
0.08
0.44
0.32

> <PUBCHEM_SHAPE_SELFOVERLAP>
724.383

> <PUBCHEM_SHAPE_VOLUME>
175

> <PUBCHEM_COORDINATE_TYPE>
2
5
10

$$$$
