5998602
  -OEChem-01171812223D

 47 50  0     0  0  0  0  0  0999 V2000
   -1.2465    1.6312   -0.3029 S   0  0  0  0  0  0  0  0  0  0  0  0
    0.3840   -4.4169   -0.2345 O   0  0  0  0  0  0  0  0  0  0  0  0
   -0.7950    1.6476   -1.6827 O   0  0  0  0  0  0  0  0  0  0  0  0
   -0.2910    1.7612    0.7828 O   0  0  0  0  0  0  0  0  0  0  0  0
    6.8950    1.5857   -0.3686 O   0  0  0  0  0  0  0  0  0  0  0  0
    5.8638    2.3970    1.4875 O   0  0  0  0  0  0  0  0  0  0  0  0
    1.8208   -2.1386   -0.6762 N   0  0  0  0  0  0  0  0  0  0  0  0
   -2.1994    0.3396   -0.0256 N   0  0  0  0  0  0  0  0  0  0  0  0
   -2.3609   -2.1102    0.1667 C   0  0  0  0  0  0  0  0  0  0  0  0
   -1.6671   -3.3202    0.1056 C   0  0  0  0  0  0  0  0  0  0  0  0
   -1.6520   -0.8360   -0.0600 C   0  0  0  0  0  0  0  0  0  0  0  0
    0.4836   -2.0556   -0.4122 C   0  0  0  0  0  0  0  0  0  0  0  0
   -0.2192   -3.3498   -0.1849 C   0  0  0  0  0  0  0  0  0  0  0  0
   -0.2006   -0.9069   -0.3493 C   0  0  0  0  0  0  0  0  0  0  0  0
   -3.7345   -2.1098    0.4448 C   0  0  0  0  0  0  0  0  0  0  0  0
   -2.3459   -4.5266    0.3222 C   0  0  0  0  0  0  0  0  0  0  0  0
    2.8237   -1.2098   -0.3772 C   0  0  0  0  0  0  0  0  0  0  0  0
   -4.4060   -3.3139    0.6601 C   0  0  0  0  0  0  0  0  0  0  0  0
   -3.7129   -4.5202    0.5989 C   0  0  0  0  0  0  0  0  0  0  0  0
   -2.3711    2.9926   -0.1637 C   0  0  0  0  0  0  0  0  0  0  0  0
    2.7073   -0.3765    0.7424 C   0  0  0  0  0  0  0  0  0  0  0  0
    3.9555   -1.1015   -1.1949 C   0  0  0  0  0  0  0  0  0  0  0  0
   -2.5582    3.5860    1.0707 C   0  0  0  0  0  0  0  0  0  0  0  0
   -3.0384    3.4312   -1.2919 C   0  0  0  0  0  0  0  0  0  0  0  0
    3.7066    0.5504    1.0395 C   0  0  0  0  0  0  0  0  0  0  0  0
    4.9548   -0.1747   -0.8978 C   0  0  0  0  0  0  0  0  0  0  0  0
    4.8303    0.6512    0.2194 C   0  0  0  0  0  0  0  0  0  0  0  0
   -3.4449    4.6572    1.1809 C   0  0  0  0  0  0  0  0  0  0  0  0
   -3.9251    4.5025   -1.1819 C   0  0  0  0  0  0  0  0  0  0  0  0
   -4.1283    5.1153    0.0546 C   0  0  0  0  0  0  0  0  0  0  0  0
    5.8716    1.6184    0.5284 C   0  0  0  0  0  0  0  0  0  0  0  0
    0.3964   -0.0430   -0.5864 H   0  0  0  0  0  0  0  0  0  0  0  0
   -4.2971   -1.1815    0.4978 H   0  0  0  0  0  0  0  0  0  0  0  0
   -1.8285   -5.4814    0.2801 H   0  0  0  0  0  0  0  0  0  0  0  0
    2.1362   -3.0030   -1.1039 H   0  0  0  0  0  0  0  0  0  0  0  0
   -5.4706   -3.3098    0.8755 H   0  0  0  0  0  0  0  0  0  0  0  0
   -4.2370   -5.4566    0.7667 H   0  0  0  0  0  0  0  0  0  0  0  0
    1.8631   -0.4489    1.4231 H   0  0  0  0  0  0  0  0  0  0  0  0
    4.0642   -1.7386   -2.0695 H   0  0  0  0  0  0  0  0  0  0  0  0
   -2.0420    3.2385    1.9600 H   0  0  0  0  0  0  0  0  0  0  0  0
   -2.9022    2.9621   -2.2613 H   0  0  0  0  0  0  0  0  0  0  0  0
    3.5939    1.1801    1.9181 H   0  0  0  0  0  0  0  0  0  0  0  0
    5.8124   -0.1292   -1.5632 H   0  0  0  0  0  0  0  0  0  0  0  0
   -3.6049    5.1331    2.1440 H   0  0  0  0  0  0  0  0  0  0  0  0
   -4.4592    4.8579   -2.0583 H   0  0  0  0  0  0  0  0  0  0  0  0
   -4.8195    5.9486    0.1404 H   0  0  0  0  0  0  0  0  0  0  0  0
    7.5920    2.2409   -0.1512 H   0  0  0  0  0  0  0  0  0  0  0  0
  1  3  2  0  0  0  0
  1  4  2  0  0  0  0
  1  8  1  0  0  0  0
  1 20  1  0  0  0  0
  2 13  2  0  0  0  0
  5 31  1  0  0  0  0
  5 47  1  0  0  0  0
  6 31  2  0  0  0  0
  7 12  1  0  0  0  0
  7 17  1  0  0  0  0
  7 35  1  0  0  0  0
  8 11  2  0  0  0  0
  9 10  1  0  0  0  0
  9 11  1  0  0  0  0
  9 15  2  0  0  0  0
 10 13  1  0  0  0  0
 10 16  2  0  0  0  0
 11 14  1  0  0  0  0
 12 13  1  0  0  0  0
 12 14  2  0  0  0  0
 14 32  1  0  0  0  0
 15 18  1  0  0  0  0
 15 33  1  0  0  0  0
 16 19  1  0  0  0  0
 16 34  1  0  0  0  0
 17 21  2  0  0  0  0
 17 22  1  0  0  0  0
 18 19  2  0  0  0  0
 18 36  1  0  0  0  0
 19 37  1  0  0  0  0
 20 23  2  0  0  0  0
 20 24  1  0  0  0  0
 21 25  1  0  0  0  0
 21 38  1  0  0  0  0
 22 26  2  0  0  0  0
 22 39  1  0  0  0  0
 23 28  1  0  0  0  0
 23 40  1  0  0  0  0
 24 29  2  0  0  0  0
 24 41  1  0  0  0  0
 25 27  2  0  0  0  0
 25 42  1  0  0  0  0
 26 27  1  0  0  0  0
 26 43  1  0  0  0  0
 27 31  1  0  0  0  0
 28 30  2  0  0  0  0
 28 44  1  0  0  0  0
 29 30  1  0  0  0  0
 29 45  1  0  0  0  0
 30 46  1  0  0  0  0
M  END
> <PUBCHEM_COMPOUND_CID>
5998602

> <PUBCHEM_CONFORMER_RMSD>
0.8

> <PUBCHEM_CONFORMER_DIVERSEORDER>
2
5
3
4
1
6

> <PUBCHEM_MMFF94_PARTIAL_CHARGES>
47
1 1.5
10 0.09
11 0.35
12 0.11
13 0.47
14 -0.14
15 -0.15
16 -0.15
17 0.1
18 -0.15
19 -0.15
2 -0.57
20 -0.01
21 -0.15
22 -0.15
23 -0.15
24 -0.15
25 -0.15
26 -0.15
27 0.09
28 -0.15
29 -0.15
3 -0.65
30 -0.15
31 0.63
32 0.15
33 0.15
34 0.15
35 0.4
36 0.15
37 0.15
38 0.15
39 0.15
4 -0.65
40 0.15
41 0.15
42 0.15
43 0.15
44 0.15
45 0.15
46 0.15
47 0.5
5 -0.65
6 -0.57
7 -0.6
8 -0.64
9 0.09

> <PUBCHEM_EFFECTIVE_ROTOR_COUNT>
5

> <PUBCHEM_PHARMACOPHORE_FEATURES>
14
1 2 acceptor
1 3 acceptor
1 4 acceptor
1 5 acceptor
1 6 acceptor
1 7 cation
1 7 donor
1 8 acceptor
1 8 donor
3 5 6 31 anion
6 17 21 22 25 26 27 rings
6 20 23 24 28 29 30 rings
6 9 10 11 12 13 14 rings
6 9 10 15 16 18 19 rings

> <PUBCHEM_HEAVY_ATOM_COUNT>
31

> <PUBCHEM_ATOM_DEF_STEREO_COUNT>
0

> <PUBCHEM_ATOM_UDEF_STEREO_COUNT>
0

> <PUBCHEM_BOND_DEF_STEREO_COUNT>
1

> <PUBCHEM_BOND_UDEF_STEREO_COUNT>
0

> <PUBCHEM_ISOTOPIC_ATOM_COUNT>
0

> <PUBCHEM_COMPONENT_COUNT>
1

> <PUBCHEM_CACTVS_TAUTO_COUNT>
4

> <PUBCHEM_CONFORMER_ID>
005B880A00000002

> <PUBCHEM_MMFF94_ENERGY>
108.8073

> <PUBCHEM_FEATURE_SELFOVERLAP>
71.179

> <PUBCHEM_SHAPE_FINGERPRINT>
10006869 2 18410004408644747787
10165383 225 17758698658549963222
102385 1 18265894666170847675
10937287 8 18266457598790295180
11059845 2 18120907587691911034
12788726 201 18267563823895248519
13140716 1 18266465480709534555
13402501 40 18057047028600928210
13540713 4 18201726133350924174
13726171 33 18413392042856604400
138480 1 16536233983820474615
13955234 65 17400644818800112145
13965767 371 17824822244230603582
14394314 77 17689725572200595933
14790565 3 18050569539223893997
14849402 71 17691125929117507050
14955137 171 17760370289528043659
15142526 21 18124030135457334717
19319366 153 17837199377910814989
19427546 62 18049724018771159485
20238998 120 18122906697088745263
21049683 118 18044363938050378529
21796203 349 17395892067772060075
23559900 14 17474384055764891003
23845131 108 18120656834072994049
24771293 8 18200606916302957027
27425 322 17911237218155059685
283562 15 18409163329330167287
4058900 60 17908712730371956520
469060 322 18114750450734462434
653340 110 18410858776117227486
6677587 24 15583376484299645831
9777508 108 18338520741962873367
9849439 229 18266169526834034424
9896288 288 18408318904674290482
9961470 85 18196644104502067970

> <PUBCHEM_SHAPE_MULTIPOLES>
602.51
11.66
8.36
1.15
19.76
0.1
0.06
-10.92
-1.27
-15.28
-0.92
0.14
-0.88
2.18

> <PUBCHEM_SHAPE_SELFOVERLAP>
1325.763

> <PUBCHEM_SHAPE_VOLUME>
323

> <PUBCHEM_COORDINATE_TYPE>
2
5
10

$$$$
