1481943
  -OEChem-01171812193D

 37 39  0     0  0  0  0  0  0999 V2000
    0.6569    3.3647   -0.0325 Cl  0  0  0  0  0  0  0  0  0  0  0  0
   -4.7450   -1.5716    1.2749 O   0  0  0  0  0  0  0  0  0  0  0  0
   -0.0310   -1.6403   -0.2967 O   0  0  0  0  0  0  0  0  0  0  0  0
    3.4189    2.4126    0.2068 O   0  0  0  0  0  0  0  0  0  0  0  0
   -1.0715    0.8626   -0.3025 N   0  0  0  0  0  0  0  0  0  0  0  0
   -6.0415   -0.7704   -0.4488 N   0  0  0  0  0  0  0  0  0  0  0  0
   -3.8577    0.1758   -0.0907 C   0  0  0  0  0  0  0  0  0  0  0  0
   -3.0433    0.6160    1.1283 C   0  0  0  0  0  0  0  0  0  0  0  0
   -2.9504   -0.4634   -1.1450 C   0  0  0  0  0  0  0  0  0  0  0  0
   -1.8840    1.5232    0.7199 C   0  0  0  0  0  0  0  0  0  0  0  0
   -1.7915    0.4619   -1.5122 C   0  0  0  0  0  0  0  0  0  0  0  0
    0.2783    0.7092   -0.1737 C   0  0  0  0  0  0  0  0  0  0  0  0
   -4.9085   -0.8046    0.3293 C   0  0  0  0  0  0  0  0  0  0  0  0
    0.7558   -0.7058   -0.1811 C   0  0  0  0  0  0  0  0  0  0  0  0
    1.1664    1.7071   -0.0459 C   0  0  0  0  0  0  0  0  0  0  0  0
    2.2020   -0.9638   -0.0468 C   0  0  0  0  0  0  0  0  0  0  0  0
    3.1041    0.0904    0.0847 C   0  0  0  0  0  0  0  0  0  0  0  0
    2.6274    1.4841    0.0915 C   0  0  0  0  0  0  0  0  0  0  0  0
    2.6699   -2.2841   -0.0518 C   0  0  0  0  0  0  0  0  0  0  0  0
    4.4739   -0.1722    0.2114 C   0  0  0  0  0  0  0  0  0  0  0  0
    4.0350   -2.5430    0.0747 C   0  0  0  0  0  0  0  0  0  0  0  0
    4.9356   -1.4885    0.2062 C   0  0  0  0  0  0  0  0  0  0  0  0
   -4.3428    1.0617   -0.5220 H   0  0  0  0  0  0  0  0  0  0  0  0
   -2.6339   -0.2587    1.6514 H   0  0  0  0  0  0  0  0  0  0  0  0
   -3.6871    1.1382    1.8463 H   0  0  0  0  0  0  0  0  0  0  0  0
   -3.5275   -0.6977   -2.0478 H   0  0  0  0  0  0  0  0  0  0  0  0
   -2.5644   -1.4200   -0.7716 H   0  0  0  0  0  0  0  0  0  0  0  0
   -2.2722    2.4708    0.3273 H   0  0  0  0  0  0  0  0  0  0  0  0
   -1.2941    1.7547    1.6152 H   0  0  0  0  0  0  0  0  0  0  0  0
   -1.1315   -0.0422   -2.2285 H   0  0  0  0  0  0  0  0  0  0  0  0
   -2.1730    1.3589   -2.0156 H   0  0  0  0  0  0  0  0  0  0  0  0
   -6.8204   -1.3932   -0.2625 H   0  0  0  0  0  0  0  0  0  0  0  0
   -6.1455   -0.1347   -1.2332 H   0  0  0  0  0  0  0  0  0  0  0  0
    1.9884   -3.1246   -0.1530 H   0  0  0  0  0  0  0  0  0  0  0  0
    5.1964    0.6330    0.3152 H   0  0  0  0  0  0  0  0  0  0  0  0
    4.3955   -3.5675    0.0707 H   0  0  0  0  0  0  0  0  0  0  0  0
    5.9981   -1.6912    0.3046 H   0  0  0  0  0  0  0  0  0  0  0  0
  1 15  1  0  0  0  0
  2 13  2  0  0  0  0
  3 14  2  0  0  0  0
  4 18  2  0  0  0  0
  5 10  1  0  0  0  0
  5 11  1  0  0  0  0
  5 12  1  0  0  0  0
  6 13  1  0  0  0  0
  6 32  1  0  0  0  0
  6 33  1  0  0  0  0
  7  8  1  0  0  0  0
  7  9  1  0  0  0  0
  7 13  1  0  0  0  0
  7 23  1  0  0  0  0
  8 10  1  0  0  0  0
  8 24  1  0  0  0  0
  8 25  1  0  0  0  0
  9 11  1  0  0  0  0
  9 26  1  0  0  0  0
  9 27  1  0  0  0  0
 10 28  1  0  0  0  0
 10 29  1  0  0  0  0
 11 30  1  0  0  0  0
 11 31  1  0  0  0  0
 12 14  1  0  0  0  0
 12 15  2  0  0  0  0
 14 16  1  0  0  0  0
 15 18  1  0  0  0  0
 16 17  1  0  0  0  0
 16 19  2  0  0  0  0
 17 18  1  0  0  0  0
 17 20  2  0  0  0  0
 19 21  1  0  0  0  0
 19 34  1  0  0  0  0
 20 22  1  0  0  0  0
 20 35  1  0  0  0  0
 21 22  2  0  0  0  0
 21 36  1  0  0  0  0
 22 37  1  0  0  0  0
M  END
> <PUBCHEM_COMPOUND_CID>
1481943

> <PUBCHEM_CONFORMER_RMSD>
0.6

> <PUBCHEM_CONFORMER_DIVERSEORDER>
1
9
13
17
10
3
7
19
20
2
12
16
22
18
15
8
14
11
5
21
6
4

> <PUBCHEM_MMFF94_PARTIAL_CHARGES>
26
1 -0.14
10 0.37
11 0.37
12 0.11
13 0.57
14 0.47
15 0.15
16 0.09
17 0.09
18 0.47
19 -0.15
2 -0.57
20 -0.15
21 -0.15
22 -0.15
3 -0.57
32 0.37
33 0.37
34 0.15
35 0.15
36 0.15
37 0.15
4 -0.57
5 -0.84
6 -0.8
7 0.06

> <PUBCHEM_EFFECTIVE_ROTOR_COUNT>
3.2

> <PUBCHEM_PHARMACOPHORE_FEATURES>
8
1 2 acceptor
1 3 acceptor
1 4 acceptor
1 5 cation
1 6 donor
6 12 14 15 16 17 18 rings
6 16 17 19 20 21 22 rings
6 5 7 8 9 10 11 rings

> <PUBCHEM_HEAVY_ATOM_COUNT>
22

> <PUBCHEM_ATOM_DEF_STEREO_COUNT>
0

> <PUBCHEM_ATOM_UDEF_STEREO_COUNT>
0

> <PUBCHEM_BOND_DEF_STEREO_COUNT>
0

> <PUBCHEM_BOND_UDEF_STEREO_COUNT>
0

> <PUBCHEM_ISOTOPIC_ATOM_COUNT>
0

> <PUBCHEM_COMPONENT_COUNT>
1

> <PUBCHEM_CACTVS_TAUTO_COUNT>
2

> <PUBCHEM_CONFORMER_ID>
00169CD700000001

> <PUBCHEM_MMFF94_ENERGY>
65.7628

> <PUBCHEM_FEATURE_SELFOVERLAP>
40.618

> <PUBCHEM_SHAPE_FINGERPRINT>
10366900 7 17676213437646394210
10967382 1 18411412943348000540
11045977 3 18259704527765203187
11796584 16 17530961402140321947
11806522 49 18408605833699888114
12107183 9 17838909135544951057
12236239 1 17846778511957938549
12403259 226 18335134259171856076
12553582 1 18341885252450843174
12596602 18 17203608202779774531
13009979 54 17917158182632871296
13140716 1 17837203045427893888
13533116 47 18342738554856764809
13544653 18 18334583438548456681
13862211 1 18337389336657498298
14341114 176 18413113870345064515
14787075 74 18114473283921257298
14790565 3 17471019545498506548
15196674 1 18411699846461785792
15352361 1 18409168779358420235
15375462 189 18060416941049538369
15475509 84 17988370252055518825
16945 1 18339072701886411420
17492 89 18199470973986999207
1813 80 18271254828368297332
18785283 64 18189333644704505300
200 152 18342733005843375269
20028762 73 18202559596866017671
20261772 1 18059851757597280126
20645477 70 18261387862639370256
20739085 24 18411711975560550292
21041028 32 18343019952150056721
21065198 48 18273502269085686385
21267235 1 18341335501043068870
21682296 61 18200319788442474582
221490 88 18408042905120998536
22393880 68 17822281376028030203
23559900 14 18335134324049838345
26918003 58 18408885140240321331
2748010 2 17836354957549580148
312423 11 18341626883844537072
314194 84 18413105074051861583
3286 77 18335141981427809949
3421961 26 18411135844468321368
350125 39 18413108342395353684
46194498 28 17530965829761065421
465052 167 18412831286850365567
5104073 3 18342456997848525249
5283173 99 18115296766791710669
7495541 125 18260269655113991210
7970288 3 18265612078929417858
9709674 26 18188495799695698683

> <PUBCHEM_SHAPE_MULTIPOLES>
427.05
10.64
2.81
0.94
7.34
1.32
0.07
-6.44
-1.36
-2.44
-0.19
0.94
-0.04
0.11

> <PUBCHEM_SHAPE_SELFOVERLAP>
922.479

> <PUBCHEM_SHAPE_VOLUME>
234

> <PUBCHEM_COORDINATE_TYPE>
2
5
10

$$$$
