279291
  -OEChem-01171812263D

 23 24  0     0  0  0  0  0  0999 V2000
   -1.5914    2.5209    0.1669 Cl  0  0  0  0  0  0  0  0  0  0  0  0
   -0.1801   -0.1397    0.5308 N   0  0  0  0  0  0  0  0  0  0  0  0
    0.4538   -0.1656   -0.5493 N   0  0  0  0  0  0  0  0  0  0  0  0
    2.4529   -1.2898   -0.1328 N   0  0  0  0  0  0  0  0  0  0  0  0
   -1.5566   -0.2025    0.2771 C   0  0  0  0  0  0  0  0  0  0  0  0
   -2.3135    0.9545    0.0918 C   0  0  0  0  0  0  0  0  0  0  0  0
   -2.1690   -1.4542    0.2119 C   0  0  0  0  0  0  0  0  0  0  0  0
   -3.6825    0.8597   -0.1588 C   0  0  0  0  0  0  0  0  0  0  0  0
   -3.5379   -1.5488   -0.0386 C   0  0  0  0  0  0  0  0  0  0  0  0
   -4.2946   -0.3920   -0.2239 C   0  0  0  0  0  0  0  0  0  0  0  0
    1.8344   -0.1023   -0.2945 C   0  0  0  0  0  0  0  0  0  0  0  0
    2.4634    1.1260   -0.2251 C   0  0  0  0  0  0  0  0  0  0  0  0
    3.8303    1.1371    0.0291 C   0  0  0  0  0  0  0  0  0  0  0  0
    4.5094   -0.0639    0.2024 C   0  0  0  0  0  0  0  0  0  0  0  0
    3.7814   -1.2394    0.1129 C   0  0  0  0  0  0  0  0  0  0  0  0
   -1.5893   -2.3625    0.3558 H   0  0  0  0  0  0  0  0  0  0  0  0
   -4.2865    1.7516   -0.3053 H   0  0  0  0  0  0  0  0  0  0  0  0
   -4.0146   -2.5234   -0.0891 H   0  0  0  0  0  0  0  0  0  0  0  0
   -5.3605   -0.4660   -0.4187 H   0  0  0  0  0  0  0  0  0  0  0  0
    1.9213    2.0551   -0.3633 H   0  0  0  0  0  0  0  0  0  0  0  0
    4.3655    2.0798    0.0918 H   0  0  0  0  0  0  0  0  0  0  0  0
    5.5748   -0.0792    0.4015 H   0  0  0  0  0  0  0  0  0  0  0  0
    4.2642   -2.2027    0.2405 H   0  0  0  0  0  0  0  0  0  0  0  0
  1  6  1  0  0  0  0
  2  3  2  0  0  0  0
  2  5  1  0  0  0  0
  3 11  1  0  0  0  0
  4 11  1  0  0  0  0
  4 15  2  0  0  0  0
  5  6  1  0  0  0  0
  5  7  2  0  0  0  0
  6  8  2  0  0  0  0
  7  9  1  0  0  0  0
  7 16  1  0  0  0  0
  8 10  1  0  0  0  0
  8 17  1  0  0  0  0
  9 10  2  0  0  0  0
  9 18  1  0  0  0  0
 10 19  1  0  0  0  0
 11 12  2  0  0  0  0
 12 13  1  0  0  0  0
 12 20  1  0  0  0  0
 13 14  2  0  0  0  0
 13 21  1  0  0  0  0
 14 15  1  0  0  0  0
 14 22  1  0  0  0  0
 15 23  1  0  0  0  0
M  END
> <PUBCHEM_COMPOUND_CID>
279291

> <PUBCHEM_CONFORMER_RMSD>
0.6

> <PUBCHEM_CONFORMER_DIVERSEORDER>
1
4
2
5
6
3

> <PUBCHEM_MMFF94_PARTIAL_CHARGES>
23
1 -0.18
10 -0.15
11 0.49
12 -0.15
13 -0.15
14 -0.15
15 0.16
16 0.15
17 0.15
18 0.15
19 0.15
2 -0.18
20 0.15
21 0.15
22 0.15
23 0.15
3 -0.18
4 -0.62
5 0.18
6 0.18
7 -0.15
8 -0.15
9 -0.15

> <PUBCHEM_EFFECTIVE_ROTOR_COUNT>
2

> <PUBCHEM_PHARMACOPHORE_FEATURES>
3
1 4 acceptor
6 4 11 12 13 14 15 rings
6 5 6 7 8 9 10 rings

> <PUBCHEM_HEAVY_ATOM_COUNT>
15

> <PUBCHEM_ATOM_DEF_STEREO_COUNT>
0

> <PUBCHEM_ATOM_UDEF_STEREO_COUNT>
0

> <PUBCHEM_BOND_DEF_STEREO_COUNT>
0

> <PUBCHEM_BOND_UDEF_STEREO_COUNT>
0

> <PUBCHEM_ISOTOPIC_ATOM_COUNT>
0

> <PUBCHEM_COMPONENT_COUNT>
1

> <PUBCHEM_CACTVS_TAUTO_COUNT>
1

> <PUBCHEM_CONFORMER_ID>
000442FB00000001

> <PUBCHEM_MMFF94_ENERGY>
39.089

> <PUBCHEM_FEATURE_SELFOVERLAP>
15.223

> <PUBCHEM_SHAPE_FINGERPRINT>
10014705 185 18187079547035571189
10608611 8 18411698772878373248
11615757 297 17275108365975968290
12107183 9 17687741641270510632
12162725 195 18408889524990616684
12916754 54 18343869900365394202
13167823 11 18409164411424471130
14144814 61 18410295783171961202
15196674 1 18410293613986636301
15375462 478 18412825797924184092
15375462 6 18413109463460543134
15442244 35 18192993708359363994
17492 89 18410293583959756482
17802600 8 18413385436653089600
17834072 33 18334298695286354308
18186145 218 17530960302195994971
18522853 276 18411698785726319440
19050596 39 18410857663578279504
200 152 18272083911727832623
20300324 65 18343580759420634345
20510252 161 18342177722264393193
20645477 56 18336268929786883029
20645477 70 18412545379794641430
21267235 1 18409457993776670219
2306618 200 18130232566696593185
23402539 116 18341604911261044197
23402655 69 18409166593272853092
23557571 272 18202010905886786269
23559900 14 18341609266263118378
26918003 58 18187080684695450402
351380 180 18411415111736688336
3545911 37 18409450284452571404
4028521 119 18187920647576639501
42 15 18334858307649324642
4214541 1 18410292471657321292
474 4 17386856178399323948
5104073 3 18410575084694741384
5374978 207 18411416228349044816
573450 72 18261945267557845826
58051976 378 18343300344847535790
69090 78 18410571790602861767
77779 3 18410294713661839862
9709674 26 18411426098147623646

> <PUBCHEM_SHAPE_MULTIPOLES>
295.62
9.18
1.9
0.66
3.46
0.69
0
-1.2
-0.1
-0.82
0.08
-0.02
0.01
-0.06

> <PUBCHEM_SHAPE_SELFOVERLAP>
626.871

> <PUBCHEM_SHAPE_VOLUME>
164.2

> <PUBCHEM_COORDINATE_TYPE>
2
5
10

$$$$
