2772102
  -OEChem-01171812233D

 26 28  0     0  0  0  0  0  0999 V2000
   -1.5578   -3.6538   -0.3973 Cl  0  0  0  0  0  0  0  0  0  0  0  0
   -4.4437   -0.2981    0.3029 O   0  0  0  0  0  0  0  0  0  0  0  0
   -2.1162    3.0335    0.2598 O   0  5  0  0  0  0  0  0  0  0  0  0
    0.0544    2.9437   -0.0553 O   0  0  0  0  0  0  0  0  0  0  0  0
    1.2609    0.6993   -0.4207 N   0  0  0  0  0  0  0  0  0  0  0  0
   -1.0631    2.3786    0.0540 N   0  3  0  0  0  0  0  0  0  0  0  0
   -3.5921    0.7929    0.2764 N   0  0  0  0  0  0  0  0  0  0  0  0
   -3.7643   -1.4876    0.1034 N   0  0  0  0  0  0  0  0  0  0  0  0
    2.6942   -0.6680    0.9037 N   0  0  0  0  0  0  0  0  0  0  0  0
   -0.0343    0.1275   -0.2863 C   0  0  0  0  0  0  0  0  0  0  0  0
   -1.1375    0.9697   -0.0569 C   0  0  0  0  0  0  0  0  0  0  0  0
   -2.3677    0.2967    0.0596 C   0  0  0  0  0  0  0  0  0  0  0  0
   -2.4771   -1.1530   -0.0503 C   0  0  0  0  0  0  0  0  0  0  0  0
   -0.1409   -1.2842   -0.3933 C   0  0  0  0  0  0  0  0  0  0  0  0
   -1.3600   -1.9770   -0.2802 C   0  0  0  0  0  0  0  0  0  0  0  0
    2.5400    0.2162   -0.1181 C   0  0  0  0  0  0  0  0  0  0  0  0
    3.6068    0.6714   -0.8902 C   0  0  0  0  0  0  0  0  0  0  0  0
    4.8831    0.2004   -0.6025 C   0  0  0  0  0  0  0  0  0  0  0  0
    3.9492   -1.1037    1.1538 C   0  0  0  0  0  0  0  0  0  0  0  0
    5.0662   -0.7043    0.4375 C   0  0  0  0  0  0  0  0  0  0  0  0
    0.7531   -1.8761   -0.5900 H   0  0  0  0  0  0  0  0  0  0  0  0
    1.2596    1.6703   -0.7154 H   0  0  0  0  0  0  0  0  0  0  0  0
    3.4595    1.3769   -1.7021 H   0  0  0  0  0  0  0  0  0  0  0  0
    5.7334    0.5373   -1.1877 H   0  0  0  0  0  0  0  0  0  0  0  0
    4.0382   -1.8079    1.9743 H   0  0  0  0  0  0  0  0  0  0  0  0
    6.0517   -1.0849    0.6795 H   0  0  0  0  0  0  0  0  0  0  0  0
  1 15  1  0  0  0  0
  2  7  1  0  0  0  0
  2  8  1  0  0  0  0
  3  6  1  0  0  0  0
  4  6  2  0  0  0  0
  5 10  1  0  0  0  0
  5 16  1  0  0  0  0
  5 22  1  0  0  0  0
  6 11  1  0  0  0  0
  7 12  2  0  0  0  0
  8 13  2  0  0  0  0
  9 16  1  0  0  0  0
  9 19  2  0  0  0  0
 10 11  2  0  0  0  0
 10 14  1  0  0  0  0
 11 12  1  0  0  0  0
 12 13  1  0  0  0  0
 13 15  1  0  0  0  0
 14 15  2  0  0  0  0
 14 21  1  0  0  0  0
 16 17  2  0  0  0  0
 17 18  1  0  0  0  0
 17 23  1  0  0  0  0
 18 20  2  0  0  0  0
 18 24  1  0  0  0  0
 19 20  1  0  0  0  0
 19 25  1  0  0  0  0
 20 26  1  0  0  0  0
M  CHG  2   3  -1   6   1
M  END
> <PUBCHEM_COMPOUND_CID>
2772102

> <PUBCHEM_CONFORMER_RMSD>
0.6

> <PUBCHEM_CONFORMER_DIVERSEORDER>
1
9
6
2
10
5
3
7
4
8

> <PUBCHEM_MMFF94_PARTIAL_CHARGES>
26
1 -0.18
10 0.1
11 0.13
12 0.29
13 0.29
14 -0.15
15 0.18
16 0.41
17 -0.15
18 -0.15
19 0.16
2 0.24
20 -0.15
21 0.15
22 0.4
23 0.15
24 0.15
25 0.15
26 0.15
3 -0.52
4 -0.52
5 -0.6
6 0.91
7 -0.41
8 -0.41
9 -0.62

> <PUBCHEM_EFFECTIVE_ROTOR_COUNT>
3

> <PUBCHEM_PHARMACOPHORE_FEATURES>
11
1 3 acceptor
1 3 anion
1 4 acceptor
1 5 cation
1 5 donor
1 7 acceptor
1 8 acceptor
1 9 acceptor
5 2 7 8 12 13 rings
6 10 11 12 13 14 15 rings
6 9 16 17 18 19 20 rings

> <PUBCHEM_HEAVY_ATOM_COUNT>
20

> <PUBCHEM_ATOM_DEF_STEREO_COUNT>
0

> <PUBCHEM_ATOM_UDEF_STEREO_COUNT>
0

> <PUBCHEM_BOND_DEF_STEREO_COUNT>
0

> <PUBCHEM_BOND_UDEF_STEREO_COUNT>
0

> <PUBCHEM_ISOTOPIC_ATOM_COUNT>
0

> <PUBCHEM_COMPONENT_COUNT>
1

> <PUBCHEM_CACTVS_TAUTO_COUNT>
3

> <PUBCHEM_CONFORMER_ID>
002A4C8600000001

> <PUBCHEM_MMFF94_ENERGY>
80.6154

> <PUBCHEM_FEATURE_SELFOVERLAP>
56.085

> <PUBCHEM_SHAPE_FINGERPRINT>
10319926 262 18198882783544254786
10616163 171 18410294739849057206
10906281 52 18265629706059950969
1100329 8 18267307710900978243
11578080 2 17751895116610191796
11680986 33 17909544300854536465
12107183 9 17613711519230340064
12236239 1 18040156206420370972
12403814 3 17603581928682620607
12553582 1 18338791329366702982
12788726 201 18408893931795770304
13140716 1 18269555120709330915
13862211 1 18340485660064263583
14420673 8 17833830470220931370
14790565 3 18339938034311886009
15042514 8 18410859905778730375
15256400 18 18195808471011762118
15375462 189 18186800318094504770
16752209 62 18338218384818239759
17804303 29 18343584070339331256
1813 80 17240770515452821134
19422 9 18114743733769452282
200 152 18040152924685613592
20028762 73 17915462907834725615
20510252 161 18200315416049163952
20600515 1 18200325414659351373
20645477 70 14996272588678498642
21029758 27 18261962946028273181
21267235 1 18335711562863665506
2297311 6 18343033181213207564
23366157 5 17829043565132152309
23402539 116 18272644658574131919
23557571 272 18130798837050182540
23559900 14 18272092725570618244
23598294 1 18337947896573841376
2748010 2 18052270500870372765
3084891 72 18412543197998467871
335352 9 18339644542474941847
34934 24 18267021854746317908
350125 39 18052547573126212366
43471831 8 18264770956665105923
474 4 17314804099410731700
5104073 3 18339082695568343832
559249 180 18116708513898963594
58807428 26 18268441131100377611
90316 7 18410009918549192225
9709674 26 18343026575532946566

> <PUBCHEM_SHAPE_MULTIPOLES>
370.95
8.75
3.04
0.81
7.65
0
0.04
-1.64
0.9
-2.93
-0.14
0.66
-0.14
-0.87

> <PUBCHEM_SHAPE_SELFOVERLAP>
806.314

> <PUBCHEM_SHAPE_VOLUME>
202.5

> <PUBCHEM_COORDINATE_TYPE>
2
5
10

$$$$
