279596
  -OEChem-01171812263D

 19 20  0     0  0  0  0  0  0999 V2000
    1.4383   -2.3139   -0.0022 O   0  0  0  0  0  0  0  0  0  0  0  0
    3.3001   -0.3930    0.0021 O   0  0  0  0  0  0  0  0  0  0  0  0
   -1.9616    1.0234    0.0006 N   0  0  0  0  0  0  0  0  0  0  0  0
   -0.0618    2.9616   -0.0020 N   0  0  0  0  0  0  0  0  0  0  0  0
   -0.3362   -0.7439   -0.0005 C   0  0  0  0  0  0  0  0  0  0  0  0
   -0.6689    0.6085   -0.0002 C   0  0  0  0  0  0  0  0  0  0  0  0
    0.3708    1.6631   -0.0004 C   0  0  0  0  0  0  0  0  0  0  0  0
    1.0755   -1.1490   -0.0011 C   0  0  0  0  0  0  0  0  0  0  0  0
    1.6722    1.3312    0.0008 C   0  0  0  0  0  0  0  0  0  0  0  0
   -1.3498   -1.7014   -0.0001 C   0  0  0  0  0  0  0  0  0  0  0  0
    2.1214   -0.0737    0.0009 C   0  0  0  0  0  0  0  0  0  0  0  0
   -2.6746   -1.2866    0.0008 C   0  0  0  0  0  0  0  0  0  0  0  0
   -2.9254    0.0737    0.0011 C   0  0  0  0  0  0  0  0  0  0  0  0
    2.4482    2.0904    0.0009 H   0  0  0  0  0  0  0  0  0  0  0  0
   -1.1248   -2.7639   -0.0002 H   0  0  0  0  0  0  0  0  0  0  0  0
   -3.4856   -2.0057    0.0013 H   0  0  0  0  0  0  0  0  0  0  0  0
   -3.9428    0.4510    0.0018 H   0  0  0  0  0  0  0  0  0  0  0  0
   -1.0536    3.1653   -0.0030 H   0  0  0  0  0  0  0  0  0  0  0  0
    0.6106    3.7187   -0.0023 H   0  0  0  0  0  0  0  0  0  0  0  0
  1  8  2  0  0  0  0
  2 11  2  0  0  0  0
  3  6  1  0  0  0  0
  3 13  2  0  0  0  0
  4  7  1  0  0  0  0
  4 18  1  0  0  0  0
  4 19  1  0  0  0  0
  5  6  2  0  0  0  0
  5  8  1  0  0  0  0
  5 10  1  0  0  0  0
  6  7  1  0  0  0  0
  7  9  2  0  0  0  0
  8 11  1  0  0  0  0
  9 11  1  0  0  0  0
  9 14  1  0  0  0  0
 10 12  2  0  0  0  0
 10 15  1  0  0  0  0
 12 13  1  0  0  0  0
 12 16  1  0  0  0  0
 13 17  1  0  0  0  0
M  END
> <PUBCHEM_COMPOUND_CID>
279596

> <PUBCHEM_CONFORMER_RMSD>
0.4

> <PUBCHEM_CONFORMER_DIVERSEORDER>
1

> <PUBCHEM_MMFF94_PARTIAL_CHARGES>
19
1 -0.57
10 -0.15
11 0.56
12 -0.15
13 0.16
14 0.15
15 0.15
16 0.15
17 0.15
18 0.4
19 0.4
2 -0.57
3 -0.62
4 -0.9
5 0.09
6 0.34
7 0.07
8 0.48
9 -0.14

> <PUBCHEM_EFFECTIVE_ROTOR_COUNT>
0

> <PUBCHEM_PHARMACOPHORE_FEATURES>
7
1 1 acceptor
1 2 acceptor
1 3 acceptor
1 4 cation
1 4 donor
6 3 5 6 10 12 13 rings
6 5 6 7 8 9 11 rings

> <PUBCHEM_HEAVY_ATOM_COUNT>
13

> <PUBCHEM_ATOM_DEF_STEREO_COUNT>
0

> <PUBCHEM_ATOM_UDEF_STEREO_COUNT>
0

> <PUBCHEM_BOND_DEF_STEREO_COUNT>
0

> <PUBCHEM_BOND_UDEF_STEREO_COUNT>
0

> <PUBCHEM_ISOTOPIC_ATOM_COUNT>
0

> <PUBCHEM_COMPONENT_COUNT>
1

> <PUBCHEM_CACTVS_TAUTO_COUNT>
3

> <PUBCHEM_CONFORMER_ID>
0004442C00000001

> <PUBCHEM_MMFF94_ENERGY>
34.1745

> <PUBCHEM_FEATURE_SELFOVERLAP>
35.555

> <PUBCHEM_SHAPE_FINGERPRINT>
10967382 1 18194402418603212807
11471102 20 18338230596017053799
12032990 46 18411145744225630630
12382932 28 18412260601660382968
12423570 1 17197680529583540823
12524768 44 18270967817152523847
16945 1 18410575058914400133
17990270 104 18265330805567217371
193761 8 17762336907681290082
19973954 147 18193840581241396083
20201158 50 18409164415729812503
20588541 1 18409731737796248455
21040471 1 17473825507492830725
21501502 16 18266181827909968271
2334 1 18194401319197158020
23463225 33 18408038524586717994
23552423 10 18120372313800868831
23559900 14 18342462518052378070
241688 4 18410292501606132624
2748010 2 18339077223832872388
2897 32 18122063375358365117
5084963 1 17986397908388046819
528886 8 18411695491312154802
53812653 166 18341890796609992057
63268167 104 18267027330618519801
66348 1 18411699863594006795
7364860 26 18054510484738955216

> <PUBCHEM_SHAPE_MULTIPOLES>
245.83
3.85
2.47
0.59
0.47
0.78
0
-0.89
0
-0.47
0
0.02
0
0

> <PUBCHEM_SHAPE_SELFOVERLAP>
542.82

> <PUBCHEM_SHAPE_VOLUME>
131

> <PUBCHEM_COORDINATE_TYPE>
2
5
10

$$$$
