406008
  -OEChem-01171812263D

 47 50  0     0  0  0  0  0  0999 V2000
   -1.6254   -3.0163   -0.5687 O   0  0  0  0  0  0  0  0  0  0  0  0
    1.4537    2.8159    0.7640 O   0  0  0  0  0  0  0  0  0  0  0  0
   -0.6791    4.1657   -0.0743 O   0  0  0  0  0  0  0  0  0  0  0  0
   -2.3461   -2.7847    1.5954 O   0  0  0  0  0  0  0  0  0  0  0  0
    1.1356   -0.1345    1.1277 N   0  0  0  0  0  0  0  0  0  0  0  0
   -0.9739    0.1091    0.4677 C   0  0  0  0  0  0  0  0  0  0  0  0
    0.2069    0.7852    0.7117 C   0  0  0  0  0  0  0  0  0  0  0  0
    0.5693   -1.3822    1.1529 C   0  0  0  0  0  0  0  0  0  0  0  0
   -0.7422   -1.2621    0.7476 C   0  0  0  0  0  0  0  0  0  0  0  0
   -2.1417    0.8392    0.0098 C   0  0  0  0  0  0  0  0  0  0  0  0
    2.5085    0.1534    1.4876 C   0  0  0  0  0  0  0  0  0  0  0  0
   -2.0627    2.2325   -0.1825 C   0  0  0  0  0  0  0  0  0  0  0  0
    0.4219    2.1938    0.5573 C   0  0  0  0  0  0  0  0  0  0  0  0
   -0.7919    2.9591    0.0805 C   0  0  0  0  0  0  0  0  0  0  0  0
    1.3367   -2.5788    1.5646 C   0  0  0  0  0  0  0  0  0  0  0  0
    3.4208    0.0569    0.2948 C   0  0  0  0  0  0  0  0  0  0  0  0
   -3.3519    0.1838   -0.2468 C   0  0  0  0  0  0  0  0  0  0  0  0
   -1.6291   -2.3893    0.6609 C   0  0  0  0  0  0  0  0  0  0  0  0
   -3.1784    2.9515   -0.6241 C   0  0  0  0  0  0  0  0  0  0  0  0
   -4.4632    0.9059   -0.6878 C   0  0  0  0  0  0  0  0  0  0  0  0
   -4.3766    2.2844   -0.8757 C   0  0  0  0  0  0  0  0  0  0  0  0
    3.0388    0.6369   -0.9073 C   0  0  0  0  0  0  0  0  0  0  0  0
    4.6322   -0.6109    0.4120 C   0  0  0  0  0  0  0  0  0  0  0  0
    3.8843    0.5476   -2.0130 C   0  0  0  0  0  0  0  0  0  0  0  0
    5.4777   -0.7003   -0.6939 C   0  0  0  0  0  0  0  0  0  0  0  0
   -2.4877   -4.1492   -0.7243 C   0  0  0  0  0  0  0  0  0  0  0  0
    5.1038   -0.1211   -1.9064 C   0  0  0  0  0  0  0  0  0  0  0  0
   -2.3404   -4.6915   -2.1299 C   0  0  0  0  0  0  0  0  0  0  0  0
    2.8073   -0.5509    2.2721 H   0  0  0  0  0  0  0  0  0  0  0  0
    2.5737    1.1417    1.9501 H   0  0  0  0  0  0  0  0  0  0  0  0
    1.6157   -2.5191    2.6215 H   0  0  0  0  0  0  0  0  0  0  0  0
    0.7515   -3.4951    1.4367 H   0  0  0  0  0  0  0  0  0  0  0  0
    2.2448   -2.6952    0.9652 H   0  0  0  0  0  0  0  0  0  0  0  0
   -3.4776   -0.8842   -0.1188 H   0  0  0  0  0  0  0  0  0  0  0  0
   -3.1336    4.0262   -0.7774 H   0  0  0  0  0  0  0  0  0  0  0  0
   -5.3992    0.3909   -0.8854 H   0  0  0  0  0  0  0  0  0  0  0  0
   -5.2445    2.8400   -1.2188 H   0  0  0  0  0  0  0  0  0  0  0  0
    2.1077    1.1618   -1.0584 H   0  0  0  0  0  0  0  0  0  0  0  0
    4.9345   -1.0654    1.3512 H   0  0  0  0  0  0  0  0  0  0  0  0
    3.5932    0.9969   -2.9581 H   0  0  0  0  0  0  0  0  0  0  0  0
    6.4273   -1.2210   -0.6108 H   0  0  0  0  0  0  0  0  0  0  0  0
   -2.2093   -4.9201    0.0026 H   0  0  0  0  0  0  0  0  0  0  0  0
   -3.5250   -3.8423   -0.5512 H   0  0  0  0  0  0  0  0  0  0  0  0
    5.7619   -0.1910   -2.7675 H   0  0  0  0  0  0  0  0  0  0  0  0
   -2.9868   -5.5600   -2.2838 H   0  0  0  0  0  0  0  0  0  0  0  0
   -2.5971   -3.9241   -2.8675 H   0  0  0  0  0  0  0  0  0  0  0  0
   -1.3030   -4.9838   -2.3232 H   0  0  0  0  0  0  0  0  0  0  0  0
  1 18  1  0  0  0  0
  1 26  1  0  0  0  0
  2 13  2  0  0  0  0
  3 14  2  0  0  0  0
  4 18  2  0  0  0  0
  5  7  1  0  0  0  0
  5  8  1  0  0  0  0
  5 11  1  0  0  0  0
  6  7  2  0  0  0  0
  6  9  1  0  0  0  0
  6 10  1  0  0  0  0
  7 13  1  0  0  0  0
  8  9  2  0  0  0  0
  8 15  1  0  0  0  0
  9 18  1  0  0  0  0
 10 12  1  0  0  0  0
 10 17  2  0  0  0  0
 11 16  1  0  0  0  0
 11 29  1  0  0  0  0
 11 30  1  0  0  0  0
 12 14  1  0  0  0  0
 12 19  2  0  0  0  0
 13 14  1  0  0  0  0
 15 31  1  0  0  0  0
 15 32  1  0  0  0  0
 15 33  1  0  0  0  0
 16 22  2  0  0  0  0
 16 23  1  0  0  0  0
 17 20  1  0  0  0  0
 17 34  1  0  0  0  0
 19 21  1  0  0  0  0
 19 35  1  0  0  0  0
 20 21  2  0  0  0  0
 20 36  1  0  0  0  0
 21 37  1  0  0  0  0
 22 24  1  0  0  0  0
 22 38  1  0  0  0  0
 23 25  2  0  0  0  0
 23 39  1  0  0  0  0
 24 27  2  0  0  0  0
 24 40  1  0  0  0  0
 25 27  1  0  0  0  0
 25 41  1  0  0  0  0
 26 28  1  0  0  0  0
 26 42  1  0  0  0  0
 26 43  1  0  0  0  0
 27 44  1  0  0  0  0
 28 45  1  0  0  0  0
 28 46  1  0  0  0  0
 28 47  1  0  0  0  0
M  END
> <PUBCHEM_COMPOUND_CID>
406008

> <PUBCHEM_CONFORMER_RMSD>
0.8

> <PUBCHEM_CONFORMER_DIVERSEORDER>
3
17
10
9
6
11
7
15
12
16
13
8
2
5
14
1
4

> <PUBCHEM_MMFF94_PARTIAL_CHARGES>
36
1 -0.43
10 0.05
11 0.4
12 0.09
13 0.65
14 0.48
15 0.18
16 -0.14
17 -0.15
18 0.81
19 -0.15
2 -0.57
20 -0.15
21 -0.15
22 -0.15
23 -0.15
24 -0.15
25 -0.15
26 0.28
27 -0.15
3 -0.57
34 0.15
35 0.15
36 0.15
37 0.15
38 0.15
39 0.15
4 -0.57
40 0.15
41 0.15
44 0.15
5 0.05
6 -0.05
7 -0.24
8 -0.33
9 -0.09

> <PUBCHEM_EFFECTIVE_ROTOR_COUNT>
5

> <PUBCHEM_PHARMACOPHORE_FEATURES>
8
1 2 acceptor
1 3 acceptor
1 4 acceptor
1 5 cation
5 5 6 7 8 9 rings
6 10 12 17 19 20 21 rings
6 16 22 23 24 25 27 rings
6 6 7 10 12 13 14 rings

> <PUBCHEM_HEAVY_ATOM_COUNT>
28

> <PUBCHEM_ATOM_DEF_STEREO_COUNT>
0

> <PUBCHEM_ATOM_UDEF_STEREO_COUNT>
0

> <PUBCHEM_BOND_DEF_STEREO_COUNT>
0

> <PUBCHEM_BOND_UDEF_STEREO_COUNT>
0

> <PUBCHEM_ISOTOPIC_ATOM_COUNT>
0

> <PUBCHEM_COMPONENT_COUNT>
1

> <PUBCHEM_CACTVS_TAUTO_COUNT>
1

> <PUBCHEM_CONFORMER_ID>
000631F800000003

> <PUBCHEM_MMFF94_ENERGY>
72.6984

> <PUBCHEM_FEATURE_SELFOVERLAP>
40.712

> <PUBCHEM_SHAPE_FINGERPRINT>
11513181 2 18052252899636107926
11578080 2 17343770767097411267
12788726 201 18043549384923867978
13140716 1 18263630934953059697
13149001 5 18342166795583119136
13690498 29 18195261116037133358
14251757 5 18409737261166285460
14790565 3 18194125110046375841
16752209 62 18335700473506235240
17492 54 18187636969503212909
1813 80 17981617274770171738
19319366 153 17895187758356004179
19591789 44 18408039628514931497
20511986 3 17894344463645660276
20602899 9 18129667391607065003
20775438 99 17841113909561064157
21344244 181 18059018259301358935
21781051 124 18261404316901668339
22182313 1 18194963169623348752
22620623 9 18341896345750468966
23366157 5 17251459782391978657
23559900 14 18411984659604382288
26353 1 17907016531716770990
2748010 2 18120927571341561761
394222 165 17388254541892773681
4058900 60 17680429949313355265
474 4 17313957286014390136
59025328 239 17266356434071930911
70251023 43 17979633768905529555

> <PUBCHEM_SHAPE_MULTIPOLES>
547.77
8.74
5.16
1.63
8.22
4.05
0.43
-1.41
4.66
-6.75
1.48
1.06
1.12
-0.48

> <PUBCHEM_SHAPE_SELFOVERLAP>
1217.37

> <PUBCHEM_SHAPE_VOLUME>
293.5

> <PUBCHEM_COORDINATE_TYPE>
2
5
10

$$$$
