237102
  -OEChem-01171812253D

 35 37  0     0  0  0  0  0  0999 V2000
   -0.9750    2.6475    0.0784 Cl  0  0  0  0  0  0  0  0  0  0  0  0
    0.2811   -2.2419   -0.2499 O   0  0  0  0  0  0  0  0  0  0  0  0
    1.9481    2.8162    0.2186 O   0  0  0  0  0  0  0  0  0  0  0  0
   -1.6315   -0.3226   -0.1820 N   0  0  0  0  0  0  0  0  0  0  0  0
   -4.4724   -0.4664   -0.0030 N   0  0  0  0  0  0  0  0  0  0  0  0
   -2.2561   -1.2113    0.7970 C   0  0  0  0  0  0  0  0  0  0  0  0
   -2.4518   -0.0216   -1.3547 C   0  0  0  0  0  0  0  0  0  0  0  0
   -3.6358   -0.6774    1.1871 C   0  0  0  0  0  0  0  0  0  0  0  0
   -3.8274    0.4862   -0.9183 C   0  0  0  0  0  0  0  0  0  0  0  0
   -0.3211    0.0483   -0.0963 C   0  0  0  0  0  0  0  0  0  0  0  0
   -5.8012    0.0085    0.3802 C   0  0  0  0  0  0  0  0  0  0  0  0
    0.6574   -1.0789   -0.1421 C   0  0  0  0  0  0  0  0  0  0  0  0
    0.1252    1.3083    0.0216 C   0  0  0  0  0  0  0  0  0  0  0  0
    2.0970   -0.7683   -0.0555 C   0  0  0  0  0  0  0  0  0  0  0  0
    2.5349    0.5491    0.0666 C   0  0  0  0  0  0  0  0  0  0  0  0
    1.5650    1.6569    0.1114 C   0  0  0  0  0  0  0  0  0  0  0  0
    3.0309   -1.8115   -0.0970 C   0  0  0  0  0  0  0  0  0  0  0  0
    3.9053    0.8265    0.1477 C   0  0  0  0  0  0  0  0  0  0  0  0
    4.3955   -1.5324   -0.0159 C   0  0  0  0  0  0  0  0  0  0  0  0
    4.8320   -0.2153    0.1063 C   0  0  0  0  0  0  0  0  0  0  0  0
   -1.6420   -1.2945    1.7023 H   0  0  0  0  0  0  0  0  0  0  0  0
   -2.3505   -2.2180    0.3709 H   0  0  0  0  0  0  0  0  0  0  0  0
   -2.5612   -0.9339   -1.9553 H   0  0  0  0  0  0  0  0  0  0  0  0
   -1.9767    0.7238   -2.0035 H   0  0  0  0  0  0  0  0  0  0  0  0
   -4.1113   -1.4059    1.8548 H   0  0  0  0  0  0  0  0  0  0  0  0
   -3.5215    0.2589    1.7499 H   0  0  0  0  0  0  0  0  0  0  0  0
   -3.7319    1.4711   -0.4440 H   0  0  0  0  0  0  0  0  0  0  0  0
   -4.4448    0.6157   -1.8154 H   0  0  0  0  0  0  0  0  0  0  0  0
   -6.4370    0.1262   -0.5043 H   0  0  0  0  0  0  0  0  0  0  0  0
   -5.7629    0.9685    0.9077 H   0  0  0  0  0  0  0  0  0  0  0  0
   -6.2979   -0.7217    1.0287 H   0  0  0  0  0  0  0  0  0  0  0  0
    2.7166   -2.8475   -0.1918 H   0  0  0  0  0  0  0  0  0  0  0  0
    4.2707    1.8454    0.2433 H   0  0  0  0  0  0  0  0  0  0  0  0
    5.1178   -2.3429   -0.0481 H   0  0  0  0  0  0  0  0  0  0  0  0
    5.8945    0.0009    0.1693 H   0  0  0  0  0  0  0  0  0  0  0  0
  1 13  1  0  0  0  0
  2 12  2  0  0  0  0
  3 16  2  0  0  0  0
  4  6  1  0  0  0  0
  4  7  1  0  0  0  0
  4 10  1  0  0  0  0
  5  8  1  0  0  0  0
  5  9  1  0  0  0  0
  5 11  1  0  0  0  0
  6  8  1  0  0  0  0
  6 21  1  0  0  0  0
  6 22  1  0  0  0  0
  7  9  1  0  0  0  0
  7 23  1  0  0  0  0
  7 24  1  0  0  0  0
  8 25  1  0  0  0  0
  8 26  1  0  0  0  0
  9 27  1  0  0  0  0
  9 28  1  0  0  0  0
 10 12  1  0  0  0  0
 10 13  2  0  0  0  0
 11 29  1  0  0  0  0
 11 30  1  0  0  0  0
 11 31  1  0  0  0  0
 12 14  1  0  0  0  0
 13 16  1  0  0  0  0
 14 15  1  0  0  0  0
 14 17  2  0  0  0  0
 15 16  1  0  0  0  0
 15 18  2  0  0  0  0
 17 19  1  0  0  0  0
 17 32  1  0  0  0  0
 18 20  1  0  0  0  0
 18 33  1  0  0  0  0
 19 20  2  0  0  0  0
 19 34  1  0  0  0  0
 20 35  1  0  0  0  0
M  END
> <PUBCHEM_COMPOUND_CID>
237102

> <PUBCHEM_CONFORMER_RMSD>
0.6

> <PUBCHEM_CONFORMER_DIVERSEORDER>
1
4
2
3

> <PUBCHEM_MMFF94_PARTIAL_CHARGES>
24
1 -0.14
10 0.11
11 0.27
12 0.47
13 0.15
14 0.09
15 0.09
16 0.47
17 -0.15
18 -0.15
19 -0.15
2 -0.57
20 -0.15
3 -0.57
32 0.15
33 0.15
34 0.15
35 0.15
4 -0.84
5 -0.81
6 0.37
7 0.37
8 0.27
9 0.27

> <PUBCHEM_EFFECTIVE_ROTOR_COUNT>
2.2

> <PUBCHEM_PHARMACOPHORE_FEATURES>
7
1 2 acceptor
1 3 acceptor
1 4 cation
1 5 cation
6 10 12 13 14 15 16 rings
6 14 15 17 18 19 20 rings
6 4 5 6 7 8 9 rings

> <PUBCHEM_HEAVY_ATOM_COUNT>
20

> <PUBCHEM_ATOM_DEF_STEREO_COUNT>
0

> <PUBCHEM_ATOM_UDEF_STEREO_COUNT>
0

> <PUBCHEM_BOND_DEF_STEREO_COUNT>
0

> <PUBCHEM_BOND_UDEF_STEREO_COUNT>
0

> <PUBCHEM_ISOTOPIC_ATOM_COUNT>
0

> <PUBCHEM_COMPONENT_COUNT>
1

> <PUBCHEM_CACTVS_TAUTO_COUNT>
1

> <PUBCHEM_CONFORMER_ID>
00039E2E00000001

> <PUBCHEM_MMFF94_ENERGY>
60.1977

> <PUBCHEM_FEATURE_SELFOVERLAP>
35.546

> <PUBCHEM_SHAPE_FINGERPRINT>
10688039 33 18186523176787814349
10967382 1 18411697720917113484
11471102 20 18411135852973638926
11796584 16 16877941624750478050
12011746 2 18410862057672838190
12236239 1 17489587874808902783
12403259 415 18040989648945313917
12553582 1 18341887494291883262
13140716 1 18123463049935249648
13862211 1 18411693271162586086
14115302 16 17822020821235534262
14341114 176 18408892836626459001
14386348 63 18187085057209547459
14790565 3 17471862871117691468
15196674 1 18339079289606770076
15219456 202 18260828224105545775
15527383 91 18411704279332304409
15848702 151 17846506880703691183
16945 1 18340764944570294636
17357779 13 18337099090603117620
1813 80 17987532441495471004
18785283 64 18044099174754843461
19141452 34 18130785680990465479
200 152 18202560670780796899
20645477 70 18412543185002919758
21033648 29 17968079942033403309
21041028 32 18342460313896034561
21267235 1 18339929221397158070
21279426 13 18191301568348345317
21641784 216 18115888338254335700
221357 26 18336538353217197685
221490 88 18263928919652271107
22182313 1 18264747944583885396
23175994 123 18408045104534806685
23184049 59 18343304790032932015
2334 1 17619343647284680556
23402539 116 18272080595781166599
23493267 7 17604137151926747881
23557571 272 17240478087818551085
23559900 14 17967534596733865254
26918003 58 18259703397719150186
2748010 2 17835239322424631700
2871803 45 18335139752745971594
335352 9 18411701006609312814
34934 24 18341044233498374346
350125 39 18411703175225587672
465052 167 18412270548805121023
5104073 3 18197488533811576754
537710 114 18409453596252203908
602551 16 16443634609140837419
7495541 125 17895198834812428531
77492 1 17417813984761722719
8809292 202 18186524323401300259

> <PUBCHEM_SHAPE_MULTIPOLES>
391.76
9.77
2.29
0.87
5.02
1.18
0.06
-2.36
-0.72
-1.33
-0.15
0.76
-0.08
0.51

> <PUBCHEM_SHAPE_SELFOVERLAP>
841.23

> <PUBCHEM_SHAPE_VOLUME>
218

> <PUBCHEM_COORDINATE_TYPE>
2
5
10

$$$$
