4177514
  -OEChem-01171812223D

 33 34  0     0  0  0  0  0  0999 V2000
   -2.9743    0.1208   -2.4087 S   0  0  0  0  0  0  0  0  0  0  0  0
    4.3506   -1.3030    0.9743 S   0  0  0  0  0  0  0  0  0  0  0  0
   -2.1218   -0.1763    0.1664 N   0  0  0  0  0  0  0  0  0  0  0  0
   -0.7410    1.0280   -1.3745 N   0  0  0  0  0  0  0  0  0  0  0  0
    2.7821   -1.6837    0.5831 N   0  0  0  0  0  0  0  0  0  0  0  0
    4.4090    0.2906    0.5108 N   0  0  0  0  0  0  0  0  0  0  0  0
   -2.8651   -1.4081    0.4273 C   0  0  0  0  0  0  0  0  0  0  0  0
   -1.8824    0.6543    1.3477 C   0  0  0  0  0  0  0  0  0  0  0  0
    0.5768    0.8326   -0.8904 C   0  0  0  0  0  0  0  0  0  0  0  0
   -1.8861    0.2972   -1.1260 C   0  0  0  0  0  0  0  0  0  0  0  0
    0.9065   -0.4330   -0.4011 C   0  0  0  0  0  0  0  0  0  0  0  0
    2.2346   -0.5706    0.0693 C   0  0  0  0  0  0  0  0  0  0  0  0
    1.4587    1.9267   -0.9368 C   0  0  0  0  0  0  0  0  0  0  0  0
    3.1937    0.5935    0.0268 C   0  0  0  0  0  0  0  0  0  0  0  0
    2.7869    1.8492   -0.4845 C   0  0  0  0  0  0  0  0  0  0  0  0
   -1.9110   -2.5553    0.4619 C   0  0  0  0  0  0  0  0  0  0  0  0
   -3.1279    1.4096    1.6733 C   0  0  0  0  0  0  0  0  0  0  0  0
   -1.9919   -3.6171   -0.3480 C   0  0  0  0  0  0  0  0  0  0  0  0
   -3.1973    2.7445    1.7291 C   0  0  0  0  0  0  0  0  0  0  0  0
   -3.3777   -1.3477    1.3938 H   0  0  0  0  0  0  0  0  0  0  0  0
   -3.6412   -1.5675   -0.3260 H   0  0  0  0  0  0  0  0  0  0  0  0
   -1.5866    0.0133    2.1853 H   0  0  0  0  0  0  0  0  0  0  0  0
   -1.0624    1.3532    1.1641 H   0  0  0  0  0  0  0  0  0  0  0  0
   -0.8255    1.7531   -2.0833 H   0  0  0  0  0  0  0  0  0  0  0  0
    0.2430   -1.2821   -0.4172 H   0  0  0  0  0  0  0  0  0  0  0  0
    1.1127    2.8801   -1.3349 H   0  0  0  0  0  0  0  0  0  0  0  0
    3.4521    2.7038   -0.5278 H   0  0  0  0  0  0  0  0  0  0  0  0
   -1.1262   -2.5374    1.2141 H   0  0  0  0  0  0  0  0  0  0  0  0
   -4.0269    0.8447    1.9057 H   0  0  0  0  0  0  0  0  0  0  0  0
   -1.2767   -4.4278   -0.2628 H   0  0  0  0  0  0  0  0  0  0  0  0
   -2.7639   -3.6966   -1.1053 H   0  0  0  0  0  0  0  0  0  0  0  0
   -4.1299    3.2357    1.9847 H   0  0  0  0  0  0  0  0  0  0  0  0
   -2.3345    3.3675    1.5212 H   0  0  0  0  0  0  0  0  0  0  0  0
  1 10  2  0  0  0  0
  2  5  1  0  0  0  0
  2  6  1  0  0  0  0
  3  7  1  0  0  0  0
  3  8  1  0  0  0  0
  3 10  1  0  0  0  0
  4  9  1  0  0  0  0
  4 10  1  0  0  0  0
  4 24  1  0  0  0  0
  5 12  2  0  0  0  0
  6 14  2  0  0  0  0
  7 16  1  0  0  0  0
  7 20  1  0  0  0  0
  7 21  1  0  0  0  0
  8 17  1  0  0  0  0
  8 22  1  0  0  0  0
  8 23  1  0  0  0  0
  9 11  2  0  0  0  0
  9 13  1  0  0  0  0
 11 12  1  0  0  0  0
 11 25  1  0  0  0  0
 12 14  1  0  0  0  0
 13 15  2  0  0  0  0
 13 26  1  0  0  0  0
 14 15  1  0  0  0  0
 15 27  1  0  0  0  0
 16 18  2  0  0  0  0
 16 28  1  0  0  0  0
 17 19  2  0  0  0  0
 17 29  1  0  0  0  0
 18 30  1  0  0  0  0
 18 31  1  0  0  0  0
 19 32  1  0  0  0  0
 19 33  1  0  0  0  0
M  END
> <PUBCHEM_COMPOUND_CID>
4177514

> <PUBCHEM_CONFORMER_RMSD>
0.8

> <PUBCHEM_CONFORMER_DIVERSEORDER>
1
31
38
63
45
54
9
41
78
79
90
84
96
76
6
71
12
21
59
74
48
62
5
77
17
20
37
13
73
97
15
29
92
44
57
56
68
47
39
65
2
87
94
24
49
16
99
91
46
33
86
4
36
55
58
35
27
72
14
42
11
22
98
3
23
53
67
69
50
83
51
70
93
10
19
52
7
100
88
40
81
82
61
43
25
60
95
101
75
8
64
34
66
80
30
18
85
32
26
28
89

> <PUBCHEM_MMFF94_PARTIAL_CHARGES>
29
1 -0.38
10 0.5
11 -0.15
12 0.29
13 -0.15
14 0.29
15 -0.15
16 -0.29
17 -0.29
18 -0.3
19 -0.3
2 0.44
24 0.37
25 0.15
26 0.15
27 0.15
28 0.15
29 0.15
3 -0.66
30 0.15
31 0.15
32 0.15
33 0.15
4 -0.55
5 -0.51
6 -0.51
7 0.44
8 0.44
9 0.12

> <PUBCHEM_EFFECTIVE_ROTOR_COUNT>
7

> <PUBCHEM_PHARMACOPHORE_FEATURES>
8
1 1 acceptor
1 18 hydrophobe
1 19 hydrophobe
1 4 donor
1 5 acceptor
1 6 acceptor
5 2 5 6 12 14 rings
6 9 11 12 13 14 15 rings

> <PUBCHEM_HEAVY_ATOM_COUNT>
19

> <PUBCHEM_ATOM_DEF_STEREO_COUNT>
0

> <PUBCHEM_ATOM_UDEF_STEREO_COUNT>
0

> <PUBCHEM_BOND_DEF_STEREO_COUNT>
0

> <PUBCHEM_BOND_UDEF_STEREO_COUNT>
0

> <PUBCHEM_ISOTOPIC_ATOM_COUNT>
0

> <PUBCHEM_COMPONENT_COUNT>
1

> <PUBCHEM_CACTVS_TAUTO_COUNT>
3

> <PUBCHEM_CONFORMER_ID>
003FBE6A00000001

> <PUBCHEM_MMFF94_ENERGY>
68.0179

> <PUBCHEM_FEATURE_SELFOVERLAP>
40.707

> <PUBCHEM_SHAPE_FINGERPRINT>
10366900 7 17774996938014098346
11552529 35 18269832167839003626
11578080 2 17905875230859122941
12173636 292 18343308041760953747
12251169 10 18409176497319705576
12553582 1 18117558419080933554
12596599 1 18408886235272742290
12633257 1 18336263423580728994
12788726 201 18130519634073903801
13032168 30 17974008650116080674
14081887 123 18055625368191619834
14178342 30 18411984663208149482
14787075 74 16901596827111211277
16945 1 18334011675264375412
19433438 48 18261108586738559154
200 152 18270667788043519975
20388580 30 11316609681672629689
20602899 9 18264184994819939687
20681651 13 18261946448795145368
21524375 3 17701269018874642569
23419403 2 17550645048416322719
23559900 14 17823397354749959218
392239 28 17623293079861211448
6992083 37 18333740108471046777
7097593 13 18409456877332989368

> <PUBCHEM_SHAPE_MULTIPOLES>
378.79
7.48
3.08
1.77
6.05
1.84
0.37
0.07
-2.2
-2.31
-0.75
-2.03
-0.86
-1.82

> <PUBCHEM_SHAPE_SELFOVERLAP>
761.359

> <PUBCHEM_SHAPE_VOLUME>
224.2

> <PUBCHEM_COORDINATE_TYPE>
2
5
10

$$$$
