1994749
  -OEChem-01171812233D

 33 35  0     0  0  0  0  0  0999 V2000
   -5.0294    0.2765    2.6508 Br  0  0  0  0  0  0  0  0  0  0  0  0
   -4.7446    1.2480   -2.9324 Br  0  0  0  0  0  0  0  0  0  0  0  0
   -2.2447   -0.9841    2.0979 O   0  0  0  0  0  0  0  0  0  0  0  0
    0.2646   -0.2773   -0.1170 N   0  0  0  0  0  0  0  0  0  0  0  0
    2.2965    1.5774    0.2870 N   0  0  0  0  0  0  0  0  0  0  0  0
   -0.7947   -1.2166   -0.3217 C   0  0  0  0  0  0  0  0  0  0  0  0
    1.6306   -0.6507   -0.1856 C   0  0  0  0  0  0  0  0  0  0  0  0
   -2.1454   -0.5657   -0.2447 C   0  0  0  0  0  0  0  0  0  0  0  0
    2.6269    0.2995    0.0213 C   0  0  0  0  0  0  0  0  0  0  0  0
    3.9712   -0.1208   -0.0570 C   0  0  0  0  0  0  0  0  0  0  0  0
    1.9373   -1.9850   -0.4633 C   0  0  0  0  0  0  0  0  0  0  0  0
   -2.8186   -0.4759    0.9690 C   0  0  0  0  0  0  0  0  0  0  0  0
    4.2800   -1.4630   -0.3364 C   0  0  0  0  0  0  0  0  0  0  0  0
   -2.7124   -0.0555   -1.4079 C   0  0  0  0  0  0  0  0  0  0  0  0
    3.2636   -2.3921   -0.5389 C   0  0  0  0  0  0  0  0  0  0  0  0
    4.9746    0.8351    0.1512 C   0  0  0  0  0  0  0  0  0  0  0  0
   -4.0733    0.1314    1.0202 C   0  0  0  0  0  0  0  0  0  0  0  0
   -3.9670    0.5517   -1.3567 C   0  0  0  0  0  0  0  0  0  0  0  0
   -4.6474    0.6453   -0.1426 C   0  0  0  0  0  0  0  0  0  0  0  0
    4.6372    2.1527    0.4252 C   0  0  0  0  0  0  0  0  0  0  0  0
    3.2950    2.4690    0.4817 C   0  0  0  0  0  0  0  0  0  0  0  0
   -0.7443   -2.0325    0.4106 H   0  0  0  0  0  0  0  0  0  0  0  0
   -0.7046   -1.6888   -1.3095 H   0  0  0  0  0  0  0  0  0  0  0  0
    0.0585    0.6933    0.0929 H   0  0  0  0  0  0  0  0  0  0  0  0
    1.1794   -2.7445   -0.6266 H   0  0  0  0  0  0  0  0  0  0  0  0
   -2.1782   -0.1276   -2.3525 H   0  0  0  0  0  0  0  0  0  0  0  0
    5.3150   -1.7921   -0.3976 H   0  0  0  0  0  0  0  0  0  0  0  0
    3.5069   -3.4281   -0.7541 H   0  0  0  0  0  0  0  0  0  0  0  0
    6.0250    0.5580    0.1008 H   0  0  0  0  0  0  0  0  0  0  0  0
   -5.6259    1.1193   -0.1047 H   0  0  0  0  0  0  0  0  0  0  0  0
    5.4000    2.9048    0.5888 H   0  0  0  0  0  0  0  0  0  0  0  0
    2.9710    3.4830    0.6921 H   0  0  0  0  0  0  0  0  0  0  0  0
   -2.8509   -0.8343    2.8439 H   0  0  0  0  0  0  0  0  0  0  0  0
  1 17  1  0  0  0  0
  2 18  1  0  0  0  0
  3 12  1  0  0  0  0
  3 33  1  0  0  0  0
  4  6  1  0  0  0  0
  4  7  1  0  0  0  0
  4 24  1  0  0  0  0
  5  9  1  0  0  0  0
  5 21  2  0  0  0  0
  6  8  1  0  0  0  0
  6 22  1  0  0  0  0
  6 23  1  0  0  0  0
  7  9  1  0  0  0  0
  7 11  2  0  0  0  0
  8 12  2  0  0  0  0
  8 14  1  0  0  0  0
  9 10  2  0  0  0  0
 10 13  1  0  0  0  0
 10 16  1  0  0  0  0
 11 15  1  0  0  0  0
 11 25  1  0  0  0  0
 12 17  1  0  0  0  0
 13 15  2  0  0  0  0
 13 27  1  0  0  0  0
 14 18  2  0  0  0  0
 14 26  1  0  0  0  0
 15 28  1  0  0  0  0
 16 20  2  0  0  0  0
 16 29  1  0  0  0  0
 17 19  2  0  0  0  0
 18 19  1  0  0  0  0
 19 30  1  0  0  0  0
 20 21  1  0  0  0  0
 20 31  1  0  0  0  0
 21 32  1  0  0  0  0
M  END
> <PUBCHEM_COMPOUND_CID>
1994749

> <PUBCHEM_CONFORMER_RMSD>
0.6

> <PUBCHEM_CONFORMER_DIVERSEORDER>
2
41
21
39
38
33
43
4
44
3
12
8
23
52
53
13
37
47
5
35
36
9
29
7
49
1
11
34
30
6
40
48
46
26
20
14
17
15
24
50
10
31
27
22
45
16
42
51
32
19
18
28
25

> <PUBCHEM_MMFF94_PARTIAL_CHARGES>
30
1 -0.11
11 -0.15
12 0.08
13 -0.15
14 -0.15
15 -0.15
16 -0.15
17 0.11
18 0.11
19 -0.15
2 -0.11
20 -0.15
21 0.16
24 0.4
25 0.15
26 0.15
27 0.15
28 0.15
29 0.15
3 -0.53
30 0.15
31 0.15
32 0.15
33 0.45
4 -0.87
5 -0.62
6 0.51
7 0.1
8 -0.14
9 0.31

> <PUBCHEM_EFFECTIVE_ROTOR_COUNT>
3

> <PUBCHEM_PHARMACOPHORE_FEATURES>
9
1 1 hydrophobe
1 2 hydrophobe
1 3 donor
1 4 cation
1 4 donor
1 5 acceptor
6 5 9 10 16 20 21 rings
6 7 9 10 11 13 15 rings
6 8 12 14 17 18 19 rings

> <PUBCHEM_HEAVY_ATOM_COUNT>
21

> <PUBCHEM_ATOM_DEF_STEREO_COUNT>
0

> <PUBCHEM_ATOM_UDEF_STEREO_COUNT>
0

> <PUBCHEM_BOND_DEF_STEREO_COUNT>
0

> <PUBCHEM_BOND_UDEF_STEREO_COUNT>
0

> <PUBCHEM_ISOTOPIC_ATOM_COUNT>
0

> <PUBCHEM_COMPONENT_COUNT>
1

> <PUBCHEM_CACTVS_TAUTO_COUNT>
3

> <PUBCHEM_CONFORMER_ID>
001E6FFD00000002

> <PUBCHEM_MMFF94_ENERGY>
68.4752

> <PUBCHEM_FEATURE_SELFOVERLAP>
45.702

> <PUBCHEM_SHAPE_FINGERPRINT>
10319926 262 17022893532790442480
10912923 1 17632573838383293055
1100329 8 14227323010526173138
11370993 144 18335995168476107467
11471102 20 18342453738643508638
11545043 162 17386009433632756115
11796584 16 16951123955365980570
12236239 1 17275108310020268715
12403259 415 18113339678674085727
12616971 3 17775007851573483115
13402501 40 18114446903778958477
13583140 156 18040992934294861675
13631057 29 17771332356254325703
13675066 3 18040438797508485775
14178342 30 16153704319440845339
14848178 96 18057596771429752720
15081414 286 18410862075011482724
15188451 53 15213579069821768249
15375358 24 18114174237684595614
15806764 133 17968670336468916197
16752209 62 15697989752214224151
16988056 13 13959118409387827001
17818456 19 16054646975847406282
1813 80 17486228716642229214
19433438 15 17203613649130250963
20511986 3 17346593045594261473
20554085 129 16516507925623335781
20645477 56 18259706718034863827
20645477 70 18342737395205435334
21033648 144 18343013428094312356
21033648 29 17967526861708956949
21065201 7 16732987479269388747
212916 134 16588575419138510671
21315764 119 14835583352807710468
21792961 116 18116156568016031078
22122407 14 18057343712204463049
22289505 5 18337942403716877804
23557571 272 17458349628134320871
23559900 14 17024027047305711046
268830 7 18272656714373089563
341906 21 16732977600870761269
4409770 3 15034331877766683134
474 4 18272370901532423514
495365 180 17970046899215246763
497634 4 18130504219562898903
5104073 3 18341049709334225426
57724786 102 18340782497606261552
602551 16 16588033445388846258
633830 44 17774736280891772631
8272917 22 18130515162796995758
90127 26 18186517674860315925
9971528 1 17775003441317407374

> <PUBCHEM_SHAPE_MULTIPOLES>
428.22
13.04
2.12
2.07
1.12
0.56
-0.39
3.91
-1.86
-1.17
0.31
3.31
0.27
4.53

> <PUBCHEM_SHAPE_SELFOVERLAP>
911.398

> <PUBCHEM_SHAPE_VOLUME>
245.7

> <PUBCHEM_COORDINATE_TYPE>
2
5
10

$$$$
