5341375
  -OEChem-01171812253D

 62 66  0     0  0  0  0  0  0999 V2000
    4.6205    0.5458   -2.5709 O   0  0  0  0  0  0  0  0  0  0  0  0
    3.5146    0.4836    2.6505 O   0  0  0  0  0  0  0  0  0  0  0  0
   -3.7694   -1.6296    2.9480 O   0  0  0  0  0  0  0  0  0  0  0  0
   -8.8046    2.5725   -2.3333 O   0  0  0  0  0  0  0  0  0  0  0  0
    2.9441   -1.3861   -1.6991 N   0  0  0  0  0  0  0  0  0  0  0  0
    2.3432   -1.4234    1.1324 N   0  0  0  0  0  0  0  0  0  0  0  0
    2.1317   -0.9596   -2.8396 C   0  0  0  0  0  0  0  0  0  0  0  0
    3.2642   -2.8139   -1.6568 C   0  0  0  0  0  0  0  0  0  0  0  0
    0.8258   -1.7514   -2.8732 C   0  0  0  0  0  0  0  0  0  0  0  0
    1.9773   -3.6365   -1.6715 C   0  0  0  0  0  0  0  0  0  0  0  0
    1.0883   -3.2562   -2.8541 C   0  0  0  0  0  0  0  0  0  0  0  0
    3.4475   -0.4996   -0.7919 C   0  0  0  0  0  0  0  0  0  0  0  0
    3.1686   -0.5153    0.5253 C   0  0  0  0  0  0  0  0  0  0  0  0
    4.3617    0.5288   -1.3715 C   0  0  0  0  0  0  0  0  0  0  0  0
    4.9530    1.5323   -0.4717 C   0  0  0  0  0  0  0  0  0  0  0  0
    3.7639    0.4955    1.4490 C   0  0  0  0  0  0  0  0  0  0  0  0
    4.6644    1.5163    0.8894 C   0  0  0  0  0  0  0  0  0  0  0  0
    5.8120    2.5088   -0.9924 C   0  0  0  0  0  0  0  0  0  0  0  0
    5.2335    2.4769    1.7352 C   0  0  0  0  0  0  0  0  0  0  0  0
    0.9648   -1.3339    1.3416 C   0  0  0  0  0  0  0  0  0  0  0  0
    6.3775    3.4642   -0.1478 C   0  0  0  0  0  0  0  0  0  0  0  0
    6.0886    3.4483    1.2145 C   0  0  0  0  0  0  0  0  0  0  0  0
    0.2515   -0.2072    0.9096 C   0  0  0  0  0  0  0  0  0  0  0  0
    0.2755   -2.3690    1.9880 C   0  0  0  0  0  0  0  0  0  0  0  0
   -1.1245   -0.1174    1.1200 C   0  0  0  0  0  0  0  0  0  0  0  0
   -1.1005   -2.2793    2.1984 C   0  0  0  0  0  0  0  0  0  0  0  0
   -1.8004   -1.1534    1.7644 C   0  0  0  0  0  0  0  0  0  0  0  0
   -3.2350   -1.0593    1.9849 C   0  0  0  0  0  0  0  0  0  0  0  0
   -4.0646   -0.2813    1.0025 C   0  0  0  0  0  0  0  0  0  0  0  0
   -5.3944   -0.1911    1.1521 C   0  0  0  0  0  0  0  0  0  0  0  0
   -6.2907    0.5352    0.2353 C   0  0  0  0  0  0  0  0  0  0  0  0
   -5.7639    1.5052   -0.6017 C   0  0  0  0  0  0  0  0  0  0  0  0
   -7.6430    0.2340    0.2290 C   0  0  0  0  0  0  0  0  0  0  0  0
   -6.6128    2.1930   -1.4690 C   0  0  0  0  0  0  0  0  0  0  0  0
   -8.4917    0.9216   -0.6384 C   0  0  0  0  0  0  0  0  0  0  0  0
   -7.9767    1.9012   -1.4874 C   0  0  0  0  0  0  0  0  0  0  0  0
    2.6924   -1.1179   -3.7688 H   0  0  0  0  0  0  0  0  0  0  0  0
    1.8913    0.1092   -2.7813 H   0  0  0  0  0  0  0  0  0  0  0  0
    3.8518   -3.0707   -0.7672 H   0  0  0  0  0  0  0  0  0  0  0  0
    3.8827   -3.0683   -2.5264 H   0  0  0  0  0  0  0  0  0  0  0  0
    0.2532   -1.4855   -3.7685 H   0  0  0  0  0  0  0  0  0  0  0  0
    0.2108   -1.4827   -2.0057 H   0  0  0  0  0  0  0  0  0  0  0  0
    1.4221   -3.4816   -0.7404 H   0  0  0  0  0  0  0  0  0  0  0  0
    2.2223   -4.7033   -1.7224 H   0  0  0  0  0  0  0  0  0  0  0  0
    0.1386   -3.7994   -2.7961 H   0  0  0  0  0  0  0  0  0  0  0  0
    1.5752   -3.5554   -3.7903 H   0  0  0  0  0  0  0  0  0  0  0  0
    2.8208   -2.0883    1.7336 H   0  0  0  0  0  0  0  0  0  0  0  0
    6.0529    2.5425   -2.0516 H   0  0  0  0  0  0  0  0  0  0  0  0
    5.0238    2.4859    2.8016 H   0  0  0  0  0  0  0  0  0  0  0  0
    7.0433    4.2207   -0.5530 H   0  0  0  0  0  0  0  0  0  0  0  0
    6.5291    4.1923    1.8718 H   0  0  0  0  0  0  0  0  0  0  0  0
    0.7464    0.6224    0.4113 H   0  0  0  0  0  0  0  0  0  0  0  0
    0.8075   -3.2537    2.3298 H   0  0  0  0  0  0  0  0  0  0  0  0
   -1.6226    0.7924    0.7989 H   0  0  0  0  0  0  0  0  0  0  0  0
   -1.6102   -3.0990    2.6983 H   0  0  0  0  0  0  0  0  0  0  0  0
   -3.5624    0.1365    0.1397 H   0  0  0  0  0  0  0  0  0  0  0  0
   -5.8831   -0.6667    1.9992 H   0  0  0  0  0  0  0  0  0  0  0  0
   -4.7146    1.7824   -0.6055 H   0  0  0  0  0  0  0  0  0  0  0  0
   -8.0589   -0.5275    0.8834 H   0  0  0  0  0  0  0  0  0  0  0  0
   -6.2071    2.9589   -2.1245 H   0  0  0  0  0  0  0  0  0  0  0  0
   -9.5523    0.6848   -0.6432 H   0  0  0  0  0  0  0  0  0  0  0  0
   -9.7121    2.2437   -2.2129 H   0  0  0  0  0  0  0  0  0  0  0  0
  1 14  2  0  0  0  0
  2 16  2  0  0  0  0
  3 28  2  0  0  0  0
  4 36  1  0  0  0  0
  4 62  1  0  0  0  0
  5  7  1  0  0  0  0
  5  8  1  0  0  0  0
  5 12  1  0  0  0  0
  6 13  1  0  0  0  0
  6 20  1  0  0  0  0
  6 47  1  0  0  0  0
  7  9  1  0  0  0  0
  7 37  1  0  0  0  0
  7 38  1  0  0  0  0
  8 10  1  0  0  0  0
  8 39  1  0  0  0  0
  8 40  1  0  0  0  0
  9 11  1  0  0  0  0
  9 41  1  0  0  0  0
  9 42  1  0  0  0  0
 10 11  1  0  0  0  0
 10 43  1  0  0  0  0
 10 44  1  0  0  0  0
 11 45  1  0  0  0  0
 11 46  1  0  0  0  0
 12 13  2  0  0  0  0
 12 14  1  0  0  0  0
 13 16  1  0  0  0  0
 14 15  1  0  0  0  0
 15 17  1  0  0  0  0
 15 18  2  0  0  0  0
 16 17  1  0  0  0  0
 17 19  2  0  0  0  0
 18 21  1  0  0  0  0
 18 48  1  0  0  0  0
 19 22  1  0  0  0  0
 19 49  1  0  0  0  0
 20 23  2  0  0  0  0
 20 24  1  0  0  0  0
 21 22  2  0  0  0  0
 21 50  1  0  0  0  0
 22 51  1  0  0  0  0
 23 25  1  0  0  0  0
 23 52  1  0  0  0  0
 24 26  2  0  0  0  0
 24 53  1  0  0  0  0
 25 27  2  0  0  0  0
 25 54  1  0  0  0  0
 26 27  1  0  0  0  0
 26 55  1  0  0  0  0
 27 28  1  0  0  0  0
 28 29  1  0  0  0  0
 29 30  2  0  0  0  0
 29 56  1  0  0  0  0
 30 31  1  0  0  0  0
 30 57  1  0  0  0  0
 31 32  2  0  0  0  0
 31 33  1  0  0  0  0
 32 34  1  0  0  0  0
 32 58  1  0  0  0  0
 33 35  2  0  0  0  0
 33 59  1  0  0  0  0
 34 36  2  0  0  0  0
 34 60  1  0  0  0  0
 35 36  1  0  0  0  0
 35 61  1  0  0  0  0
M  END
> <PUBCHEM_COMPOUND_CID>
5341375

> <PUBCHEM_CONFORMER_RMSD>
1

> <PUBCHEM_CONFORMER_DIVERSEORDER>
1
47
28
10
59
38
31
13
60
45
8
56
55
33
43
7
40
16
6
37
34
23
9
48
30
21
54
17
32
15
61
25
52
46
5
20
49
42
26
4
58
24
51
2
12
36
27
18
50
22
35
29
39
57
11
41
14
3
44
19
53

> <PUBCHEM_MMFF94_PARTIAL_CHARGES>
49
1 -0.57
12 0.11
13 0.11
14 0.47
15 0.09
16 0.47
17 0.09
18 -0.15
19 -0.15
2 -0.57
20 0.1
21 -0.15
22 -0.15
23 -0.15
24 -0.15
25 -0.15
26 -0.15
27 0.09
28 0.47
29 -0.14
3 -0.57
30 -0.18
31 0.03
32 -0.15
33 -0.15
34 -0.15
35 -0.15
36 0.08
4 -0.53
47 0.4
48 0.15
49 0.15
5 -0.84
50 0.15
51 0.15
52 0.15
53 0.15
54 0.15
55 0.15
56 0.15
57 0.15
58 0.15
59 0.15
6 -0.6
60 0.15
61 0.15
62 0.45
7 0.37
8 0.37

> <PUBCHEM_EFFECTIVE_ROTOR_COUNT>
7.2

> <PUBCHEM_PHARMACOPHORE_FEATURES>
12
1 1 acceptor
1 2 acceptor
1 3 acceptor
1 4 donor
1 5 cation
1 6 cation
1 6 donor
6 12 13 14 15 16 17 rings
6 15 17 18 19 21 22 rings
6 20 23 24 25 26 27 rings
6 31 32 33 34 35 36 rings
6 5 7 8 9 10 11 rings

> <PUBCHEM_HEAVY_ATOM_COUNT>
36

> <PUBCHEM_ATOM_DEF_STEREO_COUNT>
0

> <PUBCHEM_ATOM_UDEF_STEREO_COUNT>
0

> <PUBCHEM_BOND_DEF_STEREO_COUNT>
1

> <PUBCHEM_BOND_UDEF_STEREO_COUNT>
0

> <PUBCHEM_ISOTOPIC_ATOM_COUNT>
0

> <PUBCHEM_COMPONENT_COUNT>
1

> <PUBCHEM_CACTVS_TAUTO_COUNT>
12

> <PUBCHEM_CONFORMER_ID>
005180BF00000001

> <PUBCHEM_MMFF94_ENERGY>
128.3599

> <PUBCHEM_FEATURE_SELFOVERLAP>
60.92

> <PUBCHEM_SHAPE_FINGERPRINT>
10190108 129 13479132424385103502
10439779 11 16805900571258873543
10985338 1 17988368074259413614
11621639 307 17329431057320236740
12422481 6 15647040577842541614
12661589 4 12751232610175809861
12728208 25 10879981485848582021
13150687 139 17417826075675143924
13383661 66 9366810493237374868
1361 2 17846500356648498448
13673619 4 9295298230705513339
13782708 43 9295292712105321009
15001296 14 14476372951932736245
15160629 131 17632849812356620201
15484559 13 17418091044612299482
15840311 113 17023175007883269417
17134984 74 16988553607460448567
19053607 189 17604160284652155591
19304671 126 18337956658971802157
20721686 124 18341330011927860062
20721686 146 18113900507156899404
21033648 29 17676489483826796746
21599406 157 17846492592354708901
22223350 30 8357384035173982161
23516275 100 18261386771692635645
25269216 80 18200584930623689215
27425 322 18409441509813942747
2748736 6 17603862304664726305
4066623 53 18267028263133143336
44249763 50 18336264656405115643
5104073 3 14057015961376674881
513532 50 18041850493055896750
5372103 7 18340766034864883697
5951187 136 17822589273337234102
6058803 2 16054097254446309891
6677587 24 18199450121920180271
6697151 62 18054244132690909662
9555976 147 15936986265712199915
9849439 229 17530966869813213363

> <PUBCHEM_SHAPE_MULTIPOLES>
707.42
21.99
3.95
3.26
47.14
0.64
-0.24
-25.72
-10.03
-6.2
-1.96
0.84
1.64
5.22

> <PUBCHEM_SHAPE_SELFOVERLAP>
1560.673

> <PUBCHEM_SHAPE_VOLUME>
377.2

> <PUBCHEM_COORDINATE_TYPE>
2
5
10

$$$$
