2317993
  -OEChem-01171812243D

 26 27  0     0  0  0  0  0  0999 V2000
    0.0008   -0.3883   -1.5019 S   0  0  0  0  0  0  0  0  0  0  0  0
   -2.7916   -1.3844   -2.0913 O   0  0  0  0  0  0  0  0  0  0  0  0
   -0.0176    0.1351    1.4760 O   0  0  0  0  0  0  0  0  0  0  0  0
   -4.4885    1.1609    1.3294 O   0  0  0  0  0  0  0  0  0  0  0  0
    2.9758    2.6185   -0.4024 O   0  5  0  0  0  0  0  0  0  0  0  0
    1.1414    1.9608   -1.4129 O   0  0  0  0  0  0  0  0  0  0  0  0
   -3.6235   -0.1354   -0.3579 N   0  0  0  0  0  0  0  0  0  0  0  0
   -2.2595    0.6108    1.3978 N   0  0  0  0  0  0  0  0  0  0  0  0
    2.1434    1.7301   -0.6975 N   0  3  0  0  0  0  0  0  0  0  0  0
   -1.2858   -0.8621   -0.2989 C   0  0  0  0  0  0  0  0  0  0  0  0
   -2.6150   -0.8231   -1.0090 C   0  0  0  0  0  0  0  0  0  0  0  0
   -1.1113    0.0002    0.9252 C   0  0  0  0  0  0  0  0  0  0  0  0
    1.4373   -0.6253   -0.5041 C   0  0  0  0  0  0  0  0  0  0  0  0
    2.3438    0.4099   -0.2020 C   0  0  0  0  0  0  0  0  0  0  0  0
   -3.5244    0.5808    0.8270 C   0  0  0  0  0  0  0  0  0  0  0  0
    1.6939   -1.9065    0.0178 C   0  0  0  0  0  0  0  0  0  0  0  0
    3.4650    0.1707    0.5927 C   0  0  0  0  0  0  0  0  0  0  0  0
    2.8151   -2.1457    0.8124 C   0  0  0  0  0  0  0  0  0  0  0  0
    3.7007   -1.1072    1.0998 C   0  0  0  0  0  0  0  0  0  0  0  0
   -1.1473   -1.9026    0.0167 H   0  0  0  0  0  0  0  0  0  0  0  0
   -4.5345   -0.1365   -0.8085 H   0  0  0  0  0  0  0  0  0  0  0  0
   -2.1611    1.1620    2.2458 H   0  0  0  0  0  0  0  0  0  0  0  0
    1.0326   -2.7429   -0.1986 H   0  0  0  0  0  0  0  0  0  0  0  0
    4.1807    0.9499    0.8419 H   0  0  0  0  0  0  0  0  0  0  0  0
    3.0006   -3.1413    1.2048 H   0  0  0  0  0  0  0  0  0  0  0  0
    4.5739   -1.2943    1.7181 H   0  0  0  0  0  0  0  0  0  0  0  0
  1 10  1  0  0  0  0
  1 13  1  0  0  0  0
  2 11  2  0  0  0  0
  3 12  2  0  0  0  0
  4 15  2  0  0  0  0
  5  9  1  0  0  0  0
  6  9  2  0  0  0  0
  7 11  1  0  0  0  0
  7 15  1  0  0  0  0
  7 21  1  0  0  0  0
  8 12  1  0  0  0  0
  8 15  1  0  0  0  0
  8 22  1  0  0  0  0
  9 14  1  0  0  0  0
 10 11  1  0  0  0  0
 10 12  1  0  0  0  0
 10 20  1  0  0  0  0
 13 14  1  0  0  0  0
 13 16  2  0  0  0  0
 14 17  2  0  0  0  0
 16 18  1  0  0  0  0
 16 23  1  0  0  0  0
 17 19  1  0  0  0  0
 17 24  1  0  0  0  0
 18 19  2  0  0  0  0
 18 25  1  0  0  0  0
 19 26  1  0  0  0  0
M  CHG  2   5  -1   9   1
M  END
> <PUBCHEM_COMPOUND_CID>
2317993

> <PUBCHEM_CONFORMER_RMSD>
0.6

> <PUBCHEM_CONFORMER_DIVERSEORDER>
1
4
6
3
2
5

> <PUBCHEM_MMFF94_PARTIAL_CHARGES>
25
1 -0.33
10 0.35
11 0.57
12 0.57
13 0.1
14 0.13
15 0.69
16 -0.15
17 -0.15
18 -0.15
19 -0.15
2 -0.57
21 0.37
22 0.37
23 0.15
24 0.15
25 0.15
26 0.15
3 -0.57
4 -0.57
5 -0.52
6 -0.52
7 -0.49
8 -0.49
9 0.91

> <PUBCHEM_EFFECTIVE_ROTOR_COUNT>
3.6

> <PUBCHEM_PHARMACOPHORE_FEATURES>
11
1 10 anion
1 2 acceptor
1 3 acceptor
1 4 acceptor
1 5 acceptor
1 5 anion
1 6 acceptor
1 7 donor
1 8 donor
6 13 14 16 17 18 19 rings
6 7 8 10 11 12 15 rings

> <PUBCHEM_HEAVY_ATOM_COUNT>
19

> <PUBCHEM_ATOM_DEF_STEREO_COUNT>
0

> <PUBCHEM_ATOM_UDEF_STEREO_COUNT>
0

> <PUBCHEM_BOND_DEF_STEREO_COUNT>
0

> <PUBCHEM_BOND_UDEF_STEREO_COUNT>
0

> <PUBCHEM_ISOTOPIC_ATOM_COUNT>
0

> <PUBCHEM_COMPONENT_COUNT>
1

> <PUBCHEM_CACTVS_TAUTO_COUNT>
5

> <PUBCHEM_CONFORMER_ID>
00235EA900000001

> <PUBCHEM_MMFF94_ENERGY>
68.1084

> <PUBCHEM_FEATURE_SELFOVERLAP>
55.945

> <PUBCHEM_SHAPE_FINGERPRINT>
10062212 137 18201994439314372251
11471102 22 18040707070156544822
11578080 2 17769048528526557416
11640471 11 18271815677903414332
12236239 1 18201717353846946690
12403814 3 18342173324592402281
12553582 1 18117271455062451530
12633257 1 17822002138528483394
13134695 92 17895462662269537132
13296908 3 16515400767998899255
13538477 17 17846777399197639403
13583140 156 18334020493058788521
14115302 16 17703512107898208115
14787075 74 17116629394144480902
15775835 57 18060142045878218784
16752209 62 17346593118972682839
16945 1 18259982678273560038
17804303 29 14634877431253604751
17980427 23 17917412238501284704
1813 80 18195534692969997622
18186145 218 18408604738441354399
19049666 15 16806150065107380847
19765921 60 18127424559785541392
20645476 183 18201164325194223759
20715895 44 17767970840387397825
21639500 275 18187921841313550204
23175994 123 17386003902063051350
23419403 2 17265756972463907872
23526113 38 16806707517872168678
23557571 272 15769773606442871799
23559900 14 16558756680957322358
23598291 2 18341894103798211190
31174 14 17749118793592942176
3286 77 17531260434874545547
4409770 3 15892524879590418678
474 4 18335701710335178712
6049 1 16660362575875418487
633830 44 18265912426239678436
7615 1 18271798055826457959
77492 1 18272927249873139134
84936 182 18126845130280365488
88987 49 17132115753560361591

> <PUBCHEM_SHAPE_MULTIPOLES>
350.57
7.08
2
1.59
3.52
0.68
0.23
0.4
-2.12
-1.89
0.43
0.94
-0.03
-1.79

> <PUBCHEM_SHAPE_SELFOVERLAP>
743.302

> <PUBCHEM_SHAPE_VOLUME>
194.8

> <PUBCHEM_COORDINATE_TYPE>
2
5
10

$$$$
