3977768
  -OEChem-01171812253D

 43 44  0     1  0  0  0  0  0999 V2000
   -4.7784    1.0308    0.3412 S   0  0  0  0  0  0  0  0  0  0  0  0
    1.2779   -1.1737   -0.3473 O   0  0  0  0  0  0  0  0  0  0  0  0
   -0.9364    0.2809    0.1299 O   0  0  0  0  0  0  0  0  0  0  0  0
   -2.0375    2.1888    0.7677 O   0  0  0  0  0  0  0  0  0  0  0  0
   -7.6275   -1.4236   -0.5319 O   0  5  0  0  0  0  0  0  0  0  0  0
   -7.6356    0.6557    0.1853 O   0  0  0  0  0  0  0  0  0  0  0  0
    2.6766    0.5703    0.2940 N   0  0  0  0  0  0  0  0  0  0  0  0
   -7.0111   -0.3838   -0.1668 N   0  3  0  0  0  0  0  0  0  0  0  0
    5.0478    0.8831   -0.3338 C   0  0  2  0  0  0  0  0  0  0  0  0
    6.4304    0.1893   -0.4552 C   0  0  1  0  0  0  0  0  0  0  0  0
    3.9368   -0.1078    0.0835 C   0  0  1  0  0  0  0  0  0  0  0  0
    6.7624   -0.5735    0.8377 C   0  0  0  0  0  0  0  0  0  0  0  0
    4.3166   -0.8770    1.3539 C   0  0  0  0  0  0  0  0  0  0  0  0
    5.6718   -1.5628    1.2352 C   0  0  0  0  0  0  0  0  0  0  0  0
    4.6800    1.6463   -1.6127 C   0  0  0  0  0  0  0  0  0  0  0  0
    6.5572   -0.7303   -1.6768 C   0  0  0  0  0  0  0  0  0  0  0  0
    1.4498   -0.0273    0.0580 C   0  0  0  0  0  0  0  0  0  0  0  0
    0.3039    0.9133    0.3640 C   0  0  0  0  0  0  0  0  0  0  0  0
   -2.0675    1.0287    0.3700 C   0  0  0  0  0  0  0  0  0  0  0  0
   -3.2861    0.2669    0.0929 C   0  0  0  0  0  0  0  0  0  0  0  0
   -3.3797   -1.0115   -0.3461 C   0  0  0  0  0  0  0  0  0  0  0  0
   -4.7428   -1.3993   -0.4916 C   0  0  0  0  0  0  0  0  0  0  0  0
   -5.6088   -0.3835   -0.1511 C   0  0  0  0  0  0  0  0  0  0  0  0
    5.1394    1.6372    0.4621 H   0  0  0  0  0  0  0  0  0  0  0  0
    7.1909    0.9735   -0.5728 H   0  0  0  0  0  0  0  0  0  0  0  0
    3.7852   -0.8354   -0.7239 H   0  0  0  0  0  0  0  0  0  0  0  0
    7.7174   -1.1021    0.7331 H   0  0  0  0  0  0  0  0  0  0  0  0
    6.8976    0.1507    1.6517 H   0  0  0  0  0  0  0  0  0  0  0  0
    4.3354   -0.1891    2.2099 H   0  0  0  0  0  0  0  0  0  0  0  0
    3.5507   -1.6281    1.5835 H   0  0  0  0  0  0  0  0  0  0  0  0
    5.6125   -2.3748    0.5016 H   0  0  0  0  0  0  0  0  0  0  0  0
    5.9314   -2.0257    2.1942 H   0  0  0  0  0  0  0  0  0  0  0  0
    5.5112    2.2793   -1.9410 H   0  0  0  0  0  0  0  0  0  0  0  0
    3.8193    2.3021   -1.4437 H   0  0  0  0  0  0  0  0  0  0  0  0
    4.4205    0.9659   -2.4301 H   0  0  0  0  0  0  0  0  0  0  0  0
    7.5310   -1.2321   -1.6806 H   0  0  0  0  0  0  0  0  0  0  0  0
    5.7839   -1.5032   -1.6993 H   0  0  0  0  0  0  0  0  0  0  0  0
    6.4897   -0.1595   -2.6083 H   0  0  0  0  0  0  0  0  0  0  0  0
    2.6992    1.5054    0.6912 H   0  0  0  0  0  0  0  0  0  0  0  0
    0.3996    1.7948   -0.2808 H   0  0  0  0  0  0  0  0  0  0  0  0
    0.3745    1.2139    1.4159 H   0  0  0  0  0  0  0  0  0  0  0  0
   -2.5416   -1.6622   -0.5609 H   0  0  0  0  0  0  0  0  0  0  0  0
   -5.0589   -2.3782   -0.8304 H   0  0  0  0  0  0  0  0  0  0  0  0
  1 20  1  0  0  0  0
  1 23  1  0  0  0  0
  2 17  2  0  0  0  0
  3 18  1  0  0  0  0
  3 19  1  0  0  0  0
  4 19  2  0  0  0  0
  5  8  1  0  0  0  0
  6  8  2  0  0  0  0
  7 11  1  0  0  0  0
  7 17  1  0  0  0  0
  7 39  1  0  0  0  0
  8 23  1  0  0  0  0
  9 10  1  0  0  0  0
  9 11  1  0  0  0  0
  9 15  1  0  0  0  0
  9 24  1  0  0  0  0
 10 12  1  0  0  0  0
 10 16  1  0  0  0  0
 10 25  1  0  0  0  0
 11 13  1  0  0  0  0
 11 26  1  0  0  0  0
 12 14  1  0  0  0  0
 12 27  1  0  0  0  0
 12 28  1  0  0  0  0
 13 14  1  0  0  0  0
 13 29  1  0  0  0  0
 13 30  1  0  0  0  0
 14 31  1  0  0  0  0
 14 32  1  0  0  0  0
 15 33  1  0  0  0  0
 15 34  1  0  0  0  0
 15 35  1  0  0  0  0
 16 36  1  0  0  0  0
 16 37  1  0  0  0  0
 16 38  1  0  0  0  0
 17 18  1  0  0  0  0
 18 40  1  0  0  0  0
 18 41  1  0  0  0  0
 19 20  1  0  0  0  0
 20 21  2  0  0  0  0
 21 22  1  0  0  0  0
 21 42  1  0  0  0  0
 22 23  2  0  0  0  0
 22 43  1  0  0  0  0
M  CHG  2   5  -1   8   1
M  END
> <PUBCHEM_COMPOUND_CID>
3977768

> <PUBCHEM_CONFORMER_RMSD>
1.2

> <PUBCHEM_CONFORMER_DIVERSEORDER>
1
68
63
143
151
138
55
59
150
113
146
137
42
116
145
100
112
94
88
131
114
79
70
39
92
4
163
8
127
33
3
130
111
40
83
86
13
75
81
52
125
65
159
15
64
103
38
107
99
154
50
47
157
43
51
132
124
53
149
121
110
95
29
109
80
28
56
58
6
54
11
84
140
35
106
18
161
89
118
120
82
77
108
22
60
20
44
98
45
16
14
155
139
19
10
46
87
123
129
57
90
134
61
142
66
144
147
30
165
133
73
117
25
74
136
12
31
9
156
101
62
71
37
141
76
126
166
148
78
135
85
104
41
162
23
115
91
69
158
17
122
67
152
21
5
49
97
36
102
26
32
72
27
24
7
105
153
128
119
160
48
34
93
96
2
164

> <PUBCHEM_MMFF94_PARTIAL_CHARGES>
19
1 -0.08
11 0.3
17 0.57
18 0.34
19 0.81
2 -0.57
20 -0.05
21 -0.15
22 -0.15
23 0.12
3 -0.43
39 0.37
4 -0.57
42 0.15
43 0.15
5 -0.52
6 -0.52
7 -0.73
8 0.96

> <PUBCHEM_EFFECTIVE_ROTOR_COUNT>
8.2

> <PUBCHEM_PHARMACOPHORE_FEATURES>
8
1 2 acceptor
1 4 acceptor
1 5 acceptor
1 5 anion
1 6 acceptor
1 7 donor
5 1 20 21 22 23 rings
6 9 10 11 12 13 14 rings

> <PUBCHEM_HEAVY_ATOM_COUNT>
23

> <PUBCHEM_ATOM_DEF_STEREO_COUNT>
0

> <PUBCHEM_ATOM_UDEF_STEREO_COUNT>
3

> <PUBCHEM_BOND_DEF_STEREO_COUNT>
0

> <PUBCHEM_BOND_UDEF_STEREO_COUNT>
0

> <PUBCHEM_ISOTOPIC_ATOM_COUNT>
0

> <PUBCHEM_COMPONENT_COUNT>
1

> <PUBCHEM_CACTVS_TAUTO_COUNT>
2

> <PUBCHEM_CONFORMER_ID>
003CB22800000001

> <PUBCHEM_MMFF94_ENERGY>
36.7293

> <PUBCHEM_FEATURE_SELFOVERLAP>
40.677

> <PUBCHEM_SHAPE_FINGERPRINT>
10 15 16917058980428768770
10299344 5 18334857221117531387
10595046 47 18334576815709308624
10968037 39 18411419523380121407
11315181 36 17989209265832557865
11524674 6 16487253292462041039
11719270 70 18130787837190908614
11963148 33 18272926141682946046
12166972 35 18113620096984074460
12236239 1 18260829284667231240
125118 31 10807946967779100027
12516196 113 17274822467547050049
12916748 109 17418374675831462912
13073987 5 16343428293914686250
13288520 33 18344145904387388465
13533116 47 17822004277448797898
13668630 136 18341898484970840534
13885169 127 17489593325127871441
13914758 101 17458340806409067197
14123256 10 18410573993767772490
1420 363 17418374692499609368
14251752 14 18261105254118406189
14251764 18 18335419067343634795
14251764 46 18409449189082871611
15183329 4 18335143085223803474
15301273 46 16702304533733544265
15348495 7 15697424641676110938
15419008 47 16845567600018650856
15716309 27 16128655253836591117
18006028 8 17846495946460734417
20157964 124 17530966899893457140
21150785 3 16515685550184726402
21267235 1 18343587374007854425
21623969 137 15339124533065111148
220451 1 18187367618870980378
22224240 67 15339114650303015573
22956985 138 17840031745824239710
2297311 6 17989210330441355425
23035841 295 18413107268990737099
23081809 10 17967817107040631808
23198884 109 16805319986196270329
23522609 53 18194711265528859833
23559900 14 18199460146933544097
29717793 49 18409736166582712204
300161 21 10665230363020461080
3004659 81 18410576193192091156
3009799 131 14923944552538161197
335352 9 18342452652681421117
34797466 226 17489872661337631288
397830 11 15840688842075065155
4073 2 17386012835436655178
4098825 35 17531238414693465109
4325135 7 18408886230518410446
4340502 62 14549018780312427620
504579 68 18113627780954081118
5283156 175 18408322168247632569
59682541 35 17632006546107243978
59755656 215 18131355185132636806
59755656 520 17749103422565113715
999808 66 17822301223493989843

> <PUBCHEM_SHAPE_MULTIPOLES>
437.87
23.3
1.56
1.13
14.17
0.19
0.18
-5.25
3.06
-0.11
-0.02
-1.86
-0.05
-2.1

> <PUBCHEM_SHAPE_SELFOVERLAP>
891.361

> <PUBCHEM_SHAPE_VOLUME>
255.1

> <PUBCHEM_COORDINATE_TYPE>
2
5
10

$$$$
