4114494
  -OEChem-01171812243D

 45 47  0     1  0  0  0  0  0999 V2000
    0.4645   -0.5339    1.1686 O   0  0  0  0  0  0  0  0  0  0  0  0
   -5.0375   -2.6439   -0.4344 O   0  0  0  0  0  0  0  0  0  0  0  0
    0.9403    2.9285    1.7464 O   0  5  0  0  0  0  0  0  0  0  0  0
   -0.5755    4.3701    1.0545 O   0  0  0  0  0  0  0  0  0  0  0  0
    2.0600   -0.0195   -0.4927 N   0  0  0  0  0  0  0  0  0  0  0  0
    2.0198    0.8636   -1.5421 N   0  0  0  0  0  0  0  0  0  0  0  0
   -0.2115    3.2332    1.3966 N   0  3  0  0  0  0  0  0  0  0  0  0
   -1.2949    1.5609   -0.0547 C   0  0  1  0  0  0  0  0  0  0  0  0
    0.0490    1.1442   -0.5115 C   0  0  0  0  0  0  0  0  0  0  0  0
    0.8368    1.5574   -1.5167 C   0  0  0  0  0  0  0  0  0  0  0  0
   -2.3089    0.4211   -0.1577 C   0  0  0  0  0  0  0  0  0  0  0  0
   -1.2230    2.1582    1.3637 C   0  0  0  0  0  0  0  0  0  0  0  0
    0.8492    0.0883    0.1920 C   0  0  0  0  0  0  0  0  0  0  0  0
    0.5823    2.6322   -2.5126 C   0  0  0  0  0  0  0  0  0  0  0  0
    3.1065   -0.8605   -0.1729 C   0  0  0  0  0  0  0  0  0  0  0  0
   -2.9836    0.2436   -1.3440 C   0  0  0  0  0  0  0  0  0  0  0  0
   -2.5094   -0.3842    0.9402 C   0  0  0  0  0  0  0  0  0  0  0  0
   -3.9093   -0.7958   -1.4374 C   0  0  0  0  0  0  0  0  0  0  0  0
   -3.4350   -1.4236    0.8468 C   0  0  0  0  0  0  0  0  0  0  0  0
   -4.1349   -1.6294   -0.3420 C   0  0  0  0  0  0  0  0  0  0  0  0
    3.0189   -1.7189    0.9327 C   0  0  0  0  0  0  0  0  0  0  0  0
    4.2745   -0.8710   -0.9492 C   0  0  0  0  0  0  0  0  0  0  0  0
    4.0764   -2.5695    1.2552 C   0  0  0  0  0  0  0  0  0  0  0  0
    5.3319   -1.7216   -0.6269 C   0  0  0  0  0  0  0  0  0  0  0  0
    5.2329   -2.5709    0.4753 C   0  0  0  0  0  0  0  0  0  0  0  0
   -5.2197   -3.4585    0.7227 C   0  0  0  0  0  0  0  0  0  0  0  0
   -1.6618    2.3675   -0.7045 H   0  0  0  0  0  0  0  0  0  0  0  0
   -0.9208    1.4572    2.1475 H   0  0  0  0  0  0  0  0  0  0  0  0
   -2.1805    2.6015    1.6620 H   0  0  0  0  0  0  0  0  0  0  0  0
    2.8548    1.2615   -1.9499 H   0  0  0  0  0  0  0  0  0  0  0  0
    1.3517    3.4079   -2.4398 H   0  0  0  0  0  0  0  0  0  0  0  0
   -0.3884    3.1143   -2.3700 H   0  0  0  0  0  0  0  0  0  0  0  0
    0.6035    2.2216   -3.5274 H   0  0  0  0  0  0  0  0  0  0  0  0
   -2.8119    0.8870   -2.2014 H   0  0  0  0  0  0  0  0  0  0  0  0
   -1.9914   -0.2684    1.8834 H   0  0  0  0  0  0  0  0  0  0  0  0
   -4.4510   -0.9516   -2.3663 H   0  0  0  0  0  0  0  0  0  0  0  0
   -3.5612   -2.0341    1.7345 H   0  0  0  0  0  0  0  0  0  0  0  0
    2.1639   -1.7816    1.5907 H   0  0  0  0  0  0  0  0  0  0  0  0
    4.3887   -0.2282   -1.8176 H   0  0  0  0  0  0  0  0  0  0  0  0
    4.0009   -3.2310    2.1134 H   0  0  0  0  0  0  0  0  0  0  0  0
    6.2323   -1.7240   -1.2344 H   0  0  0  0  0  0  0  0  0  0  0  0
    6.0562   -3.2333    0.7261 H   0  0  0  0  0  0  0  0  0  0  0  0
   -4.3022   -3.9966    0.9844 H   0  0  0  0  0  0  0  0  0  0  0  0
   -5.9722   -4.2131    0.4717 H   0  0  0  0  0  0  0  0  0  0  0  0
   -5.6157   -2.8795    1.5640 H   0  0  0  0  0  0  0  0  0  0  0  0
  1 13  2  0  0  0  0
  2 20  1  0  0  0  0
  2 26  1  0  0  0  0
  3  7  1  0  0  0  0
  4  7  2  0  0  0  0
  5  6  1  0  0  0  0
  5 13  1  0  0  0  0
  5 15  1  0  0  0  0
  6 10  1  0  0  0  0
  6 30  1  0  0  0  0
  7 12  1  0  0  0  0
  8  9  1  0  0  0  0
  8 11  1  0  0  0  0
  8 12  1  0  0  0  0
  8 27  1  0  0  0  0
  9 10  2  0  0  0  0
  9 13  1  0  0  0  0
 10 14  1  0  0  0  0
 11 16  2  0  0  0  0
 11 17  1  0  0  0  0
 12 28  1  0  0  0  0
 12 29  1  0  0  0  0
 14 31  1  0  0  0  0
 14 32  1  0  0  0  0
 14 33  1  0  0  0  0
 15 21  2  0  0  0  0
 15 22  1  0  0  0  0
 16 18  1  0  0  0  0
 16 34  1  0  0  0  0
 17 19  2  0  0  0  0
 17 35  1  0  0  0  0
 18 20  2  0  0  0  0
 18 36  1  0  0  0  0
 19 20  1  0  0  0  0
 19 37  1  0  0  0  0
 21 23  1  0  0  0  0
 21 38  1  0  0  0  0
 22 24  2  0  0  0  0
 22 39  1  0  0  0  0
 23 25  2  0  0  0  0
 23 40  1  0  0  0  0
 24 25  1  0  0  0  0
 24 41  1  0  0  0  0
 25 42  1  0  0  0  0
 26 43  1  0  0  0  0
 26 44  1  0  0  0  0
 26 45  1  0  0  0  0
M  CHG  2   3  -1   7   1
M  END
> <PUBCHEM_COMPOUND_CID>
4114494

> <PUBCHEM_CONFORMER_RMSD>
0.8

> <PUBCHEM_CONFORMER_DIVERSEORDER>
1
22
18
23
27
12
3
15
28
25
13
17
9
11
6
8
24
10
4
21
26
7
2
20
14
19
5
16

> <PUBCHEM_MMFF94_PARTIAL_CHARGES>
36
1 -0.57
10 -0.04
11 -0.14
12 0.24
13 0.62
14 0.14
15 0.12
16 -0.15
17 -0.15
18 -0.15
19 -0.15
2 -0.36
20 0.08
21 -0.15
22 -0.15
23 -0.15
24 -0.15
25 -0.15
26 0.28
3 -0.52
30 0.4
34 0.15
35 0.15
36 0.15
37 0.15
38 0.15
39 0.15
4 -0.52
40 0.15
41 0.15
42 0.15
5 -0.16
6 -0.52
7 0.8
8 0.28
9 -0.12

> <PUBCHEM_EFFECTIVE_ROTOR_COUNT>
6

> <PUBCHEM_PHARMACOPHORE_FEATURES>
9
1 1 acceptor
1 2 acceptor
1 3 acceptor
1 3 anion
1 4 acceptor
1 6 donor
5 5 6 9 10 13 rings
6 11 16 17 18 19 20 rings
6 15 21 22 23 24 25 rings

> <PUBCHEM_HEAVY_ATOM_COUNT>
26

> <PUBCHEM_ATOM_DEF_STEREO_COUNT>
0

> <PUBCHEM_ATOM_UDEF_STEREO_COUNT>
1

> <PUBCHEM_BOND_DEF_STEREO_COUNT>
0

> <PUBCHEM_BOND_UDEF_STEREO_COUNT>
0

> <PUBCHEM_ISOTOPIC_ATOM_COUNT>
0

> <PUBCHEM_COMPONENT_COUNT>
1

> <PUBCHEM_CACTVS_TAUTO_COUNT>
6

> <PUBCHEM_CONFORMER_ID>
003EC83E00000001

> <PUBCHEM_MMFF94_ENERGY>
92.7962

> <PUBCHEM_FEATURE_SELFOVERLAP>
45.751

> <PUBCHEM_SHAPE_FINGERPRINT>
10074138 170 17843410587678312625
10165383 225 12180422162755845485
10622 236 17896022261817321498
11045515 52 17531246115137265204
11552529 35 18123186806197121866
11578080 2 18336246977835273156
11763715 3 18269295529081980468
12363563 72 18272369780377154135
12553582 1 17988650730588617263
12633257 1 15984817181467408031
12788726 201 18196098750307192745
13009979 54 18338809930832710118
13134695 92 18270113638457144797
13533116 47 18122913298796780115
13544653 18 18412258441455343588
13631057 29 18335985290326126602
13911987 19 17027721655931535812
13955234 65 17836651091033355497
14251764 38 8500356804777774438
14787075 74 18267870660849280552
15475509 35 17979084009313541723
1813 80 17774453766458863293
20602899 9 17469298358544394308
20626108 58 18259696813492106750
20681651 13 17900250902454517112
20775438 99 17544457014019198171
20775530 9 18334851753561457683
21033648 29 15553909701777539171
21452121 199 18411702118547140104
22393880 68 17385994070661631327
23379529 103 18188777278757113707
23419403 2 18124282048195402228
23557571 272 17416692332425061712
23559900 14 18042114522608206343
23598288 3 18271816683300438141
46194498 28 16879069844145473231
463206 1 18337953505981315715
6669772 16 17551514770546429856
6786 2 17044292537011976400
7970288 3 18412265047047681535
9841814 1 17701554015608127293

> <PUBCHEM_SHAPE_MULTIPOLES>
496.65
10.2
4.3
1.76
3.03
1.86
-0.24
-14.96
-1.05
-1.81
1.58
-0.01
1.44
-0.87

> <PUBCHEM_SHAPE_SELFOVERLAP>
1077.069

> <PUBCHEM_SHAPE_VOLUME>
272.9

> <PUBCHEM_COORDINATE_TYPE>
2
5
10

$$$$
