6112334
  -OEChem-01171812203D

 33 35  0     0  0  0  0  0  0999 V2000
   -0.1691    2.4496   -0.9540 O   0  0  0  0  0  0  0  0  0  0  0  0
    3.7774    1.4043    1.8912 O   0  0  0  0  0  0  0  0  0  0  0  0
    0.8409   -0.9041   -1.0770 O   0  0  0  0  0  0  0  0  0  0  0  0
    5.4019   -1.5016   -1.2906 O   0  0  0  0  0  0  0  0  0  0  0  0
   -2.1281    1.2795   -0.7770 N   0  0  0  0  0  0  0  0  0  0  0  0
    4.5717   -0.0539    0.2954 N   0  0  0  0  0  0  0  0  0  0  0  0
    3.1240   -1.1920   -1.1678 N   0  0  0  0  0  0  0  0  0  0  0  0
   -2.8962    0.2572   -0.1979 C   0  0  0  0  0  0  0  0  0  0  0  0
   -2.3264   -0.5510    0.7885 C   0  0  0  0  0  0  0  0  0  0  0  0
   -0.2096    0.6713    0.6341 C   0  0  0  0  0  0  0  0  0  0  0  0
   -4.2153    0.0580   -0.6096 C   0  0  0  0  0  0  0  0  0  0  0  0
   -0.9425   -0.3077    1.1899 C   0  0  0  0  0  0  0  0  0  0  0  0
   -0.8173    1.5450   -0.4286 C   0  0  0  0  0  0  0  0  0  0  0  0
   -3.0902   -1.5697    1.3666 C   0  0  0  0  0  0  0  0  0  0  0  0
    1.1548    0.9020    1.0421 C   0  0  0  0  0  0  0  0  0  0  0  0
   -4.9710   -0.9597   -0.0288 C   0  0  0  0  0  0  0  0  0  0  0  0
    2.2008    0.3102    0.4676 C   0  0  0  0  0  0  0  0  0  0  0  0
   -4.4099   -1.7719    0.9572 C   0  0  0  0  0  0  0  0  0  0  0  0
   -4.8555    0.9053   -1.6611 C   0  0  0  0  0  0  0  0  0  0  0  0
    3.5645    0.6222    0.9695 C   0  0  0  0  0  0  0  0  0  0  0  0
    1.9610   -0.6382   -0.6512 C   0  0  0  0  0  0  0  0  0  0  0  0
    4.4344   -0.9548   -0.7585 C   0  0  0  0  0  0  0  0  0  0  0  0
   -0.5262   -0.9510    1.9604 H   0  0  0  0  0  0  0  0  0  0  0  0
   -2.5507    1.8619   -1.4930 H   0  0  0  0  0  0  0  0  0  0  0  0
   -2.6704   -2.2127    2.1361 H   0  0  0  0  0  0  0  0  0  0  0  0
    1.2784    1.6257    1.8436 H   0  0  0  0  0  0  0  0  0  0  0  0
   -6.0000   -1.1356   -0.3313 H   0  0  0  0  0  0  0  0  0  0  0  0
   -5.0010   -2.5639    1.4080 H   0  0  0  0  0  0  0  0  0  0  0  0
   -4.8768    1.9543   -1.3476 H   0  0  0  0  0  0  0  0  0  0  0  0
   -4.3116    0.8179   -2.6075 H   0  0  0  0  0  0  0  0  0  0  0  0
   -5.8911    0.6045   -1.8543 H   0  0  0  0  0  0  0  0  0  0  0  0
    5.5217    0.1303    0.6061 H   0  0  0  0  0  0  0  0  0  0  0  0
    3.0064   -1.8470   -1.9360 H   0  0  0  0  0  0  0  0  0  0  0  0
  1 13  2  0  0  0  0
  2 20  2  0  0  0  0
  3 21  2  0  0  0  0
  4 22  2  0  0  0  0
  5  8  1  0  0  0  0
  5 13  1  0  0  0  0
  5 24  1  0  0  0  0
  6 20  1  0  0  0  0
  6 22  1  0  0  0  0
  6 32  1  0  0  0  0
  7 21  1  0  0  0  0
  7 22  1  0  0  0  0
  7 33  1  0  0  0  0
  8  9  1  0  0  0  0
  8 11  2  0  0  0  0
  9 12  1  0  0  0  0
  9 14  2  0  0  0  0
 10 12  2  0  0  0  0
 10 13  1  0  0  0  0
 10 15  1  0  0  0  0
 11 16  1  0  0  0  0
 11 19  1  0  0  0  0
 12 23  1  0  0  0  0
 14 18  1  0  0  0  0
 14 25  1  0  0  0  0
 15 17  2  0  0  0  0
 15 26  1  0  0  0  0
 16 18  2  0  0  0  0
 16 27  1  0  0  0  0
 17 20  1  0  0  0  0
 17 21  1  0  0  0  0
 18 28  1  0  0  0  0
 19 29  1  0  0  0  0
 19 30  1  0  0  0  0
 19 31  1  0  0  0  0
M  END
> <PUBCHEM_COMPOUND_CID>
6112334

> <PUBCHEM_CONFORMER_RMSD>
0.6

> <PUBCHEM_CONFORMER_DIVERSEORDER>
1
2

> <PUBCHEM_MMFF94_PARTIAL_CHARGES>
30
1 -0.57
10 0.01
11 -0.14
12 -0.18
13 0.62
14 -0.15
15 -0.15
16 -0.15
17 0.03
18 -0.15
19 0.14
2 -0.57
20 0.62
21 0.62
22 0.69
23 0.15
24 0.37
25 0.15
26 0.15
27 0.15
28 0.15
3 -0.57
32 0.37
33 0.37
4 -0.57
5 -0.55
6 -0.49
7 -0.49
8 0.12
9 0.03

> <PUBCHEM_EFFECTIVE_ROTOR_COUNT>
1.4

> <PUBCHEM_PHARMACOPHORE_FEATURES>
11
1 1 acceptor
1 17 anion
1 2 acceptor
1 3 acceptor
1 4 acceptor
1 5 donor
1 6 donor
1 7 donor
6 5 8 9 10 12 13 rings
6 6 7 17 20 21 22 rings
6 8 9 11 14 16 18 rings

> <PUBCHEM_HEAVY_ATOM_COUNT>
22

> <PUBCHEM_ATOM_DEF_STEREO_COUNT>
0

> <PUBCHEM_ATOM_UDEF_STEREO_COUNT>
0

> <PUBCHEM_BOND_DEF_STEREO_COUNT>
0

> <PUBCHEM_BOND_UDEF_STEREO_COUNT>
0

> <PUBCHEM_ISOTOPIC_ATOM_COUNT>
0

> <PUBCHEM_COMPONENT_COUNT>
1

> <PUBCHEM_CACTVS_TAUTO_COUNT>
15

> <PUBCHEM_CONFORMER_ID>
005D444E00000001

> <PUBCHEM_MMFF94_ENERGY>
69.0215

> <PUBCHEM_FEATURE_SELFOVERLAP>
55.887

> <PUBCHEM_SHAPE_FINGERPRINT>
10 15 18341317995246689136
10366900 7 18339648845678841554
11089746 13 15936415559227092078
11796584 16 18114179688441829866
12236239 1 15339116857684109784
12616971 3 16415485960434366611
12633257 1 16774083972498799446
12788726 201 16733261227399695533
13544592 145 18412263939087485147
13544653 18 18131636690062984641
14294032 229 17241315865062683261
14386348 63 18411138043475648579
14790565 3 17682387054294065501
14849402 71 14907599243826479858
15375358 24 18410000053372939889
15880784 105 17560796662918376607
15961568 22 17750233776363845620
16752209 62 17530683225213080971
17357779 13 18412821378592766269
17870717 6 18259990357801711847
19141452 34 18272093855052402691
19862831 5 16732990829227523234
200 152 17418091005625310387
20374829 77 18334857208053372411
20511986 3 16009297808028041502
20645477 70 17989200443342010030
20871999 31 17748831817179882667
21033650 10 17096376033404545877
21065201 7 18114176428070456994
23175994 123 18343302600296203513
23402539 116 17894341177029963943
23557571 272 18334574629154190945
23559900 14 18259984843079404486
3004659 81 17023453158581894194
3286 77 17917999356335868472
34797466 226 18115034107496498188
474 4 15911331390723415592
5104073 3 17774724148031018658
5283173 99 18040149600281174445
9709674 26 17825672415921864465

> <PUBCHEM_SHAPE_MULTIPOLES>
414.33
11.03
1.76
1.5
2.42
0.35
0.06
-3.5
-2.64
-1.23
-0.12
1.08
-0.04
2.3

> <PUBCHEM_SHAPE_SELFOVERLAP>
918.659

> <PUBCHEM_SHAPE_VOLUME>
217.8

> <PUBCHEM_COORDINATE_TYPE>
2
5
10

$$$$
