96717
  -OEChem-01171812253D

 28 30  0     0  0  0  0  0  0999 V2000
   -2.6989   -2.4732   -0.2149 O   0  0  0  0  0  0  0  0  0  0  0  0
   -4.7832    1.6423    0.2354 O   0  0  0  0  0  0  0  0  0  0  0  0
    0.7879    0.1416   -0.0481 N   0  0  0  0  0  0  0  0  0  0  0  0
    0.0033    1.2609    0.0147 N   0  0  0  0  0  0  0  0  0  0  0  0
   -3.7339   -0.4084    0.0070 N   0  0  0  0  0  0  0  0  0  0  0  0
    0.2677   -2.3071   -0.3017 N   0  0  0  0  0  0  0  0  0  0  0  0
   -1.3451   -0.5270   -0.0608 C   0  0  0  0  0  0  0  0  0  0  0  0
   -1.3207    0.9249    0.0414 C   0  0  0  0  0  0  0  0  0  0  0  0
   -0.0680   -0.9951   -0.1280 C   0  0  0  0  0  0  0  0  0  0  0  0
    2.2051    0.1841   -0.0003 C   0  0  0  0  0  0  0  0  0  0  0  0
   -2.6278   -1.2547   -0.1021 C   0  0  0  0  0  0  0  0  0  0  0  0
   -2.4279    1.6592    0.1421 C   0  0  0  0  0  0  0  0  0  0  0  0
   -3.7516    0.9817    0.1350 C   0  0  0  0  0  0  0  0  0  0  0  0
    2.9364   -0.8668    0.5801 C   0  0  0  0  0  0  0  0  0  0  0  0
    2.9099    1.2774   -0.5328 C   0  0  0  0  0  0  0  0  0  0  0  0
    4.3299   -0.8256    0.6265 C   0  0  0  0  0  0  0  0  0  0  0  0
    4.3034    1.3187   -0.4865 C   0  0  0  0  0  0  0  0  0  0  0  0
    5.0134    0.2671    0.0931 C   0  0  0  0  0  0  0  0  0  0  0  0
    0.3473    2.1997    0.1601 H   0  0  0  0  0  0  0  0  0  0  0  0
   -2.4018    2.7393    0.2237 H   0  0  0  0  0  0  0  0  0  0  0  0
   -4.6427   -0.8636   -0.0066 H   0  0  0  0  0  0  0  0  0  0  0  0
    2.4415   -1.7134    1.0464 H   0  0  0  0  0  0  0  0  0  0  0  0
    2.3824    2.1057   -0.9996 H   0  0  0  0  0  0  0  0  0  0  0  0
    1.2210   -2.5576   -0.5262 H   0  0  0  0  0  0  0  0  0  0  0  0
   -0.4616   -3.0051   -0.3807 H   0  0  0  0  0  0  0  0  0  0  0  0
    4.8827   -1.6393    1.0869 H   0  0  0  0  0  0  0  0  0  0  0  0
    4.8361    2.1685   -0.9033 H   0  0  0  0  0  0  0  0  0  0  0  0
    6.0983    0.3000    0.1309 H   0  0  0  0  0  0  0  0  0  0  0  0
  1 11  2  0  0  0  0
  2 13  2  0  0  0  0
  3  4  1  0  0  0  0
  3  9  1  0  0  0  0
  3 10  1  0  0  0  0
  4  8  1  0  0  0  0
  4 19  1  0  0  0  0
  5 11  1  0  0  0  0
  5 13  1  0  0  0  0
  5 21  1  0  0  0  0
  6  9  1  0  0  0  0
  6 24  1  0  0  0  0
  6 25  1  0  0  0  0
  7  8  1  0  0  0  0
  7  9  2  0  0  0  0
  7 11  1  0  0  0  0
  8 12  2  0  0  0  0
 10 14  2  0  0  0  0
 10 15  1  0  0  0  0
 12 13  1  0  0  0  0
 12 20  1  0  0  0  0
 14 16  1  0  0  0  0
 14 22  1  0  0  0  0
 15 17  2  0  0  0  0
 15 23  1  0  0  0  0
 16 18  2  0  0  0  0
 16 26  1  0  0  0  0
 17 18  1  0  0  0  0
 17 27  1  0  0  0  0
 18 28  1  0  0  0  0
M  END
> <PUBCHEM_COMPOUND_CID>
96717

> <PUBCHEM_CONFORMER_RMSD>
0.6

> <PUBCHEM_CONFORMER_DIVERSEORDER>
1

> <PUBCHEM_MMFF94_PARTIAL_CHARGES>
28
1 -0.57
10 0.1
11 0.62
12 -0.14
13 0.62
14 -0.15
15 -0.15
16 -0.15
17 -0.15
18 -0.15
19 0.4
2 -0.57
20 0.15
21 0.37
22 0.15
23 0.15
24 0.4
25 0.4
26 0.15
27 0.15
28 0.15
3 -0.2
4 -0.5
5 -0.49
6 -0.9
7 0.01
8 0.1
9 0.2

> <PUBCHEM_EFFECTIVE_ROTOR_COUNT>
1

> <PUBCHEM_PHARMACOPHORE_FEATURES>
9
1 1 acceptor
1 2 acceptor
1 4 donor
1 5 donor
1 6 cation
1 6 donor
5 3 4 7 8 9 rings
6 10 14 15 16 17 18 rings
6 5 7 8 11 12 13 rings

> <PUBCHEM_HEAVY_ATOM_COUNT>
18

> <PUBCHEM_ATOM_DEF_STEREO_COUNT>
0

> <PUBCHEM_ATOM_UDEF_STEREO_COUNT>
0

> <PUBCHEM_BOND_DEF_STEREO_COUNT>
0

> <PUBCHEM_BOND_UDEF_STEREO_COUNT>
0

> <PUBCHEM_ISOTOPIC_ATOM_COUNT>
0

> <PUBCHEM_COMPONENT_COUNT>
1

> <PUBCHEM_CACTVS_TAUTO_COUNT>
14

> <PUBCHEM_CONFORMER_ID>
000179CD00000001

> <PUBCHEM_MMFF94_ENERGY>
80.5533

> <PUBCHEM_FEATURE_SELFOVERLAP>
45.772

> <PUBCHEM_SHAPE_FINGERPRINT>
10062212 137 18410005559231083807
10411042 1 17835801176956534847
10616163 171 18411139177310572198
11132069 177 18412262822137395216
12107183 9 17831011326231802144
12236239 1 18187083962430606864
12251169 10 18334575703022342640
12390115 104 17914914053710398097
12403814 3 17967812726342834053
13140716 1 18341054128902824521
13167823 11 18333731325463471138
13380535 76 18341331094111048607
13675066 3 17676211247070719465
13760787 19 18335422374399660018
15196674 1 18409730672633686090
15442244 35 18335698287636432514
15536298 74 18271527477329846958
16752209 62 18271231828613003750
16945 1 18341620291507308281
17492 89 18408604773065486666
17804303 29 18342738545955808169
18186145 218 17385436635704258442
19050596 39 18333447651568941496
19422 9 18261391182775619178
200 152 18412258467051106614
20279233 1 16487255469693831292
20510252 161 18201443601015576312
21267235 1 18336836367474726394
23402539 116 18272644653957469612
23402655 69 18408041831980658796
23463225 33 18335419045705086070
23557571 272 18130798896425168838
23559900 14 18201445744779224550
300161 21 18409160017894323952
335352 9 18338516331358579838
3545911 37 18411983538058333092
4214541 1 18410011043962206636
474 4 17386855100578914484
5104073 3 18335698377772769744
573450 72 18408876356673557010
58051976 100 18335422387231853596
633830 44 17313106358440182576
69090 78 18409727352819171080
7364860 26 18055636114089355550
77779 3 18409167731702761528
9709674 26 18410299142185130886

> <PUBCHEM_SHAPE_MULTIPOLES>
338.77
9.51
2.04
0.68
3.31
0.66
-0.01
-2.44
-0.63
-1.29
0.15
0.27
0
-0.76

> <PUBCHEM_SHAPE_SELFOVERLAP>
749.504

> <PUBCHEM_SHAPE_VOLUME>
180.5

> <PUBCHEM_COORDINATE_TYPE>
2
5
10

$$$$
