5401878
  -OEChem-01171812193D

 36 38  0     0  0  0  0  0  0999 V2000
    1.0106    0.3098   -1.0652 S   0  0  0  0  0  0  0  0  0  0  0  0
    2.0529    0.0879    2.5293 O   0  0  0  0  0  0  0  0  0  0  0  0
   -2.4120    2.9174   -0.7822 O   0  0  0  0  0  0  0  0  0  0  0  0
   -1.4174    1.1342    0.3801 N   0  0  0  0  0  0  0  0  0  0  0  0
   -0.3697    0.8244    1.2201 N   0  0  0  0  0  0  0  0  0  0  0  0
    3.0714   -0.3053    0.4251 C   0  0  0  0  0  0  0  0  0  0  0  0
    2.6825   -0.2220   -0.9008 C   0  0  0  0  0  0  0  0  0  0  0  0
   -2.3604    0.1316   -0.0374 C   0  0  0  0  0  0  0  0  0  0  0  0
    0.7089    0.4594    0.6312 C   0  0  0  0  0  0  0  0  0  0  0  0
    1.9793    0.0732    1.3155 C   0  0  0  0  0  0  0  0  0  0  0  0
   -2.6221   -0.9161    0.8119 C   0  0  0  0  0  0  0  0  0  0  0  0
   -3.5368   -1.8879    0.4060 C   0  0  0  0  0  0  0  0  0  0  0  0
    4.3449   -0.7022    0.8010 C   0  0  0  0  0  0  0  0  0  0  0  0
   -2.9569    0.2674   -1.2676 C   0  0  0  0  0  0  0  0  0  0  0  0
    3.5775   -0.5406   -1.9102 C   0  0  0  0  0  0  0  0  0  0  0  0
   -4.1615   -1.7819   -0.8368 C   0  0  0  0  0  0  0  0  0  0  0  0
   -3.8716   -0.7044   -1.6735 C   0  0  0  0  0  0  0  0  0  0  0  0
    5.2504   -1.0243   -0.2100 C   0  0  0  0  0  0  0  0  0  0  0  0
    4.8692   -0.9440   -1.5580 C   0  0  0  0  0  0  0  0  0  0  0  0
   -1.5298    2.4633   -0.0523 C   0  0  0  0  0  0  0  0  0  0  0  0
   -3.8475   -3.0400    1.3009 C   0  0  0  0  0  0  0  0  0  0  0  0
   -0.4620    3.4003    0.4729 C   0  0  0  0  0  0  0  0  0  0  0  0
   -2.1464   -0.9986    1.7849 H   0  0  0  0  0  0  0  0  0  0  0  0
    4.6384   -0.7638    1.8431 H   0  0  0  0  0  0  0  0  0  0  0  0
   -2.7138    1.0420   -1.9845 H   0  0  0  0  0  0  0  0  0  0  0  0
    3.2932   -0.4820   -2.9561 H   0  0  0  0  0  0  0  0  0  0  0  0
   -4.8745   -2.5334   -1.1654 H   0  0  0  0  0  0  0  0  0  0  0  0
   -4.3460   -0.6314   -2.6479 H   0  0  0  0  0  0  0  0  0  0  0  0
    6.2580   -1.3396    0.0464 H   0  0  0  0  0  0  0  0  0  0  0  0
    5.5854   -1.1979   -2.3349 H   0  0  0  0  0  0  0  0  0  0  0  0
   -4.6543   -2.7730    1.9905 H   0  0  0  0  0  0  0  0  0  0  0  0
   -4.1565   -3.9186    0.7244 H   0  0  0  0  0  0  0  0  0  0  0  0
   -2.9679   -3.3331    1.8841 H   0  0  0  0  0  0  0  0  0  0  0  0
   -0.7491    4.4315    0.2422 H   0  0  0  0  0  0  0  0  0  0  0  0
    0.4971    3.2032   -0.0102 H   0  0  0  0  0  0  0  0  0  0  0  0
   -0.3669    3.3214    1.5592 H   0  0  0  0  0  0  0  0  0  0  0  0
  1  7  1  0  0  0  0
  1  9  1  0  0  0  0
  2 10  2  0  0  0  0
  3 20  2  0  0  0  0
  4  5  1  0  0  0  0
  4  8  1  0  0  0  0
  4 20  1  0  0  0  0
  5  9  2  0  0  0  0
  6  7  1  0  0  0  0
  6 10  1  0  0  0  0
  6 13  2  0  0  0  0
  7 15  2  0  0  0  0
  8 11  1  0  0  0  0
  8 14  2  0  0  0  0
  9 10  1  0  0  0  0
 11 12  2  0  0  0  0
 11 23  1  0  0  0  0
 12 16  1  0  0  0  0
 12 21  1  0  0  0  0
 13 18  1  0  0  0  0
 13 24  1  0  0  0  0
 14 17  1  0  0  0  0
 14 25  1  0  0  0  0
 15 19  1  0  0  0  0
 15 26  1  0  0  0  0
 16 17  2  0  0  0  0
 16 27  1  0  0  0  0
 17 28  1  0  0  0  0
 18 19  2  0  0  0  0
 18 29  1  0  0  0  0
 19 30  1  0  0  0  0
 20 22  1  0  0  0  0
 21 31  1  0  0  0  0
 21 32  1  0  0  0  0
 21 33  1  0  0  0  0
 22 34  1  0  0  0  0
 22 35  1  0  0  0  0
 22 36  1  0  0  0  0
M  END
> <PUBCHEM_COMPOUND_CID>
5401878

> <PUBCHEM_CONFORMER_RMSD>
0.6

> <PUBCHEM_CONFORMER_DIVERSEORDER>
4
14
15
9
21
24
7
16
11
10
5
8
22
23
17
13
19
2
18
12
20
1
3
6

> <PUBCHEM_MMFF94_PARTIAL_CHARGES>
30
1 -0.24
10 0.48
11 -0.15
12 -0.14
13 -0.15
14 -0.15
15 -0.15
16 -0.15
17 -0.15
18 -0.15
19 -0.15
2 -0.57
20 0.57
21 0.14
22 0.06
23 0.15
24 0.15
25 0.15
26 0.15
27 0.15
28 0.15
29 0.15
3 -0.57
30 0.15
4 -0.11
5 -0.51
6 0.09
7 0.1
8 0.12
9 0.59

> <PUBCHEM_EFFECTIVE_ROTOR_COUNT>
3.2

> <PUBCHEM_PHARMACOPHORE_FEATURES>
6
1 2 acceptor
1 3 acceptor
1 5 acceptor
5 1 6 7 9 10 rings
6 6 7 13 15 18 19 rings
6 8 11 12 14 16 17 rings

> <PUBCHEM_HEAVY_ATOM_COUNT>
22

> <PUBCHEM_ATOM_DEF_STEREO_COUNT>
0

> <PUBCHEM_ATOM_UDEF_STEREO_COUNT>
0

> <PUBCHEM_BOND_DEF_STEREO_COUNT>
1

> <PUBCHEM_BOND_UDEF_STEREO_COUNT>
0

> <PUBCHEM_ISOTOPIC_ATOM_COUNT>
0

> <PUBCHEM_COMPONENT_COUNT>
1

> <PUBCHEM_CACTVS_TAUTO_COUNT>
1

> <PUBCHEM_CONFORMER_ID>
00526D1600000004

> <PUBCHEM_MMFF94_ENERGY>
86.6807

> <PUBCHEM_FEATURE_SELFOVERLAP>
30.507

> <PUBCHEM_SHAPE_FINGERPRINT>
10928967 22 17418104191328605558
11370993 144 16486426373138111654
11552529 35 14619927452906889622
11796584 16 17982736269234681502
12363563 72 18341331184094196351
12553582 1 18335136510077247099
12633257 1 15697731384103685927
12707595 3 18265048205662665419
12714826 92 18202006490628484560
12788726 201 18263635178834291761
12892183 10 13326583972695591903
13103583 49 15410629089438647438
13544653 18 17846779645565482785
13583140 156 17916009171823357062
14251757 5 18261109647880454221
14251764 30 17606420971249633587
15475509 8 18342167848825682701
15842332 3 17459460049042611912
16752209 62 18261661602295539451
17349148 13 17095242514885083672
17357779 13 18131056147981515421
1813 80 18130235955251618445
193927 3 18271816751687546782
19862831 5 17458061568899028482
200 152 17313104146505644862
20693207 138 17897152736269599655
20739085 24 15123522410613546714
20775438 99 16964915494258582483
21591331 117 17897186786833821403
22393880 68 17095517430982847454
23175994 123 18339641243692047479
23402539 116 18334017159916305244
23557571 272 18271796896175323176
23559900 14 18335972147193333944
238078 22 18114186375578730723
314173 85 18272092712152751891
4028521 119 12829202291179298239
4921388 177 18340493244306387412
5104073 3 16127815129087224442
5352402 22 16845298249940240142
59027123 10 16226041180631478974
6669772 16 17476365375575894068
7970288 3 18338804532086368375
81228 2 18342170017362459777

> <PUBCHEM_SHAPE_MULTIPOLES>
434.9
9.95
2.77
1.8
5.78
1.94
0.09
-7.63
-2.53
-3.68
0.48
0.64
-0.4
1.08

> <PUBCHEM_SHAPE_SELFOVERLAP>
939.874

> <PUBCHEM_SHAPE_VOLUME>
240.8

> <PUBCHEM_COORDINATE_TYPE>
2
5
10

$$$$
