276685
  -OEChem-01171812253D

 31 32  0     0  0  0  0  0  0999 V2000
   -0.4443    3.2078    0.1344 Cl  0  0  0  0  0  0  0  0  0  0  0  0
   -0.3373   -1.8328    0.6155 O   0  0  0  0  0  0  0  0  0  0  0  0
    2.4071    2.6691   -0.2981 O   0  0  0  0  0  0  0  0  0  0  0  0
   -2.3659   -0.8221   -1.1726 O   0  0  0  0  0  0  0  0  0  0  0  0
   -1.7272    0.5206    0.6198 N   0  0  0  0  0  0  0  0  0  0  0  0
    1.7458   -0.8425    0.1613 C   0  0  0  0  0  0  0  0  0  0  0  0
   -0.3790    0.5257    0.3888 C   0  0  0  0  0  0  0  0  0  0  0  0
    2.4607    0.3316   -0.0772 C   0  0  0  0  0  0  0  0  0  0  0  0
   -4.0585    0.0297    0.3314 C   0  0  0  0  0  0  0  0  0  0  0  0
    0.2915   -0.8013    0.4058 C   0  0  0  0  0  0  0  0  0  0  0  0
   -5.0863   -0.7027   -0.5264 C   0  0  0  0  0  0  0  0  0  0  0  0
    0.3123    1.6497    0.1593 C   0  0  0  0  0  0  0  0  0  0  0  0
    1.7767    1.6389   -0.0895 C   0  0  0  0  0  0  0  0  0  0  0  0
   -2.6389   -0.1551   -0.1778 C   0  0  0  0  0  0  0  0  0  0  0  0
    2.4107   -2.0751    0.1696 C   0  0  0  0  0  0  0  0  0  0  0  0
    3.8410    0.2737   -0.3074 C   0  0  0  0  0  0  0  0  0  0  0  0
   -6.4938   -0.5306    0.0208 C   0  0  0  0  0  0  0  0  0  0  0  0
    3.7858   -2.1284   -0.0598 C   0  0  0  0  0  0  0  0  0  0  0  0
    4.4997   -0.9561   -0.2979 C   0  0  0  0  0  0  0  0  0  0  0  0
   -4.1007   -0.3379    1.3637 H   0  0  0  0  0  0  0  0  0  0  0  0
   -4.2832    1.1029    0.3458 H   0  0  0  0  0  0  0  0  0  0  0  0
   -5.0487   -0.3278   -1.5561 H   0  0  0  0  0  0  0  0  0  0  0  0
   -4.8447   -1.7715   -0.5693 H   0  0  0  0  0  0  0  0  0  0  0  0
   -2.0952    1.3238    1.1255 H   0  0  0  0  0  0  0  0  0  0  0  0
    1.8768   -3.0038    0.3528 H   0  0  0  0  0  0  0  0  0  0  0  0
    4.4206    1.1735   -0.4956 H   0  0  0  0  0  0  0  0  0  0  0  0
   -6.5715   -0.9308    1.0367 H   0  0  0  0  0  0  0  0  0  0  0  0
   -7.2133   -1.0624   -0.6096 H   0  0  0  0  0  0  0  0  0  0  0  0
   -6.7788    0.5261    0.0445 H   0  0  0  0  0  0  0  0  0  0  0  0
    4.3002   -3.0851   -0.0528 H   0  0  0  0  0  0  0  0  0  0  0  0
    5.5702   -0.9994   -0.4765 H   0  0  0  0  0  0  0  0  0  0  0  0
  1 12  1  0  0  0  0
  2 10  2  0  0  0  0
  3 13  2  0  0  0  0
  4 14  2  0  0  0  0
  5  7  1  0  0  0  0
  5 14  1  0  0  0  0
  5 24  1  0  0  0  0
  6  8  1  0  0  0  0
  6 10  1  0  0  0  0
  6 15  2  0  0  0  0
  7 10  1  0  0  0  0
  7 12  2  0  0  0  0
  8 13  1  0  0  0  0
  8 16  2  0  0  0  0
  9 11  1  0  0  0  0
  9 14  1  0  0  0  0
  9 20  1  0  0  0  0
  9 21  1  0  0  0  0
 11 17  1  0  0  0  0
 11 22  1  0  0  0  0
 11 23  1  0  0  0  0
 12 13  1  0  0  0  0
 15 18  1  0  0  0  0
 15 25  1  0  0  0  0
 16 19  1  0  0  0  0
 16 26  1  0  0  0  0
 17 27  1  0  0  0  0
 17 28  1  0  0  0  0
 17 29  1  0  0  0  0
 18 19  2  0  0  0  0
 18 30  1  0  0  0  0
 19 31  1  0  0  0  0
M  END
> <PUBCHEM_COMPOUND_CID>
276685

> <PUBCHEM_CONFORMER_RMSD>
0.6

> <PUBCHEM_CONFORMER_DIVERSEORDER>
1
9
13
15
14
7
6
8
4
12
2
10
3
5
11

> <PUBCHEM_MMFF94_PARTIAL_CHARGES>
22
1 -0.14
10 0.47
12 0.15
13 0.47
14 0.57
15 -0.15
16 -0.15
18 -0.15
19 -0.15
2 -0.57
24 0.37
25 0.15
26 0.15
3 -0.57
30 0.15
31 0.15
4 -0.57
5 -0.54
6 0.09
7 0.12
8 0.09
9 0.06

> <PUBCHEM_EFFECTIVE_ROTOR_COUNT>
4

> <PUBCHEM_PHARMACOPHORE_FEATURES>
7
1 17 hydrophobe
1 2 acceptor
1 3 acceptor
1 4 acceptor
1 5 donor
6 6 7 8 10 12 13 rings
6 6 8 15 16 18 19 rings

> <PUBCHEM_HEAVY_ATOM_COUNT>
19

> <PUBCHEM_ATOM_DEF_STEREO_COUNT>
0

> <PUBCHEM_ATOM_UDEF_STEREO_COUNT>
0

> <PUBCHEM_BOND_DEF_STEREO_COUNT>
0

> <PUBCHEM_BOND_UDEF_STEREO_COUNT>
0

> <PUBCHEM_ISOTOPIC_ATOM_COUNT>
0

> <PUBCHEM_COMPONENT_COUNT>
1

> <PUBCHEM_CACTVS_TAUTO_COUNT>
4

> <PUBCHEM_CONFORMER_ID>
000438CD00000001

> <PUBCHEM_MMFF94_ENERGY>
55.8676

> <PUBCHEM_FEATURE_SELFOVERLAP>
35.544

> <PUBCHEM_SHAPE_FINGERPRINT>
10411042 1 18265895753224204930
10967382 1 18337677507298027016
11471102 20 18408323306392866914
11806522 49 18410294679381151368
12236239 1 17989209248525938443
12403259 327 14979944865890209351
12553582 1 18341599396048639654
13140716 1 18192708063180327880
13862211 1 18336827498763035642
14576447 43 18341891913391451999
15042514 8 17762054337910022730
15196674 1 18338517434817183776
15475509 35 14620249506835002156
15477762 27 18411419488514175710
16945 1 18336558165890576520
17492 89 18050847719634206170
18186145 218 18187354463407264639
200 152 18343581815555451307
20554085 129 17771900799961685024
20600515 1 15123509246454603283
20612939 158 18408606989368045589
20645477 70 18335982047145347931
21267235 1 18341057324268912590
21296965 67 18339922615088454376
21478907 32 18266458694012223987
21641784 216 17969239866265263012
221357 26 18335129883280488317
221490 88 18263650739232039731
22182313 1 18190998206139841949
22289505 5 18261946375939015549
2334 1 17905054999352778864
23402539 116 18339638919972425822
23419403 2 17772439375606065936
23559900 14 18337952410410201136
2748010 2 17976552916223438088
2871803 45 18333731286476455970
29717793 49 18060419110625052189
3411729 13 15696856236992541795
34934 24 18340483491084270682
42630746 31 18341046414993705168
46194498 28 17676487293551699197
465052 167 18272093798822124327
5281201 14 18113894957932162749
7164475 11 18265899047247544428
7364860 26 18342174514166539456
9981440 41 17190364826031837193

> <PUBCHEM_SHAPE_MULTIPOLES>
370.29
10.04
2.66
0.75
14.44
1.91
0.04
-5.14
1.34
-1.94
-0.06
0.2
-0.07
-0.35

> <PUBCHEM_SHAPE_SELFOVERLAP>
785.742

> <PUBCHEM_SHAPE_VOLUME>
207.1

> <PUBCHEM_COORDINATE_TYPE>
2
5
10

$$$$
