72810
  -OEChem-01171812263D

 22 24  0     0  0  0  0  0  0999 V2000
    1.3319   -2.8260    0.0023 O   0  0  0  0  0  0  0  0  0  0  0  0
   -1.3320   -2.8259   -0.0010 O   0  0  0  0  0  0  0  0  0  0  0  0
    1.3435    1.9400   -0.0011 N   0  0  0  0  0  0  0  0  0  0  0  0
   -1.3434    1.9400    0.0011 N   0  0  0  0  0  0  0  0  0  0  0  0
    0.7322    0.7287   -0.0002 C   0  0  0  0  0  0  0  0  0  0  0  0
   -0.7321    0.7287   -0.0004 C   0  0  0  0  0  0  0  0  0  0  0  0
    1.4600   -0.4602    0.0003 C   0  0  0  0  0  0  0  0  0  0  0  0
   -1.4600   -0.4601   -0.0011 C   0  0  0  0  0  0  0  0  0  0  0  0
    0.7527   -1.7516    0.0002 C   0  0  0  0  0  0  0  0  0  0  0  0
   -0.7527   -1.7515   -0.0011 C   0  0  0  0  0  0  0  0  0  0  0  0
    2.8533   -0.4117    0.0006 C   0  0  0  0  0  0  0  0  0  0  0  0
   -2.8533   -0.4117   -0.0010 C   0  0  0  0  0  0  0  0  0  0  0  0
    3.4882    0.8228   -0.0001 C   0  0  0  0  0  0  0  0  0  0  0  0
   -3.4883    0.8229    0.0006 C   0  0  0  0  0  0  0  0  0  0  0  0
    2.6965    1.9578   -0.0008 C   0  0  0  0  0  0  0  0  0  0  0  0
   -2.6965    1.9578    0.0016 C   0  0  0  0  0  0  0  0  0  0  0  0
    3.4513   -1.3182    0.0010 H   0  0  0  0  0  0  0  0  0  0  0  0
   -3.4514   -1.3181   -0.0014 H   0  0  0  0  0  0  0  0  0  0  0  0
    4.5697    0.8950    0.0000 H   0  0  0  0  0  0  0  0  0  0  0  0
   -4.5698    0.8951    0.0010 H   0  0  0  0  0  0  0  0  0  0  0  0
    3.1435    2.9465   -0.0014 H   0  0  0  0  0  0  0  0  0  0  0  0
   -3.1434    2.9465    0.0028 H   0  0  0  0  0  0  0  0  0  0  0  0
  1  9  2  0  0  0  0
  2 10  2  0  0  0  0
  3  5  1  0  0  0  0
  3 15  2  0  0  0  0
  4  6  1  0  0  0  0
  4 16  2  0  0  0  0
  5  6  1  0  0  0  0
  5  7  2  0  0  0  0
  6  8  2  0  0  0  0
  7  9  1  0  0  0  0
  7 11  1  0  0  0  0
  8 10  1  0  0  0  0
  8 12  1  0  0  0  0
  9 10  1  0  0  0  0
 11 13  2  0  0  0  0
 11 17  1  0  0  0  0
 12 14  2  0  0  0  0
 12 18  1  0  0  0  0
 13 15  1  0  0  0  0
 13 19  1  0  0  0  0
 14 16  1  0  0  0  0
 14 20  1  0  0  0  0
 15 21  1  0  0  0  0
 16 22  1  0  0  0  0
M  END
> <PUBCHEM_COMPOUND_CID>
72810

> <PUBCHEM_CONFORMER_RMSD>
0.4

> <PUBCHEM_CONFORMER_DIVERSEORDER>
1

> <PUBCHEM_MMFF94_PARTIAL_CHARGES>
22
1 -0.57
10 0.48
11 -0.15
12 -0.15
13 -0.15
14 -0.15
15 0.16
16 0.16
17 0.15
18 0.15
19 0.15
2 -0.57
20 0.15
21 0.15
22 0.15
3 -0.62
4 -0.62
5 0.31
6 0.31
7 0.09
8 0.09
9 0.48

> <PUBCHEM_EFFECTIVE_ROTOR_COUNT>
0

> <PUBCHEM_PHARMACOPHORE_FEATURES>
7
1 1 acceptor
1 2 acceptor
1 3 acceptor
1 4 acceptor
6 3 5 7 11 13 15 rings
6 4 6 8 12 14 16 rings
6 5 6 7 8 9 10 rings

> <PUBCHEM_HEAVY_ATOM_COUNT>
16

> <PUBCHEM_ATOM_DEF_STEREO_COUNT>
0

> <PUBCHEM_ATOM_UDEF_STEREO_COUNT>
0

> <PUBCHEM_BOND_DEF_STEREO_COUNT>
0

> <PUBCHEM_BOND_UDEF_STEREO_COUNT>
0

> <PUBCHEM_ISOTOPIC_ATOM_COUNT>
0

> <PUBCHEM_COMPONENT_COUNT>
1

> <PUBCHEM_CACTVS_TAUTO_COUNT>
1

> <PUBCHEM_CONFORMER_ID>
00011C6A00000001

> <PUBCHEM_MMFF94_ENERGY>
42.9447

> <PUBCHEM_FEATURE_SELFOVERLAP>
35.59

> <PUBCHEM_SHAPE_FINGERPRINT>
10608611 8 18410854364912008004
10967382 1 18410856533880587269
11132069 177 18411694426424139416
11471102 20 18338511937501755093
11680986 33 18336837389698100451
13140716 1 18266459995376772042
13380535 76 18410570690911684518
13897977 150 18337670815480497477
15196674 1 18410575088958176133
15309172 13 18411146813872778769
15442244 35 17908142075267798353
15536298 74 18200028417907975726
15775835 57 18410579482709856356
16945 1 18410575088958169638
18186145 218 18271250412973260845
193761 8 18410575088958513927
19591789 44 18410580586516587846
20510252 161 18054232308386480712
20645476 183 17824278191985539702
20645477 70 18193550070117841965
20871998 184 18127136496376445399
21501502 16 18265893747268320580
21524375 3 18409727361203539762
2334 1 17978511171511220806
23402539 116 18270388516369090845
23463225 33 18262795160297668000
23559900 14 18343872104923301108
238 59 17684891805689093365
25 1 18337391547784615676
2748010 2 18122908904010735039
335352 9 18338516318294362366
352729 6 18338801233344613410
528886 8 18411132575876694944
53812653 166 18341610386948889448
54173680 148 18193276527323455490
69090 78 18411978096176468021
7364860 26 18197216953680035382
7832392 63 17548415899959813809
81228 2 17761765569656610091
9709674 26 18270966846647969302

> <PUBCHEM_SHAPE_MULTIPOLES>
307.57
5.07
2.87
0.59
0
1.3
0
-2.27
0
0
0
0
-0.01
0

> <PUBCHEM_SHAPE_SELFOVERLAP>
697.618

> <PUBCHEM_SHAPE_VOLUME>
159.3

> <PUBCHEM_COORDINATE_TYPE>
2
5
10

$$$$
