4426756
  -OEChem-01171812203D

 44 46  0     1  0  0  0  0  0999 V2000
    0.3733    0.5584   -1.2237 O   0  0  0  0  0  0  0  0  0  0  0  0
    0.3702   -2.9633   -1.6060 O   0  5  0  0  0  0  0  0  0  0  0  0
   -1.3460   -4.1395   -0.8810 O   0  0  0  0  0  0  0  0  0  0  0  0
    1.8481   -0.0793    0.5049 N   0  0  0  0  0  0  0  0  0  0  0  0
    1.6640   -0.8884    1.5978 N   0  0  0  0  0  0  0  0  0  0  0  0
   -0.8196   -3.0851   -1.2722 N   0  3  0  0  0  0  0  0  0  0  0  0
   -1.6860   -1.2002    0.0594 C   0  0  1  0  0  0  0  0  0  0  0  0
   -0.3062   -0.9494    0.5301 C   0  0  0  0  0  0  0  0  0  0  0  0
    0.3961   -1.4116    1.5767 C   0  0  0  0  0  0  0  0  0  0  0  0
   -2.5320    0.0734    0.0751 C   0  0  0  0  0  0  0  0  0  0  0  0
   -1.6708   -1.8797   -1.3231 C   0  0  0  0  0  0  0  0  0  0  0  0
    0.6478   -0.0559   -0.2058 C   0  0  0  0  0  0  0  0  0  0  0  0
   -0.0260   -2.3834    2.6203 C   0  0  0  0  0  0  0  0  0  0  0  0
   -3.1983    0.4087    1.2318 C   0  0  0  0  0  0  0  0  0  0  0  0
   -2.5957    0.8371   -1.0682 C   0  0  0  0  0  0  0  0  0  0  0  0
    3.0084    0.5889    0.1701 C   0  0  0  0  0  0  0  0  0  0  0  0
   -3.9700    1.5707    1.2460 C   0  0  0  0  0  0  0  0  0  0  0  0
   -3.3673    1.9990   -1.0540 C   0  0  0  0  0  0  0  0  0  0  0  0
   -4.0544    2.3658    0.1032 C   0  0  0  0  0  0  0  0  0  0  0  0
    3.0638    1.3882   -0.9809 C   0  0  0  0  0  0  0  0  0  0  0  0
    4.1514    0.4782    0.9751 C   0  0  0  0  0  0  0  0  0  0  0  0
   -4.8798    3.6079    0.1183 C   0  0  0  0  0  0  0  0  0  0  0  0
    4.2370    2.0624   -1.3195 C   0  0  0  0  0  0  0  0  0  0  0  0
    5.3246    1.1524    0.6364 C   0  0  0  0  0  0  0  0  0  0  0  0
    5.3674    1.9446   -0.5109 C   0  0  0  0  0  0  0  0  0  0  0  0
   -2.1750   -1.9105    0.7405 H   0  0  0  0  0  0  0  0  0  0  0  0
   -1.2582   -1.2721   -2.1341 H   0  0  0  0  0  0  0  0  0  0  0  0
   -2.6749   -2.2018   -1.6236 H   0  0  0  0  0  0  0  0  0  0  0  0
    2.4268   -1.3751    2.0485 H   0  0  0  0  0  0  0  0  0  0  0  0
    0.6283   -3.2613    2.6092 H   0  0  0  0  0  0  0  0  0  0  0  0
   -1.0518   -2.7331    2.4770 H   0  0  0  0  0  0  0  0  0  0  0  0
    0.0328   -1.9239    3.6124 H   0  0  0  0  0  0  0  0  0  0  0  0
   -3.1352   -0.2038    2.1259 H   0  0  0  0  0  0  0  0  0  0  0  0
   -2.0810    0.5994   -1.9899 H   0  0  0  0  0  0  0  0  0  0  0  0
   -4.4988    1.8470    2.1543 H   0  0  0  0  0  0  0  0  0  0  0  0
   -3.4238    2.6120   -1.9498 H   0  0  0  0  0  0  0  0  0  0  0  0
    2.2386    1.5338   -1.6634 H   0  0  0  0  0  0  0  0  0  0  0  0
    4.1574   -0.1252    1.8786 H   0  0  0  0  0  0  0  0  0  0  0  0
   -5.2923    3.8203   -0.8739 H   0  0  0  0  0  0  0  0  0  0  0  0
   -5.7286    3.5101    0.8036 H   0  0  0  0  0  0  0  0  0  0  0  0
   -4.2701    4.4601    0.4345 H   0  0  0  0  0  0  0  0  0  0  0  0
    4.2722    2.6793   -2.2129 H   0  0  0  0  0  0  0  0  0  0  0  0
    6.2048    1.0618    1.2662 H   0  0  0  0  0  0  0  0  0  0  0  0
    6.2808    2.4697   -0.7745 H   0  0  0  0  0  0  0  0  0  0  0  0
  1 12  2  0  0  0  0
  2  6  1  0  0  0  0
  3  6  2  0  0  0  0
  4  5  1  0  0  0  0
  4 12  1  0  0  0  0
  4 16  1  0  0  0  0
  5  9  1  0  0  0  0
  5 29  1  0  0  0  0
  6 11  1  0  0  0  0
  7  8  1  0  0  0  0
  7 10  1  0  0  0  0
  7 11  1  0  0  0  0
  7 26  1  0  0  0  0
  8  9  2  0  0  0  0
  8 12  1  0  0  0  0
  9 13  1  0  0  0  0
 10 14  2  0  0  0  0
 10 15  1  0  0  0  0
 11 27  1  0  0  0  0
 11 28  1  0  0  0  0
 13 30  1  0  0  0  0
 13 31  1  0  0  0  0
 13 32  1  0  0  0  0
 14 17  1  0  0  0  0
 14 33  1  0  0  0  0
 15 18  2  0  0  0  0
 15 34  1  0  0  0  0
 16 20  2  0  0  0  0
 16 21  1  0  0  0  0
 17 19  2  0  0  0  0
 17 35  1  0  0  0  0
 18 19  1  0  0  0  0
 18 36  1  0  0  0  0
 19 22  1  0  0  0  0
 20 23  1  0  0  0  0
 20 37  1  0  0  0  0
 21 24  2  0  0  0  0
 21 38  1  0  0  0  0
 22 39  1  0  0  0  0
 22 40  1  0  0  0  0
 22 41  1  0  0  0  0
 23 25  2  0  0  0  0
 23 42  1  0  0  0  0
 24 25  1  0  0  0  0
 24 43  1  0  0  0  0
 25 44  1  0  0  0  0
M  CHG  2   2  -1   6   1
M  END
> <PUBCHEM_COMPOUND_CID>
4426756

> <PUBCHEM_CONFORMER_RMSD>
0.8

> <PUBCHEM_CONFORMER_DIVERSEORDER>
1
5
17
11
16
9
7
10
8
18
15
13
14
2
3
4
12
6

> <PUBCHEM_MMFF94_PARTIAL_CHARGES>
35
1 -0.57
10 -0.14
11 0.24
12 0.62
13 0.14
14 -0.15
15 -0.15
16 0.12
17 -0.15
18 -0.15
19 -0.14
2 -0.52
20 -0.15
21 -0.15
22 0.14
23 -0.15
24 -0.15
25 -0.15
29 0.4
3 -0.52
33 0.15
34 0.15
35 0.15
36 0.15
37 0.15
38 0.15
4 -0.16
42 0.15
43 0.15
44 0.15
5 -0.52
6 0.8
7 0.28
8 -0.12
9 -0.04

> <PUBCHEM_EFFECTIVE_ROTOR_COUNT>
5

> <PUBCHEM_PHARMACOPHORE_FEATURES>
8
1 1 acceptor
1 2 acceptor
1 2 anion
1 3 acceptor
1 5 donor
5 4 5 8 9 12 rings
6 10 14 15 17 18 19 rings
6 16 20 21 23 24 25 rings

> <PUBCHEM_HEAVY_ATOM_COUNT>
25

> <PUBCHEM_ATOM_DEF_STEREO_COUNT>
0

> <PUBCHEM_ATOM_UDEF_STEREO_COUNT>
1

> <PUBCHEM_BOND_DEF_STEREO_COUNT>
0

> <PUBCHEM_BOND_UDEF_STEREO_COUNT>
0

> <PUBCHEM_ISOTOPIC_ATOM_COUNT>
0

> <PUBCHEM_COMPONENT_COUNT>
1

> <PUBCHEM_CACTVS_TAUTO_COUNT>
6

> <PUBCHEM_CONFORMER_ID>
00438C0400000001

> <PUBCHEM_MMFF94_ENERGY>
80.9902

> <PUBCHEM_FEATURE_SELFOVERLAP>
40.675

> <PUBCHEM_SHAPE_FINGERPRINT>
10165383 225 17917447444596214699
10382601 240 17970911059593755577
105312 117 18201725071839906908
11640471 11 18337096883332610585
11763715 3 17472433517514506694
12390115 104 18115040661580077564
12633257 1 15357995459464556721
12788726 201 18193541492578320923
12930653 34 17822020791682297891
13544653 18 9151164350968940636
14294032 229 18272376403870559913
14713325 29 18197503024177372526
15163728 17 18200322017593382173
15209294 21 18187365441227907952
15439362 3 18127976304448628526
15463212 79 18339913935117980298
15534591 1 18334575788779407010
16988056 13 17114660718728325253
17818456 19 18270108012556136224
1813 80 12036025525171921353
18785283 64 18123192299175833455
20626108 58 10951757552236412201
21033650 10 18264789812251790252
21120745 212 17834124417227813895
21524375 3 18335137605040576185
21756936 100 18114186392953882760
22907989 373 18125986394365911111
23419403 2 17618839786938027707
23559900 14 17691411811590415415
298252 57 18343019995146949459
312425 83 18125743390033886452
3411729 13 18190464844616912857
392239 28 17532676704804447633
394222 165 18189611640377502569
474 4 18040711437690164936
5104073 3 17241885592300898152
531348 171 18340215193415286822
633830 44 18260828168323679526
6438718 38 18264777721427955780
7970288 3 8574418833760851553
9862522 239 18260539017903249517

> <PUBCHEM_SHAPE_MULTIPOLES>
481.94
9.76
3.91
1.78
6.81
2.03
-0.37
-12.59
-0.74
-3.13
1.11
-0.08
1.27
-1.34

> <PUBCHEM_SHAPE_SELFOVERLAP>
1046.76

> <PUBCHEM_SHAPE_VOLUME>
264.6

> <PUBCHEM_COORDINATE_TYPE>
2
5
10

$$$$
