2817312
  -OEChem-01171812193D

 36 38  0     1  0  0  0  0  0999 V2000
    1.1552    1.3826    2.1993 O   0  0  0  0  0  0  0  0  0  0  0  0
   -0.7803   -0.4081    1.9426 O   0  0  0  0  0  0  0  0  0  0  0  0
   -0.0664   -2.3334   -0.2202 O   0  0  0  0  0  0  0  0  0  0  0  0
   -2.8723   -0.8266    0.3240 O   0  0  0  0  0  0  0  0  0  0  0  0
   -2.9641    0.2441   -1.7266 O   0  0  0  0  0  0  0  0  0  0  0  0
    0.4901    2.0844    0.0295 N   0  0  0  0  0  0  0  0  0  0  0  0
    0.9575    0.9886    0.8526 C   0  0  2  0  0  0  0  0  0  0  0  0
   -0.1988   -0.0662    0.7080 C   0  0  2  0  0  0  0  0  0  0  0  0
    2.1557    0.3042    0.2670 C   0  0  0  0  0  0  0  0  0  0  0  0
   -1.1763    0.6203   -0.2166 C   0  0  0  0  0  0  0  0  0  0  0  0
    0.4649   -1.2732    0.0576 C   0  0  0  0  0  0  0  0  0  0  0  0
    1.8737   -0.9828   -0.1844 C   0  0  0  0  0  0  0  0  0  0  0  0
   -0.7273    1.8383   -0.5650 C   0  0  0  0  0  0  0  0  0  0  0  0
    3.4417    0.8083    0.1385 C   0  0  0  0  0  0  0  0  0  0  0  0
    2.8255   -1.8023   -0.7634 C   0  0  0  0  0  0  0  0  0  0  0  0
   -2.4271    0.0127   -0.6491 C   0  0  0  0  0  0  0  0  0  0  0  0
   -1.3380    2.8684   -1.4475 C   0  0  0  0  0  0  0  0  0  0  0  0
    4.4245    0.0013   -0.4438 C   0  0  0  0  0  0  0  0  0  0  0  0
    4.1183   -1.2947   -0.8908 C   0  0  0  0  0  0  0  0  0  0  0  0
   -4.1013   -1.5050    0.0445 C   0  0  0  0  0  0  0  0  0  0  0  0
   -5.2549   -0.6611    0.5436 C   0  0  0  0  0  0  0  0  0  0  0  0
    0.9944    2.9489   -0.1154 H   0  0  0  0  0  0  0  0  0  0  0  0
    3.6874    1.8084    0.4808 H   0  0  0  0  0  0  0  0  0  0  0  0
    0.3489    1.8479    2.4797 H   0  0  0  0  0  0  0  0  0  0  0  0
   -0.0623   -0.6182    2.5638 H   0  0  0  0  0  0  0  0  0  0  0  0
    2.5861   -2.8015   -1.1087 H   0  0  0  0  0  0  0  0  0  0  0  0
   -0.7701    2.9545   -2.3794 H   0  0  0  0  0  0  0  0  0  0  0  0
   -1.3297    3.8450   -0.9514 H   0  0  0  0  0  0  0  0  0  0  0  0
   -2.3781    2.6494   -1.7004 H   0  0  0  0  0  0  0  0  0  0  0  0
    5.4374    0.3802   -0.5520 H   0  0  0  0  0  0  0  0  0  0  0  0
    4.8967   -1.9051   -1.3404 H   0  0  0  0  0  0  0  0  0  0  0  0
   -4.2037   -1.7385   -1.0212 H   0  0  0  0  0  0  0  0  0  0  0  0
   -4.0758   -2.4571    0.5844 H   0  0  0  0  0  0  0  0  0  0  0  0
   -6.2071   -1.1781    0.3949 H   0  0  0  0  0  0  0  0  0  0  0  0
   -5.1376   -0.4379    1.6093 H   0  0  0  0  0  0  0  0  0  0  0  0
   -5.2937    0.2996    0.0199 H   0  0  0  0  0  0  0  0  0  0  0  0
  1  7  1  0  0  0  0
  1 24  1  0  0  0  0
  2  8  1  0  0  0  0
  2 25  1  0  0  0  0
  3 11  2  0  0  0  0
  4 16  1  0  0  0  0
  4 20  1  0  0  0  0
  5 16  2  0  0  0  0
  6  7  1  0  0  0  0
  6 13  1  0  0  0  0
  6 22  1  0  0  0  0
  7  8  1  0  0  0  0
  7  9  1  0  0  0  0
  8 10  1  0  0  0  0
  8 11  1  0  0  0  0
  9 12  1  0  0  0  0
  9 14  2  0  0  0  0
 10 13  2  0  0  0  0
 10 16  1  0  0  0  0
 11 12  1  0  0  0  0
 12 15  2  0  0  0  0
 13 17  1  0  0  0  0
 14 18  1  0  0  0  0
 14 23  1  0  0  0  0
 15 19  1  0  0  0  0
 15 26  1  0  0  0  0
 17 27  1  0  0  0  0
 17 28  1  0  0  0  0
 17 29  1  0  0  0  0
 18 19  2  0  0  0  0
 18 30  1  0  0  0  0
 19 31  1  0  0  0  0
 20 21  1  0  0  0  0
 20 32  1  0  0  0  0
 20 33  1  0  0  0  0
 21 34  1  0  0  0  0
 21 35  1  0  0  0  0
 21 36  1  0  0  0  0
M  END
> <PUBCHEM_COMPOUND_CID>
2817312

> <PUBCHEM_CONFORMER_RMSD>
0.6

> <PUBCHEM_CONFORMER_DIVERSEORDER>
3
7
13
20
10
2
19
4
1
18
11
8
17
22
6
12
16
9
5
14
15
21
23

> <PUBCHEM_MMFF94_PARTIAL_CHARGES>
27
1 -0.68
10 -0.12
11 0.42
12 0.09
13 -0.04
14 -0.15
15 -0.15
16 0.71
17 0.14
18 -0.15
19 -0.15
2 -0.68
20 0.28
22 0.4
23 0.15
24 0.4
25 0.4
26 0.15
3 -0.57
30 0.15
31 0.15
4 -0.43
5 -0.57
6 -0.87
7 0.79
8 0.48
9 -0.14

> <PUBCHEM_EFFECTIVE_ROTOR_COUNT>
3.2

> <PUBCHEM_PHARMACOPHORE_FEATURES>
11
1 1 acceptor
1 1 donor
1 2 acceptor
1 2 donor
1 3 acceptor
1 5 acceptor
1 6 cation
1 6 donor
5 6 7 8 10 13 rings
5 7 8 9 11 12 rings
6 9 12 14 15 18 19 rings

> <PUBCHEM_HEAVY_ATOM_COUNT>
21

> <PUBCHEM_ATOM_DEF_STEREO_COUNT>
0

> <PUBCHEM_ATOM_UDEF_STEREO_COUNT>
2

> <PUBCHEM_BOND_DEF_STEREO_COUNT>
0

> <PUBCHEM_BOND_UDEF_STEREO_COUNT>
0

> <PUBCHEM_ISOTOPIC_ATOM_COUNT>
0

> <PUBCHEM_COMPONENT_COUNT>
1

> <PUBCHEM_CACTVS_TAUTO_COUNT>
2

> <PUBCHEM_CONFORMER_ID>
002AFD2000000003

> <PUBCHEM_MMFF94_ENERGY>
58.3597

> <PUBCHEM_FEATURE_SELFOVERLAP>
56.403

> <PUBCHEM_SHAPE_FINGERPRINT>
10064457 181 17701817902577995767
10863032 1 18116991075132784380
10948715 1 7853572391981784247
11578080 2 15121786208011027033
11640471 11 15719947999821229948
12035758 1 18263083386588552203
12236239 1 17132121255592984619
12251169 10 10663520622111936110
12403259 226 18337669703479385974
12423570 1 13369353368539930696
13140716 1 18052246594961161984
13299463 15 18270113501023245036
13464513 79 18336265755684712419
15375462 189 17561080315153284398
15527383 91 18273501178306138547
16945 1 17845638365386027896
17357779 13 18337098030131064093
17980427 26 16843023480394056065
19141452 34 18272654588728800943
200 152 17988645160337800142
20361792 2 16127792086028109212
20691752 17 18192973010506068535
20871999 31 17967811622567562789
21285901 2 18409454665224482703
22182313 1 18339058446099048556
23352939 185 18339939189525927392
23402539 116 17822006493340523428
23419403 2 17916847067918130248
23493267 7 17749379335189234993
23557571 272 18113337500682665621
23559900 14 17981598266189074214
2748010 2 18268407093152325052
2871803 45 18408319956334414895
298252 57 13406796661498250577
3286 77 17917432055089985473
3323516 105 18411980273408460502
351380 180 8574436404655844175
5104073 3 18200026219422823594
83771 10 18202284697187746023

> <PUBCHEM_SHAPE_MULTIPOLES>
397.84
7.49
2.3
1.34
2.87
0.87
-0.37
-3.47
1.16
0.39
0.65
0.18
0.44
1.15

> <PUBCHEM_SHAPE_SELFOVERLAP>
880.426

> <PUBCHEM_SHAPE_VOLUME>
215.3

> <PUBCHEM_COORDINATE_TYPE>
2
5
10

$$$$
