3286543
  -OEChem-01171812253D

 56 59  0     0  0  0  0  0  0999 V2000
   -2.6480    1.1836    0.9797 S   0  0  0  0  0  0  0  0  0  0  0  0
    0.1456   -3.0173   -0.7958 O   0  0  0  0  0  0  0  0  0  0  0  0
   -3.0767    2.5648    1.0884 O   0  0  0  0  0  0  0  0  0  0  0  0
   -1.9790    0.5316    2.0897 O   0  0  0  0  0  0  0  0  0  0  0  0
   -1.8157   -1.8413   -0.9585 O   0  0  0  0  0  0  0  0  0  0  0  0
    0.7036    1.4314    0.0612 N   0  0  0  0  0  0  0  0  0  0  0  0
   -1.7170    0.9863   -0.4598 N   0  0  0  0  0  0  0  0  0  0  0  0
    3.0785    1.1766    0.4541 N   0  0  0  0  0  0  0  0  0  0  0  0
    2.5206   -1.5630   -0.1128 N   0  0  0  0  0  0  0  0  0  0  0  0
    0.5861    2.8558    0.2811 C   0  0  0  0  0  0  0  0  0  0  0  0
   -0.3306    0.5910   -0.2722 C   0  0  0  0  0  0  0  0  0  0  0  0
    1.8602    0.7076    0.1508 C   0  0  0  0  0  0  0  0  0  0  0  0
    0.1745   -0.6872   -0.3964 C   0  0  0  0  0  0  0  0  0  0  0  0
    0.7915    3.6546   -1.0051 C   0  0  0  0  0  0  0  0  0  0  0  0
    1.5602   -0.6121   -0.1283 C   0  0  0  0  0  0  0  0  0  0  0  0
    0.6743    5.1561   -0.7472 C   0  0  0  0  0  0  0  0  0  0  0  0
    4.0295    0.2312    0.4687 C   0  0  0  0  0  0  0  0  0  0  0  0
    3.7532   -1.1285    0.1879 C   0  0  0  0  0  0  0  0  0  0  0  0
   -0.5929   -1.8524   -0.7350 C   0  0  0  0  0  0  0  0  0  0  0  0
    0.9170    5.9597   -2.0147 C   0  0  0  0  0  0  0  0  0  0  0  0
   -4.0746    0.2086    0.5981 C   0  0  0  0  0  0  0  0  0  0  0  0
    5.3360    0.6025    0.7718 C   0  0  0  0  0  0  0  0  0  0  0  0
    4.7965   -2.0485    0.2242 C   0  0  0  0  0  0  0  0  0  0  0  0
    6.3710   -0.3303    0.8040 C   0  0  0  0  0  0  0  0  0  0  0  0
    6.1001   -1.6614    0.5294 C   0  0  0  0  0  0  0  0  0  0  0  0
   -4.0825   -1.1338    0.9323 C   0  0  0  0  0  0  0  0  0  0  0  0
   -5.1533    0.8080   -0.0269 C   0  0  0  0  0  0  0  0  0  0  0  0
   -0.5586   -4.2190   -1.1286 C   0  0  0  0  0  0  0  0  0  0  0  0
   -5.2067   -1.9026    0.6310 C   0  0  0  0  0  0  0  0  0  0  0  0
   -6.2774    0.0392   -0.3280 C   0  0  0  0  0  0  0  0  0  0  0  0
   -6.3041   -1.3161    0.0010 C   0  0  0  0  0  0  0  0  0  0  0  0
    0.4186   -5.3751   -1.1440 C   0  0  0  0  0  0  0  0  0  0  0  0
   -0.3936    3.0645    0.7189 H   0  0  0  0  0  0  0  0  0  0  0  0
    1.3314    3.1394    1.0337 H   0  0  0  0  0  0  0  0  0  0  0  0
    0.0523    3.3506   -1.7567 H   0  0  0  0  0  0  0  0  0  0  0  0
    1.7788    3.4288   -1.4274 H   0  0  0  0  0  0  0  0  0  0  0  0
   -0.3232    5.3895   -0.3569 H   0  0  0  0  0  0  0  0  0  0  0  0
    1.4009    5.4612    0.0148 H   0  0  0  0  0  0  0  0  0  0  0  0
   -1.7941    1.7854   -1.1039 H   0  0  0  0  0  0  0  0  0  0  0  0
    0.1878    5.7007   -2.7889 H   0  0  0  0  0  0  0  0  0  0  0  0
    1.9203    5.7738   -2.4112 H   0  0  0  0  0  0  0  0  0  0  0  0
    0.8268    7.0306   -1.8076 H   0  0  0  0  0  0  0  0  0  0  0  0
    5.5670    1.6437    0.9904 H   0  0  0  0  0  0  0  0  0  0  0  0
    4.6016   -3.0981    0.0108 H   0  0  0  0  0  0  0  0  0  0  0  0
    7.3821   -0.0151    1.0432 H   0  0  0  0  0  0  0  0  0  0  0  0
    6.8969   -2.3985    0.5512 H   0  0  0  0  0  0  0  0  0  0  0  0
   -3.2395   -1.6093    1.4238 H   0  0  0  0  0  0  0  0  0  0  0  0
   -5.1479    1.8593   -0.2975 H   0  0  0  0  0  0  0  0  0  0  0  0
   -1.0190   -4.1085   -2.1165 H   0  0  0  0  0  0  0  0  0  0  0  0
   -1.3387   -4.4016   -0.3815 H   0  0  0  0  0  0  0  0  0  0  0  0
   -5.2274   -2.9579    0.8868 H   0  0  0  0  0  0  0  0  0  0  0  0
   -7.1314    0.4952   -0.8203 H   0  0  0  0  0  0  0  0  0  0  0  0
   -7.1792   -1.9148   -0.2341 H   0  0  0  0  0  0  0  0  0  0  0  0
   -0.0869   -6.3115   -1.3955 H   0  0  0  0  0  0  0  0  0  0  0  0
    1.2156   -5.1960   -1.8733 H   0  0  0  0  0  0  0  0  0  0  0  0
    0.9011   -5.4844   -0.1671 H   0  0  0  0  0  0  0  0  0  0  0  0
  1  3  2  0  0  0  0
  1  4  2  0  0  0  0
  1  7  1  0  0  0  0
  1 21  1  0  0  0  0
  2 19  1  0  0  0  0
  2 28  1  0  0  0  0
  5 19  2  0  0  0  0
  6 10  1  0  0  0  0
  6 11  1  0  0  0  0
  6 12  1  0  0  0  0
  7 11  1  0  0  0  0
  7 39  1  0  0  0  0
  8 12  2  0  0  0  0
  8 17  1  0  0  0  0
  9 15  2  0  0  0  0
  9 18  1  0  0  0  0
 10 14  1  0  0  0  0
 10 33  1  0  0  0  0
 10 34  1  0  0  0  0
 11 13  2  0  0  0  0
 12 15  1  0  0  0  0
 13 15  1  0  0  0  0
 13 19  1  0  0  0  0
 14 16  1  0  0  0  0
 14 35  1  0  0  0  0
 14 36  1  0  0  0  0
 16 20  1  0  0  0  0
 16 37  1  0  0  0  0
 16 38  1  0  0  0  0
 17 18  1  0  0  0  0
 17 22  2  0  0  0  0
 18 23  2  0  0  0  0
 20 40  1  0  0  0  0
 20 41  1  0  0  0  0
 20 42  1  0  0  0  0
 21 26  2  0  0  0  0
 21 27  1  0  0  0  0
 22 24  1  0  0  0  0
 22 43  1  0  0  0  0
 23 25  1  0  0  0  0
 23 44  1  0  0  0  0
 24 25  2  0  0  0  0
 24 45  1  0  0  0  0
 25 46  1  0  0  0  0
 26 29  1  0  0  0  0
 26 47  1  0  0  0  0
 27 30  2  0  0  0  0
 27 48  1  0  0  0  0
 28 32  1  0  0  0  0
 28 49  1  0  0  0  0
 28 50  1  0  0  0  0
 29 31  2  0  0  0  0
 29 51  1  0  0  0  0
 30 31  1  0  0  0  0
 30 52  1  0  0  0  0
 31 53  1  0  0  0  0
 32 54  1  0  0  0  0
 32 55  1  0  0  0  0
 32 56  1  0  0  0  0
M  END
> <PUBCHEM_COMPOUND_CID>
3286543

> <PUBCHEM_CONFORMER_RMSD>
1

> <PUBCHEM_CONFORMER_DIVERSEORDER>
1
49
18
53
52
36
31
47
68
17
7
29
66
63
72
32
59
64
33
34
46
41
19
44
25
24
35
71
38
39
11
15
69
75
8
4
45
9
22
57
50
28
73
30
55
48
51
13
42
16
21
74
60
3
61
14
54
58
26
10
37
70
67
43
5
12
40
27
2
20
6
23
65
62
56

> <PUBCHEM_MMFF94_PARTIAL_CHARGES>
38
1 1.45
10 0.26
11 -0.01
12 0.11
13 -0.09
15 0.26
17 0.31
18 0.31
19 0.81
2 -0.43
21 -0.01
22 -0.15
23 -0.15
24 -0.15
25 -0.15
26 -0.15
27 -0.15
28 0.28
29 -0.15
3 -0.65
30 -0.15
31 -0.15
39 0.42
4 -0.65
43 0.15
44 0.15
45 0.15
46 0.15
47 0.15
48 0.15
5 -0.57
51 0.15
52 0.15
53 0.15
6 0.05
7 -0.7
8 -0.57
9 -0.57

> <PUBCHEM_EFFECTIVE_ROTOR_COUNT>
9

> <PUBCHEM_PHARMACOPHORE_FEATURES>
11
1 20 hydrophobe
1 3 acceptor
1 4 acceptor
1 5 acceptor
1 7 donor
1 9 acceptor
3 6 8 12 cation
5 6 11 12 13 15 rings
6 17 18 22 23 24 25 rings
6 21 26 27 29 30 31 rings
6 8 9 12 15 17 18 rings

> <PUBCHEM_HEAVY_ATOM_COUNT>
32

> <PUBCHEM_ATOM_DEF_STEREO_COUNT>
0

> <PUBCHEM_ATOM_UDEF_STEREO_COUNT>
0

> <PUBCHEM_BOND_DEF_STEREO_COUNT>
0

> <PUBCHEM_BOND_UDEF_STEREO_COUNT>
0

> <PUBCHEM_ISOTOPIC_ATOM_COUNT>
0

> <PUBCHEM_COMPONENT_COUNT>
1

> <PUBCHEM_CACTVS_TAUTO_COUNT>
4

> <PUBCHEM_CONFORMER_ID>
0032260F00000001

> <PUBCHEM_MMFF94_ENERGY>
55.2243

> <PUBCHEM_FEATURE_SELFOVERLAP>
56.012

> <PUBCHEM_SHAPE_FINGERPRINT>
10 15 18342446080964630008
10940486 97 18197495336797290502
1100329 8 18198621227623581227
11445158 3 18335139855708987269
11719270 70 18342734087954276311
12166972 35 18341612659276953993
12516196 113 18333730208613809664
13140716 1 18198345052694601098
13617811 41 18337688425252704334
14117953 113 18411700959575766781
14466204 15 18411699864026880875
14790565 3 18342178847688106346
14866123 147 18272079543673292094
14955137 171 18334859441489243796
15131766 46 16662911386311546284
15183329 4 11818991885667767587
15775530 1 17546727054293881484
15849732 13 18412261752907017854
15927050 60 17762906858743017348
17980427 23 18271536316694490361
18681886 176 18410850005830965273
19591789 44 18342178808754326110
20028762 73 18060135466384746775
20739085 24 18411706473680680732
21033648 29 18059558196682825993
21583282 1 17606691476193717604
23559900 14 18337385041743002161
23569917 315 18202287978644267374
25019877 29 17632857538232107302
3178227 256 18339370746752297171
3380486 145 18118982286670740497
350125 39 18343580754624565842
392239 28 17561090206753124835
5104073 3 18270672062000177586

> <PUBCHEM_SHAPE_MULTIPOLES>
618.99
12.89
6.32
1.23
2.33
5.07
0.06
-6
-4.52
-2.01
4.96
0.23
0.47
-0.84

> <PUBCHEM_SHAPE_SELFOVERLAP>
1331.363

> <PUBCHEM_SHAPE_VOLUME>
343.9

> <PUBCHEM_COORDINATE_TYPE>
2
5
10

$$$$
