259232
  -OEChem-01171811543D

 25 26  0     0  0  0  0  0  0999 V2000
    1.3720    2.3961   -0.2067 O   0  0  0  0  0  0  0  0  0  0  0  0
    0.6907   -2.2220    0.3958 O   0  0  0  0  0  0  0  0  0  0  0  0
   -3.0950    0.6177   -0.4109 O   0  0  0  0  0  0  0  0  0  0  0  0
   -2.0493   -1.8992    0.0638 O   0  0  0  0  0  0  0  0  0  0  0  0
    3.1752   -0.5828    0.4135 O   0  0  0  0  0  0  0  0  0  0  0  0
    0.9480    0.1317    0.0791 C   0  0  0  0  0  0  0  0  0  0  0  0
    0.4400    1.3925   -0.1573 C   0  0  0  0  0  0  0  0  0  0  0  0
    0.1596   -0.9972    0.1617 C   0  0  0  0  0  0  0  0  0  0  0  0
    2.3698    0.3019    0.2020 C   0  0  0  0  0  0  0  0  0  0  0  0
    2.6550    1.7658    0.0182 C   0  0  0  0  0  0  0  0  0  0  0  0
   -0.9179    1.5799   -0.3255 C   0  0  0  0  0  0  0  0  0  0  0  0
   -1.2146   -0.8215   -0.0064 C   0  0  0  0  0  0  0  0  0  0  0  0
   -1.7498    0.4576   -0.2483 C   0  0  0  0  0  0  0  0  0  0  0  0
    1.0776   -2.9964   -0.7416 C   0  0  0  0  0  0  0  0  0  0  0  0
   -3.8614    0.8760    0.7626 C   0  0  0  0  0  0  0  0  0  0  0  0
    3.1029    2.1882    0.9215 H   0  0  0  0  0  0  0  0  0  0  0  0
    3.2874    1.9287   -0.8583 H   0  0  0  0  0  0  0  0  0  0  0  0
   -1.3271    2.5672   -0.5126 H   0  0  0  0  0  0  0  0  0  0  0  0
   -1.5209   -2.6874    0.2776 H   0  0  0  0  0  0  0  0  0  0  0  0
    1.4986   -3.9402   -0.3847 H   0  0  0  0  0  0  0  0  0  0  0  0
    1.8397   -2.4708   -1.3253 H   0  0  0  0  0  0  0  0  0  0  0  0
    0.2092   -3.2151   -1.3708 H   0  0  0  0  0  0  0  0  0  0  0  0
   -3.7663    0.0510    1.4757 H   0  0  0  0  0  0  0  0  0  0  0  0
   -4.9117    0.9677    0.4729 H   0  0  0  0  0  0  0  0  0  0  0  0
   -3.5441    1.8140    1.2291 H   0  0  0  0  0  0  0  0  0  0  0  0
  1  7  1  0  0  0  0
  1 10  1  0  0  0  0
  2  8  1  0  0  0  0
  2 14  1  0  0  0  0
  3 13  1  0  0  0  0
  3 15  1  0  0  0  0
  4 12  1  0  0  0  0
  4 19  1  0  0  0  0
  5  9  2  0  0  0  0
  6  7  1  0  0  0  0
  6  8  2  0  0  0  0
  6  9  1  0  0  0  0
  7 11  2  0  0  0  0
  8 12  1  0  0  0  0
  9 10  1  0  0  0  0
 10 16  1  0  0  0  0
 10 17  1  0  0  0  0
 11 13  1  0  0  0  0
 11 18  1  0  0  0  0
 12 13  2  0  0  0  0
 14 20  1  0  0  0  0
 14 21  1  0  0  0  0
 14 22  1  0  0  0  0
 15 23  1  0  0  0  0
 15 24  1  0  0  0  0
 15 25  1  0  0  0  0
M  END
> <PUBCHEM_COMPOUND_CID>
259232

> <PUBCHEM_CONFORMER_RMSD>
0.6

> <PUBCHEM_CONFORMER_DIVERSEORDER>
1
2

> <PUBCHEM_MMFF94_PARTIAL_CHARGES>
17
1 -0.36
10 0.34
11 -0.15
12 0.08
13 0.08
14 0.28
15 0.28
18 0.15
19 0.45
2 -0.36
3 -0.36
4 -0.53
5 -0.57
6 0.09
7 0.08
8 0.08
9 0.42

> <PUBCHEM_EFFECTIVE_ROTOR_COUNT>
2.4

> <PUBCHEM_PHARMACOPHORE_FEATURES>
7
1 1 acceptor
1 2 acceptor
1 3 acceptor
1 4 donor
1 5 acceptor
5 1 6 7 9 10 rings
6 6 7 8 11 12 13 rings

> <PUBCHEM_HEAVY_ATOM_COUNT>
15

> <PUBCHEM_ATOM_DEF_STEREO_COUNT>
0

> <PUBCHEM_ATOM_UDEF_STEREO_COUNT>
0

> <PUBCHEM_BOND_DEF_STEREO_COUNT>
0

> <PUBCHEM_BOND_UDEF_STEREO_COUNT>
0

> <PUBCHEM_ISOTOPIC_ATOM_COUNT>
0

> <PUBCHEM_COMPONENT_COUNT>
1

> <PUBCHEM_CACTVS_TAUTO_COUNT>
6

> <PUBCHEM_CONFORMER_ID>
0003F4A000000001

> <PUBCHEM_MMFF94_ENERGY>
59.9362

> <PUBCHEM_FEATURE_SELFOVERLAP>
35.624

> <PUBCHEM_SHAPE_FINGERPRINT>
1 1 18411978057337152734
10465860 228 18198917907122415937
10967382 1 18410009897063377396
10980938 120 18410576145889383153
11132069 177 18336816550564006200
11471102 20 18409442553691053109
11471102 22 18190481393141397689
12423570 1 10335907367092944993
12524768 44 18336825273748118239
13140716 1 18409727404158422928
13380535 21 18338529577048516623
13380535 76 18409442596646000675
13897977 150 18409444812622064293
15775835 57 18334581290643205284
161256 15 18122910819666369446
16945 1 18338231570399649485
193761 8 17617936937651767612
20510252 161 17984147238293373873
20511035 2 18115596000840400644
20588541 1 18336548218076314935
20645476 183 17750813214500556118
20645477 70 18265605503924162325
20871998 22 17979919302319847026
21501502 16 18265050412880125637
2334 1 18193273224419589405
23463225 33 18334570227012789450
23559900 14 18342184410388569532
241688 4 17546164104092540192
2748010 2 18264768933640102820
3071541 250 17979930310315719710
528886 8 18410848888902240504
7364860 26 18270401577079898503
81228 2 17543903967731496049

> <PUBCHEM_SHAPE_MULTIPOLES>
279.35
4.56
2.79
0.71
2.59
1.5
0
-1.42
0.77
-1.25
-0.41
0.1
0.06
0.01

> <PUBCHEM_SHAPE_SELFOVERLAP>
607.222

> <PUBCHEM_SHAPE_VOLUME>
155.5

> <PUBCHEM_COORDINATE_TYPE>
2
5
10

$$$$
