272529
  -OEChem-01171812003D

 31 33  0     0  0  0  0  0  0999 V2000
    4.3579   -0.0376    0.0136 O   0  0  0  0  0  0  0  0  0  0  0  0
   -3.8339    0.7455    0.0094 O   0  0  0  0  0  0  0  0  0  0  0  0
   -2.4549    3.0227   -0.0224 O   0  0  0  0  0  0  0  0  0  0  0  0
    1.6520    0.6987   -0.0294 N   0  0  0  0  0  0  0  0  0  0  0  0
    2.4268    0.6742   -1.2701 C   0  0  0  0  0  0  0  0  0  0  0  0
    2.4474    0.8918    1.1832 C   0  0  0  0  0  0  0  0  0  0  0  0
    0.2883    0.7188   -0.0197 C   0  0  0  0  0  0  0  0  0  0  0  0
    3.5616   -0.3344   -1.1362 C   0  0  0  0  0  0  0  0  0  0  0  0
    3.5807   -0.1269    1.2102 C   0  0  0  0  0  0  0  0  0  0  0  0
   -0.4603   -0.5711   -0.0009 C   0  0  0  0  0  0  0  0  0  0  0  0
   -1.8679   -0.5865    0.0086 C   0  0  0  0  0  0  0  0  0  0  0  0
   -0.3771    1.8871   -0.0266 C   0  0  0  0  0  0  0  0  0  0  0  0
    0.1885   -1.8203    0.0086 C   0  0  0  0  0  0  0  0  0  0  0  0
   -2.6148    0.6824    0.0013 C   0  0  0  0  0  0  0  0  0  0  0  0
   -1.8455    1.9644   -0.0159 C   0  0  0  0  0  0  0  0  0  0  0  0
   -2.5942   -1.7861    0.0255 C   0  0  0  0  0  0  0  0  0  0  0  0
   -0.5327   -3.0199    0.0265 C   0  0  0  0  0  0  0  0  0  0  0  0
   -1.9220   -3.0028    0.0343 C   0  0  0  0  0  0  0  0  0  0  0  0
    2.8351    1.6768   -1.4459 H   0  0  0  0  0  0  0  0  0  0  0  0
    1.7996    0.4120   -2.1302 H   0  0  0  0  0  0  0  0  0  0  0  0
    1.8344    0.7841    2.0858 H   0  0  0  0  0  0  0  0  0  0  0  0
    2.8571    1.9089    1.1741 H   0  0  0  0  0  0  0  0  0  0  0  0
    3.1947   -1.3640   -1.0687 H   0  0  0  0  0  0  0  0  0  0  0  0
    4.2125   -0.2771   -2.0146 H   0  0  0  0  0  0  0  0  0  0  0  0
    4.2447    0.0766    2.0562 H   0  0  0  0  0  0  0  0  0  0  0  0
    3.2043   -1.1500    1.3234 H   0  0  0  0  0  0  0  0  0  0  0  0
    0.1542    2.8344   -0.0405 H   0  0  0  0  0  0  0  0  0  0  0  0
    1.2708   -1.8925    0.0125 H   0  0  0  0  0  0  0  0  0  0  0  0
   -3.6808   -1.7882    0.0326 H   0  0  0  0  0  0  0  0  0  0  0  0
   -0.0019   -3.9678    0.0360 H   0  0  0  0  0  0  0  0  0  0  0  0
   -2.4792   -3.9346    0.0483 H   0  0  0  0  0  0  0  0  0  0  0  0
  1  8  1  0  0  0  0
  1  9  1  0  0  0  0
  2 14  2  0  0  0  0
  3 15  2  0  0  0  0
  4  5  1  0  0  0  0
  4  6  1  0  0  0  0
  4  7  1  0  0  0  0
  5  8  1  0  0  0  0
  5 19  1  0  0  0  0
  5 20  1  0  0  0  0
  6  9  1  0  0  0  0
  6 21  1  0  0  0  0
  6 22  1  0  0  0  0
  7 10  1  0  0  0  0
  7 12  2  0  0  0  0
  8 23  1  0  0  0  0
  8 24  1  0  0  0  0
  9 25  1  0  0  0  0
  9 26  1  0  0  0  0
 10 11  1  0  0  0  0
 10 13  2  0  0  0  0
 11 14  1  0  0  0  0
 11 16  2  0  0  0  0
 12 15  1  0  0  0  0
 12 27  1  0  0  0  0
 13 17  1  0  0  0  0
 13 28  1  0  0  0  0
 14 15  1  0  0  0  0
 16 18  1  0  0  0  0
 16 29  1  0  0  0  0
 17 18  2  0  0  0  0
 17 30  1  0  0  0  0
 18 31  1  0  0  0  0
M  END
> <PUBCHEM_COMPOUND_CID>
272529

> <PUBCHEM_CONFORMER_RMSD>
0.6

> <PUBCHEM_CONFORMER_DIVERSEORDER>
1
2
3

> <PUBCHEM_MMFF94_PARTIAL_CHARGES>
23
1 -0.56
10 0.03
11 0.09
12 -0.14
13 -0.15
14 0.48
15 0.56
16 -0.15
17 -0.15
18 -0.15
2 -0.57
27 0.15
28 0.15
29 0.15
3 -0.57
30 0.15
31 0.15
4 -0.84
5 0.37
6 0.37
7 0.07
8 0.28
9 0.28

> <PUBCHEM_EFFECTIVE_ROTOR_COUNT>
2.2

> <PUBCHEM_PHARMACOPHORE_FEATURES>
7
1 1 acceptor
1 2 acceptor
1 3 acceptor
1 4 cation
6 1 4 5 6 8 9 rings
6 10 11 13 16 17 18 rings
6 7 10 11 12 14 15 rings

> <PUBCHEM_HEAVY_ATOM_COUNT>
18

> <PUBCHEM_ATOM_DEF_STEREO_COUNT>
0

> <PUBCHEM_ATOM_UDEF_STEREO_COUNT>
0

> <PUBCHEM_BOND_DEF_STEREO_COUNT>
0

> <PUBCHEM_BOND_UDEF_STEREO_COUNT>
0

> <PUBCHEM_ISOTOPIC_ATOM_COUNT>
0

> <PUBCHEM_COMPONENT_COUNT>
1

> <PUBCHEM_CACTVS_TAUTO_COUNT>
1

> <PUBCHEM_CONFORMER_ID>
0004289100000001

> <PUBCHEM_MMFF94_ENERGY>
57.5034

> <PUBCHEM_FEATURE_SELFOVERLAP>
35.552

> <PUBCHEM_SHAPE_FINGERPRINT>
10319926 262 18197754740422221456
10967382 1 18338517417811355407
11582403 64 16765011795069199416
12236239 1 17676206862447167396
12500047 106 18339637850557120100
12553582 1 17834120018997205838
13140716 1 18267026240108367921
13538477 17 18187644743056259124
13583140 156 14404641946638900723
13862211 1 18338513149215581163
14223421 5 18054501684683197464
14790565 3 18338817640727417481
15042514 8 18336551611491336787
15279308 132 18342457006754970184
15309172 13 18337400339804398729
15669948 3 18335143137005913230
16110190 28 17685465699905617482
16752209 62 18335975441348678503
16945 1 18410293614292727829
17804303 29 18341333374569591920
19049666 15 18059862723065147626
19591789 44 18194971742451937003
20028762 73 18057893640023270655
20510252 161 18343302599594499041
20645476 183 17749399190533004510
20645477 70 16466141887098308743
20905425 154 18341898441647147359
21524375 3 18188490155807841633
23184049 29 18050000288078384018
2334 1 17978228593165875397
23402539 116 18343010112906898549
23419403 2 14186722117752276775
23526113 38 17703240520505827702
23557571 272 18197782309274123912
23559900 14 18343588434975618028
23598291 2 17822018639935213886
257057 1 17764016270154157967
2748010 2 18123463054077287749
3091708 16 9272339328754108075
350125 39 17977954483963112393
352729 6 18409737278631004103
43471831 8 18264205803514436891
465052 167 17750254624260719849
54173680 148 18337954622471560003
58807428 26 18194401087310992729
69090 78 17703501147178410301
6992083 37 18040435477657164772
7364860 26 17692527815122513711
74978 22 18336264655993593708
77492 1 17675924300738183860
81228 2 18267584787435214233
84936 182 17551505553103286977
8809292 202 18342741831705801880
90525 40 18187930534200912612
9709674 26 18272374187398689558

> <PUBCHEM_SHAPE_MULTIPOLES>
347.84
6.09
3.09
0.94
4.49
0.81
0
-0.42
-0.08
-3.3
-0.02
1.02
-0.05
0.11

> <PUBCHEM_SHAPE_SELFOVERLAP>
758.531

> <PUBCHEM_SHAPE_VOLUME>
187.8

> <PUBCHEM_COORDINATE_TYPE>
2
5
10

$$$$
