2105362
  -OEChem-01171811473D

 43 46  0     0  0  0  0  0  0999 V2000
   -0.5389    0.4737    0.4630 S   0  0  0  0  0  0  0  0  0  0  0  0
   -9.6044   -0.7681    0.8162 F   0  0  0  0  0  0  0  0  0  0  0  0
    9.3821    0.5132    1.1819 O   0  0  0  0  0  0  0  0  0  0  0  0
    2.3599    2.0964   -0.1199 O   0  0  0  0  0  0  0  0  0  0  0  0
    7.1007    0.9763    0.7366 N   0  0  0  0  0  0  0  0  0  0  0  0
    7.8943   -1.1078    0.2998 N   0  0  0  0  0  0  0  0  0  0  0  0
   -3.2421    0.1340    0.4648 N   0  0  0  0  0  0  0  0  0  0  0  0
    2.5690   -0.1545   -0.7757 N   0  0  0  0  0  0  0  0  0  0  0  0
   -3.8013    0.6163   -1.5949 N   0  0  0  0  0  0  0  0  0  0  0  0
   -2.4333    0.7552   -1.4711 N   0  0  0  0  0  0  0  0  0  0  0  0
    6.0551    0.2040    0.2305 C   0  0  0  0  0  0  0  0  0  0  0  0
    6.5411   -1.0723   -0.0370 C   0  0  0  0  0  0  0  0  0  0  0  0
    3.9104   -0.4443   -0.5197 C   0  0  0  0  0  0  0  0  0  0  0  0
    4.7433    0.5513    0.0003 C   0  0  0  0  0  0  0  0  0  0  0  0
    5.7410   -2.0685   -0.5488 C   0  0  0  0  0  0  0  0  0  0  0  0
    4.4036   -1.7395   -0.7912 C   0  0  0  0  0  0  0  0  0  0  0  0
   -4.2677    0.2434   -0.4245 C   0  0  0  0  0  0  0  0  0  0  0  0
    8.2747    0.1730    0.7913 C   0  0  0  0  0  0  0  0  0  0  0  0
   -5.6497   -0.0184   -0.1031 C   0  0  0  0  0  0  0  0  0  0  0  0
   -2.1573    0.4616   -0.2473 C   0  0  0  0  0  0  0  0  0  0  0  0
    0.4336    0.9811   -0.9758 C   0  0  0  0  0  0  0  0  0  0  0  0
    1.8918    1.0567   -0.5773 C   0  0  0  0  0  0  0  0  0  0  0  0
   -3.3424   -0.2521    1.8543 C   0  0  0  0  0  0  0  0  0  0  0  0
   -6.1700   -1.3031   -0.2581 C   0  0  0  0  0  0  0  0  0  0  0  0
   -6.4649    1.0132    0.3624 C   0  0  0  0  0  0  0  0  0  0  0  0
   -7.5061   -1.5563    0.0525 C   0  0  0  0  0  0  0  0  0  0  0  0
   -7.8010    0.7600    0.6731 C   0  0  0  0  0  0  0  0  0  0  0  0
   -8.3216   -0.5247    0.5180 C   0  0  0  0  0  0  0  0  0  0  0  0
    4.4432    1.5610    0.2323 H   0  0  0  0  0  0  0  0  0  0  0  0
    6.1202   -3.0618   -0.7568 H   0  0  0  0  0  0  0  0  0  0  0  0
    7.0234    1.9466    1.0154 H   0  0  0  0  0  0  0  0  0  0  0  0
    8.4949   -1.9175    0.2055 H   0  0  0  0  0  0  0  0  0  0  0  0
    3.7415   -2.5022   -1.1959 H   0  0  0  0  0  0  0  0  0  0  0  0
    2.0239   -0.9278   -1.1508 H   0  0  0  0  0  0  0  0  0  0  0  0
    0.1175    1.9704   -1.3232 H   0  0  0  0  0  0  0  0  0  0  0  0
    0.3015    0.2710   -1.7987 H   0  0  0  0  0  0  0  0  0  0  0  0
   -4.3777   -0.4521    2.1345 H   0  0  0  0  0  0  0  0  0  0  0  0
   -2.7490   -1.1581    2.0037 H   0  0  0  0  0  0  0  0  0  0  0  0
   -2.9570    0.5664    2.4682 H   0  0  0  0  0  0  0  0  0  0  0  0
   -5.5471   -2.1178   -0.6196 H   0  0  0  0  0  0  0  0  0  0  0  0
   -6.0737    2.0200    0.4887 H   0  0  0  0  0  0  0  0  0  0  0  0
   -7.9119   -2.5564   -0.0679 H   0  0  0  0  0  0  0  0  0  0  0  0
   -8.4362    1.5627    1.0357 H   0  0  0  0  0  0  0  0  0  0  0  0
  1 20  1  0  0  0  0
  1 21  1  0  0  0  0
  2 28  1  0  0  0  0
  3 18  2  0  0  0  0
  4 22  2  0  0  0  0
  5 11  1  0  0  0  0
  5 18  1  0  0  0  0
  5 31  1  0  0  0  0
  6 12  1  0  0  0  0
  6 18  1  0  0  0  0
  6 32  1  0  0  0  0
  7 17  1  0  0  0  0
  7 20  1  0  0  0  0
  7 23  1  0  0  0  0
  8 13  1  0  0  0  0
  8 22  1  0  0  0  0
  8 34  1  0  0  0  0
  9 10  1  0  0  0  0
  9 17  2  0  0  0  0
 10 20  2  0  0  0  0
 11 12  2  0  0  0  0
 11 14  1  0  0  0  0
 12 15  1  0  0  0  0
 13 14  2  0  0  0  0
 13 16  1  0  0  0  0
 14 29  1  0  0  0  0
 15 16  2  0  0  0  0
 15 30  1  0  0  0  0
 16 33  1  0  0  0  0
 17 19  1  0  0  0  0
 19 24  2  0  0  0  0
 19 25  1  0  0  0  0
 21 22  1  0  0  0  0
 21 35  1  0  0  0  0
 21 36  1  0  0  0  0
 23 37  1  0  0  0  0
 23 38  1  0  0  0  0
 23 39  1  0  0  0  0
 24 26  1  0  0  0  0
 24 40  1  0  0  0  0
 25 27  2  0  0  0  0
 25 41  1  0  0  0  0
 26 28  2  0  0  0  0
 26 42  1  0  0  0  0
 27 28  1  0  0  0  0
 27 43  1  0  0  0  0
M  END
> <PUBCHEM_COMPOUND_CID>
2105362

> <PUBCHEM_CONFORMER_RMSD>
0.8

> <PUBCHEM_CONFORMER_DIVERSEORDER>
1
80
173
90
91
226
20
181
200
143
100
64
153
230
137
74
236
110
151
159
228
89
242
109
213
113
134
205
148
133
111
58
84
251
82
141
46
199
167
152
50
214
127
117
7
120
112
81
168
193
106
40
128
222
165
8
229
6
23
79
38
15
158
204
107
116
170
96
30
201
186
150
178
44
234
191
240
14
2
125
180
93
164
237
160
135
155
31
75
256
206
114
77
69
215
66
182
131
224
71
219
188
202
34
129
245
254
174
4
231
119
172
76
51
62
85
37
47
136
33
29
17
184
11
146
121
179
157
185
97
156
207
36
192
124
221
103
19
61
104
140
246
27
218
183
241
232
247
122
223
3
102
43
57
252
196
171
250
227
16
210
233
217
149
54
94
86
198
18
28
60
166
56
177
59
211
189
154
108
115
78
163
138
72
243
145
45
41
5
239
105
99
139
244
132
39
253
208
187
10
26
95
144
161
73
248
32
35
225
65
68
88
87
53
92
9
48
67
83
147
162
55
238
255
209
12
197
169
190
126
13
216
101
49
235
203
175
24
195
176
142
21
118
249
70
22
220
42
63
212
130
52
98
123
25
194

> <PUBCHEM_MMFF94_PARTIAL_CHARGES>
38
1 -0.29
10 -0.34
11 0.12
12 0.12
13 0.12
14 -0.15
15 -0.15
16 -0.15
17 0.13
18 0.69
19 0.05
2 -0.19
20 0.24
21 0.29
22 0.57
23 0.26
24 -0.15
25 -0.15
26 -0.15
27 -0.15
28 0.19
29 0.15
3 -0.57
30 0.15
31 0.37
32 0.37
33 0.15
34 0.37
4 -0.57
40 0.15
41 0.15
42 0.15
43 0.15
5 -0.55
6 -0.55
7 0.05
8 -0.55
9 -0.34

> <PUBCHEM_EFFECTIVE_ROTOR_COUNT>
6

> <PUBCHEM_PHARMACOPHORE_FEATURES>
11
1 3 acceptor
1 4 acceptor
1 5 donor
1 6 donor
1 8 donor
3 7 10 20 cation
3 7 9 17 cation
5 5 6 11 12 18 rings
5 7 9 10 17 20 rings
6 11 12 13 14 15 16 rings
6 19 24 25 26 27 28 rings

> <PUBCHEM_HEAVY_ATOM_COUNT>
28

> <PUBCHEM_ATOM_DEF_STEREO_COUNT>
0

> <PUBCHEM_ATOM_UDEF_STEREO_COUNT>
0

> <PUBCHEM_BOND_DEF_STEREO_COUNT>
0

> <PUBCHEM_BOND_UDEF_STEREO_COUNT>
0

> <PUBCHEM_ISOTOPIC_ATOM_COUNT>
0

> <PUBCHEM_COMPONENT_COUNT>
1

> <PUBCHEM_CACTVS_TAUTO_COUNT>
6

> <PUBCHEM_CONFORMER_ID>
0020201200000001

> <PUBCHEM_MMFF94_ENERGY>
81.5961

> <PUBCHEM_FEATURE_SELFOVERLAP>
58.566

> <PUBCHEM_SHAPE_FINGERPRINT>
10 15 16415480450028073725
10299344 5 18408326592417304015
10625338 86 14548738378560394691
106641 1 18060700606364442494
10669705 176 10881404231602715249
10670039 82 14996274804438544357
10674148 151 17748826307280687257
11135609 127 12974183916969046262
11315181 36 16988564598471247251
11638347 137 18260263020080615770
11991303 11 13984673589526794417
12089408 11 15502375600136034212
12516196 113 18412825768302530844
12643181 29 17168147866536905571
12741549 16 18407757041074009405
13673619 4 17530682112896134157
13685833 64 18408324375787008820
13885169 127 18409167680532802445
14118638 360 15719663269349096488
14150022 121 18059577945127751185
14251764 18 17917991685096996988
14251764 46 18272089401102127848
14428016 248 14476962310986030778
14617042 71 16414903271745132080
15065858 18 18040425582690538492
15183329 4 16008750203618293752
15247644 1 17095243627271675459
15439362 3 11459869440986164702
15510794 2 18261669290192021575
1577012 14 16343975901770075788
1754911 235 8574713482092173347
19301679 30 17916874487368759612
19315958 150 17132120125847839910
19841028 212 18337672993346220538
2026 5 17677043526409001762
21150785 3 12685091493218959863
21267235 1 16950566593196302165
21585482 111 10663562382586494315
22224240 67 18272367577728909246
232437 2 18334012783919780002
23559900 14 16733839721293344037
23576562 1 8862355615048787395
246663 6 17385444323748530669
249057 3 14490478603326342618
3383291 50 17821452369946088923
4325135 7 15267342924908952336
5758199 1 12679464179596513885
58902169 19 12540706945805613819
59521099 67 14129064729668877494
59682541 35 18272083925092691712
6126387 218 18343302544387600225
6438161 24 17458345242993907774
6691757 9 15123504840224106077
67123 10 18343020003631077042
99344 41 18343303665205876391
9962374 69 18113899424286479463

> <PUBCHEM_SHAPE_MULTIPOLES>
531.18
32.16
1.51
1.14
0.97
0.4
-0.04
6.84
-10.04
0.97
0.18
-0.37
-0.12
0.9

> <PUBCHEM_SHAPE_SELFOVERLAP>
1155.32

> <PUBCHEM_SHAPE_VOLUME>
294.1

> <PUBCHEM_COORDINATE_TYPE>
2
5
10

$$$$
