984387
  -OEChem-01171812093D

 51 53  0     0  0  0  0  0  0999 V2000
    4.0484    0.8299   -0.7026 S   0  0  0  0  0  0  0  0  0  0  0  0
   -4.8815   -2.4262   -0.7965 O   0  0  0  0  0  0  0  0  0  0  0  0
   -4.1944    2.1437    0.9486 O   0  0  0  0  0  0  0  0  0  0  0  0
    5.0587    1.0204    0.3206 O   0  0  0  0  0  0  0  0  0  0  0  0
    4.4342    0.7083   -2.0954 O   0  0  0  0  0  0  0  0  0  0  0  0
   -3.9046    0.1595   -0.2511 N   0  0  0  0  0  0  0  0  0  0  0  0
    2.8504    2.0508   -0.5286 N   0  0  0  0  0  0  0  0  0  0  0  0
   -3.0421   -0.8439   -0.8867 C   0  0  0  0  0  0  0  0  0  0  0  0
   -5.3366   -0.0780   -0.4259 C   0  0  0  0  0  0  0  0  0  0  0  0
   -3.4939   -2.2474   -0.5012 C   0  0  0  0  0  0  0  0  0  0  0  0
   -5.6869   -1.5103   -0.0497 C   0  0  0  0  0  0  0  0  0  0  0  0
   -3.4682    1.3049    0.4171 C   0  0  0  0  0  0  0  0  0  0  0  0
   -2.0222    1.5510    0.4975 C   0  0  0  0  0  0  0  0  0  0  0  0
    2.1874    2.2674    0.7322 C   0  0  0  0  0  0  0  0  0  0  0  0
    0.7191    2.0179    0.6507 C   0  0  0  0  0  0  0  0  0  0  0  0
    3.1264   -0.6221   -0.2945 C   0  0  0  0  0  0  0  0  0  0  0  0
   -1.3885    2.2888   -0.4989 C   0  0  0  0  0  0  0  0  0  0  0  0
   -1.2923    1.0453    1.5702 C   0  0  0  0  0  0  0  0  0  0  0  0
    2.1437   -1.0958   -1.1493 C   0  0  0  0  0  0  0  0  0  0  0  0
   -0.0155    2.5226   -0.4222 C   0  0  0  0  0  0  0  0  0  0  0  0
    0.0807    1.2791    1.6470 C   0  0  0  0  0  0  0  0  0  0  0  0
    3.4147   -1.2676    0.8983 C   0  0  0  0  0  0  0  0  0  0  0  0
    2.7018   -2.4155    1.2443 C   0  0  0  0  0  0  0  0  0  0  0  0
    1.4308   -2.2437   -0.8031 C   0  0  0  0  0  0  0  0  0  0  0  0
    1.7098   -2.9035    0.3936 C   0  0  0  0  0  0  0  0  0  0  0  0
    1.8192   -0.4126   -2.4374 C   0  0  0  0  0  0  0  0  0  0  0  0
    3.0015   -3.1228    2.5229 C   0  0  0  0  0  0  0  0  0  0  0  0
   -1.9897   -0.7059   -0.6312 H   0  0  0  0  0  0  0  0  0  0  0  0
   -3.1493   -0.6990   -1.9681 H   0  0  0  0  0  0  0  0  0  0  0  0
   -5.5527    0.0973   -1.4864 H   0  0  0  0  0  0  0  0  0  0  0  0
   -5.9289    0.6289    0.1626 H   0  0  0  0  0  0  0  0  0  0  0  0
   -2.9298   -2.9925   -1.0708 H   0  0  0  0  0  0  0  0  0  0  0  0
   -3.3239   -2.4413    0.5646 H   0  0  0  0  0  0  0  0  0  0  0  0
   -5.5408   -1.6904    1.0220 H   0  0  0  0  0  0  0  0  0  0  0  0
   -6.7359   -1.7155   -0.2848 H   0  0  0  0  0  0  0  0  0  0  0  0
    2.3449    3.3112    1.0296 H   0  0  0  0  0  0  0  0  0  0  0  0
    2.6427    1.6598    1.5218 H   0  0  0  0  0  0  0  0  0  0  0  0
    2.5474    2.5820   -1.3525 H   0  0  0  0  0  0  0  0  0  0  0  0
   -1.9529    2.6890   -1.3370 H   0  0  0  0  0  0  0  0  0  0  0  0
   -1.7805    0.4674    2.3505 H   0  0  0  0  0  0  0  0  0  0  0  0
    0.4526    3.1157   -1.2024 H   0  0  0  0  0  0  0  0  0  0  0  0
    0.6400    0.8784    2.4882 H   0  0  0  0  0  0  0  0  0  0  0  0
    4.1824   -0.9019    1.5735 H   0  0  0  0  0  0  0  0  0  0  0  0
    0.6547   -2.6381   -1.4539 H   0  0  0  0  0  0  0  0  0  0  0  0
    1.1483   -3.7977    0.6507 H   0  0  0  0  0  0  0  0  0  0  0  0
    1.6519    0.6588   -2.3212 H   0  0  0  0  0  0  0  0  0  0  0  0
    2.5990   -0.5971   -3.1823 H   0  0  0  0  0  0  0  0  0  0  0  0
    0.8870   -0.8067   -2.8607 H   0  0  0  0  0  0  0  0  0  0  0  0
    3.8405   -3.8116    2.3834 H   0  0  0  0  0  0  0  0  0  0  0  0
    3.2572   -2.4098    3.3141 H   0  0  0  0  0  0  0  0  0  0  0  0
    2.1360   -3.6945    2.8746 H   0  0  0  0  0  0  0  0  0  0  0  0
  1  4  2  0  0  0  0
  1  5  2  0  0  0  0
  1  7  1  0  0  0  0
  1 16  1  0  0  0  0
  2 10  1  0  0  0  0
  2 11  1  0  0  0  0
  3 12  2  0  0  0  0
  6  8  1  0  0  0  0
  6  9  1  0  0  0  0
  6 12  1  0  0  0  0
  7 14  1  0  0  0  0
  7 38  1  0  0  0  0
  8 10  1  0  0  0  0
  8 28  1  0  0  0  0
  8 29  1  0  0  0  0
  9 11  1  0  0  0  0
  9 30  1  0  0  0  0
  9 31  1  0  0  0  0
 10 32  1  0  0  0  0
 10 33  1  0  0  0  0
 11 34  1  0  0  0  0
 11 35  1  0  0  0  0
 12 13  1  0  0  0  0
 13 17  2  0  0  0  0
 13 18  1  0  0  0  0
 14 15  1  0  0  0  0
 14 36  1  0  0  0  0
 14 37  1  0  0  0  0
 15 20  2  0  0  0  0
 15 21  1  0  0  0  0
 16 19  2  0  0  0  0
 16 22  1  0  0  0  0
 17 20  1  0  0  0  0
 17 39  1  0  0  0  0
 18 21  2  0  0  0  0
 18 40  1  0  0  0  0
 19 24  1  0  0  0  0
 19 26  1  0  0  0  0
 20 41  1  0  0  0  0
 21 42  1  0  0  0  0
 22 23  2  0  0  0  0
 22 43  1  0  0  0  0
 23 25  1  0  0  0  0
 23 27  1  0  0  0  0
 24 25  2  0  0  0  0
 24 44  1  0  0  0  0
 25 45  1  0  0  0  0
 26 46  1  0  0  0  0
 26 47  1  0  0  0  0
 26 48  1  0  0  0  0
 27 49  1  0  0  0  0
 27 50  1  0  0  0  0
 27 51  1  0  0  0  0
M  END
> <PUBCHEM_COMPOUND_CID>
984387

> <PUBCHEM_CONFORMER_RMSD>
0.8

> <PUBCHEM_CONFORMER_DIVERSEORDER>
2
65
26
153
88
37
135
156
33
143
85
102
155
38
168
149
147
93
54
42
47
125
124
130
77
20
30
39
122
15
96
90
69
104
112
71
59
55
48
105
91
76
134
64
16
31
148
158
137
10
24
41
22
160
80
87
116
56
67
157
142
129
29
94
101
11
111
120
99
58
43
140
115
78
44
152
13
28
139
40
6
164
63
23
79
14
132
61
17
162
136
35
32
27
81
169
107
66
141
126
159
121
50
34
8
138
75
114
131
25
53
103
144
36
51
166
127
106
92
21
9
98
46
161
86
89
70
118
7
45
119
154
18
83
146
74
12
108
62
145
163
167
84
100
95
82
73
113
133
60
151
97
19
117
52
68
3
110
49
123
165
57
5
72
150
128
1
4
109

> <PUBCHEM_MMFF94_PARTIAL_CHARGES>
35
1 1.45
10 0.28
11 0.28
12 0.54
13 0.09
14 0.5
15 -0.14
16 -0.01
17 -0.15
18 -0.15
19 -0.14
2 -0.56
20 -0.15
21 -0.15
22 -0.15
23 -0.14
24 -0.15
25 -0.15
26 0.14
27 0.14
3 -0.57
38 0.42
39 0.15
4 -0.65
40 0.15
41 0.15
42 0.15
43 0.15
44 0.15
45 0.15
5 -0.65
6 -0.66
7 -0.91
8 0.3
9 0.3

> <PUBCHEM_EFFECTIVE_ROTOR_COUNT>
7.2

> <PUBCHEM_PHARMACOPHORE_FEATURES>
8
1 2 acceptor
1 3 acceptor
1 4 acceptor
1 5 acceptor
1 7 donor
6 13 15 17 18 20 21 rings
6 16 19 22 23 24 25 rings
6 2 6 8 9 10 11 rings

> <PUBCHEM_HEAVY_ATOM_COUNT>
27

> <PUBCHEM_ATOM_DEF_STEREO_COUNT>
0

> <PUBCHEM_ATOM_UDEF_STEREO_COUNT>
0

> <PUBCHEM_BOND_DEF_STEREO_COUNT>
0

> <PUBCHEM_BOND_UDEF_STEREO_COUNT>
0

> <PUBCHEM_ISOTOPIC_ATOM_COUNT>
0

> <PUBCHEM_COMPONENT_COUNT>
1

> <PUBCHEM_CACTVS_TAUTO_COUNT>
1

> <PUBCHEM_CONFORMER_ID>
000F054300000002

> <PUBCHEM_MMFF94_ENERGY>
61.4072

> <PUBCHEM_FEATURE_SELFOVERLAP>
40.616

> <PUBCHEM_SHAPE_FINGERPRINT>
10764073 3 10914764364257798286
11186622 123 18268705185711016167
11578080 2 17896021175232053333
11796584 16 18131354120344620493
12553582 1 18199751345262265477
12596599 1 17773615831097610882
12633257 1 18197214750551573663
12788726 201 18131356276328233921
128993 33 9508592487631483752
13383661 66 17557733483337047854
1361 2 18045223992478010564
13726171 33 18131083618471463385
14117953 113 17692528910428780495
14617045 38 18341057401757275751
14931854 50 18410576214514220351
15183329 4 18342454808544487813
15250474 111 18411133615564748681
15537594 2 18338535070174414897
17138139 8 18198061584879426142
17492 54 18263659522719540124
17909252 39 17774179907076815318
20511986 3 18335970996110092973
20567600 347 18261107517381360314
20626108 58 18339632343939555312
20715895 44 17614271174928599133
20764821 26 17901951073490624211
21054139 6 18409731798485031332
21421861 104 18192158096475374256
22393880 68 18341901770552529540
23559900 14 17628926629338360671
238 59 18261967326863325360
239999 70 18059579139259949524
25222932 49 18340762740688011631
3052486 1 18263361567884528378
3680242 22 18339364050745262955
3797600 57 18060418010823332292
404807 78 17243594271270943275
437795 51 16844160350296024656
439807 62 18260828241945415187
463206 1 18335988592585856160
5309563 4 18051699042856503843
6433294 58 18412260623425791735
6823239 73 17774454775839325844

> <PUBCHEM_SHAPE_MULTIPOLES>
526.06
10.66
3.75
1.78
10.2
1.18
0.02
3.38
-1.4
-0.69
1.08
-1.76
0.6
-2.29

> <PUBCHEM_SHAPE_SELFOVERLAP>
1104.7

> <PUBCHEM_SHAPE_VOLUME>
297.1

> <PUBCHEM_COORDINATE_TYPE>
2
5
10

$$$$
