3237318
  -OEChem-01171811383D

 32 34  0     0  0  0  0  0  0999 V2000
    0.5537    1.1587    2.1135 O   0  0  0  0  0  0  0  0  0  0  0  0
    1.4712   -1.7253    1.9888 O   0  0  0  0  0  0  0  0  0  0  0  0
    0.8882    2.1352   -0.7187 O   0  0  0  0  0  0  0  0  0  0  0  0
   -1.6188    1.9689    0.3415 O   0  0  0  0  0  0  0  0  0  0  0  0
   -0.6100   -0.1092    0.5643 N   0  0  0  0  0  0  0  0  0  0  0  0
    0.6774    0.3636    0.9688 C   0  0  0  0  0  0  0  0  0  0  0  0
    2.7554   -0.6529    0.2960 C   0  0  0  0  0  0  0  0  0  0  0  0
    2.5840    0.4799   -0.4984 C   0  0  0  0  0  0  0  0  0  0  0  0
    1.6163   -0.8063    1.2055 C   0  0  0  0  0  0  0  0  0  0  0  0
    1.3212    1.1440   -0.1626 C   0  0  0  0  0  0  0  0  0  0  0  0
    3.8662   -1.4646    0.1723 C   0  0  0  0  0  0  0  0  0  0  0  0
    3.5169    0.8473   -1.4486 C   0  0  0  0  0  0  0  0  0  0  0  0
   -1.6750    0.7436    0.2775 C   0  0  0  0  0  0  0  0  0  0  0  0
    4.8213   -1.1061   -0.7828 C   0  0  0  0  0  0  0  0  0  0  0  0
    4.6485    0.0384   -1.5853 C   0  0  0  0  0  0  0  0  0  0  0  0
   -2.9559    0.0948   -0.1037 C   0  0  0  0  0  0  0  0  0  0  0  0
   -4.1387    0.7609    0.1419 C   0  0  0  0  0  0  0  0  0  0  0  0
   -2.9216   -1.1526   -0.6916 C   0  0  0  0  0  0  0  0  0  0  0  0
   -5.3414    0.1520   -0.2163 C   0  0  0  0  0  0  0  0  0  0  0  0
   -4.1245   -1.7614   -1.0499 C   0  0  0  0  0  0  0  0  0  0  0  0
   -5.3343   -1.1090   -0.8122 C   0  0  0  0  0  0  0  0  0  0  0  0
   -0.7589   -1.1127    0.5815 H   0  0  0  0  0  0  0  0  0  0  0  0
    4.0015   -2.3472    0.7869 H   0  0  0  0  0  0  0  0  0  0  0  0
    3.3862    1.7263   -2.0693 H   0  0  0  0  0  0  0  0  0  0  0  0
    1.4393    1.4694    2.3683 H   0  0  0  0  0  0  0  0  0  0  0  0
    5.7101   -1.7185   -0.9107 H   0  0  0  0  0  0  0  0  0  0  0  0
    5.4064    0.2936   -2.3214 H   0  0  0  0  0  0  0  0  0  0  0  0
   -4.1619    1.7407    0.6095 H   0  0  0  0  0  0  0  0  0  0  0  0
   -2.0009   -1.6774   -0.9242 H   0  0  0  0  0  0  0  0  0  0  0  0
   -6.2837    0.6593   -0.0306 H   0  0  0  0  0  0  0  0  0  0  0  0
   -4.1193   -2.7399   -1.5212 H   0  0  0  0  0  0  0  0  0  0  0  0
   -6.2707   -1.5825   -1.0927 H   0  0  0  0  0  0  0  0  0  0  0  0
  1  6  1  0  0  0  0
  1 25  1  0  0  0  0
  2  9  2  0  0  0  0
  3 10  2  0  0  0  0
  4 13  2  0  0  0  0
  5  6  1  0  0  0  0
  5 13  1  0  0  0  0
  5 22  1  0  0  0  0
  6  9  1  0  0  0  0
  6 10  1  0  0  0  0
  7  8  1  0  0  0  0
  7  9  1  0  0  0  0
  7 11  2  0  0  0  0
  8 10  1  0  0  0  0
  8 12  2  0  0  0  0
 11 14  1  0  0  0  0
 11 23  1  0  0  0  0
 12 15  1  0  0  0  0
 12 24  1  0  0  0  0
 13 16  1  0  0  0  0
 14 15  2  0  0  0  0
 14 26  1  0  0  0  0
 15 27  1  0  0  0  0
 16 17  2  0  0  0  0
 16 18  1  0  0  0  0
 17 19  1  0  0  0  0
 17 28  1  0  0  0  0
 18 20  2  0  0  0  0
 18 29  1  0  0  0  0
 19 21  2  0  0  0  0
 19 30  1  0  0  0  0
 20 21  1  0  0  0  0
 20 31  1  0  0  0  0
 21 32  1  0  0  0  0
M  END
> <PUBCHEM_COMPOUND_CID>
3237318

> <PUBCHEM_CONFORMER_RMSD>
0.6

> <PUBCHEM_CONFORMER_DIVERSEORDER>
1
3
2

> <PUBCHEM_MMFF94_PARTIAL_CHARGES>
32
1 -0.68
10 0.42
11 -0.15
12 -0.15
13 0.54
14 -0.15
15 -0.15
16 0.09
17 -0.15
18 -0.15
19 -0.15
2 -0.57
20 -0.15
21 -0.15
22 0.37
23 0.15
24 0.15
25 0.4
26 0.15
27 0.15
28 0.15
29 0.15
3 -0.57
30 0.15
31 0.15
32 0.15
4 -0.57
5 -0.73
6 0.7
7 0.09
8 0.09
9 0.42

> <PUBCHEM_EFFECTIVE_ROTOR_COUNT>
3.2

> <PUBCHEM_PHARMACOPHORE_FEATURES>
9
1 1 acceptor
1 1 donor
1 2 acceptor
1 3 acceptor
1 4 acceptor
1 5 donor
5 6 7 8 9 10 rings
6 16 17 18 19 20 21 rings
6 7 8 11 12 14 15 rings

> <PUBCHEM_HEAVY_ATOM_COUNT>
21

> <PUBCHEM_ATOM_DEF_STEREO_COUNT>
0

> <PUBCHEM_ATOM_UDEF_STEREO_COUNT>
0

> <PUBCHEM_BOND_DEF_STEREO_COUNT>
0

> <PUBCHEM_BOND_UDEF_STEREO_COUNT>
0

> <PUBCHEM_ISOTOPIC_ATOM_COUNT>
0

> <PUBCHEM_COMPONENT_COUNT>
1

> <PUBCHEM_CACTVS_TAUTO_COUNT>
2

> <PUBCHEM_CONFORMER_ID>
003165C600000001

> <PUBCHEM_MMFF94_ENERGY>
63.7304

> <PUBCHEM_FEATURE_SELFOVERLAP>
45.81

> <PUBCHEM_SHAPE_FINGERPRINT>
10498660 4 13840254871627524623
10646746 165 12107782991021522727
10670039 82 12757423900508032846
10688039 33 14620800379314214427
11128504 68 18113902675460755759
11545043 162 16845573111057542587
11578080 2 18194373672461902528
11796584 16 17489593341843569087
12236239 1 18408888408087947820
12251169 10 12103557576478648696
12363563 72 16702028599127475923
12553582 1 18337099116915889267
12596602 18 11455884759037568351
12633257 1 13830127317041678095
12670546 177 18113058241977813910
12730499 353 16226054370612825129
12788726 201 18339361838837125201
12969540 114 15719390667853940423
13544653 18 14836412406212965578
13583140 156 14201697389393546360
13675066 3 14548738395966928041
14252887 29 14476967761694979516
14341114 176 11600008760101329143
14386348 63 16630527319086492559
14576447 43 18408603656367902814
15188451 53 14620499169737790445
15209294 21 9007054647677020190
15210252 30 16081084874729256660
15527383 91 14261350258433064306
15537594 2 18408887326415988219
16752209 62 18272079453878768569
17804303 29 17918272069689967433
1813 80 14692585324807401168
18186145 218 16443354169398885440
18915474 69 18410853300102646415
193927 3 16343433855327628790
19784866 140 18334014986594262109
19862831 5 18259702306976616427
200 152 18260551104030643865
20374829 77 18060419118935418287
20645477 70 16950282862818306010
21033648 29 14620223084317606715
21267235 1 18341899615074896247
21637258 2 17632294532591758142
221357 26 17676203559290295957
2215653 11 17418087699038536933
22950370 63 18343588451638541703
231179 274 15140681392970659540
23184049 59 12103843436938799932
23379529 103 18129108977129364518
23402655 69 18040996194211806653
235170 7 16153701021069784431
23559900 14 17774713260273202377
23622692 88 11167941355204440744
239999 70 17346598591140585334
25147074 1 17897160221838570712
2838139 119 14129634327893893406
2871803 45 17967533458641482500
3004659 81 18341897376937921486
3060560 45 17530683221335006878
3472631 163 12612751324519179079
351380 3 18412262844155843135
465052 167 17846220011754433183
5104073 3 17274542143906723459
633830 44 17167869625285524101
7164475 11 18116432532079806188
7808743 9 12468939627216470062
960060 61 18333450949639718334
9981440 41 17400082370957691392

> <PUBCHEM_SHAPE_MULTIPOLES>
403.71
11.14
1.76
1.46
6.9
0.09
-0.41
-4.28
4.81
0.31
0.01
-1.28
-0.1
-1.09

> <PUBCHEM_SHAPE_SELFOVERLAP>
902.457

> <PUBCHEM_SHAPE_VOLUME>
214.5

> <PUBCHEM_COORDINATE_TYPE>
2
5
10

$$$$
