264630
  -OEChem-01171812163D

 23 25  0     0  0  0  0  0  0999 V2000
   -1.7913    1.3863    0.0006 O   0  0  0  0  0  0  0  0  0  0  0  0
    3.0687    1.3395   -0.0007 O   0  0  0  0  0  0  0  0  0  0  0  0
    0.8231   -2.6723    0.0017 O   0  0  0  0  0  0  0  0  0  0  0  0
    0.5761    2.7341    0.0020 O   0  0  0  0  0  0  0  0  0  0  0  0
   -1.9008   -2.6497    0.0001 O   0  0  0  0  0  0  0  0  0  0  0  0
   -0.5396   -0.6854    0.0004 C   0  0  0  0  0  0  0  0  0  0  0  0
   -0.6092    0.6671    0.0006 C   0  0  0  0  0  0  0  0  0  0  0  0
    1.9399   -0.6122   -0.0002 C   0  0  0  0  0  0  0  0  0  0  0  0
    1.8468    0.7557    0.0002 C   0  0  0  0  0  0  0  0  0  0  0  0
    0.7672   -1.4496    0.0006 C   0  0  0  0  0  0  0  0  0  0  0  0
    0.6369    1.5096    0.0010 C   0  0  0  0  0  0  0  0  0  0  0  0
   -1.8399   -1.4246    0.0000 C   0  0  0  0  0  0  0  0  0  0  0  0
   -2.9950    0.7110   -0.0006 C   0  0  0  0  0  0  0  0  0  0  0  0
    3.3235   -0.9038   -0.0013 C   0  0  0  0  0  0  0  0  0  0  0  0
   -3.0804   -0.6238   -0.0010 C   0  0  0  0  0  0  0  0  0  0  0  0
    3.9681    0.3156   -0.0017 C   0  0  0  0  0  0  0  0  0  0  0  0
   -4.1942    1.6027   -0.0015 C   0  0  0  0  0  0  0  0  0  0  0  0
    3.7979   -1.8747   -0.0019 H   0  0  0  0  0  0  0  0  0  0  0  0
   -4.0288   -1.1480   -0.0019 H   0  0  0  0  0  0  0  0  0  0  0  0
    5.0075    0.6100   -0.0025 H   0  0  0  0  0  0  0  0  0  0  0  0
   -4.1898    2.2430    0.8865 H   0  0  0  0  0  0  0  0  0  0  0  0
   -5.1304    1.0350   -0.0025 H   0  0  0  0  0  0  0  0  0  0  0  0
   -4.1883    2.2433   -0.8892 H   0  0  0  0  0  0  0  0  0  0  0  0
  1  7  1  0  0  0  0
  1 13  1  0  0  0  0
  2  9  1  0  0  0  0
  2 16  1  0  0  0  0
  3 10  2  0  0  0  0
  4 11  2  0  0  0  0
  5 12  2  0  0  0  0
  6  7  2  0  0  0  0
  6 10  1  0  0  0  0
  6 12  1  0  0  0  0
  7 11  1  0  0  0  0
  8  9  2  0  0  0  0
  8 10  1  0  0  0  0
  8 14  1  0  0  0  0
  9 11  1  0  0  0  0
 12 15  1  0  0  0  0
 13 15  2  0  0  0  0
 13 17  1  0  0  0  0
 14 16  2  0  0  0  0
 14 18  1  0  0  0  0
 15 19  1  0  0  0  0
 16 20  1  0  0  0  0
 17 21  1  0  0  0  0
 17 22  1  0  0  0  0
 17 23  1  0  0  0  0
M  END
> <PUBCHEM_COMPOUND_CID>
264630

> <PUBCHEM_CONFORMER_RMSD>
0.4

> <PUBCHEM_CONFORMER_DIVERSEORDER>
1

> <PUBCHEM_MMFF94_PARTIAL_CHARGES>
20
1 -0.15
10 0.64
11 0.64
12 0.54
13 -0.06
14 -0.15
15 -0.14
16 -0.01
17 0.14
18 0.15
19 0.15
2 -0.28
20 0.15
3 -0.57
4 -0.57
5 -0.57
6 0.03
7 0.09
8 -0.09
9 0.05

> <PUBCHEM_EFFECTIVE_ROTOR_COUNT>
0

> <PUBCHEM_PHARMACOPHORE_FEATURES>
9
1 1 acceptor
1 2 acceptor
1 3 acceptor
1 4 acceptor
1 5 acceptor
1 6 anion
5 2 8 9 14 16 rings
6 1 6 7 12 13 15 rings
6 6 7 8 9 10 11 rings

> <PUBCHEM_HEAVY_ATOM_COUNT>
17

> <PUBCHEM_ATOM_DEF_STEREO_COUNT>
0

> <PUBCHEM_ATOM_UDEF_STEREO_COUNT>
0

> <PUBCHEM_BOND_DEF_STEREO_COUNT>
0

> <PUBCHEM_BOND_UDEF_STEREO_COUNT>
0

> <PUBCHEM_ISOTOPIC_ATOM_COUNT>
0

> <PUBCHEM_COMPONENT_COUNT>
1

> <PUBCHEM_CACTVS_TAUTO_COUNT>
3

> <PUBCHEM_CONFORMER_ID>
000409B600000001

> <PUBCHEM_MMFF94_ENERGY>
29.9965

> <PUBCHEM_FEATURE_SELFOVERLAP>
45.803

> <PUBCHEM_SHAPE_FINGERPRINT>
10062212 137 18336536174998917378
10411042 1 16897365915685645646
10608611 8 18339921614250428088
10967382 1 18338797788786110278
10980938 120 18336828585099130339
11132069 177 18410288112392097064
11471102 20 18338793416667866541
12382932 28 18411702054074872179
13132413 78 18411983576243761437
13140716 1 18410285913505933362
13221675 6 18410293588227362539
13380535 76 18411417280748206175
14790565 3 18338531732922373276
15196674 1 18410573985162033126
15309172 13 18339652139876235033
15442244 35 18410572903030754136
15536298 74 18271806757388170286
15775835 57 18334860506361259396
16945 1 18410575046024223489
193761 8 17834114530197293316
200 152 18059847394606339445
20510252 161 18199190778788593659
20588541 1 18410857611906822644
20739085 24 17833298340535653105
21267235 1 18410583893662517763
21501502 16 18264490774378229117
2334 1 18338799038932829762
23402539 116 18343292674547349150
23402655 69 18270388388037348517
23463225 33 18335700525045303346
23558518 356 17972597963670057369
23559900 14 18343022186540034700
25 1 18335979775112942679
2748010 2 18411702123079198414
335352 9 18266458707134645982
34934 24 18409159991881576402
350125 39 18193563487284555009
5104073 3 18410292514475009506
528886 8 18411414007945852714
53812653 166 18413385419203948304
57005193 9 18338507547923566785
69090 78 18411696569786646479
7364860 26 18197498411540622150
7832392 63 18411979178196905803
8809292 202 18334017228203525299
9709674 26 18341898501845137831

> <PUBCHEM_SHAPE_MULTIPOLES>
320.51
6.2
2.56
0.59
0.61
0.52
0
-1.55
-0.01
0.55
0
0
0
0

> <PUBCHEM_SHAPE_SELFOVERLAP>
723.968

> <PUBCHEM_SHAPE_VOLUME>
168.2

> <PUBCHEM_COORDINATE_TYPE>
2
5
10

$$$$
