16018740
  -OEChem-01171812173D

 60 63  0     0  0  0  0  0  0999 V2000
   -2.2684   -1.7778   -0.5521 O   0  0  0  0  0  0  0  0  0  0  0  0
   -3.8916   -1.1378    2.3295 O   0  0  0  0  0  0  0  0  0  0  0  0
    5.0036    0.7916    2.0540 O   0  0  0  0  0  0  0  0  0  0  0  0
    0.8640    3.3788   -0.4921 O   0  0  0  0  0  0  0  0  0  0  0  0
   -4.3663    0.0948    0.4478 N   0  0  0  0  0  0  0  0  0  0  0  0
    3.3625   -1.5173    0.1168 N   0  0  0  0  0  0  0  0  0  0  0  0
    2.2439   -1.0650    0.7217 N   0  0  0  0  0  0  0  0  0  0  0  0
    4.5010    1.1189   -0.1900 N   0  0  0  0  0  0  0  0  0  0  0  0
   -4.0869    0.6333   -0.8829 C   0  0  0  0  0  0  0  0  0  0  0  0
   -5.6132    0.6354    0.9723 C   0  0  0  0  0  0  0  0  0  0  0  0
   -5.0658    1.7894   -1.0341 C   0  0  0  0  0  0  0  0  0  0  0  0
   -6.2640    1.3262   -0.2160 C   0  0  0  0  0  0  0  0  0  0  0  0
   -0.1492   -1.4867    0.1255 C   0  0  0  0  0  0  0  0  0  0  0  0
   -0.9660   -2.0013   -0.8524 C   0  0  0  0  0  0  0  0  0  0  0  0
   -0.5623   -2.6686   -2.1199 C   0  0  0  0  0  0  0  0  0  0  0  0
    0.8939   -3.2134   -2.0186 C   0  0  0  0  0  0  0  0  0  0  0  0
    1.7643   -2.4307   -1.0736 C   0  0  0  0  0  0  0  0  0  0  0  0
    1.2817   -1.6200   -0.0097 C   0  0  0  0  0  0  0  0  0  0  0  0
   -0.9712   -0.9050    1.0978 C   0  0  0  0  0  0  0  0  0  0  0  0
   -2.2610   -1.1116    0.6426 C   0  0  0  0  0  0  0  0  0  0  0  0
   -3.5532   -0.7421    1.2125 C   0  0  0  0  0  0  0  0  0  0  0  0
    3.1305   -2.3365   -0.9569 C   0  0  0  0  0  0  0  0  0  0  0  0
   -0.5670   -0.2224    2.3409 C   0  0  0  0  0  0  0  0  0  0  0  0
    4.6560   -1.1297    0.6269 C   0  0  0  0  0  0  0  0  0  0  0  0
    4.7448    0.3490    0.9382 C   0  0  0  0  0  0  0  0  0  0  0  0
    4.5257    2.5632   -0.1738 C   0  0  0  0  0  0  0  0  0  0  0  0
    3.1637    3.1665    0.1430 C   0  0  0  0  0  0  0  0  0  0  0  0
    2.0893    2.7577   -0.8575 C   0  0  0  0  0  0  0  0  0  0  0  0
   -0.1826    3.0358   -1.3902 C   0  0  0  0  0  0  0  0  0  0  0  0
   -1.4562    3.7253   -0.9495 C   0  0  0  0  0  0  0  0  0  0  0  0
   -3.0443    0.9488   -0.9747 H   0  0  0  0  0  0  0  0  0  0  0  0
   -4.2899   -0.1590   -1.6114 H   0  0  0  0  0  0  0  0  0  0  0  0
   -6.2317   -0.1605    1.3976 H   0  0  0  0  0  0  0  0  0  0  0  0
   -5.3613    1.3488    1.7650 H   0  0  0  0  0  0  0  0  0  0  0  0
   -4.6450    2.6998   -0.5906 H   0  0  0  0  0  0  0  0  0  0  0  0
   -5.3136    1.9977   -2.0784 H   0  0  0  0  0  0  0  0  0  0  0  0
   -6.8519    0.6044   -0.7956 H   0  0  0  0  0  0  0  0  0  0  0  0
   -6.9228    2.1463    0.0817 H   0  0  0  0  0  0  0  0  0  0  0  0
   -0.6093   -1.9270   -2.9267 H   0  0  0  0  0  0  0  0  0  0  0  0
   -1.2491   -3.4808   -2.3796 H   0  0  0  0  0  0  0  0  0  0  0  0
    0.8533   -4.2469   -1.6501 H   0  0  0  0  0  0  0  0  0  0  0  0
    1.3421   -3.2486   -3.0181 H   0  0  0  0  0  0  0  0  0  0  0  0
    3.9377   -2.7794   -1.5241 H   0  0  0  0  0  0  0  0  0  0  0  0
   -1.4253    0.1779    2.8891 H   0  0  0  0  0  0  0  0  0  0  0  0
    0.1009    0.6165    2.1187 H   0  0  0  0  0  0  0  0  0  0  0  0
   -0.0398   -0.9151    3.0051 H   0  0  0  0  0  0  0  0  0  0  0  0
    5.4234   -1.3919   -0.1089 H   0  0  0  0  0  0  0  0  0  0  0  0
    4.8302   -1.7070    1.5408 H   0  0  0  0  0  0  0  0  0  0  0  0
    4.3061    0.6621   -1.0762 H   0  0  0  0  0  0  0  0  0  0  0  0
    4.8682    2.8918   -1.1608 H   0  0  0  0  0  0  0  0  0  0  0  0
    5.2598    2.9000    0.5662 H   0  0  0  0  0  0  0  0  0  0  0  0
    3.2426    4.2603    0.1656 H   0  0  0  0  0  0  0  0  0  0  0  0
    2.8442    2.8685    1.1498 H   0  0  0  0  0  0  0  0  0  0  0  0
    1.9538    1.6705   -0.8562 H   0  0  0  0  0  0  0  0  0  0  0  0
    2.3761    3.0771   -1.8663 H   0  0  0  0  0  0  0  0  0  0  0  0
   -0.3323    1.9500   -1.3892 H   0  0  0  0  0  0  0  0  0  0  0  0
    0.0791    3.3581   -2.4041 H   0  0  0  0  0  0  0  0  0  0  0  0
   -1.7378    3.4060    0.0594 H   0  0  0  0  0  0  0  0  0  0  0  0
   -1.3155    4.8106   -0.9131 H   0  0  0  0  0  0  0  0  0  0  0  0
   -2.2789    3.4990   -1.6334 H   0  0  0  0  0  0  0  0  0  0  0  0
  1 14  1  0  0  0  0
  1 20  1  0  0  0  0
  2 21  2  0  0  0  0
  3 25  2  0  0  0  0
  4 28  1  0  0  0  0
  4 29  1  0  0  0  0
  5  9  1  0  0  0  0
  5 10  1  0  0  0  0
  5 21  1  0  0  0  0
  6  7  1  0  0  0  0
  6 22  1  0  0  0  0
  6 24  1  0  0  0  0
  7 18  2  0  0  0  0
  8 25  1  0  0  0  0
  8 26  1  0  0  0  0
  8 49  1  0  0  0  0
  9 11  1  0  0  0  0
  9 31  1  0  0  0  0
  9 32  1  0  0  0  0
 10 12  1  0  0  0  0
 10 33  1  0  0  0  0
 10 34  1  0  0  0  0
 11 12  1  0  0  0  0
 11 35  1  0  0  0  0
 11 36  1  0  0  0  0
 12 37  1  0  0  0  0
 12 38  1  0  0  0  0
 13 14  2  0  0  0  0
 13 18  1  0  0  0  0
 13 19  1  0  0  0  0
 14 15  1  0  0  0  0
 15 16  1  0  0  0  0
 15 39  1  0  0  0  0
 15 40  1  0  0  0  0
 16 17  1  0  0  0  0
 16 41  1  0  0  0  0
 16 42  1  0  0  0  0
 17 18  1  0  0  0  0
 17 22  2  0  0  0  0
 19 20  2  0  0  0  0
 19 23  1  0  0  0  0
 20 21  1  0  0  0  0
 22 43  1  0  0  0  0
 23 44  1  0  0  0  0
 23 45  1  0  0  0  0
 23 46  1  0  0  0  0
 24 25  1  0  0  0  0
 24 47  1  0  0  0  0
 24 48  1  0  0  0  0
 26 27  1  0  0  0  0
 26 50  1  0  0  0  0
 26 51  1  0  0  0  0
 27 28  1  0  0  0  0
 27 52  1  0  0  0  0
 27 53  1  0  0  0  0
 28 54  1  0  0  0  0
 28 55  1  0  0  0  0
 29 30  1  0  0  0  0
 29 56  1  0  0  0  0
 29 57  1  0  0  0  0
 30 58  1  0  0  0  0
 30 59  1  0  0  0  0
 30 60  1  0  0  0  0
M  END
> <PUBCHEM_COMPOUND_CID>
16018740

> <PUBCHEM_CONFORMER_RMSD>
1.2

> <PUBCHEM_CONFORMER_DIVERSEORDER>
1
37
80
82
95
46
41
29
49
31
91
44
27
81
33
88
90
3
89
63
68
100
30
99
23
6
55
86
11
78
26
73
101
70
93
83
10
96
77
14
45
43
17
32
9
40
62
84
67
48
34
25
47
61
79
4
87
65
97
72
69
92
75
85
94
51
16
64
24
12
56
50
38
5
13
76
98
8
20
71
52
42
15
59
7
74
53
66
57
2
19
54
35
58
28
22
36
18
39
60
21

> <PUBCHEM_MMFF94_PARTIAL_CHARGES>
27
1 -0.28
10 0.3
14 -0.04
15 0.18
16 0.18
17 -0.18
18 0.29
19 -0.18
2 -0.57
20 0.05
21 0.71
22 -0.3
23 0.18
24 0.32
25 0.57
26 0.3
28 0.28
29 0.28
3 -0.57
4 -0.56
43 0.15
49 0.37
5 -0.66
6 0.31
7 -0.71
8 -0.73
9 0.3

> <PUBCHEM_EFFECTIVE_ROTOR_COUNT>
11.4

> <PUBCHEM_PHARMACOPHORE_FEATURES>
10
1 1 acceptor
1 2 acceptor
1 3 acceptor
1 4 acceptor
1 7 acceptor
1 8 donor
5 1 13 14 19 20 rings
5 5 9 10 11 12 rings
5 6 7 17 18 22 rings
6 13 14 15 16 17 18 rings

> <PUBCHEM_HEAVY_ATOM_COUNT>
30

> <PUBCHEM_ATOM_DEF_STEREO_COUNT>
0

> <PUBCHEM_ATOM_UDEF_STEREO_COUNT>
0

> <PUBCHEM_BOND_DEF_STEREO_COUNT>
0

> <PUBCHEM_BOND_UDEF_STEREO_COUNT>
0

> <PUBCHEM_ISOTOPIC_ATOM_COUNT>
0

> <PUBCHEM_COMPONENT_COUNT>
1

> <PUBCHEM_CACTVS_TAUTO_COUNT>
2

> <PUBCHEM_CONFORMER_ID>
00F46D3400000001

> <PUBCHEM_MMFF94_ENERGY>
45.0167

> <PUBCHEM_FEATURE_SELFOVERLAP>
50.938

> <PUBCHEM_SHAPE_FINGERPRINT>
10006869 2 18046045091276291866
10673678 19 18131632271026816679
10763959 59 18410017620047754030
10864689 126 17039232017871528973
11513181 2 17487352442704340789
11828532 37 17458921439470372539
12403259 118 18339071722170047362
12422481 6 18334849532910144568
13402501 40 18261669281834591621
13583140 156 18260274018769629211
13642711 20 17970608724271930255
13965767 371 18200010955298918578
14117953 113 18343584002226457836
14251764 38 18337957783536244225
14840074 17 18339933709131586600
150020 26 18046077209438091641
15238133 3 17894635868306781662
15840311 113 17414452598002803817
15968369 153 18341040857021785429
20715895 44 18342454803267812441
20764821 26 18193539276628125060
21033650 10 15122971537438743106
21475661 188 18187364345810397712
23227448 37 18338236075947261807
23559900 14 17775006730846384822
2838139 119 18336254666041932317
3298306 158 18263376947867464749
345986 75 13045939105525482415
3493558 16 17484534338715735833
4409770 3 16324035953785669014
474 4 18341057423301203930
5265222 85 17684953666051167492
6034566 193 18199191874005357886
6287921 2 17986115114882873589

> <PUBCHEM_SHAPE_MULTIPOLES>
573.98
11.53
4.54
1.86
6.72
2.93
-0.4
5.55
-3.19
-2.86
2.87
0.43
-0.77
1.35

> <PUBCHEM_SHAPE_SELFOVERLAP>
1216.604

> <PUBCHEM_SHAPE_VOLUME>
325.6

> <PUBCHEM_COORDINATE_TYPE>
2
5
10

$$$$
