16229731
  -OEChem-01171812053D

 63 64  0     1  0  0  0  0  0999 V2000
   -2.3412   -4.6084   -0.0216 O   0  0  0  0  0  0  0  0  0  0  0  0
    0.0100   -2.8518   -0.5706 O   0  0  0  0  0  0  0  0  0  0  0  0
    1.4224    2.9952    0.9656 O   0  0  0  0  0  0  0  0  0  0  0  0
    1.9435   -2.9989    1.4257 O   0  0  0  0  0  0  0  0  0  0  0  0
    4.0155    1.9064   -1.1346 O   0  0  0  0  0  0  0  0  0  0  0  0
    5.4753    0.4428   -0.1219 O   0  0  0  0  0  0  0  0  0  0  0  0
   -4.7309    1.5068    0.4565 N   0  0  0  0  0  0  0  0  0  0  0  0
   -2.5830   -1.0895   -1.1483 N   0  0  0  0  0  0  0  0  0  0  0  0
   -3.6968    1.0220   -0.4671 C   0  0  2  0  0  0  0  0  0  0  0  0
   -3.7738   -0.5160   -0.5358 C   0  0  0  0  0  0  0  0  0  0  0  0
   -2.3250    1.5506   -0.0832 C   0  0  0  0  0  0  0  0  0  0  0  0
   -2.6709   -2.5427   -1.1966 C   0  0  0  0  0  0  0  0  0  0  0  0
   -2.2620   -3.1882    0.1296 C   0  0  2  0  0  0  0  0  0  0  0  0
   -4.7423    2.9668    0.4802 C   0  0  0  0  0  0  0  0  0  0  0  0
   -6.0388    0.9865    0.0680 C   0  0  0  0  0  0  0  0  0  0  0  0
   -1.7597    1.1984    1.1425 C   0  0  0  0  0  0  0  0  0  0  0  0
   -1.6309    2.3883   -0.9562 C   0  0  0  0  0  0  0  0  0  0  0  0
   -0.8452   -2.8242    0.5680 C   0  0  0  0  0  0  0  0  0  0  0  0
   -0.5004    1.6836    1.4950 C   0  0  0  0  0  0  0  0  0  0  0  0
   -0.3717    2.8737   -0.6035 C   0  0  0  0  0  0  0  0  0  0  0  0
    0.1937    2.5214    0.6220 C   0  0  0  0  0  0  0  0  0  0  0  0
    1.0729   -1.9887   -0.5627 C   0  0  0  0  0  0  0  0  0  0  0  0
    2.0401   -2.0643    0.4395 C   0  0  0  0  0  0  0  0  0  0  0  0
    1.1833   -1.0273   -1.5673 C   0  0  0  0  0  0  0  0  0  0  0  0
    3.1178   -1.1785    0.4369 C   0  0  0  0  0  0  0  0  0  0  0  0
    3.2280   -0.2170   -0.5676 C   0  0  0  0  0  0  0  0  0  0  0  0
    2.2607   -0.1413   -1.5697 C   0  0  0  0  0  0  0  0  0  0  0  0
    1.9414    2.5956    2.2332 C   0  0  0  0  0  0  0  0  0  0  0  0
    4.3519    0.7059   -0.5709 C   0  0  0  0  0  0  0  0  0  0  0  0
    2.9736   -3.0094    2.4121 C   0  0  0  0  0  0  0  0  0  0  0  0
    5.0424    2.9021   -1.1975 C   0  0  0  0  0  0  0  0  0  0  0  0
   -3.9192    1.3889   -1.4813 H   0  0  0  0  0  0  0  0  0  0  0  0
   -4.6512   -0.8248   -1.1173 H   0  0  0  0  0  0  0  0  0  0  0  0
   -3.8818   -0.9190    0.4791 H   0  0  0  0  0  0  0  0  0  0  0  0
   -2.5018   -0.7291   -2.0992 H   0  0  0  0  0  0  0  0  0  0  0  0
   -3.6717   -2.8833   -1.4932 H   0  0  0  0  0  0  0  0  0  0  0  0
   -2.0174   -2.9110   -1.9978 H   0  0  0  0  0  0  0  0  0  0  0  0
   -2.9675   -2.9284    0.9262 H   0  0  0  0  0  0  0  0  0  0  0  0
   -3.8318    3.3873    0.9191 H   0  0  0  0  0  0  0  0  0  0  0  0
   -5.5570    3.3292    1.1189 H   0  0  0  0  0  0  0  0  0  0  0  0
   -4.8869    3.3998   -0.5168 H   0  0  0  0  0  0  0  0  0  0  0  0
   -6.8282    1.4605    0.6646 H   0  0  0  0  0  0  0  0  0  0  0  0
   -6.2716    1.1727   -0.9870 H   0  0  0  0  0  0  0  0  0  0  0  0
   -6.1413   -0.0826    0.2797 H   0  0  0  0  0  0  0  0  0  0  0  0
   -2.2868    0.5468    1.8344 H   0  0  0  0  0  0  0  0  0  0  0  0
   -2.0570    2.6720   -1.9147 H   0  0  0  0  0  0  0  0  0  0  0  0
   -0.8503   -1.8248    1.0207 H   0  0  0  0  0  0  0  0  0  0  0  0
   -0.4843   -3.5473    1.3070 H   0  0  0  0  0  0  0  0  0  0  0  0
   -0.1198    1.3693    2.4608 H   0  0  0  0  0  0  0  0  0  0  0  0
    0.1650    3.5249   -1.2880 H   0  0  0  0  0  0  0  0  0  0  0  0
   -2.1431   -5.0082    0.8424 H   0  0  0  0  0  0  0  0  0  0  0  0
    0.4342   -0.9644   -2.3518 H   0  0  0  0  0  0  0  0  0  0  0  0
    3.8948   -1.1896    1.1939 H   0  0  0  0  0  0  0  0  0  0  0  0
    2.3254    0.5898   -2.3713 H   0  0  0  0  0  0  0  0  0  0  0  0
    1.3217    2.9665    3.0565 H   0  0  0  0  0  0  0  0  0  0  0  0
    2.0924    1.5120    2.2830 H   0  0  0  0  0  0  0  0  0  0  0  0
    2.9273    3.0599    2.3391 H   0  0  0  0  0  0  0  0  0  0  0  0
    3.9495   -3.2467    1.9750 H   0  0  0  0  0  0  0  0  0  0  0  0
    2.9888   -2.0787    2.9896 H   0  0  0  0  0  0  0  0  0  0  0  0
    2.7371   -3.8147    3.1153 H   0  0  0  0  0  0  0  0  0  0  0  0
    5.3745    3.1639   -0.1886 H   0  0  0  0  0  0  0  0  0  0  0  0
    5.8813    2.5414   -1.7998 H   0  0  0  0  0  0  0  0  0  0  0  0
    4.6238    3.7928   -1.6731 H   0  0  0  0  0  0  0  0  0  0  0  0
  1 13  1  0  0  0  0
  1 51  1  0  0  0  0
  2 18  1  0  0  0  0
  2 22  1  0  0  0  0
  3 21  1  0  0  0  0
  3 28  1  0  0  0  0
  4 23  1  0  0  0  0
  4 30  1  0  0  0  0
  5 29  1  0  0  0  0
  5 31  1  0  0  0  0
  6 29  2  0  0  0  0
  7  9  1  0  0  0  0
  7 14  1  0  0  0  0
  7 15  1  0  0  0  0
  8 10  1  0  0  0  0
  8 12  1  0  0  0  0
  8 35  1  0  0  0  0
  9 10  1  0  0  0  0
  9 11  1  0  0  0  0
  9 32  1  0  0  0  0
 10 33  1  0  0  0  0
 10 34  1  0  0  0  0
 11 16  2  0  0  0  0
 11 17  1  0  0  0  0
 12 13  1  0  0  0  0
 12 36  1  0  0  0  0
 12 37  1  0  0  0  0
 13 18  1  0  0  0  0
 13 38  1  0  0  0  0
 14 39  1  0  0  0  0
 14 40  1  0  0  0  0
 14 41  1  0  0  0  0
 15 42  1  0  0  0  0
 15 43  1  0  0  0  0
 15 44  1  0  0  0  0
 16 19  1  0  0  0  0
 16 45  1  0  0  0  0
 17 20  2  0  0  0  0
 17 46  1  0  0  0  0
 18 47  1  0  0  0  0
 18 48  1  0  0  0  0
 19 21  2  0  0  0  0
 19 49  1  0  0  0  0
 20 21  1  0  0  0  0
 20 50  1  0  0  0  0
 22 23  2  0  0  0  0
 22 24  1  0  0  0  0
 23 25  1  0  0  0  0
 24 27  2  0  0  0  0
 24 52  1  0  0  0  0
 25 26  2  0  0  0  0
 25 53  1  0  0  0  0
 26 27  1  0  0  0  0
 26 29  1  0  0  0  0
 27 54  1  0  0  0  0
 28 55  1  0  0  0  0
 28 56  1  0  0  0  0
 28 57  1  0  0  0  0
 30 58  1  0  0  0  0
 30 59  1  0  0  0  0
 30 60  1  0  0  0  0
 31 61  1  0  0  0  0
 31 62  1  0  0  0  0
 31 63  1  0  0  0  0
M  END
> <PUBCHEM_COMPOUND_CID>
16229731

> <PUBCHEM_CONFORMER_RMSD>
1.2

> <PUBCHEM_CONFORMER_DIVERSEORDER>
2
118
61
97
102
74
14
25
88
77
1
57
116
117
51
31
9
84
48
52
26
56
111
4
67
96
5
75
44
114
10
35
3
92
32
38
13
112
87
34
78
47
83
60
36
81
64
69
68
19
17
101
71
80
62
72
70
15
105
46
100
11
86
53
115
59
93
20
91
66
22
113
89
76
63
103
55
7
45
58
99
104
12
54
90
110
119
6
41
95
65
39
24
28
33
40
79
21
23
8
98
49
18
27
29
16
30
109
106
82
42
73
85
107
50
108
94
37
43

> <PUBCHEM_MMFF94_PARTIAL_CHARGES>
40
1 -0.68
10 0.27
11 -0.14
12 0.27
13 0.28
14 0.27
15 0.27
16 -0.15
17 -0.15
18 0.28
19 -0.15
2 -0.36
20 -0.15
21 0.08
22 0.08
23 0.08
24 -0.15
25 -0.15
26 0.09
27 -0.15
28 0.28
29 0.63
3 -0.36
30 0.28
31 0.28
35 0.36
4 -0.36
45 0.15
46 0.15
49 0.15
5 -0.43
50 0.15
51 0.4
52 0.15
53 0.15
54 0.15
6 -0.57
7 -0.81
8 -0.9
9 0.41

> <PUBCHEM_EFFECTIVE_ROTOR_COUNT>
13

> <PUBCHEM_PHARMACOPHORE_FEATURES>
11
1 1 acceptor
1 1 donor
1 2 acceptor
1 3 acceptor
1 4 acceptor
1 6 acceptor
1 7 cation
1 8 cation
1 8 donor
6 11 16 17 19 20 21 rings
6 22 23 24 25 26 27 rings

> <PUBCHEM_HEAVY_ATOM_COUNT>
31

> <PUBCHEM_ATOM_DEF_STEREO_COUNT>
0

> <PUBCHEM_ATOM_UDEF_STEREO_COUNT>
2

> <PUBCHEM_BOND_DEF_STEREO_COUNT>
0

> <PUBCHEM_BOND_UDEF_STEREO_COUNT>
0

> <PUBCHEM_ISOTOPIC_ATOM_COUNT>
0

> <PUBCHEM_COMPONENT_COUNT>
1

> <PUBCHEM_CACTVS_TAUTO_COUNT>
1

> <PUBCHEM_CONFORMER_ID>
00F7A56300000002

> <PUBCHEM_MMFF94_ENERGY>
110.9077

> <PUBCHEM_FEATURE_SELFOVERLAP>
55.828

> <PUBCHEM_SHAPE_FINGERPRINT>
10675989 125 17834116347148710541
1100329 8 18411418397682055892
11112241 14 16270215271389638184
12156800 1 18194659670323025674
12553582 1 18058155138341637605
12788726 201 17702669835032035257
13402501 40 18343022211276175517
13617811 41 18335129917704192901
14114211 68 18190206553651620254
14117953 113 17907292148410655629
14363568 33 16173709190336462441
14765038 42 18200613435398388313
14787075 74 18272089396179972189
14790565 3 18268437836992765225
14932702 115 18199763607531493856
15297060 5 17988932149899733130
15968369 153 17700963603818392743
17492 54 18409721855598707703
19319366 153 18187363212176934915
20642791 35 18125995212324445127
20691752 17 18264466499687185333
20715895 44 17398098366987190605
20764821 26 18047753986044318799
20905425 154 17839746207269434903
23559900 14 17700979842377472558
238918 7 17194301052089567576
3052486 1 18192418882963846328
3680242 22 18267305318218819483
463206 1 18410014355519570660
469060 322 17606988327311583027
5171179 24 17628913731609612048
56638632 33 18046322181645262482

> <PUBCHEM_SHAPE_MULTIPOLES>
592.79
9.74
5.35
1.66
2.39
2.91
0.63
-5.28
-1.19
0.37
1.06
-1.38
0.01
-1.98

> <PUBCHEM_SHAPE_SELFOVERLAP>
1227.119

> <PUBCHEM_SHAPE_VOLUME>
341.2

> <PUBCHEM_COORDINATE_TYPE>
2
5
10

$$$$
