768666
  -OEChem-01171811483D

 32 33  0     0  0  0  0  0  0999 V2000
    5.6591   -0.0769   -0.0622 S   0  0  0  0  0  0  0  0  0  0  0  0
    5.9781   -1.3730   -0.6443 O   0  0  0  0  0  0  0  0  0  0  0  0
    6.2521    1.1314   -0.6178 O   0  0  0  0  0  0  0  0  0  0  0  0
   -5.3083    1.0954   -0.0142 O   0  0  0  0  0  0  0  0  0  0  0  0
   -1.0278   -1.6558   -0.0547 O   0  0  0  0  0  0  0  0  0  0  0  0
   -0.2377    0.5600   -0.0334 N   0  0  0  0  0  0  0  0  0  0  0  0
    5.9888   -0.1289    1.6135 N   0  0  0  0  0  0  0  0  0  0  0  0
    3.9230    0.1107   -0.0538 C   0  0  0  0  0  0  0  0  0  0  0  0
    1.1494    0.4101   -0.0405 C   0  0  0  0  0  0  0  0  0  0  0  0
    3.3593    1.3865   -0.0386 C   0  0  0  0  0  0  0  0  0  0  0  0
    3.1000   -1.0153   -0.0620 C   0  0  0  0  0  0  0  0  0  0  0  0
    1.9725    1.5361   -0.0321 C   0  0  0  0  0  0  0  0  0  0  0  0
    1.7132   -0.8657   -0.0555 C   0  0  0  0  0  0  0  0  0  0  0  0
   -1.2155   -0.4449   -0.0400 C   0  0  0  0  0  0  0  0  0  0  0  0
   -2.5974    0.1288   -0.0285 C   0  0  0  0  0  0  0  0  0  0  0  0
   -5.0173   -0.2208    0.0136 C   0  0  0  0  0  0  0  0  0  0  0  0
   -3.6621   -0.6879   -0.0152 C   0  0  0  0  0  0  0  0  0  0  0  0
   -6.1417   -0.9902    0.0679 C   0  0  0  0  0  0  0  0  0  0  0  0
   -7.2236   -0.0776    0.0745 C   0  0  0  0  0  0  0  0  0  0  0  0
   -6.6642    1.1779    0.0231 C   0  0  0  0  0  0  0  0  0  0  0  0
    3.9812    2.2772   -0.0253 H   0  0  0  0  0  0  0  0  0  0  0  0
    3.5186   -2.0180   -0.0670 H   0  0  0  0  0  0  0  0  0  0  0  0
    1.5469    2.5364   -0.0188 H   0  0  0  0  0  0  0  0  0  0  0  0
    1.1438   -1.7843   -0.0608 H   0  0  0  0  0  0  0  0  0  0  0  0
   -0.5620    1.5249   -0.0219 H   0  0  0  0  0  0  0  0  0  0  0  0
    6.2757   -1.0299    2.0152 H   0  0  0  0  0  0  0  0  0  0  0  0
    6.4609    0.6818    2.0320 H   0  0  0  0  0  0  0  0  0  0  0  0
   -2.7047    1.2087   -0.0237 H   0  0  0  0  0  0  0  0  0  0  0  0
   -3.5214   -1.7659   -0.0155 H   0  0  0  0  0  0  0  0  0  0  0  0
   -6.1978   -2.0694    0.0991 H   0  0  0  0  0  0  0  0  0  0  0  0
   -8.2788   -0.3063    0.1117 H   0  0  0  0  0  0  0  0  0  0  0  0
   -7.0720    2.1781    0.0074 H   0  0  0  0  0  0  0  0  0  0  0  0
  1  2  2  0  0  0  0
  1  3  2  0  0  0  0
  1  7  1  0  0  0  0
  1  8  1  0  0  0  0
  4 16  1  0  0  0  0
  4 20  1  0  0  0  0
  5 14  2  0  0  0  0
  6  9  1  0  0  0  0
  6 14  1  0  0  0  0
  6 25  1  0  0  0  0
  7 26  1  0  0  0  0
  7 27  1  0  0  0  0
  8 10  2  0  0  0  0
  8 11  1  0  0  0  0
  9 12  2  0  0  0  0
  9 13  1  0  0  0  0
 10 12  1  0  0  0  0
 10 21  1  0  0  0  0
 11 13  2  0  0  0  0
 11 22  1  0  0  0  0
 12 23  1  0  0  0  0
 13 24  1  0  0  0  0
 14 15  1  0  0  0  0
 15 17  2  0  0  0  0
 15 28  1  0  0  0  0
 16 17  1  0  0  0  0
 16 18  2  0  0  0  0
 17 29  1  0  0  0  0
 18 19  1  0  0  0  0
 18 30  1  0  0  0  0
 19 20  2  0  0  0  0
 19 31  1  0  0  0  0
 20 32  1  0  0  0  0
M  END
> <PUBCHEM_COMPOUND_CID>
768666

> <PUBCHEM_CONFORMER_RMSD>
0.8

> <PUBCHEM_CONFORMER_DIVERSEORDER>
2
8
10
7
9
3
12
13
4
6
11
5
1

> <PUBCHEM_MMFF94_PARTIAL_CHARGES>
32
1 1.45
10 -0.15
11 -0.15
12 -0.15
13 -0.15
14 0.62
15 -0.14
16 0.09
17 -0.11
18 -0.15
19 -0.15
2 -0.65
20 -0.01
21 0.15
22 0.15
23 0.15
24 0.15
25 0.37
26 0.42
27 0.42
28 0.15
29 0.15
3 -0.65
30 0.15
31 0.15
32 0.15
4 -0.28
5 -0.57
6 -0.55
7 -0.98
8 -0.01
9 0.12

> <PUBCHEM_EFFECTIVE_ROTOR_COUNT>
5

> <PUBCHEM_PHARMACOPHORE_FEATURES>
8
1 2 acceptor
1 3 acceptor
1 4 acceptor
1 5 acceptor
1 6 donor
1 7 donor
5 4 16 18 19 20 rings
6 8 9 10 11 12 13 rings

> <PUBCHEM_HEAVY_ATOM_COUNT>
20

> <PUBCHEM_ATOM_DEF_STEREO_COUNT>
0

> <PUBCHEM_ATOM_UDEF_STEREO_COUNT>
0

> <PUBCHEM_BOND_DEF_STEREO_COUNT>
1

> <PUBCHEM_BOND_UDEF_STEREO_COUNT>
0

> <PUBCHEM_ISOTOPIC_ATOM_COUNT>
0

> <PUBCHEM_COMPONENT_COUNT>
1

> <PUBCHEM_CACTVS_TAUTO_COUNT>
2

> <PUBCHEM_CONFORMER_ID>
000BBA9A00000002

> <PUBCHEM_MMFF94_ENERGY>
28.4318

> <PUBCHEM_FEATURE_SELFOVERLAP>
40.615

> <PUBCHEM_SHAPE_FINGERPRINT>
10638233 991 16153719729461607804
11089746 13 17775280586566040081
11315181 36 18412266147586924553
11719270 70 18273214175385420830
12091667 2 18341895204227677783
12166972 35 18411983585066311369
12236239 1 18131633391491093511
12516196 113 17918273160015873793
13167372 99 18410857637903934473
13533116 47 16702027431303014910
14123256 10 9439403536320044555
14170010 4 18272369780672449344
1420 363 11169912779626772505
14251752 14 18201719539895428169
14251764 18 18261109690634740111
14251764 46 18409729564521626198
14933364 13 18408888443012273029
15183329 4 18411421696037721217
19489759 90 14620800392810681411
20281389 69 18113897169450202525
21150785 3 9583514348278095322
21267235 1 18411987944568022428
21315763 28 18411136948501477301
21521721 280 12324252667440060838
220451 1 16587742044621473123
22224240 67 11239993439358347780
23035841 295 12396299266409514769
23402539 116 18131346432257845037
23536379 177 18411700980749688601
23559900 14 18271239529779301761
29717793 49 17918280844028747548
300161 21 17489863847537011535
3004659 81 18334579044739111460
335352 9 18411139151851504990
3545911 37 18411982468627183695
4072396 5 18412256230180468386
4073 2 17968383453991613162
4214541 1 18410856577705856093
42788 4 18410575093785776493
4340502 62 14045743716492184900
4463277 17 18409167714090486220
5104073 3 18263359359706797458
54446538 1 18411982468838589545
59755656 215 18409733928282589999
59755656 520 17822006541097438475
8209 1 18411419513893466021

> <PUBCHEM_SHAPE_MULTIPOLES>
382
20.26
1.38
0.73
13.03
0.09
-0.15
0.98
-0.68
-0.35
0.09
-0.81
-0.02
-0.01

> <PUBCHEM_SHAPE_SELFOVERLAP>
803.137

> <PUBCHEM_SHAPE_VOLUME>
214.5

> <PUBCHEM_COORDINATE_TYPE>
2
5
10

$$$$
