6283998
  -OEChem-01171812053D

 38 41  0     0  0  0  0  0  0999 V2000
   -5.3442   -2.9508    0.2390 F   0  0  0  0  0  0  0  0  0  0  0  0
   -1.3866   -1.3354   -1.1891 O   0  0  0  0  0  0  0  0  0  0  0  0
    1.8023    1.9573   -0.0176 O   0  0  0  0  0  0  0  0  0  0  0  0
   -2.5570    2.5702    1.1668 O   0  0  0  0  0  0  0  0  0  0  0  0
   -2.0672    0.5755    0.0044 N   0  0  0  0  0  0  0  0  0  0  0  0
    4.6439    0.3010   -1.7033 N   0  0  0  0  0  0  0  0  0  0  0  0
   -0.4317    2.2520    0.4355 N   0  0  0  0  0  0  0  0  0  0  0  0
    2.6542   -0.3564   -0.9711 C   0  0  0  0  0  0  0  0  0  0  0  0
    3.6076   -0.5933    0.0583 C   0  0  0  0  0  0  0  0  0  0  0  0
    4.8476   -0.1721   -0.4266 C   0  0  0  0  0  0  0  0  0  0  0  0
    0.2843    0.1902   -0.5258 C   0  0  0  0  0  0  0  0  0  0  0  0
    1.2670   -0.6199   -0.9469 C   0  0  0  0  0  0  0  0  0  0  0  0
    3.3216    0.1939   -2.0412 C   0  0  0  0  0  0  0  0  0  0  0  0
   -1.1228   -0.2908   -0.5937 C   0  0  0  0  0  0  0  0  0  0  0  0
    3.5344   -1.1274    1.3602 C   0  0  0  0  0  0  0  0  0  0  0  0
   -3.4477    0.1359    0.0485 C   0  0  0  0  0  0  0  0  0  0  0  0
    0.6517    1.5308   -0.0283 C   0  0  0  0  0  0  0  0  0  0  0  0
    6.0228   -0.2587    0.3284 C   0  0  0  0  0  0  0  0  0  0  0  0
   -1.7627    1.8487    0.5560 C   0  0  0  0  0  0  0  0  0  0  0  0
    4.7017   -1.2200    2.1269 C   0  0  0  0  0  0  0  0  0  0  0  0
    5.9257   -0.7918    1.6169 C   0  0  0  0  0  0  0  0  0  0  0  0
   -3.7313   -1.2210    0.1235 C   0  0  0  0  0  0  0  0  0  0  0  0
   -4.4669    1.0778    0.0163 C   0  0  0  0  0  0  0  0  0  0  0  0
   -5.0597   -1.6441    0.1673 C   0  0  0  0  0  0  0  0  0  0  0  0
   -5.7953    0.6547    0.0600 C   0  0  0  0  0  0  0  0  0  0  0  0
   -6.0917   -0.7063    0.1353 C   0  0  0  0  0  0  0  0  0  0  0  0
    1.0047   -1.6101   -1.3157 H   0  0  0  0  0  0  0  0  0  0  0  0
    2.9790    0.5207   -3.0137 H   0  0  0  0  0  0  0  0  0  0  0  0
    5.3666    0.6736   -2.3034 H   0  0  0  0  0  0  0  0  0  0  0  0
    2.5882   -1.4654    1.7733 H   0  0  0  0  0  0  0  0  0  0  0  0
    6.9761    0.0746   -0.0678 H   0  0  0  0  0  0  0  0  0  0  0  0
   -0.2193    3.1748    0.8052 H   0  0  0  0  0  0  0  0  0  0  0  0
    4.6511   -1.6309    3.1317 H   0  0  0  0  0  0  0  0  0  0  0  0
    6.8198   -0.8729    2.2297 H   0  0  0  0  0  0  0  0  0  0  0  0
   -2.9751   -1.9900    0.2336 H   0  0  0  0  0  0  0  0  0  0  0  0
   -4.3037    2.1393   -0.1316 H   0  0  0  0  0  0  0  0  0  0  0  0
   -6.6000    1.3829    0.0146 H   0  0  0  0  0  0  0  0  0  0  0  0
   -7.1259   -1.0363    0.1645 H   0  0  0  0  0  0  0  0  0  0  0  0
  1 24  1  0  0  0  0
  2 14  2  0  0  0  0
  3 17  2  0  0  0  0
  4 19  2  0  0  0  0
  5 14  1  0  0  0  0
  5 16  1  0  0  0  0
  5 19  1  0  0  0  0
  6 10  1  0  0  0  0
  6 13  1  0  0  0  0
  6 29  1  0  0  0  0
  7 17  1  0  0  0  0
  7 19  1  0  0  0  0
  7 32  1  0  0  0  0
  8  9  1  0  0  0  0
  8 12  1  0  0  0  0
  8 13  2  0  0  0  0
  9 10  1  0  0  0  0
  9 15  2  0  0  0  0
 10 18  2  0  0  0  0
 11 12  2  0  0  0  0
 11 14  1  0  0  0  0
 11 17  1  0  0  0  0
 12 27  1  0  0  0  0
 13 28  1  0  0  0  0
 15 20  1  0  0  0  0
 15 30  1  0  0  0  0
 16 22  2  0  0  0  0
 16 23  1  0  0  0  0
 18 21  1  0  0  0  0
 18 31  1  0  0  0  0
 20 21  2  0  0  0  0
 20 33  1  0  0  0  0
 21 34  1  0  0  0  0
 22 24  1  0  0  0  0
 22 35  1  0  0  0  0
 23 25  2  0  0  0  0
 23 36  1  0  0  0  0
 24 26  2  0  0  0  0
 25 26  1  0  0  0  0
 25 37  1  0  0  0  0
 26 38  1  0  0  0  0
M  END
> <PUBCHEM_COMPOUND_CID>
6283998

> <PUBCHEM_CONFORMER_RMSD>
0.6

> <PUBCHEM_CONFORMER_DIVERSEORDER>
1
6
8
2
7
3
5
4

> <PUBCHEM_MMFF94_PARTIAL_CHARGES>
37
1 -0.19
10 -0.15
11 0.03
12 -0.1
13 -0.3
14 0.62
15 -0.15
16 0.12
17 0.62
18 -0.15
19 0.69
2 -0.57
20 -0.15
21 -0.15
22 -0.15
23 -0.15
24 0.19
25 -0.15
26 -0.15
27 0.15
28 0.15
29 0.27
3 -0.57
30 0.15
31 0.15
32 0.37
33 0.15
34 0.15
35 0.15
36 0.15
37 0.15
38 0.15
4 -0.57
5 -0.24
6 0.03
7 -0.49
8 -0.05

> <PUBCHEM_EFFECTIVE_ROTOR_COUNT>
2.4

> <PUBCHEM_PHARMACOPHORE_FEATURES>
11
1 11 anion
1 2 acceptor
1 3 acceptor
1 4 acceptor
1 6 cation
1 6 donor
1 7 donor
5 6 8 9 10 13 rings
6 16 22 23 24 25 26 rings
6 5 7 11 14 17 19 rings
6 9 10 15 18 20 21 rings

> <PUBCHEM_HEAVY_ATOM_COUNT>
26

> <PUBCHEM_ATOM_DEF_STEREO_COUNT>
0

> <PUBCHEM_ATOM_UDEF_STEREO_COUNT>
0

> <PUBCHEM_BOND_DEF_STEREO_COUNT>
1

> <PUBCHEM_BOND_UDEF_STEREO_COUNT>
0

> <PUBCHEM_ISOTOPIC_ATOM_COUNT>
0

> <PUBCHEM_COMPONENT_COUNT>
1

> <PUBCHEM_CACTVS_TAUTO_COUNT>
8

> <PUBCHEM_CONFORMER_ID>
005FE2DE00000001

> <PUBCHEM_MMFF94_ENERGY>
87.6906

> <PUBCHEM_FEATURE_SELFOVERLAP>
55.913

> <PUBCHEM_SHAPE_FINGERPRINT>
10 15 17917981798783791394
10165383 225 16487254396685236660
10319926 262 17914890942770537178
11578080 2 17969195925135631692
11607047 403 15545968225569464251
11796584 16 18040157318464037979
11963148 33 17401767922720921671
12107183 9 17246380094084566385
12166972 35 17821447959046226708
12236239 1 18186522090339858222
12403259 415 16845576370510497644
12516196 113 17846781810514128825
12596602 18 18334853927077939320
12788726 201 18410866446654641833
13140716 1 18057597866107972559
13533116 47 17603303739772518552
14251752 14 17603578591836000845
15183329 4 13912599433588842529
15250474 111 18113333150176953939
15927050 60 17694219280945298404
16988056 13 12597183451061673252
17138139 8 17969218009113487283
17349148 13 18041003916525931974
17857418 61 18040432196186040819
18681886 176 18342188786611915980
18785283 64 17273963821795949128
200 152 16877944906305672132
20028762 73 18059856233328288711
20511986 3 17967521376856189754
20567600 247 17385435548713971387
21033648 29 16773506673027675491
21267235 1 18271821123884821277
22061861 79 15140681375522011971
22182313 1 17631740348165694644
23522609 53 17970096429189925317
23536379 177 17022621957745101373
23559900 14 18341330080741632753
23569914 152 14062002139103432195
3004659 81 18335430079280969172
335352 9 18341617023728396757
3383291 50 18202002175331908911
339767 52 18411132524236853931
3411729 13 18127967723452890856
3882209 13 16766162193354032767
3886686 26 17115218171471715250
397830 11 16486119759887025303
4015057 19 16081661066188085557
439807 62 17749957782060511219
469060 322 18272104768015384073
5104073 3 18272094958874432953
59682541 52 15357687578928352274
67856867 119 18261115222205029764
7495541 125 18334015029201271333
8863177 126 17973456683038042427

> <PUBCHEM_SHAPE_MULTIPOLES>
495.24
15.37
2.05
1.45
2.58
0.18
0.04
-6.41
-3.12
2.47
-0.63
-2.47
-0.13
-1.61

> <PUBCHEM_SHAPE_SELFOVERLAP>
1117.664

> <PUBCHEM_SHAPE_VOLUME>
258.8

> <PUBCHEM_COORDINATE_TYPE>
2
5
10

$$$$
