8087998
  -OEChem-01171812083D

 38 40  0     0  0  0  0  0  0999 V2000
   -0.3834    2.4713    0.4113 S   0  0  0  0  0  0  0  0  0  0  0  0
   -3.4303   -2.8667    0.8372 S   0  0  0  0  0  0  0  0  0  0  0  0
    5.9243   -2.2463    0.0471 F   0  0  0  0  0  0  0  0  0  0  0  0
   -0.8237    3.1599   -0.7922 O   0  0  0  0  0  0  0  0  0  0  0  0
   -0.4795    3.1499    1.6947 O   0  0  0  0  0  0  0  0  0  0  0  0
   -2.5780    1.4505   -1.3551 O   0  0  0  0  0  0  0  0  0  0  0  0
   -2.9044   -0.5788   -0.2400 N   0  0  0  0  0  0  0  0  0  0  0  0
    1.2680    2.0282    0.1960 N   0  0  0  0  0  0  0  0  0  0  0  0
   -1.5740   -1.1129    1.6766 N   0  0  0  0  0  0  0  0  0  0  0  0
   -1.2336    0.9754    0.5330 C   0  0  0  0  0  0  0  0  0  0  0  0
   -2.3055    0.6560   -0.4600 C   0  0  0  0  0  0  0  0  0  0  0  0
   -0.9367    0.1004    1.5166 C   0  0  0  0  0  0  0  0  0  0  0  0
   -2.4962   -1.3821    0.8170 C   0  0  0  0  0  0  0  0  0  0  0  0
   -3.9273   -1.1417   -0.9989 C   0  0  0  0  0  0  0  0  0  0  0  0
    1.6166    1.2133   -0.9844 C   0  0  0  0  0  0  0  0  0  0  0  0
    2.7679    0.2897   -0.7093 C   0  0  0  0  0  0  0  0  0  0  0  0
   -4.3176   -2.3488   -0.5597 C   0  0  0  0  0  0  0  0  0  0  0  0
    0.1211    0.3127    2.5730 C   0  0  0  0  0  0  0  0  0  0  0  0
   -4.5212   -0.4565   -2.1822 C   0  0  0  0  0  0  0  0  0  0  0  0
    4.0677    0.7210   -0.9452 C   0  0  0  0  0  0  0  0  0  0  0  0
    2.5212   -0.9880   -0.2212 C   0  0  0  0  0  0  0  0  0  0  0  0
    5.1366   -0.1379   -0.6893 C   0  0  0  0  0  0  0  0  0  0  0  0
    3.5900   -1.8469    0.0346 C   0  0  0  0  0  0  0  0  0  0  0  0
    4.8978   -1.4219   -0.1995 C   0  0  0  0  0  0  0  0  0  0  0  0
    1.9692    2.7409    0.4373 H   0  0  0  0  0  0  0  0  0  0  0  0
    1.8686    1.8904   -1.8098 H   0  0  0  0  0  0  0  0  0  0  0  0
    0.7604    0.6222   -1.3268 H   0  0  0  0  0  0  0  0  0  0  0  0
   -5.0945   -2.9549   -1.0047 H   0  0  0  0  0  0  0  0  0  0  0  0
    0.7410    1.2013    2.4844 H   0  0  0  0  0  0  0  0  0  0  0  0
   -0.3562    0.3564    3.5589 H   0  0  0  0  0  0  0  0  0  0  0  0
    0.8087   -0.5415    2.5771 H   0  0  0  0  0  0  0  0  0  0  0  0
   -3.7621   -0.2773   -2.9502 H   0  0  0  0  0  0  0  0  0  0  0  0
   -5.3101   -1.0624   -2.6416 H   0  0  0  0  0  0  0  0  0  0  0  0
   -4.9726    0.4980   -1.8937 H   0  0  0  0  0  0  0  0  0  0  0  0
    4.2653    1.7196   -1.3246 H   0  0  0  0  0  0  0  0  0  0  0  0
    1.5072   -1.3310   -0.0371 H   0  0  0  0  0  0  0  0  0  0  0  0
    6.1549    0.1930   -0.8706 H   0  0  0  0  0  0  0  0  0  0  0  0
    3.4043   -2.8467    0.4158 H   0  0  0  0  0  0  0  0  0  0  0  0
  1  4  2  0  0  0  0
  1  5  2  0  0  0  0
  1  8  1  0  0  0  0
  1 10  1  0  0  0  0
  2 13  1  0  0  0  0
  2 17  1  0  0  0  0
  3 24  1  0  0  0  0
  6 11  2  0  0  0  0
  7 11  1  0  0  0  0
  7 13  1  0  0  0  0
  7 14  1  0  0  0  0
  8 15  1  0  0  0  0
  8 25  1  0  0  0  0
  9 12  1  0  0  0  0
  9 13  2  0  0  0  0
 10 11  1  0  0  0  0
 10 12  2  0  0  0  0
 12 18  1  0  0  0  0
 14 17  2  0  0  0  0
 14 19  1  0  0  0  0
 15 16  1  0  0  0  0
 15 26  1  0  0  0  0
 15 27  1  0  0  0  0
 16 20  2  0  0  0  0
 16 21  1  0  0  0  0
 17 28  1  0  0  0  0
 18 29  1  0  0  0  0
 18 30  1  0  0  0  0
 18 31  1  0  0  0  0
 19 32  1  0  0  0  0
 19 33  1  0  0  0  0
 19 34  1  0  0  0  0
 20 22  1  0  0  0  0
 20 35  1  0  0  0  0
 21 23  2  0  0  0  0
 21 36  1  0  0  0  0
 22 24  2  0  0  0  0
 22 37  1  0  0  0  0
 23 24  1  0  0  0  0
 23 38  1  0  0  0  0
M  END
> <PUBCHEM_COMPOUND_CID>
8087998

> <PUBCHEM_CONFORMER_RMSD>
0.8

> <PUBCHEM_CONFORMER_DIVERSEORDER>
2
39
6
16
8
36
22
33
26
31
40
18
30
42
25
38
27
34
13
7
19
21
14
20
28
41
23
35
4
10
17
12
11
37
24
29
15
3
32
9
5
1

> <PUBCHEM_MMFF94_PARTIAL_CHARGES>
29
1 1.45
11 0.62
12 0.03
13 0.65
14 -0.03
15 0.5
16 -0.14
17 -0.05
18 0.14
19 0.14
2 -0.24
20 -0.15
21 -0.15
22 -0.15
23 -0.15
24 0.19
25 0.42
28 0.15
3 -0.19
35 0.15
36 0.15
37 0.15
38 0.15
4 -0.65
5 -0.65
6 -0.57
7 -0.23
8 -0.91
9 -0.62

> <PUBCHEM_EFFECTIVE_ROTOR_COUNT>
4

> <PUBCHEM_PHARMACOPHORE_FEATURES>
7
1 4 acceptor
1 5 acceptor
1 6 acceptor
1 8 donor
5 2 7 13 14 17 rings
6 16 20 21 22 23 24 rings
6 7 9 10 11 12 13 rings

> <PUBCHEM_HEAVY_ATOM_COUNT>
24

> <PUBCHEM_ATOM_DEF_STEREO_COUNT>
0

> <PUBCHEM_ATOM_UDEF_STEREO_COUNT>
0

> <PUBCHEM_BOND_DEF_STEREO_COUNT>
0

> <PUBCHEM_BOND_UDEF_STEREO_COUNT>
0

> <PUBCHEM_ISOTOPIC_ATOM_COUNT>
0

> <PUBCHEM_COMPONENT_COUNT>
1

> <PUBCHEM_CACTVS_TAUTO_COUNT>
1

> <PUBCHEM_CONFORMER_ID>
007B69BE00000002

> <PUBCHEM_MMFF94_ENERGY>
55.8214

> <PUBCHEM_FEATURE_SELFOVERLAP>
35.641

> <PUBCHEM_SHAPE_FINGERPRINT>
105312 117 14056724534660143026
11045515 52 18333735740442198053
11370993 144 11743576365875335014
11578080 2 17560792251818672585
1200032 147 15214965369543439141
12363563 72 18342747342053871420
12553582 1 18198645352497158790
12633257 1 15410607116770758374
12788726 201 18126559020980798705
12892183 10 12535356713592118991
13544653 18 18272372005196548188
13583140 156 14188743922457163846
13631057 29 18411705383465667940
13911987 19 17397008097944731292
13994607 96 11818998469752418455
14251740 79 18040996202722457455
14251757 17 17749101231640584559
14341114 328 14836127714337619578
14790565 3 17977384928635644949
14866123 147 18339647742209707401
14950920 106 14117527493559381262
15163728 17 12540966340365433087
15352361 1 18409731789515412166
17349148 13 17968100790015290626
17980427 23 11239998971434610859
1813 80 17489039261113528181
200 152 18411704291942808854
20626108 58 17702941569053981951
20775438 99 17403992200078381975
21475661 188 9941323950128287995
21756936 100 7997677680770186442
22393880 68 17748818640094085762
23419403 2 17273953848728893617
23526113 38 17751646687058621145
23559900 14 18261385710713283076
27216 239 10592041340972609365
2838139 119 13912590680556211734
3027735 51 18268995280302059143
38695281 34 17544194879063534197
46194498 28 17388821065628126591
463206 1 18338521970324383978
469060 322 15194702542384716884
474 4 8501835630488369291
57527585 103 17461476609034203738
5924683 9 18269838631975183080
6438754 60 18334852835629160731
6669772 16 17550955127923710876
9709674 26 18187091650321911532

> <PUBCHEM_SHAPE_MULTIPOLES>
461.78
10.26
3.22
1.76
8.84
1.1
0.55
-9.17
-4.61
-0.61
0.55
-1.46
0.35
0.15

> <PUBCHEM_SHAPE_SELFOVERLAP>
974.493

> <PUBCHEM_SHAPE_VOLUME>
262.3

> <PUBCHEM_COORDINATE_TYPE>
2
5
10

$$$$
