2737879
  -OEChem-01171811393D

 40 42  0     1  0  0  0  0  0999 V2000
   -0.9708    1.9501   -0.9952 O   0  0  0  0  0  0  0  0  0  0  0  0
   -0.7552   -2.0641    1.5476 O   0  0  0  0  0  0  0  0  0  0  0  0
    0.5113    3.7239   -0.9392 N   0  0  0  0  0  0  0  0  0  0  0  0
    3.2669    2.6837    1.1758 N   0  0  0  0  0  0  0  0  0  0  0  0
   -3.6364   -0.4894   -0.0022 C   0  0  0  0  0  0  0  0  0  0  0  0
   -2.8874    0.4798   -0.9385 C   0  0  0  0  0  0  0  0  0  0  0  0
   -2.7466   -1.7100    0.2769 C   0  0  0  0  0  0  0  0  0  0  0  0
   -0.7451   -0.0669    0.2659 C   0  0  0  0  0  0  0  0  0  0  0  0
   -1.4712    0.7488   -0.5158 C   0  0  0  0  0  0  0  0  0  0  0  0
    0.6762    0.2748    0.6581 C   0  0  2  0  0  0  0  0  0  0  0  0
   -1.3674   -1.3273    0.7753 C   0  0  0  0  0  0  0  0  0  0  0  0
   -4.0158    0.2127    1.3187 C   0  0  0  0  0  0  0  0  0  0  0  0
   -4.9346   -0.9527   -0.6868 C   0  0  0  0  0  0  0  0  0  0  0  0
    1.0498    1.6999    0.2625 C   0  0  0  0  0  0  0  0  0  0  0  0
    1.6742   -0.7275    0.1009 C   0  0  0  0  0  0  0  0  0  0  0  0
    0.2440    2.4477   -0.5260 C   0  0  0  0  0  0  0  0  0  0  0  0
    1.4610   -1.2858   -1.1544 C   0  0  0  0  0  0  0  0  0  0  0  0
    2.7906   -1.0770    0.8519 C   0  0  0  0  0  0  0  0  0  0  0  0
    2.2745    2.2434    0.7671 C   0  0  0  0  0  0  0  0  0  0  0  0
    2.3765   -2.2058   -1.6655 C   0  0  0  0  0  0  0  0  0  0  0  0
    3.7062   -1.9969    0.3408 C   0  0  0  0  0  0  0  0  0  0  0  0
    3.4991   -2.5614   -0.9179 C   0  0  0  0  0  0  0  0  0  0  0  0
   -3.4389    1.4275   -0.9953 H   0  0  0  0  0  0  0  0  0  0  0  0
   -2.8579    0.0765   -1.9595 H   0  0  0  0  0  0  0  0  0  0  0  0
   -2.6061   -2.3102   -0.6307 H   0  0  0  0  0  0  0  0  0  0  0  0
   -3.2169   -2.3532    1.0307 H   0  0  0  0  0  0  0  0  0  0  0  0
    0.7077    0.2264    1.7574 H   0  0  0  0  0  0  0  0  0  0  0  0
   -4.6671    1.0740    1.1312 H   0  0  0  0  0  0  0  0  0  0  0  0
   -4.5558   -0.4704    1.9844 H   0  0  0  0  0  0  0  0  0  0  0  0
   -3.1399    0.5777    1.8643 H   0  0  0  0  0  0  0  0  0  0  0  0
   -5.5885   -0.1024   -0.9111 H   0  0  0  0  0  0  0  0  0  0  0  0
   -4.7243   -1.4684   -1.6306 H   0  0  0  0  0  0  0  0  0  0  0  0
   -5.4931   -1.6459   -0.0478 H   0  0  0  0  0  0  0  0  0  0  0  0
    0.6101   -1.0173   -1.7729 H   0  0  0  0  0  0  0  0  0  0  0  0
    2.9621   -0.6486    1.8354 H   0  0  0  0  0  0  0  0  0  0  0  0
   -0.1610    4.1962   -1.5302 H   0  0  0  0  0  0  0  0  0  0  0  0
    1.3649    4.1923   -0.6647 H   0  0  0  0  0  0  0  0  0  0  0  0
    2.2181   -2.6419   -2.6475 H   0  0  0  0  0  0  0  0  0  0  0  0
    4.5800   -2.2744    0.9232 H   0  0  0  0  0  0  0  0  0  0  0  0
    4.2125   -3.2769   -1.3162 H   0  0  0  0  0  0  0  0  0  0  0  0
  1  9  1  0  0  0  0
  1 16  1  0  0  0  0
  2 11  2  0  0  0  0
  3 16  1  0  0  0  0
  3 36  1  0  0  0  0
  3 37  1  0  0  0  0
  4 19  3  0  0  0  0
  5  6  1  0  0  0  0
  5  7  1  0  0  0  0
  5 12  1  0  0  0  0
  5 13  1  0  0  0  0
  6  9  1  0  0  0  0
  6 23  1  0  0  0  0
  6 24  1  0  0  0  0
  7 11  1  0  0  0  0
  7 25  1  0  0  0  0
  7 26  1  0  0  0  0
  8  9  2  0  0  0  0
  8 10  1  0  0  0  0
  8 11  1  0  0  0  0
 10 14  1  0  0  0  0
 10 15  1  0  0  0  0
 10 27  1  0  0  0  0
 12 28  1  0  0  0  0
 12 29  1  0  0  0  0
 12 30  1  0  0  0  0
 13 31  1  0  0  0  0
 13 32  1  0  0  0  0
 13 33  1  0  0  0  0
 14 16  2  0  0  0  0
 14 19  1  0  0  0  0
 15 17  2  0  0  0  0
 15 18  1  0  0  0  0
 17 20  1  0  0  0  0
 17 34  1  0  0  0  0
 18 21  2  0  0  0  0
 18 35  1  0  0  0  0
 20 22  2  0  0  0  0
 20 38  1  0  0  0  0
 21 22  1  0  0  0  0
 21 39  1  0  0  0  0
 22 40  1  0  0  0  0
M  END
> <PUBCHEM_COMPOUND_CID>
2737879

> <PUBCHEM_CONFORMER_RMSD>
0.6

> <PUBCHEM_CONFORMER_DIVERSEORDER>
4
1
2
3

> <PUBCHEM_MMFF94_PARTIAL_CHARGES>
26
1 -0.15
10 0.42
11 0.49
14 -0.07
15 -0.14
16 0.18
17 -0.15
18 -0.15
19 0.49
2 -0.57
20 -0.15
21 -0.15
22 -0.15
3 -0.9
34 0.15
35 0.15
36 0.4
37 0.4
38 0.15
39 0.15
4 -0.56
40 0.15
6 0.14
7 0.06
8 -0.12
9 -0.06

> <PUBCHEM_EFFECTIVE_ROTOR_COUNT>
2

> <PUBCHEM_PHARMACOPHORE_FEATURES>
9
1 1 acceptor
1 2 acceptor
1 3 cation
1 3 donor
1 4 acceptor
3 5 12 13 hydrophobe
6 1 8 9 10 14 16 rings
6 15 17 18 20 21 22 rings
6 5 6 7 8 9 11 rings

> <PUBCHEM_HEAVY_ATOM_COUNT>
22

> <PUBCHEM_ATOM_DEF_STEREO_COUNT>
0

> <PUBCHEM_ATOM_UDEF_STEREO_COUNT>
1

> <PUBCHEM_BOND_DEF_STEREO_COUNT>
0

> <PUBCHEM_BOND_UDEF_STEREO_COUNT>
0

> <PUBCHEM_ISOTOPIC_ATOM_COUNT>
0

> <PUBCHEM_COMPONENT_COUNT>
1

> <PUBCHEM_CACTVS_TAUTO_COUNT>
10

> <PUBCHEM_CONFORMER_ID>
0029C6D700000004

> <PUBCHEM_MMFF94_ENERGY>
52.1671

> <PUBCHEM_FEATURE_SELFOVERLAP>
45.69

> <PUBCHEM_SHAPE_FINGERPRINT>
10906281 52 18335150825071492528
1100329 8 16390418946425689171
11582403 64 15818951222943540704
11680986 33 18335987587642753459
116883 192 18340206271792571917
12363563 72 18337676312791002535
12422481 6 18196345161819771800
12553582 1 18263087630243509115
12714826 92 17970079845998668471
12788726 201 18046359534912986242
13140716 1 18263918839628037985
13533116 47 18059854008977606163
13681431 1 18269012975783031326
14181834 199 18201444713248555942
14790565 3 17546453271731367428
15848700 24 18411980222022093671
15848702 151 18272931592517760823
16752209 62 17823415989943546387
16945 1 18130786720219154165
17357779 13 18268982099031051591
17492 89 18269837678662158015
1813 80 18340500954094313799
19141452 34 18058731295799425183
19591789 44 17043454138231956729
20645477 70 18340473548092646943
20691752 17 17675922088735139473
20905425 154 18335975424580428404
21041028 32 18272375218038171609
22182313 1 18187630402245237365
2334 1 18334007285602395045
23402539 116 18265609888237016966
23419403 2 18190718908922079732
23493267 7 15647340697883889099
23557571 272 18054798278387875678
23559900 14 18186803591155197734
2748010 2 18261096449061136877
352729 6 16823047119453802307
5845 1 11854044350652270454
7364860 26 18271245027226430168
81228 2 18050868623302417162
84936 31 18060139890005024812
9709674 26 18263080092982073411

> <PUBCHEM_SHAPE_MULTIPOLES>
431.05
7.03
3.51
1.33
4.42
2.6
0.04
-3.97
-0.14
-3.25
0.55
-0.13
-0.2
1.22

> <PUBCHEM_SHAPE_SELFOVERLAP>
936.761

> <PUBCHEM_SHAPE_VOLUME>
231.7

> <PUBCHEM_COORDINATE_TYPE>
2
5
10

$$$$
