11958691
  -OEChem-01171811423D

 52 54  0     0  0  0  0  0  0999 V2000
    4.8903    1.2991    0.6726 O   0  0  0  0  0  0  0  0  0  0  0  0
   -1.8587   -0.3659    2.5550 O   0  0  0  0  0  0  0  0  0  0  0  0
   -6.8068    1.5822   -1.8071 O   0  0  0  0  0  0  0  0  0  0  0  0
    4.2278   -0.7594   -0.2584 N   0  0  0  0  0  0  0  0  0  0  0  0
    3.1834   -1.6016   -0.3802 N   0  0  0  0  0  0  0  0  0  0  0  0
   -1.9481   -1.6544    0.6293 N   0  0  0  0  0  0  0  0  0  0  0  0
    2.6597    0.2480    0.8300 C   0  0  0  0  0  0  0  0  0  0  0  0
    3.9693    0.3707    0.4610 C   0  0  0  0  0  0  0  0  0  0  0  0
    5.4849   -1.1137   -0.8773 C   0  0  0  0  0  0  0  0  0  0  0  0
    2.1829   -1.0025    0.2896 C   0  0  0  0  0  0  0  0  0  0  0  0
    5.5881   -0.5909   -2.3084 C   0  0  0  0  0  0  0  0  0  0  0  0
    0.8546   -1.4140    0.5034 C   0  0  0  0  0  0  0  0  0  0  0  0
    1.9412    1.1669    1.5843 C   0  0  0  0  0  0  0  0  0  0  0  0
    0.0968   -0.4998    1.2680 C   0  0  0  0  0  0  0  0  0  0  0  0
    0.6166    0.7298    1.7821 C   0  0  0  0  0  0  0  0  0  0  0  0
    6.9105   -0.9826   -2.9468 C   0  0  0  0  0  0  0  0  0  0  0  0
   -1.2945   -0.8280    1.5490 C   0  0  0  0  0  0  0  0  0  0  0  0
    4.6385    2.6369    0.1919 C   0  0  0  0  0  0  0  0  0  0  0  0
   -3.3325   -2.0496    0.7562 C   0  0  0  0  0  0  0  0  0  0  0  0
   -4.2573   -1.0834    0.0742 C   0  0  0  0  0  0  0  0  0  0  0  0
    5.9594    3.3007   -0.1338 C   0  0  0  0  0  0  0  0  0  0  0  0
   -4.5926   -1.2781   -1.2603 C   0  0  0  0  0  0  0  0  0  0  0  0
   -4.7680   -0.0035    0.7844 C   0  0  0  0  0  0  0  0  0  0  0  0
   -5.4512   -0.3797   -1.8939 C   0  0  0  0  0  0  0  0  0  0  0  0
   -5.6267    0.8948    0.1509 C   0  0  0  0  0  0  0  0  0  0  0  0
   -5.9683    0.7068   -1.1883 C   0  0  0  0  0  0  0  0  0  0  0  0
   -7.2993    2.6711   -1.0275 C   0  0  0  0  0  0  0  0  0  0  0  0
    5.5705   -2.2068   -0.8543 H   0  0  0  0  0  0  0  0  0  0  0  0
    6.2933   -0.7126   -0.2555 H   0  0  0  0  0  0  0  0  0  0  0  0
    4.7631   -0.9862   -2.9133 H   0  0  0  0  0  0  0  0  0  0  0  0
    5.4907    0.5013   -2.3183 H   0  0  0  0  0  0  0  0  0  0  0  0
    0.4943   -2.3622    0.1293 H   0  0  0  0  0  0  0  0  0  0  0  0
    2.3134    2.0968    1.9892 H   0  0  0  0  0  0  0  0  0  0  0  0
   -0.0368    1.3836    2.3608 H   0  0  0  0  0  0  0  0  0  0  0  0
    7.0207   -2.0711   -2.9847 H   0  0  0  0  0  0  0  0  0  0  0  0
    6.9654   -0.5997   -3.9706 H   0  0  0  0  0  0  0  0  0  0  0  0
    7.7544   -0.5704   -2.3843 H   0  0  0  0  0  0  0  0  0  0  0  0
    4.1222    3.2008    0.9748 H   0  0  0  0  0  0  0  0  0  0  0  0
    4.0094    2.6089   -0.7060 H   0  0  0  0  0  0  0  0  0  0  0  0
   -3.4301   -3.0502    0.3198 H   0  0  0  0  0  0  0  0  0  0  0  0
   -3.5898   -2.1409    1.8181 H   0  0  0  0  0  0  0  0  0  0  0  0
   -1.4775   -1.9438   -0.2214 H   0  0  0  0  0  0  0  0  0  0  0  0
    6.4965    2.7325   -0.9005 H   0  0  0  0  0  0  0  0  0  0  0  0
    6.6045    3.3295    0.7504 H   0  0  0  0  0  0  0  0  0  0  0  0
    5.8061    4.3221   -0.4930 H   0  0  0  0  0  0  0  0  0  0  0  0
   -4.1941   -2.1197   -1.8200 H   0  0  0  0  0  0  0  0  0  0  0  0
   -4.5125    0.1518    1.8287 H   0  0  0  0  0  0  0  0  0  0  0  0
   -5.7134   -0.5312   -2.9374 H   0  0  0  0  0  0  0  0  0  0  0  0
   -5.9927    1.7160    0.7578 H   0  0  0  0  0  0  0  0  0  0  0  0
   -7.9496    3.2658   -1.6774 H   0  0  0  0  0  0  0  0  0  0  0  0
   -7.9154    2.3215   -0.1922 H   0  0  0  0  0  0  0  0  0  0  0  0
   -6.4882    3.3293   -0.6981 H   0  0  0  0  0  0  0  0  0  0  0  0
  1  8  1  0  0  0  0
  1 18  1  0  0  0  0
  2 17  2  0  0  0  0
  3 26  1  0  0  0  0
  3 27  1  0  0  0  0
  4  5  1  0  0  0  0
  4  8  1  0  0  0  0
  4  9  1  0  0  0  0
  5 10  2  0  0  0  0
  6 17  1  0  0  0  0
  6 19  1  0  0  0  0
  6 42  1  0  0  0  0
  7  8  2  0  0  0  0
  7 10  1  0  0  0  0
  7 13  1  0  0  0  0
  9 11  1  0  0  0  0
  9 28  1  0  0  0  0
  9 29  1  0  0  0  0
 10 12  1  0  0  0  0
 11 16  1  0  0  0  0
 11 30  1  0  0  0  0
 11 31  1  0  0  0  0
 12 14  2  0  0  0  0
 12 32  1  0  0  0  0
 13 15  2  0  0  0  0
 13 33  1  0  0  0  0
 14 15  1  0  0  0  0
 14 17  1  0  0  0  0
 15 34  1  0  0  0  0
 16 35  1  0  0  0  0
 16 36  1  0  0  0  0
 16 37  1  0  0  0  0
 18 21  1  0  0  0  0
 18 38  1  0  0  0  0
 18 39  1  0  0  0  0
 19 20  1  0  0  0  0
 19 40  1  0  0  0  0
 19 41  1  0  0  0  0
 20 22  2  0  0  0  0
 20 23  1  0  0  0  0
 21 43  1  0  0  0  0
 21 44  1  0  0  0  0
 21 45  1  0  0  0  0
 22 24  1  0  0  0  0
 22 46  1  0  0  0  0
 23 25  2  0  0  0  0
 23 47  1  0  0  0  0
 24 26  2  0  0  0  0
 24 48  1  0  0  0  0
 25 26  1  0  0  0  0
 25 49  1  0  0  0  0
 27 50  1  0  0  0  0
 27 51  1  0  0  0  0
 27 52  1  0  0  0  0
M  END
> <PUBCHEM_COMPOUND_CID>
11958691

> <PUBCHEM_CONFORMER_RMSD>
1

> <PUBCHEM_CONFORMER_DIVERSEORDER>
1
35
16
36
3
10
24
7
30
28
2
18
32
20
13
22
31
4
19
34
5
21
26
9
17
33
37
14
27
8
15
12
29
25
11
6
23

> <PUBCHEM_MMFF94_PARTIAL_CHARGES>
31
1 -0.34
10 0.29
12 -0.15
13 -0.15
14 0.09
15 -0.15
17 0.54
18 0.28
19 0.44
2 -0.57
20 -0.14
22 -0.15
23 -0.15
24 -0.15
25 -0.15
26 0.08
27 0.28
3 -0.36
32 0.15
33 0.15
34 0.15
4 0.31
42 0.37
46 0.15
47 0.15
48 0.15
49 0.15
5 -0.71
6 -0.73
8 -0.09
9 0.26

> <PUBCHEM_EFFECTIVE_ROTOR_COUNT>
9

> <PUBCHEM_PHARMACOPHORE_FEATURES>
9
1 1 acceptor
1 16 hydrophobe
1 2 acceptor
1 3 acceptor
1 5 acceptor
1 6 donor
5 4 5 7 8 10 rings
6 20 22 23 24 25 26 rings
6 7 10 12 13 14 15 rings

> <PUBCHEM_HEAVY_ATOM_COUNT>
27

> <PUBCHEM_ATOM_DEF_STEREO_COUNT>
0

> <PUBCHEM_ATOM_UDEF_STEREO_COUNT>
0

> <PUBCHEM_BOND_DEF_STEREO_COUNT>
0

> <PUBCHEM_BOND_UDEF_STEREO_COUNT>
0

> <PUBCHEM_ISOTOPIC_ATOM_COUNT>
0

> <PUBCHEM_COMPONENT_COUNT>
1

> <PUBCHEM_CACTVS_TAUTO_COUNT>
2

> <PUBCHEM_CONFORMER_ID>
00B679A300000001

> <PUBCHEM_MMFF94_ENERGY>
74

> <PUBCHEM_FEATURE_SELFOVERLAP>
45.804

> <PUBCHEM_SHAPE_FINGERPRINT>
10 15 13767928988563229055
11135609 201 14274032081424553468
11475781 23 18335697261002261144
12124843 1 18130494276719630597
12661589 4 13038917629436176700
13627175 4 14620521159263516389
13782708 43 12175357889465431092
14341114 328 14418132894661653091
14950920 106 10809335616905293007
15183329 4 18201716211433170723
15188451 53 12751232589249437195
15238133 3 16443339927614386052
15510800 12 13110672922200806725
15575132 122 17532643543741932013
17349148 13 14692575467852103835
18222031 100 14476965609600002882
19958102 18 17275103912247934759
20028762 73 15195290785706441918
21033648 29 17603307080655876739
21637258 2 14764347111283176514
22393880 68 18201424913998590635
23389318 12 16487255474684962030
23559900 14 17489584597216503026
23569914 152 17699009474622447716
2838139 119 18114166515792242241
29717793 49 17489597748938813858
3004659 81 17775568615737009286
3663271 9 12540695924908508253
3680242 22 14273729694631809262
3882209 13 17692810385602118646
392239 28 13262686920168769943
5104073 3 12396580792946990536
5718773 13 14117508818998912295
59682541 52 18060416876561641303
60123966 16 18342462582155588876
6376802 90 18189338055572758122
6712543 237 8862947195502448821
8863177 126 10303823102599267440
960060 61 17775283893384786194

> <PUBCHEM_SHAPE_MULTIPOLES>
523.1
20.28
2.55
2.26
9.01
1.92
0.77
7.31
16.88
-1.9
0.64
-0.26
-0.33
3.13

> <PUBCHEM_SHAPE_SELFOVERLAP>
1111.5

> <PUBCHEM_SHAPE_VOLUME>
294.5

> <PUBCHEM_COORDINATE_TYPE>
2
5
10

$$$$
