6493459
  -OEChem-01171812083D

 52 54  0     0  0  0  0  0  0999 V2000
    5.9510   -1.5815   -2.9540 Cl  0  0  0  0  0  0  0  0  0  0  0  0
   -4.4466    0.9669   -0.5345 S   0  0  0  0  0  0  0  0  0  0  0  0
   -5.5342   -3.1675    0.8693 O   0  0  0  0  0  0  0  0  0  0  0  0
   -5.3161    1.7243    0.3459 O   0  0  0  0  0  0  0  0  0  0  0  0
   -4.5241    1.1256   -1.9746 O   0  0  0  0  0  0  0  0  0  0  0  0
    2.2202    1.0702   -1.3174 O   0  0  0  0  0  0  0  0  0  0  0  0
   -2.8234    1.2121   -0.0468 N   0  0  0  0  0  0  0  0  0  0  0  0
   -0.0336    1.9037    0.0383 N   0  0  0  0  0  0  0  0  0  0  0  0
   -4.6137   -0.6966   -0.1654 N   0  0  0  0  0  0  0  0  0  0  0  0
    3.2922    0.7333    0.7440 N   0  0  0  0  0  0  0  0  0  0  0  0
   -2.3913    2.6353    0.0515 C   0  0  0  0  0  0  0  0  0  0  0  0
   -1.8083    0.3828   -0.7564 C   0  0  0  0  0  0  0  0  0  0  0  0
   -1.0349    2.7094    0.7513 C   0  0  0  0  0  0  0  0  0  0  0  0
   -0.4632    0.5004   -0.0412 C   0  0  0  0  0  0  0  0  0  0  0  0
   -4.4040   -1.0615    1.2663 C   0  0  0  0  0  0  0  0  0  0  0  0
   -5.8349   -1.3570   -0.7127 C   0  0  0  0  0  0  0  0  0  0  0  0
    1.2700    2.0061    0.6932 C   0  0  0  0  0  0  0  0  0  0  0  0
   -4.3363   -2.5780    1.3797 C   0  0  0  0  0  0  0  0  0  0  0  0
   -5.7073   -2.8611   -0.5159 C   0  0  0  0  0  0  0  0  0  0  0  0
    2.2981    1.2203   -0.1022 C   0  0  0  0  0  0  0  0  0  0  0  0
    4.4224   -0.0424    0.3917 C   0  0  0  0  0  0  0  0  0  0  0  0
    5.3198   -0.4486    1.3663 C   0  0  0  0  0  0  0  0  0  0  0  0
    4.6034   -0.3820   -0.9400 C   0  0  0  0  0  0  0  0  0  0  0  0
    6.4267   -1.2143    1.0003 C   0  0  0  0  0  0  0  0  0  0  0  0
    5.1355   -0.0891    2.8053 C   0  0  0  0  0  0  0  0  0  0  0  0
    5.7105   -1.1474   -1.3061 C   0  0  0  0  0  0  0  0  0  0  0  0
    6.6222   -1.5636   -0.3359 C   0  0  0  0  0  0  0  0  0  0  0  0
   -3.1198    3.2041    0.6386 H   0  0  0  0  0  0  0  0  0  0  0  0
   -2.3353    3.0751   -0.9514 H   0  0  0  0  0  0  0  0  0  0  0  0
   -1.7184    0.7171   -1.7971 H   0  0  0  0  0  0  0  0  0  0  0  0
   -2.1053   -0.6702   -0.7602 H   0  0  0  0  0  0  0  0  0  0  0  0
   -1.1374    2.3693    1.7906 H   0  0  0  0  0  0  0  0  0  0  0  0
   -0.7180    3.7588    0.7782 H   0  0  0  0  0  0  0  0  0  0  0  0
    0.2409   -0.1256   -0.5974 H   0  0  0  0  0  0  0  0  0  0  0  0
   -0.5485    0.0694    0.9660 H   0  0  0  0  0  0  0  0  0  0  0  0
   -3.4738   -0.6347    1.6504 H   0  0  0  0  0  0  0  0  0  0  0  0
   -5.2432   -0.6781    1.8583 H   0  0  0  0  0  0  0  0  0  0  0  0
   -6.7145   -0.9761   -0.1810 H   0  0  0  0  0  0  0  0  0  0  0  0
   -5.9378   -1.1393   -1.7800 H   0  0  0  0  0  0  0  0  0  0  0  0
    1.2179    1.6471    1.7285 H   0  0  0  0  0  0  0  0  0  0  0  0
    1.6110    3.0481    0.7096 H   0  0  0  0  0  0  0  0  0  0  0  0
   -4.2412   -2.8711    2.4299 H   0  0  0  0  0  0  0  0  0  0  0  0
   -3.4728   -2.9837    0.8389 H   0  0  0  0  0  0  0  0  0  0  0  0
   -4.8653   -3.2716   -1.0861 H   0  0  0  0  0  0  0  0  0  0  0  0
   -6.6185   -3.3620   -0.8577 H   0  0  0  0  0  0  0  0  0  0  0  0
    3.2068    0.9624    1.7302 H   0  0  0  0  0  0  0  0  0  0  0  0
    3.9392   -0.0963   -1.7414 H   0  0  0  0  0  0  0  0  0  0  0  0
    7.1468   -1.5472    1.7432 H   0  0  0  0  0  0  0  0  0  0  0  0
    5.9378   -0.4956    3.4309 H   0  0  0  0  0  0  0  0  0  0  0  0
    4.1928   -0.4958    3.1864 H   0  0  0  0  0  0  0  0  0  0  0  0
    5.1455    0.9982    2.9351 H   0  0  0  0  0  0  0  0  0  0  0  0
    7.4892   -2.1609   -0.6067 H   0  0  0  0  0  0  0  0  0  0  0  0
  1 26  1  0  0  0  0
  2  4  2  0  0  0  0
  2  5  2  0  0  0  0
  2  7  1  0  0  0  0
  2  9  1  0  0  0  0
  3 18  1  0  0  0  0
  3 19  1  0  0  0  0
  6 20  2  0  0  0  0
  7 11  1  0  0  0  0
  7 12  1  0  0  0  0
  8 13  1  0  0  0  0
  8 14  1  0  0  0  0
  8 17  1  0  0  0  0
  9 15  1  0  0  0  0
  9 16  1  0  0  0  0
 10 20  1  0  0  0  0
 10 21  1  0  0  0  0
 10 46  1  0  0  0  0
 11 13  1  0  0  0  0
 11 28  1  0  0  0  0
 11 29  1  0  0  0  0
 12 14  1  0  0  0  0
 12 30  1  0  0  0  0
 12 31  1  0  0  0  0
 13 32  1  0  0  0  0
 13 33  1  0  0  0  0
 14 34  1  0  0  0  0
 14 35  1  0  0  0  0
 15 18  1  0  0  0  0
 15 36  1  0  0  0  0
 15 37  1  0  0  0  0
 16 19  1  0  0  0  0
 16 38  1  0  0  0  0
 16 39  1  0  0  0  0
 17 20  1  0  0  0  0
 17 40  1  0  0  0  0
 17 41  1  0  0  0  0
 18 42  1  0  0  0  0
 18 43  1  0  0  0  0
 19 44  1  0  0  0  0
 19 45  1  0  0  0  0
 21 22  2  0  0  0  0
 21 23  1  0  0  0  0
 22 24  1  0  0  0  0
 22 25  1  0  0  0  0
 23 26  2  0  0  0  0
 23 47  1  0  0  0  0
 24 27  2  0  0  0  0
 24 48  1  0  0  0  0
 25 49  1  0  0  0  0
 25 50  1  0  0  0  0
 25 51  1  0  0  0  0
 26 27  1  0  0  0  0
 27 52  1  0  0  0  0
M  END
> <PUBCHEM_COMPOUND_CID>
6493459

> <PUBCHEM_CONFORMER_RMSD>
1

> <PUBCHEM_CONFORMER_DIVERSEORDER>
1
86
76
82
13
19
34
66
81
49
46
68
43
44
63
50
45
60
72
47
85
41
75
26
52
27
70
78
61
87
84
22
11
80
32
8
23
53
16
24
3
56
4
51
40
10
35
59
73
21
18
33
17
48
6
67
71
12
54
58
25
7
57
62
5
20
38
30
15
65
31
36
42
39
28
79
83
2
37
77
9
69
74
29
14
64
55

> <PUBCHEM_MMFF94_PARTIAL_CHARGES>
31
1 -0.18
10 -0.55
11 0.36
12 0.36
13 0.27
14 0.27
15 0.36
16 0.36
17 0.33
18 0.28
19 0.28
2 1.58
20 0.57
21 0.12
22 -0.14
23 -0.15
24 -0.15
25 0.14
26 0.18
27 -0.15
3 -0.56
4 -0.65
46 0.37
47 0.15
48 0.15
5 -0.65
52 0.15
6 -0.57
7 -0.85
8 -0.81
9 -0.85

> <PUBCHEM_EFFECTIVE_ROTOR_COUNT>
8.4

> <PUBCHEM_PHARMACOPHORE_FEATURES>
7
1 10 donor
1 3 acceptor
1 6 acceptor
1 8 cation
6 21 22 23 24 26 27 rings
6 3 9 15 16 18 19 rings
6 7 8 11 12 13 14 rings

> <PUBCHEM_HEAVY_ATOM_COUNT>
27

> <PUBCHEM_ATOM_DEF_STEREO_COUNT>
0

> <PUBCHEM_ATOM_UDEF_STEREO_COUNT>
0

> <PUBCHEM_BOND_DEF_STEREO_COUNT>
0

> <PUBCHEM_BOND_UDEF_STEREO_COUNT>
0

> <PUBCHEM_ISOTOPIC_ATOM_COUNT>
0

> <PUBCHEM_COMPONENT_COUNT>
1

> <PUBCHEM_CACTVS_TAUTO_COUNT>
2

> <PUBCHEM_CONFORMER_ID>
0063151300000001

> <PUBCHEM_MMFF94_ENERGY>
66.3675

> <PUBCHEM_FEATURE_SELFOVERLAP>
35.522

> <PUBCHEM_SHAPE_FINGERPRINT>
10 15 11815621917326196327
10369192 42 12685093645219485305
10883706 89 12894252603651397060
11393246 34 18343301487947204983
11545043 162 18342734130940444233
11796584 16 18335696109544960856
12403259 118 11599999964119141561
12422481 6 17418099827293140055
12760667 363 18409448111605353731
13782708 43 18201999958067694771
14211702 104 18410572924394769080
14251751 18 18334292093262198146
14598715 104 10881690147681307030
14950920 106 14692274197202093519
15183329 4 17240480303858326906
15274700 147 11683402456973492638
15510800 12 18343866632417827255
15684393 108 16515972587398008043
15799311 1 18041569043996273706
17138139 8 17822005441263577290
18927931 339 18342178843440794021
19377110 9 14261350271207040397
193927 3 18341618113763989724
19958102 18 17458056097063454875
20281389 69 8718822094182975084
20621476 21 18201729418436383782
21196832 93 18115600390613923666
21315763 87 17632012056429062650
21585481 104 15285900461020697831
21623969 137 17918275359440107910
21682296 61 18201442501846989207
220451 1 17676491605493161296
229767 8 17682971238529193707
2303208 19 17917434207306496046
23522609 53 17242476944108163596
23559900 14 18335695083169622617
23569914 152 12833091177991610994
25122255 55 18341898488880711710
2838139 119 8213873539099472161
3004659 81 18187365437217569508
3089732 80 18411142458433419314
312425 54 17775011128527834155
3383291 50 18341043103764583987
3663271 9 14548727418141490950
3862424 121 16880212258602840003
397830 11 18129648807726960024
4015057 19 15285652005235289012
484985 159 18410580574612537025
5104073 3 18272653493317157081
531348 171 17024016078386154189
5718773 13 18269548520152225287
58902169 19 16660644012445518902
59682541 52 15647046054437131050
7918774 8 18272941522218073758
86090 222 17917164822921960270
8863177 126 18339079401270450402

> <PUBCHEM_SHAPE_MULTIPOLES>
517.97
19.95
3.1
1.96
7.28
0.51
0.12
15.47
0.62
-5.04
-0.27
3.26
0.84
2.67

> <PUBCHEM_SHAPE_SELFOVERLAP>
1050.828

> <PUBCHEM_SHAPE_VOLUME>
302.8

> <PUBCHEM_COORDINATE_TYPE>
2
5
10

$$$$
