24687942
  -OEChem-01171812123D

 57 61  0     0  0  0  0  0  0999 V2000
   -2.1042   -0.5356   -2.1291 S   0  0  0  0  0  0  0  0  0  0  0  0
    6.2485    0.4952    1.5677 S   0  0  0  0  0  0  0  0  0  0  0  0
   -6.3676   -0.2399    2.6439 F   0  0  0  0  0  0  0  0  0  0  0  0
   -4.6925    1.1285    2.4856 F   0  0  0  0  0  0  0  0  0  0  0  0
   -6.2980    1.2058    1.0210 F   0  0  0  0  0  0  0  0  0  0  0  0
   -2.3469   -1.2918   -3.3388 O   0  0  0  0  0  0  0  0  0  0  0  0
   -2.1412    0.9110   -2.1333 O   0  0  0  0  0  0  0  0  0  0  0  0
   -0.5246    3.8841   -1.0844 O   0  0  0  0  0  0  0  0  0  0  0  0
   -0.6255   -1.0516   -1.4351 N   0  0  0  0  0  0  0  0  0  0  0  0
    1.9828   -1.3174   -0.3535 N   0  0  0  0  0  0  0  0  0  0  0  0
    3.6885   -2.8309    0.2717 N   0  0  0  0  0  0  0  0  0  0  0  0
    5.8027   -2.1073    1.2125 N   0  0  0  0  0  0  0  0  0  0  0  0
   -0.3156   -0.4814   -0.0937 C   0  0  0  0  0  0  0  0  0  0  0  0
    0.5617   -0.9797   -2.3332 C   0  0  0  0  0  0  0  0  0  0  0  0
    0.8247   -1.2690    0.5465 C   0  0  0  0  0  0  0  0  0  0  0  0
    1.7099   -1.7778   -1.7225 C   0  0  0  0  0  0  0  0  0  0  0  0
    3.2584   -1.5550    0.1711 C   0  0  0  0  0  0  0  0  0  0  0  0
   -3.2360   -1.1052   -0.9000 C   0  0  0  0  0  0  0  0  0  0  0  0
    4.0787   -0.5007    0.5856 C   0  0  0  0  0  0  0  0  0  0  0  0
    3.9063    0.9192    0.6034 C   0  0  0  0  0  0  0  0  0  0  0  0
    5.3235   -0.8540    1.0899 C   0  0  0  0  0  0  0  0  0  0  0  0
   -3.9088   -0.1882   -0.0926 C   0  0  0  0  0  0  0  0  0  0  0  0
   -3.4586   -2.4725   -0.7374 C   0  0  0  0  0  0  0  0  0  0  0  0
    5.0054    1.5777    1.1104 C   0  0  0  0  0  0  0  0  0  0  0  0
    2.7638    1.6829    0.1685 C   0  0  0  0  0  0  0  0  0  0  0  0
   -4.8042   -0.6385    0.8775 C   0  0  0  0  0  0  0  0  0  0  0  0
    4.9207   -3.0264    0.7805 C   0  0  0  0  0  0  0  0  0  0  0  0
   -4.3541   -2.9229    0.2328 C   0  0  0  0  0  0  0  0  0  0  0  0
   -5.0268   -2.0059    1.0402 C   0  0  0  0  0  0  0  0  0  0  0  0
    2.6812    2.1231   -1.1525 C   0  0  0  0  0  0  0  0  0  0  0  0
    1.7410    1.9821    1.0686 C   0  0  0  0  0  0  0  0  0  0  0  0
   -5.5243    0.3419    1.7406 C   0  0  0  0  0  0  0  0  0  0  0  0
    1.5760    2.8625   -1.5735 C   0  0  0  0  0  0  0  0  0  0  0  0
    0.6358    2.7216    0.6476 C   0  0  0  0  0  0  0  0  0  0  0  0
    0.5533    3.1618   -0.6734 C   0  0  0  0  0  0  0  0  0  0  0  0
   -1.5337    4.1545   -0.1127 C   0  0  0  0  0  0  0  0  0  0  0  0
   -0.0626    0.5576   -0.2390 H   0  0  0  0  0  0  0  0  0  0  0  0
   -1.1735   -0.5357    0.5788 H   0  0  0  0  0  0  0  0  0  0  0  0
    0.3187   -1.4095   -3.3104 H   0  0  0  0  0  0  0  0  0  0  0  0
    0.8489    0.0659   -2.4814 H   0  0  0  0  0  0  0  0  0  0  0  0
    0.4977   -2.2948    0.7593 H   0  0  0  0  0  0  0  0  0  0  0  0
    1.0913   -0.8108    1.5052 H   0  0  0  0  0  0  0  0  0  0  0  0
    1.4606   -2.8462   -1.7024 H   0  0  0  0  0  0  0  0  0  0  0  0
    2.5985   -1.6538   -2.3537 H   0  0  0  0  0  0  0  0  0  0  0  0
   -3.7457    0.8804   -0.2037 H   0  0  0  0  0  0  0  0  0  0  0  0
   -2.9400   -3.1992   -1.3568 H   0  0  0  0  0  0  0  0  0  0  0  0
    5.1489    2.6424    1.2390 H   0  0  0  0  0  0  0  0  0  0  0  0
    5.2426   -4.0595    0.8506 H   0  0  0  0  0  0  0  0  0  0  0  0
   -4.5266   -3.9876    0.3598 H   0  0  0  0  0  0  0  0  0  0  0  0
   -5.7202   -2.3760    1.7904 H   0  0  0  0  0  0  0  0  0  0  0  0
    3.4685    1.8961   -1.8676 H   0  0  0  0  0  0  0  0  0  0  0  0
    1.7912    1.6476    2.1022 H   0  0  0  0  0  0  0  0  0  0  0  0
    1.5163    3.2009   -2.6042 H   0  0  0  0  0  0  0  0  0  0  0  0
   -0.1225    2.9175    1.3980 H   0  0  0  0  0  0  0  0  0  0  0  0
   -2.0029    3.2321    0.2467 H   0  0  0  0  0  0  0  0  0  0  0  0
   -1.1488    4.7711    0.7066 H   0  0  0  0  0  0  0  0  0  0  0  0
   -2.3153    4.7367   -0.6117 H   0  0  0  0  0  0  0  0  0  0  0  0
  1  6  2  0  0  0  0
  1  7  2  0  0  0  0
  1  9  1  0  0  0  0
  1 18  1  0  0  0  0
  2 21  1  0  0  0  0
  2 24  1  0  0  0  0
  3 32  1  0  0  0  0
  4 32  1  0  0  0  0
  5 32  1  0  0  0  0
  8 35  1  0  0  0  0
  8 36  1  0  0  0  0
  9 13  1  0  0  0  0
  9 14  1  0  0  0  0
 10 15  1  0  0  0  0
 10 16  1  0  0  0  0
 10 17  1  0  0  0  0
 11 17  1  0  0  0  0
 11 27  2  0  0  0  0
 12 21  2  0  0  0  0
 12 27  1  0  0  0  0
 13 15  1  0  0  0  0
 13 37  1  0  0  0  0
 13 38  1  0  0  0  0
 14 16  1  0  0  0  0
 14 39  1  0  0  0  0
 14 40  1  0  0  0  0
 15 41  1  0  0  0  0
 15 42  1  0  0  0  0
 16 43  1  0  0  0  0
 16 44  1  0  0  0  0
 17 19  2  0  0  0  0
 18 22  1  0  0  0  0
 18 23  2  0  0  0  0
 19 20  1  0  0  0  0
 19 21  1  0  0  0  0
 20 24  2  0  0  0  0
 20 25  1  0  0  0  0
 22 26  2  0  0  0  0
 22 45  1  0  0  0  0
 23 28  1  0  0  0  0
 23 46  1  0  0  0  0
 24 47  1  0  0  0  0
 25 30  2  0  0  0  0
 25 31  1  0  0  0  0
 26 29  1  0  0  0  0
 26 32  1  0  0  0  0
 27 48  1  0  0  0  0
 28 29  2  0  0  0  0
 28 49  1  0  0  0  0
 29 50  1  0  0  0  0
 30 33  1  0  0  0  0
 30 51  1  0  0  0  0
 31 34  2  0  0  0  0
 31 52  1  0  0  0  0
 33 35  2  0  0  0  0
 33 53  1  0  0  0  0
 34 35  1  0  0  0  0
 34 54  1  0  0  0  0
 36 55  1  0  0  0  0
 36 56  1  0  0  0  0
 36 57  1  0  0  0  0
M  END
> <PUBCHEM_COMPOUND_CID>
24687942

> <PUBCHEM_CONFORMER_RMSD>
1

> <PUBCHEM_CONFORMER_DIVERSEORDER>
2
25
22
23
33
6
19
32
28
11
17
8
16
26
21
24
14
29
9
27
1
13
4
18
20
30
15
3
12
5
10
7
31

> <PUBCHEM_MMFF94_PARTIAL_CHARGES>
45
1 1.45
10 -0.84
11 -0.62
12 -0.57
13 0.36
14 0.36
15 0.37
16 0.37
17 0.41
18 -0.01
2 -0.08
20 -0.05
21 0.3
22 -0.15
23 -0.15
24 -0.11
25 0.05
26 -0.14
27 0.47
28 -0.15
29 -0.15
3 -0.34
30 -0.15
31 -0.15
32 1.16
33 -0.15
34 -0.15
35 0.08
36 0.28
4 -0.34
45 0.15
46 0.15
47 0.15
48 0.15
49 0.15
5 -0.34
50 0.15
51 0.15
52 0.15
53 0.15
54 0.15
6 -0.65
7 -0.65
8 -0.36
9 -0.85

> <PUBCHEM_EFFECTIVE_ROTOR_COUNT>
7.2

> <PUBCHEM_PHARMACOPHORE_FEATURES>
11
1 10 cation
1 12 acceptor
1 6 acceptor
1 7 acceptor
1 8 acceptor
3 11 12 27 cation
5 2 19 20 21 24 rings
6 11 12 17 19 21 27 rings
6 18 22 23 26 28 29 rings
6 25 30 31 33 34 35 rings
6 9 10 13 14 15 16 rings

> <PUBCHEM_HEAVY_ATOM_COUNT>
36

> <PUBCHEM_ATOM_DEF_STEREO_COUNT>
0

> <PUBCHEM_ATOM_UDEF_STEREO_COUNT>
0

> <PUBCHEM_BOND_DEF_STEREO_COUNT>
0

> <PUBCHEM_BOND_UDEF_STEREO_COUNT>
0

> <PUBCHEM_ISOTOPIC_ATOM_COUNT>
0

> <PUBCHEM_COMPONENT_COUNT>
1

> <PUBCHEM_CACTVS_TAUTO_COUNT>
1

> <PUBCHEM_CONFORMER_ID>
0178B54600000002

> <PUBCHEM_MMFF94_ENERGY>
103.9097

> <PUBCHEM_FEATURE_SELFOVERLAP>
55.922

> <PUBCHEM_SHAPE_FINGERPRINT>
10190108 129 18409453566704520914
11135609 12 18187080624756312300
11135926 11 18044369655364583820
12422481 6 18130506340511975032
12633257 1 18188489210888682219
12786520 15 18264508298224702591
13782708 43 16805589379203313146
13947930 73 17180816151454192266
13965767 371 17917993892752528252
14114211 80 17830747808877638620
14294032 229 16200154352762682663
14950920 106 18266179607628836355
15274700 34 18268159837467763683
15721738 202 17240773878174434374
19319366 153 17189254332473104869
20739085 24 18413113870223680358
21927370 108 17896033253539704450
22121540 332 16342314453880852452
3459 110 18409164446158463703
3459 39 15985106331508354995
354706 109 17978208484256506249
3737641 26 18411692184878251446
392239 28 18261103089001370850
4112364 45 17274823609945073713
4144715 1 18341624723803554851
469060 322 16371576851846705100
513202 73 18190457173351187136
9555976 147 17916600846761128571

> <PUBCHEM_SHAPE_MULTIPOLES>
689.21
13.94
4.26
2.29
5.16
2.86
0.75
-6.07
-11.12
-1.26
0.54
2.56
-0.07
-1.17

> <PUBCHEM_SHAPE_SELFOVERLAP>
1490.682

> <PUBCHEM_SHAPE_VOLUME>
383

> <PUBCHEM_COORDINATE_TYPE>
2
5
10

$$$$
