8037985
  -OEChem-01171812013D

 47 50  0     0  0  0  0  0  0999 V2000
    4.9658    3.9299   -1.0619 Cl  0  0  0  0  0  0  0  0  0  0  0  0
    0.2072   -1.6126   -2.4341 O   0  0  0  0  0  0  0  0  0  0  0  0
    5.1352   -1.3357    1.4888 O   0  0  0  0  0  0  0  0  0  0  0  0
    3.6853   -3.0549    0.9744 O   0  0  0  0  0  0  0  0  0  0  0  0
   -1.3282   -0.8608   -0.8603 N   0  0  0  0  0  0  0  0  0  0  0  0
   -4.0149   -0.1020   -0.0951 N   0  0  0  0  0  0  0  0  0  0  0  0
    3.5225   -0.9888   -0.1112 N   0  0  0  0  0  0  0  0  0  0  0  0
   -2.4757   -1.1166   -1.7270 C   0  0  0  0  0  0  0  0  0  0  0  0
   -1.6218   -0.2984    0.4599 C   0  0  0  0  0  0  0  0  0  0  0  0
   -3.5987   -0.1067   -1.5003 C   0  0  0  0  0  0  0  0  0  0  0  0
   -3.0574   -0.5668    0.9117 C   0  0  0  0  0  0  0  0  0  0  0  0
   -0.0421   -1.1468   -1.3197 C   0  0  0  0  0  0  0  0  0  0  0  0
    1.0875   -0.8595   -0.3613 C   0  0  0  0  0  0  0  0  0  0  0  0
   -5.2993    0.2990    0.2646 C   0  0  0  0  0  0  0  0  0  0  0  0
    2.4136   -1.2186   -0.9978 C   0  0  0  0  0  0  0  0  0  0  0  0
    4.2452    0.1810    0.0018 C   0  0  0  0  0  0  0  0  0  0  0  0
   -6.0123    1.2556   -0.4961 C   0  0  0  0  0  0  0  0  0  0  0  0
   -5.9457   -0.2337    1.4049 C   0  0  0  0  0  0  0  0  0  0  0  0
    5.2041   -0.0529    0.9660 C   0  0  0  0  0  0  0  0  0  0  0  0
    4.0578   -1.9035    0.7839 C   0  0  0  0  0  0  0  0  0  0  0  0
   -7.2990    1.6567   -0.1369 C   0  0  0  0  0  0  0  0  0  0  0  0
   -7.2325    0.1674    1.7641 C   0  0  0  0  0  0  0  0  0  0  0  0
    4.1343    1.3918   -0.6493 C   0  0  0  0  0  0  0  0  0  0  0  0
   -7.9092    1.1126    0.9933 C   0  0  0  0  0  0  0  0  0  0  0  0
    6.1113    0.9177    1.3358 C   0  0  0  0  0  0  0  0  0  0  0  0
    5.0435    2.3907   -0.2912 C   0  0  0  0  0  0  0  0  0  0  0  0
    6.0237    2.1560    0.6931 C   0  0  0  0  0  0  0  0  0  0  0  0
   -2.8229   -2.1326   -1.5020 H   0  0  0  0  0  0  0  0  0  0  0  0
   -2.1651   -1.1032   -2.7771 H   0  0  0  0  0  0  0  0  0  0  0  0
   -1.4441    0.7815    0.3862 H   0  0  0  0  0  0  0  0  0  0  0  0
   -0.9306   -0.6953    1.2074 H   0  0  0  0  0  0  0  0  0  0  0  0
   -3.2585    0.8978   -1.7799 H   0  0  0  0  0  0  0  0  0  0  0  0
   -4.4362   -0.3785   -2.1543 H   0  0  0  0  0  0  0  0  0  0  0  0
   -3.2028   -1.6410    1.0790 H   0  0  0  0  0  0  0  0  0  0  0  0
   -3.2102   -0.0512    1.8677 H   0  0  0  0  0  0  0  0  0  0  0  0
    0.9520   -1.4580    0.5461 H   0  0  0  0  0  0  0  0  0  0  0  0
    1.0683    0.2008   -0.0863 H   0  0  0  0  0  0  0  0  0  0  0  0
    2.4177   -2.2851   -1.2578 H   0  0  0  0  0  0  0  0  0  0  0  0
    2.5781   -0.6656   -1.9302 H   0  0  0  0  0  0  0  0  0  0  0  0
   -5.5634    1.7105   -1.3763 H   0  0  0  0  0  0  0  0  0  0  0  0
   -5.4548   -0.9831    2.0218 H   0  0  0  0  0  0  0  0  0  0  0  0
   -7.8251    2.3947   -0.7353 H   0  0  0  0  0  0  0  0  0  0  0  0
   -7.7091   -0.2583    2.6423 H   0  0  0  0  0  0  0  0  0  0  0  0
    3.3744    1.5632   -1.4035 H   0  0  0  0  0  0  0  0  0  0  0  0
   -8.9111    1.4248    1.2729 H   0  0  0  0  0  0  0  0  0  0  0  0
    6.8642    0.7341    2.0933 H   0  0  0  0  0  0  0  0  0  0  0  0
    6.7269    2.9400    0.9651 H   0  0  0  0  0  0  0  0  0  0  0  0
  1 26  1  0  0  0  0
  2 12  2  0  0  0  0
  3 19  1  0  0  0  0
  3 20  1  0  0  0  0
  4 20  2  0  0  0  0
  5  8  1  0  0  0  0
  5  9  1  0  0  0  0
  5 12  1  0  0  0  0
  6 10  1  0  0  0  0
  6 11  1  0  0  0  0
  6 14  1  0  0  0  0
  7 15  1  0  0  0  0
  7 16  1  0  0  0  0
  7 20  1  0  0  0  0
  8 10  1  0  0  0  0
  8 28  1  0  0  0  0
  8 29  1  0  0  0  0
  9 11  1  0  0  0  0
  9 30  1  0  0  0  0
  9 31  1  0  0  0  0
 10 32  1  0  0  0  0
 10 33  1  0  0  0  0
 11 34  1  0  0  0  0
 11 35  1  0  0  0  0
 12 13  1  0  0  0  0
 13 15  1  0  0  0  0
 13 36  1  0  0  0  0
 13 37  1  0  0  0  0
 14 17  2  0  0  0  0
 14 18  1  0  0  0  0
 15 38  1  0  0  0  0
 15 39  1  0  0  0  0
 16 19  2  0  0  0  0
 16 23  1  0  0  0  0
 17 21  1  0  0  0  0
 17 40  1  0  0  0  0
 18 22  2  0  0  0  0
 18 41  1  0  0  0  0
 19 25  1  0  0  0  0
 21 24  2  0  0  0  0
 21 42  1  0  0  0  0
 22 24  1  0  0  0  0
 22 43  1  0  0  0  0
 23 26  2  0  0  0  0
 23 44  1  0  0  0  0
 24 45  1  0  0  0  0
 25 27  2  0  0  0  0
 25 46  1  0  0  0  0
 26 27  1  0  0  0  0
 27 47  1  0  0  0  0
M  END
> <PUBCHEM_COMPOUND_CID>
8037985

> <PUBCHEM_CONFORMER_RMSD>
0.8

> <PUBCHEM_CONFORMER_DIVERSEORDER>
1
64
82
145
14
154
93
73
53
46
49
56
78
164
138
158
172
147
144
106
25
96
90
94
133
169
54
160
12
159
139
61
74
30
50
150
85
37
168
35
24
137
136
86
60
72
51
89
80
55
140
121
62
11
120
98
171
42
165
32
48
69
19
115
110
57
125
20
127
114
173
128
116
63
21
161
117
79
15
58
76
122
111
40
28
131
108
141
124
149
100
157
75
2
17
65
10
44
119
87
132
22
77
43
31
123
99
142
129
68
155
3
162
97
26
84
143
95
83
104
152
5
88
113
105
38
67
70
41
33
170
52
71
91
135
126
45
163
156
59
27
167
47
13
134
151
101
166
92
29
16
18
36
109
102
39
146
107
66
81
118
130
8
112
7
9
23
34
103
6
148
153
4

> <PUBCHEM_MMFF94_PARTIAL_CHARGES>
35
1 -0.18
10 0.37
11 0.37
12 0.57
13 0.06
14 0.1
15 0.3
16 0.12
17 -0.15
18 -0.15
19 0.08
2 -0.57
20 0.78
21 -0.15
22 -0.15
23 -0.15
24 -0.15
25 -0.15
26 0.18
27 -0.15
3 -0.23
4 -0.57
40 0.15
41 0.15
42 0.15
43 0.15
44 0.15
45 0.15
46 0.15
47 0.15
5 -0.66
6 -0.84
7 -0.48
8 0.3
9 0.3

> <PUBCHEM_EFFECTIVE_ROTOR_COUNT>
6.2

> <PUBCHEM_PHARMACOPHORE_FEATURES>
7
1 2 acceptor
1 4 acceptor
1 6 cation
5 3 7 16 19 20 rings
6 14 17 18 21 22 24 rings
6 16 19 23 25 26 27 rings
6 5 6 8 9 10 11 rings

> <PUBCHEM_HEAVY_ATOM_COUNT>
27

> <PUBCHEM_ATOM_DEF_STEREO_COUNT>
0

> <PUBCHEM_ATOM_UDEF_STEREO_COUNT>
0

> <PUBCHEM_BOND_DEF_STEREO_COUNT>
0

> <PUBCHEM_BOND_UDEF_STEREO_COUNT>
0

> <PUBCHEM_ISOTOPIC_ATOM_COUNT>
0

> <PUBCHEM_COMPONENT_COUNT>
1

> <PUBCHEM_CACTVS_TAUTO_COUNT>
1

> <PUBCHEM_CONFORMER_ID>
007AA66100000001

> <PUBCHEM_MMFF94_ENERGY>
82.8789

> <PUBCHEM_FEATURE_SELFOVERLAP>
35.635

> <PUBCHEM_SHAPE_FINGERPRINT>
10 15 18410859863224014219
10319926 262 16660362546317023981
10554248 39 17631443484732307543
10670039 82 16701755877563283184
10906281 52 17561093497009367431
11475781 23 14979950372196193782
11505856 67 17548419662630422318
12342043 65 17096922461147066434
125118 31 18272092643829408097
12596602 18 18260268542917688467
12616971 3 18411971456020158110
12661589 4 11531060619486559109
13533116 47 18041561330309129378
13627175 4 12901560044151195993
13668630 136 10665221540877989128
13782708 43 11169917216960992355
14251764 75 18046631372247179956
14347332 77 11386358245241465983
14840074 17 17989209252599807705
15131766 46 18268425917888871980
15183329 4 17275101730731907977
15188451 53 14707203335971863735
15348495 7 17967818266665763275
15475509 35 16226314921073457018
155225 6 18191874641852017556
1577012 14 18130782386961227630
18393751 57 18342182142450508903
1979834 28 17821449054215570238
20157964 124 18411138013437309986
20505436 4 18272365417439929278
20567600 234 18413111658531664261
21130935 74 18113905923311165491
21315764 119 12103850051262334489
21792934 111 17312821559860645709
21814621 53 17604988122761488009
22122407 14 18411146856601334697
2215653 11 12967131622473441802
22956985 138 13047595984203330536
23081809 10 17774712109132309415
23569914 152 11885184564556215185
2748736 6 17704070668917266233
312425 54 17530684320651398051
3178227 256 17967806164418341266
328310 630 18060419119273268581
3383291 50 15864365670608530889
3472631 163 17275102872871292508
3663271 9 18408322211651441155
397830 11 18188217584694182651
406291 66 11819259058556954720
4258327 124 18131070480957145845
42767 28 12319740279972558197
4340502 62 17967814946550918826
465052 167 12179847186571884362
504843 32 17989200482741158375
5104073 3 18186795924169420522
5364581 5 18115314513548851185
68570916 9 18337107964527939635
6898599 12 16701448112833193757

> <PUBCHEM_SHAPE_MULTIPOLES>
524.97
22.63
2.77
1.7
24.26
1.64
0.32
13.91
-9.99
-6.04
0.5
0.61
-0.5
-1.51

> <PUBCHEM_SHAPE_SELFOVERLAP>
1127.18

> <PUBCHEM_SHAPE_VOLUME>
291.1

> <PUBCHEM_COORDINATE_TYPE>
2
5
10

$$$$
