16188411
  -OEChem-01171811473D

 50 53  0     0  0  0  0  0  0999 V2000
    1.1164   -2.1448   -0.0378 O   0  0  0  0  0  0  0  0  0  0  0  0
    3.4218   -2.1733   -0.1201 N   0  0  0  0  0  0  0  0  0  0  0  0
    1.6894    2.0166    0.2170 N   0  0  0  0  0  0  0  0  0  0  0  0
   -1.1477    0.3221    0.3584 N   0  0  0  0  0  0  0  0  0  0  0  0
    3.1902    0.6376   -0.7046 N   0  0  0  0  0  0  0  0  0  0  0  0
   -6.0034   -0.4736    0.1872 N   0  0  0  0  0  0  0  0  0  0  0  0
   -6.3423   -1.6604   -0.3247 N   0  0  0  0  0  0  0  0  0  0  0  0
    5.7000   -2.6582    0.2438 C   0  0  0  0  0  0  0  0  0  0  0  0
    5.0030   -3.9166   -0.2568 C   0  0  0  0  0  0  0  0  0  0  0  0
    4.7444   -1.5519   -0.1813 C   0  0  0  0  0  0  0  0  0  0  0  0
    3.5363   -3.6192    0.0138 C   0  0  0  0  0  0  0  0  0  0  0  0
    2.1846   -1.5360   -0.0896 C   0  0  0  0  0  0  0  0  0  0  0  0
    2.1947   -0.0765   -0.0958 C   0  0  0  0  0  0  0  0  0  0  0  0
    1.2575    0.7419    0.4792 C   0  0  0  0  0  0  0  0  0  0  0  0
    0.0269    0.4374    1.2354 C   0  0  0  0  0  0  0  0  0  0  0  0
    2.8727    1.9010   -0.5078 C   0  0  0  0  0  0  0  0  0  0  0  0
   -2.3333    0.0128    1.1369 C   0  0  0  0  0  0  0  0  0  0  0  0
   -3.5577   -0.0722    0.2281 C   0  0  0  0  0  0  0  0  0  0  0  0
    1.1177    3.2361    0.5693 C   0  0  0  0  0  0  0  0  0  0  0  0
   -4.8198   -0.3759    1.0349 C   0  0  0  0  0  0  0  0  0  0  0  0
    3.5138    3.1131   -0.8986 C   0  0  0  0  0  0  0  0  0  0  0  0
    1.7278    4.3733    0.1977 C   0  0  0  0  0  0  0  0  0  0  0  0
    2.9660    4.2965   -0.5611 C   0  0  0  0  0  0  0  0  0  0  0  0
   -6.8257    0.5495   -0.1481 C   0  0  0  0  0  0  0  0  0  0  0  0
   -7.7905   -0.0086   -0.9508 C   0  0  0  0  0  0  0  0  0  0  0  0
   -7.4426   -1.3707   -1.0244 C   0  0  0  0  0  0  0  0  0  0  0  0
    6.7036   -2.5304   -0.1709 H   0  0  0  0  0  0  0  0  0  0  0  0
    5.7795   -2.6890    1.3372 H   0  0  0  0  0  0  0  0  0  0  0  0
    5.3482   -4.8257    0.2429 H   0  0  0  0  0  0  0  0  0  0  0  0
    5.1716   -4.0300   -1.3345 H   0  0  0  0  0  0  0  0  0  0  0  0
    4.9295   -1.2445   -1.2160 H   0  0  0  0  0  0  0  0  0  0  0  0
    4.8217   -0.6931    0.4903 H   0  0  0  0  0  0  0  0  0  0  0  0
    3.2538   -3.8837    1.0389 H   0  0  0  0  0  0  0  0  0  0  0  0
    2.8599   -4.1268   -0.6803 H   0  0  0  0  0  0  0  0  0  0  0  0
    0.1674   -0.5056    1.7788 H   0  0  0  0  0  0  0  0  0  0  0  0
   -0.1492    1.1962    2.0073 H   0  0  0  0  0  0  0  0  0  0  0  0
   -2.5032    0.7851    1.8971 H   0  0  0  0  0  0  0  0  0  0  0  0
   -2.2047   -0.9453    1.6549 H   0  0  0  0  0  0  0  0  0  0  0  0
   -1.2867    1.2035   -0.1362 H   0  0  0  0  0  0  0  0  0  0  0  0
   -3.6892    0.8728   -0.3152 H   0  0  0  0  0  0  0  0  0  0  0  0
   -3.4070   -0.8514   -0.5304 H   0  0  0  0  0  0  0  0  0  0  0  0
    0.1917    3.2406    1.1299 H   0  0  0  0  0  0  0  0  0  0  0  0
   -4.7265   -1.3245    1.5766 H   0  0  0  0  0  0  0  0  0  0  0  0
   -5.0138    0.4124    1.7715 H   0  0  0  0  0  0  0  0  0  0  0  0
    4.4375    3.0682   -1.4646 H   0  0  0  0  0  0  0  0  0  0  0  0
    1.3230    5.3471    0.4446 H   0  0  0  0  0  0  0  0  0  0  0  0
    3.4389    5.2290   -0.8495 H   0  0  0  0  0  0  0  0  0  0  0  0
   -6.6691    1.5628    0.1950 H   0  0  0  0  0  0  0  0  0  0  0  0
   -8.6239    0.4980   -1.4147 H   0  0  0  0  0  0  0  0  0  0  0  0
   -7.9448   -2.1641   -1.5590 H   0  0  0  0  0  0  0  0  0  0  0  0
  1 12  2  0  0  0  0
  2 10  1  0  0  0  0
  2 11  1  0  0  0  0
  2 12  1  0  0  0  0
  3 14  1  0  0  0  0
  3 16  1  0  0  0  0
  3 19  1  0  0  0  0
  4 15  1  0  0  0  0
  4 17  1  0  0  0  0
  4 39  1  0  0  0  0
  5 13  1  0  0  0  0
  5 16  2  0  0  0  0
  6  7  1  0  0  0  0
  6 20  1  0  0  0  0
  6 24  1  0  0  0  0
  7 26  2  0  0  0  0
  8  9  1  0  0  0  0
  8 10  1  0  0  0  0
  8 27  1  0  0  0  0
  8 28  1  0  0  0  0
  9 11  1  0  0  0  0
  9 29  1  0  0  0  0
  9 30  1  0  0  0  0
 10 31  1  0  0  0  0
 10 32  1  0  0  0  0
 11 33  1  0  0  0  0
 11 34  1  0  0  0  0
 12 13  1  0  0  0  0
 13 14  2  0  0  0  0
 14 15  1  0  0  0  0
 15 35  1  0  0  0  0
 15 36  1  0  0  0  0
 16 21  1  0  0  0  0
 17 18  1  0  0  0  0
 17 37  1  0  0  0  0
 17 38  1  0  0  0  0
 18 20  1  0  0  0  0
 18 40  1  0  0  0  0
 18 41  1  0  0  0  0
 19 22  2  0  0  0  0
 19 42  1  0  0  0  0
 20 43  1  0  0  0  0
 20 44  1  0  0  0  0
 21 23  2  0  0  0  0
 21 45  1  0  0  0  0
 22 23  1  0  0  0  0
 22 46  1  0  0  0  0
 23 47  1  0  0  0  0
 24 25  2  0  0  0  0
 24 48  1  0  0  0  0
 25 26  1  0  0  0  0
 25 49  1  0  0  0  0
 26 50  1  0  0  0  0
M  END
> <PUBCHEM_COMPOUND_CID>
16188411

> <PUBCHEM_CONFORMER_RMSD>
1

> <PUBCHEM_CONFORMER_DIVERSEORDER>
1
135
37
69
136
60
9
73
49
121
15
10
25
86
19
62
94
118
65
57
143
41
35
97
55
40
33
13
110
45
67
92
42
77
36
105
61
70
119
82
50
58
46
134
150
63
95
64
84
140
34
39
20
72
144
24
85
52
18
79
81
142
126
27
47
116
90
123
53
154
11
83
66
103
16
112
88
51
102
152
93
28
147
117
151
108
29
146
23
76
21
38
122
109
101
111
104
145
14
115
6
96
71
107
127
8
141
12
68
113
7
148
2
139
75
80
106
54
32
44
130
131
99
74
43
133
30
120
100
91
98
59
22
153
48
149
26
132
56
125
17
129
3
31
114
137
5
87
4
138
128
124
89
78

> <PUBCHEM_MMFF94_PARTIAL_CHARGES>
31
1 -0.57
10 0.3
11 0.3
12 0.72
13 0.14
14 -0.33
15 0.45
16 0.14
17 0.27
19 -0.18
2 -0.66
20 0.26
21 -0.11
22 -0.15
23 -0.15
24 -0.3
25 -0.15
26 0.14
3 0.33
39 0.36
4 -0.9
42 0.15
45 0.15
46 0.15
47 0.15
48 0.15
49 0.15
5 -0.57
50 0.15
6 0.31
7 -0.71

> <PUBCHEM_EFFECTIVE_ROTOR_COUNT>
9

> <PUBCHEM_PHARMACOPHORE_FEATURES>
9
1 1 acceptor
1 4 cation
1 4 donor
1 7 acceptor
3 3 5 16 cation
5 2 8 9 10 11 rings
5 3 5 13 14 16 rings
5 6 7 24 25 26 rings
6 3 16 19 21 22 23 rings

> <PUBCHEM_HEAVY_ATOM_COUNT>
26

> <PUBCHEM_ATOM_DEF_STEREO_COUNT>
0

> <PUBCHEM_ATOM_UDEF_STEREO_COUNT>
0

> <PUBCHEM_BOND_DEF_STEREO_COUNT>
0

> <PUBCHEM_BOND_UDEF_STEREO_COUNT>
0

> <PUBCHEM_ISOTOPIC_ATOM_COUNT>
0

> <PUBCHEM_COMPONENT_COUNT>
1

> <PUBCHEM_CACTVS_TAUTO_COUNT>
1

> <PUBCHEM_CONFORMER_ID>
00F703FB00000001

> <PUBCHEM_MMFF94_ENERGY>
37.5513

> <PUBCHEM_FEATURE_SELFOVERLAP>
45.788

> <PUBCHEM_SHAPE_FINGERPRINT>
10411042 1 18266179427334843410
10595046 47 18270401715558140441
11135609 149 18266437854888939396
11719270 70 18267019634427944432
12107183 9 18126296242519214137
12166972 35 18272931592190583827
12730499 353 18192723451763605049
13533116 47 18411981390833199885
13540713 4 17750813214590571779
13540713 5 18129401340201501225
13955234 65 18340210807341437984
14068700 675 18200876158404992394
14528608 73 18267584792379495429
15183329 4 18260827047928409931
15250474 111 18131354120545190831
15348495 7 10231766604558397053
16991971 28 18270695181777989846
16993427 108 17825088334666966674
18681886 176 18340763758526981346
20028762 73 18130507422770939839
20554085 129 17914888975575750808
21344244 78 18271795809785675792
21968339 14 18340769359317328977
221357 26 18261110734253881341
23081809 10 17988928894999889881
23522609 53 17772498853014729785
23559900 14 18409727374774289931
24771293 8 18272093756299420698
255183 451 18270405984164776566
3004659 81 18411695466149369995
4015057 19 18408895044514066931
439807 62 18272087249904735783
44317340 157 18337676421130048881
44555599 121 18271535213436677793
46194498 28 17967531280992843620
59682541 52 18408884057929720197
6004065 56 18409166606437674386
6025842 7 18338518650303419660
6695519 79 17549283856915164819

> <PUBCHEM_SHAPE_MULTIPOLES>
499.31
17.89
5.43
0.95
46.54
3.3
-0.07
-13.39
4.99
-12.65
0.69
0.68
0.17
-0.94

> <PUBCHEM_SHAPE_SELFOVERLAP>
1070.529

> <PUBCHEM_SHAPE_VOLUME>
279.6

> <PUBCHEM_COORDINATE_TYPE>
2
5
10

$$$$
