3842739
  -OEChem-01171811513D

 27 28  0     0  0  0  0  0  0999 V2000
   -4.1233   -2.1859    0.0258 Cl  0  0  0  0  0  0  0  0  0  0  0  0
   -0.2030    2.7185   -0.3975 S   0  0  0  0  0  0  0  0  0  0  0  0
    3.8822   -1.2475   -1.0123 O   0  0  0  0  0  0  0  0  0  0  0  0
    2.0241   -1.2324    0.4320 N   0  0  0  0  0  0  0  0  0  0  0  0
    1.2246   -0.2230    0.8775 N   0  0  0  0  0  0  0  0  0  0  0  0
    1.7005    0.9672    0.3972 C   0  0  0  0  0  0  0  0  0  0  0  0
    1.0847    2.2602    0.7874 C   0  0  0  0  0  0  0  0  0  0  0  0
    2.7626    0.7840   -0.4024 C   0  0  0  0  0  0  0  0  0  0  0  0
    2.9921   -0.6900   -0.3931 C   0  0  0  0  0  0  0  0  0  0  0  0
    1.7548   -2.5978    0.7868 C   0  0  0  0  0  0  0  0  0  0  0  0
   -1.3184    1.3227   -0.2768 C   0  0  0  0  0  0  0  0  0  0  0  0
   -1.9134    1.0193    0.9431 C   0  0  0  0  0  0  0  0  0  0  0  0
   -1.5823    0.5521   -1.4041 C   0  0  0  0  0  0  0  0  0  0  0  0
   -2.7824   -0.0678    1.0367 C   0  0  0  0  0  0  0  0  0  0  0  0
   -2.4514   -0.5348   -1.3104 C   0  0  0  0  0  0  0  0  0  0  0  0
   -3.0514   -0.8449   -0.0900 C   0  0  0  0  0  0  0  0  0  0  0  0
    1.8388    3.0550    0.7836 H   0  0  0  0  0  0  0  0  0  0  0  0
    0.6799    2.2199    1.8040 H   0  0  0  0  0  0  0  0  0  0  0  0
    0.6802   -0.2969    1.7258 H   0  0  0  0  0  0  0  0  0  0  0  0
    3.3617    1.5107   -0.9214 H   0  0  0  0  0  0  0  0  0  0  0  0
    2.4996   -3.2527    0.3273 H   0  0  0  0  0  0  0  0  0  0  0  0
    0.7589   -2.8708    0.4270 H   0  0  0  0  0  0  0  0  0  0  0  0
    1.7972   -2.7009    1.8744 H   0  0  0  0  0  0  0  0  0  0  0  0
   -1.7236    1.6155    1.8318 H   0  0  0  0  0  0  0  0  0  0  0  0
   -1.1222    0.7788   -2.3624 H   0  0  0  0  0  0  0  0  0  0  0  0
   -3.2438   -0.2969    1.9939 H   0  0  0  0  0  0  0  0  0  0  0  0
   -2.6511   -1.1320   -2.1965 H   0  0  0  0  0  0  0  0  0  0  0  0
  1 16  1  0  0  0  0
  2  7  1  0  0  0  0
  2 11  1  0  0  0  0
  3  9  2  0  0  0  0
  4  5  1  0  0  0  0
  4  9  1  0  0  0  0
  4 10  1  0  0  0  0
  5  6  1  0  0  0  0
  5 19  1  0  0  0  0
  6  7  1  0  0  0  0
  6  8  2  0  0  0  0
  7 17  1  0  0  0  0
  7 18  1  0  0  0  0
  8  9  1  0  0  0  0
  8 20  1  0  0  0  0
 10 21  1  0  0  0  0
 10 22  1  0  0  0  0
 10 23  1  0  0  0  0
 11 12  2  0  0  0  0
 11 13  1  0  0  0  0
 12 14  1  0  0  0  0
 12 24  1  0  0  0  0
 13 15  2  0  0  0  0
 13 25  1  0  0  0  0
 14 16  2  0  0  0  0
 14 26  1  0  0  0  0
 15 16  1  0  0  0  0
 15 27  1  0  0  0  0
M  END
> <PUBCHEM_COMPOUND_CID>
3842739

> <PUBCHEM_CONFORMER_RMSD>
0.6

> <PUBCHEM_CONFORMER_DIVERSEORDER>
3
2
10
7
5
11
1
6
4
8
9
15
16
12
13
14

> <PUBCHEM_MMFF94_PARTIAL_CHARGES>
22
1 -0.18
10 0.3
11 0.1
12 -0.15
13 -0.15
14 -0.15
15 -0.15
16 0.18
19 0.4
2 -0.33
20 0.15
24 0.15
25 0.15
26 0.15
27 0.15
3 -0.57
4 -0.34
5 -0.52
6 -0.04
7 0.37
8 -0.14
9 0.62

> <PUBCHEM_EFFECTIVE_ROTOR_COUNT>
3

> <PUBCHEM_PHARMACOPHORE_FEATURES>
4
1 3 acceptor
1 5 donor
5 4 5 6 8 9 rings
6 11 12 13 14 15 16 rings

> <PUBCHEM_HEAVY_ATOM_COUNT>
16

> <PUBCHEM_ATOM_DEF_STEREO_COUNT>
0

> <PUBCHEM_ATOM_UDEF_STEREO_COUNT>
0

> <PUBCHEM_BOND_DEF_STEREO_COUNT>
0

> <PUBCHEM_BOND_UDEF_STEREO_COUNT>
0

> <PUBCHEM_ISOTOPIC_ATOM_COUNT>
0

> <PUBCHEM_COMPONENT_COUNT>
1

> <PUBCHEM_CACTVS_TAUTO_COUNT>
3

> <PUBCHEM_CONFORMER_ID>
003AA2B300000003

> <PUBCHEM_MMFF94_ENERGY>
41.7074

> <PUBCHEM_FEATURE_SELFOVERLAP>
20.297

> <PUBCHEM_SHAPE_FINGERPRINT>
11578080 2 17773571910995034921
11640471 11 12179834013886010397
12403259 327 14405188391206823999
12553582 1 18338233760838232371
12596599 1 18058748934517992259
13533116 47 18054794155430488835
13571099 52 9079123254011367817
14251717 144 18119525690000501059
15276787 5 14476684065940770796
15375462 189 18338806610817722202
16945 1 18261391084023136808
18522851 12 18266751194170197954
19422 9 18200888334563604736
19766037 51 18334022708723894871
20291156 8 18343303686463720183
20361792 2 18342449339964222221
20645476 183 17542795205029507964
20645477 70 18198887292658372703
21713013 43 18186238428855756495
21731516 1 18342730789165581316
22445834 79 18129665330376391873
23402539 116 18335987468011176220
23598291 2 18200611257934306769
23728640 28 17256509834650114763
2871803 45 18335135423123681031
81228 2 18118102706942991901
94968 8 18337673130198799215

> <PUBCHEM_SHAPE_MULTIPOLES>
319.16
6.29
2.8
1.19
1.29
0.05
0.15
-4.37
0.76
-0.6
-0.33
0.3
0.04
0.1

> <PUBCHEM_SHAPE_SELFOVERLAP>
651.89

> <PUBCHEM_SHAPE_VOLUME>
188.1

> <PUBCHEM_COORDINATE_TYPE>
2
5
10

$$$$
