266054
  -OEChem-01171811433D

 32 34  0     0  0  0  0  0  0999 V2000
    2.0360    2.7577    0.2297 O   0  0  0  0  0  0  0  0  0  0  0  0
    2.0342   -2.7585    0.2293 O   0  0  0  0  0  0  0  0  0  0  0  0
   -0.5439    2.6720    0.0993 O   0  0  0  0  0  0  0  0  0  0  0  0
   -0.5452   -2.6716    0.1009 O   0  0  0  0  0  0  0  0  0  0  0  0
    0.7539    0.6981    0.1659 C   0  0  0  0  0  0  0  0  0  0  0  0
    0.7536   -0.6983    0.1657 C   0  0  0  0  0  0  0  0  0  0  0  0
   -1.7889    0.6987    0.0369 C   0  0  0  0  0  0  0  0  0  0  0  0
   -1.7892   -0.6978    0.0371 C   0  0  0  0  0  0  0  0  0  0  0  0
   -0.5173    1.4476    0.1012 C   0  0  0  0  0  0  0  0  0  0  0  0
   -0.5180   -1.4474    0.1015 C   0  0  0  0  0  0  0  0  0  0  0  0
    1.9660    1.3961    0.2276 C   0  0  0  0  0  0  0  0  0  0  0  0
    1.9654   -1.3968    0.2265 C   0  0  0  0  0  0  0  0  0  0  0  0
    3.1714    0.6961    0.2884 C   0  0  0  0  0  0  0  0  0  0  0  0
    3.1711   -0.6974    0.2877 C   0  0  0  0  0  0  0  0  0  0  0  0
   -3.0006    1.3972   -0.0247 C   0  0  0  0  0  0  0  0  0  0  0  0
   -3.0013   -1.3958   -0.0245 C   0  0  0  0  0  0  0  0  0  0  0  0
   -4.2062    0.6977   -0.0860 C   0  0  0  0  0  0  0  0  0  0  0  0
   -4.2066   -0.6958   -0.0860 C   0  0  0  0  0  0  0  0  0  0  0  0
    2.1346    3.4024   -1.0380 C   0  0  0  0  0  0  0  0  0  0  0  0
    2.1310   -3.4040   -1.0383 C   0  0  0  0  0  0  0  0  0  0  0  0
    4.1168    1.2302    0.3374 H   0  0  0  0  0  0  0  0  0  0  0  0
    4.1162   -1.2318    0.3365 H   0  0  0  0  0  0  0  0  0  0  0  0
   -3.0291    2.4835   -0.0263 H   0  0  0  0  0  0  0  0  0  0  0  0
   -3.0302   -2.4821   -0.0259 H   0  0  0  0  0  0  0  0  0  0  0  0
   -5.1459    1.2402   -0.1338 H   0  0  0  0  0  0  0  0  0  0  0  0
   -5.1467   -1.2378   -0.1338 H   0  0  0  0  0  0  0  0  0  0  0  0
    3.1450    3.2784   -1.4398 H   0  0  0  0  0  0  0  0  0  0  0  0
    1.9440    4.4697   -0.8961 H   0  0  0  0  0  0  0  0  0  0  0  0
    1.4033    3.0068   -1.7504 H   0  0  0  0  0  0  0  0  0  0  0  0
    3.1413   -3.2814   -1.4409 H   0  0  0  0  0  0  0  0  0  0  0  0
    1.3997   -3.0078   -1.7503 H   0  0  0  0  0  0  0  0  0  0  0  0
    1.9391   -4.4710   -0.8957 H   0  0  0  0  0  0  0  0  0  0  0  0
  1 11  1  0  0  0  0
  1 19  1  0  0  0  0
  2 12  1  0  0  0  0
  2 20  1  0  0  0  0
  3  9  2  0  0  0  0
  4 10  2  0  0  0  0
  5  6  1  0  0  0  0
  5  9  1  0  0  0  0
  5 11  2  0  0  0  0
  6 10  1  0  0  0  0
  6 12  2  0  0  0  0
  7  8  1  0  0  0  0
  7  9  1  0  0  0  0
  7 15  2  0  0  0  0
  8 10  1  0  0  0  0
  8 16  2  0  0  0  0
 11 13  1  0  0  0  0
 12 14  1  0  0  0  0
 13 14  2  0  0  0  0
 13 21  1  0  0  0  0
 14 22  1  0  0  0  0
 15 17  1  0  0  0  0
 15 23  1  0  0  0  0
 16 18  1  0  0  0  0
 16 24  1  0  0  0  0
 17 18  2  0  0  0  0
 17 25  1  0  0  0  0
 18 26  1  0  0  0  0
 19 27  1  0  0  0  0
 19 28  1  0  0  0  0
 19 29  1  0  0  0  0
 20 30  1  0  0  0  0
 20 31  1  0  0  0  0
 20 32  1  0  0  0  0
M  END
> <PUBCHEM_COMPOUND_CID>
266054

> <PUBCHEM_CONFORMER_RMSD>
0.6

> <PUBCHEM_CONFORMER_DIVERSEORDER>
1

> <PUBCHEM_MMFF94_PARTIAL_CHARGES>
26
1 -0.36
10 0.4
11 0.08
12 0.08
13 -0.15
14 -0.15
15 -0.15
16 -0.15
17 -0.15
18 -0.15
19 0.28
2 -0.36
20 0.28
21 0.15
22 0.15
23 0.15
24 0.15
25 0.15
26 0.15
3 -0.57
4 -0.57
5 0.09
6 0.09
7 0.09
8 0.09
9 0.4

> <PUBCHEM_EFFECTIVE_ROTOR_COUNT>
2

> <PUBCHEM_PHARMACOPHORE_FEATURES>
7
1 1 acceptor
1 2 acceptor
1 3 acceptor
1 4 acceptor
6 5 6 11 12 13 14 rings
6 5 6 7 8 9 10 rings
6 7 8 15 16 17 18 rings

> <PUBCHEM_HEAVY_ATOM_COUNT>
20

> <PUBCHEM_ATOM_DEF_STEREO_COUNT>
0

> <PUBCHEM_ATOM_UDEF_STEREO_COUNT>
0

> <PUBCHEM_BOND_DEF_STEREO_COUNT>
0

> <PUBCHEM_BOND_UDEF_STEREO_COUNT>
0

> <PUBCHEM_ISOTOPIC_ATOM_COUNT>
0

> <PUBCHEM_COMPONENT_COUNT>
1

> <PUBCHEM_CACTVS_TAUTO_COUNT>
1

> <PUBCHEM_CONFORMER_ID>
00040F4600000001

> <PUBCHEM_MMFF94_ENERGY>
84.976

> <PUBCHEM_FEATURE_SELFOVERLAP>
35.59

> <PUBCHEM_SHAPE_FINGERPRINT>
10319926 262 17113791022870747674
10411042 1 17978227162694469667
10608611 8 18408035213262027649
10616163 171 18193557993747115811
10967382 1 18410853235356273035
11471102 20 18410287016927393199
11578080 2 17024857161778872598
11680986 33 18411421665704015771
116883 192 18053380994175688438
12173636 292 17906169912195552757
12553582 1 17905610999648506995
13140716 1 18266170824129851378
13583140 156 16879322680221757073
138480 1 18338797797692530002
14223421 5 18335986453903242931
14790565 3 18338242686261094120
15196674 1 18410571786159844241
15442244 35 18196935465913238611
15536298 74 18271523109020883811
16945 1 18410578383408952464
17492 89 18413386523670783847
19591789 44 17328593228704327763
20645477 70 18408595985830423919
20739085 24 17908168502286051465
20905425 154 18198343965972728494
21267235 1 18411143545423862763
21501502 16 18266454502314021097
221490 88 18409455756304632387
2255824 54 18337112362368547004
23184049 29 18049999991841938538
2334 1 17978228592991594336
23366157 5 18114180843439255282
23463225 33 18410008840712562153
23559900 14 18412256220841285144
2748010 2 18192699068917429411
3091708 16 9504507810033613594
335352 9 18338514131992432821
350125 39 18192998346707817800
352729 6 18194402418550569419
394222 165 17825378846022583768
458136 41 18194141791572031857
5104073 3 18410570686695703145
7364860 26 18413107260205630146
81228 2 17979079279783636130
9709674 26 18409731763972747371

> <PUBCHEM_SHAPE_MULTIPOLES>
388.11
6.15
3.79
0.74
4.78
0
-0.12
0
-0.15
-3.19
-0.97
-0.28
0
0

> <PUBCHEM_SHAPE_SELFOVERLAP>
868.948

> <PUBCHEM_SHAPE_VOLUME>
204.2

> <PUBCHEM_COORDINATE_TYPE>
2
5
10

$$$$
