3219779
  -OEChem-01171812043D

 60 64  0     1  0  0  0  0  0999 V2000
   -1.2779   -0.8767    1.1092 O   0  0  0  0  0  0  0  0  0  0  0  0
    1.2136    0.2013   -1.2080 O   0  0  0  0  0  0  0  0  0  0  0  0
    7.4503    0.5077    0.9558 O   0  0  0  0  0  0  0  0  0  0  0  0
   -2.5044   -0.7170   -0.8628 N   0  0  0  0  0  0  0  0  0  0  0  0
    0.8216   -1.8449   -0.2346 N   0  0  0  0  0  0  0  0  0  0  0  0
    2.9193   -0.8286    0.0051 N   0  0  0  0  0  0  0  0  0  0  0  0
   -3.5730    0.1200   -0.3628 C   0  0  0  0  0  0  0  0  0  0  0  0
   -4.1311    2.3540    0.6866 C   0  0  0  0  0  0  0  0  0  0  0  0
   -5.4429    0.3007    1.3342 C   0  0  0  0  0  0  0  0  0  0  0  0
   -5.7282    1.3067   -0.9593 C   0  0  0  0  0  0  0  0  0  0  0  0
   -3.0002    1.4579    0.1528 C   0  0  0  0  0  0  0  0  0  0  0  0
   -4.3074   -0.5876    0.7976 C   0  0  0  0  0  0  0  0  0  0  0  0
   -4.5914    0.4143   -1.4865 C   0  0  0  0  0  0  0  0  0  0  0  0
   -4.8511    1.6288    1.8362 C   0  0  0  0  0  0  0  0  0  0  0  0
   -5.1351    2.6298   -0.4456 C   0  0  0  0  0  0  0  0  0  0  0  0
   -6.4400    0.5873    0.1989 C   0  0  0  0  0  0  0  0  0  0  0  0
   -1.4474   -1.1424   -0.0780 C   0  0  0  0  0  0  0  0  0  0  0  0
   -0.4955   -2.0180   -0.8362 C   0  0  2  0  0  0  0  0  0  0  0  0
   -0.8157   -3.4963   -0.6520 C   0  0  0  0  0  0  0  0  0  0  0  0
   -0.0697   -3.8640    0.6272 C   0  0  0  0  0  0  0  0  0  0  0  0
    1.1945   -3.0209    0.5525 C   0  0  0  0  0  0  0  0  0  0  0  0
    1.6339   -0.7395   -0.5320 C   0  0  0  0  0  0  0  0  0  0  0  0
    3.9778    0.1056   -0.1142 C   0  0  0  0  0  0  0  0  0  0  0  0
    5.2062   -0.1575    0.4875 C   0  0  0  0  0  0  0  0  0  0  0  0
    3.7858    1.2829   -0.8335 C   0  0  0  0  0  0  0  0  0  0  0  0
    6.2485    0.7619    0.3692 C   0  0  0  0  0  0  0  0  0  0  0  0
    4.8281    2.2022   -0.9517 C   0  0  0  0  0  0  0  0  0  0  0  0
    6.0593    1.9418   -0.3504 C   0  0  0  0  0  0  0  0  0  0  0  0
    8.4720    1.4905    0.7948 C   0  0  0  0  0  0  0  0  0  0  0  0
   -3.7142    3.3003    1.0490 H   0  0  0  0  0  0  0  0  0  0  0  0
   -5.9563   -0.2104    2.1564 H   0  0  0  0  0  0  0  0  0  0  0  0
   -6.4433    1.5095   -1.7644 H   0  0  0  0  0  0  0  0  0  0  0  0
   -2.2693    1.3110    0.9554 H   0  0  0  0  0  0  0  0  0  0  0  0
   -2.4656    1.9760   -0.6546 H   0  0  0  0  0  0  0  0  0  0  0  0
   -4.7164   -1.5477    0.4557 H   0  0  0  0  0  0  0  0  0  0  0  0
   -3.6324   -0.8236    1.6276 H   0  0  0  0  0  0  0  0  0  0  0  0
   -4.0930    0.9076   -2.3314 H   0  0  0  0  0  0  0  0  0  0  0  0
   -5.0062   -0.5235   -1.8791 H   0  0  0  0  0  0  0  0  0  0  0  0
   -5.6485    2.2653    2.2390 H   0  0  0  0  0  0  0  0  0  0  0  0
   -4.1492    1.4394    2.6576 H   0  0  0  0  0  0  0  0  0  0  0  0
   -5.9376    3.2839   -0.0832 H   0  0  0  0  0  0  0  0  0  0  0  0
   -4.6376    3.1609   -1.2664 H   0  0  0  0  0  0  0  0  0  0  0  0
   -6.8814   -0.3513   -0.1580 H   0  0  0  0  0  0  0  0  0  0  0  0
   -7.2654    1.2055    0.5727 H   0  0  0  0  0  0  0  0  0  0  0  0
   -2.5483   -1.0173   -1.8325 H   0  0  0  0  0  0  0  0  0  0  0  0
   -0.4616   -1.7290   -1.8924 H   0  0  0  0  0  0  0  0  0  0  0  0
   -1.8865   -3.7107   -0.5821 H   0  0  0  0  0  0  0  0  0  0  0  0
   -0.4034   -4.0727   -1.4891 H   0  0  0  0  0  0  0  0  0  0  0  0
   -0.6638   -3.5761    1.5025 H   0  0  0  0  0  0  0  0  0  0  0  0
    0.1437   -4.9339    0.7028 H   0  0  0  0  0  0  0  0  0  0  0  0
    1.9919   -3.5473    0.0167 H   0  0  0  0  0  0  0  0  0  0  0  0
    1.5576   -2.7243    1.5409 H   0  0  0  0  0  0  0  0  0  0  0  0
    3.1517   -1.6573    0.5431 H   0  0  0  0  0  0  0  0  0  0  0  0
    5.3605   -1.0754    1.0498 H   0  0  0  0  0  0  0  0  0  0  0  0
    2.8664    1.5611   -1.3273 H   0  0  0  0  0  0  0  0  0  0  0  0
    4.6811    3.1214   -1.5118 H   0  0  0  0  0  0  0  0  0  0  0  0
    6.8252    2.6986   -0.4819 H   0  0  0  0  0  0  0  0  0  0  0  0
    9.3579    1.1255    1.3249 H   0  0  0  0  0  0  0  0  0  0  0  0
    8.7549    1.6084   -0.2568 H   0  0  0  0  0  0  0  0  0  0  0  0
    8.1916    2.4423    1.2586 H   0  0  0  0  0  0  0  0  0  0  0  0
  1 17  2  0  0  0  0
  2 22  2  0  0  0  0
  3 26  1  0  0  0  0
  3 29  1  0  0  0  0
  4  7  1  0  0  0  0
  4 17  1  0  0  0  0
  4 45  1  0  0  0  0
  5 18  1  0  0  0  0
  5 21  1  0  0  0  0
  5 22  1  0  0  0  0
  6 22  1  0  0  0  0
  6 23  1  0  0  0  0
  6 53  1  0  0  0  0
  7 11  1  0  0  0  0
  7 12  1  0  0  0  0
  7 13  1  0  0  0  0
  8 11  1  0  0  0  0
  8 14  1  0  0  0  0
  8 15  1  0  0  0  0
  8 30  1  0  0  0  0
  9 12  1  0  0  0  0
  9 14  1  0  0  0  0
  9 16  1  0  0  0  0
  9 31  1  0  0  0  0
 10 13  1  0  0  0  0
 10 15  1  0  0  0  0
 10 16  1  0  0  0  0
 10 32  1  0  0  0  0
 11 33  1  0  0  0  0
 11 34  1  0  0  0  0
 12 35  1  0  0  0  0
 12 36  1  0  0  0  0
 13 37  1  0  0  0  0
 13 38  1  0  0  0  0
 14 39  1  0  0  0  0
 14 40  1  0  0  0  0
 15 41  1  0  0  0  0
 15 42  1  0  0  0  0
 16 43  1  0  0  0  0
 16 44  1  0  0  0  0
 17 18  1  0  0  0  0
 18 19  1  0  0  0  0
 18 46  1  0  0  0  0
 19 20  1  0  0  0  0
 19 47  1  0  0  0  0
 19 48  1  0  0  0  0
 20 21  1  0  0  0  0
 20 49  1  0  0  0  0
 20 50  1  0  0  0  0
 21 51  1  0  0  0  0
 21 52  1  0  0  0  0
 23 24  2  0  0  0  0
 23 25  1  0  0  0  0
 24 26  1  0  0  0  0
 24 54  1  0  0  0  0
 25 27  2  0  0  0  0
 25 55  1  0  0  0  0
 26 28  2  0  0  0  0
 27 28  1  0  0  0  0
 27 56  1  0  0  0  0
 28 57  1  0  0  0  0
 29 58  1  0  0  0  0
 29 59  1  0  0  0  0
 29 60  1  0  0  0  0
M  END
> <PUBCHEM_COMPOUND_CID>
3219779

> <PUBCHEM_CONFORMER_RMSD>
1

> <PUBCHEM_CONFORMER_DIVERSEORDER>
1
28
106
87
112
96
35
13
114
79
74
73
119
72
22
32
75
58
103
83
44
40
16
101
53
38
116
81
117
30
115
54
29
80
34
98
66
86
111
65
46
113
90
63
39
31
3
48
56
18
64
33
61
9
27
89
26
71
77
47
68
5
109
7
69
104
59
49
107
21
94
76
67
88
50
85
62
41
36
100
97
23
51
55
11
4
108
102
6
24
70
84
91
2
52
99
82
60
92
17
25
42
95
110
57
118
37
15
14
12
43
45
10
93
8
78
20
19
105

> <PUBCHEM_MMFF94_PARTIAL_CHARGES>
24
1 -0.57
17 0.57
18 0.36
2 -0.57
21 0.3
22 0.69
23 0.12
24 -0.15
25 -0.15
26 0.08
27 -0.15
28 -0.15
29 0.28
3 -0.36
4 -0.73
45 0.37
5 -0.66
53 0.37
54 0.15
55 0.15
56 0.15
57 0.15
6 -0.55
7 0.3

> <PUBCHEM_EFFECTIVE_ROTOR_COUNT>
9.2

> <PUBCHEM_PHARMACOPHORE_FEATURES>
11
1 1 acceptor
1 2 acceptor
1 3 acceptor
1 4 donor
1 6 donor
5 5 18 19 20 21 rings
6 23 24 25 26 27 28 rings
6 7 8 10 11 13 15 rings
6 7 8 9 11 12 14 rings
6 7 9 10 12 13 16 rings
6 8 9 10 14 15 16 rings

> <PUBCHEM_HEAVY_ATOM_COUNT>
29

> <PUBCHEM_ATOM_DEF_STEREO_COUNT>
0

> <PUBCHEM_ATOM_UDEF_STEREO_COUNT>
1

> <PUBCHEM_BOND_DEF_STEREO_COUNT>
0

> <PUBCHEM_BOND_UDEF_STEREO_COUNT>
0

> <PUBCHEM_ISOTOPIC_ATOM_COUNT>
0

> <PUBCHEM_COMPONENT_COUNT>
1

> <PUBCHEM_CACTVS_TAUTO_COUNT>
4

> <PUBCHEM_CONFORMER_ID>
0031214300000001

> <PUBCHEM_MMFF94_ENERGY>
90.7646

> <PUBCHEM_FEATURE_SELFOVERLAP>
68.356

> <PUBCHEM_SHAPE_FINGERPRINT>
10 15 17894918446372902868
10319926 262 16443356346894570147
10411042 1 17691964182623980807
10692045 39 18336265644316509498
11135609 201 18202009789933586435
11136131 41 18189329061905978578
12107183 9 18333723625304664242
12120059 20 9582645673778234332
12422481 6 17385443198113600748
12516196 113 9511456715004985342
12596602 18 17530968007283266289
12760667 363 8358260336902284003
13631057 29 18200304546494974335
13673619 4 11963386354419313870
13782708 43 12035718830711971576
13785724 45 17832138330436902402
13885169 86 18336271235952368388
14257110 125 18411418414376563415
14420673 8 9295282855445689037
14790565 3 18410015433408597620
15021287 119 17168420562821976676
15183329 4 15626226801538430070
15188451 53 14779843706096702201
15352257 5 13190328051292243608
17780758 139 12757145762735929949
1813 80 8574428763761377179
18222031 100 9223228512122848646
18393751 57 18261120685914814747
18608769 82 18270682090685801755
21033648 144 18188203213675620751
21033650 10 14620526592550710523
21403212 168 17894622647754015670
21756936 100 18343579680883255102
22950370 63 9367343742974063614
23198884 109 16056885719318967157
23559900 14 17831581977616102651
2748736 6 18412541011775848048
2838139 119 18272364291551550108
3411729 13 18335701590176749954
3459 39 18341601621110549032
445580 204 18060420218336458072
44802255 64 16987720272372817180
44880168 125 13407062726702691648
474 4 18336548222872604615
5104073 3 17969793977871625907
5385378 56 18408885097433625378
543368 44 18060138713711688177
6058803 2 17770490938481431623
636775 72 18129655443910829536
6371009 1 18410290319779181109
7226269 152 18131633400519105744
7808743 9 18412825815056671131
7970288 3 9223230736879361244
9981440 41 18334021588091268243
999808 66 12035442831602324920

> <PUBCHEM_SHAPE_MULTIPOLES>
564.26
19.6
3.5
1.25
25.37
3.13
-0.12
-18.05
-4.02
-0.32
-0.05
-1
-0.25
-0.48

> <PUBCHEM_SHAPE_SELFOVERLAP>
1227.237

> <PUBCHEM_SHAPE_VOLUME>
300.3

> <PUBCHEM_COORDINATE_TYPE>
2
5
10

$$$$
