250237
  -OEChem-01171812163D

 39 41  0     0  0  0  0  0  0999 V2000
    1.5832    5.8276   -0.0017 S   0  0  0  0  0  0  0  0  0  0  0  0
   -6.0773   -1.3603   -0.0011 S   0  0  0  0  0  0  0  0  0  0  0  0
    4.6708   -4.2065   -0.0005 S   0  0  0  0  0  0  0  0  0  0  0  0
    0.7130    0.9906    0.0006 N   0  0  0  0  0  0  0  0  0  0  0  0
   -1.3213   -0.1321    0.0020 N   0  0  0  0  0  0  0  0  0  0  0  0
    0.0962    2.1970    0.0008 N   0  0  0  0  0  0  0  0  0  0  0  0
   -2.1570   -1.1966    0.0014 N   0  0  0  0  0  0  0  0  0  0  0  0
    0.6598   -1.4032    0.0017 N   0  0  0  0  0  0  0  0  0  0  0  0
    2.0463   -1.2892    0.0010 N   0  0  0  0  0  0  0  0  0  0  0  0
    0.4273    4.5942   -0.0002 C   0  0  0  0  0  0  0  0  0  0  0  0
   -4.4744   -1.8966    0.0000 C   0  0  0  0  0  0  0  0  0  0  0  0
    4.0626   -2.6289    0.0002 C   0  0  0  0  0  0  0  0  0  0  0  0
   -0.8542    5.0155    0.0007 C   0  0  0  0  0  0  0  0  0  0  0  0
   -4.3228   -3.2370   -0.0001 C   0  0  0  0  0  0  0  0  0  0  0  0
    5.0009   -1.6588   -0.0002 C   0  0  0  0  0  0  0  0  0  0  0  0
    0.0608   -0.2366    0.0017 C   0  0  0  0  0  0  0  0  0  0  0  0
   -0.9119    6.4391   -0.0001 C   0  0  0  0  0  0  0  0  0  0  0  0
   -5.5927   -3.8831   -0.0014 C   0  0  0  0  0  0  0  0  0  0  0  0
    0.9099    3.2020   -0.0002 C   0  0  0  0  0  0  0  0  0  0  0  0
   -3.4103   -0.8774    0.0007 C   0  0  0  0  0  0  0  0  0  0  0  0
    0.3427    7.0079   -0.0013 C   0  0  0  0  0  0  0  0  0  0  0  0
   -6.6328   -2.9800   -0.0020 C   0  0  0  0  0  0  0  0  0  0  0  0
    6.3077   -2.2266   -0.0014 C   0  0  0  0  0  0  0  0  0  0  0  0
    2.6002   -2.4574    0.0011 C   0  0  0  0  0  0  0  0  0  0  0  0
    6.2734   -3.6037   -0.0018 C   0  0  0  0  0  0  0  0  0  0  0  0
   -1.7245    4.3719    0.0017 H   0  0  0  0  0  0  0  0  0  0  0  0
   -3.3749   -3.7596    0.0006 H   0  0  0  0  0  0  0  0  0  0  0  0
    4.8003   -0.5951    0.0002 H   0  0  0  0  0  0  0  0  0  0  0  0
   -1.8271    7.0169    0.0003 H   0  0  0  0  0  0  0  0  0  0  0  0
   -5.7362   -4.9558   -0.0018 H   0  0  0  0  0  0  0  0  0  0  0  0
    2.0068    3.0533   -0.0011 H   0  0  0  0  0  0  0  0  0  0  0  0
   -3.7331    0.1816    0.0007 H   0  0  0  0  0  0  0  0  0  0  0  0
    7.2262   -1.6542   -0.0021 H   0  0  0  0  0  0  0  0  0  0  0  0
    0.5901    8.0601   -0.0021 H   0  0  0  0  0  0  0  0  0  0  0  0
   -7.6923   -3.1939   -0.0030 H   0  0  0  0  0  0  0  0  0  0  0  0
    1.7301    0.9730    0.0000 H   0  0  0  0  0  0  0  0  0  0  0  0
   -1.7237    0.8019    0.0014 H   0  0  0  0  0  0  0  0  0  0  0  0
    1.9827   -3.3761    0.0015 H   0  0  0  0  0  0  0  0  0  0  0  0
    7.1130   -4.2845   -0.0027 H   0  0  0  0  0  0  0  0  0  0  0  0
  1 10  1  0  0  0  0
  1 21  1  0  0  0  0
  2 11  1  0  0  0  0
  2 22  1  0  0  0  0
  3 12  1  0  0  0  0
  3 25  1  0  0  0  0
  4  6  1  0  0  0  0
  4 16  1  0  0  0  0
  4 36  1  0  0  0  0
  5  7  1  0  0  0  0
  5 16  1  0  0  0  0
  5 37  1  0  0  0  0
  6 19  2  0  0  0  0
  7 20  2  0  0  0  0
  8  9  1  0  0  0  0
  8 16  2  0  0  0  0
  9 24  2  0  0  0  0
 10 13  2  0  0  0  0
 10 19  1  0  0  0  0
 11 14  2  0  0  0  0
 11 20  1  0  0  0  0
 12 15  2  0  0  0  0
 12 24  1  0  0  0  0
 13 17  1  0  0  0  0
 13 26  1  0  0  0  0
 14 18  1  0  0  0  0
 14 27  1  0  0  0  0
 15 23  1  0  0  0  0
 15 28  1  0  0  0  0
 17 21  2  0  0  0  0
 17 29  1  0  0  0  0
 18 22  2  0  0  0  0
 18 30  1  0  0  0  0
 19 31  1  0  0  0  0
 20 32  1  0  0  0  0
 21 34  1  0  0  0  0
 22 35  1  0  0  0  0
 23 25  2  0  0  0  0
 23 33  1  0  0  0  0
 24 38  1  0  0  0  0
 25 39  1  0  0  0  0
M  END
> <PUBCHEM_COMPOUND_CID>
250237

> <PUBCHEM_CONFORMER_RMSD>
0.8

> <PUBCHEM_CONFORMER_DIVERSEORDER>
1
42
54
72
24
49
65
32
55
48
26
71
60
68
46
37
47
70
30
59
57
53
62
61
67
23
4
18
27
19
50
56
25
44
38
66
51
34
39
21
64
35
10
58
29
45
63
33
75
73
52
20
7
15
8
69
43
14
31
5
28
3
40
6
2
13
16
9
22
41
11
12
17
74
36

> <PUBCHEM_MMFF94_PARTIAL_CHARGES>
39
1 -0.08
10 -0.05
11 -0.05
12 -0.05
13 -0.15
14 -0.15
15 -0.15
16 0.55
17 -0.15
18 -0.15
19 0.47
2 -0.08
20 0.47
21 -0.11
22 -0.11
23 -0.15
24 0.47
25 -0.11
26 0.15
27 0.15
28 0.15
29 0.15
3 -0.08
30 0.15
31 0.06
32 0.06
33 0.15
34 0.15
35 0.15
36 0.4
37 0.4
38 0.06
39 0.15
4 -0.41
5 -0.41
6 -0.49
7 -0.49
8 -0.45
9 -0.45

> <PUBCHEM_EFFECTIVE_ROTOR_COUNT>
8

> <PUBCHEM_PHARMACOPHORE_FEATURES>
9
1 4 donor
1 5 donor
1 6 acceptor
1 7 acceptor
1 9 acceptor
4 4 5 8 16 cation
5 1 10 13 17 21 rings
5 2 11 14 18 22 rings
5 3 12 15 23 25 rings

> <PUBCHEM_HEAVY_ATOM_COUNT>
25

> <PUBCHEM_ATOM_DEF_STEREO_COUNT>
0

> <PUBCHEM_ATOM_UDEF_STEREO_COUNT>
0

> <PUBCHEM_BOND_DEF_STEREO_COUNT>
0

> <PUBCHEM_BOND_UDEF_STEREO_COUNT>
3

> <PUBCHEM_ISOTOPIC_ATOM_COUNT>
0

> <PUBCHEM_COMPONENT_COUNT>
1

> <PUBCHEM_CACTVS_TAUTO_COUNT>
1

> <PUBCHEM_CONFORMER_ID>
0003D17D00000001

> <PUBCHEM_MMFF94_ENERGY>
36.4046

> <PUBCHEM_FEATURE_SELFOVERLAP>
45.717

> <PUBCHEM_SHAPE_FINGERPRINT>
10319688 45 18267023856190502505
10411042 1 18410575076136941539
11056379 131 18122915222456883982
11763715 3 18265637432373710014
12107183 9 18341906152189376499
12218070 45 17913226265039405337
12516196 113 18409729556053991906
13248334 5 18194401331897268216
13590594 115 18337400344479129009
13617811 41 18337393872538881204
13785724 45 18412263956098575272
13835254 42 18338234865352053206
13955234 65 18049729808597928395
14394314 77 18411140195534651123
14790565 3 17113535913990026561
15198563 99 18268148660585065132
15400415 2 17185876637111185597
15927050 60 17548702232586968494
15980000 95 18411143536633546204
17980427 26 17837486723616651077
20238998 120 18410571777538261013
22311459 1 18122343742370858232
23559900 14 18337946913670356803
249999 5 18051412069698681411
283562 15 18116716214427568642
3534868 343 18262533528518901590
3627633 1 18338517413315856789
563151 97 17187559989212896647
57816332 4 18192156103795262747
6673363 416 18339377305821271958
6697151 62 18192966366930510503
6700243 42 17842306712558813142
77188 2 18410856576835528620
9981440 41 17182781507451595523

> <PUBCHEM_SHAPE_MULTIPOLES>
496.15
14.59
12.69
0.61
3.73
32.6
0
-35.07
0.01
-2.74
0.01
0
0
0

> <PUBCHEM_SHAPE_SELFOVERLAP>
1015.447

> <PUBCHEM_SHAPE_VOLUME>
287

> <PUBCHEM_COORDINATE_TYPE>
2
5
10

$$$$
