209253
  -OEChem-01171812023D

 24 26  0     0  0  0  0  0  0999 V2000
   -2.1163    0.4687   -0.0001 N   0  0  0  0  0  0  0  0  0  0  0  0
   -0.5578    2.3114   -0.0005 N   0  0  0  0  0  0  0  0  0  0  0  0
    0.2533   -0.0151   -0.0001 C   0  0  0  0  0  0  0  0  0  0  0  0
   -1.0807   -0.4927   -0.0001 C   0  0  0  0  0  0  0  0  0  0  0  0
    1.3412   -0.9205   -0.0002 C   0  0  0  0  0  0  0  0  0  0  0  0
    0.5019    1.3751   -0.0001 C   0  0  0  0  0  0  0  0  0  0  0  0
   -1.2992   -1.8779    0.0001 C   0  0  0  0  0  0  0  0  0  0  0  0
    1.0837   -2.2974   -0.0003 C   0  0  0  0  0  0  0  0  0  0  0  0
    2.6519   -0.4201    0.0002 C   0  0  0  0  0  0  0  0  0  0  0  0
    1.8183    1.8473    0.0003 C   0  0  0  0  0  0  0  0  0  0  0  0
   -1.7510    1.8012   -0.0004 C   0  0  0  0  0  0  0  0  0  0  0  0
   -0.2266   -2.7704    0.0000 C   0  0  0  0  0  0  0  0  0  0  0  0
    2.8873    0.9542    0.0005 C   0  0  0  0  0  0  0  0  0  0  0  0
   -3.5060    0.0361    0.0008 C   0  0  0  0  0  0  0  0  0  0  0  0
   -2.3037   -2.2921    0.0002 H   0  0  0  0  0  0  0  0  0  0  0  0
    1.9013   -3.0149   -0.0004 H   0  0  0  0  0  0  0  0  0  0  0  0
    3.5032   -1.0977    0.0003 H   0  0  0  0  0  0  0  0  0  0  0  0
    2.0174    2.9162    0.0004 H   0  0  0  0  0  0  0  0  0  0  0  0
   -2.6153    2.4854   -0.0006 H   0  0  0  0  0  0  0  0  0  0  0  0
   -0.4147   -3.8405    0.0000 H   0  0  0  0  0  0  0  0  0  0  0  0
    3.9068    1.3291    0.0008 H   0  0  0  0  0  0  0  0  0  0  0  0
   -3.7325   -0.5556   -0.8929 H   0  0  0  0  0  0  0  0  0  0  0  0
   -4.1900    0.8920    0.0009 H   0  0  0  0  0  0  0  0  0  0  0  0
   -3.7316   -0.5548    0.8953 H   0  0  0  0  0  0  0  0  0  0  0  0
  1  4  1  0  0  0  0
  1 11  1  0  0  0  0
  1 14  1  0  0  0  0
  2  6  1  0  0  0  0
  2 11  2  0  0  0  0
  3  4  1  0  0  0  0
  3  5  2  0  0  0  0
  3  6  1  0  0  0  0
  4  7  2  0  0  0  0
  5  8  1  0  0  0  0
  5  9  1  0  0  0  0
  6 10  2  0  0  0  0
  7 12  1  0  0  0  0
  7 15  1  0  0  0  0
  8 12  2  0  0  0  0
  8 16  1  0  0  0  0
  9 13  2  0  0  0  0
  9 17  1  0  0  0  0
 10 13  1  0  0  0  0
 10 18  1  0  0  0  0
 11 19  1  0  0  0  0
 12 20  1  0  0  0  0
 13 21  1  0  0  0  0
 14 22  1  0  0  0  0
 14 23  1  0  0  0  0
 14 24  1  0  0  0  0
M  END
> <PUBCHEM_COMPOUND_CID>
209253

> <PUBCHEM_CONFORMER_RMSD>
0.4

> <PUBCHEM_CONFORMER_DIVERSEORDER>
1

> <PUBCHEM_MMFF94_PARTIAL_CHARGES>
19
1 -0.52
10 -0.15
11 0.44
12 -0.15
13 -0.15
14 0.37
15 0.15
16 0.15
17 0.15
18 0.15
19 0.06
2 -0.63
20 0.15
21 0.15
4 0.1
6 0.18
7 -0.15
8 -0.15
9 -0.15

> <PUBCHEM_EFFECTIVE_ROTOR_COUNT>
0.2

> <PUBCHEM_PHARMACOPHORE_FEATURES>
4
3 1 2 11 cation
6 1 2 3 4 6 11 rings
6 3 4 5 7 8 12 rings
6 3 5 6 9 10 13 rings

> <PUBCHEM_HEAVY_ATOM_COUNT>
14

> <PUBCHEM_ATOM_DEF_STEREO_COUNT>
0

> <PUBCHEM_ATOM_UDEF_STEREO_COUNT>
0

> <PUBCHEM_BOND_DEF_STEREO_COUNT>
0

> <PUBCHEM_BOND_UDEF_STEREO_COUNT>
0

> <PUBCHEM_ISOTOPIC_ATOM_COUNT>
0

> <PUBCHEM_COMPONENT_COUNT>
1

> <PUBCHEM_CACTVS_TAUTO_COUNT>
1

> <PUBCHEM_CONFORMER_ID>
0003316500000001

> <PUBCHEM_MMFF94_ENERGY>
48.0069

> <PUBCHEM_FEATURE_SELFOVERLAP>
20.381

> <PUBCHEM_SHAPE_FINGERPRINT>
10967382 1 18410574002331339814
11471102 20 18338230467088972133
12382932 28 18196086866306692976
12423570 1 13228665195104629252
13140716 1 18338796848225228666
13380535 76 18411415145975328254
14251717 144 18411694388138516999
16945 1 18410573963776854438
17990270 104 17977383837180415883
193761 8 17906170646618843341
20588541 1 18411704313174863685
20645476 183 17751093602665885582
21501502 16 18122345666510795713
22802520 49 18128560286878185750
2334 1 18050567644578489250
23402539 116 18270667766283690798
23419403 2 15666109214750423353
23463225 33 18262796264109674258
23552423 10 18048882887901160269
23559900 14 18198634409912707500
241688 4 17185595715562101682
2748010 2 18194686101150863694
2897 32 18337955567258707732
528886 8 18339356469584237576
53812653 166 18342174526518457600
54173680 148 18265615579532745290
66348 1 18410294687765383578
7364860 26 18053662477816368542

> <PUBCHEM_SHAPE_MULTIPOLES>
278.15
3.85
2.93
0.6
0.77
0.88
0
-1.02
0
0.06
0
-0.02
0.02
0

> <PUBCHEM_SHAPE_SELFOVERLAP>
625.417

> <PUBCHEM_SHAPE_VOLUME>
144.3

> <PUBCHEM_COORDINATE_TYPE>
2
5
10

$$$$
