51361186
  -OEChem-01171812173D

 40 43  0     0  0  0  0  0  0999 V2000
   -5.0666    2.7829   -0.8618 F   0  0  0  0  0  0  0  0  0  0  0  0
   -2.9293    2.8900   -1.2467 F   0  0  0  0  0  0  0  0  0  0  0  0
   -4.1680    1.5290   -2.3942 F   0  0  0  0  0  0  0  0  0  0  0  0
    3.0836    2.5454    1.9387 O   0  0  0  0  0  0  0  0  0  0  0  0
    4.2662    3.4801    0.0584 O   0  0  0  0  0  0  0  0  0  0  0  0
   -0.0190   -4.2839   -0.3844 O   0  0  0  0  0  0  0  0  0  0  0  0
   -1.3881   -2.9637    1.0975 O   0  0  0  0  0  0  0  0  0  0  0  0
    3.0218   -2.7542   -0.6533 N   0  0  0  0  0  0  0  0  0  0  0  0
   -0.2055   -1.3627   -0.1098 N   0  0  0  0  0  0  0  0  0  0  0  0
    2.2856   -3.8975   -0.6319 N   0  0  0  0  0  0  0  0  0  0  0  0
    2.2079   -1.6731   -0.4231 C   0  0  0  0  0  0  0  0  0  0  0  0
    2.7634   -0.3201   -0.3306 C   0  0  0  0  0  0  0  0  0  0  0  0
    0.9299   -2.0681   -0.3068 C   0  0  0  0  0  0  0  0  0  0  0  0
    2.6024    0.4162    0.8455 C   0  0  0  0  0  0  0  0  0  0  0  0
    3.1418    1.6857    0.8852 C   0  0  0  0  0  0  0  0  0  0  0  0
    3.8169    2.2195   -0.1885 C   0  0  0  0  0  0  0  0  0  0  0  0
    3.4532    0.2255   -1.4276 C   0  0  0  0  0  0  0  0  0  0  0  0
    0.9547   -3.5532   -0.4409 C   0  0  0  0  0  0  0  0  0  0  0  0
    3.9900    1.5134   -1.3611 C   0  0  0  0  0  0  0  0  0  0  0  0
   -2.4632   -0.9175    0.7198 C   0  0  0  0  0  0  0  0  0  0  0  0
   -1.3130   -1.8490    0.5862 C   0  0  0  0  0  0  0  0  0  0  0  0
    3.7986    3.6800    1.4079 C   0  0  0  0  0  0  0  0  0  0  0  0
   -2.6707    0.0764   -0.2367 C   0  0  0  0  0  0  0  0  0  0  0  0
   -3.7500    0.9511   -0.1109 C   0  0  0  0  0  0  0  0  0  0  0  0
   -3.3351   -1.0368    1.8022 C   0  0  0  0  0  0  0  0  0  0  0  0
   -4.6218    0.8318    0.9715 C   0  0  0  0  0  0  0  0  0  0  0  0
   -4.4142   -0.1620    1.9281 C   0  0  0  0  0  0  0  0  0  0  0  0
   -3.9715    2.0146   -1.1327 C   0  0  0  0  0  0  0  0  0  0  0  0
    2.0762    0.0143    1.7055 H   0  0  0  0  0  0  0  0  0  0  0  0
    4.0192   -2.7487   -0.4924 H   0  0  0  0  0  0  0  0  0  0  0  0
    3.5760   -0.3468   -2.3446 H   0  0  0  0  0  0  0  0  0  0  0  0
    4.5218    1.9379   -2.2050 H   0  0  0  0  0  0  0  0  0  0  0  0
   -0.1435   -0.3621   -0.2777 H   0  0  0  0  0  0  0  0  0  0  0  0
    2.7148   -4.8027   -0.7695 H   0  0  0  0  0  0  0  0  0  0  0  0
    4.6618    3.8835    2.0520 H   0  0  0  0  0  0  0  0  0  0  0  0
    3.1345    4.5518    1.4236 H   0  0  0  0  0  0  0  0  0  0  0  0
   -2.0219    0.1767   -1.1030 H   0  0  0  0  0  0  0  0  0  0  0  0
   -3.1878   -1.8013    2.5604 H   0  0  0  0  0  0  0  0  0  0  0  0
   -5.4681    1.5031    1.0884 H   0  0  0  0  0  0  0  0  0  0  0  0
   -5.0923   -0.2540    2.7715 H   0  0  0  0  0  0  0  0  0  0  0  0
  1 28  1  0  0  0  0
  2 28  1  0  0  0  0
  3 28  1  0  0  0  0
  4 15  1  0  0  0  0
  4 22  1  0  0  0  0
  5 16  1  0  0  0  0
  5 22  1  0  0  0  0
  6 18  2  0  0  0  0
  7 21  2  0  0  0  0
  8 10  1  0  0  0  0
  8 11  1  0  0  0  0
  8 30  1  0  0  0  0
  9 13  1  0  0  0  0
  9 21  1  0  0  0  0
  9 33  1  0  0  0  0
 10 18  1  0  0  0  0
 10 34  1  0  0  0  0
 11 12  1  0  0  0  0
 11 13  2  0  0  0  0
 12 14  2  0  0  0  0
 12 17  1  0  0  0  0
 13 18  1  0  0  0  0
 14 15  1  0  0  0  0
 14 29  1  0  0  0  0
 15 16  2  0  0  0  0
 16 19  1  0  0  0  0
 17 19  2  0  0  0  0
 17 31  1  0  0  0  0
 19 32  1  0  0  0  0
 20 21  1  0  0  0  0
 20 23  2  0  0  0  0
 20 25  1  0  0  0  0
 22 35  1  0  0  0  0
 22 36  1  0  0  0  0
 23 24  1  0  0  0  0
 23 37  1  0  0  0  0
 24 26  2  0  0  0  0
 24 28  1  0  0  0  0
 25 27  2  0  0  0  0
 25 38  1  0  0  0  0
 26 27  1  0  0  0  0
 26 39  1  0  0  0  0
 27 40  1  0  0  0  0
M  END
> <PUBCHEM_COMPOUND_CID>
51361186

> <PUBCHEM_CONFORMER_RMSD>
0.8

> <PUBCHEM_CONFORMER_DIVERSEORDER>
5
26
46
10
23
42
24
48
41
8
36
47
12
15
52
14
31
28
51
35
17
4
27
50
33
21
39
45
3
25
16
38
53
49
54
11
37
30
34
56
13
6
44
43
57
7
29
40
2
55
22
20
18
9
32
19
1

> <PUBCHEM_MMFF94_PARTIAL_CHARGES>
38
1 -0.34
10 -0.41
11 0.07
12 0.03
13 0.12
14 -0.15
15 0.08
16 0.08
17 -0.15
18 0.62
19 -0.15
2 -0.34
20 0.09
21 0.54
22 0.56
23 -0.15
24 -0.14
25 -0.15
26 -0.15
27 -0.15
28 1.16
29 0.15
3 -0.34
30 0.4
31 0.15
32 0.15
33 0.37
34 0.37
37 0.15
38 0.15
39 0.15
4 -0.36
40 0.15
5 -0.36
6 -0.57
7 -0.57
8 -0.52
9 -0.54

> <PUBCHEM_EFFECTIVE_ROTOR_COUNT>
5.6

> <PUBCHEM_PHARMACOPHORE_FEATURES>
11
1 10 donor
1 4 acceptor
1 5 acceptor
1 6 acceptor
1 7 acceptor
1 8 donor
1 9 donor
5 4 5 15 16 22 rings
5 8 10 11 13 18 rings
6 12 14 15 16 17 19 rings
6 20 23 24 25 26 27 rings

> <PUBCHEM_HEAVY_ATOM_COUNT>
28

> <PUBCHEM_ATOM_DEF_STEREO_COUNT>
0

> <PUBCHEM_ATOM_UDEF_STEREO_COUNT>
0

> <PUBCHEM_BOND_DEF_STEREO_COUNT>
0

> <PUBCHEM_BOND_UDEF_STEREO_COUNT>
0

> <PUBCHEM_ISOTOPIC_ATOM_COUNT>
0

> <PUBCHEM_COMPONENT_COUNT>
1

> <PUBCHEM_CACTVS_TAUTO_COUNT>
10

> <PUBCHEM_CONFORMER_ID>
030FB5A200000005

> <PUBCHEM_MMFF94_ENERGY>
92.0428

> <PUBCHEM_FEATURE_SELFOVERLAP>
57.603

> <PUBCHEM_SHAPE_FINGERPRINT>
10165383 225 18195554655534325198
10256941 240 17837737347896761984
10670039 82 17975992173841360204
10794284 68 17896302762865136296
11456790 92 17394175326805554409
11595378 159 16950285143451214353
12100795 323 18335416919380172965
12422481 6 18188472654438694064
12769317 202 18342178838913477482
13134695 92 18053662465084973950
13965767 371 18261948661172638496
14347329 18 18190473838447268540
14466204 15 17828478068489945506
14468879 13 18260550039226830113
14848178 96 18271813457526693800
14932701 244 16698342086794716877
15081414 286 18127422150736578246
151778 21 18411710888959685192
16988056 13 17906437836529390940
1768 85 18339091384936283081
17868525 174 17970343707515315898
19246450 95 18194372646913713744
19309040 13 16340364130337447417
20567600 299 18124027940570291044
21033648 29 18260552203727011345
21049683 118 16879347793608193993
21133410 32 13971708277462350316
21133410 62 16459401219701357925
21860390 5 17983858887000260646
22122407 14 17842304487987494817
23536364 44 17766310607761585694
23559900 14 18191870020118273939
238 59 18201435835582829590
3187 122 17756150342663069467
3418910 222 16244903664053992928
3459 39 18056745741040165616
4371632 12 18129362947673308673
44317340 157 18267011762296067165
4573279 150 17975372977428852024
469060 322 17544209623338167394
508706 21 17981891049265536060
5252454 2 18269290091151827570
54672768 99 18336264548709192540
550186 83 15864925200734347300
552612 73 18264785281378077441
57124632 79 18412542120019439274
6086070 43 17972591096476995115
633830 44 17703242779089049553
7399639 24 18264500636135253259
7808743 9 17905056090264325388
9982175 5 16166012252265411564

> <PUBCHEM_SHAPE_MULTIPOLES>
515.99
10.57
5.27
1.67
4.74
2.52
0.01
-10.87
0.06
-3.38
-0.51
1.02
-1.12
3.46

> <PUBCHEM_SHAPE_SELFOVERLAP>
1157.47

> <PUBCHEM_SHAPE_VOLUME>
272.1

> <PUBCHEM_COORDINATE_TYPE>
2
5
10

$$$$
