6537808
  -OEChem-01171811453D

 41 43  0     0  0  0  0  0  0999 V2000
    1.5151   -2.2171    0.9733 O   0  0  0  0  0  0  0  0  0  0  0  0
   -6.3663    1.1491    0.2661 O   0  0  0  0  0  0  0  0  0  0  0  0
    1.8999   -0.7937   -0.8890 N   0  0  0  0  0  0  0  0  0  0  0  0
    1.1749    0.1051   -1.6563 N   0  0  0  0  0  0  0  0  0  0  0  0
    3.2917   -1.0800   -1.1339 C   0  0  0  0  0  0  0  0  0  0  0  0
   -0.1580   -0.7942   -0.0204 C   0  0  0  0  0  0  0  0  0  0  0  0
    1.1758   -1.3996    0.1400 C   0  0  0  0  0  0  0  0  0  0  0  0
   -0.0340    0.1187   -1.1618 C   0  0  0  0  0  0  0  0  0  0  0  0
    4.1979   -0.1612   -0.3665 C   0  0  0  0  0  0  0  0  0  0  0  0
   -1.2291   -1.0451    0.7287 C   0  0  0  0  0  0  0  0  0  0  0  0
   -2.5547   -0.4787    0.6094 C   0  0  0  0  0  0  0  0  0  0  0  0
   -1.1508    0.9527   -1.6891 C   0  0  0  0  0  0  0  0  0  0  0  0
    4.6098    1.0356   -0.9408 C   0  0  0  0  0  0  0  0  0  0  0  0
    4.6162   -0.5166    0.9105 C   0  0  0  0  0  0  0  0  0  0  0  0
   -2.8869    0.6917    1.2998 C   0  0  0  0  0  0  0  0  0  0  0  0
   -3.5157   -1.0971   -0.1972 C   0  0  0  0  0  0  0  0  0  0  0  0
    5.4517    1.8893   -0.2280 C   0  0  0  0  0  0  0  0  0  0  0  0
    5.4581    0.3371    1.6233 C   0  0  0  0  0  0  0  0  0  0  0  0
   -4.1654    1.2374    1.1850 C   0  0  0  0  0  0  0  0  0  0  0  0
   -4.7944   -0.5515   -0.3120 C   0  0  0  0  0  0  0  0  0  0  0  0
   -5.1192    0.6157    0.3791 C   0  0  0  0  0  0  0  0  0  0  0  0
    5.8759    1.5401    1.0542 C   0  0  0  0  0  0  0  0  0  0  0  0
   -7.2925    0.4625   -0.5744 C   0  0  0  0  0  0  0  0  0  0  0  0
    3.4803   -1.0041   -2.2115 H   0  0  0  0  0  0  0  0  0  0  0  0
    3.4953   -2.1209   -0.8533 H   0  0  0  0  0  0  0  0  0  0  0  0
   -1.1360   -1.7614    1.5436 H   0  0  0  0  0  0  0  0  0  0  0  0
   -1.4973    1.6579   -0.9321 H   0  0  0  0  0  0  0  0  0  0  0  0
   -1.9659    0.3236   -2.0498 H   0  0  0  0  0  0  0  0  0  0  0  0
   -0.7875    1.5383   -2.5402 H   0  0  0  0  0  0  0  0  0  0  0  0
    4.2843    1.3183   -1.9381 H   0  0  0  0  0  0  0  0  0  0  0  0
    4.2994   -1.4511    1.3645 H   0  0  0  0  0  0  0  0  0  0  0  0
   -2.1552    1.1893    1.9324 H   0  0  0  0  0  0  0  0  0  0  0  0
   -3.2780   -2.0078   -0.7427 H   0  0  0  0  0  0  0  0  0  0  0  0
    5.7766    2.8261   -0.6710 H   0  0  0  0  0  0  0  0  0  0  0  0
    5.7886    0.0651    2.6215 H   0  0  0  0  0  0  0  0  0  0  0  0
   -4.4125    2.1471    1.7252 H   0  0  0  0  0  0  0  0  0  0  0  0
   -5.4860   -1.0849   -0.9550 H   0  0  0  0  0  0  0  0  0  0  0  0
    6.5314    2.2047    1.6093 H   0  0  0  0  0  0  0  0  0  0  0  0
   -6.9574    0.4510   -1.6172 H   0  0  0  0  0  0  0  0  0  0  0  0
   -8.2319    1.0243   -0.5468 H   0  0  0  0  0  0  0  0  0  0  0  0
   -7.5099   -0.5425   -0.1971 H   0  0  0  0  0  0  0  0  0  0  0  0
  1  7  2  0  0  0  0
  2 21  1  0  0  0  0
  2 23  1  0  0  0  0
  3  4  1  0  0  0  0
  3  5  1  0  0  0  0
  3  7  1  0  0  0  0
  4  8  2  0  0  0  0
  5  9  1  0  0  0  0
  5 24  1  0  0  0  0
  5 25  1  0  0  0  0
  6  7  1  0  0  0  0
  6  8  1  0  0  0  0
  6 10  2  0  0  0  0
  8 12  1  0  0  0  0
  9 13  2  0  0  0  0
  9 14  1  0  0  0  0
 10 11  1  0  0  0  0
 10 26  1  0  0  0  0
 11 15  2  0  0  0  0
 11 16  1  0  0  0  0
 12 27  1  0  0  0  0
 12 28  1  0  0  0  0
 12 29  1  0  0  0  0
 13 17  1  0  0  0  0
 13 30  1  0  0  0  0
 14 18  2  0  0  0  0
 14 31  1  0  0  0  0
 15 19  1  0  0  0  0
 15 32  1  0  0  0  0
 16 20  2  0  0  0  0
 16 33  1  0  0  0  0
 17 22  2  0  0  0  0
 17 34  1  0  0  0  0
 18 22  1  0  0  0  0
 18 35  1  0  0  0  0
 19 21  2  0  0  0  0
 19 36  1  0  0  0  0
 20 21  1  0  0  0  0
 20 37  1  0  0  0  0
 22 38  1  0  0  0  0
 23 39  1  0  0  0  0
 23 40  1  0  0  0  0
 23 41  1  0  0  0  0
M  END
> <PUBCHEM_COMPOUND_CID>
6537808

> <PUBCHEM_CONFORMER_RMSD>
0.8

> <PUBCHEM_CONFORMER_DIVERSEORDER>
2
3
5
4
1

> <PUBCHEM_MMFF94_PARTIAL_CHARGES>
33
1 -0.57
10 -0.18
11 0.03
12 0.06
13 -0.15
14 -0.15
15 -0.15
16 -0.15
17 -0.15
18 -0.15
19 -0.15
2 -0.36
20 -0.15
21 0.08
22 -0.15
23 0.28
26 0.15
3 -0.3
30 0.15
31 0.15
32 0.15
33 0.15
34 0.15
35 0.15
36 0.15
37 0.15
38 0.15
4 -0.51
5 0.44
6 0.03
7 0.62
8 0.37
9 -0.14

> <PUBCHEM_EFFECTIVE_ROTOR_COUNT>
4.2

> <PUBCHEM_PHARMACOPHORE_FEATURES>
6
1 1 acceptor
1 2 acceptor
1 4 acceptor
5 3 4 6 7 8 rings
6 11 15 16 19 20 21 rings
6 9 13 14 17 18 22 rings

> <PUBCHEM_HEAVY_ATOM_COUNT>
23

> <PUBCHEM_ATOM_DEF_STEREO_COUNT>
0

> <PUBCHEM_ATOM_UDEF_STEREO_COUNT>
0

> <PUBCHEM_BOND_DEF_STEREO_COUNT>
1

> <PUBCHEM_BOND_UDEF_STEREO_COUNT>
0

> <PUBCHEM_ISOTOPIC_ATOM_COUNT>
0

> <PUBCHEM_COMPONENT_COUNT>
1

> <PUBCHEM_CACTVS_TAUTO_COUNT>
1

> <PUBCHEM_CONFORMER_ID>
0063C25000000002

> <PUBCHEM_MMFF94_ENERGY>
78.9916

> <PUBCHEM_FEATURE_SELFOVERLAP>
30.448

> <PUBCHEM_SHAPE_FINGERPRINT>
10 15 17531253884801720029
10498660 4 15841553007423417274
10591671 39 16415477173332179789
10670039 82 15625958521112788048
11128504 68 12895355499607705354
11524674 6 14706928454255412393
117890 112 18412827992662781044
11796584 16 13190633740603238608
11961588 58 16630520752245072550
12011746 2 14117516541445036231
12236239 1 18410858725179285975
12422481 6 17168143382168918653
12592029 89 11386360443995585608
12596602 18 17822295725001972920
12633257 1 18114459080638547600
13533116 47 17023178284990964442
13685833 64 10881398738291940908
13914758 101 13695861563551129435
14251764 18 16733270139482856839
14347332 77 10015597081254146074
14347424 109 15357695305980660892
14528608 73 16702304555129278912
14739800 52 18130496458103418682
15348495 7 15647344086001461049
15575132 122 15913335654497789009
15788980 27 14923945665019346443
15961568 22 18060143137127667920
17349148 13 16443070486603431934
1813 80 9367349232375369474
19784866 140 11312063131739055455
19784866 240 12468636101824569642
20511986 3 18335691733474296735
20567600 234 18335140916218034585
21150785 3 15626219139269385605
21344244 181 11240004476950506780
21792934 111 17386276589737050269
221357 26 12391514178556619458
22182313 1 17241601719708939350
23035841 295 11095883757420191221
23227448 37 16701731774080177924
23522609 53 9366506026799685547
23559900 14 17058099787464003734
23569914 2 17339797995248160688
2767999 5 18411418418698157992
2838139 119 17704069577753168816
300161 21 18408884019317439871
3004659 81 12823024110437905060
33382 64 11602814701249506200
3472631 163 18343584074929658548
34797466 226 16702029689812065053
351380 3 9295293828585704192
4072396 5 17240483602356299814
4325135 7 17418373601625564389
465052 167 12251898192620369992
5104073 3 17241877697137728889
5207 217 16415476069187805461
5374978 207 17312821585239734062
7237137 82 14907604757604034269
960060 61 10231755609167637328

> <PUBCHEM_SHAPE_MULTIPOLES>
451.63
16.58
1.63
1.47
7.14
0.02
0.16
8.23
-2
-1
-0.25
-0.85
0.15
-0.13

> <PUBCHEM_SHAPE_SELFOVERLAP>
977.313

> <PUBCHEM_SHAPE_VOLUME>
248.1

> <PUBCHEM_COORDINATE_TYPE>
2
5
10

$$$$
