703638
  -OEChem-01171811553D

 29 30  0     0  0  0  0  0  0999 V2000
    0.3203   -3.0719   -0.2336 S   0  0  0  0  0  0  0  0  0  0  0  0
    5.6235    0.9624   -0.0416 O   0  0  0  0  0  0  0  0  0  0  0  0
    0.2322   -0.3376   -0.0052 N   0  0  0  0  0  0  0  0  0  0  0  0
   -1.8067   -1.5232   -0.0128 N   0  0  0  0  0  0  0  0  0  0  0  0
    1.6100   -0.0048   -0.0145 C   0  0  0  0  0  0  0  0  0  0  0  0
   -2.7078   -0.4590    0.0330 C   0  0  0  0  0  0  0  0  0  0  0  0
    2.0307    1.1127   -0.7138 C   0  0  0  0  0  0  0  0  0  0  0  0
    2.5022   -0.8063    0.6759 C   0  0  0  0  0  0  0  0  0  0  0  0
   -0.4061   -1.5642   -0.0341 C   0  0  0  0  0  0  0  0  0  0  0  0
   -3.9820   -0.6000   -0.5167 C   0  0  0  0  0  0  0  0  0  0  0  0
   -2.3344    0.7463    0.6277 C   0  0  0  0  0  0  0  0  0  0  0  0
    3.3868    1.4392   -0.7230 C   0  0  0  0  0  0  0  0  0  0  0  0
    3.8583   -0.4798    0.6667 C   0  0  0  0  0  0  0  0  0  0  0  0
    4.3006    0.6429   -0.0328 C   0  0  0  0  0  0  0  0  0  0  0  0
   -4.8828    0.4639   -0.4715 C   0  0  0  0  0  0  0  0  0  0  0  0
   -3.2353    1.8103    0.6729 C   0  0  0  0  0  0  0  0  0  0  0  0
   -4.5095    1.6691    0.1234 C   0  0  0  0  0  0  0  0  0  0  0  0
   -0.3223    0.4193   -0.3907 H   0  0  0  0  0  0  0  0  0  0  0  0
    1.3279    1.7394   -1.2556 H   0  0  0  0  0  0  0  0  0  0  0  0
    2.1928   -1.6436    1.2908 H   0  0  0  0  0  0  0  0  0  0  0  0
   -2.2364   -2.4227   -0.2198 H   0  0  0  0  0  0  0  0  0  0  0  0
   -4.2860   -1.5333   -0.9839 H   0  0  0  0  0  0  0  0  0  0  0  0
   -1.4076    0.8847    1.1733 H   0  0  0  0  0  0  0  0  0  0  0  0
    3.7185    2.3165   -1.2719 H   0  0  0  0  0  0  0  0  0  0  0  0
    4.5637   -1.0945    1.2194 H   0  0  0  0  0  0  0  0  0  0  0  0
   -5.8754    0.3537   -0.8982 H   0  0  0  0  0  0  0  0  0  0  0  0
   -2.9549    2.7402    1.1590 H   0  0  0  0  0  0  0  0  0  0  0  0
   -5.2132    2.4955    0.1641 H   0  0  0  0  0  0  0  0  0  0  0  0
    5.7500    1.7671   -0.5730 H   0  0  0  0  0  0  0  0  0  0  0  0
  1  9  2  0  0  0  0
  2 14  1  0  0  0  0
  2 29  1  0  0  0  0
  3  5  1  0  0  0  0
  3  9  1  0  0  0  0
  3 18  1  0  0  0  0
  4  6  1  0  0  0  0
  4  9  1  0  0  0  0
  4 21  1  0  0  0  0
  5  7  2  0  0  0  0
  5  8  1  0  0  0  0
  6 10  2  0  0  0  0
  6 11  1  0  0  0  0
  7 12  1  0  0  0  0
  7 19  1  0  0  0  0
  8 13  2  0  0  0  0
  8 20  1  0  0  0  0
 10 15  1  0  0  0  0
 10 22  1  0  0  0  0
 11 16  2  0  0  0  0
 11 23  1  0  0  0  0
 12 14  2  0  0  0  0
 12 24  1  0  0  0  0
 13 14  1  0  0  0  0
 13 25  1  0  0  0  0
 15 17  2  0  0  0  0
 15 26  1  0  0  0  0
 16 17  1  0  0  0  0
 16 27  1  0  0  0  0
 17 28  1  0  0  0  0
M  END
> <PUBCHEM_COMPOUND_CID>
703638

> <PUBCHEM_CONFORMER_RMSD>
0.6

> <PUBCHEM_CONFORMER_DIVERSEORDER>
1
8
6
3
9
2
7
4
5

> <PUBCHEM_MMFF94_PARTIAL_CHARGES>
29
1 -0.38
10 -0.15
11 -0.15
12 -0.15
13 -0.15
14 0.08
15 -0.15
16 -0.15
17 -0.15
18 0.37
19 0.15
2 -0.53
20 0.15
21 0.37
22 0.15
23 0.15
24 0.15
25 0.15
26 0.15
27 0.15
28 0.15
29 0.45
3 -0.55
4 -0.55
5 0.12
6 0.12
7 -0.15
8 -0.15
9 0.5

> <PUBCHEM_EFFECTIVE_ROTOR_COUNT>
4

> <PUBCHEM_PHARMACOPHORE_FEATURES>
6
1 1 acceptor
1 2 donor
1 3 donor
1 4 donor
6 5 7 8 12 13 14 rings
6 6 10 11 15 16 17 rings

> <PUBCHEM_HEAVY_ATOM_COUNT>
17

> <PUBCHEM_ATOM_DEF_STEREO_COUNT>
0

> <PUBCHEM_ATOM_UDEF_STEREO_COUNT>
0

> <PUBCHEM_BOND_DEF_STEREO_COUNT>
0

> <PUBCHEM_BOND_UDEF_STEREO_COUNT>
0

> <PUBCHEM_ISOTOPIC_ATOM_COUNT>
0

> <PUBCHEM_COMPONENT_COUNT>
1

> <PUBCHEM_CACTVS_TAUTO_COUNT>
6

> <PUBCHEM_CONFORMER_ID>
000ABC9600000001

> <PUBCHEM_MMFF94_ENERGY>
72.0942

> <PUBCHEM_FEATURE_SELFOVERLAP>
30.485

> <PUBCHEM_SHAPE_FINGERPRINT>
10354089 29 17967255299448121912
10382601 240 18042409027893272258
10465860 228 18267871583681517955
10498660 4 18343021060546920881
11089746 13 18342167904296325232
12107183 9 17758952623744210704
12236239 1 18260826016639996858
12500047 106 18272087257850507330
12507557 5 17895195532299290405
12841375 25 9295285032482340167
12916748 109 18340775909004629319
13583140 156 17168146766977557835
14739800 52 18127955594544232368
14767858 380 18270100414996620031
15196674 1 18410575058898556403
17834072 32 18411704304585279945
20157964 124 18191017916472152941
20233049 118 18272368689724519112
20300324 65 17988640813846629885
212916 134 18271790342329185578
21524375 3 18409165515288971531
22950370 63 9007057984724255680
23366157 5 18118971282510990139
23402539 116 18272927254073057148
23402655 69 18343581836935270812
235170 7 15698001812382514701
23557571 272 17489591199060868583
23559900 14 18130508514019050294
3268164 11 17775276175787679565
351380 180 18202280320574204612
3545911 37 18408888446769046699
474 4 18334575703175550979
4921388 177 15554436444987681397
5104073 3 18114457963730565792
6328613 192 18335147540075996252
633830 44 18341895147491328759
7364860 26 18055916494044610423
9981440 41 18409449180926078043

> <PUBCHEM_SHAPE_MULTIPOLES>
337.87
10.75
2.32
0.81
1.11
1.49
-0.01
-5.93
0.29
-0.33
0.14
0.07
-0.09
-0.84

> <PUBCHEM_SHAPE_SELFOVERLAP>
709.703

> <PUBCHEM_SHAPE_VOLUME>
191

> <PUBCHEM_COORDINATE_TYPE>
2
5
10

$$$$
