9585829
  -OEChem-01171811583D

 37 38  0     0  0  0  0  0  0999 V2000
    1.5331   -0.1555   -0.0003 N   0  0  0  0  0  0  0  0  0  0  0  0
    2.7766   -0.6739    0.0001 N   0  0  0  0  0  0  0  0  0  0  0  0
    5.1181   -0.3908    0.0013 N   0  0  0  0  0  0  0  0  0  0  0  0
    3.9292    1.4460   -0.0012 N   0  0  0  0  0  0  0  0  0  0  0  0
    5.4961   -1.7505    0.0028 N   0  0  0  0  0  0  0  0  0  0  0  0
    5.2657    1.7922   -0.0019 N   0  0  0  0  0  0  0  0  0  0  0  0
   -4.9754    0.3896    0.0006 C   0  0  0  0  0  0  0  0  0  0  0  0
   -3.4863    0.0059    0.0006 C   0  0  0  0  0  0  0  0  0  0  0  0
   -5.6602   -0.1868    1.2587 C   0  0  0  0  0  0  0  0  0  0  0  0
   -5.6601   -0.1848   -1.2586 C   0  0  0  0  0  0  0  0  0  0  0  0
   -5.2280    1.9144    0.0017 C   0  0  0  0  0  0  0  0  0  0  0  0
   -3.1577   -1.3266   -0.0015 C   0  0  0  0  0  0  0  0  0  0  0  0
   -2.5538    1.0127    0.0015 C   0  0  0  0  0  0  0  0  0  0  0  0
   -1.8071   -1.6753   -0.0025 C   0  0  0  0  0  0  0  0  0  0  0  0
   -1.2033    0.6640    0.0004 C   0  0  0  0  0  0  0  0  0  0  0  0
   -0.8299   -0.6799   -0.0016 C   0  0  0  0  0  0  0  0  0  0  0  0
    0.5784   -1.0430   -0.0008 C   0  0  0  0  0  0  0  0  0  0  0  0
    3.9024    0.1644    0.0007 C   0  0  0  0  0  0  0  0  0  0  0  0
    5.9621    0.6780   -0.0002 C   0  0  0  0  0  0  0  0  0  0  0  0
   -6.7148    0.1097    1.3044 H   0  0  0  0  0  0  0  0  0  0  0  0
   -5.6371   -1.2817    1.2829 H   0  0  0  0  0  0  0  0  0  0  0  0
   -5.1737    0.1734    2.1730 H   0  0  0  0  0  0  0  0  0  0  0  0
   -5.6373   -1.2797   -1.2844 H   0  0  0  0  0  0  0  0  0  0  0  0
   -6.7146    0.1120   -1.3042 H   0  0  0  0  0  0  0  0  0  0  0  0
   -5.1731    0.1765   -2.1721 H   0  0  0  0  0  0  0  0  0  0  0  0
   -6.3039    2.1300    0.0016 H   0  0  0  0  0  0  0  0  0  0  0  0
   -4.8128    2.3988    0.8934 H   0  0  0  0  0  0  0  0  0  0  0  0
   -4.8124    2.4000   -0.8892 H   0  0  0  0  0  0  0  0  0  0  0  0
   -3.8999   -2.1174   -0.0023 H   0  0  0  0  0  0  0  0  0  0  0  0
   -2.7870    2.0697    0.0030 H   0  0  0  0  0  0  0  0  0  0  0  0
   -1.5316   -2.7269   -0.0037 H   0  0  0  0  0  0  0  0  0  0  0  0
   -0.4635    1.4603    0.0014 H   0  0  0  0  0  0  0  0  0  0  0  0
    0.8115   -2.1244   -0.0011 H   0  0  0  0  0  0  0  0  0  0  0  0
    2.8951   -1.6842    0.0010 H   0  0  0  0  0  0  0  0  0  0  0  0
    7.0398    0.5935   -0.0002 H   0  0  0  0  0  0  0  0  0  0  0  0
    6.0572   -1.9937    0.8183 H   0  0  0  0  0  0  0  0  0  0  0  0
    6.0575   -1.9954   -0.8119 H   0  0  0  0  0  0  0  0  0  0  0  0
  1  2  1  0  0  0  0
  1 17  2  0  0  0  0
  2 18  1  0  0  0  0
  2 34  1  0  0  0  0
  3  5  1  0  0  0  0
  3 18  1  0  0  0  0
  3 19  1  0  0  0  0
  4  6  1  0  0  0  0
  4 18  2  0  0  0  0
  5 36  1  0  0  0  0
  5 37  1  0  0  0  0
  6 19  2  0  0  0  0
  7  8  1  0  0  0  0
  7  9  1  0  0  0  0
  7 10  1  0  0  0  0
  7 11  1  0  0  0  0
  8 12  2  0  0  0  0
  8 13  1  0  0  0  0
  9 20  1  0  0  0  0
  9 21  1  0  0  0  0
  9 22  1  0  0  0  0
 10 23  1  0  0  0  0
 10 24  1  0  0  0  0
 10 25  1  0  0  0  0
 11 26  1  0  0  0  0
 11 27  1  0  0  0  0
 11 28  1  0  0  0  0
 12 14  1  0  0  0  0
 12 29  1  0  0  0  0
 13 15  2  0  0  0  0
 13 30  1  0  0  0  0
 14 16  2  0  0  0  0
 14 31  1  0  0  0  0
 15 16  1  0  0  0  0
 15 32  1  0  0  0  0
 16 17  1  0  0  0  0
 17 33  1  0  0  0  0
 19 35  1  0  0  0  0
M  END
> <PUBCHEM_COMPOUND_CID>
9585829

> <PUBCHEM_CONFORMER_RMSD>
0.6

> <PUBCHEM_CONFORMER_DIVERSEORDER>
1
17
14
11
10
6
12
16
2
15
13
4
9
8
5
7
3

> <PUBCHEM_MMFF94_PARTIAL_CHARGES>
25
1 -0.49
12 -0.15
13 -0.15
14 -0.15
15 -0.15
16 0.09
17 0.3
18 0.27
19 0.04
2 -0.44
29 0.15
3 0.45
30 0.15
31 0.15
32 0.15
33 0.06
34 0.4
35 0.15
36 0.36
37 0.36
4 -0.34
5 -0.87
6 -0.34
7 0.14
8 -0.14

> <PUBCHEM_EFFECTIVE_ROTOR_COUNT>
4

> <PUBCHEM_PHARMACOPHORE_FEATURES>
7
1 1 acceptor
1 2 donor
1 5 donor
4 2 3 4 18 cation
4 7 9 10 11 hydrophobe
5 3 4 6 18 19 rings
6 8 12 13 14 15 16 rings

> <PUBCHEM_HEAVY_ATOM_COUNT>
19

> <PUBCHEM_ATOM_DEF_STEREO_COUNT>
0

> <PUBCHEM_ATOM_UDEF_STEREO_COUNT>
0

> <PUBCHEM_BOND_DEF_STEREO_COUNT>
1

> <PUBCHEM_BOND_UDEF_STEREO_COUNT>
0

> <PUBCHEM_ISOTOPIC_ATOM_COUNT>
0

> <PUBCHEM_COMPONENT_COUNT>
1

> <PUBCHEM_CACTVS_TAUTO_COUNT>
2

> <PUBCHEM_CONFORMER_ID>
009244A500000001

> <PUBCHEM_MMFF94_ENERGY>
51.0748

> <PUBCHEM_FEATURE_SELFOVERLAP>
35.522

> <PUBCHEM_SHAPE_FINGERPRINT>
10014705 185 18409447007534968839
11089746 13 18412820296260715220
117890 112 18412545405321312676
12091667 2 18413670206159463759
12107183 9 17689432690064437314
12236239 1 18187082849348346522
12390115 104 18057619680964625121
12507557 5 17530969090458816181
12596602 18 15791733031071825132
13167372 99 18342178817412657192
13533116 47 18059857221550060858
1420 363 18041003937979611195
14341114 176 18407764733406772100
14528608 73 18272929448885669780
14933364 13 18408046212620408260
15183329 4 18342175553231814984
15196674 1 18410574015516889574
15501527 16 18412266150958563313
17834072 33 17846212284796693061
19489759 90 14620800392430873419
20281389 69 18408322185491019649
20645477 56 18408603664889194255
20645477 70 17489596606577993902
21150785 3 16702015430620784741
21236236 1 18341331206065489591
220451 1 17275106132619679431
23081809 10 17917990572716336767
23198884 109 16630531734761200587
23272321 79 18410575102217650405
23402539 116 18273490161546251869
23536379 177 18411699876711173394
23559900 14 18412824707593126394
2916195 48 18408322194275983657
29717793 49 17489878124762346196
300161 21 18410005568232299698
3004659 81 18410857634336512682
3014965 18 18335417907829416174
34797466 226 17560528403360915524
351380 180 18412262848297634580
3545911 37 18409731768435850606
4073 2 18040721420048911250
4214541 1 18410575093616971392
42788 4 18410855455838475751
5104073 3 18335699481426494418
542803 24 18131351912098044206
59682541 35 18262247715772291435
59755656 215 18336268938419295182
59755656 520 17385441033566667058
77779 3 18410293636099919162

> <PUBCHEM_SHAPE_MULTIPOLES>
361.13
16.69
1.66
0.77
12.72
0.15
0
3.9
0.01
0.39
0
-1.08
-0.04
0

> <PUBCHEM_SHAPE_SELFOVERLAP>
761.557

> <PUBCHEM_SHAPE_VOLUME>
203.7

> <PUBCHEM_COORDINATE_TYPE>
2
5
10

$$$$
