613230
  -OEChem-01171811403D

 28 29  0     0  0  0  0  0  0999 V2000
    2.5184    1.9172   -0.5816 O   0  0  0  0  0  0  0  0  0  0  0  0
    3.7999   -0.4852   -0.0230 O   0  0  0  0  0  0  0  0  0  0  0  0
   -4.9724    1.0215    0.3421 O   0  0  0  0  0  0  0  0  0  0  0  0
   -2.5911   -1.3088   -0.3799 N   0  0  0  0  0  0  0  0  0  0  0  0
   -3.9026   -0.9880   -0.2360 N   0  0  0  0  0  0  0  0  0  0  0  0
   -0.3472   -0.2888   -0.0488 C   0  0  0  0  0  0  0  0  0  0  0  0
   -1.8158   -0.2240   -0.0569 C   0  0  0  0  0  0  0  0  0  0  0  0
    0.4030    0.8551   -0.3214 C   0  0  0  0  0  0  0  0  0  0  0  0
    0.2961   -1.4944    0.2311 C   0  0  0  0  0  0  0  0  0  0  0  0
    1.7965    0.7934   -0.3138 C   0  0  0  0  0  0  0  0  0  0  0  0
    2.4397   -0.4122   -0.0337 C   0  0  0  0  0  0  0  0  0  0  0  0
   -2.5799    0.8391    0.2488 C   0  0  0  0  0  0  0  0  0  0  0  0
    1.6894   -1.5562    0.2388 C   0  0  0  0  0  0  0  0  0  0  0  0
   -3.9808    0.3439    0.1340 C   0  0  0  0  0  0  0  0  0  0  0  0
    2.8682    2.7425    0.5278 C   0  0  0  0  0  0  0  0  0  0  0  0
    4.3786   -1.7549    0.2725 C   0  0  0  0  0  0  0  0  0  0  0  0
   -0.0775    1.8031   -0.5522 H   0  0  0  0  0  0  0  0  0  0  0  0
   -0.2609   -2.3993    0.4597 H   0  0  0  0  0  0  0  0  0  0  0  0
   -2.2649   -2.2558   -0.4999 H   0  0  0  0  0  0  0  0  0  0  0  0
   -2.2990    1.8324    0.5517 H   0  0  0  0  0  0  0  0  0  0  0  0
    2.1206   -2.5248    0.4673 H   0  0  0  0  0  0  0  0  0  0  0  0
   -4.6337   -1.6629   -0.4164 H   0  0  0  0  0  0  0  0  0  0  0  0
    1.9681    3.1220    1.0219 H   0  0  0  0  0  0  0  0  0  0  0  0
    3.4465    3.5919    0.1541 H   0  0  0  0  0  0  0  0  0  0  0  0
    3.4837    2.1872    1.2425 H   0  0  0  0  0  0  0  0  0  0  0  0
    4.1203   -2.5025   -0.4852 H   0  0  0  0  0  0  0  0  0  0  0  0
    4.1298   -2.0856    1.2867 H   0  0  0  0  0  0  0  0  0  0  0  0
    5.4658   -1.6295    0.2371 H   0  0  0  0  0  0  0  0  0  0  0  0
  1 10  1  0  0  0  0
  1 15  1  0  0  0  0
  2 11  1  0  0  0  0
  2 16  1  0  0  0  0
  3 14  2  0  0  0  0
  4  5  1  0  0  0  0
  4  7  1  0  0  0  0
  4 19  1  0  0  0  0
  5 14  1  0  0  0  0
  5 22  1  0  0  0  0
  6  7  1  0  0  0  0
  6  8  2  0  0  0  0
  6  9  1  0  0  0  0
  7 12  2  0  0  0  0
  8 10  1  0  0  0  0
  8 17  1  0  0  0  0
  9 13  2  0  0  0  0
  9 18  1  0  0  0  0
 10 11  2  0  0  0  0
 11 13  1  0  0  0  0
 12 14  1  0  0  0  0
 12 20  1  0  0  0  0
 13 21  1  0  0  0  0
 15 23  1  0  0  0  0
 15 24  1  0  0  0  0
 15 25  1  0  0  0  0
 16 26  1  0  0  0  0
 16 27  1  0  0  0  0
 16 28  1  0  0  0  0
M  END
> <PUBCHEM_COMPOUND_CID>
613230

> <PUBCHEM_CONFORMER_RMSD>
0.6

> <PUBCHEM_CONFORMER_DIVERSEORDER>
5
2
11
9
7
4
10
8
3
6
12
1

> <PUBCHEM_MMFF94_PARTIAL_CHARGES>
22
1 -0.36
10 0.08
11 0.08
12 -0.14
13 -0.15
14 0.62
15 0.28
16 0.28
17 0.15
18 0.15
19 0.4
2 -0.36
20 0.15
21 0.15
22 0.37
3 -0.57
4 -0.52
5 -0.41
6 0.03
7 0.07
8 -0.15
9 -0.15

> <PUBCHEM_EFFECTIVE_ROTOR_COUNT>
3

> <PUBCHEM_PHARMACOPHORE_FEATURES>
7
1 1 acceptor
1 2 acceptor
1 3 acceptor
1 4 donor
1 5 donor
5 4 5 7 12 14 rings
6 6 8 9 10 11 13 rings

> <PUBCHEM_HEAVY_ATOM_COUNT>
16

> <PUBCHEM_ATOM_DEF_STEREO_COUNT>
0

> <PUBCHEM_ATOM_UDEF_STEREO_COUNT>
0

> <PUBCHEM_BOND_DEF_STEREO_COUNT>
0

> <PUBCHEM_BOND_UDEF_STEREO_COUNT>
0

> <PUBCHEM_ISOTOPIC_ATOM_COUNT>
0

> <PUBCHEM_COMPONENT_COUNT>
1

> <PUBCHEM_CACTVS_TAUTO_COUNT>
5

> <PUBCHEM_CONFORMER_ID>
00095B6E00000005

> <PUBCHEM_MMFF94_ENERGY>
73.8239

> <PUBCHEM_FEATURE_SELFOVERLAP>
37.13

> <PUBCHEM_SHAPE_FINGERPRINT>
10465860 228 18337111262709284612
10608611 8 18408038520344784109
11471102 20 18408039598159769510
12251169 10 18411419466917967999
12932764 1 17313372427290249927
13140716 1 18335135444746197858
13922767 16 18410572881603396936
14325111 11 18338237171279551093
14897335 6 18267301126362445148
15196674 1 18410293644489198805
15375358 24 12319730371350688615
15375462 189 18041555828381955842
15442244 35 18411420570629721456
15536298 74 18341331175514791668
16945 1 18335408037635497094
17802600 8 18335980883161997885
18186145 218 17894906343408153399
19050596 39 18411703188352394131
19422 9 18342457079795891983
200 152 18272081695872945527
20645477 70 18411699898070160343
20671657 1 18337675333933831540
20871998 22 18196656185965925350
21267235 1 18410583872752079755
21452121 103 18341321284427019296
21501502 16 18339921644288799503
221490 88 18335427918886434954
2255824 54 18259988197433018966
22854114 111 18408887364474373741
22959321 4 18409730698525023547
23402539 116 17917702454016102093
23402655 69 18412265046993823277
23557571 272 15697729103380892448
23558518 356 17826795034295066090
23559900 14 18272647952877351266
2748010 2 18045232775970330406
29717793 49 18059851762577608271
3071541 12 18337393854773001204
3286 77 18334855017677892070
335352 9 18337953385478657711
474 4 18115309019563071093
5104073 3 18410296943119113027
633830 44 17458061590495112845
7364860 26 18341331175862944776
77779 3 18410577314199569911
84936 182 18128536148967154320
9709674 26 18412269445310048207
9971528 1 18271523109653808506
9981440 41 17762892569487096328

> <PUBCHEM_SHAPE_MULTIPOLES>
301.7
8.41
2.18
0.67
5.15
1.02
-0.01
-0.14
-0.67
-2.38
-0.21
-0.08
0.07
-0.33

> <PUBCHEM_SHAPE_SELFOVERLAP>
647.187

> <PUBCHEM_SHAPE_VOLUME>
169.4

> <PUBCHEM_COORDINATE_TYPE>
2
5
10

$$$$
