753167
  -OEChem-01171811493D

 36 38  0     0  0  0  0  0  0999 V2000
   -6.1958    1.7604   -0.7077 S   0  0  0  0  0  0  0  0  0  0  0  0
    6.5097    0.8361   -0.0395 O   0  0  0  0  0  0  0  0  0  0  0  0
    0.2136    0.9771    0.0032 O   0  0  0  0  0  0  0  0  0  0  0  0
    1.3083   -1.0738   -0.2729 N   0  0  0  0  0  0  0  0  0  0  0  0
   -0.9226   -0.9836    0.5322 N   0  0  0  0  0  0  0  0  0  0  0  0
   -4.5517    1.9221   -0.8765 N   0  0  0  0  0  0  0  0  0  0  0  0
   -6.2855    0.3065    0.0899 N   0  0  0  0  0  0  0  0  0  0  0  0
    2.6688   -0.5739   -0.2122 C   0  0  0  0  0  0  0  0  0  0  0  0
   -2.2765   -0.6521    0.4169 C   0  0  0  0  0  0  0  0  0  0  0  0
    0.1959   -0.2525    0.0785 C   0  0  0  0  0  0  0  0  0  0  0  0
    2.9583    0.3879    0.7163 C   0  0  0  0  0  0  0  0  0  0  0  0
    3.5833   -1.0932   -1.0871 C   0  0  0  0  0  0  0  0  0  0  0  0
   -2.6160    0.5517   -0.2235 C   0  0  0  0  0  0  0  0  0  0  0  0
   -4.0000    0.8364   -0.3112 C   0  0  0  0  0  0  0  0  0  0  0  0
   -3.2350   -1.5452    0.9512 C   0  0  0  0  0  0  0  0  0  0  0  0
    1.1060   -2.4339   -0.7959 C   0  0  0  0  0  0  0  0  0  0  0  0
   -5.0222   -0.1161    0.2587 C   0  0  0  0  0  0  0  0  0  0  0  0
   -4.6202   -1.3157    0.8938 C   0  0  0  0  0  0  0  0  0  0  0  0
    5.2330    0.3683   -0.0976 C   0  0  0  0  0  0  0  0  0  0  0  0
    4.2665    0.8685    0.7749 C   0  0  0  0  0  0  0  0  0  0  0  0
    4.8914   -0.6127   -1.0286 C   0  0  0  0  0  0  0  0  0  0  0  0
    6.7905    1.8377    0.9371 C   0  0  0  0  0  0  0  0  0  0  0  0
   -0.7279   -1.8853    0.9597 H   0  0  0  0  0  0  0  0  0  0  0  0
    2.2366    0.7693    1.4303 H   0  0  0  0  0  0  0  0  0  0  0  0
    3.3567   -1.8441   -1.8345 H   0  0  0  0  0  0  0  0  0  0  0  0
   -1.9161    1.2436   -0.6668 H   0  0  0  0  0  0  0  0  0  0  0  0
   -2.8965   -2.4617    1.4349 H   0  0  0  0  0  0  0  0  0  0  0  0
    1.2855   -2.4322   -1.8756 H   0  0  0  0  0  0  0  0  0  0  0  0
    0.0844   -2.7937   -0.6610 H   0  0  0  0  0  0  0  0  0  0  0  0
    1.7852   -3.1281   -0.2912 H   0  0  0  0  0  0  0  0  0  0  0  0
   -5.3302   -2.0193    1.3126 H   0  0  0  0  0  0  0  0  0  0  0  0
    4.4654    1.6245    1.5270 H   0  0  0  0  0  0  0  0  0  0  0  0
    5.6399   -1.0037   -1.7126 H   0  0  0  0  0  0  0  0  0  0  0  0
    6.6439    1.4598    1.9546 H   0  0  0  0  0  0  0  0  0  0  0  0
    6.2216    2.7545    0.7486 H   0  0  0  0  0  0  0  0  0  0  0  0
    7.8507    2.0942    0.8414 H   0  0  0  0  0  0  0  0  0  0  0  0
  1  6  1  0  0  0  0
  1  7  1  0  0  0  0
  2 19  1  0  0  0  0
  2 22  1  0  0  0  0
  3 10  2  0  0  0  0
  4  8  1  0  0  0  0
  4 10  1  0  0  0  0
  4 16  1  0  0  0  0
  5  9  1  0  0  0  0
  5 10  1  0  0  0  0
  5 23  1  0  0  0  0
  6 14  2  0  0  0  0
  7 17  2  0  0  0  0
  8 11  2  0  0  0  0
  8 12  1  0  0  0  0
  9 13  2  0  0  0  0
  9 15  1  0  0  0  0
 11 20  1  0  0  0  0
 11 24  1  0  0  0  0
 12 21  2  0  0  0  0
 12 25  1  0  0  0  0
 13 14  1  0  0  0  0
 13 26  1  0  0  0  0
 14 17  1  0  0  0  0
 15 18  2  0  0  0  0
 15 27  1  0  0  0  0
 16 28  1  0  0  0  0
 16 29  1  0  0  0  0
 16 30  1  0  0  0  0
 17 18  1  0  0  0  0
 18 31  1  0  0  0  0
 19 20  2  0  0  0  0
 19 21  1  0  0  0  0
 20 32  1  0  0  0  0
 21 33  1  0  0  0  0
 22 34  1  0  0  0  0
 22 35  1  0  0  0  0
 22 36  1  0  0  0  0
M  END
> <PUBCHEM_COMPOUND_CID>
753167

> <PUBCHEM_CONFORMER_RMSD>
0.8

> <PUBCHEM_CONFORMER_DIVERSEORDER>
1
24
51
31
42
37
8
41
35
36
9
2
26
29
25
47
5
28
33
40
34
17
46
19
7
32
53
27
13
49
11
18
10
44
14
43
45
4
16
39
6
30
52
48
15
50
38
3
21
12
20
22
23

> <PUBCHEM_MMFF94_PARTIAL_CHARGES>
30
1 0.44
10 0.69
11 -0.15
12 -0.15
13 -0.15
14 0.29
15 -0.15
16 0.3
17 0.29
18 -0.15
19 0.08
2 -0.36
20 -0.15
21 -0.15
22 0.28
23 0.37
24 0.15
25 0.15
26 0.15
27 0.15
3 -0.57
31 0.15
32 0.15
33 0.15
4 -0.48
5 -0.55
6 -0.51
7 -0.51
8 0.12
9 0.12

> <PUBCHEM_EFFECTIVE_ROTOR_COUNT>
5

> <PUBCHEM_PHARMACOPHORE_FEATURES>
8
1 2 acceptor
1 3 acceptor
1 5 donor
1 6 acceptor
1 7 acceptor
5 1 6 7 14 17 rings
6 8 11 12 19 20 21 rings
6 9 13 14 15 17 18 rings

> <PUBCHEM_HEAVY_ATOM_COUNT>
22

> <PUBCHEM_ATOM_DEF_STEREO_COUNT>
0

> <PUBCHEM_ATOM_UDEF_STEREO_COUNT>
0

> <PUBCHEM_BOND_DEF_STEREO_COUNT>
0

> <PUBCHEM_BOND_UDEF_STEREO_COUNT>
0

> <PUBCHEM_ISOTOPIC_ATOM_COUNT>
0

> <PUBCHEM_COMPONENT_COUNT>
1

> <PUBCHEM_CACTVS_TAUTO_COUNT>
3

> <PUBCHEM_CONFORMER_ID>
000B7E0F00000001

> <PUBCHEM_MMFF94_ENERGY>
96.6414

> <PUBCHEM_FEATURE_SELFOVERLAP>
40.709

> <PUBCHEM_SHAPE_FINGERPRINT>
10 15 18260830436093000160
10087517 78 17967247590203774965
10411042 1 17754746250000168019
10638233 991 15913328026487814664
10835480 77 18411979139706224173
10912923 1 16081377383334362203
11128504 68 15267338535135923138
11719270 70 18200871791204714174
117890 112 18187364320240995404
12236239 1 15936412255600798963
12403259 118 18113622334466142150
12403259 415 18412552015407927938
12596602 18 15430046486428585817
12616971 3 15357701902697025302
12730499 353 18202570579476460582
13073987 5 17895194360031623443
13402501 40 18410571786149892237
13403585 85 18260266373621820545
13533116 47 15913334546343310174
14528608 73 18060415807025042079
14849402 71 16154002373540140524
15238133 3 17603872221733604996
16079462 125 18413101771184853864
17980427 23 17676492786519536639
19489759 90 17967534584186651619
200 152 17060339591818529147
20281389 69 18114179713699546953
20645477 56 18260269621223419979
20645477 70 17774727446059765766
21033648 29 18342165713572776528
21150785 3 16988839501499304333
220451 1 13984672464113707498
221357 26 17561365050284694080
23081809 10 16081376279722971950
23402539 116 17894911849683028927
23557571 272 18260842461985559407
23559900 14 18115881706376437102
23569914 152 16691612620651298309
2916195 48 18408039623750257657
29717793 49 16272216249845624796
300161 21 17967810531450859347
3004659 81 17968661502175297466
34797466 226 17988931062850643949
34934 24 18408600340758866211
3545911 37 18409452462359712535
4073 2 17822299010963430954
4340502 62 17530962489004548082
5104073 3 18042128670051053827
5283173 99 18335702672524196269
542803 24 16515408468906844455
59682541 35 18187093862805108473
636775 72 18408881820094555717

> <PUBCHEM_SHAPE_MULTIPOLES>
424.94
17.75
1.91
1.01
3.5
0.13
0.02
-9.3
-0.18
-0.43
0.17
0.22
0.08
2.55

> <PUBCHEM_SHAPE_SELFOVERLAP>
905.751

> <PUBCHEM_SHAPE_VOLUME>
239.6

> <PUBCHEM_COORDINATE_TYPE>
2
5
10

$$$$
