2612178
  -OEChem-01171812133D

 43 44  0     0  0  0  0  0  0999 V2000
   -4.8225   -0.3421   -1.2293 S   0  0  0  0  0  0  0  0  0  0  0  0
    6.1336    1.3172   -0.5739 O   0  0  0  0  0  0  0  0  0  0  0  0
    5.8893   -1.3879   -1.1141 O   0  0  0  0  0  0  0  0  0  0  0  0
    4.0282    2.6757    0.6053 O   0  0  0  0  0  0  0  0  0  0  0  0
   -2.0470   -1.2903    1.4098 O   0  0  0  0  0  0  0  0  0  0  0  0
    0.0905    0.3054    1.6560 O   0  0  0  0  0  0  0  0  0  0  0  0
   -2.0968   -1.6402   -0.8562 O   0  0  0  0  0  0  0  0  0  0  0  0
   -8.1673    1.4433   -0.5025 O   0  5  0  0  0  0  0  0  0  0  0  0
   -7.2654    0.6946   -2.3636 O   0  0  0  0  0  0  0  0  0  0  0  0
    1.4486   -1.3677    0.7021 N   0  0  0  0  0  0  0  0  0  0  0  0
   -7.2210    0.8738   -1.1144 N   0  3  0  0  0  0  0  0  0  0  0  0
    2.6271   -0.6930    0.3818 C   0  0  0  0  0  0  0  0  0  0  0  0
    4.9826    0.6570   -0.2599 C   0  0  0  0  0  0  0  0  0  0  0  0
    4.8633   -0.7056   -0.5328 C   0  0  0  0  0  0  0  0  0  0  0  0
    3.9242    1.3447    0.3340 C   0  0  0  0  0  0  0  0  0  0  0  0
    3.6856   -1.3806   -0.2119 C   0  0  0  0  0  0  0  0  0  0  0  0
    2.7465    0.6696    0.6548 C   0  0  0  0  0  0  0  0  0  0  0  0
    0.2894   -0.8509    1.2958 C   0  0  0  0  0  0  0  0  0  0  0  0
   -0.7783   -1.9072    1.4810 C   0  0  0  0  0  0  0  0  0  0  0  0
   -3.9325   -0.5521    0.2184 C   0  0  0  0  0  0  0  0  0  0  0  0
   -2.6259   -1.2096    0.1633 C   0  0  0  0  0  0  0  0  0  0  0  0
   -4.5966   -0.0422    1.3121 C   0  0  0  0  0  0  0  0  0  0  0  0
    6.2108    1.9011   -1.8723 C   0  0  0  0  0  0  0  0  0  0  0  0
    5.6863   -2.7782   -1.3592 C   0  0  0  0  0  0  0  0  0  0  0  0
    2.9009    3.3032    1.2131 C   0  0  0  0  0  0  0  0  0  0  0  0
   -6.1009    0.4332   -0.3946 C   0  0  0  0  0  0  0  0  0  0  0  0
   -5.8529    0.5286    0.9571 C   0  0  0  0  0  0  0  0  0  0  0  0
    3.5366   -2.4387   -0.4013 H   0  0  0  0  0  0  0  0  0  0  0  0
    1.9321    1.2011    1.1113 H   0  0  0  0  0  0  0  0  0  0  0  0
    1.4434   -2.3596    0.4743 H   0  0  0  0  0  0  0  0  0  0  0  0
   -0.6787   -2.7284    0.7629 H   0  0  0  0  0  0  0  0  0  0  0  0
   -0.6606   -2.3313    2.4836 H   0  0  0  0  0  0  0  0  0  0  0  0
   -4.2117   -0.0695    2.3238 H   0  0  0  0  0  0  0  0  0  0  0  0
    7.1843    2.3891   -1.9710 H   0  0  0  0  0  0  0  0  0  0  0  0
    5.4275    2.6543   -2.0034 H   0  0  0  0  0  0  0  0  0  0  0  0
    6.1253    1.1321   -2.6465 H   0  0  0  0  0  0  0  0  0  0  0  0
   -6.5316    0.9833    1.6682 H   0  0  0  0  0  0  0  0  0  0  0  0
    6.6017   -3.1600   -1.8233 H   0  0  0  0  0  0  0  0  0  0  0  0
    4.8740   -2.9480   -2.0743 H   0  0  0  0  0  0  0  0  0  0  0  0
    5.5468   -3.3367   -0.4274 H   0  0  0  0  0  0  0  0  0  0  0  0
    3.1608    4.3575    1.3561 H   0  0  0  0  0  0  0  0  0  0  0  0
    2.6956    2.8935    2.2082 H   0  0  0  0  0  0  0  0  0  0  0  0
    2.0230    3.2830    0.5583 H   0  0  0  0  0  0  0  0  0  0  0  0
  1 20  1  0  0  0  0
  1 26  1  0  0  0  0
  2 13  1  0  0  0  0
  2 23  1  0  0  0  0
  3 14  1  0  0  0  0
  3 24  1  0  0  0  0
  4 15  1  0  0  0  0
  4 25  1  0  0  0  0
  5 19  1  0  0  0  0
  5 21  1  0  0  0  0
  6 18  2  0  0  0  0
  7 21  2  0  0  0  0
  8 11  1  0  0  0  0
  9 11  2  0  0  0  0
 10 12  1  0  0  0  0
 10 18  1  0  0  0  0
 10 30  1  0  0  0  0
 11 26  1  0  0  0  0
 12 16  2  0  0  0  0
 12 17  1  0  0  0  0
 13 14  2  0  0  0  0
 13 15  1  0  0  0  0
 14 16  1  0  0  0  0
 15 17  2  0  0  0  0
 16 28  1  0  0  0  0
 17 29  1  0  0  0  0
 18 19  1  0  0  0  0
 19 31  1  0  0  0  0
 19 32  1  0  0  0  0
 20 21  1  0  0  0  0
 20 22  2  0  0  0  0
 22 27  1  0  0  0  0
 22 33  1  0  0  0  0
 23 34  1  0  0  0  0
 23 35  1  0  0  0  0
 23 36  1  0  0  0  0
 24 38  1  0  0  0  0
 24 39  1  0  0  0  0
 24 40  1  0  0  0  0
 25 41  1  0  0  0  0
 25 42  1  0  0  0  0
 25 43  1  0  0  0  0
 26 27  2  0  0  0  0
 27 37  1  0  0  0  0
M  CHG  2   8  -1  11   1
M  END
> <PUBCHEM_COMPOUND_CID>
2612178

> <PUBCHEM_CONFORMER_RMSD>
1

> <PUBCHEM_CONFORMER_DIVERSEORDER>
2
45
16
1
70
66
58
67
30
64
26
32
69
51
28
47
41
50
18
36
25
11
48
29
53
34
43
49
57
42
20
63
38
44
56
68
9
14
23
17
13
22
40
39
10
37
31
33
5
60
59
8
27
55
54
19
15
61
62
52
46
12
6
3
35
24
4
7
65
21

> <PUBCHEM_MMFF94_PARTIAL_CHARGES>
32
1 -0.08
10 -0.55
11 0.96
12 0.12
13 0.08
14 0.08
15 0.08
16 -0.15
17 -0.15
18 0.57
19 0.34
2 -0.36
20 -0.05
21 0.81
22 -0.15
23 0.28
24 0.28
25 0.28
26 0.12
27 -0.15
28 0.15
29 0.15
3 -0.36
30 0.37
33 0.15
37 0.15
4 -0.36
5 -0.43
6 -0.57
7 -0.57
8 -0.52
9 -0.52

> <PUBCHEM_EFFECTIVE_ROTOR_COUNT>
10

> <PUBCHEM_PHARMACOPHORE_FEATURES>
11
1 10 donor
1 2 acceptor
1 3 acceptor
1 4 acceptor
1 6 acceptor
1 7 acceptor
1 8 acceptor
1 8 anion
1 9 acceptor
5 1 20 22 26 27 rings
6 12 13 14 15 16 17 rings

> <PUBCHEM_HEAVY_ATOM_COUNT>
27

> <PUBCHEM_ATOM_DEF_STEREO_COUNT>
0

> <PUBCHEM_ATOM_UDEF_STEREO_COUNT>
0

> <PUBCHEM_BOND_DEF_STEREO_COUNT>
0

> <PUBCHEM_BOND_UDEF_STEREO_COUNT>
0

> <PUBCHEM_ISOTOPIC_ATOM_COUNT>
0

> <PUBCHEM_COMPONENT_COUNT>
1

> <PUBCHEM_CACTVS_TAUTO_COUNT>
2

> <PUBCHEM_CONFORMER_ID>
0027DBD200000002

> <PUBCHEM_MMFF94_ENERGY>
94.6394

> <PUBCHEM_FEATURE_SELFOVERLAP>
55.915

> <PUBCHEM_SHAPE_FINGERPRINT>
10 15 14707213185038716231
10378564 45 18411419505810089522
11991303 11 17846486076831961847
12596602 18 13334737933456983445
13668630 136 13830130585870414863
13685833 64 12031785877323874891
13878862 14 18338504309761195884
14117953 113 18131078091814028118
14251757 52 17022620888024237037
14251764 18 14490198211346197571
14848160 23 11959732651030381811
14931854 50 18413114948113252768
15064981 194 18268163118257535105
15183329 4 17775851207235905011
15188451 53 14117801288907498186
15475509 35 12606858977740055828
15530120 55 17558536165796288125
16988056 13 18340488980095719064
18222031 100 15195293027737502506
18335252 114 18342172237395723853
190975 80 8574417730512249601
19377110 9 12829203377927076887
2026 5 12391505396419917589
21033648 29 17822007665761106880
21315763 87 9151169883319529629
21585483 132 15193907561629859372
221357 26 18412826854834298136
22289505 5 18339652226261072264
23198884 109 17988925566036439779
23559900 14 18343587373781501890
25122255 55 12391510936473313957
2838139 119 18343023255739212145
3004659 81 17703789193656108778
312425 54 8862399659964677879
3663271 9 12468641612642312805
44317340 157 18059009613879838241
465052 167 11600006557046824464
54076057 255 16009043782382674630
5718773 13 12607412082768669077
58902169 19 17846492621976498261
59682541 52 18131912654422470742
9658208 31 17531254988619320290
9689198 14 17313110747907340953
9937071 3 10951755418998962117

> <PUBCHEM_SHAPE_MULTIPOLES>
502.58
21.48
2.6
1.7
23.86
0.93
0.37
7.22
12.47
-4.87
-0.1
1.05
0.11
1.61

> <PUBCHEM_SHAPE_SELFOVERLAP>
1049.82

> <PUBCHEM_SHAPE_VOLUME>
285.9

> <PUBCHEM_COORDINATE_TYPE>
2
5
10

$$$$
