788029
  -OEChem-01171811433D

 27 28  0     0  0  0  0  0  0999 V2000
   -0.9632   -2.8680   -0.0004 O   0  0  0  0  0  0  0  0  0  0  0  0
    2.8679    1.9724    0.0071 O   0  0  0  0  0  0  0  0  0  0  0  0
   -0.3664   -0.5740    0.0002 N   0  0  0  0  0  0  0  0  0  0  0  0
    0.7883    0.1720    0.0014 N   0  0  0  0  0  0  0  0  0  0  0  0
    3.0787   -0.3528    0.0032 N   0  0  0  0  0  0  0  0  0  0  0  0
    1.3430   -2.1021    0.0015 C   0  0  0  0  0  0  0  0  0  0  0  0
    1.7652   -0.6741    0.0020 C   0  0  0  0  0  0  0  0  0  0  0  0
   -0.1524   -1.9572    0.0000 C   0  0  0  0  0  0  0  0  0  0  0  0
   -1.5984    0.0811   -0.0006 C   0  0  0  0  0  0  0  0  0  0  0  0
   -2.7812   -0.6582   -0.0018 C   0  0  0  0  0  0  0  0  0  0  0  0
   -1.6472    1.4752    0.0004 C   0  0  0  0  0  0  0  0  0  0  0  0
   -4.0130   -0.0035   -0.0023 C   0  0  0  0  0  0  0  0  0  0  0  0
   -2.8790    2.1298    0.0001 C   0  0  0  0  0  0  0  0  0  0  0  0
    3.5577    0.9561    0.0057 C   0  0  0  0  0  0  0  0  0  0  0  0
   -4.0618    1.3904   -0.0013 C   0  0  0  0  0  0  0  0  0  0  0  0
    5.0618    1.0131   -0.0151 C   0  0  0  0  0  0  0  0  0  0  0  0
    1.6910   -2.6102   -0.9002 H   0  0  0  0  0  0  0  0  0  0  0  0
    1.6893   -2.6103    0.9037 H   0  0  0  0  0  0  0  0  0  0  0  0
    3.7547   -1.1124   -0.0007 H   0  0  0  0  0  0  0  0  0  0  0  0
   -2.8267   -1.7380   -0.0027 H   0  0  0  0  0  0  0  0  0  0  0  0
   -0.7489    2.0865    0.0016 H   0  0  0  0  0  0  0  0  0  0  0  0
   -4.9348   -0.5780   -0.0034 H   0  0  0  0  0  0  0  0  0  0  0  0
   -2.9178    3.2152    0.0009 H   0  0  0  0  0  0  0  0  0  0  0  0
   -5.0208    1.9002   -0.0015 H   0  0  0  0  0  0  0  0  0  0  0  0
    5.3941    2.0413    0.1528 H   0  0  0  0  0  0  0  0  0  0  0  0
    5.4271    0.6715   -0.9875 H   0  0  0  0  0  0  0  0  0  0  0  0
    5.4744    0.3776    0.7736 H   0  0  0  0  0  0  0  0  0  0  0  0
  1  8  2  0  0  0  0
  2 14  2  0  0  0  0
  3  4  1  0  0  0  0
  3  8  1  0  0  0  0
  3  9  1  0  0  0  0
  4  7  2  0  0  0  0
  5  7  1  0  0  0  0
  5 14  1  0  0  0  0
  5 19  1  0  0  0  0
  6  7  1  0  0  0  0
  6  8  1  0  0  0  0
  6 17  1  0  0  0  0
  6 18  1  0  0  0  0
  9 10  2  0  0  0  0
  9 11  1  0  0  0  0
 10 12  1  0  0  0  0
 10 20  1  0  0  0  0
 11 13  2  0  0  0  0
 11 21  1  0  0  0  0
 12 15  2  0  0  0  0
 12 22  1  0  0  0  0
 13 15  1  0  0  0  0
 13 23  1  0  0  0  0
 14 16  1  0  0  0  0
 15 24  1  0  0  0  0
 16 25  1  0  0  0  0
 16 26  1  0  0  0  0
 16 27  1  0  0  0  0
M  END
> <PUBCHEM_COMPOUND_CID>
788029

> <PUBCHEM_CONFORMER_RMSD>
0.6

> <PUBCHEM_CONFORMER_DIVERSEORDER>
1
5
7
6
8
4
2
3

> <PUBCHEM_MMFF94_PARTIAL_CHARGES>
22
1 -0.57
10 -0.15
11 -0.15
12 -0.15
13 -0.15
14 0.57
15 -0.15
16 0.06
19 0.37
2 -0.57
20 0.15
21 0.15
22 0.15
23 0.15
24 0.15
3 -0.11
4 -0.51
5 -0.49
6 0.12
7 0.45
8 0.57
9 0.12

> <PUBCHEM_EFFECTIVE_ROTOR_COUNT>
3.4

> <PUBCHEM_PHARMACOPHORE_FEATURES>
5
1 1 acceptor
1 2 acceptor
1 5 donor
5 3 4 6 7 8 rings
6 9 10 11 12 13 15 rings

> <PUBCHEM_HEAVY_ATOM_COUNT>
16

> <PUBCHEM_ATOM_DEF_STEREO_COUNT>
0

> <PUBCHEM_ATOM_UDEF_STEREO_COUNT>
0

> <PUBCHEM_BOND_DEF_STEREO_COUNT>
0

> <PUBCHEM_BOND_UDEF_STEREO_COUNT>
0

> <PUBCHEM_ISOTOPIC_ATOM_COUNT>
0

> <PUBCHEM_COMPONENT_COUNT>
1

> <PUBCHEM_CACTVS_TAUTO_COUNT>
8

> <PUBCHEM_CONFORMER_ID>
000C063D00000001

> <PUBCHEM_MMFF94_ENERGY>
45.6994

> <PUBCHEM_FEATURE_SELFOVERLAP>
25.371

> <PUBCHEM_SHAPE_FINGERPRINT>
10411042 1 17473826602958275014
10608611 8 18191867817021519333
10967382 1 18410573955102536801
122479 349 18334017224151040602
12346645 44 18410011001065164299
12390115 104 18271545120823520345
13380535 76 18411701002003336158
13583140 156 16878213251414339193
14123255 52 18411135835788520956
14325111 11 18338797814798598115
14415576 193 18339081479992371556
14897335 6 18411135844510486758
15042514 8 18192717971206389875
15196674 1 18410575058893314117
15536298 74 18342177709242133190
15775835 57 18342177747791415101
1741750 31 18413389851942500674
18186145 218 18201167541844822024
204376 136 18409169908845122179
20510252 161 18342462547315354385
20645477 56 18340207492127643392
212916 134 18270941528242832794
21499 59 18410568457829332271
21524375 3 18409166610526536146
23227448 37 18269555120857232004
23402539 116 18341886432965430476
23402655 69 18201998798321114421
23557571 272 18127703822896344630
23558518 356 17828482797649208672
23559900 14 18053375505229083371
25 1 18341892965795329576
2748010 2 18336557001574735143
3071541 12 18051979116929927919
474 4 18186243934930086948
474229 33 18410294752754733251
5104073 3 18189905210472781113
58051976 378 18341610395559786677
6333272 397 18409167714079800264
633830 44 18128819646888726949
7364860 26 18196373606639196606

> <PUBCHEM_SHAPE_MULTIPOLES>
302.59
8.16
2.54
0.59
4.07
0.94
0
-5.25
0.02
-0.12
0
-0.03
-0.01
0

> <PUBCHEM_SHAPE_SELFOVERLAP>
646.242

> <PUBCHEM_SHAPE_VOLUME>
168.1

> <PUBCHEM_COORDINATE_TYPE>
2
5
10

$$$$
