24790079
  -OEChem-01171812063D

 55 58  0     1  0  0  0  0  0999 V2000
    0.8678    3.7178    0.8833 O   0  0  0  0  0  0  0  0  0  0  0  0
    4.3757   -1.8022    1.4121 O   0  0  0  0  0  0  0  0  0  0  0  0
   -1.1464   -1.6148    1.0595 O   0  0  0  0  0  0  0  0  0  0  0  0
   -6.1884    2.5130   -0.5703 O   0  0  0  0  0  0  0  0  0  0  0  0
    4.1567    0.2373    0.2779 N   0  0  0  0  0  0  0  0  0  0  0  0
   -1.3508   -2.7855   -0.8705 N   0  0  0  0  0  0  0  0  0  0  0  0
    3.3101    1.2068   -0.4564 C   0  0  2  0  0  0  0  0  0  0  0  0
    4.1029    1.8836   -1.5850 C   0  0  0  0  0  0  0  0  0  0  0  0
    5.4435    2.4419   -1.1153 C   0  0  0  0  0  0  0  0  0  0  0  0
    6.2554    1.3584   -0.4147 C   0  0  0  0  0  0  0  0  0  0  0  0
    5.4661    0.7244    0.7242 C   0  0  0  0  0  0  0  0  0  0  0  0
    2.6844    2.2226    0.5037 C   0  0  0  0  0  0  0  0  0  0  0  0
    3.7388   -1.0340    0.6930 C   0  0  0  0  0  0  0  0  0  0  0  0
    1.3823    2.7730   -0.0449 C   0  0  0  0  0  0  0  0  0  0  0  0
    2.4308   -1.5164    0.2365 C   0  0  0  0  0  0  0  0  0  0  0  0
    1.2961   -1.2463    1.0090 C   0  0  0  0  0  0  0  0  0  0  0  0
    2.3447   -2.2364   -0.9615 C   0  0  0  0  0  0  0  0  0  0  0  0
    0.0968   -1.7373    0.5079 C   0  0  0  0  0  0  0  0  0  0  0  0
   -0.0323   -2.4538   -0.6727 C   0  0  0  0  0  0  0  0  0  0  0  0
    1.1149   -2.7161   -1.4352 C   0  0  0  0  0  0  0  0  0  0  0  0
   -1.9538   -2.2666    0.1766 C   0  0  0  0  0  0  0  0  0  0  0  0
   -3.3844   -2.2990    0.5175 C   0  0  0  0  0  0  0  0  0  0  0  0
   -4.1363   -1.0062    0.2253 C   0  0  0  0  0  0  0  0  0  0  0  0
   -4.0494    0.0676    1.1115 C   0  0  0  0  0  0  0  0  0  0  0  0
   -4.9130   -0.8973   -0.9283 C   0  0  0  0  0  0  0  0  0  0  0  0
   -4.7390    1.2501    0.8441 C   0  0  0  0  0  0  0  0  0  0  0  0
   -5.6026    0.2853   -1.1957 C   0  0  0  0  0  0  0  0  0  0  0  0
   -5.5158    1.3589   -0.3092 C   0  0  0  0  0  0  0  0  0  0  0  0
   -6.0548    3.5710    0.3776 C   0  0  0  0  0  0  0  0  0  0  0  0
    2.4971    0.6559   -0.9384 H   0  0  0  0  0  0  0  0  0  0  0  0
    4.2991    1.1367   -2.3660 H   0  0  0  0  0  0  0  0  0  0  0  0
    3.5156    2.6777   -2.0584 H   0  0  0  0  0  0  0  0  0  0  0  0
    6.0047    2.8220   -1.9765 H   0  0  0  0  0  0  0  0  0  0  0  0
    5.2906    3.2903   -0.4392 H   0  0  0  0  0  0  0  0  0  0  0  0
    7.1893    1.7825   -0.0298 H   0  0  0  0  0  0  0  0  0  0  0  0
    6.5276    0.5843   -1.1432 H   0  0  0  0  0  0  0  0  0  0  0  0
    6.0501   -0.0914    1.1627 H   0  0  0  0  0  0  0  0  0  0  0  0
    5.2881    1.4565    1.5205 H   0  0  0  0  0  0  0  0  0  0  0  0
    3.3714    3.0418    0.7439 H   0  0  0  0  0  0  0  0  0  0  0  0
    2.4677    1.7471    1.4698 H   0  0  0  0  0  0  0  0  0  0  0  0
    1.5311    3.2818   -1.0015 H   0  0  0  0  0  0  0  0  0  0  0  0
    0.6409    1.9782   -0.1756 H   0  0  0  0  0  0  0  0  0  0  0  0
    1.3420   -0.6913    1.9384 H   0  0  0  0  0  0  0  0  0  0  0  0
    3.2419   -2.4326   -1.5449 H   0  0  0  0  0  0  0  0  0  0  0  0
    0.0325    4.0532    0.5156 H   0  0  0  0  0  0  0  0  0  0  0  0
    1.0597   -3.2725   -2.3649 H   0  0  0  0  0  0  0  0  0  0  0  0
   -3.5080   -2.5411    1.5812 H   0  0  0  0  0  0  0  0  0  0  0  0
   -3.8663   -3.1250   -0.0211 H   0  0  0  0  0  0  0  0  0  0  0  0
   -3.4488   -0.0067    2.0143 H   0  0  0  0  0  0  0  0  0  0  0  0
   -4.9877   -1.7256   -1.6278 H   0  0  0  0  0  0  0  0  0  0  0  0
   -4.6277    2.0441    1.5745 H   0  0  0  0  0  0  0  0  0  0  0  0
   -6.2056    0.3647   -2.0961 H   0  0  0  0  0  0  0  0  0  0  0  0
   -6.6551    4.4104    0.0117 H   0  0  0  0  0  0  0  0  0  0  0  0
   -5.0199    3.9233    0.4444 H   0  0  0  0  0  0  0  0  0  0  0  0
   -6.4614    3.2894    1.3549 H   0  0  0  0  0  0  0  0  0  0  0  0
  1 14  1  0  0  0  0
  1 45  1  0  0  0  0
  2 13  2  0  0  0  0
  3 18  1  0  0  0  0
  3 21  1  0  0  0  0
  4 28  1  0  0  0  0
  4 29  1  0  0  0  0
  5  7  1  0  0  0  0
  5 11  1  0  0  0  0
  5 13  1  0  0  0  0
  6 19  1  0  0  0  0
  6 21  2  0  0  0  0
  7  8  1  0  0  0  0
  7 12  1  0  0  0  0
  7 30  1  0  0  0  0
  8  9  1  0  0  0  0
  8 31  1  0  0  0  0
  8 32  1  0  0  0  0
  9 10  1  0  0  0  0
  9 33  1  0  0  0  0
  9 34  1  0  0  0  0
 10 11  1  0  0  0  0
 10 35  1  0  0  0  0
 10 36  1  0  0  0  0
 11 37  1  0  0  0  0
 11 38  1  0  0  0  0
 12 14  1  0  0  0  0
 12 39  1  0  0  0  0
 12 40  1  0  0  0  0
 13 15  1  0  0  0  0
 14 41  1  0  0  0  0
 14 42  1  0  0  0  0
 15 16  2  0  0  0  0
 15 17  1  0  0  0  0
 16 18  1  0  0  0  0
 16 43  1  0  0  0  0
 17 20  2  0  0  0  0
 17 44  1  0  0  0  0
 18 19  2  0  0  0  0
 19 20  1  0  0  0  0
 20 46  1  0  0  0  0
 21 22  1  0  0  0  0
 22 23  1  0  0  0  0
 22 47  1  0  0  0  0
 22 48  1  0  0  0  0
 23 24  2  0  0  0  0
 23 25  1  0  0  0  0
 24 26  1  0  0  0  0
 24 49  1  0  0  0  0
 25 27  2  0  0  0  0
 25 50  1  0  0  0  0
 26 28  2  0  0  0  0
 26 51  1  0  0  0  0
 27 28  1  0  0  0  0
 27 52  1  0  0  0  0
 29 53  1  0  0  0  0
 29 54  1  0  0  0  0
 29 55  1  0  0  0  0
M  END
> <PUBCHEM_COMPOUND_CID>
24790079

> <PUBCHEM_CONFORMER_RMSD>
1

> <PUBCHEM_CONFORMER_DIVERSEORDER>
1
159
20
122
101
165
86
109
100
163
112
94
72
14
140
110
128
48
144
117
91
29
42
150
84
40
92
88
85
151
7
76
154
145
79
61
57
71
114
37
64
75
118
22
2
53
80
25
93
130
81
77
66
74
171
160
12
83
45
172
35
132
111
102
98
54
167
138
41
3
55
32
127
44
68
148
60
139
87
52
10
119
166
164
89
147
96
146
65
115
133
149
62
38
157
27
47
17
156
131
126
9
69
142
33
58
46
108
123
173
136
49
6
168
113
50
70
143
26
90
13
82
97
63
103
158
137
30
31
141
106
11
134
125
161
15
162
170
124
34
5
105
67
99
39
129
155
153
19
28
24
107
95
169
104
73
16
120
78
121
8
43
152
18
116
36
4
135
56
21
51
23
59

> <PUBCHEM_MMFF94_PARTIAL_CHARGES>
33
1 -0.68
11 0.3
13 0.54
14 0.28
15 0.09
16 -0.15
17 -0.15
18 0.14
19 0.23
2 -0.57
20 -0.15
21 0.3
22 0.32
23 -0.14
24 -0.15
25 -0.15
26 -0.15
27 -0.15
28 0.08
29 0.28
3 -0.28
4 -0.36
43 0.15
44 0.15
45 0.4
46 0.15
49 0.15
5 -0.66
50 0.15
51 0.15
52 0.15
6 -0.57
7 0.3

> <PUBCHEM_EFFECTIVE_ROTOR_COUNT>
8.2

> <PUBCHEM_PHARMACOPHORE_FEATURES>
8
1 1 acceptor
1 1 donor
1 2 acceptor
1 4 acceptor
5 3 6 18 19 21 rings
6 15 16 17 18 19 20 rings
6 23 24 25 26 27 28 rings
6 5 7 8 9 10 11 rings

> <PUBCHEM_HEAVY_ATOM_COUNT>
29

> <PUBCHEM_ATOM_DEF_STEREO_COUNT>
0

> <PUBCHEM_ATOM_UDEF_STEREO_COUNT>
1

> <PUBCHEM_BOND_DEF_STEREO_COUNT>
0

> <PUBCHEM_BOND_UDEF_STEREO_COUNT>
0

> <PUBCHEM_ISOTOPIC_ATOM_COUNT>
0

> <PUBCHEM_COMPONENT_COUNT>
1

> <PUBCHEM_CACTVS_TAUTO_COUNT>
1

> <PUBCHEM_CONFORMER_ID>
017A443F00000001

> <PUBCHEM_MMFF94_ENERGY>
70.996

> <PUBCHEM_FEATURE_SELFOVERLAP>
40.716

> <PUBCHEM_SHAPE_FINGERPRINT>
100830 2 18115325490858117277
10439779 11 18341319089371696496
10763959 59 18338239241449039478
11273773 38 18338235964700391121
11411753 29 18191616123332916507
11513181 2 17773891804389969175
12107183 9 18189042119288389050
12422481 6 17894906343492498172
12975358 362 18118423760718860821
13402501 40 18335136475575349901
13583140 156 18115028631403380771
14117953 113 18197215841177991405
14251764 38 18337391638574904373
14294032 229 18059299868123941495
14466204 15 18339927133684226144
14790565 3 18047197620619108548
14950920 106 12396310236040780327
14951699 99 17749117702950882894
15082195 135 18200858605696787527
15238133 3 18188771768872189746
1601671 61 18340771537287065330
16992727 255 18118138076768808660
20567600 299 18272366503491349705
20715895 44 18340202969294985379
21133410 38 17771352964029722809
21298829 104 18342176631485585969
21860390 5 18343304742925591815
22122407 14 18115312305481694856
23559900 14 18058736797168001166
25269216 80 15339115763369477205
2748736 6 18410004433986588517
2838139 119 18340764939684548686
3680242 22 18189896418241981747
4058900 60 18114186375811378626
4144715 1 18261121802126972234
5104073 3 17530965786991032819
513532 50 17846784009879957998
550186 83 17749933544769087168
57724786 102 18334572399987296510
6328613 192 18188775079970748116

> <PUBCHEM_SHAPE_MULTIPOLES>
563.37
15.75
4.44
1.28
8.51
1.92
0.16
13.08
1.61
1.35
0.32
-0.37
-0.17
-0.99

> <PUBCHEM_SHAPE_SELFOVERLAP>
1213.8

> <PUBCHEM_SHAPE_VOLUME>
311

> <PUBCHEM_COORDINATE_TYPE>
2
5
10

$$$$
