2834991
  -OEChem-01171811393D

 32 35  0     1  0  0  0  0  0999 V2000
    0.2506    1.8317   -0.0918 O   0  0  0  0  0  0  0  0  0  0  0  0
    0.5532   -1.0129   -2.1309 O   0  0  0  0  0  0  0  0  0  0  0  0
   -0.6589    1.3260   -2.2254 O   0  0  0  0  0  0  0  0  0  0  0  0
   -0.3583   -2.5844    0.2398 O   0  0  0  0  0  0  0  0  0  0  0  0
    2.7649   -2.0824   -0.1570 O   0  0  0  0  0  0  0  0  0  0  0  0
    0.2899   -0.4873   -0.8539 C   0  0  2  0  0  0  0  0  0  0  0  0
   -0.4821    0.8687   -0.8913 C   0  0  1  0  0  0  0  0  0  0  0  0
    1.5079   -0.0960   -0.1244 C   0  0  0  0  0  0  0  0  0  0  0  0
    1.4214    1.1729    0.2610 C   0  0  0  0  0  0  0  0  0  0  0  0
   -1.7882    0.5576   -0.2037 C   0  0  0  0  0  0  0  0  0  0  0  0
   -0.6043   -1.4308   -0.0638 C   0  0  0  0  0  0  0  0  0  0  0  0
   -1.8473   -0.7490    0.2735 C   0  0  0  0  0  0  0  0  0  0  0  0
    2.4703    1.9257    1.0015 C   0  0  0  0  0  0  0  0  0  0  0  0
    2.6861   -0.9119    0.2068 C   0  0  0  0  0  0  0  0  0  0  0  0
    3.8327    1.2430    0.8496 C   0  0  0  0  0  0  0  0  0  0  0  0
    3.7536   -0.2674    1.0730 C   0  0  0  0  0  0  0  0  0  0  0  0
   -2.8582    1.4134    0.0135 C   0  0  0  0  0  0  0  0  0  0  0  0
   -2.9389   -1.2530    0.9568 C   0  0  0  0  0  0  0  0  0  0  0  0
   -3.9773    0.9301    0.6997 C   0  0  0  0  0  0  0  0  0  0  0  0
   -4.0170   -0.3938    1.1670 C   0  0  0  0  0  0  0  0  0  0  0  0
    2.5398    2.9522    0.6243 H   0  0  0  0  0  0  0  0  0  0  0  0
    2.1929    1.9822    2.0604 H   0  0  0  0  0  0  0  0  0  0  0  0
    4.2152    1.4333   -0.1622 H   0  0  0  0  0  0  0  0  0  0  0  0
    4.5505    1.6873    1.5483 H   0  0  0  0  0  0  0  0  0  0  0  0
    3.5224   -0.4916    2.1202 H   0  0  0  0  0  0  0  0  0  0  0  0
    4.7209   -0.7185    0.8267 H   0  0  0  0  0  0  0  0  0  0  0  0
    1.1011   -1.8093   -2.0244 H   0  0  0  0  0  0  0  0  0  0  0  0
    0.1264    1.0662   -2.7359 H   0  0  0  0  0  0  0  0  0  0  0  0
   -2.8336    2.4394   -0.3388 H   0  0  0  0  0  0  0  0  0  0  0  0
   -2.9648   -2.2740    1.3200 H   0  0  0  0  0  0  0  0  0  0  0  0
   -4.8252    1.5865    0.8762 H   0  0  0  0  0  0  0  0  0  0  0  0
   -4.8953   -0.7489    1.6992 H   0  0  0  0  0  0  0  0  0  0  0  0
  1  7  1  0  0  0  0
  1  9  1  0  0  0  0
  2  6  1  0  0  0  0
  2 27  1  0  0  0  0
  3  7  1  0  0  0  0
  3 28  1  0  0  0  0
  4 11  2  0  0  0  0
  5 14  2  0  0  0  0
  6  7  1  0  0  0  0
  6  8  1  0  0  0  0
  6 11  1  0  0  0  0
  7 10  1  0  0  0  0
  8  9  2  0  0  0  0
  8 14  1  0  0  0  0
  9 13  1  0  0  0  0
 10 12  1  0  0  0  0
 10 17  2  0  0  0  0
 11 12  1  0  0  0  0
 12 18  2  0  0  0  0
 13 15  1  0  0  0  0
 13 21  1  0  0  0  0
 13 22  1  0  0  0  0
 14 16  1  0  0  0  0
 15 16  1  0  0  0  0
 15 23  1  0  0  0  0
 15 24  1  0  0  0  0
 16 25  1  0  0  0  0
 16 26  1  0  0  0  0
 17 19  1  0  0  0  0
 17 29  1  0  0  0  0
 18 20  1  0  0  0  0
 18 30  1  0  0  0  0
 19 20  2  0  0  0  0
 19 31  1  0  0  0  0
 20 32  1  0  0  0  0
M  END
> <PUBCHEM_COMPOUND_CID>
2834991

> <PUBCHEM_CONFORMER_RMSD>
0.6

> <PUBCHEM_CONFORMER_DIVERSEORDER>
2
1
3
4

> <PUBCHEM_MMFF94_PARTIAL_CHARGES>
25
1 -0.36
10 -0.14
11 0.42
12 0.09
13 0.14
14 0.49
16 0.06
17 -0.15
18 -0.15
19 -0.15
2 -0.68
20 -0.15
27 0.4
28 0.4
29 0.15
3 -0.68
30 0.15
31 0.15
32 0.15
4 -0.57
5 -0.57
6 0.48
7 0.7
8 -0.12
9 -0.06

> <PUBCHEM_EFFECTIVE_ROTOR_COUNT>
0.8

> <PUBCHEM_PHARMACOPHORE_FEATURES>
11
1 1 acceptor
1 2 acceptor
1 2 donor
1 3 acceptor
1 3 donor
1 4 acceptor
1 5 acceptor
5 1 6 7 8 9 rings
5 6 7 10 11 12 rings
6 10 12 17 18 19 20 rings
6 8 9 13 14 15 16 rings

> <PUBCHEM_HEAVY_ATOM_COUNT>
20

> <PUBCHEM_ATOM_DEF_STEREO_COUNT>
0

> <PUBCHEM_ATOM_UDEF_STEREO_COUNT>
2

> <PUBCHEM_BOND_DEF_STEREO_COUNT>
0

> <PUBCHEM_BOND_UDEF_STEREO_COUNT>
0

> <PUBCHEM_ISOTOPIC_ATOM_COUNT>
0

> <PUBCHEM_COMPONENT_COUNT>
1

> <PUBCHEM_CACTVS_TAUTO_COUNT>
5

> <PUBCHEM_CONFORMER_ID>
002B422F00000002

> <PUBCHEM_MMFF94_ENERGY>
41.2819

> <PUBCHEM_FEATURE_SELFOVERLAP>
56.528

> <PUBCHEM_SHAPE_FINGERPRINT>
10863032 1 18202001044778674099
10948715 1 17917429873199119745
1100329 8 15095365433258666449
11132069 177 18187646873381124035
11578080 2 14852153091764170703
11640471 11 16200142205708387232
12011746 2 18410576188543566188
12251169 10 18338797917651025081
12382932 28 18411132567365881792
12390115 104 17768534142427930216
12423570 1 16883316969510131613
12507560 40 18410294709440855769
12633257 1 18410283735915407514
12892183 10 18338517546565266921
13140716 1 18337389340229318163
14178342 30 18122054571018631338
14787075 74 17988076828769082883
14790565 3 17977108182481373720
15219456 202 18411980243375240544
15309172 13 18131063844510077574
16945 1 18193839472918365653
17804303 29 18335713684614296595
1813 80 16370725928715378622
19049666 15 18046899390431234756
19765921 60 13326588345093475399
19784866 170 18409165545733511984
19862831 5 11600015344370680785
20361792 2 15357692019903177191
21421861 104 16957907138591784619
21501502 16 18268702986513291058
21731228 192 18201718500170704611
21731516 1 15285352946551301921
21756936 100 17554602173759763400
22112679 90 14924505209037198972
23184049 59 18342738494336845458
23419403 2 17392178647690366791
23559900 14 18116158775011756822
2748010 2 18334851680208741204
598444 67 18189609441322662582
84936 31 16414362147697092151
90316 7 17313101895922092333

> <PUBCHEM_SHAPE_MULTIPOLES>
382.24
6.44
2.11
1.36
0.57
0.41
-0.66
-0.9
3.5
-0.52
0.07
0.09
-0.12
0.69

> <PUBCHEM_SHAPE_SELFOVERLAP>
871.22

> <PUBCHEM_SHAPE_VOLUME>
199.4

> <PUBCHEM_COORDINATE_TYPE>
2
5
10

$$$$
