3720929
  -OEChem-01171812043D

 61 63  0     0  0  0  0  0  0999 V2000
    0.0846   -2.7212    1.0374 O   0  0  0  0  0  0  0  0  0  0  0  0
    0.0933    1.8728    1.9907 O   0  0  0  0  0  0  0  0  0  0  0  0
    3.5562   -3.6741   -2.0119 O   0  0  0  0  0  0  0  0  0  0  0  0
   -1.6030   -0.0275   -0.5772 O   0  0  0  0  0  0  0  0  0  0  0  0
   -4.2729    0.1513   -1.4356 O   0  0  0  0  0  0  0  0  0  0  0  0
    2.1071    0.8731    1.3910 N   0  0  0  0  0  0  0  0  0  0  0  0
    3.0161   -2.3995    0.5349 N   0  0  0  0  0  0  0  0  0  0  0  0
    0.0641   -0.4216    1.5197 N   0  0  0  0  0  0  0  0  0  0  0  0
    4.0764   -0.4485    0.7334 N   0  0  0  0  0  0  0  0  0  0  0  0
   -5.7799   -0.0930    0.3143 N   0  0  0  0  0  0  0  0  0  0  0  0
   -3.5183   -0.1985    0.7432 N   0  0  0  0  0  0  0  0  0  0  0  0
    2.0712   -1.4875    0.9087 C   0  0  0  0  0  0  0  0  0  0  0  0
    2.7462   -0.3030    1.0229 C   0  0  0  0  0  0  0  0  0  0  0  0
    0.6734   -1.6491    1.1468 C   0  0  0  0  0  0  0  0  0  0  0  0
    0.7154    0.8571    1.6589 C   0  0  0  0  0  0  0  0  0  0  0  0
    2.8617    2.1153    1.5014 C   0  0  0  0  0  0  0  0  0  0  0  0
   -6.9837    0.0491   -0.4708 C   0  0  0  0  0  0  0  0  0  0  0  0
    2.8260   -3.8073    0.2789 C   0  0  0  0  0  0  0  0  0  0  0  0
   -1.3694   -0.4585    1.7900 C   0  0  0  0  0  0  0  0  0  0  0  0
    4.2069   -1.7264    0.4426 C   0  0  0  0  0  0  0  0  0  0  0  0
    2.8918    2.8714    0.2047 C   0  0  0  0  0  0  0  0  0  0  0  0
    2.4850   -4.0945   -1.1771 C   0  0  0  0  0  0  0  0  0  0  0  0
   -6.9930   -1.0090   -1.5801 C   0  0  0  0  0  0  0  0  0  0  0  0
   -8.2052   -0.1454    0.4347 C   0  0  0  0  0  0  0  0  0  0  0  0
   -7.0151    1.4502   -1.0903 C   0  0  0  0  0  0  0  0  0  0  0  0
   -2.1406   -0.1870    0.5154 C   0  0  0  0  0  0  0  0  0  0  0  0
   -4.5033   -0.0293   -0.2409 C   0  0  0  0  0  0  0  0  0  0  0  0
    1.8972    3.8073   -0.0801 C   0  0  0  0  0  0  0  0  0  0  0  0
    3.9143    2.6388   -0.7152 C   0  0  0  0  0  0  0  0  0  0  0  0
    1.9250    4.5100   -1.2847 C   0  0  0  0  0  0  0  0  0  0  0  0
    3.9421    3.3418   -1.9197 C   0  0  0  0  0  0  0  0  0  0  0  0
    2.9474    4.2774   -2.2044 C   0  0  0  0  0  0  0  0  0  0  0  0
    3.2828   -3.9347   -3.3818 C   0  0  0  0  0  0  0  0  0  0  0  0
    3.8792    1.9024    1.8531 H   0  0  0  0  0  0  0  0  0  0  0  0
    2.4082    2.7422    2.2796 H   0  0  0  0  0  0  0  0  0  0  0  0
    3.7664   -4.3051    0.5459 H   0  0  0  0  0  0  0  0  0  0  0  0
    2.0560   -4.1910    0.9535 H   0  0  0  0  0  0  0  0  0  0  0  0
   -1.6577   -1.4430    2.1744 H   0  0  0  0  0  0  0  0  0  0  0  0
   -1.6371    0.2957    2.5376 H   0  0  0  0  0  0  0  0  0  0  0  0
    5.1299   -2.2150    0.1608 H   0  0  0  0  0  0  0  0  0  0  0  0
    2.3247   -5.1713   -1.3045 H   0  0  0  0  0  0  0  0  0  0  0  0
    1.5684   -3.5661   -1.4652 H   0  0  0  0  0  0  0  0  0  0  0  0
   -5.8609   -0.2219    1.3186 H   0  0  0  0  0  0  0  0  0  0  0  0
   -6.2289   -0.8443   -2.3449 H   0  0  0  0  0  0  0  0  0  0  0  0
   -6.8383   -2.0138   -1.1695 H   0  0  0  0  0  0  0  0  0  0  0  0
   -7.9572   -1.0119   -2.1025 H   0  0  0  0  0  0  0  0  0  0  0  0
   -9.1404   -0.0424   -0.1268 H   0  0  0  0  0  0  0  0  0  0  0  0
   -8.2175    0.5920    1.2458 H   0  0  0  0  0  0  0  0  0  0  0  0
   -8.1989   -1.1387    0.8988 H   0  0  0  0  0  0  0  0  0  0  0  0
   -7.9579    1.6185   -1.6237 H   0  0  0  0  0  0  0  0  0  0  0  0
   -6.9287    2.2241   -0.3184 H   0  0  0  0  0  0  0  0  0  0  0  0
   -6.2087    1.6181   -1.8107 H   0  0  0  0  0  0  0  0  0  0  0  0
   -3.8419   -0.3465    1.6954 H   0  0  0  0  0  0  0  0  0  0  0  0
    1.0973    4.0052    0.6276 H   0  0  0  0  0  0  0  0  0  0  0  0
    4.7013    1.9201   -0.5057 H   0  0  0  0  0  0  0  0  0  0  0  0
    1.1513    5.2395   -1.5059 H   0  0  0  0  0  0  0  0  0  0  0  0
    4.7392    3.1621   -2.6352 H   0  0  0  0  0  0  0  0  0  0  0  0
    2.9696    4.8252   -3.1419 H   0  0  0  0  0  0  0  0  0  0  0  0
    3.1486   -5.0078   -3.5491 H   0  0  0  0  0  0  0  0  0  0  0  0
    2.3922   -3.3877   -3.7059 H   0  0  0  0  0  0  0  0  0  0  0  0
    4.1362   -3.5934   -3.9739 H   0  0  0  0  0  0  0  0  0  0  0  0
  1 14  2  0  0  0  0
  2 15  2  0  0  0  0
  3 22  1  0  0  0  0
  3 33  1  0  0  0  0
  4 26  2  0  0  0  0
  5 27  2  0  0  0  0
  6 13  1  0  0  0  0
  6 15  1  0  0  0  0
  6 16  1  0  0  0  0
  7 12  1  0  0  0  0
  7 18  1  0  0  0  0
  7 20  1  0  0  0  0
  8 14  1  0  0  0  0
  8 15  1  0  0  0  0
  8 19  1  0  0  0  0
  9 13  1  0  0  0  0
  9 20  2  0  0  0  0
 10 17  1  0  0  0  0
 10 27  1  0  0  0  0
 10 43  1  0  0  0  0
 11 26  1  0  0  0  0
 11 27  1  0  0  0  0
 11 53  1  0  0  0  0
 12 13  2  0  0  0  0
 12 14  1  0  0  0  0
 16 21  1  0  0  0  0
 16 34  1  0  0  0  0
 16 35  1  0  0  0  0
 17 23  1  0  0  0  0
 17 24  1  0  0  0  0
 17 25  1  0  0  0  0
 18 22  1  0  0  0  0
 18 36  1  0  0  0  0
 18 37  1  0  0  0  0
 19 26  1  0  0  0  0
 19 38  1  0  0  0  0
 19 39  1  0  0  0  0
 20 40  1  0  0  0  0
 21 28  2  0  0  0  0
 21 29  1  0  0  0  0
 22 41  1  0  0  0  0
 22 42  1  0  0  0  0
 23 44  1  0  0  0  0
 23 45  1  0  0  0  0
 23 46  1  0  0  0  0
 24 47  1  0  0  0  0
 24 48  1  0  0  0  0
 24 49  1  0  0  0  0
 25 50  1  0  0  0  0
 25 51  1  0  0  0  0
 25 52  1  0  0  0  0
 28 30  1  0  0  0  0
 28 54  1  0  0  0  0
 29 31  2  0  0  0  0
 29 55  1  0  0  0  0
 30 32  2  0  0  0  0
 30 56  1  0  0  0  0
 31 32  1  0  0  0  0
 31 57  1  0  0  0  0
 32 58  1  0  0  0  0
 33 59  1  0  0  0  0
 33 60  1  0  0  0  0
 33 61  1  0  0  0  0
M  END
> <PUBCHEM_COMPOUND_CID>
3720929

> <PUBCHEM_CONFORMER_RMSD>
1.2

> <PUBCHEM_CONFORMER_DIVERSEORDER>
2
68
46
101
100
29
109
61
123
7
116
111
21
103
115
15
96
119
78
44
88
124
59
26
117
14
113
69
86
27
48
58
93
114
52
99
77
65
70
49
79
33
32
51
42
47
126
97
106
45
36
28
104
94
108
22
80
40
62
71
107
38
102
90
75
95
24
125
118
39
30
120
112
50
20
10
110
105
127
60
19
8
67
43
72
82
66
16
57
121
17
56
89
73
53
41
64
128
6
25
54
5
83
74
98
31
122
23
3
91
76
12
81
87
37
13
11
85
18
9
35
34
84
63
1
4
92
55

> <PUBCHEM_MMFF94_PARTIAL_CHARGES>
38
1 -0.57
10 -0.73
11 -0.49
12 -0.24
13 0.29
14 0.71
15 0.69
16 0.44
17 0.3
18 0.26
19 0.36
2 -0.57
20 0.04
21 -0.14
22 0.28
26 0.57
27 0.69
28 -0.15
29 -0.15
3 -0.56
30 -0.15
31 -0.15
32 -0.15
33 0.28
4 -0.57
40 0.15
43 0.37
5 -0.57
53 0.37
54 0.15
55 0.15
56 0.15
57 0.15
58 0.15
6 -0.42
7 0.05
8 -0.42
9 -0.57

> <PUBCHEM_EFFECTIVE_ROTOR_COUNT>
11

> <PUBCHEM_PHARMACOPHORE_FEATURES>
12
1 1 acceptor
1 10 donor
1 11 donor
1 2 acceptor
1 3 acceptor
1 4 acceptor
1 5 acceptor
3 7 9 20 cation
4 17 23 24 25 hydrophobe
5 7 9 12 13 20 rings
6 21 28 29 30 31 32 rings
6 6 8 12 13 14 15 rings

> <PUBCHEM_HEAVY_ATOM_COUNT>
33

> <PUBCHEM_ATOM_DEF_STEREO_COUNT>
0

> <PUBCHEM_ATOM_UDEF_STEREO_COUNT>
0

> <PUBCHEM_BOND_DEF_STEREO_COUNT>
0

> <PUBCHEM_BOND_UDEF_STEREO_COUNT>
0

> <PUBCHEM_ISOTOPIC_ATOM_COUNT>
0

> <PUBCHEM_COMPONENT_COUNT>
1

> <PUBCHEM_CACTVS_TAUTO_COUNT>
5

> <PUBCHEM_CONFORMER_ID>
0038C6E100000002

> <PUBCHEM_MMFF94_ENERGY>
71.5537

> <PUBCHEM_FEATURE_SELFOVERLAP>
61.065

> <PUBCHEM_SHAPE_FINGERPRINT>
10074138 170 8609473493778571556
10483366 6 18187938296172759228
10673678 19 18262523726664728353
12160290 23 17040935166151967482
13944108 23 18113615703074788477
14114206 34 17540566542421216586
14117953 113 18335143120686354876
15183329 4 17203328944966245321
15484559 13 18336831983067251006
15799311 1 17703505610552050191
15803439 3 17910697658640420676
16988056 13 18262227842062618884
17899979 129 18116720805505352756
18365409 1 17630310051743614398
21716022 299 17916880036144798012
21857420 4 18044365033773577644
23522609 53 18130244722266807633
26353 1 18123205502311009166
27425 322 17895463830722960811
34797466 226 18186799193535694763
394071 54 17676483986854609917
397830 11 17604438522141267345
44880568 143 17968922143082989141
46194498 28 18334008376713472741
5081480 168 17970373462737486389
5223283 242 17974560309243753709
53794403 172 18187363285370284949
57527452 28 17704352161480209910
6609424 69 17386549324181332837

> <PUBCHEM_SHAPE_MULTIPOLES>
619.89
15.24
6.08
2.32
48.09
0.61
1.38
1.35
6.29
-13.45
4.91
-2.05
-0.8
0.37

> <PUBCHEM_SHAPE_SELFOVERLAP>
1310.232

> <PUBCHEM_SHAPE_VOLUME>
346.8

> <PUBCHEM_COORDINATE_TYPE>
2
5
10

$$$$
