44601848
  -OEChem-01171811403D

 44 46  0     0  0  0  0  0  0999 V2000
    4.3936   -1.9801    0.0270 Br  0  0  0  0  0  0  0  0  0  0  0  0
   -0.7307   -1.4744    0.0162 O   0  0  0  0  0  0  0  0  0  0  0  0
   -3.0152   -0.0341    0.0057 N   0  0  0  0  0  0  0  0  0  0  0  0
    0.5987    0.4259    0.0025 N   0  0  0  0  0  0  0  0  0  0  0  0
    1.7472   -0.2883    0.0048 N   0  0  0  0  0  0  0  0  0  0  0  0
   -5.4460   -0.2083   -0.0020 C   0  0  0  0  0  0  0  0  0  0  0  0
   -4.2697    0.5590    0.0047 C   0  0  0  0  0  0  0  0  0  0  0  0
   -6.7000    0.4476   -0.0040 C   0  0  0  0  0  0  0  0  0  0  0  0
   -4.3290    1.9529    0.0094 C   0  0  0  0  0  0  0  0  0  0  0  0
   -5.4051   -1.6121   -0.0067 C   0  0  0  0  0  0  0  0  0  0  0  0
   -6.7409    1.8515    0.0007 C   0  0  0  0  0  0  0  0  0  0  0  0
   -7.8763   -0.3196   -0.0107 C   0  0  0  0  0  0  0  0  0  0  0  0
   -5.5622    2.5979    0.0074 C   0  0  0  0  0  0  0  0  0  0  0  0
   -1.7788    0.7049    0.0112 C   0  0  0  0  0  0  0  0  0  0  0  0
   -6.5837   -2.3585   -0.0134 C   0  0  0  0  0  0  0  0  0  0  0  0
   -7.8170   -1.7135   -0.0154 C   0  0  0  0  0  0  0  0  0  0  0  0
   -0.6081   -0.2520    0.0087 C   0  0  0  0  0  0  0  0  0  0  0  0
    6.6276    0.4271   -0.0074 C   0  0  0  0  0  0  0  0  0  0  0  0
    7.3032    0.2598    1.2015 C   0  0  0  0  0  0  0  0  0  0  0  0
    7.3089    0.2711   -1.2144 C   0  0  0  0  0  0  0  0  0  0  0  0
    5.2005    0.7670   -0.0091 C   0  0  0  0  0  0  0  0  0  0  0  0
    8.6601   -0.0634    1.2032 C   0  0  0  0  0  0  0  0  0  0  0  0
    8.6657   -0.0521   -1.2127 C   0  0  0  0  0  0  0  0  0  0  0  0
    9.3415   -0.2193   -0.0039 C   0  0  0  0  0  0  0  0  0  0  0  0
    4.1972   -0.1257   -0.0015 C   0  0  0  0  0  0  0  0  0  0  0  0
    2.8186    0.4367   -0.0017 C   0  0  0  0  0  0  0  0  0  0  0  0
   -3.4441    2.5819    0.0146 H   0  0  0  0  0  0  0  0  0  0  0  0
   -4.4787   -2.1774   -0.0055 H   0  0  0  0  0  0  0  0  0  0  0  0
   -2.9432   -1.0422    0.0051 H   0  0  0  0  0  0  0  0  0  0  0  0
   -7.6937    2.3768   -0.0008 H   0  0  0  0  0  0  0  0  0  0  0  0
   -8.8513    0.1633   -0.0124 H   0  0  0  0  0  0  0  0  0  0  0  0
   -5.6086    3.6831    0.0110 H   0  0  0  0  0  0  0  0  0  0  0  0
   -1.6959    1.3351   -0.8823 H   0  0  0  0  0  0  0  0  0  0  0  0
   -1.6985    1.3267    0.9108 H   0  0  0  0  0  0  0  0  0  0  0  0
   -6.5392   -3.4438   -0.0171 H   0  0  0  0  0  0  0  0  0  0  0  0
   -8.7342   -2.2952   -0.0207 H   0  0  0  0  0  0  0  0  0  0  0  0
    0.6585    1.4396   -0.0028 H   0  0  0  0  0  0  0  0  0  0  0  0
    6.7860    0.3785    2.1506 H   0  0  0  0  0  0  0  0  0  0  0  0
    6.7961    0.3985   -2.1648 H   0  0  0  0  0  0  0  0  0  0  0  0
    5.0013    1.8363   -0.0214 H   0  0  0  0  0  0  0  0  0  0  0  0
    9.1863   -0.1937    2.1444 H   0  0  0  0  0  0  0  0  0  0  0  0
    9.1963   -0.1736   -2.1526 H   0  0  0  0  0  0  0  0  0  0  0  0
   10.3979   -0.4710   -0.0027 H   0  0  0  0  0  0  0  0  0  0  0  0
    2.7572    1.5418   -0.0088 H   0  0  0  0  0  0  0  0  0  0  0  0
  1 25  1  0  0  0  0
  2 17  2  0  0  0  0
  3  7  1  0  0  0  0
  3 14  1  0  0  0  0
  3 29  1  0  0  0  0
  4  5  1  0  0  0  0
  4 17  1  0  0  0  0
  4 37  1  0  0  0  0
  5 26  2  0  0  0  0
  6  7  1  0  0  0  0
  6  8  1  0  0  0  0
  6 10  2  0  0  0  0
  7  9  2  0  0  0  0
  8 11  1  0  0  0  0
  8 12  2  0  0  0  0
  9 13  1  0  0  0  0
  9 27  1  0  0  0  0
 10 15  1  0  0  0  0
 10 28  1  0  0  0  0
 11 13  2  0  0  0  0
 11 30  1  0  0  0  0
 12 16  1  0  0  0  0
 12 31  1  0  0  0  0
 13 32  1  0  0  0  0
 14 17  1  0  0  0  0
 14 33  1  0  0  0  0
 14 34  1  0  0  0  0
 15 16  2  0  0  0  0
 15 35  1  0  0  0  0
 16 36  1  0  0  0  0
 18 19  2  0  0  0  0
 18 20  1  0  0  0  0
 18 21  1  0  0  0  0
 19 22  1  0  0  0  0
 19 38  1  0  0  0  0
 20 23  2  0  0  0  0
 20 39  1  0  0  0  0
 21 25  2  0  0  0  0
 21 40  1  0  0  0  0
 22 24  2  0  0  0  0
 22 41  1  0  0  0  0
 23 24  1  0  0  0  0
 23 42  1  0  0  0  0
 24 43  1  0  0  0  0
 25 26  1  0  0  0  0
 26 44  1  0  0  0  0
M  END
> <PUBCHEM_COMPOUND_CID>
44601848

> <PUBCHEM_CONFORMER_RMSD>
0.8

> <PUBCHEM_CONFORMER_DIVERSEORDER>
1
61
45
46
99
44
37
30
118
74
75
103
62
49
112
95
42
94
64
11
109
80
91
73
14
21
55
81
43
68
113
107
9
36
96
131
22
47
124
72
76
24
116
12
123
8
17
83
88
122
78
50
31
58
15
28
77
25
105
39
67
120
18
69
89
6
132
51
92
121
35
115
2
90
56
66
19
106
104
100
130
16
59
63
129
57
48
60
38
110
40
128
10
93
85
79
23
133
125
82
53
5
70
117
127
108
34
87
126
84
114
32
7
86
33
26
65
41
102
54
98
13
111
20
3
27
101
71
119
4
29
52
97

> <PUBCHEM_MMFF94_PARTIAL_CHARGES>
40
1 -0.11
10 -0.15
11 -0.15
12 -0.15
13 -0.15
14 0.43
15 -0.15
16 -0.15
17 0.57
18 0.03
19 -0.15
2 -0.57
20 -0.15
21 -0.18
22 -0.15
23 -0.15
24 -0.15
25 0.12
26 0.38
27 0.15
28 0.15
29 0.4
3 -0.87
30 0.15
31 0.15
32 0.15
35 0.15
36 0.15
37 0.37
38 0.15
39 0.15
4 -0.37
40 0.15
41 0.15
42 0.15
43 0.15
44 0.06
5 -0.51
7 0.1
9 -0.15

> <PUBCHEM_EFFECTIVE_ROTOR_COUNT>
7

> <PUBCHEM_PHARMACOPHORE_FEATURES>
9
1 1 hydrophobe
1 2 acceptor
1 3 cation
1 3 donor
1 4 donor
1 5 acceptor
6 18 19 20 22 23 24 rings
6 6 7 8 9 11 13 rings
6 6 8 10 12 15 16 rings

> <PUBCHEM_HEAVY_ATOM_COUNT>
26

> <PUBCHEM_ATOM_DEF_STEREO_COUNT>
0

> <PUBCHEM_ATOM_UDEF_STEREO_COUNT>
0

> <PUBCHEM_BOND_DEF_STEREO_COUNT>
2

> <PUBCHEM_BOND_UDEF_STEREO_COUNT>
0

> <PUBCHEM_ISOTOPIC_ATOM_COUNT>
0

> <PUBCHEM_COMPONENT_COUNT>
1

> <PUBCHEM_CACTVS_TAUTO_COUNT>
3

> <PUBCHEM_CONFORMER_ID>
02A891F800000001

> <PUBCHEM_MMFF94_ENERGY>
83.5426

> <PUBCHEM_FEATURE_SELFOVERLAP>
45.702

> <PUBCHEM_SHAPE_FINGERPRINT>
100830 39 18411981347720152529
10299344 5 18040434395631049072
11315181 36 17530687628403761577
12082328 90 18343019960887321037
12089408 11 18040716961898899876
13885169 127 18411138030326807689
14251764 18 18040434391140987490
14251764 46 18410573989446418438
14933364 13 18413671296691039657
15183329 4 18409169896012974568
15328684 2 17896305931706774776
15419008 47 17704066287697860136
15461852 350 18409454699546998580
15510794 2 17989490697057839798
1577012 14 18334009454375724299
15849732 13 18131914862484320532
16989713 51 17988352793567134143
18335252 98 18343304764300428215
19841028 212 18339079269039879954
21150785 3 18113620092414182918
21315763 28 18408603677943154396
21360443 120 17385438821838078875
21792961 116 17561085778261806288
232437 2 18408885132225536002
23559900 14 18339915014151914153
335507 130 18341051895234948607
395649 100 17822295737940063883
4073 2 18187090533372523755
4325135 7 18408041827168824399
4339292 15 17845926442688082247
5219985 9 17385722495975032556
5758199 1 17821729425200692834
636775 8 18115030818554441003
6691757 9 17095534993393947097
67123 10 18410012157128895612
99344 41 18335983090569648027

> <PUBCHEM_SHAPE_MULTIPOLES>
520.2
34.73
1.97
0.84
33.07
0.13
0
1.82
0.16
-5.13
0
1.86
-0.03
-0.05

> <PUBCHEM_SHAPE_SELFOVERLAP>
1106.207

> <PUBCHEM_SHAPE_VOLUME>
294.2

> <PUBCHEM_COORDINATE_TYPE>
2
5
10

$$$$
