5866058
  -OEChem-01171812103D

 58 62  0     1  0  0  0  0  0999 V2000
    3.8175   -2.9472   -0.1340 O   0  0  0  0  0  0  0  0  0  0  0  0
    1.3115   -1.8941    2.6942 O   0  0  0  0  0  0  0  0  0  0  0  0
   -1.2041   -1.4544    1.5253 O   0  0  0  0  0  0  0  0  0  0  0  0
   -0.7082    0.4774   -2.3532 O   0  0  0  0  0  0  0  0  0  0  0  0
    1.3101    4.3383    1.3696 O   0  0  0  0  0  0  0  0  0  0  0  0
   -5.2801    1.0656    0.6134 O   0  0  0  0  0  0  0  0  0  0  0  0
   -6.3184   -1.5128   -0.1512 O   0  0  0  0  0  0  0  0  0  0  0  0
    2.1060   -0.7957    0.7500 N   0  0  0  0  0  0  0  0  0  0  0  0
    4.2717   -1.5841   -0.0902 C   0  0  1  0  0  0  0  0  0  0  0  0
    3.5351   -0.8307    1.0003 C   0  0  0  0  0  0  0  0  0  0  0  0
    5.7742   -1.6455    0.1244 C   0  0  0  0  0  0  0  0  0  0  0  0
    1.5284   -0.1893   -0.4565 C   0  0  1  0  0  0  0  0  0  0  0  0
    6.1347   -2.8992   -0.6322 C   0  0  0  0  0  0  0  0  0  0  0  0
    4.9566   -3.7993   -0.3257 C   0  0  0  0  0  0  0  0  0  0  0  0
    0.0519   -0.4447   -0.2955 C   0  0  0  0  0  0  0  0  0  0  0  0
    1.1839   -1.3301    1.6274 C   0  0  0  0  0  0  0  0  0  0  0  0
    1.8400    1.2674   -0.5458 C   0  0  0  0  0  0  0  0  0  0  0  0
   -0.1675   -1.1124    1.0031 C   0  0  0  0  0  0  0  0  0  0  0  0
   -0.9608   -0.1716   -1.1494 C   0  0  0  0  0  0  0  0  0  0  0  0
    1.4240    2.1319    0.4660 C   0  0  0  0  0  0  0  0  0  0  0  0
    2.5473    1.7621   -1.6409 C   0  0  0  0  0  0  0  0  0  0  0  0
   -2.3547   -0.4979   -0.8917 C   0  0  0  0  0  0  0  0  0  0  0  0
    1.7158    3.4934    0.3827 C   0  0  0  0  0  0  0  0  0  0  0  0
    2.8390    3.1236   -1.7242 C   0  0  0  0  0  0  0  0  0  0  0  0
    2.4232    3.9892   -0.7126 C   0  0  0  0  0  0  0  0  0  0  0  0
   -3.1780    0.4243   -0.2453 C   0  0  0  0  0  0  0  0  0  0  0  0
   -2.8673   -1.7309   -1.2961 C   0  0  0  0  0  0  0  0  0  0  0  0
   -4.5165    0.1114   -0.0065 C   0  0  0  0  0  0  0  0  0  0  0  0
   -5.0226   -1.1341   -0.3871 C   0  0  0  0  0  0  0  0  0  0  0  0
   -4.2020   -2.0501   -1.0455 C   0  0  0  0  0  0  0  0  0  0  0  0
   -6.6785    0.7893    0.4951 C   0  0  0  0  0  0  0  0  0  0  0  0
   -6.9544   -0.6677    0.8115 C   0  0  0  0  0  0  0  0  0  0  0  0
    1.6420    5.7179    1.2204 C   0  0  0  0  0  0  0  0  0  0  0  0
    4.0731   -1.1498   -1.0768 H   0  0  0  0  0  0  0  0  0  0  0  0
    3.8983    0.1995    1.0772 H   0  0  0  0  0  0  0  0  0  0  0  0
    3.7021   -1.3144    1.9697 H   0  0  0  0  0  0  0  0  0  0  0  0
    6.0158   -1.7748    1.1864 H   0  0  0  0  0  0  0  0  0  0  0  0
    6.2925   -0.7539   -0.2390 H   0  0  0  0  0  0  0  0  0  0  0  0
    1.8920   -0.7504   -1.3247 H   0  0  0  0  0  0  0  0  0  0  0  0
    7.0925   -3.3335   -0.3347 H   0  0  0  0  0  0  0  0  0  0  0  0
    6.1735   -2.6865   -1.7072 H   0  0  0  0  0  0  0  0  0  0  0  0
    4.7525   -4.5123   -1.1294 H   0  0  0  0  0  0  0  0  0  0  0  0
    5.1148   -4.3563    0.6039 H   0  0  0  0  0  0  0  0  0  0  0  0
    0.8755    1.7651    1.3299 H   0  0  0  0  0  0  0  0  0  0  0  0
    2.8778    1.0993   -2.4360 H   0  0  0  0  0  0  0  0  0  0  0  0
    3.3901    3.5086   -2.5774 H   0  0  0  0  0  0  0  0  0  0  0  0
   -2.7869    1.3910    0.0650 H   0  0  0  0  0  0  0  0  0  0  0  0
    2.6835    5.0343   -0.8409 H   0  0  0  0  0  0  0  0  0  0  0  0
   -2.2370   -2.4567   -1.8046 H   0  0  0  0  0  0  0  0  0  0  0  0
   -1.5535    0.5913   -2.8211 H   0  0  0  0  0  0  0  0  0  0  0  0
   -4.5907   -3.0161   -1.3559 H   0  0  0  0  0  0  0  0  0  0  0  0
   -7.2067    1.4382    1.2006 H   0  0  0  0  0  0  0  0  0  0  0  0
   -7.0027    1.0511   -0.5197 H   0  0  0  0  0  0  0  0  0  0  0  0
   -6.5919   -0.9400    1.8105 H   0  0  0  0  0  0  0  0  0  0  0  0
   -8.0296   -0.8683    0.7717 H   0  0  0  0  0  0  0  0  0  0  0  0
    1.2425    6.2427    2.0944 H   0  0  0  0  0  0  0  0  0  0  0  0
    2.7262    5.8734    1.2221 H   0  0  0  0  0  0  0  0  0  0  0  0
    1.1612    6.1543    0.3383 H   0  0  0  0  0  0  0  0  0  0  0  0
  1  9  1  0  0  0  0
  1 14  1  0  0  0  0
  2 16  2  0  0  0  0
  3 18  2  0  0  0  0
  4 19  1  0  0  0  0
  4 50  1  0  0  0  0
  5 23  1  0  0  0  0
  5 33  1  0  0  0  0
  6 28  1  0  0  0  0
  6 31  1  0  0  0  0
  7 29  1  0  0  0  0
  7 32  1  0  0  0  0
  8 10  1  0  0  0  0
  8 12  1  0  0  0  0
  8 16  1  0  0  0  0
  9 10  1  0  0  0  0
  9 11  1  0  0  0  0
  9 34  1  0  0  0  0
 10 35  1  0  0  0  0
 10 36  1  0  0  0  0
 11 13  1  0  0  0  0
 11 37  1  0  0  0  0
 11 38  1  0  0  0  0
 12 15  1  0  0  0  0
 12 17  1  0  0  0  0
 12 39  1  0  0  0  0
 13 14  1  0  0  0  0
 13 40  1  0  0  0  0
 13 41  1  0  0  0  0
 14 42  1  0  0  0  0
 14 43  1  0  0  0  0
 15 18  1  0  0  0  0
 15 19  2  0  0  0  0
 16 18  1  0  0  0  0
 17 20  2  0  0  0  0
 17 21  1  0  0  0  0
 19 22  1  0  0  0  0
 20 23  1  0  0  0  0
 20 44  1  0  0  0  0
 21 24  2  0  0  0  0
 21 45  1  0  0  0  0
 22 26  2  0  0  0  0
 22 27  1  0  0  0  0
 23 25  2  0  0  0  0
 24 25  1  0  0  0  0
 24 46  1  0  0  0  0
 25 48  1  0  0  0  0
 26 28  1  0  0  0  0
 26 47  1  0  0  0  0
 27 30  2  0  0  0  0
 27 49  1  0  0  0  0
 28 29  2  0  0  0  0
 29 30  1  0  0  0  0
 30 51  1  0  0  0  0
 31 32  1  0  0  0  0
 31 52  1  0  0  0  0
 31 53  1  0  0  0  0
 32 54  1  0  0  0  0
 32 55  1  0  0  0  0
 33 56  1  0  0  0  0
 33 57  1  0  0  0  0
 33 58  1  0  0  0  0
M  END
> <PUBCHEM_COMPOUND_CID>
5866058

> <PUBCHEM_CONFORMER_RMSD>
1

> <PUBCHEM_CONFORMER_DIVERSEORDER>
17
21
33
4
14
30
29
6
35
12
27
1
31
13
25
28
7
32
10
26
24
34
15
18
16
19
3
23
11
20
5
2
22
9
8

> <PUBCHEM_MMFF94_PARTIAL_CHARGES>
39
1 -0.56
10 0.3
12 0.58
14 0.28
15 -0.12
16 0.63
17 -0.14
18 0.56
19 0.05
2 -0.57
20 -0.15
21 -0.15
22 0.03
23 0.08
24 -0.15
25 -0.15
26 -0.15
27 -0.15
28 0.08
29 0.08
3 -0.57
30 -0.15
31 0.28
32 0.28
33 0.28
4 -0.53
44 0.15
45 0.15
46 0.15
47 0.15
48 0.15
49 0.15
5 -0.36
50 0.45
51 0.15
6 -0.36
7 -0.36
8 -0.66
9 0.28

> <PUBCHEM_EFFECTIVE_ROTOR_COUNT>
7.2

> <PUBCHEM_PHARMACOPHORE_FEATURES>
12
1 1 acceptor
1 2 acceptor
1 3 acceptor
1 4 donor
1 5 acceptor
1 6 acceptor
1 7 acceptor
5 1 9 11 13 14 rings
5 8 12 15 16 18 rings
6 17 20 21 23 24 25 rings
6 22 26 27 28 29 30 rings
6 6 7 28 29 31 32 rings

> <PUBCHEM_HEAVY_ATOM_COUNT>
33

> <PUBCHEM_ATOM_DEF_STEREO_COUNT>
0

> <PUBCHEM_ATOM_UDEF_STEREO_COUNT>
2

> <PUBCHEM_BOND_DEF_STEREO_COUNT>
1

> <PUBCHEM_BOND_UDEF_STEREO_COUNT>
0

> <PUBCHEM_ISOTOPIC_ATOM_COUNT>
0

> <PUBCHEM_COMPONENT_COUNT>
1

> <PUBCHEM_CACTVS_TAUTO_COUNT>
3

> <PUBCHEM_CONFORMER_ID>
0059824A00000011

> <PUBCHEM_MMFF94_ENERGY>
100.3765

> <PUBCHEM_FEATURE_SELFOVERLAP>
60.947

> <PUBCHEM_SHAPE_FINGERPRINT>
10721379 63 18270411610682866148
11331351 85 18271519785122118832
11578080 2 17533239675625861232
12107183 9 18270124505151405073
12166972 35 18273214188269608451
12516196 113 18410854322563773714
12788726 201 18046905979591406066
13009979 54 18059298668925362544
13533116 47 18335983185770812391
13590594 115 18338802204139715145
13673619 4 17967534536636212575
13692114 37 17688577682409240634
13878862 14 18189873432284486885
14114211 68 17972337353766602309
14117953 113 18055074264523515093
14739800 52 17843958376313029433
14849402 71 18264204888681751712
14955137 171 18411982416670968170
15021287 119 18342179938741934827
15238133 3 17632303367613597627
15297060 5 17611488696913310924
15775530 1 17753625825606545234
15849732 13 18131068199691662726
17980427 26 17911787283090548380
1813 80 18336537223535284030
18681886 176 18341606006172295347
21033648 29 17273109338199764819
21927370 108 18116154364581263210
23559900 14 18341322362527068267
23569943 247 17974848367573270130
24771293 8 18198887262983946098
249057 25 17988931081022172987
249057 3 18412824656027418015
4144715 1 18335988640305327987
4516262 110 18121771996715175853
474 4 17898851511810120317
5219985 9 18336263441034956590
57527295 17 18266757950580873508
5895379 119 17845950541121910305
5912855 24 17981323705851631031
6823239 73 16370728162103640749
70251023 43 18335697247864216499
9962374 69 18339913918355362391
9981440 41 17546997989373849488

> <PUBCHEM_SHAPE_MULTIPOLES>
633.06
13.88
5.43
1.65
17.95
8.17
-0.16
-10.9
-0.11
-9.65
-1.02
-0.41
0.23
-0.77

> <PUBCHEM_SHAPE_SELFOVERLAP>
1392.362

> <PUBCHEM_SHAPE_VOLUME>
340.4

> <PUBCHEM_COORDINATE_TYPE>
2
5
10

$$$$
