4838799
  -OEChem-01171812043D

 55 57  0     0  0  0  0  0  0999 V2000
   -4.8701   -1.5714    0.3585 S   0  0  0  0  0  0  0  0  0  0  0  0
    5.1835    0.8962   -0.8818 S   0  0  0  0  0  0  0  0  0  0  0  0
   -5.1986   -1.9560    1.7142 O   0  0  0  0  0  0  0  0  0  0  0  0
   -5.3516   -2.3363   -0.7716 O   0  0  0  0  0  0  0  0  0  0  0  0
    5.6487    0.2288   -2.0949 O   0  0  0  0  0  0  0  0  0  0  0  0
    5.3352    2.3461   -0.7899 O   0  0  0  0  0  0  0  0  0  0  0  0
   -3.1716   -1.3922    0.2247 N   0  0  0  0  0  0  0  0  0  0  0  0
   -0.4991   -0.5150   -0.1383 N   0  0  0  0  0  0  0  0  0  0  0  0
    1.6683   -1.0235   -1.0259 N   0  0  0  0  0  0  0  0  0  0  0  0
    5.9645    0.1706    0.4826 N   0  0  0  0  0  0  0  0  0  0  0  0
   -2.6656   -1.1005   -1.1464 C   0  0  0  0  0  0  0  0  0  0  0  0
   -2.5431   -0.4888    1.2293 C   0  0  0  0  0  0  0  0  0  0  0  0
   -1.1548   -1.3107   -1.1859 C   0  0  0  0  0  0  0  0  0  0  0  0
   -1.0294   -0.6862    1.2193 C   0  0  0  0  0  0  0  0  0  0  0  0
    0.8490   -0.1856   -0.3190 C   0  0  0  0  0  0  0  0  0  0  0  0
   -5.3748    0.1053    0.1352 C   0  0  0  0  0  0  0  0  0  0  0  0
    1.3259    1.0084    0.2386 C   0  0  0  0  0  0  0  0  0  0  0  0
    3.5039    0.5037   -0.6482 C   0  0  0  0  0  0  0  0  0  0  0  0
    2.6634    1.3484    0.0684 C   0  0  0  0  0  0  0  0  0  0  0  0
    2.9623   -0.6597   -1.1704 C   0  0  0  0  0  0  0  0  0  0  0  0
   -5.6433    0.5681   -1.1425 C   0  0  0  0  0  0  0  0  0  0  0  0
   -5.4924    0.9311    1.2412 C   0  0  0  0  0  0  0  0  0  0  0  0
    6.1961   -1.2957    0.4388 C   0  0  0  0  0  0  0  0  0  0  0  0
    5.5490    0.6274    1.8330 C   0  0  0  0  0  0  0  0  0  0  0  0
   -6.0407    1.8934   -1.3193 C   0  0  0  0  0  0  0  0  0  0  0  0
   -5.8899    2.2565    1.0645 C   0  0  0  0  0  0  0  0  0  0  0  0
    7.5359   -1.5937   -0.2063 C   0  0  0  0  0  0  0  0  0  0  0  0
    6.7033    0.4934    2.8077 C   0  0  0  0  0  0  0  0  0  0  0  0
   -6.1640    2.7375   -0.2158 C   0  0  0  0  0  0  0  0  0  0  0  0
   -3.1280   -1.7697   -1.8784 H   0  0  0  0  0  0  0  0  0  0  0  0
   -2.8952   -0.0655   -1.4216 H   0  0  0  0  0  0  0  0  0  0  0  0
   -2.7611    0.5576    0.9908 H   0  0  0  0  0  0  0  0  0  0  0  0
   -2.9188   -0.7121    2.2329 H   0  0  0  0  0  0  0  0  0  0  0  0
   -0.7930   -1.0189   -2.1797 H   0  0  0  0  0  0  0  0  0  0  0  0
   -0.9159   -2.3717   -1.0393 H   0  0  0  0  0  0  0  0  0  0  0  0
   -0.7789   -1.6940    1.5742 H   0  0  0  0  0  0  0  0  0  0  0  0
   -0.5830    0.0256    1.9228 H   0  0  0  0  0  0  0  0  0  0  0  0
    0.6711    1.6781    0.7886 H   0  0  0  0  0  0  0  0  0  0  0  0
    3.0299    2.2745    0.5016 H   0  0  0  0  0  0  0  0  0  0  0  0
    3.5590   -1.3640   -1.7407 H   0  0  0  0  0  0  0  0  0  0  0  0
   -5.5501   -0.0711   -2.0150 H   0  0  0  0  0  0  0  0  0  0  0  0
   -5.2825    0.5780    2.2461 H   0  0  0  0  0  0  0  0  0  0  0  0
    5.4010   -1.7869   -0.1303 H   0  0  0  0  0  0  0  0  0  0  0  0
    6.1589   -1.7528    1.4318 H   0  0  0  0  0  0  0  0  0  0  0  0
    4.6837    0.0535    2.1821 H   0  0  0  0  0  0  0  0  0  0  0  0
    5.2614    1.6832    1.7946 H   0  0  0  0  0  0  0  0  0  0  0  0
   -6.2530    2.2685   -2.3162 H   0  0  0  0  0  0  0  0  0  0  0  0
   -5.9852    2.9141    1.9235 H   0  0  0  0  0  0  0  0  0  0  0  0
    7.7134   -2.6736   -0.2286 H   0  0  0  0  0  0  0  0  0  0  0  0
    8.3505   -1.1274    0.3580 H   0  0  0  0  0  0  0  0  0  0  0  0
    7.5905   -1.2237   -1.2335 H   0  0  0  0  0  0  0  0  0  0  0  0
    6.4316    0.9379    3.7708 H   0  0  0  0  0  0  0  0  0  0  0  0
    7.5926    1.0131    2.4352 H   0  0  0  0  0  0  0  0  0  0  0  0
    6.9807   -0.5469    2.9981 H   0  0  0  0  0  0  0  0  0  0  0  0
   -6.4729    3.7696   -0.3534 H   0  0  0  0  0  0  0  0  0  0  0  0
  1  3  2  0  0  0  0
  1  4  2  0  0  0  0
  1  7  1  0  0  0  0
  1 16  1  0  0  0  0
  2  5  2  0  0  0  0
  2  6  2  0  0  0  0
  2 10  1  0  0  0  0
  2 18  1  0  0  0  0
  7 11  1  0  0  0  0
  7 12  1  0  0  0  0
  8 13  1  0  0  0  0
  8 14  1  0  0  0  0
  8 15  1  0  0  0  0
  9 15  2  0  0  0  0
  9 20  1  0  0  0  0
 10 23  1  0  0  0  0
 10 24  1  0  0  0  0
 11 13  1  0  0  0  0
 11 30  1  0  0  0  0
 11 31  1  0  0  0  0
 12 14  1  0  0  0  0
 12 32  1  0  0  0  0
 12 33  1  0  0  0  0
 13 34  1  0  0  0  0
 13 35  1  0  0  0  0
 14 36  1  0  0  0  0
 14 37  1  0  0  0  0
 15 17  1  0  0  0  0
 16 21  2  0  0  0  0
 16 22  1  0  0  0  0
 17 19  2  0  0  0  0
 17 38  1  0  0  0  0
 18 19  1  0  0  0  0
 18 20  2  0  0  0  0
 19 39  1  0  0  0  0
 20 40  1  0  0  0  0
 21 25  1  0  0  0  0
 21 41  1  0  0  0  0
 22 26  2  0  0  0  0
 22 42  1  0  0  0  0
 23 27  1  0  0  0  0
 23 43  1  0  0  0  0
 23 44  1  0  0  0  0
 24 28  1  0  0  0  0
 24 45  1  0  0  0  0
 24 46  1  0  0  0  0
 25 29  2  0  0  0  0
 25 47  1  0  0  0  0
 26 29  1  0  0  0  0
 26 48  1  0  0  0  0
 27 49  1  0  0  0  0
 27 50  1  0  0  0  0
 27 51  1  0  0  0  0
 28 52  1  0  0  0  0
 28 53  1  0  0  0  0
 28 54  1  0  0  0  0
 29 55  1  0  0  0  0
M  END
> <PUBCHEM_COMPOUND_CID>
4838799

> <PUBCHEM_CONFORMER_RMSD>
1

> <PUBCHEM_CONFORMER_DIVERSEORDER>
1
85
18
52
69
61
93
75
94
21
62
101
25
44
35
104
15
71
26
89
103
42
60
41
10
95
79
28
68
9
50
102
83
2
43
80
24
90
23
8
76
13
4
72
57
88
45
14
31
81
48
3
37
87
70
92
64
36
63
96
97
6
84
40
91
27
99
5
49
74
46
54
22
30
11
73
86
82
67
19
51
16
58
7
39
100
33
34
29
98
38
32
78
56
12
66
65
17
59
77
55
20
53
47

> <PUBCHEM_MMFF94_PARTIAL_CHARGES>
35
1 1.45
10 -0.85
11 0.36
12 0.36
13 0.37
14 0.37
15 0.41
16 -0.01
17 -0.15
18 -0.01
19 -0.15
2 1.45
20 0.16
21 -0.15
22 -0.15
23 0.36
24 0.36
25 -0.15
26 -0.15
29 -0.15
3 -0.65
38 0.15
39 0.15
4 -0.65
40 0.15
41 0.15
42 0.15
47 0.15
48 0.15
5 -0.65
55 0.15
6 -0.65
7 -0.85
8 -0.84
9 -0.62

> <PUBCHEM_EFFECTIVE_ROTOR_COUNT>
8.2

> <PUBCHEM_PHARMACOPHORE_FEATURES>
8
1 3 acceptor
1 4 acceptor
1 5 acceptor
1 6 acceptor
3 8 9 15 cation
6 16 21 22 25 26 29 rings
6 7 8 11 12 13 14 rings
6 9 15 17 18 19 20 rings

> <PUBCHEM_HEAVY_ATOM_COUNT>
29

> <PUBCHEM_ATOM_DEF_STEREO_COUNT>
0

> <PUBCHEM_ATOM_UDEF_STEREO_COUNT>
0

> <PUBCHEM_BOND_DEF_STEREO_COUNT>
0

> <PUBCHEM_BOND_UDEF_STEREO_COUNT>
0

> <PUBCHEM_ISOTOPIC_ATOM_COUNT>
0

> <PUBCHEM_COMPONENT_COUNT>
1

> <PUBCHEM_CACTVS_TAUTO_COUNT>
1

> <PUBCHEM_CONFORMER_ID>
0049D58F00000001

> <PUBCHEM_MMFF94_ENERGY>
60.2498

> <PUBCHEM_FEATURE_SELFOVERLAP>
40.634

> <PUBCHEM_SHAPE_FINGERPRINT>
10533779 1 18047461233228788341
10554248 39 18413388731145902348
11089746 13 17275100622055078712
11719270 70 18202566168344873662
11724838 91 13110957618529004398
11761917 116 9654703310602915105
11796584 16 17531252790239343786
13167372 99 18408045113045756620
13553643 44 12541264281978934416
13782708 43 17968098693349194154
13914758 101 18410011005460475466
14251752 14 18410294700650324645
14347424 109 18186794786947137688
14856354 85 17240770601199127279
14955137 171 13840268073961424974
15021287 119 16950288407874097893
15183329 4 17167578293522419042
15352257 5 13262398838910418744
1577012 14 17968100841127864340
15799311 1 16515402962732631850
17780758 139 12540697012363377109
17844677 252 18263934391988842717
18335252 98 12035738591666466680
18927931 339 8214141855288073849
20105231 36 13334743392740615248
20281389 69 18272370897026349137
20511986 3 17703497853244858494
21033648 29 18201720665282419769
21130935 74 18040999566083160594
21150785 3 12463562993860410776
21859007 373 18130782318099826192
220451 1 16153429458887921738
2303208 19 12685089284988682240
23081809 10 17749391502747240670
23522609 53 17023487286006900028
23559900 14 15984814969638190235
23569943 247 15720211934410045560
24771293 8 13038898946228199314
2838139 119 18341611495441212125
32027 91 17415582929382583511
34797466 226 14189305910628067584
3663271 9 17603868948377792104
4144715 1 17968670443663704857
4938544 92 12829480417078316863
5104073 3 17676486198234798408
531348 171 18411699902919242767
59755656 520 17022906752868662731
6086070 43 18339348734912776297
7226269 152 18259705575784903977
999808 66 13045942374100881521

> <PUBCHEM_SHAPE_MULTIPOLES>
561.1
22.52
2.29
1.81
10.61
0.44
0.65
4.88
3.02
-3.22
-0.11
1.67
0.2
0.75

> <PUBCHEM_SHAPE_SELFOVERLAP>
1144.37

> <PUBCHEM_SHAPE_VOLUME>
325.5

> <PUBCHEM_COORDINATE_TYPE>
2
5
10

$$$$
