4072144
  -OEChem-01171812133D

 52 55  0     1  0  0  0  0  0999 V2000
   -1.1614    0.4089   -2.5740 O   0  0  0  0  0  0  0  0  0  0  0  0
   -2.0004   -0.3511   -0.5504 N   0  0  0  0  0  0  0  0  0  0  0  0
    2.6213    1.2364    0.5217 N   0  0  0  0  0  0  0  0  0  0  0  0
    5.6348   -2.6986    0.2441 N   0  0  0  0  0  0  0  0  0  0  0  0
   -3.8278   -2.0273   -0.2773 C   0  0  1  0  0  0  0  0  0  0  0  0
   -4.2493   -1.6306    1.1616 C   0  0  1  0  0  0  0  0  0  0  0  0
   -3.2756   -0.8104   -1.0595 C   0  0  1  0  0  0  0  0  0  0  0  0
   -5.2512   -0.4633    1.1272 C   0  0  0  0  0  0  0  0  0  0  0  0
   -4.2914    0.3380   -1.0655 C   0  0  0  0  0  0  0  0  0  0  0  0
   -4.7220    0.7334    0.3443 C   0  0  0  0  0  0  0  0  0  0  0  0
   -2.8458   -3.2049   -0.3045 C   0  0  0  0  0  0  0  0  0  0  0  0
   -4.8626   -2.7993    1.9390 C   0  0  0  0  0  0  0  0  0  0  0  0
   -1.0405    0.2272   -1.3654 C   0  0  0  0  0  0  0  0  0  0  0  0
    0.2255    0.6211   -0.6952 C   0  0  0  0  0  0  0  0  0  0  0  0
    0.3961    1.8819   -0.1410 C   0  0  0  0  0  0  0  0  0  0  0  0
    1.2155   -0.3334   -0.6566 C   0  0  0  0  0  0  0  0  0  0  0  0
    1.6374    2.1541    0.4714 C   0  0  0  0  0  0  0  0  0  0  0  0
    2.3952    0.0250   -0.0363 C   0  0  0  0  0  0  0  0  0  0  0  0
   -0.6089    2.8635   -0.1750 C   0  0  0  0  0  0  0  0  0  0  0  0
    1.8282    3.4135    1.0332 C   0  0  0  0  0  0  0  0  0  0  0  0
    3.4978   -0.9022    0.0591 C   0  0  0  0  0  0  0  0  0  0  0  0
   -0.3911    4.1145    0.3948 C   0  0  0  0  0  0  0  0  0  0  0  0
    0.8291    4.3895    0.9995 C   0  0  0  0  0  0  0  0  0  0  0  0
    4.4621   -0.9496   -0.9434 C   0  0  0  0  0  0  0  0  0  0  0  0
    3.6038   -1.7545    1.1543 C   0  0  0  0  0  0  0  0  0  0  0  0
    5.5004   -1.8564   -0.8050 C   0  0  0  0  0  0  0  0  0  0  0  0
    4.6805   -2.6255    1.1988 C   0  0  0  0  0  0  0  0  0  0  0  0
   -4.7315   -2.3627   -0.8070 H   0  0  0  0  0  0  0  0  0  0  0  0
   -3.3631   -1.3023    1.7199 H   0  0  0  0  0  0  0  0  0  0  0  0
   -3.1192   -1.1173   -2.1019 H   0  0  0  0  0  0  0  0  0  0  0  0
   -5.4878   -0.1442    2.1495 H   0  0  0  0  0  0  0  0  0  0  0  0
   -6.1940   -0.7985    0.6757 H   0  0  0  0  0  0  0  0  0  0  0  0
   -5.1778    0.0300   -1.6346 H   0  0  0  0  0  0  0  0  0  0  0  0
   -3.8782    1.2157   -1.5768 H   0  0  0  0  0  0  0  0  0  0  0  0
   -5.4981    1.5051    0.2865 H   0  0  0  0  0  0  0  0  0  0  0  0
   -3.8753    1.1777    0.8816 H   0  0  0  0  0  0  0  0  0  0  0  0
   -1.9727   -3.0144    0.3281 H   0  0  0  0  0  0  0  0  0  0  0  0
   -3.3224   -4.1267    0.0431 H   0  0  0  0  0  0  0  0  0  0  0  0
   -2.4926   -3.3913   -1.3245 H   0  0  0  0  0  0  0  0  0  0  0  0
   -5.2256   -2.4668    2.9176 H   0  0  0  0  0  0  0  0  0  0  0  0
   -5.7072   -3.2373    1.3966 H   0  0  0  0  0  0  0  0  0  0  0  0
   -4.1257   -3.5872    2.1216 H   0  0  0  0  0  0  0  0  0  0  0  0
   -1.8177   -0.4200    0.4464 H   0  0  0  0  0  0  0  0  0  0  0  0
    1.0769   -1.3180   -1.0914 H   0  0  0  0  0  0  0  0  0  0  0  0
   -1.5732    2.6776   -0.6415 H   0  0  0  0  0  0  0  0  0  0  0  0
    2.7752    3.6538    1.5131 H   0  0  0  0  0  0  0  0  0  0  0  0
   -1.1698    4.8706    0.3668 H   0  0  0  0  0  0  0  0  0  0  0  0
    1.0078    5.3631    1.4467 H   0  0  0  0  0  0  0  0  0  0  0  0
    4.4159   -0.3017   -1.8130 H   0  0  0  0  0  0  0  0  0  0  0  0
    2.8733   -1.7484    1.9571 H   0  0  0  0  0  0  0  0  0  0  0  0
    6.2767   -1.9313   -1.5593 H   0  0  0  0  0  0  0  0  0  0  0  0
    4.8074   -3.3095    2.0314 H   0  0  0  0  0  0  0  0  0  0  0  0
  1 13  2  0  0  0  0
  2  7  1  0  0  0  0
  2 13  1  0  0  0  0
  2 43  1  0  0  0  0
  3 17  1  0  0  0  0
  3 18  2  0  0  0  0
  4 26  2  0  0  0  0
  4 27  1  0  0  0  0
  5  6  1  0  0  0  0
  5  7  1  0  0  0  0
  5 11  1  0  0  0  0
  5 28  1  0  0  0  0
  6  8  1  0  0  0  0
  6 12  1  0  0  0  0
  6 29  1  0  0  0  0
  7  9  1  0  0  0  0
  7 30  1  0  0  0  0
  8 10  1  0  0  0  0
  8 31  1  0  0  0  0
  8 32  1  0  0  0  0
  9 10  1  0  0  0  0
  9 33  1  0  0  0  0
  9 34  1  0  0  0  0
 10 35  1  0  0  0  0
 10 36  1  0  0  0  0
 11 37  1  0  0  0  0
 11 38  1  0  0  0  0
 11 39  1  0  0  0  0
 12 40  1  0  0  0  0
 12 41  1  0  0  0  0
 12 42  1  0  0  0  0
 13 14  1  0  0  0  0
 14 15  1  0  0  0  0
 14 16  2  0  0  0  0
 15 17  1  0  0  0  0
 15 19  2  0  0  0  0
 16 18  1  0  0  0  0
 16 44  1  0  0  0  0
 17 20  2  0  0  0  0
 18 21  1  0  0  0  0
 19 22  1  0  0  0  0
 19 45  1  0  0  0  0
 20 23  1  0  0  0  0
 20 46  1  0  0  0  0
 21 24  2  0  0  0  0
 21 25  1  0  0  0  0
 22 23  2  0  0  0  0
 22 47  1  0  0  0  0
 23 48  1  0  0  0  0
 24 26  1  0  0  0  0
 24 49  1  0  0  0  0
 25 27  2  0  0  0  0
 25 50  1  0  0  0  0
 26 51  1  0  0  0  0
 27 52  1  0  0  0  0
M  END
> <PUBCHEM_COMPOUND_CID>
4072144

> <PUBCHEM_CONFORMER_RMSD>
0.8

> <PUBCHEM_CONFORMER_DIVERSEORDER>
3
20
13
67
48
63
58
19
53
62
2
69
60
25
34
21
9
54
61
36
43
22
56
64
51
17
28
7
14
11
41
46
55
1
47
38
49
39
59
57
37
35
40
29
16
68
5
4
18
27
52
12
10
45
66
32
44
42
31
33
26
8
23
65
24
30
50
6
15

> <PUBCHEM_MMFF94_PARTIAL_CHARGES>
28
1 -0.57
13 0.54
14 0.09
16 -0.15
17 0.31
18 0.31
19 -0.15
2 -0.73
20 -0.15
22 -0.15
23 -0.15
24 -0.15
25 -0.15
26 0.16
27 0.16
3 -0.62
4 -0.62
43 0.37
44 0.15
45 0.15
46 0.15
47 0.15
48 0.15
49 0.15
50 0.15
51 0.15
52 0.15
7 0.3

> <PUBCHEM_EFFECTIVE_ROTOR_COUNT>
5.2

> <PUBCHEM_PHARMACOPHORE_FEATURES>
8
1 1 acceptor
1 2 donor
1 3 acceptor
1 4 acceptor
6 15 17 19 20 22 23 rings
6 3 14 15 16 17 18 rings
6 4 21 24 25 26 27 rings
6 5 6 7 8 9 10 rings

> <PUBCHEM_HEAVY_ATOM_COUNT>
27

> <PUBCHEM_ATOM_DEF_STEREO_COUNT>
0

> <PUBCHEM_ATOM_UDEF_STEREO_COUNT>
3

> <PUBCHEM_BOND_DEF_STEREO_COUNT>
0

> <PUBCHEM_BOND_UDEF_STEREO_COUNT>
0

> <PUBCHEM_ISOTOPIC_ATOM_COUNT>
0

> <PUBCHEM_COMPONENT_COUNT>
1

> <PUBCHEM_CACTVS_TAUTO_COUNT>
2

> <PUBCHEM_CONFORMER_ID>
003E22D000000003

> <PUBCHEM_MMFF94_ENERGY>
78.4651

> <PUBCHEM_FEATURE_SELFOVERLAP>
40.629

> <PUBCHEM_SHAPE_FINGERPRINT>
10074138 170 17909539567563810832
10622 236 17557398162835408735
10794284 68 17768575721974628544
10928967 22 17895182333617591771
11370993 144 18337672027088464853
11456790 92 18270413715897200713
11796584 16 17676756583458374482
12107183 9 18271255958540561323
12422481 6 17346039961275566844
12553582 1 18341321206943404558
12633046 712 18335136527214814685
12633257 1 18272096006667260527
12760667 363 18338509721177454150
12788726 201 18265339413188340642
13103583 49 18270696293841716251
13533116 47 18120938562864770979
13583140 156 18196365051744721389
14251757 5 18191020110403998941
14251764 30 18041005046134206747
14420673 8 18334582291724455003
14444916 359 17909818071341609152
14790565 3 17835797878295336752
14866123 147 18051689936860451091
14950920 106 18126028150655342923
15042514 8 18054508002669896732
15475509 84 17988652886652280865
15842332 3 17272278330531116485
17492 89 18196933499198577159
17686467 74 18265322930085177018
1813 80 18059860549838148156
19611394 137 18269534085014524978
20739085 24 18130793394894049692
20832881 197 18335419041341566843
21033648 29 16630255697192007195
21365058 27 17470459889858971484
21796203 349 18268450060364078010
22393880 68 8069765012723880897
22950370 63 18409735049485221582
23559900 14 18340474686422354607
24941158 1 17904503022386756761
2747138 104 18340475704931166570
2838139 119 11095876043300595114
3117164 225 18341338872591889825
314173 85 18201151066630012094
3421961 26 18340484573057443784
3552219 110 18262537913717212924
3737641 26 18335985375740020036
4409770 3 18047466734553594317
463206 1 18334011705155898274
5104073 3 18199482120254957195
513202 73 17843126896567263238
5372103 7 13038345775951903507
5486654 36 18408327666080039251
621550 5 18114179748080501965
6371380 46 18263637386700871317
6442390 28 17112975721321746084
6703917 75 17183081664956704301
7097593 13 18125438859276623589
79837 15 17334498203325527776
86090 222 17314790926324315075
8863177 126 18188780564448949275

> <PUBCHEM_SHAPE_MULTIPOLES>
534.83
11.75
4.96
1.52
0.03
4.46
0.19
-13.68
-2.65
-2.12
-2.21
0.9
-0.4
1.08

> <PUBCHEM_SHAPE_SELFOVERLAP>
1165.936

> <PUBCHEM_SHAPE_VOLUME>
288.3

> <PUBCHEM_COORDINATE_TYPE>
2
5
10

$$$$
