935160
  -OEChem-01171812073D

 42 44  0     0  0  0  0  0  0999 V2000
   -3.7957    1.9253   -0.2712 O   0  0  0  0  0  0  0  0  0  0  0  0
    4.2415    1.8603   -0.0498 O   0  0  0  0  0  0  0  0  0  0  0  0
   -2.2154    0.1946   -0.1594 N   0  0  0  0  0  0  0  0  0  0  0  0
    2.6159    0.1619   -0.0264 N   0  0  0  0  0  0  0  0  0  0  0  0
    5.7360   -2.5508   -0.4853 N   0  0  0  0  0  0  0  0  0  0  0  0
   -4.5934   -0.2578   -0.1790 C   0  0  0  0  0  0  0  0  0  0  0  0
   -0.9832    0.8936   -0.1532 C   0  0  0  0  0  0  0  0  0  0  0  0
   -5.1524   -0.6700    1.0306 C   0  0  0  0  0  0  0  0  0  0  0  0
    1.4132    0.8666   -0.0866 C   0  0  0  0  0  0  0  0  0  0  0  0
    0.2001    0.1780   -0.0926 C   0  0  0  0  0  0  0  0  0  0  0  0
   -3.5132    0.7186   -0.2158 C   0  0  0  0  0  0  0  0  0  0  0  0
   -0.9908    2.2769   -0.2081 C   0  0  0  0  0  0  0  0  0  0  0  0
   -5.0687   -0.7814   -1.3813 C   0  0  0  0  0  0  0  0  0  0  0  0
    1.4242    2.2604   -0.1414 C   0  0  0  0  0  0  0  0  0  0  0  0
   -6.1868   -1.6057    1.0379 C   0  0  0  0  0  0  0  0  0  0  0  0
    0.2222    2.9656   -0.2022 C   0  0  0  0  0  0  0  0  0  0  0  0
   -4.6622   -0.1253    2.3328 C   0  0  0  0  0  0  0  0  0  0  0  0
   -6.1031   -1.7172   -1.3740 C   0  0  0  0  0  0  0  0  0  0  0  0
   -6.6622   -2.1294   -0.1644 C   0  0  0  0  0  0  0  0  0  0  0  0
    3.9183    0.6779   -0.0117 C   0  0  0  0  0  0  0  0  0  0  0  0
    5.0049   -0.3356    0.0287 C   0  0  0  0  0  0  0  0  0  0  0  0
    6.2180   -0.0146    0.5866 C   0  0  0  0  0  0  0  0  0  0  0  0
    4.7913   -1.5837   -0.4901 C   0  0  0  0  0  0  0  0  0  0  0  0
    7.2152   -0.9834    0.6100 C   0  0  0  0  0  0  0  0  0  0  0  0
    6.9264   -2.2246    0.0661 C   0  0  0  0  0  0  0  0  0  0  0  0
    0.1872   -0.9086   -0.0504 H   0  0  0  0  0  0  0  0  0  0  0  0
   -2.1337   -0.8193   -0.1125 H   0  0  0  0  0  0  0  0  0  0  0  0
   -1.8756    2.8933   -0.2564 H   0  0  0  0  0  0  0  0  0  0  0  0
   -4.6416   -0.4680   -2.3306 H   0  0  0  0  0  0  0  0  0  0  0  0
    2.3199    2.8651   -0.1408 H   0  0  0  0  0  0  0  0  0  0  0  0
   -6.6336   -1.9382    1.9712 H   0  0  0  0  0  0  0  0  0  0  0  0
    0.2309    4.0511   -0.2448 H   0  0  0  0  0  0  0  0  0  0  0  0
    2.4985   -0.8446    0.0499 H   0  0  0  0  0  0  0  0  0  0  0  0
   -4.7639    0.9646    2.3574 H   0  0  0  0  0  0  0  0  0  0  0  0
   -5.2322   -0.5219    3.1803 H   0  0  0  0  0  0  0  0  0  0  0  0
   -3.6130   -0.3953    2.4909 H   0  0  0  0  0  0  0  0  0  0  0  0
   -6.4733   -2.1250   -2.3101 H   0  0  0  0  0  0  0  0  0  0  0  0
   -7.4675   -2.8581   -0.1589 H   0  0  0  0  0  0  0  0  0  0  0  0
    6.4179    0.9642    1.0114 H   0  0  0  0  0  0  0  0  0  0  0  0
    3.8726   -1.8891   -0.9771 H   0  0  0  0  0  0  0  0  0  0  0  0
    8.1873   -0.7741    1.0416 H   0  0  0  0  0  0  0  0  0  0  0  0
    7.6699   -3.0148    0.0601 H   0  0  0  0  0  0  0  0  0  0  0  0
  1 11  2  0  0  0  0
  2 20  2  0  0  0  0
  3  7  1  0  0  0  0
  3 11  1  0  0  0  0
  3 27  1  0  0  0  0
  4  9  1  0  0  0  0
  4 20  1  0  0  0  0
  4 33  1  0  0  0  0
  5 23  1  0  0  0  0
  5 25  2  0  0  0  0
  6  8  1  0  0  0  0
  6 11  1  0  0  0  0
  6 13  2  0  0  0  0
  7 10  1  0  0  0  0
  7 12  2  0  0  0  0
  8 15  2  0  0  0  0
  8 17  1  0  0  0  0
  9 10  2  0  0  0  0
  9 14  1  0  0  0  0
 10 26  1  0  0  0  0
 12 16  1  0  0  0  0
 12 28  1  0  0  0  0
 13 18  1  0  0  0  0
 13 29  1  0  0  0  0
 14 16  2  0  0  0  0
 14 30  1  0  0  0  0
 15 19  1  0  0  0  0
 15 31  1  0  0  0  0
 16 32  1  0  0  0  0
 17 34  1  0  0  0  0
 17 35  1  0  0  0  0
 17 36  1  0  0  0  0
 18 19  2  0  0  0  0
 18 37  1  0  0  0  0
 19 38  1  0  0  0  0
 20 21  1  0  0  0  0
 21 22  1  0  0  0  0
 21 23  2  0  0  0  0
 22 24  2  0  0  0  0
 22 39  1  0  0  0  0
 23 40  1  0  0  0  0
 24 25  1  0  0  0  0
 24 41  1  0  0  0  0
 25 42  1  0  0  0  0
M  END
> <PUBCHEM_COMPOUND_CID>
935160

> <PUBCHEM_CONFORMER_RMSD>
0.8

> <PUBCHEM_CONFORMER_DIVERSEORDER>
2
21
59
54
40
3
45
56
47
49
22
14
7
51
34
33
23
50
1
11
58
60
38
4
41
61
52
6
39
57
28
16
25
48
42
44
9
53
29
27
55
46
30
24
32
13
36
43
15
26
17
20
12
35
37
5
31
19
10
18
8

> <PUBCHEM_MMFF94_PARTIAL_CHARGES>
39
1 -0.57
10 -0.15
11 0.54
12 -0.15
13 -0.15
14 -0.15
15 -0.15
16 -0.15
17 0.14
18 -0.15
19 -0.15
2 -0.57
20 0.54
21 0.09
22 -0.15
23 0.16
24 -0.15
25 0.16
26 0.15
27 0.37
28 0.15
29 0.15
3 -0.55
30 0.15
31 0.15
32 0.15
33 0.37
37 0.15
38 0.15
39 0.15
4 -0.55
40 0.15
41 0.15
42 0.15
5 -0.62
6 0.09
7 0.12
8 -0.14
9 0.12

> <PUBCHEM_EFFECTIVE_ROTOR_COUNT>
6

> <PUBCHEM_PHARMACOPHORE_FEATURES>
8
1 1 acceptor
1 2 acceptor
1 3 donor
1 4 donor
1 5 acceptor
6 5 21 22 23 24 25 rings
6 6 8 13 15 18 19 rings
6 7 9 10 12 14 16 rings

> <PUBCHEM_HEAVY_ATOM_COUNT>
25

> <PUBCHEM_ATOM_DEF_STEREO_COUNT>
0

> <PUBCHEM_ATOM_UDEF_STEREO_COUNT>
0

> <PUBCHEM_BOND_DEF_STEREO_COUNT>
0

> <PUBCHEM_BOND_UDEF_STEREO_COUNT>
0

> <PUBCHEM_ISOTOPIC_ATOM_COUNT>
0

> <PUBCHEM_COMPONENT_COUNT>
1

> <PUBCHEM_CACTVS_TAUTO_COUNT>
4

> <PUBCHEM_CONFORMER_ID>
000E44F800000002

> <PUBCHEM_MMFF94_ENERGY>
89.6945

> <PUBCHEM_FEATURE_SELFOVERLAP>
40.597

> <PUBCHEM_SHAPE_FINGERPRINT>
10 15 12103847873703216559
10066227 112 9223232948713327718
11963148 33 18337666417756792318
12342043 65 17315656238165093297
12596602 18 17489870440201112986
12623949 98 18059583438965045910
12760667 363 18408605850916654753
13533116 47 18342458183839993888
13540713 4 18265593481710632572
13668630 136 18040995176621133507
13685833 64 18410573989894863346
13782708 43 18259701190374842302
13862211 1 18410291419416597214
13911852 28 18412544288576905932
14123256 34 18409170995809497110
14211702 104 18341619178921193150
14251764 18 17988924504884047014
14251764 30 18413668011009182634
14849402 71 17058924653360957744
15183329 4 18412263960620831038
15510800 12 18113907099741723467
15519825 34 15410316876092695775
15716309 27 18343865532779332035
17492 89 18195525888429328854
1768 124 18059856173277562270
17780758 139 17632860811466411771
190975 80 18272364300499765218
20028762 73 18343582949596350366
2026 5 18259700099564991299
20281389 69 11167942458942320965
20398071 356 18411704270331114703
20567600 247 18413666915756066442
20691028 202 9367343738727114607
21033650 10 16153697679796238357
21130935 74 18343865540984352955
21197605 99 18343581850649147054
21267235 1 18411422796023953188
21365058 113 17313387867840345429
21585482 111 10015046260626810347
21623969 137 18130790032098310966
21682296 61 18409451384138226971
22288116 15 13118295797228526665
229767 44 17846212297661373815
229767 8 17912374122037620686
23081809 10 18411428327251292661
23522609 53 18124910994506011105
23559900 14 17605274180658499657
25025965 108 18268127804272751106
3004659 81 17894909637985660072
314194 84 18411985801115837861
328310 630 8430313562980006191
3383291 50 18261110798341586979
34797466 226 16371292263293238949
3504750 166 17988644060815480117
3627633 1 18337389323150968364
3663271 9 17632298986219584682
4340502 62 15339123446580719268
44880568 143 17095234826276842533
465052 167 18343585136145264252
4938544 92 17560528292224698137
543368 44 8358263644654966303
5718773 13 18410289224530384655
59682541 35 18343007910285066762
636775 8 18269564849960704990
6431902 208 18409166593394315095
6608658 132 13912592832509095631
7970288 3 18411697703336798559
999808 66 18259991491799938515

> <PUBCHEM_SHAPE_MULTIPOLES>
487.81
21.37
2.77
1.14
9.78
0.66
0.41
-18.92
1.71
1.14
-0.43
-2.2
-0.35
-0.07

> <PUBCHEM_SHAPE_SELFOVERLAP>
1064.781

> <PUBCHEM_SHAPE_VOLUME>
263.4

> <PUBCHEM_COORDINATE_TYPE>
2
5
10

$$$$
