3227599
  -OEChem-01171812083D

 65 68  0     1  0  0  0  0  0999 V2000
    2.2794   -2.7371    1.0185 O   0  0  0  0  0  0  0  0  0  0  0  0
    5.1931    0.2188   -2.6839 O   0  0  0  0  0  0  0  0  0  0  0  0
   -0.3127    0.9697    1.1987 O   0  0  0  0  0  0  0  0  0  0  0  0
    3.1266    0.5256    0.7067 N   0  0  0  0  0  0  0  0  0  0  0  0
    0.8777   -1.1901   -0.0681 N   0  0  0  0  0  0  0  0  0  0  0  0
    4.1414    1.6179   -1.2045 N   0  0  0  0  0  0  0  0  0  0  0  0
   -0.8558    1.8552   -0.8804 N   0  0  0  0  0  0  0  0  0  0  0  0
    3.3198   -0.8218    0.1358 C   0  0  2  0  0  0  0  0  0  0  0  0
    3.4250   -0.7191   -1.3897 C   0  0  0  0  0  0  0  0  0  0  0  0
    2.1089   -1.6732    0.4178 C   0  0  0  0  0  0  0  0  0  0  0  0
    4.5693   -1.4688    0.7410 C   0  0  0  0  0  0  0  0  0  0  0  0
    3.5642    1.6454   -0.0319 C   0  0  0  0  0  0  0  0  0  0  0  0
    4.3539    0.3988   -1.8041 C   0  0  0  0  0  0  0  0  0  0  0  0
    2.6211    0.7314    1.9906 C   0  0  0  0  0  0  0  0  0  0  0  0
   -0.3319   -1.9832    0.0203 C   0  0  0  0  0  0  0  0  0  0  0  0
    0.7715    0.0954   -0.7753 C   0  0  0  0  0  0  0  0  0  0  0  0
    3.3775    3.0230    0.5515 C   0  0  0  0  0  0  0  0  0  0  0  0
    2.4684    1.9455    2.5378 C   0  0  0  0  0  0  0  0  0  0  0  0
   -0.6502   -2.8244   -1.0118 C   0  0  0  0  0  0  0  0  0  0  0  0
    2.8459    3.1159    1.7790 C   0  0  0  0  0  0  0  0  0  0  0  0
   -1.0953   -1.8402    1.1493 C   0  0  0  0  0  0  0  0  0  0  0  0
   -0.1656    1.0136   -0.0201 C   0  0  0  0  0  0  0  0  0  0  0  0
   -2.2638   -2.5951    1.2524 C   0  0  0  0  0  0  0  0  0  0  0  0
   -1.8187   -3.5792   -0.9087 C   0  0  0  0  0  0  0  0  0  0  0  0
    0.1949   -2.9682   -2.2356 C   0  0  0  0  0  0  0  0  0  0  0  0
   -2.6254   -3.4646    0.2232 C   0  0  0  0  0  0  0  0  0  0  0  0
   -1.8525    2.8019   -0.4335 C   0  0  0  0  0  0  0  0  0  0  0  0
   -3.1264   -2.4729    2.4627 C   0  0  0  0  0  0  0  0  0  0  0  0
   -3.2285    2.2016   -0.4140 C   0  0  0  0  0  0  0  0  0  0  0  0
   -3.6870    1.5692    0.7357 C   0  0  0  0  0  0  0  0  0  0  0  0
   -4.0304    2.2846   -1.5463 C   0  0  0  0  0  0  0  0  0  0  0  0
   -5.7763    1.0905   -0.3786 C   0  0  0  0  0  0  0  0  0  0  0  0
   -4.9654    1.0116    0.7535 C   0  0  0  0  0  0  0  0  0  0  0  0
   -5.3090    1.7270   -1.5285 C   0  0  0  0  0  0  0  0  0  0  0  0
   -7.1436    0.4953   -0.3592 C   0  0  0  0  0  0  0  0  0  0  0  0
    3.8968   -1.6500   -1.7428 H   0  0  0  0  0  0  0  0  0  0  0  0
    2.5358   -0.6739   -2.0161 H   0  0  0  0  0  0  0  0  0  0  0  0
    5.4603   -0.8571    0.5582 H   0  0  0  0  0  0  0  0  0  0  0  0
    4.4811   -1.5844    1.8279 H   0  0  0  0  0  0  0  0  0  0  0  0
    4.7584   -2.4632    0.3201 H   0  0  0  0  0  0  0  0  0  0  0  0
    2.3601   -0.1659    2.5389 H   0  0  0  0  0  0  0  0  0  0  0  0
    1.6333    0.6991   -0.9840 H   0  0  0  0  0  0  0  0  0  0  0  0
    0.3258   -0.1221   -1.7542 H   0  0  0  0  0  0  0  0  0  0  0  0
    3.6749    3.8917   -0.0224 H   0  0  0  0  0  0  0  0  0  0  0  0
    2.0743    2.0730    3.5386 H   0  0  0  0  0  0  0  0  0  0  0  0
    2.6936    4.0853    2.2409 H   0  0  0  0  0  0  0  0  0  0  0  0
   -0.7939   -1.2075    1.9766 H   0  0  0  0  0  0  0  0  0  0  0  0
   -2.1158   -4.2600   -1.7021 H   0  0  0  0  0  0  0  0  0  0  0  0
   -0.0881   -3.8554   -2.8134 H   0  0  0  0  0  0  0  0  0  0  0  0
    1.2514   -3.0926   -1.9788 H   0  0  0  0  0  0  0  0  0  0  0  0
    0.0777   -2.0996   -2.8901 H   0  0  0  0  0  0  0  0  0  0  0  0
   -3.5327   -4.0587    0.2926 H   0  0  0  0  0  0  0  0  0  0  0  0
   -0.6720    1.8076   -1.8784 H   0  0  0  0  0  0  0  0  0  0  0  0
   -1.5820    3.1705    0.5632 H   0  0  0  0  0  0  0  0  0  0  0  0
   -1.8162    3.6628   -1.1107 H   0  0  0  0  0  0  0  0  0  0  0  0
   -2.8199   -3.2029    3.2182 H   0  0  0  0  0  0  0  0  0  0  0  0
   -4.1798   -2.6434    2.2154 H   0  0  0  0  0  0  0  0  0  0  0  0
   -3.0588   -1.4691    2.8960 H   0  0  0  0  0  0  0  0  0  0  0  0
   -3.0664    1.5023    1.6247 H   0  0  0  0  0  0  0  0  0  0  0  0
   -3.6758    2.7767   -2.4476 H   0  0  0  0  0  0  0  0  0  0  0  0
   -5.3185    0.5191    1.6557 H   0  0  0  0  0  0  0  0  0  0  0  0
   -5.9319    1.7963   -2.4164 H   0  0  0  0  0  0  0  0  0  0  0  0
   -7.8697    1.2334   -0.0045 H   0  0  0  0  0  0  0  0  0  0  0  0
   -7.1832   -0.3804    0.2975 H   0  0  0  0  0  0  0  0  0  0  0  0
   -7.4434    0.1600   -1.3579 H   0  0  0  0  0  0  0  0  0  0  0  0
  1 10  2  0  0  0  0
  2 13  2  0  0  0  0
  3 22  2  0  0  0  0
  4  8  1  0  0  0  0
  4 12  1  0  0  0  0
  4 14  1  0  0  0  0
  5 10  1  0  0  0  0
  5 15  1  0  0  0  0
  5 16  1  0  0  0  0
  6 12  2  0  0  0  0
  6 13  1  0  0  0  0
  7 22  1  0  0  0  0
  7 27  1  0  0  0  0
  7 53  1  0  0  0  0
  8  9  1  0  0  0  0
  8 10  1  0  0  0  0
  8 11  1  0  0  0  0
  9 13  1  0  0  0  0
  9 36  1  0  0  0  0
  9 37  1  0  0  0  0
 11 38  1  0  0  0  0
 11 39  1  0  0  0  0
 11 40  1  0  0  0  0
 12 17  1  0  0  0  0
 14 18  2  0  0  0  0
 14 41  1  0  0  0  0
 15 19  2  0  0  0  0
 15 21  1  0  0  0  0
 16 22  1  0  0  0  0
 16 42  1  0  0  0  0
 16 43  1  0  0  0  0
 17 20  2  0  0  0  0
 17 44  1  0  0  0  0
 18 20  1  0  0  0  0
 18 45  1  0  0  0  0
 19 24  1  0  0  0  0
 19 25  1  0  0  0  0
 20 46  1  0  0  0  0
 21 23  2  0  0  0  0
 21 47  1  0  0  0  0
 23 26  1  0  0  0  0
 23 28  1  0  0  0  0
 24 26  2  0  0  0  0
 24 48  1  0  0  0  0
 25 49  1  0  0  0  0
 25 50  1  0  0  0  0
 25 51  1  0  0  0  0
 26 52  1  0  0  0  0
 27 29  1  0  0  0  0
 27 54  1  0  0  0  0
 27 55  1  0  0  0  0
 28 56  1  0  0  0  0
 28 57  1  0  0  0  0
 28 58  1  0  0  0  0
 29 30  2  0  0  0  0
 29 31  1  0  0  0  0
 30 33  1  0  0  0  0
 30 59  1  0  0  0  0
 31 34  2  0  0  0  0
 31 60  1  0  0  0  0
 32 33  2  0  0  0  0
 32 34  1  0  0  0  0
 32 35  1  0  0  0  0
 33 61  1  0  0  0  0
 34 62  1  0  0  0  0
 35 63  1  0  0  0  0
 35 64  1  0  0  0  0
 35 65  1  0  0  0  0
M  END
> <PUBCHEM_COMPOUND_CID>
3227599

> <PUBCHEM_CONFORMER_RMSD>
1

> <PUBCHEM_CONFORMER_DIVERSEORDER>
4
40
39
30
104
93
85
89
90
66
101
48
27
58
68
82
45
29
76
61
18
22
50
69
49
86
21
60
77
78
80
62
65
100
52
84
12
83
26
94
34
54
3
15
38
71
17
46
6
92
32
72
47
102
19
106
63
103
98
55
57
9
13
99
44
91
81
8
23
59
1
42
56
107
28
73
67
33
79
87
11
2
36
51
96
70
105
14
53
74
35
25
37
31
7
43
16
95
97
10
64
20
41
5
75
88
24

> <PUBCHEM_MMFF94_PARTIAL_CHARGES>
46
1 -0.57
10 0.57
12 0.49
13 0.72
14 -0.05
15 0.12
16 0.36
17 -0.14
18 -0.15
19 -0.14
2 -0.57
20 -0.15
21 -0.15
22 0.57
23 -0.14
24 -0.15
25 0.14
26 -0.15
27 0.44
28 0.14
29 -0.14
3 -0.57
30 -0.15
31 -0.15
32 -0.14
33 -0.15
34 -0.15
35 0.14
4 -0.52
41 0.15
44 0.15
45 0.15
46 0.15
47 0.15
48 0.15
5 -0.48
52 0.15
53 0.37
59 0.15
6 -0.66
60 0.15
61 0.15
62 0.15
7 -0.73
8 0.43
9 0.06

> <PUBCHEM_EFFECTIVE_ROTOR_COUNT>
8.4

> <PUBCHEM_PHARMACOPHORE_FEATURES>
9
1 1 acceptor
1 2 acceptor
1 3 acceptor
1 6 donor
1 7 donor
6 15 19 21 23 24 26 rings
6 29 30 31 32 33 34 rings
6 4 12 14 17 18 20 rings
6 4 6 8 9 12 13 rings

> <PUBCHEM_HEAVY_ATOM_COUNT>
35

> <PUBCHEM_ATOM_DEF_STEREO_COUNT>
0

> <PUBCHEM_ATOM_UDEF_STEREO_COUNT>
1

> <PUBCHEM_BOND_DEF_STEREO_COUNT>
0

> <PUBCHEM_BOND_UDEF_STEREO_COUNT>
0

> <PUBCHEM_ISOTOPIC_ATOM_COUNT>
0

> <PUBCHEM_COMPONENT_COUNT>
1

> <PUBCHEM_CACTVS_TAUTO_COUNT>
2

> <PUBCHEM_CONFORMER_ID>
00313FCF00000004

> <PUBCHEM_MMFF94_ENERGY>
144.8284

> <PUBCHEM_FEATURE_SELFOVERLAP>
45.703

> <PUBCHEM_SHAPE_FINGERPRINT>
11285246 1 16691926028409349638
11488393 25 17981889640585425863
11578080 2 18128531759436510352
12596602 18 16081381768975896329
13402501 40 18408043988412840179
13692114 37 18271228487845846503
15001296 14 17896609564276872445
15968369 153 18129654322585975027
18603816 31 13683528212409383452
20764821 26 18341597257154601497
20775438 99 17702356585559532870
21197605 99 18411698825225277799
21344244 181 17989490736419518415
238 59 18268990886460565344
460360 51 18271519913945036986
469060 322 17168407368766943327
484989 97 18410862044387275863
6086070 43 18202564003528076546

> <PUBCHEM_SHAPE_MULTIPOLES>
682.75
11.6
4.6
2.16
10.37
2.05
0.11
-6.67
-2.73
1.58
0.33
-1.31
0.12
2.17

> <PUBCHEM_SHAPE_SELFOVERLAP>
1481.391

> <PUBCHEM_SHAPE_VOLUME>
369.7

> <PUBCHEM_COORDINATE_TYPE>
2
5
10

$$$$
