20919967
  -OEChem-01171812083D

 59 62  0     0  0  0  0  0  0999 V2000
    1.0718   -1.5795   -1.7453 O   0  0  0  0  0  0  0  0  0  0  0  0
   -4.0750   -1.3476    0.8777 O   0  0  0  0  0  0  0  0  0  0  0  0
   -8.6367   -0.3572   -0.0650 O   0  0  0  0  0  0  0  0  0  0  0  0
    0.2254    0.5576   -1.3021 N   0  0  0  0  0  0  0  0  0  0  0  0
    4.4311    0.1214   -0.0222 N   0  0  0  0  0  0  0  0  0  0  0  0
    3.5719   -0.7387   -0.6084 N   0  0  0  0  0  0  0  0  0  0  0  0
    0.3958    1.8479   -0.8039 N   0  0  0  0  0  0  0  0  0  0  0  0
   -5.6874   -1.2905   -0.7918 N   0  0  0  0  0  0  0  0  0  0  0  0
    2.6140    1.2907   -0.2408 C   0  0  0  0  0  0  0  0  0  0  0  0
    2.4643   -0.0057   -0.7346 C   0  0  0  0  0  0  0  0  0  0  0  0
    3.9010    1.3600    0.2207 C   0  0  0  0  0  0  0  0  0  0  0  0
   -1.0995    0.2978   -1.8400 C   0  0  0  0  0  0  0  0  0  0  0  0
   -2.0619   -0.2412   -0.7837 C   0  0  0  0  0  0  0  0  0  0  0  0
    1.5313    2.2229   -0.2905 C   0  0  0  0  0  0  0  0  0  0  0  0
    1.2180   -0.4421   -1.3073 C   0  0  0  0  0  0  0  0  0  0  0  0
   -3.4765   -0.4935   -1.3085 C   0  0  0  0  0  0  0  0  0  0  0  0
    5.7288   -0.2950    0.2766 C   0  0  0  0  0  0  0  0  0  0  0  0
    4.6664    2.4518    0.8542 C   0  0  0  0  0  0  0  0  0  0  0  0
    1.6736    3.6225    0.2352 C   0  0  0  0  0  0  0  0  0  0  0  0
   -4.4192   -1.0796   -0.2702 C   0  0  0  0  0  0  0  0  0  0  0  0
    6.7634    0.6313    0.2744 C   0  0  0  0  0  0  0  0  0  0  0  0
    5.9683   -1.6304    0.5729 C   0  0  0  0  0  0  0  0  0  0  0  0
   -6.7647   -1.8626   -0.0183 C   0  0  0  0  0  0  0  0  0  0  0  0
    8.3116   -1.1241    0.8726 C   0  0  0  0  0  0  0  0  0  0  0  0
    8.0606    0.2150    0.5735 C   0  0  0  0  0  0  0  0  0  0  0  0
    7.2655   -2.0468    0.8722 C   0  0  0  0  0  0  0  0  0  0  0  0
   -7.5943   -0.8081    0.6555 C   0  0  0  0  0  0  0  0  0  0  0  0
    9.6983   -1.5695    1.1928 C   0  0  0  0  0  0  0  0  0  0  0  0
   -7.4978   -0.2113    1.8670 C   0  0  0  0  0  0  0  0  0  0  0  0
   -9.2412    0.5743    0.7185 C   0  0  0  0  0  0  0  0  0  0  0  0
   -8.5786    0.7010    1.9171 C   0  0  0  0  0  0  0  0  0  0  0  0
  -10.4284    1.2292    0.1517 C   0  0  0  0  0  0  0  0  0  0  0  0
   -1.4885    1.2258   -2.2761 H   0  0  0  0  0  0  0  0  0  0  0  0
   -1.0102   -0.4305   -2.6544 H   0  0  0  0  0  0  0  0  0  0  0  0
   -2.1113    0.4623    0.0577 H   0  0  0  0  0  0  0  0  0  0  0  0
   -1.6569   -1.1732   -0.3681 H   0  0  0  0  0  0  0  0  0  0  0  0
   -3.4345   -1.1877   -2.1565 H   0  0  0  0  0  0  0  0  0  0  0  0
   -3.9077    0.4482   -1.6688 H   0  0  0  0  0  0  0  0  0  0  0  0
    5.1922    3.0623    0.1141 H   0  0  0  0  0  0  0  0  0  0  0  0
    3.9891    3.1350    1.3749 H   0  0  0  0  0  0  0  0  0  0  0  0
    5.3365    2.1196    1.6518 H   0  0  0  0  0  0  0  0  0  0  0  0
    0.7796    4.2066   -0.0042 H   0  0  0  0  0  0  0  0  0  0  0  0
    1.7853    3.5986    1.3223 H   0  0  0  0  0  0  0  0  0  0  0  0
    2.5363    4.1138   -0.2222 H   0  0  0  0  0  0  0  0  0  0  0  0
    6.6744    1.6503   -0.0752 H   0  0  0  0  0  0  0  0  0  0  0  0
    5.1727   -2.3706    0.5916 H   0  0  0  0  0  0  0  0  0  0  0  0
   -5.8815   -1.0225   -1.7524 H   0  0  0  0  0  0  0  0  0  0  0  0
   -7.3837   -2.4502   -0.7047 H   0  0  0  0  0  0  0  0  0  0  0  0
   -6.3528   -2.5467    0.7319 H   0  0  0  0  0  0  0  0  0  0  0  0
    8.8730    0.9363    0.5414 H   0  0  0  0  0  0  0  0  0  0  0  0
    7.4488   -3.0927    1.1044 H   0  0  0  0  0  0  0  0  0  0  0  0
    9.6909   -2.4078    1.8978 H   0  0  0  0  0  0  0  0  0  0  0  0
   10.2124   -1.8837    0.2790 H   0  0  0  0  0  0  0  0  0  0  0  0
   10.2746   -0.7636    1.6601 H   0  0  0  0  0  0  0  0  0  0  0  0
   -6.7544   -0.3933    2.6295 H   0  0  0  0  0  0  0  0  0  0  0  0
   -8.8395    1.3667    2.7274 H   0  0  0  0  0  0  0  0  0  0  0  0
  -10.1724    1.7555   -0.7731 H   0  0  0  0  0  0  0  0  0  0  0  0
  -10.8497    1.9580    0.8511 H   0  0  0  0  0  0  0  0  0  0  0  0
  -11.2033    0.4906   -0.0757 H   0  0  0  0  0  0  0  0  0  0  0  0
  1 15  2  0  0  0  0
  2 20  2  0  0  0  0
  3 27  1  0  0  0  0
  3 30  1  0  0  0  0
  4  7  1  0  0  0  0
  4 12  1  0  0  0  0
  4 15  1  0  0  0  0
  5  6  1  0  0  0  0
  5 11  1  0  0  0  0
  5 17  1  0  0  0  0
  6 10  2  0  0  0  0
  7 14  2  0  0  0  0
  8 20  1  0  0  0  0
  8 23  1  0  0  0  0
  8 47  1  0  0  0  0
  9 10  1  0  0  0  0
  9 11  2  0  0  0  0
  9 14  1  0  0  0  0
 10 15  1  0  0  0  0
 11 18  1  0  0  0  0
 12 13  1  0  0  0  0
 12 33  1  0  0  0  0
 12 34  1  0  0  0  0
 13 16  1  0  0  0  0
 13 35  1  0  0  0  0
 13 36  1  0  0  0  0
 14 19  1  0  0  0  0
 16 20  1  0  0  0  0
 16 37  1  0  0  0  0
 16 38  1  0  0  0  0
 17 21  2  0  0  0  0
 17 22  1  0  0  0  0
 18 39  1  0  0  0  0
 18 40  1  0  0  0  0
 18 41  1  0  0  0  0
 19 42  1  0  0  0  0
 19 43  1  0  0  0  0
 19 44  1  0  0  0  0
 21 25  1  0  0  0  0
 21 45  1  0  0  0  0
 22 26  2  0  0  0  0
 22 46  1  0  0  0  0
 23 27  1  0  0  0  0
 23 48  1  0  0  0  0
 23 49  1  0  0  0  0
 24 25  2  0  0  0  0
 24 26  1  0  0  0  0
 24 28  1  0  0  0  0
 25 50  1  0  0  0  0
 26 51  1  0  0  0  0
 27 29  2  0  0  0  0
 28 52  1  0  0  0  0
 28 53  1  0  0  0  0
 28 54  1  0  0  0  0
 29 31  1  0  0  0  0
 29 55  1  0  0  0  0
 30 31  2  0  0  0  0
 30 32  1  0  0  0  0
 31 56  1  0  0  0  0
 32 57  1  0  0  0  0
 32 58  1  0  0  0  0
 32 59  1  0  0  0  0
M  END
> <PUBCHEM_COMPOUND_CID>
20919967

> <PUBCHEM_CONFORMER_RMSD>
1

> <PUBCHEM_CONFORMER_DIVERSEORDER>
28
160
148
17
119
236
130
209
397
379
175
141
376
65
391
281
198
266
309
19
251
274
197
76
241
268
71
316
166
270
317
242
247
356
190
189
359
340
122
164
89
43
154
330
162
321
213
115
134
188
135
44
61
362
354
386
117
228
32
303
57
306
215
203
225
388
325
31
29
338
318
18
94
280
35
229
38
42
277
73
128
163
1
249
323
181
214
146
297
289
349
287
286
219
237
159
46
40
96
383
233
218
170
394
305
127
137
202
5
300
273
271
392
182
103
299
336
176
342
357
153
344
278
311
60
121
13
264
372
353
54
272
25
254
363
55
290
192
93
82
390
167
352
310
314
217
178
97
375
87
165
152
8
102
320
59
204
196
116
341
101
248
95
244
70
224
126
169
212
227
253
364
113
7
11
158
331
378
49
371
2
138
333
99
145
328
319
262
285
361
191
223
259
208
380
284
75
37
283
78
109
377
133
293
334
324
172
74
207
294
187
216
12
295
396
140
200
387
369
205
265
298
20
30
15
151
279
373
269
365
171
339
385
351
108
85
67
345
195
193
104
41
110
292
131
355
136
183
368
261
211
226
374
366
238
347
275
194
26
220
389
77
139
142
112
107
206
384
337
315
326
184
90
186
335
243
308
81
21
296
34
48
10
156
174
100
276
322
123
255
9
360
327
143
91
263
129
282
155
120
106
69
288
199
313
98
358
235
180
252
329
231
24
144
4
258
177
230
157
234
51
343
45
232
147
161
68
132
257
367
332
47
210
381
312
185
111
64
221
370
302
22
173
88
66
168
23
114
125
92
62
382
246
307
291
118
179
6
52
256
301
53
14
346
150
58
239
267
350
304
83
16
240
84
260
3
27
86
79
105
80
395
36
124
39
393
245
348
72
63
201
56
250
33
149
222
50

> <PUBCHEM_MMFF94_PARTIAL_CHARGES>
38
1 -0.57
10 0.2
11 -0.33
12 0.3
14 0.48
15 0.72
16 0.06
17 -0.02
18 0.18
19 0.06
2 -0.57
20 0.57
21 -0.15
22 -0.15
23 0.48
24 -0.14
25 -0.15
26 -0.15
27 -0.04
28 0.14
29 -0.15
3 -0.28
30 -0.04
31 -0.15
32 0.18
4 -0.3
45 0.15
46 0.15
47 0.37
5 0.59
50 0.15
51 0.15
55 0.15
56 0.15
6 -0.71
7 -0.51
8 -0.73
9 -0.09

> <PUBCHEM_EFFECTIVE_ROTOR_COUNT>
8

> <PUBCHEM_PHARMACOPHORE_FEATURES>
10
1 1 acceptor
1 2 acceptor
1 3 acceptor
1 6 acceptor
1 7 acceptor
1 8 donor
5 3 27 29 30 31 rings
5 5 6 9 10 11 rings
6 17 21 22 24 25 26 rings
6 4 7 9 10 14 15 rings

> <PUBCHEM_HEAVY_ATOM_COUNT>
32

> <PUBCHEM_ATOM_DEF_STEREO_COUNT>
0

> <PUBCHEM_ATOM_UDEF_STEREO_COUNT>
0

> <PUBCHEM_BOND_DEF_STEREO_COUNT>
0

> <PUBCHEM_BOND_UDEF_STEREO_COUNT>
0

> <PUBCHEM_ISOTOPIC_ATOM_COUNT>
0

> <PUBCHEM_COMPONENT_COUNT>
1

> <PUBCHEM_CACTVS_TAUTO_COUNT>
2

> <PUBCHEM_CONFORMER_ID>
013F369F0000001C

> <PUBCHEM_MMFF94_ENERGY>
76.2645

> <PUBCHEM_FEATURE_SELFOVERLAP>
50.869

> <PUBCHEM_SHAPE_FINGERPRINT>
10162869 55 17703784839360598189
10533779 1 17130442190765981537
10533779 47 18339093613903490699
10674148 151 16442783531633690297
11456790 92 18341335560887261747
12539745 222 17822008653815211925
12838862 33 15769771338895357315
13165054 146 10807636905737308184
13673619 4 17748821925590859692
14142895 15 9295283950013042091
14150023 24 16415482644878072215
14344974 52 11887660793538016951
14347424 109 18343020038054703640
14428016 545 18410012127058823829
14444916 359 16660363684594575795
14767858 380 11530474524323138294
15419008 145 18342177731250428049
15840311 113 15698006206608260558
1754911 235 9799693693028281699
1818759 1 16008749099996588091
19301679 30 18271245994285376246
20105231 36 15430039868616849161
2026 5 17168693121705687258
20982279 24 17895766088872493386
21130935 74 18265051517188283515
21150785 3 8142087555110351031
21267235 1 15864069879936129023
21360443 126 9943801192622262028
21403212 168 18060701684781399663
21585481 151 16950571004312280011
21591340 7 17632291298808522863
21867018 265 8142079854566357737
22149856 69 18412260654112944888
246663 6 16515685546137717847
25269216 80 15647049331312782854
3178227 256 18409728474111831134
439807 62 18040151812843121274
44389302 135 18342167835999712506
45377200 153 15068916290996845649
4874694 18 17917713496920826815
54039377 194 15068343410910197303
5719381 82 17167856444690263378
5937810 71 11455627465587408667
6058803 2 17554875947168386324
636775 8 14273741750789774571
99344 41 18202003244430521799
9980921 7 11311761904798821922
9995097 26 16081090381241150430

> <PUBCHEM_SHAPE_MULTIPOLES>
616.03
35.04
2.42
1.47
45.56
1.64
0.04
-10.35
-19.56
-2.73
-0.33
1.44
-0.18
-1.35

> <PUBCHEM_SHAPE_SELFOVERLAP>
1330.542

> <PUBCHEM_SHAPE_VOLUME>
342

> <PUBCHEM_COORDINATE_TYPE>
2
5
10

$$$$
