24791362
  -OEChem-01171812063D

 49 51  0     1  0  0  0  0  0999 V2000
    0.5418    1.5234    1.8110 F   0  0  0  0  0  0  0  0  0  0  0  0
   -1.5967    3.0231    1.0291 F   0  0  0  0  0  0  0  0  0  0  0  0
    1.3677   -2.0895    1.9415 O   0  0  0  0  0  0  0  0  0  0  0  0
   -0.0076   -3.5082   -0.4120 O   0  0  0  0  0  0  0  0  0  0  0  0
    2.9937    0.0497   -0.4684 N   0  0  2  0  0  0  0  0  0  0  0  0
    3.5986   -1.7691    1.5816 N   0  0  0  0  0  0  0  0  0  0  0  0
   -0.5795   -1.7653   -1.8391 N   0  0  0  0  0  0  0  0  0  0  0  0
   -3.5487   -2.0999   -0.0854 N   0  0  0  0  0  0  0  0  0  0  0  0
   -3.5189    0.7011    0.0560 N   0  0  0  0  0  0  0  0  0  0  0  0
    1.9504   -0.9024   -0.0567 C   0  0  1  0  0  0  0  0  0  0  0  0
    4.3342   -0.5370   -0.4278 C   0  0  0  0  0  0  0  0  0  0  0  0
    4.6893   -1.0557    0.9536 C   0  0  0  0  0  0  0  0  0  0  0  0
    1.6973   -1.9536   -1.1406 C   0  0  0  0  0  0  0  0  0  0  0  0
    2.9119    1.3083    0.2726 C   0  0  0  0  0  0  0  0  0  0  0  0
    2.2717   -1.6071    1.2548 C   0  0  0  0  0  0  0  0  0  0  0  0
    1.7271    2.1339   -0.1534 C   0  0  0  0  0  0  0  0  0  0  0  0
    0.2965   -2.5160   -1.0685 C   0  0  0  0  0  0  0  0  0  0  0  0
    0.5905    2.1964    0.6529 C   0  0  0  0  0  0  0  0  0  0  0  0
    1.7682    2.8381   -1.3568 C   0  0  0  0  0  0  0  0  0  0  0  0
   -1.9863   -2.0727   -1.9608 C   0  0  0  0  0  0  0  0  0  0  0  0
   -0.5051    2.9630    0.2555 C   0  0  0  0  0  0  0  0  0  0  0  0
    0.6728    3.6045   -1.7541 C   0  0  0  0  0  0  0  0  0  0  0  0
   -0.4639    3.6670   -0.9480 C   0  0  0  0  0  0  0  0  0  0  0  0
   -2.8096   -1.3508   -0.9274 C   0  0  0  0  0  0  0  0  0  0  0  0
   -2.7949    0.0250   -0.8579 C   0  0  0  0  0  0  0  0  0  0  0  0
   -4.2728   -1.4238    0.8284 C   0  0  0  0  0  0  0  0  0  0  0  0
   -4.2582   -0.0481    0.8979 C   0  0  0  0  0  0  0  0  0  0  0  0
   -5.0697    0.6657    1.9218 C   0  0  0  0  0  0  0  0  0  0  0  0
    1.0038   -0.3767    0.1034 H   0  0  0  0  0  0  0  0  0  0  0  0
    4.3818   -1.3640   -1.1472 H   0  0  0  0  0  0  0  0  0  0  0  0
    5.0889    0.1820   -0.7690 H   0  0  0  0  0  0  0  0  0  0  0  0
    4.9541   -0.2310    1.6244 H   0  0  0  0  0  0  0  0  0  0  0  0
    5.5472   -1.7338    0.9061 H   0  0  0  0  0  0  0  0  0  0  0  0
    2.3959   -2.7962   -1.0614 H   0  0  0  0  0  0  0  0  0  0  0  0
    1.8468   -1.5237   -2.1401 H   0  0  0  0  0  0  0  0  0  0  0  0
    2.9015    1.1505    1.3588 H   0  0  0  0  0  0  0  0  0  0  0  0
    3.8056    1.9185    0.0805 H   0  0  0  0  0  0  0  0  0  0  0  0
    3.8099   -2.2905    2.4268 H   0  0  0  0  0  0  0  0  0  0  0  0
    2.6478    2.7973   -1.9938 H   0  0  0  0  0  0  0  0  0  0  0  0
   -0.2370   -0.9424   -2.3266 H   0  0  0  0  0  0  0  0  0  0  0  0
   -2.3092   -1.7729   -2.9635 H   0  0  0  0  0  0  0  0  0  0  0  0
   -2.1273   -3.1554   -1.8694 H   0  0  0  0  0  0  0  0  0  0  0  0
    0.7044    4.1524   -2.6913 H   0  0  0  0  0  0  0  0  0  0  0  0
   -1.3174    4.2628   -1.2573 H   0  0  0  0  0  0  0  0  0  0  0  0
   -2.2079    0.6371   -1.5325 H   0  0  0  0  0  0  0  0  0  0  0  0
   -4.8640   -2.0331    1.5019 H   0  0  0  0  0  0  0  0  0  0  0  0
   -6.1329    0.4413    1.7898 H   0  0  0  0  0  0  0  0  0  0  0  0
   -4.9403    1.7499    1.8396 H   0  0  0  0  0  0  0  0  0  0  0  0
   -4.7632    0.3648    2.9286 H   0  0  0  0  0  0  0  0  0  0  0  0
  1 18  1  0  0  0  0
  2 21  1  0  0  0  0
  3 15  2  0  0  0  0
  4 17  2  0  0  0  0
  5 10  1  0  0  0  0
  5 11  1  0  0  0  0
  5 14  1  0  0  0  0
  6 12  1  0  0  0  0
  6 15  1  0  0  0  0
  6 38  1  0  0  0  0
  7 17  1  0  0  0  0
  7 20  1  0  0  0  0
  7 40  1  0  0  0  0
  8 24  2  0  0  0  0
  8 26  1  0  0  0  0
  9 25  2  0  0  0  0
  9 27  1  0  0  0  0
 10 13  1  0  0  0  0
 10 15  1  0  0  0  0
 10 29  1  0  0  0  0
 11 12  1  0  0  0  0
 11 30  1  0  0  0  0
 11 31  1  0  0  0  0
 12 32  1  0  0  0  0
 12 33  1  0  0  0  0
 13 17  1  0  0  0  0
 13 34  1  0  0  0  0
 13 35  1  0  0  0  0
 14 16  1  0  0  0  0
 14 36  1  0  0  0  0
 14 37  1  0  0  0  0
 16 18  2  0  0  0  0
 16 19  1  0  0  0  0
 18 21  1  0  0  0  0
 19 22  2  0  0  0  0
 19 39  1  0  0  0  0
 20 24  1  0  0  0  0
 20 41  1  0  0  0  0
 20 42  1  0  0  0  0
 21 23  2  0  0  0  0
 22 23  1  0  0  0  0
 22 43  1  0  0  0  0
 23 44  1  0  0  0  0
 24 25  1  0  0  0  0
 25 45  1  0  0  0  0
 26 27  2  0  0  0  0
 26 46  1  0  0  0  0
 27 28  1  0  0  0  0
 28 47  1  0  0  0  0
 28 48  1  0  0  0  0
 28 49  1  0  0  0  0
M  END
> <PUBCHEM_COMPOUND_CID>
24791362

> <PUBCHEM_CONFORMER_RMSD>
1.4

> <PUBCHEM_CONFORMER_DIVERSEORDER>
1
74
77
25
71
135
141
11
8
32
38
20
109
81
100
142
73
89
123
50
98
61
125
121
65
43
97
110
134
33
102
62
16
26
129
95
79
107
103
31
45
139
122
4
23
15
117
75
91
44
119
128
126
66
116
120
93
52
57
24
94
137
22
34
51
59
29
87
69
64
133
53
101
115
124
72
28
30
37
63
96
127
67
99
106
7
48
138
60
113
105
54
10
84
2
9
36
27
39
70
40
47
85
112
41
17
131
18
118
90
6
56
80
108
132
42
78
5
140
3
19
58
104
114
136
21
68
35
130
46
83
55
111
88
14
82
12
92
13
49
86
76

> <PUBCHEM_MMFF94_PARTIAL_CHARGES>
35
1 -0.19
10 0.33
11 0.27
12 0.3
13 0.06
14 0.41
15 0.57
16 -0.14
17 0.57
18 0.19
19 -0.15
2 -0.19
20 0.44
21 0.19
22 -0.15
23 -0.15
24 0.17
25 0.16
26 0.16
27 0.17
28 0.14
3 -0.57
38 0.37
39 0.15
4 -0.57
40 0.37
43 0.15
44 0.15
45 0.15
46 0.15
5 -0.81
6 -0.73
7 -0.73
8 -0.62
9 -0.62

> <PUBCHEM_EFFECTIVE_ROTOR_COUNT>
8

> <PUBCHEM_PHARMACOPHORE_FEATURES>
10
1 3 acceptor
1 4 acceptor
1 5 cation
1 6 donor
1 7 donor
1 8 acceptor
1 9 acceptor
6 16 18 19 21 22 23 rings
6 5 6 10 11 12 15 rings
6 8 9 24 25 26 27 rings

> <PUBCHEM_HEAVY_ATOM_COUNT>
28

> <PUBCHEM_ATOM_DEF_STEREO_COUNT>
0

> <PUBCHEM_ATOM_UDEF_STEREO_COUNT>
1

> <PUBCHEM_BOND_DEF_STEREO_COUNT>
0

> <PUBCHEM_BOND_UDEF_STEREO_COUNT>
0

> <PUBCHEM_ISOTOPIC_ATOM_COUNT>
0

> <PUBCHEM_COMPONENT_COUNT>
1

> <PUBCHEM_CACTVS_TAUTO_COUNT>
4

> <PUBCHEM_CONFORMER_ID>
017A494200000001

> <PUBCHEM_MMFF94_ENERGY>
63.5393

> <PUBCHEM_FEATURE_SELFOVERLAP>
50.751

> <PUBCHEM_SHAPE_FINGERPRINT>
10675989 125 16758013803475147431
11421498 54 17968375650563485298
12422481 6 18198906898672453890
12553582 1 18411416172546144293
12633257 1 18408048411902588275
13122387 1 18341333284422764551
13140716 1 18342735247589469963
13583140 156 17967807263329270647
13965767 371 18130773539117913250
14840074 17 18412554201530600448
14955137 171 18270695241158139862
15403338 16 17968372335027931563
20465049 17 17834985304704288157
20739085 24 18410300232737169252
21315764 21 17974255976266757341
238 59 17760645171761122395
3052486 1 18266753376514510846
35225 105 16745960389606233043
445580 8 18272094872473848523
513202 73 18048310047198187290
7064713 232 17846502504442915137

> <PUBCHEM_SHAPE_MULTIPOLES>
525.04
8.01
4.73
1.85
4.72
3.1
-0.07
-3.23
-3.6
-0.9
1.42
0.44
-0.31
-1.75

> <PUBCHEM_SHAPE_SELFOVERLAP>
1116.257

> <PUBCHEM_SHAPE_VOLUME>
291.7

> <PUBCHEM_COORDINATE_TYPE>
2
5
10

$$$$
