4654931
  -OEChem-01171811473D

 47 50  0     1  0  0  0  0  0999 V2000
    2.3724   -3.5770    0.1580 S   0  0  0  0  0  0  0  0  0  0  0  0
    2.9567   -4.7096    0.8457 O   0  0  0  0  0  0  0  0  0  0  0  0
    3.0876   -2.8389   -0.8625 O   0  0  0  0  0  0  0  0  0  0  0  0
   -2.9613   -2.2955   -0.5858 O   0  0  0  0  0  0  0  0  0  0  0  0
   -1.2513    2.7285    0.0247 O   0  0  0  0  0  0  0  0  0  0  0  0
    0.5717    2.5848    1.0245 O   0  0  0  0  0  0  0  0  0  0  0  0
   -0.2963   -1.8794   -0.8094 N   0  0  0  0  0  0  0  0  0  0  0  0
    0.6184    0.8129   -0.4807 N   0  0  0  0  0  0  0  0  0  0  0  0
   -0.2206   -3.0399    0.0453 C   0  0  1  0  0  0  0  0  0  0  0  0
    0.7784   -4.0640   -0.4928 C   0  0  0  0  0  0  0  0  0  0  0  0
    0.2567   -2.6775    1.4557 C   0  0  0  0  0  0  0  0  0  0  0  0
    1.7592   -2.4204    1.3725 C   0  0  0  0  0  0  0  0  0  0  0  0
   -1.1101   -0.8097   -0.5519 C   0  0  0  0  0  0  0  0  0  0  0  0
   -0.7019    0.4607   -0.3938 C   0  0  0  0  0  0  0  0  0  0  0  0
   -2.5631   -1.1430   -0.4476 C   0  0  0  0  0  0  0  0  0  0  0  0
   -3.5202   -0.0561   -0.1716 C   0  0  0  0  0  0  0  0  0  0  0  0
   -1.6453    1.5755   -0.1143 C   0  0  0  0  0  0  0  0  0  0  0  0
   -3.0780    1.2547   -0.0097 C   0  0  0  0  0  0  0  0  0  0  0  0
   -4.8865   -0.3478   -0.0703 C   0  0  0  0  0  0  0  0  0  0  0  0
   -3.9986    2.2768    0.2540 C   0  0  0  0  0  0  0  0  0  0  0  0
   -5.8017    0.6718    0.1928 C   0  0  0  0  0  0  0  0  0  0  0  0
    1.1745    1.8584    0.2379 C   0  0  0  0  0  0  0  0  0  0  0  0
   -5.3583    1.9822    0.3550 C   0  0  0  0  0  0  0  0  0  0  0  0
    2.6298    2.0755    0.0295 C   0  0  0  0  0  0  0  0  0  0  0  0
    3.3679    2.6550    1.0401 C   0  0  0  0  0  0  0  0  0  0  0  0
    3.1950    1.6904   -1.1681 C   0  0  0  0  0  0  0  0  0  0  0  0
    4.7339    2.8589    0.8442 C   0  0  0  0  0  0  0  0  0  0  0  0
    4.5610    1.8942   -1.3640 C   0  0  0  0  0  0  0  0  0  0  0  0
    5.3303    2.4785   -0.3578 C   0  0  0  0  0  0  0  0  0  0  0  0
   -1.1910   -3.5390    0.1039 H   0  0  0  0  0  0  0  0  0  0  0  0
    0.5625   -5.0611   -0.0961 H   0  0  0  0  0  0  0  0  0  0  0  0
    0.8267   -4.1010   -1.5839 H   0  0  0  0  0  0  0  0  0  0  0  0
    0.0816   -3.5346    2.1189 H   0  0  0  0  0  0  0  0  0  0  0  0
   -0.2669   -1.8217    1.8928 H   0  0  0  0  0  0  0  0  0  0  0  0
    1.9723   -1.4102    1.0137 H   0  0  0  0  0  0  0  0  0  0  0  0
    2.2624   -2.5877    2.3272 H   0  0  0  0  0  0  0  0  0  0  0  0
    0.5893   -1.6289   -1.2411 H   0  0  0  0  0  0  0  0  0  0  0  0
    1.2427    0.1350   -0.9065 H   0  0  0  0  0  0  0  0  0  0  0  0
   -5.2581   -1.3618   -0.1921 H   0  0  0  0  0  0  0  0  0  0  0  0
   -3.6772    3.3067    0.3842 H   0  0  0  0  0  0  0  0  0  0  0  0
   -6.8606    0.4433    0.2713 H   0  0  0  0  0  0  0  0  0  0  0  0
   -6.0716    2.7752    0.5599 H   0  0  0  0  0  0  0  0  0  0  0  0
    2.9200    2.9518    1.9837 H   0  0  0  0  0  0  0  0  0  0  0  0
    2.6244    1.2615   -1.9854 H   0  0  0  0  0  0  0  0  0  0  0  0
    5.3332    3.3129    1.6279 H   0  0  0  0  0  0  0  0  0  0  0  0
    5.0247    1.6046   -2.3024 H   0  0  0  0  0  0  0  0  0  0  0  0
    6.3935    2.6385   -0.5109 H   0  0  0  0  0  0  0  0  0  0  0  0
  1  2  2  0  0  0  0
  1  3  2  0  0  0  0
  1 10  1  0  0  0  0
  1 12  1  0  0  0  0
  4 15  2  0  0  0  0
  5 17  2  0  0  0  0
  6 22  2  0  0  0  0
  7  9  1  0  0  0  0
  7 13  1  0  0  0  0
  7 37  1  0  0  0  0
  8 14  1  0  0  0  0
  8 22  1  0  0  0  0
  8 38  1  0  0  0  0
  9 10  1  0  0  0  0
  9 11  1  0  0  0  0
  9 30  1  0  0  0  0
 10 31  1  0  0  0  0
 10 32  1  0  0  0  0
 11 12  1  0  0  0  0
 11 33  1  0  0  0  0
 11 34  1  0  0  0  0
 12 35  1  0  0  0  0
 12 36  1  0  0  0  0
 13 14  2  0  0  0  0
 13 15  1  0  0  0  0
 14 17  1  0  0  0  0
 15 16  1  0  0  0  0
 16 18  1  0  0  0  0
 16 19  2  0  0  0  0
 17 18  1  0  0  0  0
 18 20  2  0  0  0  0
 19 21  1  0  0  0  0
 19 39  1  0  0  0  0
 20 23  1  0  0  0  0
 20 40  1  0  0  0  0
 21 23  2  0  0  0  0
 21 41  1  0  0  0  0
 22 24  1  0  0  0  0
 23 42  1  0  0  0  0
 24 25  2  0  0  0  0
 24 26  1  0  0  0  0
 25 27  1  0  0  0  0
 25 43  1  0  0  0  0
 26 28  2  0  0  0  0
 26 44  1  0  0  0  0
 27 29  2  0  0  0  0
 27 45  1  0  0  0  0
 28 29  1  0  0  0  0
 28 46  1  0  0  0  0
 29 47  1  0  0  0  0
M  END
> <PUBCHEM_COMPOUND_CID>
4654931

> <PUBCHEM_CONFORMER_RMSD>
0.8

> <PUBCHEM_CONFORMER_DIVERSEORDER>
9
30
29
31
3
10
23
20
26
34
5
17
25
18
35
28
24
21
6
15
33
27
32
14
7
19
12
2
1
11
22
8
13
4
16

> <PUBCHEM_MMFF94_PARTIAL_CHARGES>
39
1 1.09
10 0.11
12 0.11
13 0.11
14 0.12
15 0.47
16 0.09
17 0.47
18 0.09
19 -0.15
2 -0.65
20 -0.15
21 -0.15
22 0.54
23 -0.15
24 0.09
25 -0.15
26 -0.15
27 -0.15
28 -0.15
29 -0.15
3 -0.65
37 0.4
38 0.37
39 0.15
4 -0.57
40 0.15
41 0.15
42 0.15
43 0.15
44 0.15
45 0.15
46 0.15
47 0.15
5 -0.57
6 -0.57
7 -0.87
8 -0.54
9 0.37

> <PUBCHEM_EFFECTIVE_ROTOR_COUNT>
5.8

> <PUBCHEM_PHARMACOPHORE_FEATURES>
12
1 2 acceptor
1 3 acceptor
1 4 acceptor
1 5 acceptor
1 6 acceptor
1 7 cation
1 7 donor
1 8 donor
5 1 9 10 11 12 rings
6 13 14 15 16 17 18 rings
6 16 18 19 20 21 23 rings
6 24 25 26 27 28 29 rings

> <PUBCHEM_HEAVY_ATOM_COUNT>
29

> <PUBCHEM_ATOM_DEF_STEREO_COUNT>
0

> <PUBCHEM_ATOM_UDEF_STEREO_COUNT>
1

> <PUBCHEM_BOND_DEF_STEREO_COUNT>
0

> <PUBCHEM_BOND_UDEF_STEREO_COUNT>
0

> <PUBCHEM_ISOTOPIC_ATOM_COUNT>
0

> <PUBCHEM_COMPONENT_COUNT>
1

> <PUBCHEM_CACTVS_TAUTO_COUNT>
19

> <PUBCHEM_CONFORMER_ID>
0047075300000009

> <PUBCHEM_MMFF94_ENERGY>
104.4621

> <PUBCHEM_FEATURE_SELFOVERLAP>
61.069

> <PUBCHEM_SHAPE_FINGERPRINT>
10006869 2 18128821837982340001
10050765 1 18338516332160712045
10190108 129 18121510313338161307
107951 10 18268438000000322492
1100329 8 18266742368355464795
12160290 23 17395269761074746962
12422481 6 18044067138999646648
12597179 24 18187373163758084595
12788726 201 17324372190696114182
13135754 10 17098915046450727842
13140716 1 18409445865068646763
133893 2 17900503909734232239
13540713 4 17969784086842076325
13540713 5 18200584805968812677
138480 1 18122905322340397458
14028597 1 17845950549405649961
140371 6 17550668812402124253
14114211 68 18117586026913954204
14251757 5 17687479266103418940
14659021 117 17478032222286122888
14790565 3 18338518654588324592
14866123 147 18123185976772970738
14955137 171 18052258384309272735
15664445 248 17984151361430810446
15775530 1 17680406876348154101
15927050 60 18341332292011688335
16719943 64 18265893751800599904
167882 2 18337669703258125573
17913733 40 18267605626964818099
19591789 44 18338797947699893764
20028762 73 17910116051386585599
20567600 347 18334015025132897418
20600515 1 17192068562089992492
20642791 35 18341057319889504142
20771845 171 17895204307096837733
21133410 230 17610101031982637050
21133665 82 18339083809178176500
21360443 120 18334020505985959804
21421861 104 18335700481911222304
21796203 349 17618542819924441275
22311459 1 18338234994507020797
23366157 5 18187651241304854815
23559900 14 18123460588818749033
25147074 1 18130503034368442997
283562 15 18052532463869030543
3298306 158 18412547643078317364
3383291 50 17905602555832707938
338550 245 18335700563921795516
3411729 13 18408041788814597561
4073 2 18123468552300922592
469060 322 11315698267673527552
5104073 3 18267318552005166993
5265222 85 18120947358551812940
5385378 56 18411427189554269409
59755656 215 18412268349824011893
6287921 2 18269536283241591186
79837 15 18120094145685712970
9709674 26 17767403857011012860
9981440 41 18336266863564729195

> <PUBCHEM_SHAPE_MULTIPOLES>
561.35
10.43
5.88
1.08
4.08
6.61
0.11
-9.67
-0.25
-6.22
1
-0.91
0.15
-0.71

> <PUBCHEM_SHAPE_SELFOVERLAP>
1231.578

> <PUBCHEM_SHAPE_VOLUME>
302.8

> <PUBCHEM_COORDINATE_TYPE>
2
5
10

$$$$
