4968791
  -OEChem-01171811523D

 45 47  0     0  0  0  0  0  0999 V2000
    1.3138   -1.0864    0.5548 S   0  0  0  0  0  0  0  0  0  0  0  0
   -7.2563   -1.7021   -0.5243 O   0  0  0  0  0  0  0  0  0  0  0  0
    1.0671    1.3280   -0.6416 N   0  0  0  0  0  0  0  0  0  0  0  0
   -0.2863    1.3288   -0.4481 N   0  0  0  0  0  0  0  0  0  0  0  0
    3.2573    0.4415   -0.2467 N   0  0  0  0  0  0  0  0  0  0  0  0
   -6.5111    0.2860    0.5009 N   0  0  0  0  0  0  0  0  0  0  0  0
   -0.9017    0.1944   -0.3010 C   0  0  0  0  0  0  0  0  0  0  0  0
   -2.3762    0.2176   -0.0899 C   0  0  0  0  0  0  0  0  0  0  0  0
   -0.2192   -1.1501   -0.3845 C   0  0  0  0  0  0  0  0  0  0  0  0
    1.9639    0.3703   -0.1879 C   0  0  0  0  0  0  0  0  0  0  0  0
   -3.1597   -0.8237   -0.5765 C   0  0  0  0  0  0  0  0  0  0  0  0
   -2.9585    1.2815    0.5917 C   0  0  0  0  0  0  0  0  0  0  0  0
   -5.1301    0.2629    0.3033 C   0  0  0  0  0  0  0  0  0  0  0  0
   -4.5404   -0.8010   -0.3794 C   0  0  0  0  0  0  0  0  0  0  0  0
   -4.3392    1.3040    0.7890 C   0  0  0  0  0  0  0  0  0  0  0  0
    3.9448   -0.7126    0.3089 C   0  0  0  0  0  0  0  0  0  0  0  0
    5.4383   -0.5496    0.2639 C   0  0  0  0  0  0  0  0  0  0  0  0
    1.5591    2.5852   -1.1967 C   0  0  0  0  0  0  0  0  0  0  0  0
    6.1431   -0.9882   -0.8498 C   0  0  0  0  0  0  0  0  0  0  0  0
    6.0967    0.0375    1.3370 C   0  0  0  0  0  0  0  0  0  0  0  0
    7.5291   -0.8373   -0.8914 C   0  0  0  0  0  0  0  0  0  0  0  0
    7.4827    0.1886    1.2955 C   0  0  0  0  0  0  0  0  0  0  0  0
    8.1989   -0.2489    0.1813 C   0  0  0  0  0  0  0  0  0  0  0  0
   -7.4598   -0.6602    0.0906 C   0  0  0  0  0  0  0  0  0  0  0  0
   -8.8564   -0.2660    0.5010 C   0  0  0  0  0  0  0  0  0  0  0  0
   -0.8289   -1.9489    0.0429 H   0  0  0  0  0  0  0  0  0  0  0  0
   -0.0110   -1.3827   -1.4336 H   0  0  0  0  0  0  0  0  0  0  0  0
   -2.7326   -1.6524   -1.1337 H   0  0  0  0  0  0  0  0  0  0  0  0
   -2.3605    2.0989    0.9852 H   0  0  0  0  0  0  0  0  0  0  0  0
    3.7279   -1.6338   -0.2516 H   0  0  0  0  0  0  0  0  0  0  0  0
    3.7124   -0.8733    1.3717 H   0  0  0  0  0  0  0  0  0  0  0  0
   -5.0875   -1.6385   -0.7893 H   0  0  0  0  0  0  0  0  0  0  0  0
   -4.7851    2.1385    1.3244 H   0  0  0  0  0  0  0  0  0  0  0  0
    2.3690    2.4046   -1.9116 H   0  0  0  0  0  0  0  0  0  0  0  0
    1.9338    3.2295   -0.3950 H   0  0  0  0  0  0  0  0  0  0  0  0
    0.7685    3.1245   -1.7307 H   0  0  0  0  0  0  0  0  0  0  0  0
   -6.8638    1.0955    1.0073 H   0  0  0  0  0  0  0  0  0  0  0  0
    5.6321   -1.4453   -1.6926 H   0  0  0  0  0  0  0  0  0  0  0  0
    5.5497    0.3852    2.2090 H   0  0  0  0  0  0  0  0  0  0  0  0
    8.0868   -1.1772   -1.7592 H   0  0  0  0  0  0  0  0  0  0  0  0
    8.0043    0.6476    2.1303 H   0  0  0  0  0  0  0  0  0  0  0  0
    9.2780   -0.1309    0.1488 H   0  0  0  0  0  0  0  0  0  0  0  0
   -8.9188   -0.2094    1.5913 H   0  0  0  0  0  0  0  0  0  0  0  0
   -9.5724   -1.0104    0.1418 H   0  0  0  0  0  0  0  0  0  0  0  0
   -9.1098    0.7063    0.0690 H   0  0  0  0  0  0  0  0  0  0  0  0
  1  9  1  0  0  0  0
  1 10  1  0  0  0  0
  2 24  2  0  0  0  0
  3  4  1  0  0  0  0
  3 10  1  0  0  0  0
  3 18  1  0  0  0  0
  4  7  2  0  0  0  0
  5 10  2  0  0  0  0
  5 16  1  0  0  0  0
  6 13  1  0  0  0  0
  6 24  1  0  0  0  0
  6 37  1  0  0  0  0
  7  8  1  0  0  0  0
  7  9  1  0  0  0  0
  8 11  2  0  0  0  0
  8 12  1  0  0  0  0
  9 26  1  0  0  0  0
  9 27  1  0  0  0  0
 11 14  1  0  0  0  0
 11 28  1  0  0  0  0
 12 15  2  0  0  0  0
 12 29  1  0  0  0  0
 13 14  2  0  0  0  0
 13 15  1  0  0  0  0
 14 32  1  0  0  0  0
 15 33  1  0  0  0  0
 16 17  1  0  0  0  0
 16 30  1  0  0  0  0
 16 31  1  0  0  0  0
 17 19  2  0  0  0  0
 17 20  1  0  0  0  0
 18 34  1  0  0  0  0
 18 35  1  0  0  0  0
 18 36  1  0  0  0  0
 19 21  1  0  0  0  0
 19 38  1  0  0  0  0
 20 22  2  0  0  0  0
 20 39  1  0  0  0  0
 21 23  2  0  0  0  0
 21 40  1  0  0  0  0
 22 23  1  0  0  0  0
 22 41  1  0  0  0  0
 23 42  1  0  0  0  0
 24 25  1  0  0  0  0
 25 43  1  0  0  0  0
 25 44  1  0  0  0  0
 25 45  1  0  0  0  0
M  END
> <PUBCHEM_COMPOUND_CID>
4968791

> <PUBCHEM_CONFORMER_RMSD>
0.8

> <PUBCHEM_CONFORMER_DIVERSEORDER>
1
12
7
15
21
17
14
13
20
5
2
10
18
27
29
23
8
16
25
9
4
6
11
19
3
24
28
22
26

> <PUBCHEM_MMFF94_PARTIAL_CHARGES>
35
1 -0.37
10 0.64
11 -0.15
12 -0.15
13 0.12
14 -0.15
15 -0.15
16 0.39
17 -0.14
18 0.37
19 -0.15
2 -0.57
20 -0.15
21 -0.15
22 -0.15
23 -0.15
24 0.57
25 0.06
28 0.15
29 0.15
3 -0.38
32 0.15
33 0.15
37 0.37
38 0.15
39 0.15
4 -0.49
40 0.15
41 0.15
42 0.15
5 -0.7
6 -0.55
7 0.3
8 0.09
9 0.29

> <PUBCHEM_EFFECTIVE_ROTOR_COUNT>
5.6

> <PUBCHEM_PHARMACOPHORE_FEATURES>
7
1 2 acceptor
1 4 acceptor
1 6 donor
3 3 5 10 cation
6 1 3 4 7 9 10 rings
6 17 19 20 21 22 23 rings
6 8 11 12 13 14 15 rings

> <PUBCHEM_HEAVY_ATOM_COUNT>
25

> <PUBCHEM_ATOM_DEF_STEREO_COUNT>
0

> <PUBCHEM_ATOM_UDEF_STEREO_COUNT>
0

> <PUBCHEM_BOND_DEF_STEREO_COUNT>
0

> <PUBCHEM_BOND_UDEF_STEREO_COUNT>
0

> <PUBCHEM_ISOTOPIC_ATOM_COUNT>
0

> <PUBCHEM_COMPONENT_COUNT>
1

> <PUBCHEM_CACTVS_TAUTO_COUNT>
3

> <PUBCHEM_CONFORMER_ID>
004BD15700000001

> <PUBCHEM_MMFF94_ENERGY>
92.1563

> <PUBCHEM_FEATURE_SELFOVERLAP>
35.522

> <PUBCHEM_SHAPE_FINGERPRINT>
10 15 16056880242834705644
10050765 1 17899423261491822923
10066227 49 14346062089262203472
10299344 5 18409450284632062358
106641 1 18343862234254998480
11135609 99 18262804098489328823
11315181 36 18273497867050013761
11638347 137 16917073243778022398
12166972 35 18413109476314524273
12236239 1 18412829105792670205
12516196 113 18408322173133644852
13617811 41 18187938253254026998
13673619 4 17675922105662087613
13685833 64 18187082858196808808
13862211 1 18113615669109363130
14251764 18 18410575093258294766
14251764 46 15719111353366936635
14849402 71 18129660932367499832
14933364 13 17561081402344207594
15183329 4 17967535670692032154
15247644 1 17167860855537787754
15419008 47 17203322295497080832
15461852 350 16916775281039248717
15510794 2 17846502526551254534
15840311 113 18130786798067201136
15849732 13 18272368672238435022
16120349 18 18340201990111448596
18006028 8 17676205766697802748
18335252 98 18060138722465087978
18681886 176 18412538834306056857
21095123 145 13038897881202481325
21150785 3 14273455885992483755
21267235 1 18409171008425315309
21781055 127 17487646119989113609
22224240 67 18342173371246497602
232437 2 18343866598738661390
23559900 14 13840559505204726943
23569943 247 17979644437884225330
246663 6 17894352181052791283
249057 3 18259986007015730051
335352 9 18259988196947904423
33684 2 7925913677167957570
3383291 50 18409733993161306587
34797466 226 16988846081884963252
4073 2 18272086145813089502
4340502 62 16272209674419493724
5219985 9 17821728329826335572
59682541 35 18342737446380864322
5969126 39 17312814962358239205
59755656 520 13038895621417148572
67123 10 18060137652179487330
9663363 56 17967809453519628052

> <PUBCHEM_SHAPE_MULTIPOLES>
492.54
26.16
1.54
1.02
3.01
0.67
-0.08
-7.76
-4.27
0.5
0.42
-1.12
0.14
-0.37

> <PUBCHEM_SHAPE_SELFOVERLAP>
1036.93

> <PUBCHEM_SHAPE_VOLUME>
277.8

> <PUBCHEM_COORDINATE_TYPE>
2
5
10

$$$$
