3742880
  -OEChem-01171811453D

 35 39  0     1  0  0  0  0  0999 V2000
    0.4887   -2.1976   -0.8107 O   0  0  0  0  0  0  0  0  0  0  0  0
    0.4450   -0.6765    1.7466 O   0  0  0  0  0  0  0  0  0  0  0  0
    2.2826   -0.6468   -2.6099 O   0  0  0  0  0  0  0  0  0  0  0  0
    0.9543   -0.8593   -0.6056 C   0  0  0  0  0  0  0  0  0  0  0  0
   -0.3992   -1.1282   -1.1781 C   0  0  2  0  0  0  0  0  0  0  0  0
    1.1972   -0.4966    0.8102 C   0  0  0  0  0  0  0  0  0  0  0  0
    2.1357   -0.4811   -1.4157 C   0  0  0  0  0  0  0  0  0  0  0  0
   -1.6531   -0.9821   -0.3758 C   0  0  0  0  0  0  0  0  0  0  0  0
    2.5350    0.1176    0.8283 C   0  0  0  0  0  0  0  0  0  0  0  0
    3.0795    0.1267   -0.4632 C   0  0  0  0  0  0  0  0  0  0  0  0
   -2.3915    0.2233   -0.3386 C   0  0  0  0  0  0  0  0  0  0  0  0
   -2.1038   -2.0895    0.3592 C   0  0  0  0  0  0  0  0  0  0  0  0
    3.2236    0.6300    1.9091 C   0  0  0  0  0  0  0  0  0  0  0  0
    4.3313    0.6484   -0.7189 C   0  0  0  0  0  0  0  0  0  0  0  0
   -3.5731    0.3030    0.4359 C   0  0  0  0  0  0  0  0  0  0  0  0
   -3.2657   -2.0110    1.1213 C   0  0  0  0  0  0  0  0  0  0  0  0
   -1.9676    1.3495   -1.0628 C   0  0  0  0  0  0  0  0  0  0  0  0
   -3.9966   -0.8232    1.1604 C   0  0  0  0  0  0  0  0  0  0  0  0
    4.4929    1.1625    1.6654 C   0  0  0  0  0  0  0  0  0  0  0  0
    5.0405    1.1716    0.3662 C   0  0  0  0  0  0  0  0  0  0  0  0
   -4.2963    1.5066    0.4634 C   0  0  0  0  0  0  0  0  0  0  0  0
   -2.6986    2.5371   -1.0242 C   0  0  0  0  0  0  0  0  0  0  0  0
   -3.8609    2.6155   -0.2626 C   0  0  0  0  0  0  0  0  0  0  0  0
   -0.5153   -0.9835   -2.2496 H   0  0  0  0  0  0  0  0  0  0  0  0
   -1.5623   -3.0319    0.3441 H   0  0  0  0  0  0  0  0  0  0  0  0
    2.8062    0.6243    2.9093 H   0  0  0  0  0  0  0  0  0  0  0  0
    4.7559    0.6566   -1.7160 H   0  0  0  0  0  0  0  0  0  0  0  0
   -3.6055   -2.8750    1.6849 H   0  0  0  0  0  0  0  0  0  0  0  0
   -1.0650    1.3345   -1.6685 H   0  0  0  0  0  0  0  0  0  0  0  0
   -4.9020   -0.7848    1.7625 H   0  0  0  0  0  0  0  0  0  0  0  0
    5.0689    1.5765    2.4891 H   0  0  0  0  0  0  0  0  0  0  0  0
    6.0303    1.5924    0.2083 H   0  0  0  0  0  0  0  0  0  0  0  0
   -5.2075    1.5907    1.0521 H   0  0  0  0  0  0  0  0  0  0  0  0
   -2.3598    3.4013   -1.5882 H   0  0  0  0  0  0  0  0  0  0  0  0
   -4.4294    3.5406   -0.2327 H   0  0  0  0  0  0  0  0  0  0  0  0
  1  4  1  0  0  0  0
  1  5  1  0  0  0  0
  2  6  2  0  0  0  0
  3  7  2  0  0  0  0
  4  5  1  0  0  0  0
  4  6  1  0  0  0  0
  4  7  1  0  0  0  0
  5  8  1  0  0  0  0
  5 24  1  0  0  0  0
  6  9  1  0  0  0  0
  7 10  1  0  0  0  0
  8 11  1  0  0  0  0
  8 12  2  0  0  0  0
  9 10  1  0  0  0  0
  9 13  2  0  0  0  0
 10 14  2  0  0  0  0
 11 15  1  0  0  0  0
 11 17  2  0  0  0  0
 12 16  1  0  0  0  0
 12 25  1  0  0  0  0
 13 19  1  0  0  0  0
 13 26  1  0  0  0  0
 14 20  1  0  0  0  0
 14 27  1  0  0  0  0
 15 18  1  0  0  0  0
 15 21  2  0  0  0  0
 16 18  2  0  0  0  0
 16 28  1  0  0  0  0
 17 22  1  0  0  0  0
 17 29  1  0  0  0  0
 18 30  1  0  0  0  0
 19 20  2  0  0  0  0
 19 31  1  0  0  0  0
 20 32  1  0  0  0  0
 21 23  1  0  0  0  0
 21 33  1  0  0  0  0
 22 23  2  0  0  0  0
 22 34  1  0  0  0  0
 23 35  1  0  0  0  0
M  END
> <PUBCHEM_COMPOUND_CID>
3742880

> <PUBCHEM_CONFORMER_RMSD>
0.6

> <PUBCHEM_CONFORMER_DIVERSEORDER>
1
4
3
2

> <PUBCHEM_MMFF94_PARTIAL_CHARGES>
33
1 -0.3
10 0.09
12 -0.15
13 -0.15
14 -0.15
16 -0.15
17 -0.15
18 -0.15
19 -0.15
2 -0.57
20 -0.15
21 -0.15
22 -0.15
23 -0.15
24 0.1
25 0.15
26 0.15
27 0.15
28 0.15
29 0.15
3 -0.57
30 0.15
31 0.15
32 0.15
33 0.15
34 0.15
35 0.15
4 0.15
5 0.08
6 0.48
7 0.48
8 -0.03
9 0.09

> <PUBCHEM_EFFECTIVE_ROTOR_COUNT>
1.4

> <PUBCHEM_PHARMACOPHORE_FEATURES>
7
1 1 acceptor
1 2 acceptor
1 3 acceptor
5 4 6 7 9 10 rings
6 11 15 17 21 22 23 rings
6 8 11 12 15 16 18 rings
6 9 10 13 14 19 20 rings

> <PUBCHEM_HEAVY_ATOM_COUNT>
23

> <PUBCHEM_ATOM_DEF_STEREO_COUNT>
0

> <PUBCHEM_ATOM_UDEF_STEREO_COUNT>
1

> <PUBCHEM_BOND_DEF_STEREO_COUNT>
0

> <PUBCHEM_BOND_UDEF_STEREO_COUNT>
0

> <PUBCHEM_ISOTOPIC_ATOM_COUNT>
0

> <PUBCHEM_COMPONENT_COUNT>
1

> <PUBCHEM_CACTVS_TAUTO_COUNT>
1

> <PUBCHEM_CONFORMER_ID>
00391CA000000001

> <PUBCHEM_MMFF94_ENERGY>
71.5156

> <PUBCHEM_FEATURE_SELFOVERLAP>
35.638

> <PUBCHEM_SHAPE_FINGERPRINT>
10165383 225 17988659518107619579
10319926 262 18408599245784727714
10369192 42 16985758803352789208
10498660 4 18130217173433862777
10646746 165 18409732837613759964
10928967 22 15141784113086693618
11552529 35 17460032001274158554
11595378 159 17894629270567283816
12173636 292 18189335676381830757
12236239 1 17022903497104324691
12403259 415 18130794486132065500
12596602 18 17240764046799393872
12633257 1 17894347769974107525
12730499 353 17632864122401238079
12788726 201 17098932591677397283
12892183 10 18041549326186292746
12969540 114 16558746867041550832
13583140 156 18270102609213217986
13726171 33 18337691787907089536
13782708 43 18059309719819024719
13965767 371 17172362092621680805
14081887 123 18334016081911344245
14178342 30 18113339704254453083
14289901 80 18113056051634098842
14341114 328 17603872208184369828
15209294 21 17749103387766836576
18186145 218 17275103968261850730
18219364 16 17846774148133944745
18915476 22 17632306626797852510
19784866 34 16486975141615923690
19862831 5 14117792522610026869
200 152 15502366885389187339
21033648 29 18130780183701241624
21756936 100 18262509407924037664
231179 274 17917991685424057402
23557571 272 18339092556755173967
23559900 14 18190756240519613351
238 59 17059475353861583573
25 1 17060623317289654342
27216 239 18342167899753171897
341906 21 18334013886761108461
3633792 109 17096343100429295807
392239 28 17170975917427571441
4169191 19 16055456466663378104
469060 322 18198332056540613639
574716 61 14764340556989016248
633830 44 15697729215456132616
7097593 13 17386555843693520627
7808743 9 18335145284279162404
90316 7 17385442094655463949
9849439 229 17974002843901291949

> <PUBCHEM_SHAPE_MULTIPOLES>
455.72
9.57
2.31
1.76
4.11
0.56
-0.16
4.69
2.91
-3.08
-0.18
1.48
-0.18
1.41

> <PUBCHEM_SHAPE_SELFOVERLAP>
1045.876

> <PUBCHEM_SHAPE_VOLUME>
236.7

> <PUBCHEM_COORDINATE_TYPE>
2
5
10

$$$$
