2371600
  -OEChem-01171811523D

 39 41  0     0  0  0  0  0  0999 V2000
   -0.7452   -3.6557    0.9642 S   0  0  0  0  0  0  0  0  0  0  0  0
   -0.5470   -1.1081   -0.0499 N   0  0  0  0  0  0  0  0  0  0  0  0
    1.4380   -2.3018    0.4534 N   0  0  0  0  0  0  0  0  0  0  0  0
   -3.3776    3.0890    0.6466 N   0  0  0  0  0  0  0  0  0  0  0  0
   -2.3688    0.5255    0.0655 C   0  0  0  0  0  0  0  0  0  0  0  0
   -1.8912   -0.7611   -0.2328 C   0  0  0  0  0  0  0  0  0  0  0  0
   -3.7335    0.8155   -0.1401 C   0  0  0  0  0  0  0  0  0  0  0  0
    4.2721    0.6505   -0.4214 C   0  0  0  0  0  0  0  0  0  0  0  0
    5.2823    1.7024   -0.7336 C   0  0  0  0  0  0  0  0  0  0  0  0
    2.3976   -1.3019    0.1569 C   0  0  0  0  0  0  0  0  0  0  0  0
   -2.7532   -1.7420   -0.7263 C   0  0  0  0  0  0  0  0  0  0  0  0
    4.5590   -0.3333    0.5248 C   0  0  0  0  0  0  0  0  0  0  0  0
    3.0404    0.6503   -1.0762 C   0  0  0  0  0  0  0  0  0  0  0  0
   -4.5920   -0.1792   -0.6369 C   0  0  0  0  0  0  0  0  0  0  0  0
    3.6144   -1.3173    0.8163 C   0  0  0  0  0  0  0  0  0  0  0  0
    2.0956   -0.3336   -0.7847 C   0  0  0  0  0  0  0  0  0  0  0  0
   -1.5299    1.5304    0.5610 C   0  0  0  0  0  0  0  0  0  0  0  0
   -4.1006   -1.4517   -0.9278 C   0  0  0  0  0  0  0  0  0  0  0  0
    0.0532   -2.2898    0.3832 C   0  0  0  0  0  0  0  0  0  0  0  0
   -4.1717    2.1051    0.1675 C   0  0  0  0  0  0  0  0  0  0  0  0
    5.1358    2.9314    0.1599 C   0  0  0  0  0  0  0  0  0  0  0  0
   -2.0775    2.7753    0.8306 C   0  0  0  0  0  0  0  0  0  0  0  0
    6.2945    1.2929   -0.6260 H   0  0  0  0  0  0  0  0  0  0  0  0
    5.1959    2.0044   -1.7848 H   0  0  0  0  0  0  0  0  0  0  0  0
   -2.4077   -2.7188   -1.0470 H   0  0  0  0  0  0  0  0  0  0  0  0
    5.5142   -0.3429    1.0432 H   0  0  0  0  0  0  0  0  0  0  0  0
    2.8154    1.3969   -1.8334 H   0  0  0  0  0  0  0  0  0  0  0  0
    0.0402   -0.3024    0.1016 H   0  0  0  0  0  0  0  0  0  0  0  0
   -5.6457    0.0318   -0.8042 H   0  0  0  0  0  0  0  0  0  0  0  0
    3.8467   -2.0784    1.5558 H   0  0  0  0  0  0  0  0  0  0  0  0
    1.2159   -0.3498   -1.4173 H   0  0  0  0  0  0  0  0  0  0  0  0
   -0.4733    1.3977    0.7601 H   0  0  0  0  0  0  0  0  0  0  0  0
   -4.7660   -2.2103   -1.3297 H   0  0  0  0  0  0  0  0  0  0  0  0
    1.8180   -3.1086    0.9444 H   0  0  0  0  0  0  0  0  0  0  0  0
   -5.2104    2.3944    0.0326 H   0  0  0  0  0  0  0  0  0  0  0  0
    4.1488    3.3911    0.0421 H   0  0  0  0  0  0  0  0  0  0  0  0
    5.8924    3.6788   -0.0988 H   0  0  0  0  0  0  0  0  0  0  0  0
    5.2622    2.6705    1.2161 H   0  0  0  0  0  0  0  0  0  0  0  0
   -1.4603    3.5796    1.2180 H   0  0  0  0  0  0  0  0  0  0  0  0
  1 19  2  0  0  0  0
  2  6  1  0  0  0  0
  2 19  1  0  0  0  0
  2 28  1  0  0  0  0
  3 10  1  0  0  0  0
  3 19  1  0  0  0  0
  3 34  1  0  0  0  0
  4 20  2  0  0  0  0
  4 22  1  0  0  0  0
  5  6  1  0  0  0  0
  5  7  2  0  0  0  0
  5 17  1  0  0  0  0
  6 11  2  0  0  0  0
  7 14  1  0  0  0  0
  7 20  1  0  0  0  0
  8  9  1  0  0  0  0
  8 12  2  0  0  0  0
  8 13  1  0  0  0  0
  9 21  1  0  0  0  0
  9 23  1  0  0  0  0
  9 24  1  0  0  0  0
 10 15  2  0  0  0  0
 10 16  1  0  0  0  0
 11 18  1  0  0  0  0
 11 25  1  0  0  0  0
 12 15  1  0  0  0  0
 12 26  1  0  0  0  0
 13 16  2  0  0  0  0
 13 27  1  0  0  0  0
 14 18  2  0  0  0  0
 14 29  1  0  0  0  0
 15 30  1  0  0  0  0
 16 31  1  0  0  0  0
 17 22  2  0  0  0  0
 17 32  1  0  0  0  0
 18 33  1  0  0  0  0
 20 35  1  0  0  0  0
 21 36  1  0  0  0  0
 21 37  1  0  0  0  0
 21 38  1  0  0  0  0
 22 39  1  0  0  0  0
M  END
> <PUBCHEM_COMPOUND_CID>
2371600

> <PUBCHEM_CONFORMER_RMSD>
0.8

> <PUBCHEM_CONFORMER_DIVERSEORDER>
1
13
12
7
6
11
3
10
2
5
8
9
4

> <PUBCHEM_MMFF94_PARTIAL_CHARGES>
31
1 -0.38
10 0.12
11 -0.15
12 -0.15
13 -0.15
14 -0.15
15 -0.15
16 -0.15
17 -0.15
18 -0.15
19 0.5
2 -0.55
20 0.16
22 0.16
25 0.15
26 0.15
27 0.15
28 0.37
29 0.15
3 -0.55
30 0.15
31 0.15
32 0.15
33 0.15
34 0.37
35 0.15
39 0.15
4 -0.62
6 0.12
8 -0.14
9 0.14

> <PUBCHEM_EFFECTIVE_ROTOR_COUNT>
5

> <PUBCHEM_PHARMACOPHORE_FEATURES>
8
1 1 acceptor
1 2 donor
1 21 hydrophobe
1 3 donor
1 4 acceptor
6 4 5 7 17 20 22 rings
6 5 6 7 11 14 18 rings
6 8 10 12 13 15 16 rings

> <PUBCHEM_HEAVY_ATOM_COUNT>
22

> <PUBCHEM_ATOM_DEF_STEREO_COUNT>
0

> <PUBCHEM_ATOM_UDEF_STEREO_COUNT>
0

> <PUBCHEM_BOND_DEF_STEREO_COUNT>
0

> <PUBCHEM_BOND_UDEF_STEREO_COUNT>
0

> <PUBCHEM_ISOTOPIC_ATOM_COUNT>
0

> <PUBCHEM_COMPONENT_COUNT>
1

> <PUBCHEM_CACTVS_TAUTO_COUNT>
3

> <PUBCHEM_CONFORMER_ID>
0024301000000001

> <PUBCHEM_MMFF94_ENERGY>
91.7052

> <PUBCHEM_FEATURE_SELFOVERLAP>
40.66

> <PUBCHEM_SHAPE_FINGERPRINT>
10498660 4 18342176648237764716
10670039 82 18409457981640874716
10871710 139 18412265034573274845
10906281 52 18058732378658561637
12107183 9 17834109750030692098
12173636 292 18056751040918635799
12403260 363 18338505370676328506
12596602 18 17603579776766777434
12788726 201 18341613758609018995
13583140 156 16515968167575258802
13590594 115 17185324136438493658
13965767 371 17823419279872287860
14251764 38 18340771451234803558
14251764 75 18127704724993055561
14341114 328 18342741801530397509
14739800 52 18196916968238538888
14767858 380 18339063995956463887
14787075 74 18335416915813420019
14790565 3 17840878365508942417
14931854 50 18411697720426705180
15196674 1 18410855447485963564
15420108 30 16471222069331845530
17492 89 18339923697626844383
20511986 3 18262502758534227685
20715895 44 17544467562426780341
21033648 29 15864062139935771038
21033650 10 18128841706046480796
21095088 737 18341056314745616768
21864079 5 18409174290028151826
235170 7 16988852678416777356
23557571 272 17917990559747194775
23558518 356 18195245516900835355
23559900 14 17773034151092934166
245318 6 17606134007167497220
312425 83 17917721201432181902
3472631 163 18271246010974810597
38570 142 17025469762176435892
4340502 62 17386864807447142025
474 4 18187929404756616547
5048184 11 18338522923822389360
5104073 3 18113334232629428122
6328613 192 18114754823939571876
633830 44 18339079276648340447
67856867 119 18337663144927402386
7808743 9 18338237180238919856
9981440 41 18335138721679930386

> <PUBCHEM_SHAPE_MULTIPOLES>
441.66
11.31
3.89
0.99
8.33
0.02
0.04
-7.17
1.66
-1.12
-1.39
0.03
0.1
-1.46

> <PUBCHEM_SHAPE_SELFOVERLAP>
948.091

> <PUBCHEM_SHAPE_VOLUME>
244.7

> <PUBCHEM_COORDINATE_TYPE>
2
5
10

$$$$
