807887
  -OEChem-01171811423D

 36 38  0     0  0  0  0  0  0999 V2000
    1.1114   -0.0684    1.6666 S   0  0  0  0  0  0  0  0  0  0  0  0
   -4.6933    1.2986    0.0243 S   0  0  0  0  0  0  0  0  0  0  0  0
    5.9230   -0.8565   -0.1662 O   0  0  0  0  0  0  0  0  0  0  0  0
   -1.9342    2.4932   -0.7943 O   0  0  0  0  0  0  0  0  0  0  0  0
    0.8147    1.2872   -0.5075 N   0  0  0  0  0  0  0  0  0  0  0  0
   -1.0857    1.1676    0.9644 N   0  0  0  0  0  0  0  0  0  0  0  0
    2.4624    0.0264    0.5995 C   0  0  0  0  0  0  0  0  0  0  0  0
    2.1122    0.7959   -0.5142 C   0  0  0  0  0  0  0  0  0  0  0  0
    3.7400   -0.5395    0.7376 C   0  0  0  0  0  0  0  0  0  0  0  0
    0.2020    0.8956    0.5854 C   0  0  0  0  0  0  0  0  0  0  0  0
    3.0767    1.0043   -1.5242 C   0  0  0  0  0  0  0  0  0  0  0  0
    4.6758   -0.3179   -0.2761 C   0  0  0  0  0  0  0  0  0  0  0  0
    4.3504    0.4436   -1.3932 C   0  0  0  0  0  0  0  0  0  0  0  0
   -3.3829    2.0224    1.0406 C   0  0  0  0  0  0  0  0  0  0  0  0
   -2.0731    1.9282    0.2876 C   0  0  0  0  0  0  0  0  0  0  0  0
   -4.0746   -0.3479   -0.1498 C   0  0  0  0  0  0  0  0  0  0  0  0
   -3.8575   -1.1508    0.9793 C   0  0  0  0  0  0  0  0  0  0  0  0
   -3.7934   -0.8723   -1.4197 C   0  0  0  0  0  0  0  0  0  0  0  0
   -3.3695   -2.4503    0.8416 C   0  0  0  0  0  0  0  0  0  0  0  0
   -3.3055   -2.1718   -1.5575 C   0  0  0  0  0  0  0  0  0  0  0  0
   -3.0936   -2.9607   -0.4268 C   0  0  0  0  0  0  0  0  0  0  0  0
    6.1948   -1.6270    1.0024 C   0  0  0  0  0  0  0  0  0  0  0  0
    3.9384   -1.1237    1.6282 H   0  0  0  0  0  0  0  0  0  0  0  0
    2.8331    1.5977   -2.4010 H   0  0  0  0  0  0  0  0  0  0  0  0
    5.0870    0.6090   -2.1754 H   0  0  0  0  0  0  0  0  0  0  0  0
   -1.3474    0.7561    1.8568 H   0  0  0  0  0  0  0  0  0  0  0  0
   -3.6021    3.0811    1.2116 H   0  0  0  0  0  0  0  0  0  0  0  0
   -3.3334    1.5354    2.0182 H   0  0  0  0  0  0  0  0  0  0  0  0
   -4.0727   -0.7809    1.9790 H   0  0  0  0  0  0  0  0  0  0  0  0
   -3.9502   -0.2738   -2.3143 H   0  0  0  0  0  0  0  0  0  0  0  0
   -3.2059   -3.0652    1.7217 H   0  0  0  0  0  0  0  0  0  0  0  0
   -3.0900   -2.5694   -2.5449 H   0  0  0  0  0  0  0  0  0  0  0  0
   -2.7137   -3.9725   -0.5341 H   0  0  0  0  0  0  0  0  0  0  0  0
    5.5609   -2.5187    1.0544 H   0  0  0  0  0  0  0  0  0  0  0  0
    6.1331   -1.0181    1.9108 H   0  0  0  0  0  0  0  0  0  0  0  0
    7.2294   -1.9770    0.9244 H   0  0  0  0  0  0  0  0  0  0  0  0
  1  7  1  0  0  0  0
  1 10  1  0  0  0  0
  2 14  1  0  0  0  0
  2 16  1  0  0  0  0
  3 12  1  0  0  0  0
  3 22  1  0  0  0  0
  4 15  2  0  0  0  0
  5  8  1  0  0  0  0
  5 10  2  0  0  0  0
  6 10  1  0  0  0  0
  6 15  1  0  0  0  0
  6 26  1  0  0  0  0
  7  8  2  0  0  0  0
  7  9  1  0  0  0  0
  8 11  1  0  0  0  0
  9 12  2  0  0  0  0
  9 23  1  0  0  0  0
 11 13  2  0  0  0  0
 11 24  1  0  0  0  0
 12 13  1  0  0  0  0
 13 25  1  0  0  0  0
 14 15  1  0  0  0  0
 14 27  1  0  0  0  0
 14 28  1  0  0  0  0
 16 17  2  0  0  0  0
 16 18  1  0  0  0  0
 17 19  1  0  0  0  0
 17 29  1  0  0  0  0
 18 20  2  0  0  0  0
 18 30  1  0  0  0  0
 19 21  2  0  0  0  0
 19 31  1  0  0  0  0
 20 21  1  0  0  0  0
 20 32  1  0  0  0  0
 21 33  1  0  0  0  0
 22 34  1  0  0  0  0
 22 35  1  0  0  0  0
 22 36  1  0  0  0  0
M  END
> <PUBCHEM_COMPOUND_CID>
807887

> <PUBCHEM_CONFORMER_RMSD>
0.8

> <PUBCHEM_CONFORMER_DIVERSEORDER>
2
9
67
72
82
49
64
65
79
44
38
68
57
28
23
60
36
80
43
73
54
27
70
84
85
83
46
3
14
47
69
39
59
51
77
17
63
37
52
78
16
42
26
15
55
33
8
45
20
40
56
13
1
35
66
48
71
74
19
29
30
58
18
34
11
21
76
10
61
22
41
32
5
12
62
81
4
53
6
25
50
7
31
24
75

> <PUBCHEM_MMFF94_PARTIAL_CHARGES>
31
1 -0.08
10 0.44
11 -0.15
12 0.08
13 -0.15
14 0.29
15 0.57
16 0.1
17 -0.15
18 -0.15
19 -0.15
2 -0.33
20 -0.15
21 -0.15
22 0.28
23 0.15
24 0.15
25 0.15
26 0.37
29 0.15
3 -0.36
30 0.15
31 0.15
32 0.15
33 0.15
4 -0.57
5 -0.57
6 -0.49
7 0.04
8 0.23
9 -0.15

> <PUBCHEM_EFFECTIVE_ROTOR_COUNT>
6

> <PUBCHEM_PHARMACOPHORE_FEATURES>
6
1 3 acceptor
1 4 acceptor
1 6 donor
5 1 5 7 8 10 rings
6 16 17 18 19 20 21 rings
6 7 8 9 11 12 13 rings

> <PUBCHEM_HEAVY_ATOM_COUNT>
22

> <PUBCHEM_ATOM_DEF_STEREO_COUNT>
0

> <PUBCHEM_ATOM_UDEF_STEREO_COUNT>
0

> <PUBCHEM_BOND_DEF_STEREO_COUNT>
0

> <PUBCHEM_BOND_UDEF_STEREO_COUNT>
0

> <PUBCHEM_ISOTOPIC_ATOM_COUNT>
0

> <PUBCHEM_COMPONENT_COUNT>
1

> <PUBCHEM_CACTVS_TAUTO_COUNT>
3

> <PUBCHEM_CONFORMER_ID>
000C53CF00000002

> <PUBCHEM_MMFF94_ENERGY>
59.7665

> <PUBCHEM_FEATURE_SELFOVERLAP>
30.517

> <PUBCHEM_SHAPE_FINGERPRINT>
11370993 144 16271665420084249163
11552529 35 13829551211635390189
11796584 16 18272654515571808502
12236239 1 18187650184574406584
12553582 1 18337102462769298481
12616971 3 17895204272563090408
12633257 1 16486147235177491667
12788726 201 18265604404233803585
12969540 114 15430037682024898712
13167823 11 18334581235008895584
14142880 1 8934734314191038967
14251740 79 18187081762822224547
14251751 18 18272650160464291114
14251751 93 18261674761869541148
14251757 5 18408038503317778749
14251764 30 17681569344076280835
14289585 56 16878219750016753022
14386348 63 17060341807562776340
15183329 4 17530962480325156754
15209294 21 10663821866802082672
16752209 62 18339911680534222507
16993438 75 13757252669837568762
17349148 13 17385999585752898488
17857418 61 18408882919605111690
18927931 339 18272375277776998751
20739085 24 13614255784403780896
20775438 99 16757163880555613431
20775530 9 16910307089892338895
21634736 98 18190465050532483445
23402539 116 18040720238405240656
23559900 14 18342165704635085072
23728640 28 18343304773823662787
249057 3 18336828598127210725
25122255 55 17845665737851364094
338550 245 18337115575247054486
3459 83 18041275453344420426
397830 11 17916567831405169818
484985 159 18342164584323730831
4921388 177 18343590629123884645
5104073 3 18201443605289821800
5326457 24 18264768758169345402
5364581 5 17845355799831133592
559249 180 18336825291117722625
574716 61 17822299040658677013
602551 16 18059857276867274886
633830 44 16732708241812546152
7495541 125 17988921189491399056
7970288 3 18194685002030646043

> <PUBCHEM_SHAPE_MULTIPOLES>
438.75
12.96
2.69
1.5
13.07
0.83
0.16
5.25
0.52
-3.8
0.11
0.18
0.17
-1.54

> <PUBCHEM_SHAPE_SELFOVERLAP>
919.06

> <PUBCHEM_SHAPE_VOLUME>
250

> <PUBCHEM_COORDINATE_TYPE>
2
5
10

$$$$
