9582306
  -OEChem-01171811523D

 30 31  0     0  0  0  0  0  0999 V2000
    6.4550   -0.3927   -0.0021 O   0  5  0  0  0  0  0  0  0  0  0  0
    5.8561    1.7193   -0.0021 O   0  0  0  0  0  0  0  0  0  0  0  0
   -4.4145   -0.4919   -0.0010 N   0  0  0  0  0  0  0  0  0  0  0  0
   -2.0665   -0.7236    0.0013 N   0  0  0  0  0  0  0  0  0  0  0  0
   -4.6083    1.6876    0.0009 N   0  0  0  0  0  0  0  0  0  0  0  0
   -3.2648    1.3698    0.0019 N   0  0  0  0  0  0  0  0  0  0  0  0
   -4.7497   -1.8657   -0.0026 N   0  0  0  0  0  0  0  0  0  0  0  0
   -0.8349   -0.1775    0.0019 N   0  0  0  0  0  0  0  0  0  0  0  0
    5.5703    0.4973   -0.0014 N   0  3  0  0  0  0  0  0  0  0  0  0
   -5.2809    0.5589   -0.0011 C   0  0  0  0  0  0  0  0  0  0  0  0
   -3.2109    0.0890    0.0009 C   0  0  0  0  0  0  0  0  0  0  0  0
    1.5206   -0.6516    0.0017 C   0  0  0  0  0  0  0  0  0  0  0  0
    2.5212   -1.6232    0.0009 C   0  0  0  0  0  0  0  0  0  0  0  0
    1.8618    0.7010    0.0015 C   0  0  0  0  0  0  0  0  0  0  0  0
    4.2045    0.1099   -0.0003 C   0  0  0  0  0  0  0  0  0  0  0  0
   -6.7473    0.4024   -0.0030 C   0  0  0  0  0  0  0  0  0  0  0  0
    3.8631   -1.2425    0.0000 C   0  0  0  0  0  0  0  0  0  0  0  0
    3.2037    1.0817    0.0006 C   0  0  0  0  0  0  0  0  0  0  0  0
    0.1216   -1.0485    0.0022 C   0  0  0  0  0  0  0  0  0  0  0  0
    2.2707   -2.6810    0.0009 H   0  0  0  0  0  0  0  0  0  0  0  0
    1.1047    1.4806    0.0021 H   0  0  0  0  0  0  0  0  0  0  0  0
   -7.0815   -0.1397   -0.8930 H   0  0  0  0  0  0  0  0  0  0  0  0
   -7.0837   -0.1411    0.8855 H   0  0  0  0  0  0  0  0  0  0  0  0
   -7.2380    1.3810   -0.0029 H   0  0  0  0  0  0  0  0  0  0  0  0
   -2.1634   -1.7362    0.0001 H   0  0  0  0  0  0  0  0  0  0  0  0
    4.6156   -2.0269   -0.0006 H   0  0  0  0  0  0  0  0  0  0  0  0
    3.4326    2.1445    0.0004 H   0  0  0  0  0  0  0  0  0  0  0  0
   -0.0852   -2.1353    0.0021 H   0  0  0  0  0  0  0  0  0  0  0  0
   -4.3783   -2.3523    0.8122 H   0  0  0  0  0  0  0  0  0  0  0  0
   -4.3774   -2.3507   -0.8181 H   0  0  0  0  0  0  0  0  0  0  0  0
  1  9  1  0  0  0  0
  2  9  2  0  0  0  0
  3  7  1  0  0  0  0
  3 10  1  0  0  0  0
  3 11  1  0  0  0  0
  4  8  1  0  0  0  0
  4 11  1  0  0  0  0
  4 25  1  0  0  0  0
  5  6  1  0  0  0  0
  5 10  2  0  0  0  0
  6 11  2  0  0  0  0
  7 29  1  0  0  0  0
  7 30  1  0  0  0  0
  8 19  2  0  0  0  0
  9 15  1  0  0  0  0
 10 16  1  0  0  0  0
 12 13  2  0  0  0  0
 12 14  1  0  0  0  0
 12 19  1  0  0  0  0
 13 17  1  0  0  0  0
 13 20  1  0  0  0  0
 14 18  2  0  0  0  0
 14 21  1  0  0  0  0
 15 17  2  0  0  0  0
 15 18  1  0  0  0  0
 16 22  1  0  0  0  0
 16 23  1  0  0  0  0
 16 24  1  0  0  0  0
 17 26  1  0  0  0  0
 18 27  1  0  0  0  0
 19 28  1  0  0  0  0
M  CHG  2   1  -1   9   1
M  END
> <PUBCHEM_COMPOUND_CID>
9582306

> <PUBCHEM_CONFORMER_RMSD>
0.6

> <PUBCHEM_CONFORMER_DIVERSEORDER>
1
16
15
3
6
14
12
2
13
11
10
8
9
4
5
7

> <PUBCHEM_MMFF94_PARTIAL_CHARGES>
27
1 -0.52
10 0.01
11 0.27
12 0.09
13 -0.15
14 -0.15
15 0.13
16 0.18
17 -0.15
18 -0.15
19 0.3
2 -0.52
20 0.15
21 0.15
25 0.4
26 0.15
27 0.15
28 0.06
29 0.36
3 0.45
30 0.36
4 -0.44
5 -0.34
6 -0.34
7 -0.87
8 -0.49
9 0.91

> <PUBCHEM_EFFECTIVE_ROTOR_COUNT>
4

> <PUBCHEM_PHARMACOPHORE_FEATURES>
9
1 1 acceptor
1 1 anion
1 2 acceptor
1 4 donor
1 7 donor
1 8 acceptor
4 3 4 6 11 cation
5 3 5 6 10 11 rings
6 12 13 14 15 17 18 rings

> <PUBCHEM_HEAVY_ATOM_COUNT>
19

> <PUBCHEM_ATOM_DEF_STEREO_COUNT>
0

> <PUBCHEM_ATOM_UDEF_STEREO_COUNT>
0

> <PUBCHEM_BOND_DEF_STEREO_COUNT>
1

> <PUBCHEM_BOND_UDEF_STEREO_COUNT>
0

> <PUBCHEM_ISOTOPIC_ATOM_COUNT>
0

> <PUBCHEM_COMPONENT_COUNT>
1

> <PUBCHEM_CACTVS_TAUTO_COUNT>
2

> <PUBCHEM_CONFORMER_ID>
009236E200000001

> <PUBCHEM_MMFF94_ENERGY>
42.5379

> <PUBCHEM_FEATURE_SELFOVERLAP>
45.754

> <PUBCHEM_SHAPE_FINGERPRINT>
10354089 29 18113900459700696868
10595046 47 18412260636410686547
10968037 39 18411980261557280175
12107183 9 17617376182473893667
12236239 1 18273213110190800526
13167372 99 18341051800571666040
13533116 47 15554172463286485150
14251718 22 18413671330934662067
14251732 16 18337110171602715322
14251764 46 18413669106874754266
14341114 176 18410017602609220343
14933364 13 18411984654317163945
15048467 5 18410292523571507732
15188451 53 15864647179691648355
15196674 1 18410855434363639264
17834072 33 18413669123479720982
17844677 252 18269000799323952205
20281389 69 18260264140223132308
20645477 70 18200033932920738942
22224240 67 14418136244651897536
23272321 79 18409167739870709525
23402539 116 18412821404146077943
23402655 69 18272650138683388926
23536379 177 18410573968214363714
23559900 14 18340762732583133177
26918003 58 10953459626437786247
2916195 48 18410007771402894616
29717793 49 17346887719701434332
300161 21 18113613474339182107
335352 9 18410858755560490510
34797466 226 17918281951850774085
3545911 37 18411419505656933241
4073 2 18041285451585082866
4214541 1 18410856560093509187
42788 4 18410855455838475750
4325135 7 18342736330385537023
5104073 3 18334859381254122931
542803 24 17346600759550424099
59755656 520 17749104512943449067
67856867 119 18189339129277489837
77779 3 18411138017816653559

> <PUBCHEM_SHAPE_MULTIPOLES>
344.41
17.09
1.59
0.57
5.04
0.05
0
-3.88
-0.02
-0.13
0
0
0.01
0

> <PUBCHEM_SHAPE_SELFOVERLAP>
733.697

> <PUBCHEM_SHAPE_VOLUME>
192.8

> <PUBCHEM_COORDINATE_TYPE>
2
5
10

$$$$
