3697347
  -OEChem-01171812093D

 53 56  0     0  0  0  0  0  0999 V2000
   -0.6438    2.2885    0.3536 S   0  0  0  0  0  0  0  0  0  0  0  0
    2.4389   -2.7543    0.1131 O   0  0  0  0  0  0  0  0  0  0  0  0
    2.2461    2.5514   -0.5271 O   0  0  0  0  0  0  0  0  0  0  0  0
   -0.2418    1.9044    1.6936 O   0  0  0  0  0  0  0  0  0  0  0  0
   -0.3385    3.6147   -0.1489 O   0  0  0  0  0  0  0  0  0  0  0  0
    0.0086   -1.6764   -0.3991 N   0  0  0  0  0  0  0  0  0  0  0  0
   -2.6121   -2.7959   -0.3673 N   0  0  0  0  0  0  0  0  0  0  0  0
   -0.1249    1.1245   -0.7547 N   0  0  0  0  0  0  0  0  0  0  0  0
   -0.4142   -2.5103    0.7253 C   0  0  0  0  0  0  0  0  0  0  0  0
   -0.6873   -1.9384   -1.6583 C   0  0  0  0  0  0  0  0  0  0  0  0
   -1.9339   -2.4427    0.8881 C   0  0  0  0  0  0  0  0  0  0  0  0
   -2.2012   -1.8835   -1.4442 C   0  0  0  0  0  0  0  0  0  0  0  0
    1.0909   -0.8486   -0.3246 C   0  0  0  0  0  0  0  0  0  0  0  0
   -4.0637   -2.7650   -0.1937 C   0  0  0  0  0  0  0  0  0  0  0  0
    1.1039    0.4823   -0.4778 C   0  0  0  0  0  0  0  0  0  0  0  0
    2.3881   -1.5369   -0.0344 C   0  0  0  0  0  0  0  0  0  0  0  0
    3.6178   -0.7242    0.0753 C   0  0  0  0  0  0  0  0  0  0  0  0
   -4.5202   -3.7713    0.8423 C   0  0  0  0  0  0  0  0  0  0  0  0
    2.3035    1.3372   -0.3778 C   0  0  0  0  0  0  0  0  0  0  0  0
    3.5787    0.6605   -0.0894 C   0  0  0  0  0  0  0  0  0  0  0  0
    4.8377   -1.3558    0.3492 C   0  0  0  0  0  0  0  0  0  0  0  0
    4.7532    1.4148    0.0184 C   0  0  0  0  0  0  0  0  0  0  0  0
    6.0073   -0.6021    0.4566 C   0  0  0  0  0  0  0  0  0  0  0  0
   -2.3963    2.0745    0.2477 C   0  0  0  0  0  0  0  0  0  0  0  0
    5.9651    0.7806    0.2916 C   0  0  0  0  0  0  0  0  0  0  0  0
   -3.0181    1.1715    1.0918 C   0  0  0  0  0  0  0  0  0  0  0  0
   -3.1117    2.8141   -0.6775 C   0  0  0  0  0  0  0  0  0  0  0  0
   -4.4001    1.0023    1.0079 C   0  0  0  0  0  0  0  0  0  0  0  0
   -4.4938    2.6448   -0.7613 C   0  0  0  0  0  0  0  0  0  0  0  0
   -5.1380    1.7390    0.0815 C   0  0  0  0  0  0  0  0  0  0  0  0
    0.0552   -2.1783    1.6598 H   0  0  0  0  0  0  0  0  0  0  0  0
   -0.1011   -3.5474    0.5509 H   0  0  0  0  0  0  0  0  0  0  0  0
   -0.3959   -2.9314   -2.0245 H   0  0  0  0  0  0  0  0  0  0  0  0
   -0.4015   -1.2231   -2.4390 H   0  0  0  0  0  0  0  0  0  0  0  0
   -2.1835   -3.1470    1.6882 H   0  0  0  0  0  0  0  0  0  0  0  0
   -2.2269   -1.4480    1.2258 H   0  0  0  0  0  0  0  0  0  0  0  0
   -2.5174   -0.8576   -1.2225 H   0  0  0  0  0  0  0  0  0  0  0  0
   -2.6875   -2.1750   -2.3830 H   0  0  0  0  0  0  0  0  0  0  0  0
   -4.4236   -1.7666    0.0765 H   0  0  0  0  0  0  0  0  0  0  0  0
   -4.5411   -3.0301   -1.1454 H   0  0  0  0  0  0  0  0  0  0  0  0
   -4.0755   -4.7580    0.6738 H   0  0  0  0  0  0  0  0  0  0  0  0
   -4.2955   -3.4515    1.8644 H   0  0  0  0  0  0  0  0  0  0  0  0
   -5.6080   -3.8899    0.7841 H   0  0  0  0  0  0  0  0  0  0  0  0
   -0.8576    0.5028   -1.1115 H   0  0  0  0  0  0  0  0  0  0  0  0
    4.8990   -2.4326    0.4826 H   0  0  0  0  0  0  0  0  0  0  0  0
    4.7445    2.4942   -0.1064 H   0  0  0  0  0  0  0  0  0  0  0  0
    6.9518   -1.0945    0.6692 H   0  0  0  0  0  0  0  0  0  0  0  0
    6.8766    1.3653    0.3755 H   0  0  0  0  0  0  0  0  0  0  0  0
   -2.4628    0.6127    1.8368 H   0  0  0  0  0  0  0  0  0  0  0  0
   -2.6276    3.5180   -1.3472 H   0  0  0  0  0  0  0  0  0  0  0  0
   -4.9025    0.3024    1.6692 H   0  0  0  0  0  0  0  0  0  0  0  0
   -5.0684    3.2170   -1.4838 H   0  0  0  0  0  0  0  0  0  0  0  0
   -6.2141    1.6079    0.0170 H   0  0  0  0  0  0  0  0  0  0  0  0
  1  4  2  0  0  0  0
  1  5  2  0  0  0  0
  1  8  1  0  0  0  0
  1 24  1  0  0  0  0
  2 16  2  0  0  0  0
  3 19  2  0  0  0  0
  6  9  1  0  0  0  0
  6 10  1  0  0  0  0
  6 13  1  0  0  0  0
  7 11  1  0  0  0  0
  7 12  1  0  0  0  0
  7 14  1  0  0  0  0
  8 15  1  0  0  0  0
  8 44  1  0  0  0  0
  9 11  1  0  0  0  0
  9 31  1  0  0  0  0
  9 32  1  0  0  0  0
 10 12  1  0  0  0  0
 10 33  1  0  0  0  0
 10 34  1  0  0  0  0
 11 35  1  0  0  0  0
 11 36  1  0  0  0  0
 12 37  1  0  0  0  0
 12 38  1  0  0  0  0
 13 15  2  0  0  0  0
 13 16  1  0  0  0  0
 14 18  1  0  0  0  0
 14 39  1  0  0  0  0
 14 40  1  0  0  0  0
 15 19  1  0  0  0  0
 16 17  1  0  0  0  0
 17 20  1  0  0  0  0
 17 21  2  0  0  0  0
 18 41  1  0  0  0  0
 18 42  1  0  0  0  0
 18 43  1  0  0  0  0
 19 20  1  0  0  0  0
 20 22  2  0  0  0  0
 21 23  1  0  0  0  0
 21 45  1  0  0  0  0
 22 25  1  0  0  0  0
 22 46  1  0  0  0  0
 23 25  2  0  0  0  0
 23 47  1  0  0  0  0
 24 26  2  0  0  0  0
 24 27  1  0  0  0  0
 25 48  1  0  0  0  0
 26 28  1  0  0  0  0
 26 49  1  0  0  0  0
 27 29  2  0  0  0  0
 27 50  1  0  0  0  0
 28 30  2  0  0  0  0
 28 51  1  0  0  0  0
 29 30  1  0  0  0  0
 29 52  1  0  0  0  0
 30 53  1  0  0  0  0
M  END
> <PUBCHEM_COMPOUND_CID>
3697347

> <PUBCHEM_CONFORMER_RMSD>
0.8

> <PUBCHEM_CONFORMER_DIVERSEORDER>
2
9
15
6
20
11
8
22
13
3
23
12
18
16
21
14
4
7
17
5
19
1
10

> <PUBCHEM_MMFF94_PARTIAL_CHARGES>
39
1 1.45
10 0.37
11 0.27
12 0.27
13 0.11
14 0.27
15 0.21
16 0.47
17 0.09
19 0.47
2 -0.57
20 0.09
21 -0.15
22 -0.15
23 -0.15
24 -0.01
25 -0.15
26 -0.15
27 -0.15
28 -0.15
29 -0.15
3 -0.57
30 -0.15
4 -0.65
44 0.42
45 0.15
46 0.15
47 0.15
48 0.15
49 0.15
5 -0.65
50 0.15
51 0.15
52 0.15
53 0.15
6 -0.84
7 -0.81
8 -0.75
9 0.37

> <PUBCHEM_EFFECTIVE_ROTOR_COUNT>
6.2

> <PUBCHEM_PHARMACOPHORE_FEATURES>
11
1 2 acceptor
1 3 acceptor
1 4 acceptor
1 5 acceptor
1 6 cation
1 7 cation
1 8 donor
6 13 15 16 17 19 20 rings
6 17 20 21 22 23 25 rings
6 24 26 27 28 29 30 rings
6 6 7 9 10 11 12 rings

> <PUBCHEM_HEAVY_ATOM_COUNT>
30

> <PUBCHEM_ATOM_DEF_STEREO_COUNT>
0

> <PUBCHEM_ATOM_UDEF_STEREO_COUNT>
0

> <PUBCHEM_BOND_DEF_STEREO_COUNT>
0

> <PUBCHEM_BOND_UDEF_STEREO_COUNT>
0

> <PUBCHEM_ISOTOPIC_ATOM_COUNT>
0

> <PUBCHEM_COMPONENT_COUNT>
1

> <PUBCHEM_CACTVS_TAUTO_COUNT>
3

> <PUBCHEM_CONFORMER_ID>
00386AC300000002

> <PUBCHEM_MMFF94_ENERGY>
78.1936

> <PUBCHEM_FEATURE_SELFOVERLAP>
55.867

> <PUBCHEM_SHAPE_FINGERPRINT>
10688039 33 18117560850053249135
1100329 8 18411136935348056744
11370993 70 18263926527724719757
11513181 2 18059574646455438903
11756154 67 17977952276973181222
12156800 1 18194651913474997707
12422481 6 18126876934940259323
12788726 201 18194416699796701316
13140716 1 18340485659858509176
13583140 156 17749116538904170633
14765038 42 18130240242061847849
14787075 74 18059002874464746985
14790565 3 18047481299114716620
14866123 147 18335977571874471418
15042514 8 18411420617805802964
15131766 46 16372443439594094940
17138139 8 17842237512277880789
17492 54 18269253704948564541
18603816 31 16298386825931749138
20197701 30 18265610992106681488
21033648 29 18195789805015913320
21041028 32 18266176321514410511
21133410 90 17274542148201463889
21236236 1 18413105091152375566
22182313 1 17773899573843772654
23227448 37 18410576158689947511
23419403 2 17130415989977345456
23559900 14 18272370837524489552
3380486 145 18264509380604233177
338550 245 18333456447572526972
350125 39 18339926029465966469
38695281 34 18120372056472700401
4340502 62 18339927000181764692
463206 1 18411136918163055709
469060 322 17385999589567785527
5104073 3 18338503219382646602
5171179 24 17629181978029159040
5486654 2 18341052900020197989
6438718 38 18060416936728191271

> <PUBCHEM_SHAPE_MULTIPOLES>
582.82
11.45
4.63
1.1
8.29
1.13
0.05
-0.72
-1.72
-5.96
-0.05
-0.74
0.18
0.14

> <PUBCHEM_SHAPE_SELFOVERLAP>
1254.68

> <PUBCHEM_SHAPE_VOLUME>
320.8

> <PUBCHEM_COORDINATE_TYPE>
2
5
10

$$$$
