51361067
  -OEChem-01171812173D

 23 24  0     0  0  0  0  0  0999 V2000
    0.7668   -2.6614   -0.1311 F   0  0  0  0  0  0  0  0  0  0  0  0
    4.0922    0.6705    0.2429 F   0  0  0  0  0  0  0  0  0  0  0  0
   -1.2028   -0.7709   -0.2217 N   0  0  0  0  0  0  0  0  0  0  0  0
    0.4641    0.9592   -0.0325 C   0  0  0  0  0  0  0  0  0  0  0  0
   -2.1475    0.1964   -0.2633 C   0  0  0  0  0  0  0  0  0  0  0  0
    0.0859   -0.3977   -0.1079 C   0  0  0  0  0  0  0  0  0  0  0  0
   -3.5627   -0.2600   -0.3893 C   0  0  0  0  0  0  0  0  0  0  0  0
   -0.5464    1.9292   -0.0793 C   0  0  0  0  0  0  0  0  0  0  0  0
   -1.8752    1.5477   -0.1965 C   0  0  0  0  0  0  0  0  0  0  0  0
    1.8189    1.3129    0.0857 C   0  0  0  0  0  0  0  0  0  0  0  0
    1.0901   -1.3609   -0.0615 C   0  0  0  0  0  0  0  0  0  0  0  0
   -4.2227   -0.4843    0.9685 C   0  0  0  0  0  0  0  0  0  0  0  0
    2.8023    0.3289    0.1299 C   0  0  0  0  0  0  0  0  0  0  0  0
    2.4371   -1.0096    0.0562 C   0  0  0  0  0  0  0  0  0  0  0  0
   -3.5900   -1.1976   -0.9583 H   0  0  0  0  0  0  0  0  0  0  0  0
   -4.1468    0.4645   -0.9696 H   0  0  0  0  0  0  0  0  0  0  0  0
   -0.3030    2.9878   -0.0241 H   0  0  0  0  0  0  0  0  0  0  0  0
   -2.6600    2.2953   -0.2312 H   0  0  0  0  0  0  0  0  0  0  0  0
    2.1158    2.3576    0.1442 H   0  0  0  0  0  0  0  0  0  0  0  0
   -3.6803   -1.2364    1.5514 H   0  0  0  0  0  0  0  0  0  0  0  0
   -5.2520   -0.8321    0.8360 H   0  0  0  0  0  0  0  0  0  0  0  0
   -4.2481    0.4411    1.5537 H   0  0  0  0  0  0  0  0  0  0  0  0
    3.1977   -1.7838    0.0898 H   0  0  0  0  0  0  0  0  0  0  0  0
  1 11  1  0  0  0  0
  2 13  1  0  0  0  0
  3  5  2  0  0  0  0
  3  6  1  0  0  0  0
  4  6  1  0  0  0  0
  4  8  1  0  0  0  0
  4 10  2  0  0  0  0
  5  7  1  0  0  0  0
  5  9  1  0  0  0  0
  6 11  2  0  0  0  0
  7 12  1  0  0  0  0
  7 15  1  0  0  0  0
  7 16  1  0  0  0  0
  8  9  2  0  0  0  0
  8 17  1  0  0  0  0
  9 18  1  0  0  0  0
 10 13  1  0  0  0  0
 10 19  1  0  0  0  0
 11 14  1  0  0  0  0
 12 20  1  0  0  0  0
 12 21  1  0  0  0  0
 12 22  1  0  0  0  0
 13 14  2  0  0  0  0
 14 23  1  0  0  0  0
M  END
> <PUBCHEM_COMPOUND_CID>
51361067

> <PUBCHEM_CONFORMER_RMSD>
0.4

> <PUBCHEM_CONFORMER_DIVERSEORDER>
1
2
4
3

> <PUBCHEM_MMFF94_PARTIAL_CHARGES>
16
1 -0.19
10 -0.15
11 0.19
13 0.19
14 -0.15
17 0.15
18 0.15
19 0.15
2 -0.19
23 0.15
3 -0.62
5 0.17
6 0.31
7 0.14
8 -0.15
9 -0.15

> <PUBCHEM_EFFECTIVE_ROTOR_COUNT>
1

> <PUBCHEM_PHARMACOPHORE_FEATURES>
4
1 12 hydrophobe
1 3 acceptor
6 3 4 5 6 8 9 rings
6 4 6 10 11 13 14 rings

> <PUBCHEM_HEAVY_ATOM_COUNT>
14

> <PUBCHEM_ATOM_DEF_STEREO_COUNT>
0

> <PUBCHEM_ATOM_UDEF_STEREO_COUNT>
0

> <PUBCHEM_BOND_DEF_STEREO_COUNT>
0

> <PUBCHEM_BOND_UDEF_STEREO_COUNT>
0

> <PUBCHEM_ISOTOPIC_ATOM_COUNT>
0

> <PUBCHEM_COMPONENT_COUNT>
1

> <PUBCHEM_CACTVS_TAUTO_COUNT>
2

> <PUBCHEM_CONFORMER_ID>
030FB52B00000001

> <PUBCHEM_MMFF94_ENERGY>
29.9652

> <PUBCHEM_FEATURE_SELFOVERLAP>
20.329

> <PUBCHEM_SHAPE_FINGERPRINT>
10219947 1 18410293639999117653
10967382 1 18411134757683131950
11132069 177 18341322383447620539
11471102 20 18411131425047012221
11471102 22 18335995228452681803
12032990 46 18409453569975926295
12932764 1 17417513753277948861
13140716 1 18194681707378182209
13221675 6 18412544318710274735
13380535 21 18123477081066222477
13380535 76 18408601482866700082
14251717 144 18340200886362460255
14252887 29 18201453470993002903
14325111 11 18410852123192105244
15219456 202 18336544915610519717
15309172 13 18341896315880460947
15775835 57 18131069363363659332
16945 1 18412816988877512477
17844478 74 18259988163010087557
193761 8 17979070483685501172
200 152 18201707467175005989
20201158 50 18334294266885006059
20510252 161 18272932700171190504
20588541 1 18409169939068090315
20645477 70 18270109107540908991
20871998 22 18340217284478946599
21501502 16 18194680371638227489
2334 1 17834391602626719381
23402539 116 18340474651408521134
23402655 69 18269539577829595445
23463225 33 18335416859440242316
23552423 10 18191868920400554206
23557571 272 16950554468287166213
25610 137 18409169904740156365
2748010 2 18195521485132639829
43471831 8 18335977571948032034
5104073 3 18338232657079195200
528886 8 18339916108223427106
53655031 270 18342741818778890497
53812653 166 18271801375936449984
7364860 26 18127125278069697646
74978 22 9078817594063081965
8809292 202 18114187475011503787

> <PUBCHEM_SHAPE_MULTIPOLES>
268.58
5.93
1.94
0.7
2.19
0.35
0.06
0.4
1.07
-0.47
-0.08
0.35
0.02
0.26

> <PUBCHEM_SHAPE_SELFOVERLAP>
585.635

> <PUBCHEM_SHAPE_VOLUME>
147.3

> <PUBCHEM_COORDINATE_TYPE>
2
5
10

$$$$
