936475
  -OEChem-01171811453D

 41 43  0     0  0  0  0  0  0999 V2000
   -0.2593    1.4559    0.6898 O   0  0  0  0  0  0  0  0  0  0  0  0
    2.1025   -2.6147   -0.0364 O   0  0  0  0  0  0  0  0  0  0  0  0
    2.0886    2.7195    0.2474 O   0  0  0  0  0  0  0  0  0  0  0  0
   -5.5844   -0.2070   -0.4843 O   0  0  0  0  0  0  0  0  0  0  0  0
   -0.2548   -1.4230    0.5368 N   0  0  0  0  0  0  0  0  0  0  0  0
    3.3380   -0.6269   -0.2013 C   0  0  0  0  0  0  0  0  0  0  0  0
    0.8464   -0.6357    0.3396 C   0  0  0  0  0  0  0  0  0  0  0  0
    3.3404    0.7649   -0.1283 C   0  0  0  0  0  0  0  0  0  0  0  0
    2.0964   -1.3895    0.0287 C   0  0  0  0  0  0  0  0  0  0  0  0
    0.8659    0.7040    0.4059 C   0  0  0  0  0  0  0  0  0  0  0  0
    2.1005    1.4956    0.1799 C   0  0  0  0  0  0  0  0  0  0  0  0
   -1.5943   -1.1174    0.2807 C   0  0  0  0  0  0  0  0  0  0  0  0
    4.5244   -1.3107   -0.4954 C   0  0  0  0  0  0  0  0  0  0  0  0
    4.5259    1.4765   -0.3486 C   0  0  0  0  0  0  0  0  0  0  0  0
    5.7047   -0.5996   -0.7146 C   0  0  0  0  0  0  0  0  0  0  0  0
    5.7055    0.7917   -0.6413 C   0  0  0  0  0  0  0  0  0  0  0  0
   -2.6139   -1.6898    1.0528 C   0  0  0  0  0  0  0  0  0  0  0  0
   -1.9360   -0.2348   -0.7529 C   0  0  0  0  0  0  0  0  0  0  0  0
   -4.2803   -0.5054   -0.2349 C   0  0  0  0  0  0  0  0  0  0  0  0
   -3.9507   -1.3854    0.7961 C   0  0  0  0  0  0  0  0  0  0  0  0
   -3.2728    0.0699   -1.0095 C   0  0  0  0  0  0  0  0  0  0  0  0
   -0.3853    1.6591    2.0827 C   0  0  0  0  0  0  0  0  0  0  0  0
   -5.8639    1.0854   -1.0207 C   0  0  0  0  0  0  0  0  0  0  0  0
   -7.2436    1.5175   -0.5721 C   0  0  0  0  0  0  0  0  0  0  0  0
   -0.0747   -2.3627    0.8750 H   0  0  0  0  0  0  0  0  0  0  0  0
    4.5508   -2.3952   -0.5585 H   0  0  0  0  0  0  0  0  0  0  0  0
    4.5514    2.5616   -0.2968 H   0  0  0  0  0  0  0  0  0  0  0  0
    6.6239   -1.1314   -0.9427 H   0  0  0  0  0  0  0  0  0  0  0  0
    6.6251    1.3437   -0.8121 H   0  0  0  0  0  0  0  0  0  0  0  0
   -2.3714   -2.3764    1.8605 H   0  0  0  0  0  0  0  0  0  0  0  0
   -1.1839    0.1912   -1.4123 H   0  0  0  0  0  0  0  0  0  0  0  0
   -4.7312   -1.8359    1.4032 H   0  0  0  0  0  0  0  0  0  0  0  0
   -3.4886    0.7297   -1.8447 H   0  0  0  0  0  0  0  0  0  0  0  0
    0.4587    2.2328    2.4810 H   0  0  0  0  0  0  0  0  0  0  0  0
   -0.4801    0.7122    2.6255 H   0  0  0  0  0  0  0  0  0  0  0  0
   -1.2967    2.2380    2.2602 H   0  0  0  0  0  0  0  0  0  0  0  0
   -5.1508    1.8388   -0.6630 H   0  0  0  0  0  0  0  0  0  0  0  0
   -5.8283    1.0364   -2.1146 H   0  0  0  0  0  0  0  0  0  0  0  0
   -7.4959    2.5025   -0.9749 H   0  0  0  0  0  0  0  0  0  0  0  0
   -7.9994    0.7972   -0.9022 H   0  0  0  0  0  0  0  0  0  0  0  0
   -7.2990    1.5579    0.5208 H   0  0  0  0  0  0  0  0  0  0  0  0
  1 10  1  0  0  0  0
  1 22  1  0  0  0  0
  2  9  2  0  0  0  0
  3 11  2  0  0  0  0
  4 19  1  0  0  0  0
  4 23  1  0  0  0  0
  5  7  1  0  0  0  0
  5 12  1  0  0  0  0
  5 25  1  0  0  0  0
  6  8  1  0  0  0  0
  6  9  1  0  0  0  0
  6 13  2  0  0  0  0
  7  9  1  0  0  0  0
  7 10  2  0  0  0  0
  8 11  1  0  0  0  0
  8 14  2  0  0  0  0
 10 11  1  0  0  0  0
 12 17  2  0  0  0  0
 12 18  1  0  0  0  0
 13 15  1  0  0  0  0
 13 26  1  0  0  0  0
 14 16  1  0  0  0  0
 14 27  1  0  0  0  0
 15 16  2  0  0  0  0
 15 28  1  0  0  0  0
 16 29  1  0  0  0  0
 17 20  1  0  0  0  0
 17 30  1  0  0  0  0
 18 21  2  0  0  0  0
 18 31  1  0  0  0  0
 19 20  2  0  0  0  0
 19 21  1  0  0  0  0
 20 32  1  0  0  0  0
 21 33  1  0  0  0  0
 22 34  1  0  0  0  0
 22 35  1  0  0  0  0
 22 36  1  0  0  0  0
 23 24  1  0  0  0  0
 23 37  1  0  0  0  0
 23 38  1  0  0  0  0
 24 39  1  0  0  0  0
 24 40  1  0  0  0  0
 24 41  1  0  0  0  0
M  END
> <PUBCHEM_COMPOUND_CID>
936475

> <PUBCHEM_CONFORMER_RMSD>
0.8

> <PUBCHEM_CONFORMER_DIVERSEORDER>
1
6
15
9
13
2
10
7
17
16
14
4
8
5
12
18
3
19
11

> <PUBCHEM_MMFF94_PARTIAL_CHARGES>
32
1 -0.36
10 0.09
11 0.47
12 0.1
13 -0.15
14 -0.15
15 -0.15
16 -0.15
17 -0.15
18 -0.15
19 0.08
2 -0.57
20 -0.15
21 -0.15
22 0.28
23 0.28
25 0.4
26 0.15
27 0.15
28 0.15
29 0.15
3 -0.57
30 0.15
31 0.15
32 0.15
33 0.15
4 -0.36
5 -0.6
6 0.09
7 0.11
8 0.09
9 0.47

> <PUBCHEM_EFFECTIVE_ROTOR_COUNT>
5

> <PUBCHEM_PHARMACOPHORE_FEATURES>
9
1 1 acceptor
1 2 acceptor
1 3 acceptor
1 4 acceptor
1 5 cation
1 5 donor
6 12 17 18 19 20 21 rings
6 6 7 8 9 10 11 rings
6 6 8 13 14 15 16 rings

> <PUBCHEM_HEAVY_ATOM_COUNT>
24

> <PUBCHEM_ATOM_DEF_STEREO_COUNT>
0

> <PUBCHEM_ATOM_UDEF_STEREO_COUNT>
0

> <PUBCHEM_BOND_DEF_STEREO_COUNT>
0

> <PUBCHEM_BOND_UDEF_STEREO_COUNT>
0

> <PUBCHEM_ISOTOPIC_ATOM_COUNT>
0

> <PUBCHEM_COMPONENT_COUNT>
1

> <PUBCHEM_CACTVS_TAUTO_COUNT>
3

> <PUBCHEM_CONFORMER_ID>
000E4A1B00000001

> <PUBCHEM_MMFF94_ENERGY>
92.8886

> <PUBCHEM_FEATURE_SELFOVERLAP>
45.7

> <PUBCHEM_SHAPE_FINGERPRINT>
10165383 225 17895193273330979351
106641 1 8790593802423244150
10693767 8 18059857212807614142
10835480 77 18338514252489601708
11135609 187 18266463286140164372
11471102 20 18412546539461723682
11724838 91 10881693415871674889
12236239 1 17203617007457332619
12403259 415 18263365952544945264
12670543 26 18412263926038955469
12730499 353 18260551112874150019
12788726 201 17988645125571692107
12838862 33 18342163497986751736
13402501 40 18260828202477774349
15048467 5 18113899351498888567
15183329 4 18341330007653108209
15475509 35 13542190416733407142
17349148 13 15554451833702417607
18222031 100 15769775766663657184
18608769 82 18260272988741901347
19377110 9 12685091433163401397
200 152 18131918165208344418
21033648 29 18261950859568335296
21267235 1 18342192063661419110
21279426 13 18409173190416505182
21637258 2 15123517969590911246
21792961 116 18261684696720091074
22079108 93 13407083604094812511
221357 26 18412820270602077773
22224240 67 12684815515784953649
22289505 5 18411698772978262438
23402539 116 17060629896957778635
23559900 14 18410569630197492729
23569914 152 17193762913692431580
25147074 1 18128822927980075098
2871803 45 18412268324676290606
29717793 49 17632581526348132548
3004659 81 18333450924661146518
3009799 131 18343580750735923264
335352 9 18410012126647503966
3545911 37 18333169475343372479
4072396 5 18337096918151454122
4073 2 17822297928162212682
4340502 62 12829492519583915281
5104073 3 17603584106621586123
56616090 163 18187363233915073287
5718773 13 11527953339581227541
59755656 215 18334574616316612725
59755656 520 14996283625926927729

> <PUBCHEM_SHAPE_MULTIPOLES>
465.45
14.39
2.22
1.11
11.82
0.18
-0.35
3.59
5.85
-0.55
-0.43
0.63
0.28
0.98

> <PUBCHEM_SHAPE_SELFOVERLAP>
1017.319

> <PUBCHEM_SHAPE_VOLUME>
251.1

> <PUBCHEM_COORDINATE_TYPE>
2
5
10

$$$$
