5769419
  -OEChem-01171812023D

 45 46  0     0  0  0  0  0  0999 V2000
   -3.8392    0.5816    0.0947 O   0  0  0  0  0  0  0  0  0  0  0  0
   -1.9764    0.7218   -1.9625 O   0  0  0  0  0  0  0  0  0  0  0  0
    2.9612    0.9928   -1.9648 O   0  0  0  0  0  0  0  0  0  0  0  0
    2.7372    0.0626    2.7141 O   0  0  0  0  0  0  0  0  0  0  0  0
    3.6585    2.6187   -0.2871 O   0  5  0  0  0  0  0  0  0  0  0  0
    3.5567    2.1951    1.8719 O   0  0  0  0  0  0  0  0  0  0  0  0
    2.0697   -1.5030    1.1455 N   0  0  0  0  0  0  0  0  0  0  0  0
    2.1800   -1.0435   -1.1804 N   0  0  0  0  0  0  0  0  0  0  0  0
    3.3992    1.8909    0.6814 N   0  3  0  0  0  0  0  0  0  0  0  0
   -3.8474    1.3102    1.3207 C   0  0  0  0  0  0  0  0  0  0  0  0
   -2.8885   -0.3839   -0.0454 C   0  0  0  0  0  0  0  0  0  0  0  0
   -1.9544   -0.3146   -1.0788 C   0  0  0  0  0  0  0  0  0  0  0  0
   -0.9666   -2.3622   -0.3106 C   0  0  0  0  0  0  0  0  0  0  0  0
   -0.9867   -1.3104   -1.2122 C   0  0  0  0  0  0  0  0  0  0  0  0
   -2.8551   -1.4492    0.8546 C   0  0  0  0  0  0  0  0  0  0  0  0
   -1.8876   -2.4451    0.7210 C   0  0  0  0  0  0  0  0  0  0  0  0
   -3.6004    2.7826    1.0298 C   0  0  0  0  0  0  0  0  0  0  0  0
   -5.1759    1.0872    2.0271 C   0  0  0  0  0  0  0  0  0  0  0  0
    0.0552   -3.4142   -0.4519 C   0  0  0  0  0  0  0  0  0  0  0  0
   -0.8091    1.5381   -2.0335 C   0  0  0  0  0  0  0  0  0  0  0  0
    1.3564   -3.1860   -0.3984 C   0  0  0  0  0  0  0  0  0  0  0  0
    1.8981   -1.8330   -0.1888 C   0  0  0  0  0  0  0  0  0  0  0  0
   -1.2120    2.9407   -2.4361 C   0  0  0  0  0  0  0  0  0  0  0  0
    2.8778    0.5975    0.4030 C   0  0  0  0  0  0  0  0  0  0  0  0
    2.5676   -0.2751    1.5485 C   0  0  0  0  0  0  0  0  0  0  0  0
    2.6819    0.2003   -0.8617 C   0  0  0  0  0  0  0  0  0  0  0  0
   -3.0440    0.9733    1.9900 H   0  0  0  0  0  0  0  0  0  0  0  0
   -0.2951   -1.2719   -2.0492 H   0  0  0  0  0  0  0  0  0  0  0  0
   -3.5801   -1.5264    1.6594 H   0  0  0  0  0  0  0  0  0  0  0  0
   -1.8726   -3.2710    1.4272 H   0  0  0  0  0  0  0  0  0  0  0  0
   -3.6366    3.3825    1.9443 H   0  0  0  0  0  0  0  0  0  0  0  0
   -2.6178    2.9181    0.5670 H   0  0  0  0  0  0  0  0  0  0  0  0
   -4.3406    3.1725    0.3226 H   0  0  0  0  0  0  0  0  0  0  0  0
   -5.2195    1.6340    2.9741 H   0  0  0  0  0  0  0  0  0  0  0  0
   -5.3366    0.0242    2.2329 H   0  0  0  0  0  0  0  0  0  0  0  0
   -6.0109    1.4134    1.3971 H   0  0  0  0  0  0  0  0  0  0  0  0
   -0.3143   -4.4297   -0.5617 H   0  0  0  0  0  0  0  0  0  0  0  0
   -0.2985    1.5764   -1.0632 H   0  0  0  0  0  0  0  0  0  0  0  0
   -0.1245    1.1182   -2.7783 H   0  0  0  0  0  0  0  0  0  0  0  0
    2.0721   -3.9975   -0.4705 H   0  0  0  0  0  0  0  0  0  0  0  0
    1.8249   -2.1763    1.8665 H   0  0  0  0  0  0  0  0  0  0  0  0
   -0.3377    3.5945   -2.5003 H   0  0  0  0  0  0  0  0  0  0  0  0
   -1.7169    2.9314   -3.4078 H   0  0  0  0  0  0  0  0  0  0  0  0
   -1.9188    3.3651   -1.7168 H   0  0  0  0  0  0  0  0  0  0  0  0
    2.7170    0.4574   -2.7398 H   0  0  0  0  0  0  0  0  0  0  0  0
  1 10  1  0  0  0  0
  1 11  1  0  0  0  0
  2 12  1  0  0  0  0
  2 20  1  0  0  0  0
  3 26  1  0  0  0  0
  3 45  1  0  0  0  0
  4 25  2  0  0  0  0
  5  9  1  0  0  0  0
  6  9  2  0  0  0  0
  7 22  1  0  0  0  0
  7 25  1  0  0  0  0
  7 41  1  0  0  0  0
  8 22  2  0  0  0  0
  8 26  1  0  0  0  0
  9 24  1  0  0  0  0
 10 17  1  0  0  0  0
 10 18  1  0  0  0  0
 10 27  1  0  0  0  0
 11 12  2  0  0  0  0
 11 15  1  0  0  0  0
 12 14  1  0  0  0  0
 13 14  2  0  0  0  0
 13 16  1  0  0  0  0
 13 19  1  0  0  0  0
 14 28  1  0  0  0  0
 15 16  2  0  0  0  0
 15 29  1  0  0  0  0
 16 30  1  0  0  0  0
 17 31  1  0  0  0  0
 17 32  1  0  0  0  0
 17 33  1  0  0  0  0
 18 34  1  0  0  0  0
 18 35  1  0  0  0  0
 18 36  1  0  0  0  0
 19 21  2  0  0  0  0
 19 37  1  0  0  0  0
 20 23  1  0  0  0  0
 20 38  1  0  0  0  0
 20 39  1  0  0  0  0
 21 22  1  0  0  0  0
 21 40  1  0  0  0  0
 23 42  1  0  0  0  0
 23 43  1  0  0  0  0
 23 44  1  0  0  0  0
 24 25  1  0  0  0  0
 24 26  2  0  0  0  0
M  CHG  2   5  -1   9   1
M  END
> <PUBCHEM_COMPOUND_CID>
5769419

> <PUBCHEM_CONFORMER_RMSD>
0.8

> <PUBCHEM_CONFORMER_DIVERSEORDER>
1
18
2
19
24
22
26
8
21
23
6
27
7
9
12
4
3
15
13
17
25
14
5
11
10
16
20

> <PUBCHEM_MMFF94_PARTIAL_CHARGES>
30
1 -0.36
10 0.28
11 0.08
12 0.08
13 0.03
14 -0.15
15 -0.15
16 -0.15
19 -0.18
2 -0.36
20 0.28
21 -0.14
22 0.5
24 0.22
25 0.62
26 0.25
28 0.15
29 0.15
3 -0.53
30 0.15
37 0.15
4 -0.57
40 0.15
41 0.37
45 0.45
5 -0.52
6 -0.52
7 -0.49
8 -0.62
9 0.84

> <PUBCHEM_EFFECTIVE_ROTOR_COUNT>
7

> <PUBCHEM_PHARMACOPHORE_FEATURES>
11
1 1 acceptor
1 2 acceptor
1 3 donor
1 4 acceptor
1 5 acceptor
1 5 anion
1 6 acceptor
1 7 donor
3 10 17 18 hydrophobe
6 11 12 13 14 15 16 rings
6 7 8 22 24 25 26 rings

> <PUBCHEM_HEAVY_ATOM_COUNT>
26

> <PUBCHEM_ATOM_DEF_STEREO_COUNT>
0

> <PUBCHEM_ATOM_UDEF_STEREO_COUNT>
0

> <PUBCHEM_BOND_DEF_STEREO_COUNT>
1

> <PUBCHEM_BOND_UDEF_STEREO_COUNT>
0

> <PUBCHEM_ISOTOPIC_ATOM_COUNT>
0

> <PUBCHEM_COMPONENT_COUNT>
1

> <PUBCHEM_CACTVS_TAUTO_COUNT>
3

> <PUBCHEM_CONFORMER_ID>
005808CB00000001

> <PUBCHEM_MMFF94_ENERGY>
95.3692

> <PUBCHEM_FEATURE_SELFOVERLAP>
55.932

> <PUBCHEM_SHAPE_FINGERPRINT>
10165383 225 18267326286164911886
11720765 8 16915403000111593580
12156800 1 16186146706771426531
12173636 292 18200029676301913823
12553582 1 17749678479640484861
12633257 1 18335689521070098554
12788726 201 16533179055424806861
128993 33 18343303660546184478
13965767 371 18334573533984776000
14142880 1 18193267709934951471
14508693 111 15940957757541397667
151778 21 18340496555815642105
15475509 84 15598093228499472475
18981168 100 17978494357093987175
20775438 99 9221505530464198369
20775530 9 11386368140534860297
21475661 188 17981326690726690545
21860390 5 16982379634700276221
21864079 5 18273216421378405827
238 59 17831822838748456247
35225 105 17986681359150499005
3797600 57 16588887774719180614
474 4 18343016645452214571
6287921 2 18337966592703461767
7808743 9 18127134293084343120
90316 7 17749099015648385143

> <PUBCHEM_SHAPE_MULTIPOLES>
484.91
7.75
3.87
2.29
3.93
0.65
0.02
-5.32
4.63
-0.69
-0.63
-0.03
-1.61
0.3

> <PUBCHEM_SHAPE_SELFOVERLAP>
1028.504

> <PUBCHEM_SHAPE_VOLUME>
271.2

> <PUBCHEM_COORDINATE_TYPE>
2
5
10

$$$$
