24979834
  -OEChem-01171812123D

 56 58  0     0  0  0  0  0  0999 V2000
   -3.3667   -0.3432   -1.6853 S   0  0  0  0  0  0  0  0  0  0  0  0
   -4.4291    0.4661   -2.2417 O   0  0  0  0  0  0  0  0  0  0  0  0
   -2.7103   -1.3611   -2.4767 O   0  0  0  0  0  0  0  0  0  0  0  0
    0.7762    3.3275    0.4079 O   0  0  0  0  0  0  0  0  0  0  0  0
    5.6067   -0.3414   -0.0744 O   0  0  0  0  0  0  0  0  0  0  0  0
    1.3556   -1.5163   -1.0637 O   0  0  0  0  0  0  0  0  0  0  0  0
   -3.9097   -1.0449   -0.2187 N   0  0  0  0  0  0  0  0  0  0  0  0
    1.4827    0.7059   -0.3076 N   0  0  0  0  0  0  0  0  0  0  0  0
    5.4416   -1.6974    0.1805 N   0  0  0  0  0  0  0  0  0  0  0  0
   -4.4661   -0.0844    0.7794 C   0  0  0  0  0  0  0  0  0  0  0  0
   -2.9703   -2.0227    0.4057 C   0  0  0  0  0  0  0  0  0  0  0  0
   -5.2167   -0.8503    1.8638 C   0  0  0  0  0  0  0  0  0  0  0  0
   -3.7004   -2.8164    1.4842 C   0  0  0  0  0  0  0  0  0  0  0  0
   -4.3217   -1.8927    2.5283 C   0  0  0  0  0  0  0  0  0  0  0  0
   -2.1260    0.7469   -1.0627 C   0  0  0  0  0  0  0  0  0  0  0  0
   -0.8103    0.3032   -0.9296 C   0  0  0  0  0  0  0  0  0  0  0  0
   -2.4616    2.0524   -0.7037 C   0  0  0  0  0  0  0  0  0  0  0  0
    0.1698    1.1651   -0.4375 C   0  0  0  0  0  0  0  0  0  0  0  0
   -1.4814    2.9141   -0.2116 C   0  0  0  0  0  0  0  0  0  0  0  0
   -0.1657    2.4705   -0.0784 C   0  0  0  0  0  0  0  0  0  0  0  0
    1.9854   -0.5638   -0.6166 C   0  0  0  0  0  0  0  0  0  0  0  0
    3.4329   -0.7592   -0.3404 C   0  0  0  0  0  0  0  0  0  0  0  0
    4.1352   -1.9236    0.0155 C   0  0  0  0  0  0  0  0  0  0  0  0
    4.4036    0.2062   -0.3835 C   0  0  0  0  0  0  0  0  0  0  0  0
    0.5635    3.8470    1.7186 C   0  0  0  0  0  0  0  0  0  0  0  0
    3.6012   -3.2822    0.2102 C   0  0  0  0  0  0  0  0  0  0  0  0
    4.4015    1.6447   -0.6826 C   0  0  0  0  0  0  0  0  0  0  0  0
    2.8750   -3.4546    1.5500 C   0  0  0  0  0  0  0  0  0  0  0  0
    1.9052    4.1043    2.3708 C   0  0  0  0  0  0  0  0  0  0  0  0
   -5.1634    0.6055    0.2936 H   0  0  0  0  0  0  0  0  0  0  0  0
   -3.6625    0.4929    1.2476 H   0  0  0  0  0  0  0  0  0  0  0  0
   -2.1166   -1.5007    0.8502 H   0  0  0  0  0  0  0  0  0  0  0  0
   -2.5977   -2.7262   -0.3453 H   0  0  0  0  0  0  0  0  0  0  0  0
   -6.0872   -1.3514    1.4221 H   0  0  0  0  0  0  0  0  0  0  0  0
   -5.5948   -0.1516    2.6184 H   0  0  0  0  0  0  0  0  0  0  0  0
   -3.0051   -3.5098    1.9702 H   0  0  0  0  0  0  0  0  0  0  0  0
   -4.4906   -3.4216    1.0221 H   0  0  0  0  0  0  0  0  0  0  0  0
   -3.5274   -1.3892    3.0928 H   0  0  0  0  0  0  0  0  0  0  0  0
   -4.9044   -2.4806    3.2461 H   0  0  0  0  0  0  0  0  0  0  0  0
   -0.6120   -0.7171   -1.2185 H   0  0  0  0  0  0  0  0  0  0  0  0
   -3.4792    2.4203   -0.7993 H   0  0  0  0  0  0  0  0  0  0  0  0
   -1.7567    3.9304    0.0567 H   0  0  0  0  0  0  0  0  0  0  0  0
    2.1155    1.3827    0.1065 H   0  0  0  0  0  0  0  0  0  0  0  0
    0.0008    4.7838    1.6424 H   0  0  0  0  0  0  0  0  0  0  0  0
   -0.0067    3.1410    2.3352 H   0  0  0  0  0  0  0  0  0  0  0  0
    2.9172   -3.5415   -0.6059 H   0  0  0  0  0  0  0  0  0  0  0  0
    4.4142   -4.0181    0.1622 H   0  0  0  0  0  0  0  0  0  0  0  0
    4.1166    2.2258    0.1998 H   0  0  0  0  0  0  0  0  0  0  0  0
    5.3985    1.9794   -0.9886 H   0  0  0  0  0  0  0  0  0  0  0  0
    3.7177    1.8838   -1.5026 H   0  0  0  0  0  0  0  0  0  0  0  0
    3.5454   -3.2409    2.3892 H   0  0  0  0  0  0  0  0  0  0  0  0
    2.5130   -4.4823    1.6531 H   0  0  0  0  0  0  0  0  0  0  0  0
    2.0150   -2.7809    1.6249 H   0  0  0  0  0  0  0  0  0  0  0  0
    2.4842    3.1772    2.4382 H   0  0  0  0  0  0  0  0  0  0  0  0
    2.4968    4.8054    1.7728 H   0  0  0  0  0  0  0  0  0  0  0  0
    1.7794    4.5161    3.3760 H   0  0  0  0  0  0  0  0  0  0  0  0
  1  2  2  0  0  0  0
  1  3  2  0  0  0  0
  1  7  1  0  0  0  0
  1 15  1  0  0  0  0
  4 20  1  0  0  0  0
  4 25  1  0  0  0  0
  5  9  1  0  0  0  0
  5 24  1  0  0  0  0
  6 21  2  0  0  0  0
  7 10  1  0  0  0  0
  7 11  1  0  0  0  0
  8 18  1  0  0  0  0
  8 21  1  0  0  0  0
  8 43  1  0  0  0  0
  9 23  2  0  0  0  0
 10 12  1  0  0  0  0
 10 30  1  0  0  0  0
 10 31  1  0  0  0  0
 11 13  1  0  0  0  0
 11 32  1  0  0  0  0
 11 33  1  0  0  0  0
 12 14  1  0  0  0  0
 12 34  1  0  0  0  0
 12 35  1  0  0  0  0
 13 14  1  0  0  0  0
 13 36  1  0  0  0  0
 13 37  1  0  0  0  0
 14 38  1  0  0  0  0
 14 39  1  0  0  0  0
 15 16  2  0  0  0  0
 15 17  1  0  0  0  0
 16 18  1  0  0  0  0
 16 40  1  0  0  0  0
 17 19  2  0  0  0  0
 17 41  1  0  0  0  0
 18 20  2  0  0  0  0
 19 20  1  0  0  0  0
 19 42  1  0  0  0  0
 21 22  1  0  0  0  0
 22 23  1  0  0  0  0
 22 24  2  0  0  0  0
 23 26  1  0  0  0  0
 24 27  1  0  0  0  0
 25 29  1  0  0  0  0
 25 44  1  0  0  0  0
 25 45  1  0  0  0  0
 26 28  1  0  0  0  0
 26 46  1  0  0  0  0
 26 47  1  0  0  0  0
 27 48  1  0  0  0  0
 27 49  1  0  0  0  0
 27 50  1  0  0  0  0
 28 51  1  0  0  0  0
 28 52  1  0  0  0  0
 28 53  1  0  0  0  0
 29 54  1  0  0  0  0
 29 55  1  0  0  0  0
 29 56  1  0  0  0  0
M  END
> <PUBCHEM_COMPOUND_CID>
24979834

> <PUBCHEM_CONFORMER_RMSD>
1

> <PUBCHEM_CONFORMER_DIVERSEORDER>
1
30
29
12
7
8
23
22
34
14
27
33
9
5
26
4
10
19
28
18
11
31
6
21
24
25
20
16
13
3
35
32
15
17
2

> <PUBCHEM_MMFF94_PARTIAL_CHARGES>
28
1 1.45
10 0.36
11 0.36
15 -0.01
16 -0.15
17 -0.15
18 0.12
19 -0.15
2 -0.65
20 0.08
21 0.72
22 -0.09
23 0.11
24 -0.04
25 0.28
26 0.18
27 0.18
3 -0.65
4 -0.36
40 0.15
41 0.15
42 0.15
43 0.37
5 -0.02
6 -0.57
7 -0.85
8 -0.55
9 -0.41

> <PUBCHEM_EFFECTIVE_ROTOR_COUNT>
9.2

> <PUBCHEM_PHARMACOPHORE_FEATURES>
10
1 2 acceptor
1 28 hydrophobe
1 3 acceptor
1 4 acceptor
1 6 acceptor
1 8 donor
1 9 acceptor
5 5 9 22 23 24 rings
6 15 16 17 18 19 20 rings
6 7 10 11 12 13 14 rings

> <PUBCHEM_HEAVY_ATOM_COUNT>
29

> <PUBCHEM_ATOM_DEF_STEREO_COUNT>
0

> <PUBCHEM_ATOM_UDEF_STEREO_COUNT>
0

> <PUBCHEM_BOND_DEF_STEREO_COUNT>
0

> <PUBCHEM_BOND_UDEF_STEREO_COUNT>
0

> <PUBCHEM_ISOTOPIC_ATOM_COUNT>
0

> <PUBCHEM_COMPONENT_COUNT>
1

> <PUBCHEM_CACTVS_TAUTO_COUNT>
2

> <PUBCHEM_CONFORMER_ID>
017D297A00000001

> <PUBCHEM_MMFF94_ENERGY>
50.2656

> <PUBCHEM_FEATURE_SELFOVERLAP>
50.766

> <PUBCHEM_SHAPE_FINGERPRINT>
11049842 53 15725249793862532653
11135609 12 17822860908787085541
12160290 23 17838632053961484269
12549972 3 18335409206420756057
12553582 1 18272938214840042382
12633257 1 17132114641142804099
12788726 201 18053371102940053729
13103583 49 18198085697274218955
13402501 40 17968668223477453579
13544653 18 18409165510830208092
14251757 17 17676486129214790683
14739800 52 15768364118483265729
14790565 3 17399531507052641244
14844126 61 17983838009137717495
14955137 171 17987541319003357372
15475509 84 18129123198377985673
17492 89 18193838137658972446
19315092 285 17695931182132982731
20101258 96 18342459214068109992
21315759 227 17967811652305786022
21796203 349 18127716965670103282
22440779 20 16906155003114911150
23558518 356 17119167625348287205
23559900 14 18187635925478208532
2838139 119 11959459916544272635
314194 84 18412542141061648606
3737641 26 18335150794753747746
392239 28 18408885165836402666
4073 2 18186802440003436852
469060 322 17702932661149612679
5104073 3 18339074870818327784
6371380 46 18336263454146965273
79837 15 17333940750866857520
9709674 26 18194683666332207878

> <PUBCHEM_SHAPE_MULTIPOLES>
556.37
11.37
4.79
2.07
2.86
2.47
0.46
-8.29
1.54
2.86
3.53
-2.64
0.22
1.8

> <PUBCHEM_SHAPE_SELFOVERLAP>
1152.937

> <PUBCHEM_SHAPE_VOLUME>
319.7

> <PUBCHEM_COORDINATE_TYPE>
2
5
10

$$$$
