3229138
  -OEChem-01171811503D

 44 46  0     1  0  0  0  0  0999 V2000
   -3.2985   -2.7379    0.0764 O   0  0  0  0  0  0  0  0  0  0  0  0
   -0.8370   -1.3371   -0.2078 N   0  0  0  0  0  0  0  0  0  0  0  0
    2.3651   -0.1415    0.3199 N   0  0  0  0  0  0  0  0  0  0  0  0
    0.9642   -0.0874    1.9744 N   0  0  0  0  0  0  0  0  0  0  0  0
    3.1243   -0.1332    1.4244 N   0  0  0  0  0  0  0  0  0  0  0  0
    2.2620   -0.0996    2.4332 N   0  0  0  0  0  0  0  0  0  0  0  0
   -1.7722    2.9097    1.1366 N   0  0  0  0  0  0  0  0  0  0  0  0
   -0.0485   -0.1114   -0.3136 C   0  0  2  0  0  0  0  0  0  0  0  0
    2.9607   -0.1749   -0.9904 C   0  0  0  0  0  0  0  0  0  0  0  0
   -1.5462   -1.3920    1.0781 C   0  0  0  0  0  0  0  0  0  0  0  0
   -1.7963   -1.4378   -1.3165 C   0  0  0  0  0  0  0  0  0  0  0  0
    1.0895   -0.1133    0.6984 C   0  0  0  0  0  0  0  0  0  0  0  0
   -0.8883    1.1553   -0.2204 C   0  0  0  0  0  0  0  0  0  0  0  0
   -2.3707   -2.6734    1.1602 C   0  0  0  0  0  0  0  0  0  0  0  0
   -2.6160   -2.7176   -1.1779 C   0  0  0  0  0  0  0  0  0  0  0  0
    2.5356    1.0779   -1.7882 C   0  0  0  0  0  0  0  0  0  0  0  0
    2.5047   -1.4473   -1.7388 C   0  0  0  0  0  0  0  0  0  0  0  0
    4.5093   -0.1943   -0.9766 C   0  0  0  0  0  0  0  0  0  0  0  0
   -1.4896    1.6585   -1.3470 C   0  0  0  0  0  0  0  0  0  0  0  0
   -1.0398    1.7835    0.9851 C   0  0  0  0  0  0  0  0  0  0  0  0
   -2.2515    2.8159   -1.2311 C   0  0  0  0  0  0  0  0  0  0  0  0
   -2.3605    3.3979    0.0216 C   0  0  0  0  0  0  0  0  0  0  0  0
    0.3441   -0.1063   -1.3185 H   0  0  0  0  0  0  0  0  0  0  0  0
   -2.2466   -0.5588    1.2012 H   0  0  0  0  0  0  0  0  0  0  0  0
   -0.8771   -1.4202    1.9388 H   0  0  0  0  0  0  0  0  0  0  0  0
   -1.2794   -1.4510   -2.2826 H   0  0  0  0  0  0  0  0  0  0  0  0
   -2.5229   -0.6203   -1.3125 H   0  0  0  0  0  0  0  0  0  0  0  0
   -1.7337   -3.5664    1.1503 H   0  0  0  0  0  0  0  0  0  0  0  0
   -2.9470   -2.6892    2.0911 H   0  0  0  0  0  0  0  0  0  0  0  0
   -3.3718   -2.7656   -1.9686 H   0  0  0  0  0  0  0  0  0  0  0  0
   -1.9869   -3.6118   -1.2669 H   0  0  0  0  0  0  0  0  0  0  0  0
    3.1967    1.2208   -2.6528 H   0  0  0  0  0  0  0  0  0  0  0  0
    1.5333    1.0537   -2.2133 H   0  0  0  0  0  0  0  0  0  0  0  0
    2.6170    1.9831   -1.1741 H   0  0  0  0  0  0  0  0  0  0  0  0
    1.4564   -1.4870   -2.0285 H   0  0  0  0  0  0  0  0  0  0  0  0
    3.0672   -1.5591   -2.6745 H   0  0  0  0  0  0  0  0  0  0  0  0
    2.7053   -2.3416   -1.1358 H   0  0  0  0  0  0  0  0  0  0  0  0
    4.9227   -0.2272   -1.9914 H   0  0  0  0  0  0  0  0  0  0  0  0
    4.9131    0.6991   -0.4856 H   0  0  0  0  0  0  0  0  0  0  0  0
    4.8914   -1.0702   -0.4388 H   0  0  0  0  0  0  0  0  0  0  0  0
   -1.3708    1.1980   -2.3227 H   0  0  0  0  0  0  0  0  0  0  0  0
   -0.6444    1.4447    1.9294 H   0  0  0  0  0  0  0  0  0  0  0  0
   -2.7399    3.2519   -2.0950 H   0  0  0  0  0  0  0  0  0  0  0  0
   -2.9422    4.3026    0.1649 H   0  0  0  0  0  0  0  0  0  0  0  0
  1 14  1  0  0  0  0
  1 15  1  0  0  0  0
  2  8  1  0  0  0  0
  2 10  1  0  0  0  0
  2 11  1  0  0  0  0
  3  5  1  0  0  0  0
  3  9  1  0  0  0  0
  3 12  1  0  0  0  0
  4  6  1  0  0  0  0
  4 12  2  0  0  0  0
  5  6  2  0  0  0  0
  7 20  1  0  0  0  0
  7 22  2  0  0  0  0
  8 12  1  0  0  0  0
  8 13  1  0  0  0  0
  8 23  1  0  0  0  0
  9 16  1  0  0  0  0
  9 17  1  0  0  0  0
  9 18  1  0  0  0  0
 10 14  1  0  0  0  0
 10 24  1  0  0  0  0
 10 25  1  0  0  0  0
 11 15  1  0  0  0  0
 11 26  1  0  0  0  0
 11 27  1  0  0  0  0
 13 19  1  0  0  0  0
 13 20  2  0  0  0  0
 14 28  1  0  0  0  0
 14 29  1  0  0  0  0
 15 30  1  0  0  0  0
 15 31  1  0  0  0  0
 16 32  1  0  0  0  0
 16 33  1  0  0  0  0
 16 34  1  0  0  0  0
 17 35  1  0  0  0  0
 17 36  1  0  0  0  0
 17 37  1  0  0  0  0
 18 38  1  0  0  0  0
 18 39  1  0  0  0  0
 18 40  1  0  0  0  0
 19 21  2  0  0  0  0
 19 41  1  0  0  0  0
 20 42  1  0  0  0  0
 21 22  1  0  0  0  0
 21 43  1  0  0  0  0
 22 44  1  0  0  0  0
M  END
> <PUBCHEM_COMPOUND_CID>
3229138

> <PUBCHEM_CONFORMER_RMSD>
0.8

> <PUBCHEM_CONFORMER_DIVERSEORDER>
1
10
14
18
17
6
28
13
9
16
27
19
4
12
11
3
22
25
15
8
20
26
7
21
2
24
23
5

> <PUBCHEM_MMFF94_PARTIAL_CHARGES>
22
1 -0.56
10 0.27
11 0.27
12 0.01
13 -0.14
14 0.28
15 0.28
19 -0.15
2 -0.81
20 0.16
21 -0.15
22 0.16
3 0.31
4 -0.34
41 0.15
42 0.15
43 0.15
44 0.15
5 -0.42
7 -0.62
8 0.59
9 0.26

> <PUBCHEM_EFFECTIVE_ROTOR_COUNT>
5.2

> <PUBCHEM_PHARMACOPHORE_FEATURES>
8
1 1 acceptor
1 2 cation
1 7 acceptor
3 3 4 12 cation
4 9 16 17 18 hydrophobe
5 3 4 5 6 12 rings
6 1 2 10 11 14 15 rings
6 7 13 19 20 21 22 rings

> <PUBCHEM_HEAVY_ATOM_COUNT>
22

> <PUBCHEM_ATOM_DEF_STEREO_COUNT>
0

> <PUBCHEM_ATOM_UDEF_STEREO_COUNT>
1

> <PUBCHEM_BOND_DEF_STEREO_COUNT>
0

> <PUBCHEM_BOND_UDEF_STEREO_COUNT>
0

> <PUBCHEM_ISOTOPIC_ATOM_COUNT>
0

> <PUBCHEM_COMPONENT_COUNT>
1

> <PUBCHEM_CACTVS_TAUTO_COUNT>
1

> <PUBCHEM_CONFORMER_ID>
003145D200000001

> <PUBCHEM_MMFF94_ENERGY>
72.9868

> <PUBCHEM_FEATURE_SELFOVERLAP>
40.597

> <PUBCHEM_SHAPE_FINGERPRINT>
10764073 3 15836820597207419619
11578080 2 17846506962587716376
11640471 11 17750505192120290796
12035759 4 17894912948893736213
12160290 23 18338223882867041053
12707595 3 17902788896955743131
12714826 92 17988381311743446230
12788726 201 18334290981245450575
133893 2 17112390768572426167
13538477 17 18040429984151087793
13681431 1 17833831947240209735
14181834 199 17333350798538370359
14617773 55 17821722844994284042
14817 1 13351871211067891217
15309172 13 17901395493357983397
15906896 17 18262239919815889155
16752209 62 18262787489591585333
16945 1 18337372882215365509
17357779 13 18129649928634088447
1813 80 18125723641162335327
20600515 1 17900240190083400875
20645476 183 18191587445424051532
20711985 344 18408602578130631895
21285901 2 18272662238033809759
21330990 113 17916325895354092403
21524375 3 17978785706053019677
21756936 100 16663219099158993830
22112679 90 18050034317426036617
22907989 373 18341338833214861645
23419403 2 17418088866557621337
23557571 272 18339912827100658008
23558518 356 17751664232153350692
3060560 45 17684371659121267644
3729539 64 16896273533049701142
458136 41 17692261737957429017
484985 159 16767090941492826206
576247 118 18195528318663120767
5845 1 11459582386624395545
6049 1 17917989503680859008
6442390 28 18055926394344881745
6786 2 17765465070186880041
68419 9 17894627020157271698
6992083 37 17172333556863857666
7364860 26 17332251299811274991
7615 1 17676477342296901608
81228 2 18411131446542895665
84936 31 17191222453696093751
9981440 41 16984292978121577114

> <PUBCHEM_SHAPE_MULTIPOLES>
416.99
5.66
3.64
2
5.2
0.69
0.52
-0.9
-1.28
-5.86
-0.42
0.93
-0.11
0.03

> <PUBCHEM_SHAPE_SELFOVERLAP>
884.299

> <PUBCHEM_SHAPE_VOLUME>
235.2

> <PUBCHEM_COORDINATE_TYPE>
2
5
10

$$$$
