20888752
  -OEChem-01171812083D

 54 56  0     0  0  0  0  0  0999 V2000
    0.1402   -1.2462   -0.9147 S   0  0  0  0  0  0  0  0  0  0  0  0
   -0.0604    2.7847    0.3010 S   0  0  0  0  0  0  0  0  0  0  0  0
    2.8669    3.2338    0.3394 S   0  0  0  0  0  0  0  0  0  0  0  0
   -7.9781   -1.2159    0.9723 O   0  0  0  0  0  0  0  0  0  0  0  0
    0.1685   -1.1988   -2.3696 O   0  0  0  0  0  0  0  0  0  0  0  0
   -1.0100   -1.7810   -0.1982 O   0  0  0  0  0  0  0  0  0  0  0  0
    2.8015    4.2933   -0.6671 O   0  0  0  0  0  0  0  0  0  0  0  0
    2.8999    3.5799    1.7611 O   0  0  0  0  0  0  0  0  0  0  0  0
   -2.0574    1.0053   -0.1655 N   0  0  0  0  0  0  0  0  0  0  0  0
   -4.8263    0.3073   -0.1814 N   0  0  0  0  0  0  0  0  0  0  0  0
    1.6097    0.9106   -0.3160 N   0  0  0  0  0  0  0  0  0  0  0  0
   -2.8637    1.1547    1.0511 C   0  0  0  0  0  0  0  0  0  0  0  0
   -2.8165    1.0576   -1.4179 C   0  0  0  0  0  0  0  0  0  0  0  0
   -4.0246    0.1589    1.0406 C   0  0  0  0  0  0  0  0  0  0  0  0
   -3.9901    0.0749   -1.3664 C   0  0  0  0  0  0  0  0  0  0  0  0
   -0.7027    1.2529   -0.1368 C   0  0  0  0  0  0  0  0  0  0  0  0
   -5.9621   -0.6137   -0.1654 C   0  0  0  0  0  0  0  0  0  0  0  0
    0.3358    0.3889   -0.4293 C   0  0  0  0  0  0  0  0  0  0  0  0
   -6.8827   -0.3105    1.0059 C   0  0  0  0  0  0  0  0  0  0  0  0
    1.5225    2.1663    0.0624 C   0  0  0  0  0  0  0  0  0  0  0  0
    1.5568   -2.1376   -0.3459 C   0  0  0  0  0  0  0  0  0  0  0  0
    4.3131    2.2428   -0.0026 C   0  0  0  0  0  0  0  0  0  0  0  0
    1.5302   -2.7188    0.9100 C   0  0  0  0  0  0  0  0  0  0  0  0
    2.6661   -2.2381   -1.1673 C   0  0  0  0  0  0  0  0  0  0  0  0
    5.5868    3.0342    0.1940 C   0  0  0  0  0  0  0  0  0  0  0  0
    2.6481   -3.4225    1.3585 C   0  0  0  0  0  0  0  0  0  0  0  0
    3.7839   -2.9417   -0.7190 C   0  0  0  0  0  0  0  0  0  0  0  0
    3.7749   -3.5338    0.5440 C   0  0  0  0  0  0  0  0  0  0  0  0
    4.9695   -4.2873    1.0228 C   0  0  0  0  0  0  0  0  0  0  0  0
   -3.2429    2.1825    1.1165 H   0  0  0  0  0  0  0  0  0  0  0  0
   -2.2527    0.9709    1.9438 H   0  0  0  0  0  0  0  0  0  0  0  0
   -3.1824    2.0796   -1.5779 H   0  0  0  0  0  0  0  0  0  0  0  0
   -2.1765    0.8032   -2.2713 H   0  0  0  0  0  0  0  0  0  0  0  0
   -4.6007    0.3804    1.9427 H   0  0  0  0  0  0  0  0  0  0  0  0
   -3.6378   -0.8647    1.1331 H   0  0  0  0  0  0  0  0  0  0  0  0
   -4.5863    0.2072   -2.2774 H   0  0  0  0  0  0  0  0  0  0  0  0
   -3.6071   -0.9543   -1.3735 H   0  0  0  0  0  0  0  0  0  0  0  0
   -5.6373   -1.6622   -0.1228 H   0  0  0  0  0  0  0  0  0  0  0  0
   -6.5422   -0.5147   -1.0921 H   0  0  0  0  0  0  0  0  0  0  0  0
   -6.4088   -0.4593    1.9780 H   0  0  0  0  0  0  0  0  0  0  0  0
   -7.2742    0.7107    0.9490 H   0  0  0  0  0  0  0  0  0  0  0  0
    4.2383    1.8928   -1.0366 H   0  0  0  0  0  0  0  0  0  0  0  0
    4.2923    1.3821    0.6728 H   0  0  0  0  0  0  0  0  0  0  0  0
    0.6662   -2.6361    1.5621 H   0  0  0  0  0  0  0  0  0  0  0  0
    2.6944   -1.7777   -2.1501 H   0  0  0  0  0  0  0  0  0  0  0  0
   -8.5599   -0.9895    1.7179 H   0  0  0  0  0  0  0  0  0  0  0  0
    5.6733    3.3959    1.2236 H   0  0  0  0  0  0  0  0  0  0  0  0
    5.6179    3.9049   -0.4689 H   0  0  0  0  0  0  0  0  0  0  0  0
    6.4596    2.4104   -0.0220 H   0  0  0  0  0  0  0  0  0  0  0  0
    2.6303   -3.8765    2.3458 H   0  0  0  0  0  0  0  0  0  0  0  0
    4.6571   -3.0187   -1.3614 H   0  0  0  0  0  0  0  0  0  0  0  0
    4.6804   -5.0965    1.7020 H   0  0  0  0  0  0  0  0  0  0  0  0
    5.5074   -4.7478    0.1871 H   0  0  0  0  0  0  0  0  0  0  0  0
    5.6518   -3.6134    1.5504 H   0  0  0  0  0  0  0  0  0  0  0  0
  1  5  2  0  0  0  0
  1  6  2  0  0  0  0
  1 18  1  0  0  0  0
  1 21  1  0  0  0  0
  2 16  1  0  0  0  0
  2 20  1  0  0  0  0
  3  7  2  0  0  0  0
  3  8  2  0  0  0  0
  3 20  1  0  0  0  0
  3 22  1  0  0  0  0
  4 19  1  0  0  0  0
  4 46  1  0  0  0  0
  9 12  1  0  0  0  0
  9 13  1  0  0  0  0
  9 16  1  0  0  0  0
 10 14  1  0  0  0  0
 10 15  1  0  0  0  0
 10 17  1  0  0  0  0
 11 18  1  0  0  0  0
 11 20  2  0  0  0  0
 12 14  1  0  0  0  0
 12 30  1  0  0  0  0
 12 31  1  0  0  0  0
 13 15  1  0  0  0  0
 13 32  1  0  0  0  0
 13 33  1  0  0  0  0
 14 34  1  0  0  0  0
 14 35  1  0  0  0  0
 15 36  1  0  0  0  0
 15 37  1  0  0  0  0
 16 18  2  0  0  0  0
 17 19  1  0  0  0  0
 17 38  1  0  0  0  0
 17 39  1  0  0  0  0
 19 40  1  0  0  0  0
 19 41  1  0  0  0  0
 21 23  2  0  0  0  0
 21 24  1  0  0  0  0
 22 25  1  0  0  0  0
 22 42  1  0  0  0  0
 22 43  1  0  0  0  0
 23 26  1  0  0  0  0
 23 44  1  0  0  0  0
 24 27  2  0  0  0  0
 24 45  1  0  0  0  0
 25 47  1  0  0  0  0
 25 48  1  0  0  0  0
 25 49  1  0  0  0  0
 26 28  2  0  0  0  0
 26 50  1  0  0  0  0
 27 28  1  0  0  0  0
 27 51  1  0  0  0  0
 28 29  1  0  0  0  0
 29 52  1  0  0  0  0
 29 53  1  0  0  0  0
 29 54  1  0  0  0  0
M  END
> <PUBCHEM_COMPOUND_CID>
20888752

> <PUBCHEM_CONFORMER_RMSD>
1

> <PUBCHEM_CONFORMER_DIVERSEORDER>
1
33
40
26
36
21
50
29
9
53
18
39
23
43
52
38
22
6
49
19
46
16
10
37
20
25
32
8
44
51
31
13
35
27
42
28
15
34
24
5
3
45
12
47
41
30
48
17
11
14
2
4
7

> <PUBCHEM_MMFF94_PARTIAL_CHARGES>
33
1 1.37
10 -0.81
11 -0.57
12 0.37
13 0.37
14 0.27
15 0.27
16 0.12
17 0.27
18 0.16
19 0.28
2 -0.08
20 0.32
21 -0.01
22 0.11
23 -0.15
24 -0.15
26 -0.15
27 -0.15
28 -0.14
29 0.14
3 1.26
4 -0.68
44 0.15
45 0.15
46 0.4
5 -0.65
50 0.15
51 0.15
6 -0.65
7 -0.65
8 -0.65
9 -0.82

> <PUBCHEM_EFFECTIVE_ROTOR_COUNT>
8.2

> <PUBCHEM_PHARMACOPHORE_FEATURES>
12
1 10 cation
1 11 acceptor
1 4 acceptor
1 4 donor
1 5 acceptor
1 6 acceptor
1 7 acceptor
1 8 acceptor
1 9 cation
5 2 11 16 18 20 rings
6 21 23 24 26 27 28 rings
6 9 10 12 13 14 15 rings

> <PUBCHEM_HEAVY_ATOM_COUNT>
29

> <PUBCHEM_ATOM_DEF_STEREO_COUNT>
0

> <PUBCHEM_ATOM_UDEF_STEREO_COUNT>
0

> <PUBCHEM_BOND_DEF_STEREO_COUNT>
0

> <PUBCHEM_BOND_UDEF_STEREO_COUNT>
0

> <PUBCHEM_ISOTOPIC_ATOM_COUNT>
0

> <PUBCHEM_COMPONENT_COUNT>
1

> <PUBCHEM_CACTVS_TAUTO_COUNT>
1

> <PUBCHEM_CONFORMER_ID>
013EBCB000000001

> <PUBCHEM_MMFF94_ENERGY>
48.7017

> <PUBCHEM_FEATURE_SELFOVERLAP>
60.934

> <PUBCHEM_SHAPE_FINGERPRINT>
10050765 1 18338237068844641817
10190108 129 17904487646847584051
10411042 1 18194403286471904462
11763715 3 17761234119542626526
11963148 33 18267018552360208935
12156800 1 16009898176111060480
12166972 35 17750245707292110223
12293681 25 17749690565994668363
12597179 24 18115873064732841570
12788726 201 17109864657539462600
13140716 1 18197207264693121960
133893 2 18340781363592360345
13533116 47 18412267246723876249
13540713 4 18114730548352281573
13540713 5 17916287494283861655
13955234 65 18412260670480417905
14028597 1 17846505845928024144
140371 6 17551793616570424420
14347424 109 18341902866676298145
14787075 74 18116164268185471710
15927050 60 18268710700069411294
1813 80 18057605352283507278
18393751 57 17978220888164300265
18785283 64 18408599279753854908
20771845 171 17822302326514373732
21049683 118 17486191607549584160
21049683 271 18261965063679187804
21344244 78 17489308538968460441
21360443 120 18336548326305403540
21796203 349 18124062076960466570
22956985 138 18189046509081808834
23419403 2 18042670716013471628
244849 19 17895736427869687917
249999 5 18411417349240686929
25147074 1 17917137399470748975
283562 15 17477187796934303359
3178227 256 18339363075582263640
3411729 13 18342463672523127605
392239 28 18048036264475787794
4093350 32 17274837856040247415
437795 51 18335430083971750550
5104073 3 18270134444143656585
5265222 85 17974859672681020948
5385378 56 18340487862733510112
59755656 215 18336833086082750085
6669772 16 18335984267590926434
6673363 416 18051983524964800478
6679774 75 18115854365468582762

> <PUBCHEM_SHAPE_MULTIPOLES>
564.07
13.24
5.82
1.4
23.98
0.82
0.23
-4.87
-4.16
-13.47
-1.6
0.29
-0.41
0.01

> <PUBCHEM_SHAPE_SELFOVERLAP>
1142.442

> <PUBCHEM_SHAPE_VOLUME>
331.3

> <PUBCHEM_COORDINATE_TYPE>
2
5
10

$$$$
