24980129
  -OEChem-01171812123D

 66 70  0     0  0  0  0  0  0999 V2000
    3.5687   -2.0987    1.4909 S   0  0  0  0  0  0  0  0  0  0  0  0
    2.9174   -2.3698    2.7543 O   0  0  0  0  0  0  0  0  0  0  0  0
    4.9339   -2.5143    1.2508 O   0  0  0  0  0  0  0  0  0  0  0  0
   -1.3615   -4.8010    0.1009 O   0  0  0  0  0  0  0  0  0  0  0  0
   -6.1919   -0.2009   -0.7249 O   0  0  0  0  0  0  0  0  0  0  0  0
    3.4258   -0.4290    1.1357 N   0  0  0  0  0  0  0  0  0  0  0  0
    2.7840    2.1436    0.1290 N   0  0  0  0  0  0  0  0  0  0  0  0
   -1.9063   -2.6688   -0.6832 N   0  0  0  0  0  0  0  0  0  0  0  0
   -3.4572   -0.3854   -0.1144 N   0  0  0  0  0  0  0  0  0  0  0  0
    3.9048   -0.0193   -0.2148 C   0  0  0  0  0  0  0  0  0  0  0  0
    2.0988    0.1776    1.4383 C   0  0  0  0  0  0  0  0  0  0  0  0
    4.0449    1.4992   -0.2652 C   0  0  0  0  0  0  0  0  0  0  0  0
    2.2120    1.6996    1.4054 C   0  0  0  0  0  0  0  0  0  0  0  0
   -3.3410   -2.8228   -0.4653 C   0  0  0  0  0  0  0  0  0  0  0  0
   -1.5327   -1.3833   -1.2776 C   0  0  0  0  0  0  0  0  0  0  0  0
   -3.8721   -1.6946    0.4171 C   0  0  0  0  0  0  0  0  0  0  0  0
   -2.0248   -0.2292   -0.4063 C   0  0  0  0  0  0  0  0  0  0  0  0
    2.5611   -2.7734    0.2080 C   0  0  0  0  0  0  0  0  0  0  0  0
    2.5539    3.4504   -0.3161 C   0  0  0  0  0  0  0  0  0  0  0  0
   -1.0350   -3.7109   -0.3661 C   0  0  0  0  0  0  0  0  0  0  0  0
    0.4013   -3.5038   -0.5913 C   0  0  0  0  0  0  0  0  0  0  0  0
   -4.2117    0.7341    0.2558 C   0  0  0  0  0  0  0  0  0  0  0  0
    1.1969   -2.9701    0.4227 C   0  0  0  0  0  0  0  0  0  0  0  0
    3.1295   -3.1106   -1.0204 C   0  0  0  0  0  0  0  0  0  0  0  0
    2.5115    3.7246   -1.6832 C   0  0  0  0  0  0  0  0  0  0  0  0
    2.3671    4.4789    0.6076 C   0  0  0  0  0  0  0  0  0  0  0  0
    0.9698   -3.8410   -1.8196 C   0  0  0  0  0  0  0  0  0  0  0  0
    2.3338   -3.6444   -2.0341 C   0  0  0  0  0  0  0  0  0  0  0  0
   -5.5695    0.8099   -0.0550 C   0  0  0  0  0  0  0  0  0  0  0  0
   -3.5939    1.7796    0.9421 C   0  0  0  0  0  0  0  0  0  0  0  0
    2.2828    5.0272   -2.1265 C   0  0  0  0  0  0  0  0  0  0  0  0
    2.1383    5.7814    0.1641 C   0  0  0  0  0  0  0  0  0  0  0  0
   -6.3093    1.9314    0.3204 C   0  0  0  0  0  0  0  0  0  0  0  0
   -4.3339    2.9010    1.3174 C   0  0  0  0  0  0  0  0  0  0  0  0
    2.0961    6.0555   -1.2030 C   0  0  0  0  0  0  0  0  0  0  0  0
   -5.6914    2.9769    1.0065 C   0  0  0  0  0  0  0  0  0  0  0  0
    3.1911   -0.3325   -0.9841 H   0  0  0  0  0  0  0  0  0  0  0  0
    4.8798   -0.4689   -0.4275 H   0  0  0  0  0  0  0  0  0  0  0  0
    1.7552   -0.1232    2.4328 H   0  0  0  0  0  0  0  0  0  0  0  0
    1.3588   -0.1467    0.6986 H   0  0  0  0  0  0  0  0  0  0  0  0
    4.8398    1.8267    0.4171 H   0  0  0  0  0  0  0  0  0  0  0  0
    4.3511    1.7820   -1.2788 H   0  0  0  0  0  0  0  0  0  0  0  0
    1.2079    2.1170    1.5513 H   0  0  0  0  0  0  0  0  0  0  0  0
    2.8480    2.0394    2.2326 H   0  0  0  0  0  0  0  0  0  0  0  0
   -3.5652   -3.7914   -0.0075 H   0  0  0  0  0  0  0  0  0  0  0  0
   -3.8255   -2.8005   -1.4489 H   0  0  0  0  0  0  0  0  0  0  0  0
   -2.0009   -1.3396   -2.2686 H   0  0  0  0  0  0  0  0  0  0  0  0
   -0.4540   -1.2965   -1.4241 H   0  0  0  0  0  0  0  0  0  0  0  0
   -4.9564   -1.8052    0.5064 H   0  0  0  0  0  0  0  0  0  0  0  0
   -3.4622   -1.8000    1.4304 H   0  0  0  0  0  0  0  0  0  0  0  0
   -1.4574   -0.2140    0.5329 H   0  0  0  0  0  0  0  0  0  0  0  0
   -1.8318    0.7085   -0.9415 H   0  0  0  0  0  0  0  0  0  0  0  0
    0.7413   -2.7077    1.3742 H   0  0  0  0  0  0  0  0  0  0  0  0
    4.1889   -2.9653   -1.2111 H   0  0  0  0  0  0  0  0  0  0  0  0
    2.6403    2.9346   -2.4186 H   0  0  0  0  0  0  0  0  0  0  0  0
    2.4084    4.3048    1.6790 H   0  0  0  0  0  0  0  0  0  0  0  0
    0.3587   -4.2568   -2.6164 H   0  0  0  0  0  0  0  0  0  0  0  0
    2.7761   -3.9062   -2.9908 H   0  0  0  0  0  0  0  0  0  0  0  0
   -2.5431    1.7499    1.2158 H   0  0  0  0  0  0  0  0  0  0  0  0
    2.2468    5.2403   -3.1909 H   0  0  0  0  0  0  0  0  0  0  0  0
    1.9961    6.5832    0.8828 H   0  0  0  0  0  0  0  0  0  0  0  0
   -7.3678    2.0040    0.0852 H   0  0  0  0  0  0  0  0  0  0  0  0
   -3.8541    3.7137    1.8550 H   0  0  0  0  0  0  0  0  0  0  0  0
    1.9180    7.0698   -1.5482 H   0  0  0  0  0  0  0  0  0  0  0  0
   -6.2676    3.8496    1.2997 H   0  0  0  0  0  0  0  0  0  0  0  0
   -7.1290    0.0289   -0.8477 H   0  0  0  0  0  0  0  0  0  0  0  0
  1  2  2  0  0  0  0
  1  3  2  0  0  0  0
  1  6  1  0  0  0  0
  1 18  1  0  0  0  0
  4 20  2  0  0  0  0
  5 29  1  0  0  0  0
  5 66  1  0  0  0  0
  6 10  1  0  0  0  0
  6 11  1  0  0  0  0
  7 12  1  0  0  0  0
  7 13  1  0  0  0  0
  7 19  1  0  0  0  0
  8 14  1  0  0  0  0
  8 15  1  0  0  0  0
  8 20  1  0  0  0  0
  9 16  1  0  0  0  0
  9 17  1  0  0  0  0
  9 22  1  0  0  0  0
 10 12  1  0  0  0  0
 10 37  1  0  0  0  0
 10 38  1  0  0  0  0
 11 13  1  0  0  0  0
 11 39  1  0  0  0  0
 11 40  1  0  0  0  0
 12 41  1  0  0  0  0
 12 42  1  0  0  0  0
 13 43  1  0  0  0  0
 13 44  1  0  0  0  0
 14 16  1  0  0  0  0
 14 45  1  0  0  0  0
 14 46  1  0  0  0  0
 15 17  1  0  0  0  0
 15 47  1  0  0  0  0
 15 48  1  0  0  0  0
 16 49  1  0  0  0  0
 16 50  1  0  0  0  0
 17 51  1  0  0  0  0
 17 52  1  0  0  0  0
 18 23  1  0  0  0  0
 18 24  2  0  0  0  0
 19 25  2  0  0  0  0
 19 26  1  0  0  0  0
 20 21  1  0  0  0  0
 21 23  2  0  0  0  0
 21 27  1  0  0  0  0
 22 29  1  0  0  0  0
 22 30  2  0  0  0  0
 23 53  1  0  0  0  0
 24 28  1  0  0  0  0
 24 54  1  0  0  0  0
 25 31  1  0  0  0  0
 25 55  1  0  0  0  0
 26 32  2  0  0  0  0
 26 56  1  0  0  0  0
 27 28  2  0  0  0  0
 27 57  1  0  0  0  0
 28 58  1  0  0  0  0
 29 33  2  0  0  0  0
 30 34  1  0  0  0  0
 30 59  1  0  0  0  0
 31 35  2  0  0  0  0
 31 60  1  0  0  0  0
 32 35  1  0  0  0  0
 32 61  1  0  0  0  0
 33 36  1  0  0  0  0
 33 62  1  0  0  0  0
 34 36  2  0  0  0  0
 34 63  1  0  0  0  0
 35 64  1  0  0  0  0
 36 65  1  0  0  0  0
M  END
> <PUBCHEM_COMPOUND_CID>
24980129

> <PUBCHEM_CONFORMER_RMSD>
1

> <PUBCHEM_CONFORMER_DIVERSEORDER>
1
106
137
108
236
169
159
165
202
218
209
175
18
150
170
123
189
125
187
62
232
83
239
220
81
184
85
93
21
206
143
192
30
176
20
76
115
148
207
82
19
193
221
227
203
117
158
46
36
186
23
161
181
73
99
51
208
64
231
28
121
32
154
195
72
114
33
58
11
48
201
183
135
190
39
98
196
217
171
42
66
173
8
65
95
237
235
156
101
151
200
35
205
124
7
129
24
44
50
139
224
2
41
164
157
163
116
147
119
10
223
166
88
16
180
213
212
226
199
140
136
230
215
160
111
80
185
204
198
197
149
105
70
234
134
45
233
86
63
132
191
79
87
68
71
38
97
225
92
91
178
229
84
133
153
56
138
90
167
53
12
162
127
182
214
155
31
238
110
100
40
113
34
26
74
130
107
128
96
25
104
168
6
22
17
57
103
69
142
47
188
13
141
118
174
177
3
78
216
14
152
5
146
228
179
94
219
9
222
75
54
49
120
145
52
102
59
61
112
126
122
27
77
89
67
37
60
55
211
210
4
29
109
131
172
194
43
144
15

> <PUBCHEM_MMFF94_PARTIAL_CHARGES>
50
1 1.45
10 0.36
11 0.36
12 0.37
13 0.37
14 0.3
15 0.3
16 0.37
17 0.37
18 -0.01
19 0.1
2 -0.65
20 0.54
21 0.09
22 0.1
23 -0.15
24 -0.15
25 -0.15
26 -0.15
27 -0.15
28 -0.15
29 0.08
3 -0.65
30 -0.15
31 -0.15
32 -0.15
33 -0.15
34 -0.15
35 -0.15
36 -0.15
4 -0.57
5 -0.53
53 0.15
54 0.15
55 0.15
56 0.15
57 0.15
58 0.15
59 0.15
6 -0.85
60 0.15
61 0.15
62 0.15
63 0.15
64 0.15
65 0.15
66 0.45
7 -0.84
8 -0.66
9 -0.84

> <PUBCHEM_EFFECTIVE_ROTOR_COUNT>
8.4

> <PUBCHEM_PHARMACOPHORE_FEATURES>
11
1 2 acceptor
1 3 acceptor
1 4 acceptor
1 5 donor
1 7 cation
1 9 cation
6 18 21 23 24 27 28 rings
6 19 25 26 31 32 35 rings
6 22 29 30 33 34 36 rings
6 6 7 10 11 12 13 rings
6 8 9 14 15 16 17 rings

> <PUBCHEM_HEAVY_ATOM_COUNT>
36

> <PUBCHEM_ATOM_DEF_STEREO_COUNT>
0

> <PUBCHEM_ATOM_UDEF_STEREO_COUNT>
0

> <PUBCHEM_BOND_DEF_STEREO_COUNT>
0

> <PUBCHEM_BOND_UDEF_STEREO_COUNT>
0

> <PUBCHEM_ISOTOPIC_ATOM_COUNT>
0

> <PUBCHEM_COMPONENT_COUNT>
1

> <PUBCHEM_CACTVS_TAUTO_COUNT>
3

> <PUBCHEM_CONFORMER_ID>
017D2AA100000001

> <PUBCHEM_MMFF94_ENERGY>
118.2631

> <PUBCHEM_FEATURE_SELFOVERLAP>
55.84

> <PUBCHEM_SHAPE_FINGERPRINT>
10439779 11 18339349881811352600
10483366 6 18198643059834124966
10937287 8 17903636624667902196
11059048 146 18196382634745037261
11273773 38 18411423890739648520
11476731 47 18410844453267167349
11828042 279 18338502107413222445
12786520 15 18113617837683278360
12788726 201 17184464859421404232
13761468 95 17474984358763457688
15210252 30 18339375050198705934
15320291 9 18410853308940942345
15320467 1 18412547608903838337
15444296 121 18335974342544634914
15475509 84 16895960138097494443
161222 10 17539426717724148125
19319366 153 17540800020916529978
20764821 26 17833557790682673525
245318 6 18116158946720823725
3103668 31 17115521640501338070
338550 245 18271520901697720835
3388396 114 17263826483364169302
3534868 343 17838587287786987774
4066623 53 17910972248848294510
4173938 77 18267882592225834749
437795 96 17400637130598227077
44426701 206 16984041031098495437
4487111 67 17618786198784055937
4573279 73 18129929183851380551
53794403 172 18410859884466943719
550186 83 18045214947413275522
6036956 94 17831857229036787735
6201320 215 17043169940537209224
6609424 69 17693654818682945381
7288768 16 16453455653744540610
86090 222 15385266242847009456

> <PUBCHEM_SHAPE_MULTIPOLES>
701.31
11.7
9.52
1.76
19.38
9.06
-0.06
5.5
-2.55
-8.52
3.67
-1.79
-0.14
-2.96

> <PUBCHEM_SHAPE_SELFOVERLAP>
1502.259

> <PUBCHEM_SHAPE_VOLUME>
387.2

> <PUBCHEM_COORDINATE_TYPE>
2
5
10

$$$$
