24892098
  -OEChem-01171812113D

 52 55  0     1  0  0  0  0  0999 V2000
    5.4253    1.8160    0.1168 S   0  0  0  0  0  0  0  0  0  0  0  0
    2.5511    2.8042    0.2917 S   0  0  0  0  0  0  0  0  0  0  0  0
   -4.3823    0.4293    2.3546 O   0  0  0  0  0  0  0  0  0  0  0  0
    7.7193   -2.1461    0.3441 O   0  0  0  0  0  0  0  0  0  0  0  0
    9.6327   -1.1032   -0.5307 O   0  0  0  0  0  0  0  0  0  0  0  0
   -1.2226    0.1368   -0.5354 O   0  0  0  0  0  0  0  0  0  0  0  0
   -7.6804   -2.5930    0.7569 O   0  0  0  0  0  0  0  0  0  0  0  0
   -4.2699    0.7436   -0.0054 N   0  0  0  0  0  0  0  0  0  0  0  0
   -0.0008    2.0701    0.0181 N   0  0  0  0  0  0  0  0  0  0  0  0
    1.8040    0.4412   -0.3590 N   0  0  0  0  0  0  0  0  0  0  0  0
    3.1870    0.4005   -0.3280 N   0  0  0  0  0  0  0  0  0  0  0  0
   -2.3842    2.1480   -0.0314 C   0  0  1  0  0  0  0  0  0  0  0  0
   -3.5377    1.6430   -0.8780 C   0  0  0  0  0  0  0  0  0  0  0  0
   -2.8952    2.0500    1.3959 C   0  0  0  0  0  0  0  0  0  0  0  0
   -3.9337    0.9513    1.3438 C   0  0  0  0  0  0  0  0  0  0  0  0
   -1.1455    1.3193   -0.2180 C   0  0  0  0  0  0  0  0  0  0  0  0
   -5.2562   -0.1601   -0.5045 C   0  0  0  0  0  0  0  0  0  0  0  0
   -5.9952   -0.9447    0.3810 C   0  0  0  0  0  0  0  0  0  0  0  0
    8.2016   -1.1656   -0.5848 C   0  0  0  0  0  0  0  0  0  0  0  0
   -5.4805   -0.2585   -1.8776 C   0  0  0  0  0  0  0  0  0  0  0  0
    7.6249    0.1955   -0.2454 C   0  0  0  0  0  0  0  0  0  0  0  0
    8.8676   -2.5199    1.1052 C   0  0  0  0  0  0  0  0  0  0  0  0
   10.0088   -2.2984    0.1507 C   0  0  0  0  0  0  0  0  0  0  0  0
   -6.9588   -1.8274   -0.1068 C   0  0  0  0  0  0  0  0  0  0  0  0
    6.1014    0.1745   -0.2980 C   0  0  0  0  0  0  0  0  0  0  0  0
   -6.4440   -1.1414   -2.3655 C   0  0  0  0  0  0  0  0  0  0  0  0
    1.3440    1.6361   -0.0552 C   0  0  0  0  0  0  0  0  0  0  0  0
   -7.1830   -1.9258   -1.4800 C   0  0  0  0  0  0  0  0  0  0  0  0
    3.7022    1.5669   -0.0025 C   0  0  0  0  0  0  0  0  0  0  0  0
   -7.4000   -2.4424    2.1477 C   0  0  0  0  0  0  0  0  0  0  0  0
   -2.1569    3.1865   -0.3006 H   0  0  0  0  0  0  0  0  0  0  0  0
   -4.2099    2.4645   -1.1520 H   0  0  0  0  0  0  0  0  0  0  0  0
   -3.1828    1.1405   -1.7825 H   0  0  0  0  0  0  0  0  0  0  0  0
   -3.3957    2.9752    1.7005 H   0  0  0  0  0  0  0  0  0  0  0  0
   -2.1158    1.7965    2.1204 H   0  0  0  0  0  0  0  0  0  0  0  0
   -0.0996    3.0471    0.2830 H   0  0  0  0  0  0  0  0  0  0  0  0
    7.9058   -1.4753   -1.5935 H   0  0  0  0  0  0  0  0  0  0  0  0
   -5.8233   -0.8694    1.4397 H   0  0  0  0  0  0  0  0  0  0  0  0
   -4.9423    0.3377   -2.6066 H   0  0  0  0  0  0  0  0  0  0  0  0
    8.0316    0.9439   -0.9373 H   0  0  0  0  0  0  0  0  0  0  0  0
    7.9572    0.4868    0.7599 H   0  0  0  0  0  0  0  0  0  0  0  0
    8.7840   -3.5530    1.4508 H   0  0  0  0  0  0  0  0  0  0  0  0
    8.9318   -1.8517    1.9708 H   0  0  0  0  0  0  0  0  0  0  0  0
   10.9737   -2.1747    0.6482 H   0  0  0  0  0  0  0  0  0  0  0  0
   10.0802   -3.1045   -0.5877 H   0  0  0  0  0  0  0  0  0  0  0  0
    5.7639   -0.1048   -1.3020 H   0  0  0  0  0  0  0  0  0  0  0  0
    5.7001   -0.5526    0.4155 H   0  0  0  0  0  0  0  0  0  0  0  0
   -6.6213   -1.2164   -3.4344 H   0  0  0  0  0  0  0  0  0  0  0  0
   -7.9327   -2.6112   -1.8659 H   0  0  0  0  0  0  0  0  0  0  0  0
   -8.0654   -3.1264    2.6850 H   0  0  0  0  0  0  0  0  0  0  0  0
   -7.6341   -1.4321    2.5005 H   0  0  0  0  0  0  0  0  0  0  0  0
   -6.3750   -2.7444    2.3889 H   0  0  0  0  0  0  0  0  0  0  0  0
  1 25  1  0  0  0  0
  1 29  1  0  0  0  0
  2 27  1  0  0  0  0
  2 29  1  0  0  0  0
  3 15  2  0  0  0  0
  4 19  1  0  0  0  0
  4 22  1  0  0  0  0
  5 19  1  0  0  0  0
  5 23  1  0  0  0  0
  6 16  2  0  0  0  0
  7 24  1  0  0  0  0
  7 30  1  0  0  0  0
  8 13  1  0  0  0  0
  8 15  1  0  0  0  0
  8 17  1  0  0  0  0
  9 16  1  0  0  0  0
  9 27  1  0  0  0  0
  9 36  1  0  0  0  0
 10 11  1  0  0  0  0
 10 27  2  0  0  0  0
 11 29  2  0  0  0  0
 12 13  1  0  0  0  0
 12 14  1  0  0  0  0
 12 16  1  0  0  0  0
 12 31  1  0  0  0  0
 13 32  1  0  0  0  0
 13 33  1  0  0  0  0
 14 15  1  0  0  0  0
 14 34  1  0  0  0  0
 14 35  1  0  0  0  0
 17 18  2  0  0  0  0
 17 20  1  0  0  0  0
 18 24  1  0  0  0  0
 18 38  1  0  0  0  0
 19 21  1  0  0  0  0
 19 37  1  0  0  0  0
 20 26  2  0  0  0  0
 20 39  1  0  0  0  0
 21 25  1  0  0  0  0
 21 40  1  0  0  0  0
 21 41  1  0  0  0  0
 22 23  1  0  0  0  0
 22 42  1  0  0  0  0
 22 43  1  0  0  0  0
 23 44  1  0  0  0  0
 23 45  1  0  0  0  0
 24 28  2  0  0  0  0
 25 46  1  0  0  0  0
 25 47  1  0  0  0  0
 26 28  1  0  0  0  0
 26 48  1  0  0  0  0
 28 49  1  0  0  0  0
 30 50  1  0  0  0  0
 30 51  1  0  0  0  0
 30 52  1  0  0  0  0
M  END
> <PUBCHEM_COMPOUND_CID>
24892098

> <PUBCHEM_CONFORMER_RMSD>
1.2

> <PUBCHEM_CONFORMER_DIVERSEORDER>
1
65
35
25
99
67
31
151
71
135
118
48
29
141
158
58
36
183
74
188
133
176
95
111
186
104
109
24
53
44
114
50
120
163
73
128
167
159
149
78
130
190
101
170
174
125
154
70
165
106
89
171
115
195
107
42
69
54
179
28
85
173
153
83
137
132
88
60
57
112
184
76
3
100
145
197
136
182
187
5
180
124
126
87
194
147
144
26
138
18
140
166
80
161
56
52
43
66
172
37
134
23
110
14
103
62
178
82
169
12
96
97
32
168
116
198
15
51
19
177
2
175
55
150
146
139
46
49
40
8
156
157
91
34
142
189
160
202
68
86
61
33
203
22
105
113
64
21
4
47
192
119
123
117
93
92
122
199
11
185
155
143
7
127
196
193
16
152
63
191
90
94
201
20
121
102
45
131
164
39
108
30
162
77
17
181
41
59
200
84
98
27
72
75
81
148
10
9
79
129
6
13
38

> <PUBCHEM_MMFF94_PARTIAL_CHARGES>
34
1 -0.29
10 -0.34
11 -0.34
12 0.06
13 0.3
14 0.06
15 0.57
16 0.57
17 0.12
18 -0.15
19 0.56
2 -0.08
20 -0.15
22 0.28
23 0.28
24 0.08
25 0.23
26 -0.15
27 0.44
28 -0.15
29 0.43
3 -0.57
30 0.28
36 0.37
38 0.15
39 0.15
4 -0.56
48 0.15
49 0.15
5 -0.56
6 -0.57
7 -0.36
8 -0.48
9 -0.49

> <PUBCHEM_EFFECTIVE_ROTOR_COUNT>
10.8

> <PUBCHEM_PHARMACOPHORE_FEATURES>
11
1 11 acceptor
1 3 acceptor
1 4 acceptor
1 5 acceptor
1 6 acceptor
1 7 acceptor
1 9 donor
5 2 10 11 27 29 rings
5 4 5 19 22 23 rings
5 8 12 13 14 15 rings
6 17 18 20 24 26 28 rings

> <PUBCHEM_HEAVY_ATOM_COUNT>
30

> <PUBCHEM_ATOM_DEF_STEREO_COUNT>
0

> <PUBCHEM_ATOM_UDEF_STEREO_COUNT>
1

> <PUBCHEM_BOND_DEF_STEREO_COUNT>
0

> <PUBCHEM_BOND_UDEF_STEREO_COUNT>
0

> <PUBCHEM_ISOTOPIC_ATOM_COUNT>
0

> <PUBCHEM_COMPONENT_COUNT>
1

> <PUBCHEM_CACTVS_TAUTO_COUNT>
6

> <PUBCHEM_CONFORMER_ID>
017BD2C200000001

> <PUBCHEM_MMFF94_ENERGY>
81.1575

> <PUBCHEM_FEATURE_SELFOVERLAP>
55.867

> <PUBCHEM_SHAPE_FINGERPRINT>
11181472 205 11747202525834260884
11386260 185 16588030143466526644
11578821 258 9151177557941732710
125118 31 9727630614706967388
12539765 74 10881402003179892720
12592606 108 18410572865299370558
13383668 90 17240194444538061807
13553643 46 10231765478940180230
13627175 4 18343032086081040710
13668630 136 18041275560486194829
13782708 43 18409444795542967644
15198563 99 15719953507061119806
15461852 350 16226046721413545191
15510800 12 18261118503696888803
16991971 28 18408600354012559128
16992610 120 17532079524505379725
16994733 274 9367340427940047052
1754908 1 16343698838173514486
1754911 235 12757154568025878926
1818759 1 18335423478027056618
195137 175 11458423531491454742
2026 5 18336264549105156378
20982279 24 18260843595630644058
21130935 74 18058730192409178120
21315759 40 18272655658075476204
21792961 116 18341608223377369661
21987483 16 17772177867451720299
22288116 15 14634866505426386497
23389318 12 18186243935995294996
23522609 53 17985016848944443560
23559900 14 16154266273400405629
23569943 247 18201155555382857403
23576562 1 14635730737902006494
25025965 108 18130493202571858551
3383291 50 18131631192779744006
3711267 37 9943527448966680698
406291 66 18343016705523468148
4169191 19 8142089770854507671
44802255 64 14201398279359889585
44880568 143 17168134676866939501
4616759 239 15195291971371200559
504579 68 16008468724964041452
54039377 194 18413107260595936310
5718773 13 18411979157292093436
5937810 71 10737291242428717570
6201320 82 11314848165303655759
6289498 60 10807937051053197446
6328613 192 11314024664793819300
636775 72 10375878467818376115
9953998 17 15267344024615693975
9980921 7 10159696881316573739

> <PUBCHEM_SHAPE_MULTIPOLES>
575.81
33.58
3.23
1.59
58.95
0.55
-0.21
37.23
0
1.46
-0.84
-4.46
0.68
-0.61

> <PUBCHEM_SHAPE_SELFOVERLAP>
1197.019

> <PUBCHEM_SHAPE_VOLUME>
330.3

> <PUBCHEM_COORDINATE_TYPE>
2
5
10

$$$$
