5910607
  -OEChem-01171811513D

 33 34  0     0  0  0  0  0  0999 V2000
   -0.0214   -1.2791   -0.4984 O   0  0  0  0  0  0  0  0  0  0  0  0
   -4.4774   -1.7374    1.0332 O   0  0  0  0  0  0  0  0  0  0  0  0
    1.4220    0.5378    0.0410 N   0  0  0  0  0  0  0  0  0  0  0  0
    1.2806    1.8962    0.3160 N   0  0  0  0  0  0  0  0  0  0  0  0
   -2.8076   -0.2398   -0.5740 N   0  0  0  0  0  0  0  0  0  0  0  0
   -4.1734   -0.2022   -0.6870 N   0  0  0  0  0  0  0  0  0  0  0  0
   -0.7744    0.9790   -0.0965 C   0  0  0  0  0  0  0  0  0  0  0  0
    0.0069    2.1687    0.2414 C   0  0  0  0  0  0  0  0  0  0  0  0
    0.2066   -0.1162   -0.2264 C   0  0  0  0  0  0  0  0  0  0  0  0
    2.6479   -0.1092    0.0320 C   0  0  0  0  0  0  0  0  0  0  0  0
   -2.0909    0.8712   -0.2597 C   0  0  0  0  0  0  0  0  0  0  0  0
   -0.5806    3.5192    0.4680 C   0  0  0  0  0  0  0  0  0  0  0  0
    2.7341   -1.4637    0.3730 C   0  0  0  0  0  0  0  0  0  0  0  0
    3.8112    0.5858   -0.3173 C   0  0  0  0  0  0  0  0  0  0  0  0
    3.9677   -2.1148    0.3645 C   0  0  0  0  0  0  0  0  0  0  0  0
    5.0447   -0.0654   -0.3258 C   0  0  0  0  0  0  0  0  0  0  0  0
    5.1230   -1.4157    0.0151 C   0  0  0  0  0  0  0  0  0  0  0  0
   -4.9206   -0.9898    0.1649 C   0  0  0  0  0  0  0  0  0  0  0  0
   -6.3985   -0.8247   -0.0640 C   0  0  0  0  0  0  0  0  0  0  0  0
   -2.7189    1.7488   -0.1349 H   0  0  0  0  0  0  0  0  0  0  0  0
   -1.0941    3.8552   -0.4368 H   0  0  0  0  0  0  0  0  0  0  0  0
    0.2082    4.2355    0.7139 H   0  0  0  0  0  0  0  0  0  0  0  0
   -1.2923    3.4787    1.2969 H   0  0  0  0  0  0  0  0  0  0  0  0
    1.8712   -2.0381    0.6946 H   0  0  0  0  0  0  0  0  0  0  0  0
    3.7752    1.6368   -0.5931 H   0  0  0  0  0  0  0  0  0  0  0  0
    4.0308   -3.1636    0.6397 H   0  0  0  0  0  0  0  0  0  0  0  0
    5.9442    0.4785   -0.5988 H   0  0  0  0  0  0  0  0  0  0  0  0
   -2.3419   -1.1256   -0.7306 H   0  0  0  0  0  0  0  0  0  0  0  0
    6.0837   -1.9221    0.0105 H   0  0  0  0  0  0  0  0  0  0  0  0
   -4.5521    0.4041   -1.4065 H   0  0  0  0  0  0  0  0  0  0  0  0
   -6.6170   -0.6922   -1.1275 H   0  0  0  0  0  0  0  0  0  0  0  0
   -6.7535    0.0483    0.4903 H   0  0  0  0  0  0  0  0  0  0  0  0
   -6.9240   -1.7166    0.2883 H   0  0  0  0  0  0  0  0  0  0  0  0
  1  9  2  0  0  0  0
  2 18  2  0  0  0  0
  3  4  1  0  0  0  0
  3  9  1  0  0  0  0
  3 10  1  0  0  0  0
  4  8  2  0  0  0  0
  5  6  1  0  0  0  0
  5 11  1  0  0  0  0
  5 28  1  0  0  0  0
  6 18  1  0  0  0  0
  6 30  1  0  0  0  0
  7  8  1  0  0  0  0
  7  9  1  0  0  0  0
  7 11  2  0  0  0  0
  8 12  1  0  0  0  0
 10 13  2  0  0  0  0
 10 14  1  0  0  0  0
 11 20  1  0  0  0  0
 12 21  1  0  0  0  0
 12 22  1  0  0  0  0
 12 23  1  0  0  0  0
 13 15  1  0  0  0  0
 13 24  1  0  0  0  0
 14 16  2  0  0  0  0
 14 25  1  0  0  0  0
 15 17  2  0  0  0  0
 15 26  1  0  0  0  0
 16 17  1  0  0  0  0
 16 27  1  0  0  0  0
 17 29  1  0  0  0  0
 18 19  1  0  0  0  0
 19 31  1  0  0  0  0
 19 32  1  0  0  0  0
 19 33  1  0  0  0  0
M  END
> <PUBCHEM_COMPOUND_CID>
5910607

> <PUBCHEM_CONFORMER_RMSD>
0.6

> <PUBCHEM_CONFORMER_DIVERSEORDER>
1
12
24
8
32
20
28
7
36
34
39
14
6
30
2
38
29
16
27
3
15
9
37
25
23
31
21
22
33
13
4
35
10
26
19
5
11
17
18

> <PUBCHEM_MMFF94_PARTIAL_CHARGES>
27
1 -0.57
10 0.12
11 -0.05
12 0.06
13 -0.15
14 -0.15
15 -0.15
16 -0.15
17 -0.15
18 0.57
19 0.06
2 -0.57
20 0.15
24 0.15
25 0.15
26 0.15
27 0.15
28 0.4
29 0.15
3 -0.11
30 0.37
4 -0.51
5 -0.52
6 -0.41
7 0.03
8 0.37
9 0.62

> <PUBCHEM_EFFECTIVE_ROTOR_COUNT>
4.2

> <PUBCHEM_PHARMACOPHORE_FEATURES>
7
1 1 acceptor
1 2 acceptor
1 4 acceptor
1 5 donor
1 6 donor
5 3 4 7 8 9 rings
6 10 13 14 15 16 17 rings

> <PUBCHEM_HEAVY_ATOM_COUNT>
19

> <PUBCHEM_ATOM_DEF_STEREO_COUNT>
0

> <PUBCHEM_ATOM_UDEF_STEREO_COUNT>
0

> <PUBCHEM_BOND_DEF_STEREO_COUNT>
1

> <PUBCHEM_BOND_UDEF_STEREO_COUNT>
0

> <PUBCHEM_ISOTOPIC_ATOM_COUNT>
0

> <PUBCHEM_COMPONENT_COUNT>
1

> <PUBCHEM_CACTVS_TAUTO_COUNT>
8

> <PUBCHEM_CONFORMER_ID>
005A304F00000001

> <PUBCHEM_MMFF94_ENERGY>
60.8442

> <PUBCHEM_FEATURE_SELFOVERLAP>
37.07

> <PUBCHEM_SHAPE_FINGERPRINT>
11045515 52 18040998405904206333
11796584 16 17603300471123480883
12032990 46 18410854356363940205
12236239 1 17560803268830999391
12516196 113 18412823603512237707
12553582 1 18270666632496954534
12596602 18 16845287293573925435
12841375 25 18411417328035050893
13103583 49 18130804364577965315
13402501 40 18187087282351370907
13685833 64 18334298695460732883
13740256 8 18408887373396669675
13862211 1 18342171167812178423
13955234 65 18124878121121291777
14252887 29 17917717889753985150
14787075 74 18260270763078364770
15042514 8 18197500623364318577
15196674 1 18410854317946565908
15352361 1 18409729560506409227
15527383 91 18131351925515839145
15927050 60 17694220375924419860
17492 89 18123468285411439974
1813 80 18130801056820397909
18222031 100 18200863046091363775
200 152 18335417941856215092
20028762 73 17917705868373483935
20157964 124 9511472117132384905
20261772 1 18060132150247546046
204376 136 8718827604589066397
21029758 27 18411981368825711165
21267235 1 18412548678751245022
221490 88 18190746534156975763
2215653 11 18261663849233504279
22182313 1 18195217053561864053
22950370 63 18411703183809513415
23402539 116 18338515240131067637
23559900 14 18040994115996027589
2871803 45 18114179713973834258
3004659 81 18040714749410610682
314194 84 18412823620618565695
329604 57 18334297560771377340
3421961 26 18340766052244966137
351380 3 18343861121600324271
4463277 17 18413389838867889477
465052 167 18343305885292154591
5104073 3 18199459975192322738
8863177 126 18044385048548315883

> <PUBCHEM_SHAPE_MULTIPOLES>
359.35
12.21
2.63
0.73
9.86
2.12
-0.03
-9.19
0.05
0.03
-0.65
0.21
-0.06
0.01

> <PUBCHEM_SHAPE_SELFOVERLAP>
759.996

> <PUBCHEM_SHAPE_VOLUME>
200.9

> <PUBCHEM_COORDINATE_TYPE>
2
5
10

$$$$
