51361202
  -OEChem-01171812183D

 34 36  0     0  0  0  0  0  0999 V2000
   -6.1924    2.8416   -0.2151 Br  0  0  0  0  0  0  0  0  0  0  0  0
    4.4856    4.2434    0.2803 Cl  0  0  0  0  0  0  0  0  0  0  0  0
   -0.2342   -3.7377   -0.3412 O   0  0  0  0  0  0  0  0  0  0  0  0
   -1.7710   -2.2819    0.8130 O   0  0  0  0  0  0  0  0  0  0  0  0
    2.8722   -2.3289   -0.1844 N   0  0  0  0  0  0  0  0  0  0  0  0
   -0.3377   -0.8005   -0.2688 N   0  0  0  0  0  0  0  0  0  0  0  0
    2.0942   -3.4438   -0.2212 N   0  0  0  0  0  0  0  0  0  0  0  0
    2.0787   -1.2092   -0.1557 C   0  0  0  0  0  0  0  0  0  0  0  0
    0.7832   -1.5539   -0.2325 C   0  0  0  0  0  0  0  0  0  0  0  0
    2.6688    0.1280   -0.0489 C   0  0  0  0  0  0  0  0  0  0  0  0
    0.7660   -3.0445   -0.2755 C   0  0  0  0  0  0  0  0  0  0  0  0
    2.4424    1.0725   -1.0502 C   0  0  0  0  0  0  0  0  0  0  0  0
    3.4567    0.4565    1.0542 C   0  0  0  0  0  0  0  0  0  0  0  0
   -1.5648   -1.2050    0.2587 C   0  0  0  0  0  0  0  0  0  0  0  0
   -2.6801   -0.2296    0.1445 C   0  0  0  0  0  0  0  0  0  0  0  0
    3.0040    2.3452   -0.9485 C   0  0  0  0  0  0  0  0  0  0  0  0
    4.0184    1.7292    1.1561 C   0  0  0  0  0  0  0  0  0  0  0  0
    3.7921    2.6734    0.1548 C   0  0  0  0  0  0  0  0  0  0  0  0
   -3.7233   -0.2514    1.0704 C   0  0  0  0  0  0  0  0  0  0  0  0
   -2.6840    0.7078   -0.8883 C   0  0  0  0  0  0  0  0  0  0  0  0
   -4.7701    0.6641    0.9634 C   0  0  0  0  0  0  0  0  0  0  0  0
   -3.7309    1.6233   -0.9956 C   0  0  0  0  0  0  0  0  0  0  0  0
   -4.7739    1.6014   -0.0696 C   0  0  0  0  0  0  0  0  0  0  0  0
    3.8361   -2.3476    0.1170 H   0  0  0  0  0  0  0  0  0  0  0  0
   -0.2084    0.1854   -0.4785 H   0  0  0  0  0  0  0  0  0  0  0  0
    2.5009   -4.3695   -0.2331 H   0  0  0  0  0  0  0  0  0  0  0  0
    1.8353    0.8335   -1.9202 H   0  0  0  0  0  0  0  0  0  0  0  0
    3.6410   -0.2660    1.8457 H   0  0  0  0  0  0  0  0  0  0  0  0
    2.8201    3.0706   -1.7368 H   0  0  0  0  0  0  0  0  0  0  0  0
    4.6298    1.9713    2.0217 H   0  0  0  0  0  0  0  0  0  0  0  0
   -3.7360   -0.9709    1.8849 H   0  0  0  0  0  0  0  0  0  0  0  0
   -1.9024    0.7393   -1.6421 H   0  0  0  0  0  0  0  0  0  0  0  0
   -5.5748    0.6344    1.6936 H   0  0  0  0  0  0  0  0  0  0  0  0
   -3.7219    2.3439   -1.8094 H   0  0  0  0  0  0  0  0  0  0  0  0
  1 23  1  0  0  0  0
  2 18  1  0  0  0  0
  3 11  2  0  0  0  0
  4 14  2  0  0  0  0
  5  7  1  0  0  0  0
  5  8  1  0  0  0  0
  5 24  1  0  0  0  0
  6  9  1  0  0  0  0
  6 14  1  0  0  0  0
  6 25  1  0  0  0  0
  7 11  1  0  0  0  0
  7 26  1  0  0  0  0
  8  9  2  0  0  0  0
  8 10  1  0  0  0  0
  9 11  1  0  0  0  0
 10 12  2  0  0  0  0
 10 13  1  0  0  0  0
 12 16  1  0  0  0  0
 12 27  1  0  0  0  0
 13 17  2  0  0  0  0
 13 28  1  0  0  0  0
 14 15  1  0  0  0  0
 15 19  2  0  0  0  0
 15 20  1  0  0  0  0
 16 18  2  0  0  0  0
 16 29  1  0  0  0  0
 17 18  1  0  0  0  0
 17 30  1  0  0  0  0
 19 21  1  0  0  0  0
 19 31  1  0  0  0  0
 20 22  2  0  0  0  0
 20 32  1  0  0  0  0
 21 23  2  0  0  0  0
 21 33  1  0  0  0  0
 22 23  1  0  0  0  0
 22 34  1  0  0  0  0
M  END
> <PUBCHEM_COMPOUND_CID>
51361202

> <PUBCHEM_CONFORMER_RMSD>
0.6

> <PUBCHEM_CONFORMER_DIVERSEORDER>
2
4
7
14
15
6
5
1
9
16
3
18
13
17
11
12
8
10

> <PUBCHEM_MMFF94_PARTIAL_CHARGES>
34
1 -0.11
10 0.03
11 0.62
12 -0.15
13 -0.15
14 0.54
15 0.09
16 -0.15
17 -0.15
18 0.18
19 -0.15
2 -0.18
20 -0.15
21 -0.15
22 -0.15
23 0.11
24 0.4
25 0.37
26 0.37
27 0.15
28 0.15
29 0.15
3 -0.57
30 0.15
31 0.15
32 0.15
33 0.15
34 0.15
4 -0.57
5 -0.52
6 -0.54
7 -0.41
8 0.07
9 0.12

> <PUBCHEM_EFFECTIVE_ROTOR_COUNT>
4

> <PUBCHEM_PHARMACOPHORE_FEATURES>
9
1 1 hydrophobe
1 3 acceptor
1 4 acceptor
1 5 donor
1 6 donor
1 7 donor
5 5 7 8 9 11 rings
6 10 12 13 16 17 18 rings
6 15 19 20 21 22 23 rings

> <PUBCHEM_HEAVY_ATOM_COUNT>
23

> <PUBCHEM_ATOM_DEF_STEREO_COUNT>
0

> <PUBCHEM_ATOM_UDEF_STEREO_COUNT>
0

> <PUBCHEM_BOND_DEF_STEREO_COUNT>
0

> <PUBCHEM_BOND_UDEF_STEREO_COUNT>
0

> <PUBCHEM_ISOTOPIC_ATOM_COUNT>
0

> <PUBCHEM_COMPONENT_COUNT>
1

> <PUBCHEM_CACTVS_TAUTO_COUNT>
10

> <PUBCHEM_CONFORMER_ID>
030FB5B200000002

> <PUBCHEM_MMFF94_ENERGY>
83.2331

> <PUBCHEM_FEATURE_SELFOVERLAP>
47.297

> <PUBCHEM_SHAPE_FINGERPRINT>
10411042 1 17546727049709835375
10670039 82 18047483506521795500
10928967 22 8142093095102043217
10937287 8 18340486776159271764
11720765 8 17844267154987431572
12035758 1 18192411023516741930
12107183 9 18265036090288112656
12173636 292 17979634864348471974
12390115 104 18124610926989603748
12633257 1 17458335368795652536
12769317 202 18272083898569046688
12788726 201 17765138858588792910
12925494 130 17903354811070101597
13134695 92 17977659819036932278
13140716 1 18408040723520790082
13590594 115 17620205238666228224
13878862 14 18190727640881041621
13944108 23 18120665630087681628
13965767 371 18114170969615676492
14251764 75 18343029912543473313
14468879 13 18261119611930040873
14848178 96 18343022189896479657
15342168 16 18411701002172011397
15420108 30 18269534153349404890
16988056 13 18123470475601570548
1768 85 18338244756746190761
17810953 82 18409730621237152973
1798214 55 18340209686455173876
1979834 28 18260838085514663669
20157964 124 18339356358748862541
20715895 44 18338509738531565609
21133410 127 18113338591816701092
21304303 282 17414401152240992846
21475661 188 18261391109470940491
21756936 100 17982165923220917468
21860390 5 17984425139709517103
22122407 14 17912944785925989385
22149856 69 18264233386886169291
23559900 14 18265616481338792403
283562 15 17907289206327090982
469060 322 17688326989289282067
474 4 18412542081195869763
49207404 50 18260559930415193163
495365 180 18341887438140966043
5048184 11 18339926042461865612
5104073 3 18188779345168250417
57124632 79 18411412904197429432
633830 44 18202570583059167709
7064713 232 18262517121000044884
7808743 9 18050851323427921488
9849439 229 18339356473995892377
9981440 41 18337950211439901411

> <PUBCHEM_SHAPE_MULTIPOLES>
454.46
11.63
4.88
1.03
11.95
0.57
0.07
-14.24
1.42
-4.55
-0.34
0.04
-0.3
1.07

> <PUBCHEM_SHAPE_SELFOVERLAP>
975.28

> <PUBCHEM_SHAPE_VOLUME>
257.4

> <PUBCHEM_COORDINATE_TYPE>
2
5
10

$$$$
