652800
  -OEChem-01171811373D

 49 51  0     0  0  0  0  0  0999 V2000
   -7.2886    0.5560   -0.2435 O   0  0  0  0  0  0  0  0  0  0  0  0
    7.6889    0.5201   -0.0775 O   0  0  0  0  0  0  0  0  0  0  0  0
   -2.5722   -0.0300    0.9747 O   0  0  0  0  0  0  0  0  0  0  0  0
    2.9504   -0.4698    0.7220 O   0  0  0  0  0  0  0  0  0  0  0  0
   -2.4572    1.3331   -0.8945 O   0  0  0  0  0  0  0  0  0  0  0  0
    2.8835    0.9064   -1.1400 O   0  0  0  0  0  0  0  0  0  0  0  0
   -2.5405   -2.4678   -0.1560 O   0  0  0  0  0  0  0  0  0  0  0  0
   -4.5138    0.8750    0.0830 N   0  0  0  0  0  0  0  0  0  0  0  0
    4.9207    0.1117   -0.3570 N   0  0  0  0  0  0  0  0  0  0  0  0
   -5.3105    0.2126    1.1184 C   0  0  0  0  0  0  0  0  0  0  0  0
   -5.2671    1.7761   -0.7860 C   0  0  0  0  0  0  0  0  0  0  0  0
    5.7027    0.6721   -1.4566 C   0  0  0  0  0  0  0  0  0  0  0  0
    5.6929   -0.6779    0.6052 C   0  0  0  0  0  0  0  0  0  0  0  0
   -6.5525   -0.4180    0.5020 C   0  0  0  0  0  0  0  0  0  0  0  0
   -6.5075    1.0763   -1.3231 C   0  0  0  0  0  0  0  0  0  0  0  0
    6.9290    1.3945   -0.9169 C   0  0  0  0  0  0  0  0  0  0  0  0
    6.9230    0.0995    1.0551 C   0  0  0  0  0  0  0  0  0  0  0  0
   -3.1251    0.7760   -0.0242 C   0  0  0  0  0  0  0  0  0  0  0  0
    3.5308    0.2428   -0.3309 C   0  0  0  0  0  0  0  0  0  0  0  0
   -1.1811   -0.1551    0.9027 C   0  0  0  0  0  0  0  0  0  0  0  0
    1.5572   -0.3644    0.7832 C   0  0  0  0  0  0  0  0  0  0  0  0
   -0.5916   -1.1769    0.1584 C   0  0  0  0  0  0  0  0  0  0  0  0
    0.7979   -1.2831    0.0978 C   0  0  0  0  0  0  0  0  0  0  0  0
   -0.3812    0.7605    1.5863 C   0  0  0  0  0  0  0  0  0  0  0  0
    1.0084    0.6543    1.5257 C   0  0  0  0  0  0  0  0  0  0  0  0
   -1.4086   -2.1426   -0.5633 C   0  0  0  0  0  0  0  0  0  0  0  0
   -0.8879   -2.7814   -1.8451 C   0  0  0  0  0  0  0  0  0  0  0  0
   -5.5972    0.9922    1.8337 H   0  0  0  0  0  0  0  0  0  0  0  0
   -4.7302   -0.5436    1.6532 H   0  0  0  0  0  0  0  0  0  0  0  0
   -4.6443    2.1422   -1.6077 H   0  0  0  0  0  0  0  0  0  0  0  0
   -5.5549    2.6347   -0.1680 H   0  0  0  0  0  0  0  0  0  0  0  0
    6.0076   -0.1741   -2.0834 H   0  0  0  0  0  0  0  0  0  0  0  0
    5.0953    1.3464   -2.0677 H   0  0  0  0  0  0  0  0  0  0  0  0
    5.0900   -0.9630    1.4710 H   0  0  0  0  0  0  0  0  0  0  0  0
    5.9941   -1.5933    0.0826 H   0  0  0  0  0  0  0  0  0  0  0  0
   -6.2897   -1.2536   -0.1577 H   0  0  0  0  0  0  0  0  0  0  0  0
   -7.2074   -0.8054    1.2886 H   0  0  0  0  0  0  0  0  0  0  0  0
   -7.1296    1.7856   -1.8776 H   0  0  0  0  0  0  0  0  0  0  0  0
   -6.2422    0.2583   -2.0035 H   0  0  0  0  0  0  0  0  0  0  0  0
    7.5728    1.7119   -1.7430 H   0  0  0  0  0  0  0  0  0  0  0  0
    6.6483    2.2881   -0.3470 H   0  0  0  0  0  0  0  0  0  0  0  0
    7.5622   -0.5351    1.6768 H   0  0  0  0  0  0  0  0  0  0  0  0
    6.6443    0.9787    1.6482 H   0  0  0  0  0  0  0  0  0  0  0  0
    1.2862   -2.0752   -0.4615 H   0  0  0  0  0  0  0  0  0  0  0  0
   -0.8341    1.5587    2.1681 H   0  0  0  0  0  0  0  0  0  0  0  0
    1.6317    1.3659    2.0577 H   0  0  0  0  0  0  0  0  0  0  0  0
   -1.7369   -3.0338   -2.4876 H   0  0  0  0  0  0  0  0  0  0  0  0
   -0.2550   -2.0824   -2.3985 H   0  0  0  0  0  0  0  0  0  0  0  0
   -0.3315   -3.6899   -1.6022 H   0  0  0  0  0  0  0  0  0  0  0  0
  1 14  1  0  0  0  0
  1 15  1  0  0  0  0
  2 16  1  0  0  0  0
  2 17  1  0  0  0  0
  3 18  1  0  0  0  0
  3 20  1  0  0  0  0
  4 19  1  0  0  0  0
  4 21  1  0  0  0  0
  5 18  2  0  0  0  0
  6 19  2  0  0  0  0
  7 26  2  0  0  0  0
  8 10  1  0  0  0  0
  8 11  1  0  0  0  0
  8 18  1  0  0  0  0
  9 12  1  0  0  0  0
  9 13  1  0  0  0  0
  9 19  1  0  0  0  0
 10 14  1  0  0  0  0
 10 28  1  0  0  0  0
 10 29  1  0  0  0  0
 11 15  1  0  0  0  0
 11 30  1  0  0  0  0
 11 31  1  0  0  0  0
 12 16  1  0  0  0  0
 12 32  1  0  0  0  0
 12 33  1  0  0  0  0
 13 17  1  0  0  0  0
 13 34  1  0  0  0  0
 13 35  1  0  0  0  0
 14 36  1  0  0  0  0
 14 37  1  0  0  0  0
 15 38  1  0  0  0  0
 15 39  1  0  0  0  0
 16 40  1  0  0  0  0
 16 41  1  0  0  0  0
 17 42  1  0  0  0  0
 17 43  1  0  0  0  0
 20 22  2  0  0  0  0
 20 24  1  0  0  0  0
 21 23  2  0  0  0  0
 21 25  1  0  0  0  0
 22 23  1  0  0  0  0
 22 26  1  0  0  0  0
 23 44  1  0  0  0  0
 24 25  2  0  0  0  0
 24 45  1  0  0  0  0
 25 46  1  0  0  0  0
 26 27  1  0  0  0  0
 27 47  1  0  0  0  0
 27 48  1  0  0  0  0
 27 49  1  0  0  0  0
M  END
> <PUBCHEM_COMPOUND_CID>
652800

> <PUBCHEM_CONFORMER_RMSD>
1

> <PUBCHEM_CONFORMER_DIVERSEORDER>
1
29
45
24
22
37
11
50
36
38
4
20
12
47
10
9
14
35
18
30
52
6
33
53
15
13
48
23
43
42
40
8
21
2
41
28
17
32
39
7
25
16
5
26
46
51
49
44
31
34
19
3
27

> <PUBCHEM_MMFF94_PARTIAL_CHARGES>
30
1 -0.56
10 0.3
11 0.3
12 0.3
13 0.3
14 0.28
15 0.28
16 0.28
17 0.28
18 0.78
19 0.78
2 -0.56
20 0.08
21 0.08
22 0.09
23 -0.15
24 -0.15
25 -0.15
26 0.42
27 0.06
3 -0.23
4 -0.23
44 0.15
45 0.15
46 0.15
5 -0.57
6 -0.57
7 -0.57
8 -0.66
9 -0.66

> <PUBCHEM_EFFECTIVE_ROTOR_COUNT>
9.4

> <PUBCHEM_PHARMACOPHORE_FEATURES>
8
1 1 acceptor
1 2 acceptor
1 5 acceptor
1 6 acceptor
1 7 acceptor
6 1 8 10 11 14 15 rings
6 2 9 12 13 16 17 rings
6 20 21 22 23 24 25 rings

> <PUBCHEM_HEAVY_ATOM_COUNT>
27

> <PUBCHEM_ATOM_DEF_STEREO_COUNT>
0

> <PUBCHEM_ATOM_UDEF_STEREO_COUNT>
0

> <PUBCHEM_BOND_DEF_STEREO_COUNT>
0

> <PUBCHEM_BOND_UDEF_STEREO_COUNT>
0

> <PUBCHEM_ISOTOPIC_ATOM_COUNT>
0

> <PUBCHEM_COMPONENT_COUNT>
1

> <PUBCHEM_CACTVS_TAUTO_COUNT>
2

> <PUBCHEM_CONFORMER_ID>
0009F60000000001

> <PUBCHEM_MMFF94_ENERGY>
74.4101

> <PUBCHEM_FEATURE_SELFOVERLAP>
40.6

> <PUBCHEM_SHAPE_FINGERPRINT>
10165383 225 18272090483607953273
11135609 187 17775007843089043843
11578080 2 18056466482113858224
11991303 11 18412263977769331527
12236239 1 18261110794853032578
12516196 113 13398627243186269370
12760667 363 9007057955081451869
13257819 101 17968087569979574439
13533116 47 17489029241582879710
13540713 4 17558536165442548114
13685833 64 14045740421872414629
13911987 19 18272366443709642141
14251764 18 17022905657789164708
14674994 50 12678880411493965692
15131766 46 16880215552968726700
15183329 4 18060420209472002336
15301273 46 12973600019504807000
15849732 13 18260830397327349380
15961568 22 17894912880765681869
17980427 23 16226056570301023999
18006028 8 7925910374691645203
19841028 212 13254530721481959420
20157964 124 18113621154014806370
20281389 69 17749108894099877164
20511986 3 18411129278185693946
21150785 3 18273214200933087137
21756936 100 17749105616744165043
22224240 67 14418135123116859216
23559900 14 17560796684762270912
23569943 247 15768392473736164734
23576562 1 18268424805893054733
249057 3 18271806856694800368
283562 15 17417541193945323321
2838139 119 17967248698009886333
3004659 81 13254791330747324550
3009799 131 17561080306774275112
4325135 7 18040152916765559597
484989 97 17844519106343306415
504579 68 12607122976452536856
5104073 3 11387241132020270261
57527585 21 18048849954878770181
69474 34 12973895826961717807
999808 66 14692566663469724165

> <PUBCHEM_SHAPE_MULTIPOLES>
504.6
19.87
1.89
1.45
10.11
1.45
0.12
-8.73
3.56
-1.48
0.86
0.19
-0.11
-0.19

> <PUBCHEM_SHAPE_SELFOVERLAP>
1062.555

> <PUBCHEM_SHAPE_VOLUME>
281

> <PUBCHEM_COORDINATE_TYPE>
2
5
10

$$$$
