3488168
  -OEChem-01171812103D

 57 60  0     1  0  0  0  0  0999 V2000
    7.3457    0.3237   -0.0670 Br  0  0  0  0  0  0  0  0  0  0  0  0
    1.3658    2.5224    0.7666 S   0  0  0  0  0  0  0  0  0  0  0  0
   -0.6461   -4.3712    1.0905 O   0  0  0  0  0  0  0  0  0  0  0  0
    0.9475   -5.2469   -0.3344 O   0  0  0  0  0  0  0  0  0  0  0  0
   -2.8674   -1.3312   -0.7031 O   0  0  0  0  0  0  0  0  0  0  0  0
   -1.3403    3.7325    0.0872 O   0  0  0  0  0  0  0  0  0  0  0  0
    1.4188    3.9682    0.6598 O   0  0  0  0  0  0  0  0  0  0  0  0
    0.8376    1.8970    1.9644 O   0  0  0  0  0  0  0  0  0  0  0  0
   -0.2337   -0.7894   -1.0194 N   0  0  3  0  0  0  0  0  0  0  0  0
    0.6075    1.8757   -0.5970 N   0  0  0  0  0  0  0  0  0  0  0  0
   -0.2430   -3.2375   -0.9142 C   0  0  2  0  0  0  0  0  0  0  0  0
    0.5756   -3.2824   -2.2066 C   0  0  0  0  0  0  0  0  0  0  0  0
    0.0081   -1.9384   -0.1451 C   0  0  0  0  0  0  0  0  0  0  0  0
    0.3176   -2.0370   -3.0530 C   0  0  0  0  0  0  0  0  0  0  0  0
    0.5590   -0.7607   -2.2495 C   0  0  0  0  0  0  0  0  0  0  0  0
   -1.0751    0.2267   -0.6712 C   0  0  0  0  0  0  0  0  0  0  0  0
    0.1080   -4.4051   -0.0450 C   0  0  0  0  0  0  0  0  0  0  0  0
   -0.7509    1.5091   -0.4584 C   0  0  0  0  0  0  0  0  0  0  0  0
   -2.5107   -0.1707   -0.5235 C   0  0  0  0  0  0  0  0  0  0  0  0
   -3.5026    0.8622   -0.1573 C   0  0  0  0  0  0  0  0  0  0  0  0
   -1.7029    2.5764   -0.0917 C   0  0  0  0  0  0  0  0  0  0  0  0
   -3.1152    2.1860    0.0507 C   0  0  0  0  0  0  0  0  0  0  0  0
   -4.8497    0.5040   -0.0186 C   0  0  0  0  0  0  0  0  0  0  0  0
   -4.0683    3.1515    0.3965 C   0  0  0  0  0  0  0  0  0  0  0  0
   -0.4115   -5.4368    2.0165 C   0  0  0  0  0  0  0  0  0  0  0  0
   -5.7983    1.4678    0.3259 C   0  0  0  0  0  0  0  0  0  0  0  0
   -5.4082    2.7892    0.5330 C   0  0  0  0  0  0  0  0  0  0  0  0
    3.0115    1.9165    0.5370 C   0  0  0  0  0  0  0  0  0  0  0  0
   -1.3189   -5.2573    3.2148 C   0  0  0  0  0  0  0  0  0  0  0  0
    3.9178    2.6801   -0.1773 C   0  0  0  0  0  0  0  0  0  0  0  0
    3.3610    0.6909    1.0758 C   0  0  0  0  0  0  0  0  0  0  0  0
    5.2158    2.2024   -0.3585 C   0  0  0  0  0  0  0  0  0  0  0  0
    4.6590    0.2134    0.8946 C   0  0  0  0  0  0  0  0  0  0  0  0
    5.5864    0.9691    0.1774 C   0  0  0  0  0  0  0  0  0  0  0  0
   -1.3029   -3.3310   -1.1807 H   0  0  0  0  0  0  0  0  0  0  0  0
    1.6483   -3.3438   -1.9802 H   0  0  0  0  0  0  0  0  0  0  0  0
    0.3251   -4.1789   -2.7868 H   0  0  0  0  0  0  0  0  0  0  0  0
    1.0446   -1.8996    0.2163 H   0  0  0  0  0  0  0  0  0  0  0  0
   -0.6231   -1.8859    0.7510 H   0  0  0  0  0  0  0  0  0  0  0  0
   -0.7199   -2.0535   -3.4102 H   0  0  0  0  0  0  0  0  0  0  0  0
    0.9641   -2.0478   -3.9376 H   0  0  0  0  0  0  0  0  0  0  0  0
    0.2975    0.0993   -2.8781 H   0  0  0  0  0  0  0  0  0  0  0  0
    1.6245   -0.6800   -2.0012 H   0  0  0  0  0  0  0  0  0  0  0  0
    1.1810    1.2235   -1.1397 H   0  0  0  0  0  0  0  0  0  0  0  0
   -5.1811   -0.5193   -0.1744 H   0  0  0  0  0  0  0  0  0  0  0  0
   -3.7874    4.1880    0.5631 H   0  0  0  0  0  0  0  0  0  0  0  0
    0.6356   -5.4164    2.3386 H   0  0  0  0  0  0  0  0  0  0  0  0
   -0.6243   -6.3959    1.5311 H   0  0  0  0  0  0  0  0  0  0  0  0
   -6.8421    1.1872    0.4327 H   0  0  0  0  0  0  0  0  0  0  0  0
   -6.1480    3.5378    0.8011 H   0  0  0  0  0  0  0  0  0  0  0  0
   -2.3695   -5.2574    2.9060 H   0  0  0  0  0  0  0  0  0  0  0  0
   -1.1304   -4.2938    3.6996 H   0  0  0  0  0  0  0  0  0  0  0  0
   -1.1652   -6.0566    3.9452 H   0  0  0  0  0  0  0  0  0  0  0  0
    3.6462    3.6385   -0.6085 H   0  0  0  0  0  0  0  0  0  0  0  0
    2.6506    0.0843    1.6290 H   0  0  0  0  0  0  0  0  0  0  0  0
    5.9260    2.8028   -0.9212 H   0  0  0  0  0  0  0  0  0  0  0  0
    4.9310   -0.7506    1.3169 H   0  0  0  0  0  0  0  0  0  0  0  0
  1 34  1  0  0  0  0
  2  7  2  0  0  0  0
  2  8  2  0  0  0  0
  2 10  1  0  0  0  0
  2 28  1  0  0  0  0
  3 17  1  0  0  0  0
  3 25  1  0  0  0  0
  4 17  2  0  0  0  0
  5 19  2  0  0  0  0
  6 21  2  0  0  0  0
  9 13  1  0  0  0  0
  9 15  1  0  0  0  0
  9 16  1  0  0  0  0
 10 18  1  0  0  0  0
 10 44  1  0  0  0  0
 11 12  1  0  0  0  0
 11 13  1  0  0  0  0
 11 17  1  0  0  0  0
 11 35  1  0  0  0  0
 12 14  1  0  0  0  0
 12 36  1  0  0  0  0
 12 37  1  0  0  0  0
 13 38  1  0  0  0  0
 13 39  1  0  0  0  0
 14 15  1  0  0  0  0
 14 40  1  0  0  0  0
 14 41  1  0  0  0  0
 15 42  1  0  0  0  0
 15 43  1  0  0  0  0
 16 18  2  0  0  0  0
 16 19  1  0  0  0  0
 18 21  1  0  0  0  0
 19 20  1  0  0  0  0
 20 22  1  0  0  0  0
 20 23  2  0  0  0  0
 21 22  1  0  0  0  0
 22 24  2  0  0  0  0
 23 26  1  0  0  0  0
 23 45  1  0  0  0  0
 24 27  1  0  0  0  0
 24 46  1  0  0  0  0
 25 29  1  0  0  0  0
 25 47  1  0  0  0  0
 25 48  1  0  0  0  0
 26 27  2  0  0  0  0
 26 49  1  0  0  0  0
 27 50  1  0  0  0  0
 28 30  2  0  0  0  0
 28 31  1  0  0  0  0
 29 51  1  0  0  0  0
 29 52  1  0  0  0  0
 29 53  1  0  0  0  0
 30 32  1  0  0  0  0
 30 54  1  0  0  0  0
 31 33  2  0  0  0  0
 31 55  1  0  0  0  0
 32 34  2  0  0  0  0
 32 56  1  0  0  0  0
 33 34  1  0  0  0  0
 33 57  1  0  0  0  0
M  END
> <PUBCHEM_COMPOUND_CID>
3488168

> <PUBCHEM_CONFORMER_RMSD>
1

> <PUBCHEM_CONFORMER_DIVERSEORDER>
2
94
57
29
77
65
27
6
147
16
108
15
72
134
109
155
130
22
128
25
48
60
148
86
23
51
153
135
106
11
154
84
115
43
93
126
36
133
24
81
111
131
123
46
105
90
125
104
132
44
149
55
114
30
97
18
35
17
138
151
68
50
73
120
14
38
83
124
99
39
20
101
67
141
152
119
75
88
3
127
121
122
53
26
62
117
136
56
31
70
49
102
58
21
74
13
10
41
79
143
45
12
116
150
54
129
139
103
34
91
40
85
113
76
4
9
140
42
63
47
37
78
156
112
59
89
28
66
64
98
146
69
80
118
137
52
92
82
107
142
95
19
5
1
96
7
32
145
100
8
110
87
61
144
33
71

> <PUBCHEM_MMFF94_PARTIAL_CHARGES>
40
1 -0.11
10 -0.75
11 0.06
13 0.37
15 0.37
16 0.11
17 0.66
18 0.21
19 0.47
2 1.45
20 0.09
21 0.47
22 0.09
23 -0.15
24 -0.15
25 0.28
26 -0.15
27 -0.15
28 -0.01
3 -0.43
30 -0.15
31 -0.15
32 -0.15
33 -0.15
34 0.11
4 -0.57
44 0.42
45 0.15
46 0.15
49 0.15
5 -0.57
50 0.15
54 0.15
55 0.15
56 0.15
57 0.15
6 -0.57
7 -0.65
8 -0.65
9 -0.84

> <PUBCHEM_EFFECTIVE_ROTOR_COUNT>
8.2

> <PUBCHEM_PHARMACOPHORE_FEATURES>
12
1 1 hydrophobe
1 10 donor
1 4 acceptor
1 5 acceptor
1 6 acceptor
1 7 acceptor
1 8 acceptor
1 9 cation
6 16 18 19 20 21 22 rings
6 20 22 23 24 26 27 rings
6 28 30 31 32 33 34 rings
6 9 11 12 13 14 15 rings

> <PUBCHEM_HEAVY_ATOM_COUNT>
34

> <PUBCHEM_ATOM_DEF_STEREO_COUNT>
0

> <PUBCHEM_ATOM_UDEF_STEREO_COUNT>
1

> <PUBCHEM_BOND_DEF_STEREO_COUNT>
0

> <PUBCHEM_BOND_UDEF_STEREO_COUNT>
0

> <PUBCHEM_ISOTOPIC_ATOM_COUNT>
0

> <PUBCHEM_COMPONENT_COUNT>
1

> <PUBCHEM_CACTVS_TAUTO_COUNT>
3

> <PUBCHEM_CONFORMER_ID>
003539A800000002

> <PUBCHEM_MMFF94_ENERGY>
83.5475

> <PUBCHEM_FEATURE_SELFOVERLAP>
60.94

> <PUBCHEM_SHAPE_FINGERPRINT>
10050765 1 18053384298204018489
10074138 170 18194672885668330624
107951 10 18411982460005828262
11534866 41 18261408728465980651
11578080 2 17535742993405081325
11763715 3 17187006934911286750
12156800 1 17170996700869262298
12788726 201 17981024620801631142
13140716 1 18271239521485298561
13583140 156 15958920715043380191
14028597 1 17488753263642153553
14150023 79 18338509756249095629
14251757 5 18270965773339077428
14790565 3 18413108368176239680
14866123 147 18342450495458065934
15320294 125 18115568367854223034
15420108 30 17774430591279629605
15927050 60 18343300328326906799
16719943 64 18413105065830808716
19315092 285 16378614666989761322
19319366 153 18113610193274377424
20028762 73 17988353884330344141
20642791 35 17699581233760112261
21133410 230 17976861792601744166
21133665 82 18201159850729396966
22440779 20 17539434410479215818
22956985 138 17976259036727328119
23366157 5 18048886190947769501
23559900 14 17482274808240102661
3298306 158 18131631153829379220
3383291 50 18341322401023511994
3411729 13 18128538159206858325
4058900 60 18339089180958774400
4093350 32 16128103213770801013
4408954 64 17173794021485528875
45266715 3 18334568015980572151
5265222 85 18341898523774044540
5385378 56 18058177124548524161
5912855 24 17974576002970337700
6679774 75 18336530647724200386
79837 15 18337954609860951971

> <PUBCHEM_SHAPE_MULTIPOLES>
664.32
11.02
7.65
1.98
10.06
13.04
0.09
-12.53
-1.89
-2.78
-4.08
-0.04
3.4
0.91

> <PUBCHEM_SHAPE_SELFOVERLAP>
1413.434

> <PUBCHEM_SHAPE_VOLUME>
375

> <PUBCHEM_COORDINATE_TYPE>
2
5
10

$$$$
