20890340
  -OEChem-01171812043D

 46 48  0     0  0  0  0  0  0999 V2000
    4.0626    0.7633    0.5499 S   0  0  0  0  0  0  0  0  0  0  0  0
    3.8400    0.0828    1.8115 O   0  0  0  0  0  0  0  0  0  0  0  0
    4.9736    1.8904    0.4804 O   0  0  0  0  0  0  0  0  0  0  0  0
    2.7173   -2.9870    0.0267 O   0  0  0  0  0  0  0  0  0  0  0  0
   -0.4005   -2.4188   -1.2249 O   0  0  0  0  0  0  0  0  0  0  0  0
    1.5013   -1.0069    0.1827 N   0  0  0  0  0  0  0  0  0  0  0  0
   -1.8995   -2.1459    0.5302 N   0  0  0  0  0  0  0  0  0  0  0  0
    4.6097   -0.4212   -0.6493 C   0  0  0  0  0  0  0  0  0  0  0  0
    2.4716    1.2938   -0.0268 C   0  0  0  0  0  0  0  0  0  0  0  0
    3.4831   -1.1817   -1.3102 C   0  0  0  0  0  0  0  0  0  0  0  0
    1.3800    0.4040   -0.0568 C   0  0  0  0  0  0  0  0  0  0  0  0
    2.5488   -1.8070   -0.2946 C   0  0  0  0  0  0  0  0  0  0  0  0
    0.4177   -1.6595    0.9177 C   0  0  0  0  0  0  0  0  0  0  0  0
    2.3038    2.6562   -0.3045 C   0  0  0  0  0  0  0  0  0  0  0  0
    0.1088    0.9438   -0.3258 C   0  0  0  0  0  0  0  0  0  0  0  0
   -0.6417   -2.1319   -0.0550 C   0  0  0  0  0  0  0  0  0  0  0  0
    1.0388    3.1548   -0.6033 C   0  0  0  0  0  0  0  0  0  0  0  0
   -0.0589    2.3023   -0.6045 C   0  0  0  0  0  0  0  0  0  0  0  0
   -3.1026   -2.5082   -0.1843 C   0  0  0  0  0  0  0  0  0  0  0  0
   -4.3407   -1.7950    0.3536 C   0  0  0  0  0  0  0  0  0  0  0  0
   -4.2516   -0.2931    0.2381 C   0  0  0  0  0  0  0  0  0  0  0  0
   -3.7029    0.4552    1.2795 C   0  0  0  0  0  0  0  0  0  0  0  0
   -4.7174    0.3470   -0.9105 C   0  0  0  0  0  0  0  0  0  0  0  0
   -3.6204    1.8435    1.1728 C   0  0  0  0  0  0  0  0  0  0  0  0
   -4.6346    1.7354   -1.0173 C   0  0  0  0  0  0  0  0  0  0  0  0
   -4.0861    2.4836    0.0244 C   0  0  0  0  0  0  0  0  0  0  0  0
    5.2919   -1.1014   -0.1281 H   0  0  0  0  0  0  0  0  0  0  0  0
    5.1834    0.1183   -1.4097 H   0  0  0  0  0  0  0  0  0  0  0  0
    2.9180   -0.5478   -2.0023 H   0  0  0  0  0  0  0  0  0  0  0  0
    3.9009   -1.9866   -1.9272 H   0  0  0  0  0  0  0  0  0  0  0  0
    0.7984   -2.5409    1.4456 H   0  0  0  0  0  0  0  0  0  0  0  0
    0.0113   -0.9737    1.6700 H   0  0  0  0  0  0  0  0  0  0  0  0
    3.1356    3.3533   -0.2730 H   0  0  0  0  0  0  0  0  0  0  0  0
   -0.7855    0.3337   -0.3662 H   0  0  0  0  0  0  0  0  0  0  0  0
    0.9073    4.2113   -0.8178 H   0  0  0  0  0  0  0  0  0  0  0  0
   -1.0465    2.6924   -0.8309 H   0  0  0  0  0  0  0  0  0  0  0  0
   -3.2228   -3.5918   -0.0779 H   0  0  0  0  0  0  0  0  0  0  0  0
   -2.9644   -2.2941   -1.2503 H   0  0  0  0  0  0  0  0  0  0  0  0
   -1.9753   -1.9880    1.5310 H   0  0  0  0  0  0  0  0  0  0  0  0
   -4.5006   -2.0657    1.4056 H   0  0  0  0  0  0  0  0  0  0  0  0
   -5.2287   -2.1509   -0.1837 H   0  0  0  0  0  0  0  0  0  0  0  0
   -3.3385   -0.0291    2.1814 H   0  0  0  0  0  0  0  0  0  0  0  0
   -5.1446   -0.2254   -1.7296 H   0  0  0  0  0  0  0  0  0  0  0  0
   -3.1923    2.4261    1.9833 H   0  0  0  0  0  0  0  0  0  0  0  0
   -4.9960    2.2338   -1.9120 H   0  0  0  0  0  0  0  0  0  0  0  0
   -4.0202    3.5644   -0.0593 H   0  0  0  0  0  0  0  0  0  0  0  0
  1  2  2  0  0  0  0
  1  3  2  0  0  0  0
  1  8  1  0  0  0  0
  1  9  1  0  0  0  0
  4 12  2  0  0  0  0
  5 16  2  0  0  0  0
  6 11  1  0  0  0  0
  6 12  1  0  0  0  0
  6 13  1  0  0  0  0
  7 16  1  0  0  0  0
  7 19  1  0  0  0  0
  7 39  1  0  0  0  0
  8 10  1  0  0  0  0
  8 27  1  0  0  0  0
  8 28  1  0  0  0  0
  9 11  1  0  0  0  0
  9 14  2  0  0  0  0
 10 12  1  0  0  0  0
 10 29  1  0  0  0  0
 10 30  1  0  0  0  0
 11 15  2  0  0  0  0
 13 16  1  0  0  0  0
 13 31  1  0  0  0  0
 13 32  1  0  0  0  0
 14 17  1  0  0  0  0
 14 33  1  0  0  0  0
 15 18  1  0  0  0  0
 15 34  1  0  0  0  0
 17 18  2  0  0  0  0
 17 35  1  0  0  0  0
 18 36  1  0  0  0  0
 19 20  1  0  0  0  0
 19 37  1  0  0  0  0
 19 38  1  0  0  0  0
 20 21  1  0  0  0  0
 20 40  1  0  0  0  0
 20 41  1  0  0  0  0
 21 22  2  0  0  0  0
 21 23  1  0  0  0  0
 22 24  1  0  0  0  0
 22 42  1  0  0  0  0
 23 25  2  0  0  0  0
 23 43  1  0  0  0  0
 24 26  2  0  0  0  0
 24 44  1  0  0  0  0
 25 26  1  0  0  0  0
 25 45  1  0  0  0  0
 26 46  1  0  0  0  0
M  END
> <PUBCHEM_COMPOUND_CID>
20890340

> <PUBCHEM_CONFORMER_RMSD>
0.8

> <PUBCHEM_CONFORMER_DIVERSEORDER>
1
165
144
163
145
71
131
72
156
173
17
62
168
55
97
193
44
113
28
50
136
82
124
167
139
109
170
35
153
132
187
164
159
133
172
12
127
18
117
146
41
34
183
84
185
90
181
147
56
190
157
122
70
68
78
158
102
89
140
175
80
77
126
85
65
115
27
192
107
188
141
15
59
76
134
4
191
162
42
135
179
176
67
75
106
130
180
26
19
123
103
138
129
91
111
182
194
47
186
110
61
66
6
177
166
154
104
116
143
69
155
178
3
24
151
196
2
37
53
51
148
43
11
105
184
94
137
79
25
101
119
20
142
121
30
83
195
87
112
52
54
21
48
39
22
88
95
152
8
36
98
33
86
93
149
64
171
189
46
29
100
118
114
9
14
125
7
174
10
99
32
108
38
57
23
5
150
73
45
31
120
161
49
13
160
63
74
16
96
60
40
128
58
81
92
169

> <PUBCHEM_MMFF94_PARTIAL_CHARGES>
36
1 1.2
10 0.06
11 0.12
12 0.57
13 0.36
14 -0.15
15 -0.15
16 0.57
17 -0.15
18 -0.15
19 0.3
2 -0.65
20 0.14
21 -0.14
22 -0.15
23 -0.15
24 -0.15
25 -0.15
26 -0.15
3 -0.65
33 0.15
34 0.15
35 0.15
36 0.15
39 0.37
4 -0.57
42 0.15
43 0.15
44 0.15
45 0.15
46 0.15
5 -0.57
6 -0.48
7 -0.73
8 0.11
9 -0.01

> <PUBCHEM_EFFECTIVE_ROTOR_COUNT>
6.6

> <PUBCHEM_PHARMACOPHORE_FEATURES>
8
1 2 acceptor
1 3 acceptor
1 4 acceptor
1 5 acceptor
1 7 donor
6 21 22 23 24 25 26 rings
6 9 11 14 15 17 18 rings
7 1 6 8 9 10 11 12 rings

> <PUBCHEM_HEAVY_ATOM_COUNT>
26

> <PUBCHEM_ATOM_DEF_STEREO_COUNT>
0

> <PUBCHEM_ATOM_UDEF_STEREO_COUNT>
0

> <PUBCHEM_BOND_DEF_STEREO_COUNT>
0

> <PUBCHEM_BOND_UDEF_STEREO_COUNT>
0

> <PUBCHEM_ISOTOPIC_ATOM_COUNT>
0

> <PUBCHEM_COMPONENT_COUNT>
1

> <PUBCHEM_CACTVS_TAUTO_COUNT>
2

> <PUBCHEM_CONFORMER_ID>
013EC2E400000001

> <PUBCHEM_MMFF94_ENERGY>
73.1309

> <PUBCHEM_FEATURE_SELFOVERLAP>
40.624

> <PUBCHEM_SHAPE_FINGERPRINT>
10675989 125 17036113816022904941
10708813 3 18340497677023736953
10906281 52 18117007783078116688
1100329 8 16895954635979936045
11370993 70 18411132541960308521
11513181 2 18059574646555308287
11578080 2 17058633282779011866
12422481 6 18266440063093148978
12788726 201 17684942297504726114
12978246 48 18337955705130281929
13140716 1 18337105649107992082
13402501 40 18189333481669769685
13583140 156 17346310561326525200
14117953 113 17545878227270418221
14251751 93 18409165545696257241
14251764 38 18410859897199020545
14466204 15 18337385058542829296
14790565 3 18047196525529289060
15081414 286 18339938055669768446
15238133 3 17967531281483479242
15256400 18 18411985792583854101
1601671 61 18409171008783946502
16991981 162 14721334559823045245
17093844 170 18410854322478935956
17492 89 18338239370593769099
19078846 21 18187355567308805402
19591789 44 18121502341107946940
21033648 29 17917985096580476059
21279426 13 18411423878144955862
21673915 165 18411982481074580009
22749437 52 18411418436463576537
23559900 14 18271811181579012034
3052486 1 18333170574549064556
338550 245 18334300910835747740
350125 39 18337963384774341723
460360 51 18040987432378211583
5081480 168 17270356126813830823
508706 21 18260825995381568341

> <PUBCHEM_SHAPE_MULTIPOLES>
505.48
10.62
3.76
1.14
3.47
0.05
-0.13
2.05
-0.39
0.45
0.46
0.01
0.03
0.45

> <PUBCHEM_SHAPE_SELFOVERLAP>
1066.393

> <PUBCHEM_SHAPE_VOLUME>
281.2

> <PUBCHEM_COORDINATE_TYPE>
2
5
10

$$$$
