6493498
  -OEChem-01171812083D

 53 56  0     0  0  0  0  0  0999 V2000
   -2.9977   -1.3443   -1.0872 S   0  0  0  0  0  0  0  0  0  0  0  0
   -3.8629   -2.4553   -0.7549 O   0  0  0  0  0  0  0  0  0  0  0  0
   -2.7053   -1.0117   -2.4647 O   0  0  0  0  0  0  0  0  0  0  0  0
    3.1299   -3.0775    0.2951 O   0  0  0  0  0  0  0  0  0  0  0  0
    4.9782    1.6660   -1.8094 O   0  0  0  0  0  0  0  0  0  0  0  0
    5.8615    2.4994    0.2722 O   0  0  0  0  0  0  0  0  0  0  0  0
   -1.5227   -1.5099   -0.2309 N   0  0  0  0  0  0  0  0  0  0  0  0
    1.1945   -1.7918    0.5472 N   0  0  0  0  0  0  0  0  0  0  0  0
   -0.5855   -0.3498   -0.3423 C   0  0  0  0  0  0  0  0  0  0  0  0
   -0.8174   -2.8147   -0.4195 C   0  0  0  0  0  0  0  0  0  0  0  0
    0.5225   -0.4949    0.6951 C   0  0  0  0  0  0  0  0  0  0  0  0
    0.2975   -2.9447    0.6132 C   0  0  0  0  0  0  0  0  0  0  0  0
   -3.6466    0.0990   -0.3049 C   0  0  0  0  0  0  0  0  0  0  0  0
    2.5703   -1.9891    0.4189 C   0  0  0  0  0  0  0  0  0  0  0  0
   -3.8900    0.0884    1.0633 C   0  0  0  0  0  0  0  0  0  0  0  0
   -3.9085    1.2330   -1.0643 C   0  0  0  0  0  0  0  0  0  0  0  0
    3.4413   -0.8072    0.4172 C   0  0  0  0  0  0  0  0  0  0  0  0
   -4.4033    1.2288    1.6812 C   0  0  0  0  0  0  0  0  0  0  0  0
   -4.4216    2.3733   -0.4463 C   0  0  0  0  0  0  0  0  0  0  0  0
   -4.6689    2.3711    0.9265 C   0  0  0  0  0  0  0  0  0  0  0  0
   -3.6182   -1.1167    1.9040 C   0  0  0  0  0  0  0  0  0  0  0  0
   -3.6558    1.2726   -2.5365 C   0  0  0  0  0  0  0  0  0  0  0  0
    3.7477   -0.1796   -0.7902 C   0  0  0  0  0  0  0  0  0  0  0  0
    3.9540   -0.3247    1.6316 C   0  0  0  0  0  0  0  0  0  0  0  0
   -5.2174    3.5905    1.5872 C   0  0  0  0  0  0  0  0  0  0  0  0
    4.5700    0.9273   -0.7418 C   0  0  0  0  0  0  0  0  0  0  0  0
    5.0746    1.4031    0.4468 C   0  0  0  0  0  0  0  0  0  0  0  0
    4.7845    0.7984    1.6528 C   0  0  0  0  0  0  0  0  0  0  0  0
    5.7951    2.6611   -1.1594 C   0  0  0  0  0  0  0  0  0  0  0  0
   -1.0962    0.5984   -0.1616 H   0  0  0  0  0  0  0  0  0  0  0  0
   -0.1580   -0.3261   -1.3519 H   0  0  0  0  0  0  0  0  0  0  0  0
   -0.4075   -2.8606   -1.4353 H   0  0  0  0  0  0  0  0  0  0  0  0
   -1.5208   -3.6428   -0.2872 H   0  0  0  0  0  0  0  0  0  0  0  0
    1.2214    0.3386    0.6018 H   0  0  0  0  0  0  0  0  0  0  0  0
    0.1065   -0.4630    1.7095 H   0  0  0  0  0  0  0  0  0  0  0  0
   -0.1185   -2.9734    1.6275 H   0  0  0  0  0  0  0  0  0  0  0  0
    0.8480   -3.8772    0.4539 H   0  0  0  0  0  0  0  0  0  0  0  0
   -4.5955    1.2349    2.7516 H   0  0  0  0  0  0  0  0  0  0  0  0
   -4.6287    3.2687   -1.0277 H   0  0  0  0  0  0  0  0  0  0  0  0
   -2.5504   -1.3254    1.9922 H   0  0  0  0  0  0  0  0  0  0  0  0
   -3.9680   -0.9535    2.9314 H   0  0  0  0  0  0  0  0  0  0  0  0
   -4.1626   -1.9979    1.5591 H   0  0  0  0  0  0  0  0  0  0  0  0
   -4.2560    0.5352   -3.0786 H   0  0  0  0  0  0  0  0  0  0  0  0
   -2.5873    1.2329   -2.7700 H   0  0  0  0  0  0  0  0  0  0  0  0
   -3.9867    2.2368   -2.9462 H   0  0  0  0  0  0  0  0  0  0  0  0
    3.3561   -0.5437   -1.7340 H   0  0  0  0  0  0  0  0  0  0  0  0
    3.7082   -0.8213    2.5672 H   0  0  0  0  0  0  0  0  0  0  0  0
   -5.8541    4.1594    0.9011 H   0  0  0  0  0  0  0  0  0  0  0  0
   -4.3996    4.2356    1.9232 H   0  0  0  0  0  0  0  0  0  0  0  0
   -5.8353    3.3276    2.4526 H   0  0  0  0  0  0  0  0  0  0  0  0
    5.1839    1.1764    2.5870 H   0  0  0  0  0  0  0  0  0  0  0  0
    5.3841    3.6525   -1.3820 H   0  0  0  0  0  0  0  0  0  0  0  0
    6.8110    2.6016   -1.5667 H   0  0  0  0  0  0  0  0  0  0  0  0
  1  2  2  0  0  0  0
  1  3  2  0  0  0  0
  1  7  1  0  0  0  0
  1 13  1  0  0  0  0
  4 14  2  0  0  0  0
  5 26  1  0  0  0  0
  5 29  1  0  0  0  0
  6 27  1  0  0  0  0
  6 29  1  0  0  0  0
  7  9  1  0  0  0  0
  7 10  1  0  0  0  0
  8 11  1  0  0  0  0
  8 12  1  0  0  0  0
  8 14  1  0  0  0  0
  9 11  1  0  0  0  0
  9 30  1  0  0  0  0
  9 31  1  0  0  0  0
 10 12  1  0  0  0  0
 10 32  1  0  0  0  0
 10 33  1  0  0  0  0
 11 34  1  0  0  0  0
 11 35  1  0  0  0  0
 12 36  1  0  0  0  0
 12 37  1  0  0  0  0
 13 15  2  0  0  0  0
 13 16  1  0  0  0  0
 14 17  1  0  0  0  0
 15 18  1  0  0  0  0
 15 21  1  0  0  0  0
 16 19  2  0  0  0  0
 16 22  1  0  0  0  0
 17 23  2  0  0  0  0
 17 24  1  0  0  0  0
 18 20  2  0  0  0  0
 18 38  1  0  0  0  0
 19 20  1  0  0  0  0
 19 39  1  0  0  0  0
 20 25  1  0  0  0  0
 21 40  1  0  0  0  0
 21 41  1  0  0  0  0
 21 42  1  0  0  0  0
 22 43  1  0  0  0  0
 22 44  1  0  0  0  0
 22 45  1  0  0  0  0
 23 26  1  0  0  0  0
 23 46  1  0  0  0  0
 24 28  2  0  0  0  0
 24 47  1  0  0  0  0
 25 48  1  0  0  0  0
 25 49  1  0  0  0  0
 25 50  1  0  0  0  0
 26 27  2  0  0  0  0
 27 28  1  0  0  0  0
 28 51  1  0  0  0  0
 29 52  1  0  0  0  0
 29 53  1  0  0  0  0
M  END
> <PUBCHEM_COMPOUND_CID>
6493498

> <PUBCHEM_CONFORMER_RMSD>
0.8

> <PUBCHEM_CONFORMER_DIVERSEORDER>
7
19
28
37
23
9
18
33
35
5
11
27
10
15
13
29
34
24
25
12
21
16
36
30
6
17
20
1
8
14
32
31
2
3
22
26
4

> <PUBCHEM_MMFF94_PARTIAL_CHARGES>
34
1 1.45
10 0.36
11 0.3
12 0.3
13 -0.01
14 0.54
15 -0.14
16 -0.14
17 0.09
18 -0.15
19 -0.15
2 -0.65
20 -0.14
21 0.14
22 0.14
23 -0.15
24 -0.15
25 0.14
26 0.08
27 0.08
28 -0.15
29 0.56
3 -0.65
38 0.15
39 0.15
4 -0.57
46 0.15
47 0.15
5 -0.36
51 0.15
6 -0.36
7 -0.85
8 -0.66
9 0.36

> <PUBCHEM_EFFECTIVE_ROTOR_COUNT>
5.8

> <PUBCHEM_PHARMACOPHORE_FEATURES>
9
1 2 acceptor
1 3 acceptor
1 4 acceptor
1 5 acceptor
1 6 acceptor
5 5 6 26 27 29 rings
6 13 15 16 18 19 20 rings
6 17 23 24 26 27 28 rings
6 7 8 9 10 11 12 rings

> <PUBCHEM_HEAVY_ATOM_COUNT>
29

> <PUBCHEM_ATOM_DEF_STEREO_COUNT>
0

> <PUBCHEM_ATOM_UDEF_STEREO_COUNT>
0

> <PUBCHEM_BOND_DEF_STEREO_COUNT>
0

> <PUBCHEM_BOND_UDEF_STEREO_COUNT>
0

> <PUBCHEM_ISOTOPIC_ATOM_COUNT>
0

> <PUBCHEM_COMPONENT_COUNT>
1

> <PUBCHEM_CACTVS_TAUTO_COUNT>
1

> <PUBCHEM_CONFORMER_ID>
0063153A00000007

> <PUBCHEM_MMFF94_ENERGY>
83.4678

> <PUBCHEM_FEATURE_SELFOVERLAP>
45.848

> <PUBCHEM_SHAPE_FINGERPRINT>
100830 2 18261403307622043572
10928967 22 9871465469429241040
11135609 201 18263649635530582680
11720765 8 17630058062133725894
12390115 104 18411706499366133847
12422481 6 17458338607396263948
13383661 66 12172756518037610861
13583140 156 16009014095215471266
13782708 43 11527361811543250021
13828863 39 18337965510603999977
14251764 75 18341337686775312241
14790565 3 18410579495863959208
14840074 17 18261963959514721173
14848178 5 8286199414143401912
14848178 96 18338790135370731770
14910302 57 12895065181029640347
14950920 106 16009022861233238176
15163728 17 18130794433986050431
15188451 53 12179840653720840417
15513586 35 17752212939726322669
16067690 210 17489317373152770432
17857418 61 9799696995588827220
18393751 57 18188780440601045515
19246450 95 17244662778056693552
20691028 202 18270684139200930265
21120745 212 18126285475025698735
22122407 14 17980493269582133001
23559900 14 18043813082999688706
283562 15 18338226185297559675
2838139 119 18200029676987469280
312425 83 15985098648027900304
3459 110 16805326625677665869
34797466 226 15553865785124838753
350125 39 18340767143757191067
3552219 110 18412821413980782973
392239 28 16081654486139776304
4258327 124 18334290973099024565
44062 13 10591769761943602787
46194498 28 15911902032799726450
484985 159 8358264718349324609
5104073 3 18113899338434944410
57724786 102 18195812860409790355
6034566 193 18262243321245416852
6058803 2 18268128921180317903
633830 44 18338797814583028430
6431902 208 10447932784695770580
7288768 16 18259993664905489835
7808743 9 18336829813871285738
7970288 3 8069439514628246457
960060 61 13614520762310569080

> <PUBCHEM_SHAPE_MULTIPOLES>
561.35
14.87
3.78
1.96
9.98
0.15
-0.47
14
0.88
-0.67
0.26
-1.49
0.65
-2.33

> <PUBCHEM_SHAPE_SELFOVERLAP>
1207.039

> <PUBCHEM_SHAPE_VOLUME>
313.9

> <PUBCHEM_COORDINATE_TYPE>
2
5
10

$$$$
