16191813
  -OEChem-01171811493D

 48 49  0     0  0  0  0  0  0999 V2000
    4.4392    1.2945   -0.6448 S   0  0  0  0  0  0  0  0  0  0  0  0
   -2.6747    1.7650    0.3363 O   0  0  0  0  0  0  0  0  0  0  0  0
   -4.5422   -2.1244    1.1213 O   0  0  0  0  0  0  0  0  0  0  0  0
   -2.3799    0.9768   -1.8151 O   0  0  0  0  0  0  0  0  0  0  0  0
    2.8837   -1.4669   -1.9591 O   0  0  0  0  0  0  0  0  0  0  0  0
    1.2588   -0.1736   -0.9351 N   0  0  0  0  0  0  0  0  0  0  0  0
   -1.4774   -0.2369    0.0702 C   0  0  0  0  0  0  0  0  0  0  0  0
   -0.3076    0.3322    0.8986 C   0  0  0  0  0  0  0  0  0  0  0  0
   -0.9620   -1.2317   -0.9894 C   0  0  0  0  0  0  0  0  0  0  0  0
   -2.4870   -0.9294    0.9941 C   0  0  0  0  0  0  0  0  0  0  0  0
    0.8272    0.8561    0.0178 C   0  0  0  0  0  0  0  0  0  0  0  0
    0.1969   -0.6656   -1.8121 C   0  0  0  0  0  0  0  0  0  0  0  0
   -2.2219    0.8886   -0.6050 C   0  0  0  0  0  0  0  0  0  0  0  0
   -3.6401   -1.5177    0.2064 C   0  0  0  0  0  0  0  0  0  0  0  0
    2.5752   -0.6431   -1.0961 C   0  0  0  0  0  0  0  0  0  0  0  0
    3.5895   -0.1176   -0.1897 C   0  0  0  0  0  0  0  0  0  0  0  0
   -3.4027    2.8886   -0.1693 C   0  0  0  0  0  0  0  0  0  0  0  0
    3.9922   -0.5998    1.0324 C   0  0  0  0  0  0  0  0  0  0  0  0
   -5.6457   -2.7180    0.4505 C   0  0  0  0  0  0  0  0  0  0  0  0
   -3.8335    3.7598    0.9913 C   0  0  0  0  0  0  0  0  0  0  0  0
    5.0180    0.2042    1.6083 C   0  0  0  0  0  0  0  0  0  0  0  0
    3.4375   -1.8090    1.6874 C   0  0  0  0  0  0  0  0  0  0  0  0
    5.3564    1.2679    0.8009 C   0  0  0  0  0  0  0  0  0  0  0  0
   -0.6349    1.1309    1.5746 H   0  0  0  0  0  0  0  0  0  0  0  0
    0.0958   -0.4656    1.5369 H   0  0  0  0  0  0  0  0  0  0  0  0
   -0.6162   -2.1461   -0.4887 H   0  0  0  0  0  0  0  0  0  0  0  0
   -1.7438   -1.5280   -1.6977 H   0  0  0  0  0  0  0  0  0  0  0  0
   -1.9958   -1.7350    1.5569 H   0  0  0  0  0  0  0  0  0  0  0  0
   -2.8771   -0.2490    1.7625 H   0  0  0  0  0  0  0  0  0  0  0  0
    0.5015    1.7262   -0.5638 H   0  0  0  0  0  0  0  0  0  0  0  0
    1.6466    1.1882    0.6578 H   0  0  0  0  0  0  0  0  0  0  0  0
    0.5768   -1.4456   -2.4800 H   0  0  0  0  0  0  0  0  0  0  0  0
   -0.1160    0.1685   -2.4482 H   0  0  0  0  0  0  0  0  0  0  0  0
   -4.1806   -0.7503   -0.3574 H   0  0  0  0  0  0  0  0  0  0  0  0
   -3.2989   -2.2944   -0.4841 H   0  0  0  0  0  0  0  0  0  0  0  0
   -4.2849    2.5358   -0.7150 H   0  0  0  0  0  0  0  0  0  0  0  0
   -2.7616    3.4640   -0.8464 H   0  0  0  0  0  0  0  0  0  0  0  0
   -6.2096   -1.9623   -0.1049 H   0  0  0  0  0  0  0  0  0  0  0  0
   -6.3050   -3.1629    1.2007 H   0  0  0  0  0  0  0  0  0  0  0  0
   -5.3050   -3.5078   -0.2260 H   0  0  0  0  0  0  0  0  0  0  0  0
   -2.9623    4.1048    1.5579 H   0  0  0  0  0  0  0  0  0  0  0  0
   -4.3942    4.6305    0.6401 H   0  0  0  0  0  0  0  0  0  0  0  0
   -4.4603    3.1922    1.6870 H   0  0  0  0  0  0  0  0  0  0  0  0
    5.4883    0.0180    2.5656 H   0  0  0  0  0  0  0  0  0  0  0  0
    3.5341   -2.6819    1.0333 H   0  0  0  0  0  0  0  0  0  0  0  0
    2.3772   -1.6677    1.9208 H   0  0  0  0  0  0  0  0  0  0  0  0
    3.9590   -2.0351    2.6233 H   0  0  0  0  0  0  0  0  0  0  0  0
    6.0981    2.0306    0.9911 H   0  0  0  0  0  0  0  0  0  0  0  0
  1 16  1  0  0  0  0
  1 23  1  0  0  0  0
  2 13  1  0  0  0  0
  2 17  1  0  0  0  0
  3 14  1  0  0  0  0
  3 19  1  0  0  0  0
  4 13  2  0  0  0  0
  5 15  2  0  0  0  0
  6 11  1  0  0  0  0
  6 12  1  0  0  0  0
  6 15  1  0  0  0  0
  7  8  1  0  0  0  0
  7  9  1  0  0  0  0
  7 10  1  0  0  0  0
  7 13  1  0  0  0  0
  8 11  1  0  0  0  0
  8 24  1  0  0  0  0
  8 25  1  0  0  0  0
  9 12  1  0  0  0  0
  9 26  1  0  0  0  0
  9 27  1  0  0  0  0
 10 14  1  0  0  0  0
 10 28  1  0  0  0  0
 10 29  1  0  0  0  0
 11 30  1  0  0  0  0
 11 31  1  0  0  0  0
 12 32  1  0  0  0  0
 12 33  1  0  0  0  0
 14 34  1  0  0  0  0
 14 35  1  0  0  0  0
 15 16  1  0  0  0  0
 16 18  2  0  0  0  0
 17 20  1  0  0  0  0
 17 36  1  0  0  0  0
 17 37  1  0  0  0  0
 18 21  1  0  0  0  0
 18 22  1  0  0  0  0
 19 38  1  0  0  0  0
 19 39  1  0  0  0  0
 19 40  1  0  0  0  0
 20 41  1  0  0  0  0
 20 42  1  0  0  0  0
 20 43  1  0  0  0  0
 21 23  2  0  0  0  0
 21 44  1  0  0  0  0
 22 45  1  0  0  0  0
 22 46  1  0  0  0  0
 22 47  1  0  0  0  0
 23 48  1  0  0  0  0
M  END
> <PUBCHEM_COMPOUND_CID>
16191813

> <PUBCHEM_CONFORMER_RMSD>
1

> <PUBCHEM_CONFORMER_DIVERSEORDER>
1
39
104
77
76
114
175
125
136
79
45
117
115
137
85
116
30
56
57
44
95
88
143
174
118
164
176
141
153
72
84
97
133
24
62
171
49
160
54
13
140
47
124
148
162
89
91
100
167
173
32
93
105
78
35
158
23
166
170
60
21
83
165
119
55
34
149
157
90
70
87
69
68
99
15
145
147
31
65
103
43
120
50
67
151
154
111
73
40
20
86
110
139
163
19
101
61
159
29
106
96
172
63
138
38
41
22
36
82
33
144
48
52
168
130
135
80
169
127
9
14
161
37
18
12
75
17
71
113
66
27
98
51
109
146
128
28
155
25
94
42
26
74
152
16
107
132
126
10
129
3
112
142
5
102
122
2
150
123
121
4
11
7
53
6
81
59
92
131
134
8
177
156
64
58
108
46

> <PUBCHEM_MMFF94_PARTIAL_CHARGES>
21
1 -0.08
11 0.3
12 0.3
13 0.66
14 0.28
15 0.71
16 -0.05
17 0.28
18 -0.18
19 0.28
2 -0.43
21 -0.15
22 0.18
23 -0.11
3 -0.56
4 -0.57
44 0.15
48 0.15
5 -0.57
6 -0.66
7 0.06

> <PUBCHEM_EFFECTIVE_ROTOR_COUNT>
9.2

> <PUBCHEM_PHARMACOPHORE_FEATURES>
5
1 3 acceptor
1 4 acceptor
1 5 acceptor
5 1 16 18 21 23 rings
6 6 7 8 9 11 12 rings

> <PUBCHEM_HEAVY_ATOM_COUNT>
23

> <PUBCHEM_ATOM_DEF_STEREO_COUNT>
0

> <PUBCHEM_ATOM_UDEF_STEREO_COUNT>
0

> <PUBCHEM_BOND_DEF_STEREO_COUNT>
0

> <PUBCHEM_BOND_UDEF_STEREO_COUNT>
0

> <PUBCHEM_ISOTOPIC_ATOM_COUNT>
0

> <PUBCHEM_COMPONENT_COUNT>
1

> <PUBCHEM_CACTVS_TAUTO_COUNT>
1

> <PUBCHEM_CONFORMER_ID>
00F7114500000001

> <PUBCHEM_MMFF94_ENERGY>
50.9108

> <PUBCHEM_FEATURE_SELFOVERLAP>
25.373

> <PUBCHEM_SHAPE_FINGERPRINT>
10319926 262 18340483362288285426
10366900 7 18115317811708798672
10498660 4 16845559916886503832
11405975 8 18267023860569826642
11545043 162 18270409291400578302
12107183 9 17829319194990111456
12403259 118 18412536626978235792
12403259 415 17775011171936501124
12507560 40 18272374152943921126
12596602 18 18186795915832180328
12788726 201 18263657306168119203
12892183 10 18409161117421724066
12930653 34 18410576145826475827
13224815 77 16773791498537799478
13533116 47 17530959237329143914
13540713 4 17987531328692967375
13583140 156 18261935419556473524
14178342 30 18334297517753372911
14289901 80 18260830423313365930
14468879 13 17916864604169262081
15842332 3 17387155163551089991
17492 89 18334852780222308546
19377110 9 17895206527062153416
200 152 16515959371535237135
20645477 70 14057004966086504854
20715895 44 17911793574964649744
21033648 29 17703779302499076016
21065198 48 18186518804790038632
21304303 282 17972013887695816613
22182313 1 17845948346044994741
23402539 116 18187642552971351279
23557571 272 18341347629413268156
23559900 14 18126855889352439374
312423 11 17822585970407162798
3286 77 17458621267810107406
495365 180 17058918936869593084
5104073 3 18336816512452516184
5924683 9 18040148518075580723
633830 44 18199463273394857284
8988823 20 17677609942046959302

> <PUBCHEM_SHAPE_MULTIPOLES>
448.72
11.69
2.99
1.67
2.27
2.09
-0.32
-0.97
4.44
-5.87
0.9
1.02
-0.43
0.2

> <PUBCHEM_SHAPE_SELFOVERLAP>
910.336

> <PUBCHEM_SHAPE_VOLUME>
264

> <PUBCHEM_COORDINATE_TYPE>
2
5
10

$$$$
