664030
  -OEChem-01171811373D

 47 50  0     0  0  0  0  0  0999 V2000
    5.3526    0.1593    0.1357 S   0  0  0  0  0  0  0  0  0  0  0  0
    1.9606    2.1061    0.5533 O   0  0  0  0  0  0  0  0  0  0  0  0
   -4.3499   -0.3671    0.6358 O   0  0  0  0  0  0  0  0  0  0  0  0
   -4.6328    1.9067    0.5597 O   0  0  0  0  0  0  0  0  0  0  0  0
    3.7233    2.4191   -0.8787 O   0  0  0  0  0  0  0  0  0  0  0  0
   -0.5991    1.8161   -0.7814 N   0  0  0  0  0  0  0  0  0  0  0  0
    0.6452   -0.2436   -1.0444 N   0  0  0  0  0  0  0  0  0  0  0  0
   -1.7921   -1.4188   -0.1407 N   0  0  0  0  0  0  0  0  0  0  0  0
   -2.2644    3.4426   -0.3465 N   0  0  0  0  0  0  0  0  0  0  0  0
   -0.4527    0.4575   -0.7292 C   0  0  0  0  0  0  0  0  0  0  0  0
   -1.8704    2.1491   -0.3816 C   0  0  0  0  0  0  0  0  0  0  0  0
   -1.6458   -0.0835   -0.2896 C   0  0  0  0  0  0  0  0  0  0  0  0
    0.4326    2.7440   -1.1952 C   0  0  0  0  0  0  0  0  0  0  0  0
   -2.5437    0.9857   -0.0696 C   0  0  0  0  0  0  0  0  0  0  0  0
    1.2927    3.2169   -0.0311 C   0  0  0  0  0  0  0  0  0  0  0  0
    0.4973   -1.5682   -0.8960 C   0  0  0  0  0  0  0  0  0  0  0  0
   -0.7118   -2.1519   -0.4471 C   0  0  0  0  0  0  0  0  0  0  0  0
   -3.9021    0.9155    0.3897 C   0  0  0  0  0  0  0  0  0  0  0  0
    1.5738   -2.3981   -1.1943 C   0  0  0  0  0  0  0  0  0  0  0  0
   -0.7840   -3.5356   -0.3191 C   0  0  0  0  0  0  0  0  0  0  0  0
    1.4865   -3.7828   -1.0615 C   0  0  0  0  0  0  0  0  0  0  0  0
    0.3028   -4.3538   -0.6218 C   0  0  0  0  0  0  0  0  0  0  0  0
   -5.6980   -0.5097    1.0975 C   0  0  0  0  0  0  0  0  0  0  0  0
    3.1944    1.7960    0.0360 C   0  0  0  0  0  0  0  0  0  0  0  0
    3.8245    0.6427    0.6843 C   0  0  0  0  0  0  0  0  0  0  0  0
   -5.9947   -1.9793    1.3070 C   0  0  0  0  0  0  0  0  0  0  0  0
    3.3288   -0.1092    1.6954 C   0  0  0  0  0  0  0  0  0  0  0  0
    4.2420   -1.1432    2.0514 C   0  0  0  0  0  0  0  0  0  0  0  0
    5.3842   -1.1125    1.2819 C   0  0  0  0  0  0  0  0  0  0  0  0
    1.0479    2.2284   -1.9421 H   0  0  0  0  0  0  0  0  0  0  0  0
   -0.0335    3.5896   -1.7097 H   0  0  0  0  0  0  0  0  0  0  0  0
    1.9986    3.9907   -0.3540 H   0  0  0  0  0  0  0  0  0  0  0  0
    0.6692    3.6663    0.7497 H   0  0  0  0  0  0  0  0  0  0  0  0
   -1.6571    4.2225   -0.5736 H   0  0  0  0  0  0  0  0  0  0  0  0
   -3.2029    3.7024   -0.0582 H   0  0  0  0  0  0  0  0  0  0  0  0
    2.5117   -1.9666   -1.5397 H   0  0  0  0  0  0  0  0  0  0  0  0
   -1.7061   -4.0010    0.0248 H   0  0  0  0  0  0  0  0  0  0  0  0
    2.3412   -4.4082   -1.3003 H   0  0  0  0  0  0  0  0  0  0  0  0
    0.2213   -5.4310   -0.5134 H   0  0  0  0  0  0  0  0  0  0  0  0
   -6.3836   -0.0952    0.3503 H   0  0  0  0  0  0  0  0  0  0  0  0
   -5.8176    0.0318    2.0422 H   0  0  0  0  0  0  0  0  0  0  0  0
   -7.0191   -2.1252    1.6607 H   0  0  0  0  0  0  0  0  0  0  0  0
   -5.8595   -2.5363    0.3740 H   0  0  0  0  0  0  0  0  0  0  0  0
   -5.3029   -2.4114    2.0377 H   0  0  0  0  0  0  0  0  0  0  0  0
    2.3703    0.0430    2.1749 H   0  0  0  0  0  0  0  0  0  0  0  0
    4.0694   -1.8734    2.8314 H   0  0  0  0  0  0  0  0  0  0  0  0
    6.2353   -1.7763    1.3377 H   0  0  0  0  0  0  0  0  0  0  0  0
  1 25  1  0  0  0  0
  1 29  1  0  0  0  0
  2 15  1  0  0  0  0
  2 24  1  0  0  0  0
  3 18  1  0  0  0  0
  3 23  1  0  0  0  0
  4 18  2  0  0  0  0
  5 24  2  0  0  0  0
  6 10  1  0  0  0  0
  6 11  1  0  0  0  0
  6 13  1  0  0  0  0
  7 10  2  0  0  0  0
  7 16  1  0  0  0  0
  8 12  2  0  0  0  0
  8 17  1  0  0  0  0
  9 11  1  0  0  0  0
  9 34  1  0  0  0  0
  9 35  1  0  0  0  0
 10 12  1  0  0  0  0
 11 14  2  0  0  0  0
 12 14  1  0  0  0  0
 13 15  1  0  0  0  0
 13 30  1  0  0  0  0
 13 31  1  0  0  0  0
 14 18  1  0  0  0  0
 15 32  1  0  0  0  0
 15 33  1  0  0  0  0
 16 17  1  0  0  0  0
 16 19  2  0  0  0  0
 17 20  2  0  0  0  0
 19 21  1  0  0  0  0
 19 36  1  0  0  0  0
 20 22  1  0  0  0  0
 20 37  1  0  0  0  0
 21 22  2  0  0  0  0
 21 38  1  0  0  0  0
 22 39  1  0  0  0  0
 23 26  1  0  0  0  0
 23 40  1  0  0  0  0
 23 41  1  0  0  0  0
 24 25  1  0  0  0  0
 25 27  2  0  0  0  0
 26 42  1  0  0  0  0
 26 43  1  0  0  0  0
 26 44  1  0  0  0  0
 27 28  1  0  0  0  0
 27 45  1  0  0  0  0
 28 29  2  0  0  0  0
 28 46  1  0  0  0  0
 29 47  1  0  0  0  0
M  END
> <PUBCHEM_COMPOUND_CID>
664030

> <PUBCHEM_CONFORMER_RMSD>
1

> <PUBCHEM_CONFORMER_DIVERSEORDER>
2
18
14
48
58
35
25
23
8
22
49
47
45
33
30
9
57
3
17
19
28
15
40
51
46
16
44
54
38
26
29
37
13
56
24
31
21
36
7
12
43
41
6
50
34
5
52
55
53
42
10
20
4
27
11
39
1
32

> <PUBCHEM_MMFF94_PARTIAL_CHARGES>
37
1 -0.08
10 0.11
11 -0.07
12 0.26
13 0.26
14 -0.09
15 0.28
16 0.31
17 0.31
18 0.81
19 -0.15
2 -0.43
20 -0.15
21 -0.15
22 -0.15
23 0.28
24 0.81
25 -0.05
27 -0.15
28 -0.15
29 -0.11
3 -0.43
34 0.4
35 0.4
36 0.15
37 0.15
38 0.15
39 0.15
4 -0.57
45 0.15
46 0.15
47 0.15
5 -0.57
6 0.05
7 -0.57
8 -0.57
9 -0.88

> <PUBCHEM_EFFECTIVE_ROTOR_COUNT>
8

> <PUBCHEM_PHARMACOPHORE_FEATURES>
10
1 4 acceptor
1 5 acceptor
1 8 acceptor
1 9 cation
1 9 donor
3 6 7 10 cation
5 1 25 27 28 29 rings
5 6 10 11 12 14 rings
6 16 17 19 20 21 22 rings
6 7 8 10 12 16 17 rings

> <PUBCHEM_HEAVY_ATOM_COUNT>
29

> <PUBCHEM_ATOM_DEF_STEREO_COUNT>
0

> <PUBCHEM_ATOM_UDEF_STEREO_COUNT>
0

> <PUBCHEM_BOND_DEF_STEREO_COUNT>
0

> <PUBCHEM_BOND_UDEF_STEREO_COUNT>
0

> <PUBCHEM_ISOTOPIC_ATOM_COUNT>
0

> <PUBCHEM_COMPONENT_COUNT>
1

> <PUBCHEM_CACTVS_TAUTO_COUNT>
4

> <PUBCHEM_CONFORMER_ID>
000A21DE00000002

> <PUBCHEM_MMFF94_ENERGY>
54.8439

> <PUBCHEM_FEATURE_SELFOVERLAP>
50.919

> <PUBCHEM_SHAPE_FINGERPRINT>
10675989 125 16394640650528458215
11578080 2 17913493441895446145
11719270 70 18339646741582761847
12422481 6 18411702088877949659
12633257 1 18413101775690733152
12788726 201 16463619607339456812
12839892 36 18411981369115601483
13140716 1 18195810888856349031
13402501 40 18198621022119499742
13583140 156 17314210194815357966
14790565 3 18339376260920982717
14866123 147 18341608282489196166
150020 26 17981300328154384538
15403338 16 17098034062732598418
15420108 30 17988071172186657167
16110190 28 18338221757370004400
16728300 4 17824803582371408210
19591789 44 18411706456521871820
20028762 73 18129941307879743655
21304304 249 18335139825776532283
21814621 53 15266246724954383519
23559900 14 17904209130733426183
463206 1 16247994395301841558
465052 167 18259989296432996080
5265222 85 18413392051683427860
58807428 26 18342457070994856711
7097593 13 18120364613067393100

> <PUBCHEM_SHAPE_MULTIPOLES>
557.25
10.55
4.89
1.38
4.37
2.32
0.42
0.1
7.12
0.05
-1.84
-0.76
0.47
0.26

> <PUBCHEM_SHAPE_SELFOVERLAP>
1217.837

> <PUBCHEM_SHAPE_VOLUME>
305.5

> <PUBCHEM_COORDINATE_TYPE>
2
5
10

$$$$
