2938921
  -OEChem-01171811413D

 34 37  0     0  0  0  0  0  0999 V2000
   -0.5125    2.2235    0.0133 S   0  0  0  0  0  0  0  0  0  0  0  0
    6.3780   -0.9207   -0.0133 O   0  0  0  0  0  0  0  0  0  0  0  0
   -5.1785    0.8480   -0.0184 O   0  0  0  0  0  0  0  0  0  0  0  0
   -2.9287   -1.8125    0.0226 O   0  0  0  0  0  0  0  0  0  0  0  0
   -0.2713   -0.3925    0.0129 N   0  0  0  0  0  0  0  0  0  0  0  0
   -2.5161    0.5081    0.0214 N   0  0  0  0  0  0  0  0  0  0  0  0
    2.4012    2.1102    0.0024 C   0  0  0  0  0  0  0  0  0  0  0  0
    3.1847    0.8021   -0.0011 C   0  0  0  0  0  0  0  0  0  0  0  0
    2.3024   -0.3153    0.0019 C   0  0  0  0  0  0  0  0  0  0  0  0
    1.0204    1.5536    0.0081 C   0  0  0  0  0  0  0  0  0  0  0  0
    0.9591    0.1817    0.0078 C   0  0  0  0  0  0  0  0  0  0  0  0
    4.5534    0.6173   -0.0061 C   0  0  0  0  0  0  0  0  0  0  0  0
    2.7649   -1.6136   -0.0008 C   0  0  0  0  0  0  0  0  0  0  0  0
   -1.1486    0.5999    0.0162 C   0  0  0  0  0  0  0  0  0  0  0  0
    5.0326   -0.6969   -0.0089 C   0  0  0  0  0  0  0  0  0  0  0  0
    4.1503   -1.7969   -0.0068 C   0  0  0  0  0  0  0  0  0  0  0  0
   -3.3276   -0.6529    0.0244 C   0  0  0  0  0  0  0  0  0  0  0  0
   -4.7965   -0.4261    0.0021 C   0  0  0  0  0  0  0  0  0  0  0  0
    7.2243    0.2264   -0.0153 C   0  0  0  0  0  0  0  0  0  0  0  0
   -5.7925   -1.3139   -0.0007 C   0  0  0  0  0  0  0  0  0  0  0  0
   -6.9629   -0.5185   -0.0260 C   0  0  0  0  0  0  0  0  0  0  0  0
   -6.5361    0.7890   -0.0360 C   0  0  0  0  0  0  0  0  0  0  0  0
    2.6130    2.6884    0.9058 H   0  0  0  0  0  0  0  0  0  0  0  0
    2.6055    2.6886   -0.9026 H   0  0  0  0  0  0  0  0  0  0  0  0
    5.1788    1.5011   -0.0076 H   0  0  0  0  0  0  0  0  0  0  0  0
    2.0925   -2.4639    0.0013 H   0  0  0  0  0  0  0  0  0  0  0  0
    4.5518   -2.8078   -0.0090 H   0  0  0  0  0  0  0  0  0  0  0  0
   -2.9955    1.4053    0.0193 H   0  0  0  0  0  0  0  0  0  0  0  0
    7.0985    0.8222    0.8952 H   0  0  0  0  0  0  0  0  0  0  0  0
    7.0925    0.8234   -0.9241 H   0  0  0  0  0  0  0  0  0  0  0  0
    8.2581   -0.1347   -0.0189 H   0  0  0  0  0  0  0  0  0  0  0  0
   -5.7326   -2.3925    0.0130 H   0  0  0  0  0  0  0  0  0  0  0  0
   -7.9893   -0.8559   -0.0357 H   0  0  0  0  0  0  0  0  0  0  0  0
   -7.0451    1.7417   -0.0543 H   0  0  0  0  0  0  0  0  0  0  0  0
  1 10  1  0  0  0  0
  1 14  1  0  0  0  0
  2 15  1  0  0  0  0
  2 19  1  0  0  0  0
  3 18  1  0  0  0  0
  3 22  1  0  0  0  0
  4 17  2  0  0  0  0
  5 11  1  0  0  0  0
  5 14  2  0  0  0  0
  6 14  1  0  0  0  0
  6 17  1  0  0  0  0
  6 28  1  0  0  0  0
  7  8  1  0  0  0  0
  7 10  1  0  0  0  0
  7 23  1  0  0  0  0
  7 24  1  0  0  0  0
  8  9  2  0  0  0  0
  8 12  1  0  0  0  0
  9 11  1  0  0  0  0
  9 13  1  0  0  0  0
 10 11  2  0  0  0  0
 12 15  2  0  0  0  0
 12 25  1  0  0  0  0
 13 16  2  0  0  0  0
 13 26  1  0  0  0  0
 15 16  1  0  0  0  0
 16 27  1  0  0  0  0
 17 18  1  0  0  0  0
 18 20  2  0  0  0  0
 19 29  1  0  0  0  0
 19 30  1  0  0  0  0
 19 31  1  0  0  0  0
 20 21  1  0  0  0  0
 20 32  1  0  0  0  0
 21 22  2  0  0  0  0
 21 33  1  0  0  0  0
 22 34  1  0  0  0  0
M  END
> <PUBCHEM_COMPOUND_CID>
2938921

> <PUBCHEM_CONFORMER_RMSD>
0.6

> <PUBCHEM_CONFORMER_DIVERSEORDER>
1
7
9
8
10
4
2
5
3
6

> <PUBCHEM_MMFF94_PARTIAL_CHARGES>
29
1 -0.08
10 -0.14
11 0.17
12 -0.15
13 -0.15
14 0.44
15 0.08
16 -0.15
17 0.71
18 0.05
19 0.28
2 -0.36
20 -0.15
21 -0.15
22 -0.01
25 0.15
26 0.15
27 0.15
28 0.37
3 -0.28
32 0.15
33 0.15
34 0.15
4 -0.57
5 -0.57
6 -0.49
7 0.32
8 -0.14
9 0.05

> <PUBCHEM_EFFECTIVE_ROTOR_COUNT>
4.2

> <PUBCHEM_PHARMACOPHORE_FEATURES>
8
1 2 acceptor
1 3 acceptor
1 4 acceptor
1 6 donor
5 1 5 10 11 14 rings
5 3 18 20 21 22 rings
5 7 8 9 10 11 rings
6 8 9 12 13 15 16 rings

> <PUBCHEM_HEAVY_ATOM_COUNT>
22

> <PUBCHEM_ATOM_DEF_STEREO_COUNT>
0

> <PUBCHEM_ATOM_UDEF_STEREO_COUNT>
0

> <PUBCHEM_BOND_DEF_STEREO_COUNT>
0

> <PUBCHEM_BOND_UDEF_STEREO_COUNT>
0

> <PUBCHEM_ISOTOPIC_ATOM_COUNT>
0

> <PUBCHEM_COMPONENT_COUNT>
1

> <PUBCHEM_CACTVS_TAUTO_COUNT>
3

> <PUBCHEM_CONFORMER_ID>
002CD82900000001

> <PUBCHEM_MMFF94_ENERGY>
70.2108

> <PUBCHEM_FEATURE_SELFOVERLAP>
40.901

> <PUBCHEM_SHAPE_FINGERPRINT>
10299344 5 18407762538420047047
10968037 39 18409167714454476519
11315181 36 18131917070371557345
11524674 6 16917066672504622231
11578080 2 13769081388312728508
11719270 70 18413105053073111534
11963148 33 18410568496764801518
12107183 9 17765440842466241921
12236239 1 17988925591473804097
12516196 113 18272650147057084768
12838862 33 18338780274031030354
12916748 109 8574717909533490194
13402501 40 18408605859522881091
13533116 47 18130787849727117955
13685833 64 18408606972251389027
14170010 4 18410572920712179568
14251764 18 18413671318044316501
14251764 46 17312821580570324131
15183329 4 18335135376353417761
15196674 1 18338516443254627883
15461852 350 16415470546662203509
15849732 13 17988924478961178468
15927050 60 17623848329370871516
16087824 20 18337954472791952037
16120349 18 18270955851215634936
17492 89 18049720720816895194
17844677 252 18409736170930835957
17857418 61 18411982451025276011
18006028 8 18202844352949061921
18681886 176 18271519883494949258
19141452 34 18341610456037722343
200 152 18272932721809082801
20028762 73 18272932713156585494
20238998 120 18408602552361809420
20612939 158 18187089489447316853
20645477 70 18411139125670361199
21236236 1 18341332181054649353
21267235 1 18411143532174639108
21279426 13 18264486175016667215
22224240 67 16774071878356151542
23035841 295 18333167267044484050
23402539 116 18273209803545920181
23522609 53 18193025701139203220
23536379 177 18411700976671012185
23559900 14 18338793524010556545
23622692 88 15769772468308342548
3004659 81 18187644717086131728
335352 9 18410574010958295535
3411729 13 15912184594630075656
34797466 226 17060624413187024140
350125 39 18411981360441699524
3545911 37 18410854369206475105
4017518 198 17132119039258486190
4073 2 17968944213617104627
4214541 1 18410573985969297537
4325135 7 18333735719763465982
4463277 17 18411136939637411492
46194498 28 17458064897467145780
465052 167 18272092699151968142
5104073 3 18270967946660556123
5486654 2 18409735071487617654
559249 180 18343580768295938559
59682541 35 18343293795966291626
59755656 215 18408325462709529926
59755656 520 16950561112396345043

> <PUBCHEM_SHAPE_MULTIPOLES>
429.03
18.15
1.92
0.6
10.01
0.36
0
-4.86
0.2
-0.6
0
-0.02
0.02
0.02

> <PUBCHEM_SHAPE_SELFOVERLAP>
951.178

> <PUBCHEM_SHAPE_VOLUME>
233.5

> <PUBCHEM_COORDINATE_TYPE>
2
5
10

$$$$
