742521
  -OEChem-01171811593D

 43 44  0     0  0  0  0  0  0999 V2000
    6.1997   -1.9798   -0.7920 Cl  0  0  0  0  0  0  0  0  0  0  0  0
   -4.4639    1.4022   -0.2582 O   0  0  0  0  0  0  0  0  0  0  0  0
    0.4934    1.3781    0.1452 N   0  0  0  0  0  0  0  0  0  0  0  0
   -2.2286    0.8603   -0.5828 N   0  0  0  0  0  0  0  0  0  0  0  0
   -0.5818    2.2759    0.5916 C   0  0  0  0  0  0  0  0  0  0  0  0
    0.0004   -0.0033    0.0424 C   0  0  0  0  0  0  0  0  0  0  0  0
   -1.7623    2.2308   -0.3780 C   0  0  0  0  0  0  0  0  0  0  0  0
   -1.1737   -0.0949   -0.9341 C   0  0  0  0  0  0  0  0  0  0  0  0
    1.6341    1.4497    1.0573 C   0  0  0  0  0  0  0  0  0  0  0  0
   -3.5942    0.5801   -0.5576 C   0  0  0  0  0  0  0  0  0  0  0  0
   -4.0006   -0.8262   -0.9192 C   0  0  0  0  0  0  0  0  0  0  0  0
   -4.0513   -1.7060    0.3291 C   0  0  0  0  0  0  0  0  0  0  0  0
    2.7789    0.5891    0.5927 C   0  0  0  0  0  0  0  0  0  0  0  0
   -4.3584   -3.1492   -0.0728 C   0  0  0  0  0  0  0  0  0  0  0  0
   -5.0993   -1.2113    1.3293 C   0  0  0  0  0  0  0  0  0  0  0  0
    2.8545   -0.7318    1.0115 C   0  0  0  0  0  0  0  0  0  0  0  0
    3.7429    1.1293   -0.2470 C   0  0  0  0  0  0  0  0  0  0  0  0
    3.9156   -1.5287    0.5819 C   0  0  0  0  0  0  0  0  0  0  0  0
    4.8040    0.3325   -0.6768 C   0  0  0  0  0  0  0  0  0  0  0  0
    4.8904   -0.9967   -0.2624 C   0  0  0  0  0  0  0  0  0  0  0  0
   -0.2140    3.3078    0.6403 H   0  0  0  0  0  0  0  0  0  0  0  0
   -0.9235    1.9983    1.5976 H   0  0  0  0  0  0  0  0  0  0  0  0
   -0.3097   -0.3839    1.0247 H   0  0  0  0  0  0  0  0  0  0  0  0
    0.7538   -0.6791   -0.3698 H   0  0  0  0  0  0  0  0  0  0  0  0
   -2.5731    2.8644   -0.0042 H   0  0  0  0  0  0  0  0  0  0  0  0
   -1.4688    2.6223   -1.3599 H   0  0  0  0  0  0  0  0  0  0  0  0
   -0.8492    0.1448   -1.9541 H   0  0  0  0  0  0  0  0  0  0  0  0
   -1.5282   -1.1260   -0.9360 H   0  0  0  0  0  0  0  0  0  0  0  0
    1.3493    1.1617    2.0793 H   0  0  0  0  0  0  0  0  0  0  0  0
    1.9878    2.4870    1.1309 H   0  0  0  0  0  0  0  0  0  0  0  0
   -3.3686   -1.2432   -1.7075 H   0  0  0  0  0  0  0  0  0  0  0  0
   -5.0003   -0.7656   -1.3715 H   0  0  0  0  0  0  0  0  0  0  0  0
   -3.0762   -1.6934    0.8316 H   0  0  0  0  0  0  0  0  0  0  0  0
   -3.5966   -3.5316   -0.7606 H   0  0  0  0  0  0  0  0  0  0  0  0
   -4.3716   -3.8037    0.8052 H   0  0  0  0  0  0  0  0  0  0  0  0
   -5.3326   -3.2268   -0.5676 H   0  0  0  0  0  0  0  0  0  0  0  0
   -5.1877   -1.9072    2.1708 H   0  0  0  0  0  0  0  0  0  0  0  0
   -6.0865   -1.1225    0.8631 H   0  0  0  0  0  0  0  0  0  0  0  0
   -4.8276   -0.2378    1.7486 H   0  0  0  0  0  0  0  0  0  0  0  0
    2.1120   -1.1564    1.6813 H   0  0  0  0  0  0  0  0  0  0  0  0
    3.6843    2.1626   -0.5773 H   0  0  0  0  0  0  0  0  0  0  0  0
    3.9719   -2.5617    0.9156 H   0  0  0  0  0  0  0  0  0  0  0  0
    5.5560    0.7604   -1.3348 H   0  0  0  0  0  0  0  0  0  0  0  0
  1 20  1  0  0  0  0
  2 10  2  0  0  0  0
  3  5  1  0  0  0  0
  3  6  1  0  0  0  0
  3  9  1  0  0  0  0
  4  7  1  0  0  0  0
  4  8  1  0  0  0  0
  4 10  1  0  0  0  0
  5  7  1  0  0  0  0
  5 21  1  0  0  0  0
  5 22  1  0  0  0  0
  6  8  1  0  0  0  0
  6 23  1  0  0  0  0
  6 24  1  0  0  0  0
  7 25  1  0  0  0  0
  7 26  1  0  0  0  0
  8 27  1  0  0  0  0
  8 28  1  0  0  0  0
  9 13  1  0  0  0  0
  9 29  1  0  0  0  0
  9 30  1  0  0  0  0
 10 11  1  0  0  0  0
 11 12  1  0  0  0  0
 11 31  1  0  0  0  0
 11 32  1  0  0  0  0
 12 14  1  0  0  0  0
 12 15  1  0  0  0  0
 12 33  1  0  0  0  0
 13 16  2  0  0  0  0
 13 17  1  0  0  0  0
 14 34  1  0  0  0  0
 14 35  1  0  0  0  0
 14 36  1  0  0  0  0
 15 37  1  0  0  0  0
 15 38  1  0  0  0  0
 15 39  1  0  0  0  0
 16 18  1  0  0  0  0
 16 40  1  0  0  0  0
 17 19  2  0  0  0  0
 17 41  1  0  0  0  0
 18 20  2  0  0  0  0
 18 42  1  0  0  0  0
 19 20  1  0  0  0  0
 19 43  1  0  0  0  0
M  END
> <PUBCHEM_COMPOUND_CID>
742521

> <PUBCHEM_CONFORMER_RMSD>
0.8

> <PUBCHEM_CONFORMER_DIVERSEORDER>
1
25
31
3
16
30
29
2
23
28
33
7
17
38
34
22
5
35
26
12
10
9
20
4
32
40
19
11
39
24
18
27
21
15
8
13
36
14
37
6

> <PUBCHEM_MMFF94_PARTIAL_CHARGES>
21
1 -0.18
10 0.57
11 0.06
13 -0.14
16 -0.15
17 -0.15
18 -0.15
19 -0.15
2 -0.57
20 0.18
3 -0.81
4 -0.66
40 0.15
41 0.15
42 0.15
43 0.15
5 0.27
6 0.27
7 0.3
8 0.3
9 0.41

> <PUBCHEM_EFFECTIVE_ROTOR_COUNT>
6.2

> <PUBCHEM_PHARMACOPHORE_FEATURES>
5
1 2 acceptor
1 3 cation
3 12 14 15 hydrophobe
6 13 16 17 18 19 20 rings
6 3 4 5 6 7 8 rings

> <PUBCHEM_HEAVY_ATOM_COUNT>
20

> <PUBCHEM_ATOM_DEF_STEREO_COUNT>
0

> <PUBCHEM_ATOM_UDEF_STEREO_COUNT>
0

> <PUBCHEM_BOND_DEF_STEREO_COUNT>
0

> <PUBCHEM_BOND_UDEF_STEREO_COUNT>
0

> <PUBCHEM_ISOTOPIC_ATOM_COUNT>
0

> <PUBCHEM_COMPONENT_COUNT>
1

> <PUBCHEM_CACTVS_TAUTO_COUNT>
1

> <PUBCHEM_CONFORMER_ID>
000B547900000001

> <PUBCHEM_MMFF94_ENERGY>
44.2869

> <PUBCHEM_FEATURE_SELFOVERLAP>
25.371

> <PUBCHEM_SHAPE_FINGERPRINT>
10014705 185 9367345933723947549
10498660 4 11458427899578761230
10928967 22 18342167903611107926
11045515 52 17967249775909949884
11089746 13 8646775469739194000
11543360 7 17022897960527450813
11552529 35 17557984223960128967
11796584 16 18338514140877863854
12596602 18 16845011333034490755
12633257 1 15626220247333888404
12670546 56 12895072899012238757
12760667 363 18273494550712768807
12969540 114 14418137313729307008
13103583 49 17916884511790981627
13167823 11 18334574646291556926
13533116 47 17838614810522248211
13740256 8 18412825806682611520
13914758 101 16702304530171799985
13955234 65 17916297428601382320
14251732 14 16660652890021710739
14251751 18 18411422804350592118
14251758 9 16056610824015915201
14251764 30 18341898518966971550
14341114 176 18411421752183499985
14420673 8 18342463608088490863
14576447 43 18261954047351895066
14951699 99 10663809794224702258
15537594 2 18341615978838189790
17844677 252 18410578400441635221
18915474 69 18333447655610883068
193927 3 18130511847161013694
20281475 54 18409163350746747641
20621476 21 18340779194866276566
21054139 6 18040995134009057906
21315763 191 18411707560265273392
21713013 43 18186793665184960188
221490 88 18411976988091035424
22950370 63 18411986896400894785
23379529 103 18413111679817220318
235170 7 16081073888266339075
23559900 14 18410564089789991992
238078 22 18407759235674683497
3004659 81 18334572413488753166
312423 11 18341903982703487728
312425 83 14925046181595948155
341906 21 9943525240972987290
3737641 26 18338244777445853115
465052 167 18201723997744668030
5104073 3 18273209773233424792
5486654 36 18411708686042668689
59755656 520 18337101269327955789
7495541 125 18341610438936870264
8217 86 18409454717186017942
8863177 126 18343020038302506410

> <PUBCHEM_SHAPE_MULTIPOLES>
397.63
13.54
2.72
1.06
4.66
0.68
-0.12
9.61
1.24
-1.81
-0.1
-0.16
0.1
0.9

> <PUBCHEM_SHAPE_SELFOVERLAP>
804.97

> <PUBCHEM_SHAPE_VOLUME>
233.6

> <PUBCHEM_COORDINATE_TYPE>
2
5
10

$$$$
