1897502
  -OEChem-01171812073D

 43 45  0     0  0  0  0  0  0999 V2000
    1.1213   -3.2243   -0.2551 O   0  0  0  0  0  0  0  0  0  0  0  0
   -2.2268    0.6298    2.0161 O   0  0  0  0  0  0  0  0  0  0  0  0
   -2.0178   -1.9057    0.5365 O   0  0  0  0  0  0  0  0  0  0  0  0
    6.8348    1.2457    0.5861 O   0  5  0  0  0  0  0  0  0  0  0  0
    6.4712    1.4735   -1.5668 O   0  0  0  0  0  0  0  0  0  0  0  0
    0.0477   -0.8607    0.3132 N   0  0  0  0  0  0  0  0  0  0  0  0
   -2.5542    0.9220   -0.2858 N   0  0  0  0  0  0  0  0  0  0  0  0
    6.0539    1.3720   -0.3878 N   0  3  0  0  0  0  0  0  0  0  0  0
    1.9053    1.4569    0.3224 C   0  0  0  0  0  0  0  0  0  0  0  0
   -0.3621    0.4188    0.5672 C   0  0  0  0  0  0  0  0  0  0  0  0
    0.4720    1.4850    0.5678 C   0  0  0  0  0  0  0  0  0  0  0  0
   -1.8154    0.6609    0.8602 C   0  0  0  0  0  0  0  0  0  0  0  0
    2.3923    1.5686   -0.9800 C   0  0  0  0  0  0  0  0  0  0  0  0
    2.7926    1.3172    1.3892 C   0  0  0  0  0  0  0  0  0  0  0  0
   -3.9418    1.1923   -0.3738 C   0  0  0  0  0  0  0  0  0  0  0  0
    4.6545    1.4008   -0.1484 C   0  0  0  0  0  0  0  0  0  0  0  0
    3.7669    1.5405   -1.2154 C   0  0  0  0  0  0  0  0  0  0  0  0
    4.1672    1.2893    1.1540 C   0  0  0  0  0  0  0  0  0  0  0  0
   -0.8104   -1.9494    0.3137 C   0  0  0  0  0  0  0  0  0  0  0  0
   -0.1854   -3.2589   -0.0072 C   0  0  0  0  0  0  0  0  0  0  0  0
   -4.5069    1.4309   -1.6150 C   0  0  0  0  0  0  0  0  0  0  0  0
   -4.7021    1.2114    0.7831 C   0  0  0  0  0  0  0  0  0  0  0  0
   -5.8733    1.6969   -1.7021 C   0  0  0  0  0  0  0  0  0  0  0  0
   -6.0687    1.4772    0.6960 C   0  0  0  0  0  0  0  0  0  0  0  0
   -0.7418   -4.4695   -0.0839 C   0  0  0  0  0  0  0  0  0  0  0  0
   -6.6543    1.7199   -0.5467 C   0  0  0  0  0  0  0  0  0  0  0  0
    0.3350   -5.3232   -0.4226 C   0  0  0  0  0  0  0  0  0  0  0  0
    1.4462   -4.5180   -0.5150 C   0  0  0  0  0  0  0  0  0  0  0  0
    0.0730    2.4753    0.7795 H   0  0  0  0  0  0  0  0  0  0  0  0
    1.7127    1.6778   -1.8219 H   0  0  0  0  0  0  0  0  0  0  0  0
    2.4279    1.2288    2.4098 H   0  0  0  0  0  0  0  0  0  0  0  0
    1.0320   -1.0154    0.1116 H   0  0  0  0  0  0  0  0  0  0  0  0
   -2.0574    0.9199   -1.1744 H   0  0  0  0  0  0  0  0  0  0  0  0
    4.1103    1.6299   -2.2429 H   0  0  0  0  0  0  0  0  0  0  0  0
    4.8288    1.1790    2.0094 H   0  0  0  0  0  0  0  0  0  0  0  0
   -3.9075    1.4150   -2.5210 H   0  0  0  0  0  0  0  0  0  0  0  0
   -4.3265    1.0327    1.7793 H   0  0  0  0  0  0  0  0  0  0  0  0
   -6.3294    1.8857   -2.6695 H   0  0  0  0  0  0  0  0  0  0  0  0
   -6.6784    1.4951    1.5948 H   0  0  0  0  0  0  0  0  0  0  0  0
   -1.7741   -4.7461    0.0740 H   0  0  0  0  0  0  0  0  0  0  0  0
   -7.7184    1.9267   -0.6144 H   0  0  0  0  0  0  0  0  0  0  0  0
    0.3050   -6.3918   -0.5796 H   0  0  0  0  0  0  0  0  0  0  0  0
    2.4858   -4.7018   -0.7444 H   0  0  0  0  0  0  0  0  0  0  0  0
  1 20  1  0  0  0  0
  1 28  1  0  0  0  0
  2 12  2  0  0  0  0
  3 19  2  0  0  0  0
  4  8  1  0  0  0  0
  5  8  2  0  0  0  0
  6 10  1  0  0  0  0
  6 19  1  0  0  0  0
  6 32  1  0  0  0  0
  7 12  1  0  0  0  0
  7 15  1  0  0  0  0
  7 33  1  0  0  0  0
  8 16  1  0  0  0  0
  9 11  1  0  0  0  0
  9 13  2  0  0  0  0
  9 14  1  0  0  0  0
 10 11  2  0  0  0  0
 10 12  1  0  0  0  0
 11 29  1  0  0  0  0
 13 17  1  0  0  0  0
 13 30  1  0  0  0  0
 14 18  2  0  0  0  0
 14 31  1  0  0  0  0
 15 21  2  0  0  0  0
 15 22  1  0  0  0  0
 16 17  2  0  0  0  0
 16 18  1  0  0  0  0
 17 34  1  0  0  0  0
 18 35  1  0  0  0  0
 19 20  1  0  0  0  0
 20 25  2  0  0  0  0
 21 23  1  0  0  0  0
 21 36  1  0  0  0  0
 22 24  2  0  0  0  0
 22 37  1  0  0  0  0
 23 26  2  0  0  0  0
 23 38  1  0  0  0  0
 24 26  1  0  0  0  0
 24 39  1  0  0  0  0
 25 27  1  0  0  0  0
 25 40  1  0  0  0  0
 26 41  1  0  0  0  0
 27 28  2  0  0  0  0
 27 42  1  0  0  0  0
 28 43  1  0  0  0  0
M  CHG  2   4  -1   8   1
M  END
> <PUBCHEM_COMPOUND_CID>
1897502

> <PUBCHEM_CONFORMER_RMSD>
1

> <PUBCHEM_CONFORMER_DIVERSEORDER>
1
8
5
7
6
11
9
12
10
4
2
3

> <PUBCHEM_MMFF94_PARTIAL_CHARGES>
43
1 -0.28
10 0.12
11 -0.18
12 0.62
13 -0.15
14 -0.15
15 0.12
16 0.13
17 -0.15
18 -0.15
19 0.71
2 -0.57
20 0.05
21 -0.15
22 -0.15
23 -0.15
24 -0.15
25 -0.15
26 -0.15
27 -0.15
28 -0.01
29 0.15
3 -0.57
30 0.15
31 0.15
32 0.37
33 0.37
34 0.15
35 0.15
36 0.15
37 0.15
38 0.15
39 0.15
4 -0.52
40 0.15
41 0.15
42 0.15
43 0.15
5 -0.52
6 -0.54
7 -0.55
8 0.91
9 0.03

> <PUBCHEM_EFFECTIVE_ROTOR_COUNT>
8

> <PUBCHEM_PHARMACOPHORE_FEATURES>
11
1 1 acceptor
1 2 acceptor
1 3 acceptor
1 4 acceptor
1 4 anion
1 5 acceptor
1 6 donor
1 7 donor
5 1 20 25 27 28 rings
6 15 21 22 23 24 26 rings
6 9 13 14 16 17 18 rings

> <PUBCHEM_HEAVY_ATOM_COUNT>
28

> <PUBCHEM_ATOM_DEF_STEREO_COUNT>
0

> <PUBCHEM_ATOM_UDEF_STEREO_COUNT>
0

> <PUBCHEM_BOND_DEF_STEREO_COUNT>
1

> <PUBCHEM_BOND_UDEF_STEREO_COUNT>
0

> <PUBCHEM_ISOTOPIC_ATOM_COUNT>
0

> <PUBCHEM_COMPONENT_COUNT>
1

> <PUBCHEM_CACTVS_TAUTO_COUNT>
4

> <PUBCHEM_CONFORMER_ID>
001CF41E00000001

> <PUBCHEM_MMFF94_ENERGY>
86.2344

> <PUBCHEM_FEATURE_SELFOVERLAP>
55.906

> <PUBCHEM_SHAPE_FINGERPRINT>
102385 1 17762617283120811296
10369192 42 18187085053294804661
105312 117 18334012817419591069
10940486 97 18118691156591737556
11135926 11 18412545380316529969
11297750 10 17481424202277057722
11488393 25 18045774585883477659
11796584 16 18341055220510020684
11991303 11 18260833755754826542
12597179 24 18334016082011707915
12643181 29 18412550925551650486
12788726 201 17686337976864531042
133893 2 18124326999528240139
13911987 19 18410296921544743965
13968360 50 18409442553722500111
15439362 3 18192991513810690165
15927050 60 18342738524576612575
16752209 62 18195234744594901402
167882 2 18265614286494375059
17913733 40 18340783580528338355
1813 80 17482831165645863567
18915476 22 18337681806781771859
20505436 4 17895191147533197280
20554085 129 18130489878086979048
20771845 165 18115590335610168100
21344244 246 18339917130753165599
23598288 3 17826806020530680498
249057 3 18335142021080086972
25223398 141 18191025805873251929
3103668 31 18049995895140107487
340366 18 18188778373947167060
3552219 110 11167663256383391410
38695281 34 18409446977174909058
4015057 19 16629964463891695944
4017518 198 18413675704119166622
44802255 64 18189067524235436524
4516262 110 18340768123242720129
46194498 28 17973148549325296005
504843 32 18188490284625653939
5265222 85 18265902547371830828
5385378 56 18339932502514639825
563151 40 18342735265265796439
563151 97 18270690748807575657
59755656 520 18341610442852036141
6669772 16 18341333309866021303
6898599 12 18120099643850688908

> <PUBCHEM_SHAPE_MULTIPOLES>
531.94
14.29
5.49
1.37
1.49
13.73
-0.1
-18.04
-3.86
-2.59
-1.1
0.35
-0.84
0.49

> <PUBCHEM_SHAPE_SELFOVERLAP>
1162.788

> <PUBCHEM_SHAPE_VOLUME>
287.2

> <PUBCHEM_COORDINATE_TYPE>
2
5
10

$$$$
