5754255
  -OEChem-01171811473D

 34 37  0     0  0  0  0  0  0999 V2000
    2.5240    1.0969   -1.5415 S   0  0  0  0  0  0  0  0  0  0  0  0
   -2.3207   -3.4388   -0.1654 O   0  0  0  0  0  0  0  0  0  0  0  0
   -0.5501   -1.3113   -0.9391 N   0  0  0  0  0  0  0  0  0  0  0  0
   -3.8258   -1.7824    0.4843 N   0  0  0  0  0  0  0  0  0  0  0  0
    0.2990   -0.3380   -1.3430 N   0  0  0  0  0  0  0  0  0  0  0  0
    2.1063   -0.8614    0.0842 N   0  0  0  0  0  0  0  0  0  0  0  0
   -2.4609   -0.0081   -0.1128 C   0  0  0  0  0  0  0  0  0  0  0  0
   -1.7758   -1.1123   -0.4075 C   0  0  0  0  0  0  0  0  0  0  0  0
   -3.7268   -0.4951    0.4380 C   0  0  0  0  0  0  0  0  0  0  0  0
   -2.1893    1.3911   -0.2341 C   0  0  0  0  0  0  0  0  0  0  0  0
   -3.1212    2.2768    0.1677 C   0  0  0  0  0  0  0  0  0  0  0  0
   -4.7126    0.5177    0.8625 C   0  0  0  0  0  0  0  0  0  0  0  0
   -2.6399   -2.2673   -0.0291 C   0  0  0  0  0  0  0  0  0  0  0  0
   -4.3940    1.8151    0.7205 C   0  0  0  0  0  0  0  0  0  0  0  0
    1.6010   -0.1398   -0.8552 C   0  0  0  0  0  0  0  0  0  0  0  0
    3.8062    0.6647   -0.4727 C   0  0  0  0  0  0  0  0  0  0  0  0
    3.3953   -0.4083    0.3239 C   0  0  0  0  0  0  0  0  0  0  0  0
   -2.9213    3.7586    0.0778 C   0  0  0  0  0  0  0  0  0  0  0  0
    5.0837    1.2343   -0.3481 C   0  0  0  0  0  0  0  0  0  0  0  0
    4.2968   -0.9279    1.2781 C   0  0  0  0  0  0  0  0  0  0  0  0
    5.9563    0.7012    0.6039 C   0  0  0  0  0  0  0  0  0  0  0  0
    5.5700   -0.3658    1.4075 C   0  0  0  0  0  0  0  0  0  0  0  0
   -1.2441    1.7264   -0.6426 H   0  0  0  0  0  0  0  0  0  0  0  0
   -5.6599    0.1939    1.2740 H   0  0  0  0  0  0  0  0  0  0  0  0
   -0.2551   -2.2710   -1.0864 H   0  0  0  0  0  0  0  0  0  0  0  0
   -5.1093    2.5724    1.0285 H   0  0  0  0  0  0  0  0  0  0  0  0
   -0.0290    0.2452   -2.1085 H   0  0  0  0  0  0  0  0  0  0  0  0
   -1.9440    4.0139   -0.3460 H   0  0  0  0  0  0  0  0  0  0  0  0
   -2.9805    4.2162    1.0713 H   0  0  0  0  0  0  0  0  0  0  0  0
   -3.6872    4.2126   -0.5601 H   0  0  0  0  0  0  0  0  0  0  0  0
    5.3921    2.0675   -0.9721 H   0  0  0  0  0  0  0  0  0  0  0  0
    4.0054   -1.7613    1.9112 H   0  0  0  0  0  0  0  0  0  0  0  0
    6.9497    1.1274    0.7166 H   0  0  0  0  0  0  0  0  0  0  0  0
    6.2622   -0.7671    2.1426 H   0  0  0  0  0  0  0  0  0  0  0  0
  1 15  1  0  0  0  0
  1 16  1  0  0  0  0
  2 13  2  0  0  0  0
  3  5  1  0  0  0  0
  3  8  1  0  0  0  0
  3 25  1  0  0  0  0
  4  9  2  0  0  0  0
  4 13  1  0  0  0  0
  5 15  1  0  0  0  0
  5 27  1  0  0  0  0
  6 15  2  0  0  0  0
  6 17  1  0  0  0  0
  7  8  2  0  0  0  0
  7  9  1  0  0  0  0
  7 10  1  0  0  0  0
  8 13  1  0  0  0  0
  9 12  1  0  0  0  0
 10 11  2  0  0  0  0
 10 23  1  0  0  0  0
 11 14  1  0  0  0  0
 11 18  1  0  0  0  0
 12 14  2  0  0  0  0
 12 24  1  0  0  0  0
 14 26  1  0  0  0  0
 16 17  1  0  0  0  0
 16 19  2  0  0  0  0
 17 20  2  0  0  0  0
 18 28  1  0  0  0  0
 18 29  1  0  0  0  0
 18 30  1  0  0  0  0
 19 21  1  0  0  0  0
 19 31  1  0  0  0  0
 20 22  1  0  0  0  0
 20 32  1  0  0  0  0
 21 22  2  0  0  0  0
 21 33  1  0  0  0  0
 22 34  1  0  0  0  0
M  END
> <PUBCHEM_COMPOUND_CID>
5754255

> <PUBCHEM_CONFORMER_RMSD>
0.6

> <PUBCHEM_CONFORMER_DIVERSEORDER>
1
61
41
56
3
54
53
46
22
63
33
44
43
15
62
24
31
55
13
52
23
27
57
25
45
29
9
59
51
47
11
20
60
16
58
32
48
39
42
18
17
8
50
19
28
40
7
36
12
26
34
49
38
4
2
30
35
21
37
6
5
14
10

> <PUBCHEM_MMFF94_PARTIAL_CHARGES>
31
1 -0.08
10 -0.15
11 -0.14
12 -0.14
13 0.77
14 -0.15
15 0.46
16 0.04
17 0.23
18 0.14
19 -0.15
2 -0.57
20 -0.15
21 -0.15
22 -0.15
23 0.15
24 0.15
25 0.4
26 0.15
27 0.4
3 -0.5
31 0.15
32 0.15
33 0.15
34 0.15
4 -0.66
5 -0.48
6 -0.57
7 0.01
8 0.11
9 0.42

> <PUBCHEM_EFFECTIVE_ROTOR_COUNT>
3

> <PUBCHEM_PHARMACOPHORE_FEATURES>
10
1 2 acceptor
1 3 donor
1 4 acceptor
1 4 donor
1 5 donor
3 5 6 15 cation
5 1 6 15 16 17 rings
5 4 7 8 9 13 rings
6 16 17 19 20 21 22 rings
6 7 9 10 11 12 14 rings

> <PUBCHEM_HEAVY_ATOM_COUNT>
22

> <PUBCHEM_ATOM_DEF_STEREO_COUNT>
0

> <PUBCHEM_ATOM_UDEF_STEREO_COUNT>
0

> <PUBCHEM_BOND_DEF_STEREO_COUNT>
0

> <PUBCHEM_BOND_UDEF_STEREO_COUNT>
0

> <PUBCHEM_ISOTOPIC_ATOM_COUNT>
0

> <PUBCHEM_COMPONENT_COUNT>
1

> <PUBCHEM_CACTVS_TAUTO_COUNT>
9

> <PUBCHEM_CONFORMER_ID>
0057CD8F00000001

> <PUBCHEM_MMFF94_ENERGY>
48.5268

> <PUBCHEM_FEATURE_SELFOVERLAP>
52.596

> <PUBCHEM_SHAPE_FINGERPRINT>
10319926 262 18341896260499865646
11049842 53 18120121449151659942
11552529 35 18263915695732926718
11796584 16 11386903590493095488
12107183 9 17902784172712725090
12236239 1 18040152941601790570
12467345 10 18260828163986696544
12596602 18 17603870017666601433
12633257 1 18411423916298676645
12670546 177 10303814293789654752
12969540 114 16128650838879288140
13167823 11 18259983786549098434
13583140 156 17846768633718111922
13914758 101 17168134621290131613
13965767 371 17466237331426923573
14178342 30 18407762538341465182
14341114 176 18334017185701900730
14341114 328 18261114088707696536
14420673 8 18119532025225943210
14739800 52 18122911090925341540
14844126 61 18263927812089182219
15183329 4 12463578379093141680
15880784 105 15430611648358716985
16992727 255 18337652176240331919
16994733 274 16629680606010249161
17780758 139 18260540143485159762
17844677 252 18411423929911052538
1813 80 16588312640107415334
20511986 3 17968364698054014976
20739085 24 17675928673352306988
21033648 29 17418084434662944946
21065198 48 18260829323786011134
21401589 2 18058738988012071241
21859007 373 17316191433554895477
23522609 53 17750253443556572876
23557571 272 18059589004456469564
23559900 14 18128838364419838150
3117164 225 18119521042962230458
341906 21 18273217491168283540
3633792 109 17823116996365168783
3737641 26 17096918063406095458
474144 1 17896342348497100556
5104073 3 18334287700206993720
5924683 9 18340762749489098359
7064713 232 18338805498406043717
7097593 13 18187925036822316678
9849439 229 17910401589123160385
9981440 41 18264493884751937073
9995097 60 18130510730543837702

> <PUBCHEM_SHAPE_MULTIPOLES>
430.81
13.03
2.94
1.17
12.43
0.48
-0.07
3.12
5.06
-4.84
-0.01
1.05
0.03
-1.09

> <PUBCHEM_SHAPE_SELFOVERLAP>
952.177

> <PUBCHEM_SHAPE_VOLUME>
233.3

> <PUBCHEM_COORDINATE_TYPE>
2
5
10

$$$$
