1898247
  -OEChem-01171812093D

 61 65  0     0  0  0  0  0  0999 V2000
   -1.5502    2.7000   -0.0167 F   0  0  0  0  0  0  0  0  0  0  0  0
   -7.6170    0.3000   -2.1361 O   0  0  0  0  0  0  0  0  0  0  0  0
   -7.6340   -0.4785    1.2598 O   0  0  0  0  0  0  0  0  0  0  0  0
    3.2915    1.4691    0.5202 O   0  0  0  0  0  0  0  0  0  0  0  0
    5.3483   -2.0086    1.0833 O   0  0  0  0  0  0  0  0  0  0  0  0
    6.5850    2.4562   -0.9891 O   0  0  0  0  0  0  0  0  0  0  0  0
   -2.9110    0.3134   -0.3619 N   0  0  0  0  0  0  0  0  0  0  0  0
   -5.7857    0.2524   -0.7255 N   0  0  0  0  0  0  0  0  0  0  0  0
    1.3443   -2.0788    0.0164 N   0  0  0  0  0  0  0  0  0  0  0  0
    5.5581    0.1061    0.0685 N   0  0  0  0  0  0  0  0  0  0  0  0
    7.7327   -0.6234    0.6135 N   0  0  0  0  0  0  0  0  0  0  0  0
   -3.7651    1.3430    0.2359 C   0  0  0  0  0  0  0  0  0  0  0  0
   -3.5494   -0.7339   -1.1638 C   0  0  0  0  0  0  0  0  0  0  0  0
   -5.1711    0.7981    0.4900 C   0  0  0  0  0  0  0  0  0  0  0  0
   -4.8662   -0.2327   -1.7524 C   0  0  0  0  0  0  0  0  0  0  0  0
   -1.5301    0.3338   -0.1821 C   0  0  0  0  0  0  0  0  0  0  0  0
   -0.8142   -0.8677   -0.1753 C   0  0  0  0  0  0  0  0  0  0  0  0
    0.5808   -0.8880    0.0027 C   0  0  0  0  0  0  0  0  0  0  0  0
   -0.8694    1.5453   -0.0113 C   0  0  0  0  0  0  0  0  0  0  0  0
    1.2276    0.3577    0.1746 C   0  0  0  0  0  0  0  0  0  0  0  0
   -7.1693    0.2422   -0.9888 C   0  0  0  0  0  0  0  0  0  0  0  0
    0.5102    1.5618    0.1676 C   0  0  0  0  0  0  0  0  0  0  0  0
    2.7012    0.4069    0.3679 C   0  0  0  0  0  0  0  0  0  0  0  0
    0.6597   -3.3567   -0.1633 C   0  0  0  0  0  0  0  0  0  0  0  0
    2.7134   -2.0051    0.1991 C   0  0  0  0  0  0  0  0  0  0  0  0
    3.4270   -0.8866    0.3706 C   0  0  0  0  0  0  0  0  0  0  0  0
   -8.0741    0.1699    0.1562 C   0  0  0  0  0  0  0  0  0  0  0  0
    0.5970   -3.7131   -1.6362 C   0  0  0  0  0  0  0  0  0  0  0  0
    4.8742   -1.0034    0.5512 C   0  0  0  0  0  0  0  0  0  0  0  0
   -9.3405    0.6552    0.3358 C   0  0  0  0  0  0  0  0  0  0  0  0
   -9.7139    0.2796    1.6484 C   0  0  0  0  0  0  0  0  0  0  0  0
   -8.6420   -0.4075    2.1685 C   0  0  0  0  0  0  0  0  0  0  0  0
    6.9557    0.3351    0.0776 C   0  0  0  0  0  0  0  0  0  0  0  0
    7.4141    1.5189   -0.4605 C   0  0  0  0  0  0  0  0  0  0  0  0
    8.7872    1.7378   -0.4479 C   0  0  0  0  0  0  0  0  0  0  0  0
    9.0617   -0.3757    0.6082 C   0  0  0  0  0  0  0  0  0  0  0  0
    9.6336    0.7773    0.0950 C   0  0  0  0  0  0  0  0  0  0  0  0
   -3.3629    1.6816    1.1984 H   0  0  0  0  0  0  0  0  0  0  0  0
   -3.8263    2.2046   -0.4399 H   0  0  0  0  0  0  0  0  0  0  0  0
   -3.7357   -1.6118   -0.5330 H   0  0  0  0  0  0  0  0  0  0  0  0
   -2.9042   -1.0399   -1.9965 H   0  0  0  0  0  0  0  0  0  0  0  0
   -5.8156    1.5808    0.9040 H   0  0  0  0  0  0  0  0  0  0  0  0
   -5.1191   -0.0205    1.2178 H   0  0  0  0  0  0  0  0  0  0  0  0
   -5.3556   -1.0251   -2.3299 H   0  0  0  0  0  0  0  0  0  0  0  0
   -4.6840    0.6052   -2.4370 H   0  0  0  0  0  0  0  0  0  0  0  0
   -1.3630   -1.7933   -0.3099 H   0  0  0  0  0  0  0  0  0  0  0  0
    1.0089    2.5179    0.2997 H   0  0  0  0  0  0  0  0  0  0  0  0
    1.2299   -4.1455    0.3469 H   0  0  0  0  0  0  0  0  0  0  0  0
   -0.3249   -3.4007    0.3125 H   0  0  0  0  0  0  0  0  0  0  0  0
    3.1861   -2.9823    0.1816 H   0  0  0  0  0  0  0  0  0  0  0  0
    0.1230   -4.6907   -1.7689 H   0  0  0  0  0  0  0  0  0  0  0  0
    1.5984   -3.7616   -2.0772 H   0  0  0  0  0  0  0  0  0  0  0  0
    0.0181   -2.9780   -2.2044 H   0  0  0  0  0  0  0  0  0  0  0  0
   -9.9293    1.2106   -0.3803 H   0  0  0  0  0  0  0  0  0  0  0  0
  -10.6472    0.4845    2.1524 H   0  0  0  0  0  0  0  0  0  0  0  0
   -8.4487   -0.8835    3.1187 H   0  0  0  0  0  0  0  0  0  0  0  0
    5.0005    0.8205   -0.3866 H   0  0  0  0  0  0  0  0  0  0  0  0
    9.2035    2.6534   -0.8585 H   0  0  0  0  0  0  0  0  0  0  0  0
    9.6783   -1.1555    1.0429 H   0  0  0  0  0  0  0  0  0  0  0  0
   10.7071    0.9265    0.1157 H   0  0  0  0  0  0  0  0  0  0  0  0
    5.7171    2.4065   -0.5588 H   0  0  0  0  0  0  0  0  0  0  0  0
  1 19  1  0  0  0  0
  2 21  2  0  0  0  0
  3 27  1  0  0  0  0
  3 32  1  0  0  0  0
  4 23  2  0  0  0  0
  5 29  2  0  0  0  0
  6 34  1  0  0  0  0
  6 61  1  0  0  0  0
  7 12  1  0  0  0  0
  7 13  1  0  0  0  0
  7 16  1  0  0  0  0
  8 14  1  0  0  0  0
  8 15  1  0  0  0  0
  8 21  1  0  0  0  0
  9 18  1  0  0  0  0
  9 24  1  0  0  0  0
  9 25  1  0  0  0  0
 10 29  1  0  0  0  0
 10 33  1  0  0  0  0
 10 57  1  0  0  0  0
 11 33  1  0  0  0  0
 11 36  2  0  0  0  0
 12 14  1  0  0  0  0
 12 38  1  0  0  0  0
 12 39  1  0  0  0  0
 13 15  1  0  0  0  0
 13 40  1  0  0  0  0
 13 41  1  0  0  0  0
 14 42  1  0  0  0  0
 14 43  1  0  0  0  0
 15 44  1  0  0  0  0
 15 45  1  0  0  0  0
 16 17  1  0  0  0  0
 16 19  2  0  0  0  0
 17 18  2  0  0  0  0
 17 46  1  0  0  0  0
 18 20  1  0  0  0  0
 19 22  1  0  0  0  0
 20 22  2  0  0  0  0
 20 23  1  0  0  0  0
 21 27  1  0  0  0  0
 22 47  1  0  0  0  0
 23 26  1  0  0  0  0
 24 28  1  0  0  0  0
 24 48  1  0  0  0  0
 24 49  1  0  0  0  0
 25 26  2  0  0  0  0
 25 50  1  0  0  0  0
 26 29  1  0  0  0  0
 27 30  2  0  0  0  0
 28 51  1  0  0  0  0
 28 52  1  0  0  0  0
 28 53  1  0  0  0  0
 30 31  1  0  0  0  0
 30 54  1  0  0  0  0
 31 32  2  0  0  0  0
 31 55  1  0  0  0  0
 32 56  1  0  0  0  0
 33 34  2  0  0  0  0
 34 35  1  0  0  0  0
 35 37  2  0  0  0  0
 35 58  1  0  0  0  0
 36 37  1  0  0  0  0
 36 59  1  0  0  0  0
 37 60  1  0  0  0  0
M  END
> <PUBCHEM_COMPOUND_CID>
1898247

> <PUBCHEM_CONFORMER_RMSD>
1

> <PUBCHEM_CONFORMER_DIVERSEORDER>
2
48
52
37
26
67
21
30
17
29
57
75
73
47
60
72
9
71
42
62
39
36
58
65
14
34
56
74
69
78
22
25
54
6
76
19
51
66
23
68
8
53
55
32
16
35
64
28
18
46
44
50
24
40
70
12
20
5
43
11
4
41
33
45
59
13
27
31
77
38
63
3
15
49
61
1
10
7

> <PUBCHEM_MMFF94_PARTIAL_CHARGES>
47
1 -0.19
10 -0.55
11 -0.62
12 0.37
13 0.37
14 0.3
15 0.3
16 0.1
17 -0.15
18 0.1
19 0.19
2 -0.57
20 0.09
21 0.71
22 -0.15
23 0.47
24 0.37
25 -0.05
26 0.03
27 0.05
29 0.62
3 -0.28
30 -0.15
31 -0.15
32 -0.01
33 0.43
34 0.08
35 -0.15
36 0.16
37 -0.15
4 -0.57
46 0.15
47 0.15
5 -0.57
50 0.15
54 0.15
55 0.15
56 0.15
57 0.37
58 0.15
59 0.15
6 -0.53
60 0.15
61 0.45
7 -0.84
8 -0.66
9 -0.57

> <PUBCHEM_EFFECTIVE_ROTOR_COUNT>
8.2

> <PUBCHEM_PHARMACOPHORE_FEATURES>
15
1 10 donor
1 11 acceptor
1 2 acceptor
1 26 anion
1 3 acceptor
1 4 acceptor
1 5 acceptor
1 6 donor
1 7 cation
1 9 cation
5 3 27 30 31 32 rings
6 11 33 34 35 36 37 rings
6 16 17 18 19 20 22 rings
6 7 8 12 13 14 15 rings
6 9 18 20 23 25 26 rings

> <PUBCHEM_HEAVY_ATOM_COUNT>
37

> <PUBCHEM_ATOM_DEF_STEREO_COUNT>
0

> <PUBCHEM_ATOM_UDEF_STEREO_COUNT>
0

> <PUBCHEM_BOND_DEF_STEREO_COUNT>
0

> <PUBCHEM_BOND_UDEF_STEREO_COUNT>
0

> <PUBCHEM_ISOTOPIC_ATOM_COUNT>
0

> <PUBCHEM_COMPONENT_COUNT>
1

> <PUBCHEM_CACTVS_TAUTO_COUNT>
6

> <PUBCHEM_CONFORMER_ID>
001CF70700000002

> <PUBCHEM_MMFF94_ENERGY>
116.7094

> <PUBCHEM_FEATURE_SELFOVERLAP>
76.155

> <PUBCHEM_SHAPE_FINGERPRINT>
10 15 18040434395167091963
10050765 1 18050846615610456356
10162869 55 11241971490287840336
10165383 225 18342457050158148362
10299344 5 18273211997546376884
106641 1 17385444327616158650
10674148 151 16200428078795250166
11115154 58 16343707642655680802
11135926 11 18341604920009442527
11409948 35 14548472271377959676
12013929 94 18341051917791381739
12089408 11 17846493738140337726
12144603 126 18273216383425560417
12522641 33 17489590061000323238
13383668 1 11025781108295377216
13627175 23 18272093811474586081
14040221 8 15051743010324215512
1454969 45 18412257329069389652
14937079 2 18410855508096625368
15064986 266 18189055313569937285
15065858 18 16515678932014494184
15131766 46 15721387463666098878
15297060 5 18059853986675075375
15347591 1 17971748874384433793
15510794 2 17095522876837471971
15773216 30 15769228145975972470
15840311 113 17967536788153825284
16728433 110 18040436607792862541
16992610 120 18130795581623046262
17686467 74 17022900160215566053
18335252 98 17894914018329984896
19841028 212 16805876282986992522
21781055 127 17274831237501263250
22149856 69 18059577919013984114
3178227 256 18410856564114254651
335352 9 18342167895041376052
335507 130 18413670205917345220
3552219 110 18272093781505527505
4112364 45 17313674853512869206
5028188 123 16773508962556545429
5758199 1 18131068229766937731
59521120 56 17845647179050083038
6081469 158 11383833766580794882
6691757 9 16702304577664743791
67123 10 17749390368828544561
9663363 56 16298103195477456141

> <PUBCHEM_SHAPE_MULTIPOLES>
699.92
33.17
2.5
1.3
7.85
1.94
-0.08
-11.61
6.94
-3.25
-0.65
3.07
0.28
-1.14

> <PUBCHEM_SHAPE_SELFOVERLAP>
1539.598

> <PUBCHEM_SHAPE_VOLUME>
375.8

> <PUBCHEM_COORDINATE_TYPE>
2
5
10

$$$$
