2879069
  -OEChem-01171811433D

 35 36  0     0  0  0  0  0  0999 V2000
   -0.1355   -1.9981    1.2989 O   0  0  0  0  0  0  0  0  0  0  0  0
   -0.9431    2.2292   -0.6846 O   0  0  0  0  0  0  0  0  0  0  0  0
   -4.0932   -0.6874    0.0325 O   0  0  0  0  0  0  0  0  0  0  0  0
    1.6635    2.6595   -0.9438 O   0  0  0  0  0  0  0  0  0  0  0  0
   -1.9343   -0.0256    0.6073 N   0  0  0  0  0  0  0  0  0  0  0  0
   -0.6020    0.0998    0.3334 C   0  0  0  0  0  0  0  0  0  0  0  0
    1.7327   -0.7216    0.3302 C   0  0  0  0  0  0  0  0  0  0  0  0
    0.2912   -0.8516    0.6470 C   0  0  0  0  0  0  0  0  0  0  0  0
   -2.3735    0.4756    1.9149 C   0  0  0  0  0  0  0  0  0  0  0  0
    2.2275    0.4703   -0.2254 C   0  0  0  0  0  0  0  0  0  0  0  0
   -0.1711    1.3555   -0.3180 C   0  0  0  0  0  0  0  0  0  0  0  0
   -2.8935   -0.5906   -0.2500 C   0  0  0  0  0  0  0  0  0  0  0  0
    1.2979    1.5725   -0.5248 C   0  0  0  0  0  0  0  0  0  0  0  0
   -2.4327   -1.0946   -1.6091 C   0  0  0  0  0  0  0  0  0  0  0  0
    2.6517   -1.7630    0.5451 C   0  0  0  0  0  0  0  0  0  0  0  0
   -2.7724    1.9349    1.8078 C   0  0  0  0  0  0  0  0  0  0  0  0
    3.5868    0.6333   -0.5239 C   0  0  0  0  0  0  0  0  0  0  0  0
    4.0093   -1.6063    0.2458 C   0  0  0  0  0  0  0  0  0  0  0  0
    4.4769   -0.4082   -0.2827 C   0  0  0  0  0  0  0  0  0  0  0  0
   -3.5861   -1.6838   -2.4008 C   0  0  0  0  0  0  0  0  0  0  0  0
   -3.2337   -0.1124    2.2541 H   0  0  0  0  0  0  0  0  0  0  0  0
   -1.5781    0.3453    2.6585 H   0  0  0  0  0  0  0  0  0  0  0  0
   -1.6646   -1.8609   -1.4631 H   0  0  0  0  0  0  0  0  0  0  0  0
   -1.9939   -0.2609   -2.1669 H   0  0  0  0  0  0  0  0  0  0  0  0
    2.3542   -2.7188    0.9662 H   0  0  0  0  0  0  0  0  0  0  0  0
   -1.9042    2.5796    1.6458 H   0  0  0  0  0  0  0  0  0  0  0  0
   -3.4838    2.1034    0.9928 H   0  0  0  0  0  0  0  0  0  0  0  0
   -3.2438    2.2608    2.7409 H   0  0  0  0  0  0  0  0  0  0  0  0
    3.9644    1.5586   -0.9503 H   0  0  0  0  0  0  0  0  0  0  0  0
    4.7009   -2.4236    0.4303 H   0  0  0  0  0  0  0  0  0  0  0  0
    5.5312   -0.2889   -0.5134 H   0  0  0  0  0  0  0  0  0  0  0  0
   -4.3669   -0.9373   -2.5815 H   0  0  0  0  0  0  0  0  0  0  0  0
   -3.2323   -2.0435   -3.3721 H   0  0  0  0  0  0  0  0  0  0  0  0
   -4.0404   -2.5289   -1.8727 H   0  0  0  0  0  0  0  0  0  0  0  0
    0.4472   -2.7395    1.0774 H   0  0  0  0  0  0  0  0  0  0  0  0
  1  8  1  0  0  0  0
  1 35  1  0  0  0  0
  2 11  2  0  0  0  0
  3 12  2  0  0  0  0
  4 13  2  0  0  0  0
  5  6  1  0  0  0  0
  5  9  1  0  0  0  0
  5 12  1  0  0  0  0
  6  8  2  0  0  0  0
  6 11  1  0  0  0  0
  7  8  1  0  0  0  0
  7 10  1  0  0  0  0
  7 15  2  0  0  0  0
  9 16  1  0  0  0  0
  9 21  1  0  0  0  0
  9 22  1  0  0  0  0
 10 13  1  0  0  0  0
 10 17  2  0  0  0  0
 11 13  1  0  0  0  0
 12 14  1  0  0  0  0
 14 20  1  0  0  0  0
 14 23  1  0  0  0  0
 14 24  1  0  0  0  0
 15 18  1  0  0  0  0
 15 25  1  0  0  0  0
 16 26  1  0  0  0  0
 16 27  1  0  0  0  0
 16 28  1  0  0  0  0
 17 19  1  0  0  0  0
 17 29  1  0  0  0  0
 18 19  2  0  0  0  0
 18 30  1  0  0  0  0
 19 31  1  0  0  0  0
 20 32  1  0  0  0  0
 20 33  1  0  0  0  0
 20 34  1  0  0  0  0
M  END
> <PUBCHEM_COMPOUND_CID>
2879069

> <PUBCHEM_CONFORMER_RMSD>
0.6

> <PUBCHEM_CONFORMER_DIVERSEORDER>
1
3
12
6
11
8
5
7
2
10
9
4

> <PUBCHEM_MMFF94_PARTIAL_CHARGES>
23
1 -0.53
10 0.09
11 0.56
12 0.57
13 0.48
14 0.06
15 -0.15
17 -0.15
18 -0.15
19 -0.15
2 -0.57
25 0.15
29 0.15
3 -0.57
30 0.15
31 0.15
35 0.45
4 -0.57
5 -0.47
6 0.12
7 0.03
8 0.05
9 0.3

> <PUBCHEM_EFFECTIVE_ROTOR_COUNT>
4

> <PUBCHEM_PHARMACOPHORE_FEATURES>
7
1 1 donor
1 2 acceptor
1 20 hydrophobe
1 3 acceptor
1 4 acceptor
6 6 7 8 10 11 13 rings
6 7 10 15 17 18 19 rings

> <PUBCHEM_HEAVY_ATOM_COUNT>
20

> <PUBCHEM_ATOM_DEF_STEREO_COUNT>
0

> <PUBCHEM_ATOM_UDEF_STEREO_COUNT>
0

> <PUBCHEM_BOND_DEF_STEREO_COUNT>
0

> <PUBCHEM_BOND_UDEF_STEREO_COUNT>
0

> <PUBCHEM_ISOTOPIC_ATOM_COUNT>
0

> <PUBCHEM_COMPONENT_COUNT>
1

> <PUBCHEM_CACTVS_TAUTO_COUNT>
3

> <PUBCHEM_CONFORMER_ID>
002BEE5D00000001

> <PUBCHEM_MMFF94_ENERGY>
69.342

> <PUBCHEM_FEATURE_SELFOVERLAP>
35.55

> <PUBCHEM_SHAPE_FINGERPRINT>
10062212 137 18343303647640294011
10967382 1 18187938321572615240
11578080 2 17985800770754166097
12236239 1 18272376386516669587
12500047 106 17202770276108364947
12553582 1 18260841384191308800
12633257 1 15841557413712262099
13009979 54 18059857319717033047
13140716 1 17971772213843498928
14289901 80 17203328922889892018
14617773 55 18272377502839226209
16945 1 18187092784119431032
17349148 13 18335689590106183802
17357779 13 17968087625312924260
18186145 218 17313372444517488175
18219364 16 17531253880306228011
19433438 48 18341328881970574890
200 152 18408879629380653062
20645477 70 17968095386466559732
21634736 98 18267857474909292190
21639500 275 18188207735769462420
22112679 90 18202013139454383489
2334 1 17540272251293099568
23402539 116 18335136445768931106
23419403 2 17625210447630060968
23493267 7 15213011644069435632
23557571 272 15841567257423558577
23559900 14 18115875269122222036
2748010 2 18042405716921762732
3286 77 17774709918719833986
34934 24 18044941164512118329
57100710 210 16917058979848494093
6992083 37 18199756859957978089
7471813 234 18130215064298848436
77492 1 18201164333757479049
90525 40 18202008698716454479
9981440 41 17477476977230315904

> <PUBCHEM_SHAPE_MULTIPOLES>
383.13
7.25
2.34
1.63
2.15
0.65
-0.08
-2.74
-0.82
-0.69
-0.46
-1.62
-0.15
-2.36

> <PUBCHEM_SHAPE_SELFOVERLAP>
821.287

> <PUBCHEM_SHAPE_VOLUME>
211.6

> <PUBCHEM_COORDINATE_TYPE>
2
5
10

$$$$
