648301
  -OEChem-01171811373D

 49 52  0     1  0  0  0  0  0999 V2000
    1.7876    1.5330   -0.0524 O   0  0  0  0  0  0  0  0  0  0  0  0
   -3.4800   -0.3638    1.4298 O   0  0  0  0  0  0  0  0  0  0  0  0
   -5.1733   -1.4515   -0.4678 O   0  0  0  0  0  0  0  0  0  0  0  0
    2.3735   -0.7389    0.3541 N   0  0  0  0  0  0  0  0  0  0  0  0
    1.8141   -1.8929    0.7722 N   0  0  0  0  0  0  0  0  0  0  0  0
    1.1259    3.7443   -0.3133 N   0  0  0  0  0  0  0  0  0  0  0  0
   -2.3884    3.9184    0.5338 N   0  0  0  0  0  0  0  0  0  0  0  0
   -0.9200    0.6729    0.7422 C   0  0  2  0  0  0  0  0  0  0  0  0
    0.2722   -0.2115    0.6856 C   0  0  0  0  0  0  0  0  0  0  0  0
    1.4878    0.2894    0.3009 C   0  0  0  0  0  0  0  0  0  0  0  0
   -1.8516    0.0805   -0.2642 C   0  0  0  0  0  0  0  0  0  0  0  0
   -0.5304    2.1173    0.3782 C   0  0  0  0  0  0  0  0  0  0  0  0
    0.5326   -1.5622    0.9803 C   0  0  0  0  0  0  0  0  0  0  0  0
    0.7372    2.4732    0.0143 C   0  0  0  0  0  0  0  0  0  0  0  0
   -3.0968   -0.4143    0.1221 C   0  0  0  0  0  0  0  0  0  0  0  0
   -1.4631    0.0268   -1.6023 C   0  0  0  0  0  0  0  0  0  0  0  0
   -0.4111   -2.5827    1.4680 C   0  0  0  0  0  0  0  0  0  0  0  0
    3.7301   -0.6869    0.0402 C   0  0  0  0  0  0  0  0  0  0  0  0
   -3.9544   -0.9638   -0.8312 C   0  0  0  0  0  0  0  0  0  0  0  0
   -2.3205   -0.5226   -2.5553 C   0  0  0  0  0  0  0  0  0  0  0  0
   -3.5662   -1.0179   -2.1698 C   0  0  0  0  0  0  0  0  0  0  0  0
   -1.5569    3.1124    0.4643 C   0  0  0  0  0  0  0  0  0  0  0  0
    4.1796    0.2167   -0.9152 C   0  0  0  0  0  0  0  0  0  0  0  0
    4.6185   -1.5365    0.6883 C   0  0  0  0  0  0  0  0  0  0  0  0
    5.5380    0.2713   -1.2274 C   0  0  0  0  0  0  0  0  0  0  0  0
    5.9769   -1.4817    0.3761 C   0  0  0  0  0  0  0  0  0  0  0  0
    6.4367   -0.5779   -0.5817 C   0  0  0  0  0  0  0  0  0  0  0  0
   -4.6606    0.3769    1.7297 C   0  0  0  0  0  0  0  0  0  0  0  0
   -5.2374   -2.8279   -0.0994 C   0  0  0  0  0  0  0  0  0  0  0  0
   -1.3186    0.6636    1.7635 H   0  0  0  0  0  0  0  0  0  0  0  0
   -0.5042    0.4086   -1.9417 H   0  0  0  0  0  0  0  0  0  0  0  0
   -0.9979   -2.9887    0.6378 H   0  0  0  0  0  0  0  0  0  0  0  0
    0.1103   -3.4152    1.9522 H   0  0  0  0  0  0  0  0  0  0  0  0
   -1.1029   -2.1571    2.2020 H   0  0  0  0  0  0  0  0  0  0  0  0
   -2.0193   -0.5634   -3.5980 H   0  0  0  0  0  0  0  0  0  0  0  0
   -4.2294   -1.4436   -2.9180 H   0  0  0  0  0  0  0  0  0  0  0  0
    0.4649    4.5101   -0.3044 H   0  0  0  0  0  0  0  0  0  0  0  0
    2.0913    3.9077   -0.5694 H   0  0  0  0  0  0  0  0  0  0  0  0
    3.5172    0.8613   -1.4831 H   0  0  0  0  0  0  0  0  0  0  0  0
    4.2923   -2.2434    1.4466 H   0  0  0  0  0  0  0  0  0  0  0  0
    5.8951    0.9665   -1.9817 H   0  0  0  0  0  0  0  0  0  0  0  0
    6.6774   -2.1414    0.8800 H   0  0  0  0  0  0  0  0  0  0  0  0
    7.4940   -0.5369   -0.8263 H   0  0  0  0  0  0  0  0  0  0  0  0
   -5.5189   -0.2971    1.7993 H   0  0  0  0  0  0  0  0  0  0  0  0
   -4.8533    1.1663    0.9947 H   0  0  0  0  0  0  0  0  0  0  0  0
   -4.5218    0.8490    2.7068 H   0  0  0  0  0  0  0  0  0  0  0  0
   -4.5845   -3.0297    0.7557 H   0  0  0  0  0  0  0  0  0  0  0  0
   -4.9565   -3.4636   -0.9450 H   0  0  0  0  0  0  0  0  0  0  0  0
   -6.2676   -3.0587    0.1851 H   0  0  0  0  0  0  0  0  0  0  0  0
  1 10  1  0  0  0  0
  1 14  1  0  0  0  0
  2 15  1  0  0  0  0
  2 28  1  0  0  0  0
  3 19  1  0  0  0  0
  3 29  1  0  0  0  0
  4  5  1  0  0  0  0
  4 10  1  0  0  0  0
  4 18  1  0  0  0  0
  5 13  2  0  0  0  0
  6 14  1  0  0  0  0
  6 37  1  0  0  0  0
  6 38  1  0  0  0  0
  7 22  3  0  0  0  0
  8  9  1  0  0  0  0
  8 11  1  0  0  0  0
  8 12  1  0  0  0  0
  8 30  1  0  0  0  0
  9 10  2  0  0  0  0
  9 13  1  0  0  0  0
 11 15  2  0  0  0  0
 11 16  1  0  0  0  0
 12 14  2  0  0  0  0
 12 22  1  0  0  0  0
 13 17  1  0  0  0  0
 15 19  1  0  0  0  0
 16 20  2  0  0  0  0
 16 31  1  0  0  0  0
 17 32  1  0  0  0  0
 17 33  1  0  0  0  0
 17 34  1  0  0  0  0
 18 23  2  0  0  0  0
 18 24  1  0  0  0  0
 19 21  2  0  0  0  0
 20 21  1  0  0  0  0
 20 35  1  0  0  0  0
 21 36  1  0  0  0  0
 23 25  1  0  0  0  0
 23 39  1  0  0  0  0
 24 26  2  0  0  0  0
 24 40  1  0  0  0  0
 25 27  2  0  0  0  0
 25 41  1  0  0  0  0
 26 27  1  0  0  0  0
 26 42  1  0  0  0  0
 27 43  1  0  0  0  0
 28 44  1  0  0  0  0
 28 45  1  0  0  0  0
 28 46  1  0  0  0  0
 29 47  1  0  0  0  0
 29 48  1  0  0  0  0
 29 49  1  0  0  0  0
M  END
> <PUBCHEM_COMPOUND_CID>
648301

> <PUBCHEM_CONFORMER_RMSD>
0.8

> <PUBCHEM_CONFORMER_DIVERSEORDER>
3
2
5
1
4
6

> <PUBCHEM_MMFF94_PARTIAL_CHARGES>
39
1 -0.14
10 -0.09
11 -0.14
12 -0.07
13 0.11
14 0.18
15 0.08
16 -0.15
17 0.18
18 -0.02
19 0.08
2 -0.36
20 -0.15
21 -0.15
22 0.49
23 -0.15
24 -0.15
25 -0.15
26 -0.15
27 -0.15
28 0.28
29 0.28
3 -0.36
31 0.15
35 0.15
36 0.15
37 0.4
38 0.4
39 0.15
4 0.59
40 0.15
41 0.15
42 0.15
43 0.15
5 -0.71
6 -0.9
7 -0.56
8 0.46
9 -0.18

> <PUBCHEM_EFFECTIVE_ROTOR_COUNT>
4.4

> <PUBCHEM_PHARMACOPHORE_FEATURES>
11
1 1 acceptor
1 2 acceptor
1 3 acceptor
1 5 acceptor
1 6 cation
1 6 donor
1 7 acceptor
5 4 5 9 10 13 rings
6 1 8 9 10 12 14 rings
6 11 15 16 19 20 21 rings
6 18 23 24 25 26 27 rings

> <PUBCHEM_HEAVY_ATOM_COUNT>
29

> <PUBCHEM_ATOM_DEF_STEREO_COUNT>
0

> <PUBCHEM_ATOM_UDEF_STEREO_COUNT>
1

> <PUBCHEM_BOND_DEF_STEREO_COUNT>
0

> <PUBCHEM_BOND_UDEF_STEREO_COUNT>
0

> <PUBCHEM_ISOTOPIC_ATOM_COUNT>
0

> <PUBCHEM_COMPONENT_COUNT>
1

> <PUBCHEM_CACTVS_TAUTO_COUNT>
2

> <PUBCHEM_CONFORMER_ID>
0009E46D00000003

> <PUBCHEM_MMFF94_ENERGY>
106.1691

> <PUBCHEM_FEATURE_SELFOVERLAP>
55.927

> <PUBCHEM_SHAPE_FINGERPRINT>
11445158 3 17243052087204296653
12166972 35 17821449062995038886
12236239 1 18060424641804340483
12422481 6 17489602129372692639
12553582 1 18411411813043634042
12788726 201 18339920428876235074
13009979 54 17488459848961878983
13140716 1 18190752027372610130
13149001 5 18190457358266979954
13583140 156 14189573009753217586
13782708 43 17531242902407158683
13911987 19 18186242840119751390
14787075 74 18186522124388860458
14790565 3 18263096443616744288
14856354 85 18340496637768771679
14955137 171 17988930015079122579
15131766 46 16157133704961786284
16087824 20 18195244422391439857
17349148 13 18261390010671754938
1813 80 18202288021550605236
19489759 90 13479135692037719662
200 152 18334009476103924038
20600515 1 14620245216537362139
20775438 99 17333900532693598727
21033650 10 18055381079764320700
21236236 1 18337395920588960832
22950370 63 18413110562909166118
23402539 116 18411980230912455138
23419403 2 16953129627261451313
23559900 14 18265327498495101699
23598288 3 18127119775941999079
25147074 1 18045490920510324122
2838139 119 15140952946721039062
34934 24 18120937200616242537
404807 14 14786530690777022952
5171179 24 18201426000472524768
6669772 16 17976258264324441556
70251023 43 18269817848554559013
7970288 3 18412541024492393182

> <PUBCHEM_SHAPE_MULTIPOLES>
559.27
11.91
3.34
1.62
11.39
3.32
-0.73
-7.45
-1.97
-2.1
0.82
-1.55
-0.51
-1.39

> <PUBCHEM_SHAPE_SELFOVERLAP>
1239.494

> <PUBCHEM_SHAPE_VOLUME>
298.6

> <PUBCHEM_COORDINATE_TYPE>
2
5
10

$$$$
