1372159
  -OEChem-01171811433D

 34 37  0     0  0  0  0  0  0999 V2000
   -6.4652   -3.2332    0.0215 Br  0  0  0  0  0  0  0  0  0  0  0  0
    3.3145   -3.4479   -0.0406 S   0  0  0  0  0  0  0  0  0  0  0  0
   -1.1433    1.0265   -0.0139 O   0  0  0  0  0  0  0  0  0  0  0  0
    1.7088    3.0737    0.0004 O   0  0  0  0  0  0  0  0  0  0  0  0
    1.5025    0.7524   -0.0332 N   0  0  0  0  0  0  0  0  0  0  0  0
    2.3653   -2.0852   -0.0471 N   0  0  0  0  0  0  0  0  0  0  0  0
    4.8305   -2.7714    0.0028 N   0  0  0  0  0  0  0  0  0  0  0  0
   -2.4525    1.3906   -0.0040 C   0  0  0  0  0  0  0  0  0  0  0  0
    2.8298    0.3300   -0.0084 C   0  0  0  0  0  0  0  0  0  0  0  0
   -0.4696    2.1804   -0.0176 C   0  0  0  0  0  0  0  0  0  0  0  0
   -3.3935    0.3064    0.0025 C   0  0  0  0  0  0  0  0  0  0  0  0
    3.2022   -1.0357   -0.0154 C   0  0  0  0  0  0  0  0  0  0  0  0
   -2.5729    2.7608   -0.0018 C   0  0  0  0  0  0  0  0  0  0  0  0
    0.9992    2.0705   -0.0281 C   0  0  0  0  0  0  0  0  0  0  0  0
   -1.2529    3.2713   -0.0108 C   0  0  0  0  0  0  0  0  0  0  0  0
    4.6555   -1.4402    0.0140 C   0  0  0  0  0  0  0  0  0  0  0  0
    3.8877    1.2543    0.0271 C   0  0  0  0  0  0  0  0  0  0  0  0
   -4.7675    0.5661    0.0135 C   0  0  0  0  0  0  0  0  0  0  0  0
   -2.9429   -1.0173   -0.0024 C   0  0  0  0  0  0  0  0  0  0  0  0
    5.6793   -0.4631    0.0492 C   0  0  0  0  0  0  0  0  0  0  0  0
    5.2504    0.8750    0.0547 C   0  0  0  0  0  0  0  0  0  0  0  0
   -5.6817   -0.4873    0.0195 C   0  0  0  0  0  0  0  0  0  0  0  0
   -3.8571   -2.0709    0.0035 C   0  0  0  0  0  0  0  0  0  0  0  0
   -5.2266   -1.8058    0.0147 C   0  0  0  0  0  0  0  0  0  0  0  0
    0.8147    0.0021   -0.0520 H   0  0  0  0  0  0  0  0  0  0  0  0
   -3.4884    3.3353    0.0055 H   0  0  0  0  0  0  0  0  0  0  0  0
   -0.9503    4.3084   -0.0119 H   0  0  0  0  0  0  0  0  0  0  0  0
    3.7304    2.3261    0.0358 H   0  0  0  0  0  0  0  0  0  0  0  0
   -5.1540    1.5822    0.0175 H   0  0  0  0  0  0  0  0  0  0  0  0
   -1.8842   -1.2651   -0.0111 H   0  0  0  0  0  0  0  0  0  0  0  0
    6.7315   -0.7221    0.0709 H   0  0  0  0  0  0  0  0  0  0  0  0
    6.0057    1.6596    0.0814 H   0  0  0  0  0  0  0  0  0  0  0  0
   -6.7454   -0.2640    0.0278 H   0  0  0  0  0  0  0  0  0  0  0  0
   -3.4863   -3.0926   -0.0007 H   0  0  0  0  0  0  0  0  0  0  0  0
  1 24  1  0  0  0  0
  2  6  1  0  0  0  0
  2  7  1  0  0  0  0
  3  8  1  0  0  0  0
  3 10  1  0  0  0  0
  4 14  2  0  0  0  0
  5  9  1  0  0  0  0
  5 14  1  0  0  0  0
  5 25  1  0  0  0  0
  6 12  2  0  0  0  0
  7 16  2  0  0  0  0
  8 11  1  0  0  0  0
  8 13  2  0  0  0  0
  9 12  1  0  0  0  0
  9 17  2  0  0  0  0
 10 14  1  0  0  0  0
 10 15  2  0  0  0  0
 11 18  2  0  0  0  0
 11 19  1  0  0  0  0
 12 16  1  0  0  0  0
 13 15  1  0  0  0  0
 13 26  1  0  0  0  0
 15 27  1  0  0  0  0
 16 20  1  0  0  0  0
 17 21  1  0  0  0  0
 17 28  1  0  0  0  0
 18 22  1  0  0  0  0
 18 29  1  0  0  0  0
 19 23  2  0  0  0  0
 19 30  1  0  0  0  0
 20 21  2  0  0  0  0
 20 31  1  0  0  0  0
 21 32  1  0  0  0  0
 22 24  2  0  0  0  0
 22 33  1  0  0  0  0
 23 24  1  0  0  0  0
 23 34  1  0  0  0  0
M  END
> <PUBCHEM_COMPOUND_CID>
1372159

> <PUBCHEM_CONFORMER_RMSD>
0.8

> <PUBCHEM_CONFORMER_DIVERSEORDER>
1
6
11
2
12
13
5
4
3
10
17
16
9
8
14
15
7

> <PUBCHEM_MMFF94_PARTIAL_CHARGES>
34
1 -0.11
10 0.05
11 0.05
12 0.29
13 -0.15
14 0.71
15 -0.15
16 0.29
17 -0.15
18 -0.15
19 -0.15
2 0.44
20 -0.15
21 -0.15
22 -0.15
23 -0.15
24 0.11
25 0.37
26 0.15
27 0.15
28 0.15
29 0.15
3 -0.28
30 0.15
31 0.15
32 0.15
33 0.15
34 0.15
4 -0.57
5 -0.55
6 -0.51
7 -0.51
8 0.09
9 0.12

> <PUBCHEM_EFFECTIVE_ROTOR_COUNT>
4

> <PUBCHEM_PHARMACOPHORE_FEATURES>
10
1 1 hydrophobe
1 3 acceptor
1 4 acceptor
1 5 donor
1 6 acceptor
1 7 acceptor
5 2 6 7 12 16 rings
5 3 8 10 13 15 rings
6 11 18 19 22 23 24 rings
6 9 12 16 17 20 21 rings

> <PUBCHEM_HEAVY_ATOM_COUNT>
24

> <PUBCHEM_ATOM_DEF_STEREO_COUNT>
0

> <PUBCHEM_ATOM_UDEF_STEREO_COUNT>
0

> <PUBCHEM_BOND_DEF_STEREO_COUNT>
0

> <PUBCHEM_BOND_UDEF_STEREO_COUNT>
0

> <PUBCHEM_ISOTOPIC_ATOM_COUNT>
0

> <PUBCHEM_COMPONENT_COUNT>
1

> <PUBCHEM_CACTVS_TAUTO_COUNT>
3

> <PUBCHEM_CONFORMER_ID>
0014EFFF00000001

> <PUBCHEM_MMFF94_ENERGY>
60.3135

> <PUBCHEM_FEATURE_SELFOVERLAP>
50.859

> <PUBCHEM_SHAPE_FINGERPRINT>
10616163 171 18340487755654375950
10693767 8 17982715666503650103
108634 29 18113910372506887394
11186622 123 18262234396404109498
11197282 1 18411140195122999255
11963148 33 18408877460718418690
12107183 9 17619633484140710984
12596602 18 17346323733943541794
12760667 363 18342453730090614245
13402501 40 18409730681313791787
13533116 47 18126566950001844035
13631057 29 18412547613319702712
13911852 28 18339922714574445703
13989917 61 18049445048156781523
1454969 45 18334861675553012268
14866123 147 18268996376420670017
15196674 1 18410856525280051207
15250474 111 18118116979282301570
15320467 1 16465300760671385327
15352361 1 18410573967992680969
15361156 5 18042141906655196485
15927050 60 17549824834222704220
17492 89 18338797789282606086
17857418 61 18410855442980019145
1813 80 17676207974395486733
19141452 34 18193843634811000713
20403669 9 18341899567197078095
21197605 99 18340769355533921262
21267235 1 18411989082412686908
21673915 165 18410573959793188466
221490 88 18267868290185108026
23379529 103 17910400489811537790
23424784 1240 18271817761063260654
23559900 14 18410845577815381769
24893989 43 16979850118022908455
25222932 49 18341891956241126159
3004659 81 18113614620599577989
314194 84 18340490092280141153
3246872 21 18268985560744063471
329604 57 18408605855517557494
335352 9 18410572878173957053
3421961 26 18340767169052514041
4214541 1 18266740182111680992
44880168 125 17131554955438947190
46194498 28 17387405951287424205
463206 1 18265898145188718323
5104073 3 18200305499592072768
5309563 4 18412263977895236383
54583773 228 18335711508443179542
56633871 153 18340498768493933067
6431902 208 18410289233547684735
7970288 3 18339078306581791039
9709674 26 18262245417490085792

> <PUBCHEM_SHAPE_MULTIPOLES>
477.02
15.32
4.43
0.61
5.36
0.57
0
13.14
0.22
0.65
-0.03
0.06
0.03
0.06

> <PUBCHEM_SHAPE_SELFOVERLAP>
1034.658

> <PUBCHEM_SHAPE_VOLUME>
267

> <PUBCHEM_COORDINATE_TYPE>
2
5
10

$$$$
