83055
  -OEChem-01171811513D

 23 24  0     0  0  0  0  0  0999 V2000
   -4.9427   -0.2900    0.0415 Cl  0  0  0  0  0  0  0  0  0  0  0  0
    1.2398    2.3347   -0.3817 O   0  0  0  0  0  0  0  0  0  0  0  0
    0.9554    0.0116   -0.0008 N   0  0  0  0  0  0  0  0  0  0  0  0
    1.7698   -1.0846    0.1802 N   0  0  0  0  0  0  0  0  0  0  0  0
    3.1097    0.8050   -0.1274 C   0  0  0  0  0  0  0  0  0  0  0  0
    2.9920   -0.6628    0.1136 C   0  0  0  0  0  0  0  0  0  0  0  0
    1.6647    1.2070   -0.1957 C   0  0  0  0  0  0  0  0  0  0  0  0
   -0.4284   -0.0589    0.0086 C   0  0  0  0  0  0  0  0  0  0  0  0
    4.1875   -1.5369    0.2585 C   0  0  0  0  0  0  0  0  0  0  0  0
   -1.1890    1.0337    0.4404 C   0  0  0  0  0  0  0  0  0  0  0  0
   -1.0798   -1.2240   -0.4130 C   0  0  0  0  0  0  0  0  0  0  0  0
   -2.5821    0.9624    0.4504 C   0  0  0  0  0  0  0  0  0  0  0  0
   -2.4728   -1.2953   -0.4031 C   0  0  0  0  0  0  0  0  0  0  0  0
   -3.2241   -0.2020    0.0286 C   0  0  0  0  0  0  0  0  0  0  0  0
    3.6103    1.2947    0.7097 H   0  0  0  0  0  0  0  0  0  0  0  0
    3.6131    1.0013   -1.0757 H   0  0  0  0  0  0  0  0  0  0  0  0
    4.7879   -1.4833   -0.6533 H   0  0  0  0  0  0  0  0  0  0  0  0
    3.8844   -2.5729    0.4301 H   0  0  0  0  0  0  0  0  0  0  0  0
    4.7880   -1.1921    1.1041 H   0  0  0  0  0  0  0  0  0  0  0  0
   -0.7364    1.9434    0.8219 H   0  0  0  0  0  0  0  0  0  0  0  0
   -0.5165   -2.0869   -0.7598 H   0  0  0  0  0  0  0  0  0  0  0  0
   -3.1549    1.8180    0.7991 H   0  0  0  0  0  0  0  0  0  0  0  0
   -2.9596   -2.2085   -0.7357 H   0  0  0  0  0  0  0  0  0  0  0  0
  1 14  1  0  0  0  0
  2  7  2  0  0  0  0
  3  4  1  0  0  0  0
  3  7  1  0  0  0  0
  3  8  1  0  0  0  0
  4  6  2  0  0  0  0
  5  6  1  0  0  0  0
  5  7  1  0  0  0  0
  5 15  1  0  0  0  0
  5 16  1  0  0  0  0
  6  9  1  0  0  0  0
  8 10  2  0  0  0  0
  8 11  1  0  0  0  0
  9 17  1  0  0  0  0
  9 18  1  0  0  0  0
  9 19  1  0  0  0  0
 10 12  1  0  0  0  0
 10 20  1  0  0  0  0
 11 13  2  0  0  0  0
 11 21  1  0  0  0  0
 12 14  2  0  0  0  0
 12 22  1  0  0  0  0
 13 14  1  0  0  0  0
 13 23  1  0  0  0  0
M  END
> <PUBCHEM_COMPOUND_CID>
83055

> <PUBCHEM_CONFORMER_RMSD>
0.6

> <PUBCHEM_CONFORMER_DIVERSEORDER>
1

> <PUBCHEM_MMFF94_PARTIAL_CHARGES>
18
1 -0.18
10 -0.15
11 -0.15
12 -0.15
13 -0.15
14 0.18
2 -0.57
20 0.15
21 0.15
22 0.15
23 0.15
3 -0.11
4 -0.51
5 0.12
6 0.33
7 0.57
8 0.12
9 0.06

> <PUBCHEM_EFFECTIVE_ROTOR_COUNT>
1.4

> <PUBCHEM_PHARMACOPHORE_FEATURES>
4
1 2 acceptor
1 4 acceptor
5 3 4 5 6 7 rings
6 8 10 11 12 13 14 rings

> <PUBCHEM_HEAVY_ATOM_COUNT>
14

> <PUBCHEM_ATOM_DEF_STEREO_COUNT>
0

> <PUBCHEM_ATOM_UDEF_STEREO_COUNT>
0

> <PUBCHEM_BOND_DEF_STEREO_COUNT>
0

> <PUBCHEM_BOND_UDEF_STEREO_COUNT>
0

> <PUBCHEM_ISOTOPIC_ATOM_COUNT>
0

> <PUBCHEM_COMPONENT_COUNT>
1

> <PUBCHEM_CACTVS_TAUTO_COUNT>
3

> <PUBCHEM_CONFORMER_ID>
0001446F00000001

> <PUBCHEM_MMFF94_ENERGY>
41.8282

> <PUBCHEM_FEATURE_SELFOVERLAP>
20.297

> <PUBCHEM_SHAPE_FINGERPRINT>
10130415 120 18272089417896933761
11471102 20 18408318908420182967
11769659 78 18341607139816404998
12032990 46 18337956688509019918
12251169 10 18413388739224132991
13571099 22 18410292523080747893
13581323 91 17632294566529359983
13690532 89 18411135814361222203
13760787 5 18341048601601323431
14144814 61 18412265034050801488
14325111 11 18412546513475590097
14993402 34 18410859845332008206
15196674 1 18411138021911186769
15375462 189 18041839502719486770
15375462 478 18131067121411953380
15442244 35 18411702045690834664
15536298 74 18343301496257252600
16945 1 18412554205809386061
17802600 8 18411414003740783361
17804303 29 18202285754045099930
18186145 218 17677040335057707267
18522853 276 18342737416315982432
19026448 4 17458344182632721435
19422 9 18409453587103047962
200 152 18272363170744044135
20559304 39 18412829100906904640
20645477 70 18408602560850802391
20871998 22 18197500632460493078
21267235 1 18411709759294018066
21501925 9 18411974754781485258
221490 88 18189625014737142426
2255824 54 18187649137061062422
23402539 116 17917702479817463445
23402655 69 18410572890272667421
23463225 33 18412265025497887598
23552423 10 18193838364843196533
23557571 272 14907914768406639553
23559900 14 18201432614763461680
2748010 2 17330561942954868756
42 15 18411139121480823907
5104073 3 18412828001469020419
69090 78 18272929436349187303
7364860 26 18271242837051890392
74978 22 18337111271109074799
9981440 41 17545313541897560864

> <PUBCHEM_SHAPE_MULTIPOLES>
274.15
7.77
1.73
0.68
2.2
0.41
0
-2.27
-0.46
-0.94
0.12
0.07
0.01
-0.55

> <PUBCHEM_SHAPE_SELFOVERLAP>
577.383

> <PUBCHEM_SHAPE_VOLUME>
157.2

> <PUBCHEM_COORDINATE_TYPE>
2
5
10

$$$$
