16745689
  -OEChem-01171811563D

 75 78  0     1  0  0  0  0  0999 V2000
   -3.8510   -0.4186   -1.6008 O   0  0  0  0  0  0  0  0  0  0  0  0
   -3.7230   -0.7453    0.6826 O   0  0  0  0  0  0  0  0  0  0  0  0
   -2.0713   -2.4351   -1.4188 O   0  0  0  0  0  0  0  0  0  0  0  0
   -3.1492    1.9554   -0.5520 O   0  0  0  0  0  0  0  0  0  0  0  0
    8.2643    0.5426    0.0428 O   0  0  0  0  0  0  0  0  0  0  0  0
    6.7960    0.5545   -1.7367 O   0  0  0  0  0  0  0  0  0  0  0  0
    1.8365   -1.8357    0.0212 N   0  0  0  0  0  0  0  0  0  0  0  0
   -5.8087   -1.0723   -0.4742 C   0  0  0  0  0  0  0  0  0  0  0  0
   -6.6627    0.1820   -0.2577 C   0  0  0  0  0  0  0  0  0  0  0  0
   -6.2159   -2.0612    0.6193 C   0  0  0  0  0  0  0  0  0  0  0  0
   -7.6103   -0.1522    0.8894 C   0  0  0  0  0  0  0  0  0  0  0  0
   -6.8634   -1.2003    1.6945 C   0  0  0  0  0  0  0  0  0  0  0  0
   -2.4766   -0.0767   -1.6431 C   0  0  2  0  0  0  0  0  0  0  0  0
   -4.3529   -0.7346   -0.3663 C   0  0  0  0  0  0  0  0  0  0  0  0
   -0.3484   -1.0069   -0.6202 C   0  0  0  0  0  0  0  0  0  0  0  0
   -1.6715   -1.2881   -1.2330 C   0  0  0  0  0  0  0  0  0  0  0  0
    0.0089    0.3343   -0.1372 C   0  0  0  0  0  0  0  0  0  0  0  0
   -2.2533    1.1362   -0.7594 C   0  0  0  0  0  0  0  0  0  0  0  0
   -0.8824    1.3550   -0.1765 C   0  0  0  0  0  0  0  0  0  0  0  0
    2.2174   -0.5517    0.4749 C   0  0  0  0  0  0  0  0  0  0  0  0
   -2.1393    0.2868   -3.0882 C   0  0  0  0  0  0  0  0  0  0  0  0
    0.5573   -1.9961   -0.5184 C   0  0  0  0  0  0  0  0  0  0  0  0
    2.7496   -2.9782    0.0883 C   0  0  0  0  0  0  0  0  0  0  0  0
    1.3702    0.5021    0.4109 C   0  0  0  0  0  0  0  0  0  0  0  0
    3.6005   -0.3582    1.0391 C   0  0  0  0  0  0  0  0  0  0  0  0
    2.5736   -3.7790    1.3859 C   0  0  0  0  0  0  0  0  0  0  0  0
   -0.5721    2.6827    0.3495 C   0  0  0  0  0  0  0  0  0  0  0  0
    4.6040   -0.0201   -0.0555 C   0  0  0  0  0  0  0  0  0  0  0  0
    3.6079   -4.8984    1.5157 C   0  0  0  0  0  0  0  0  0  0  0  0
    1.1565   -4.3368    1.5298 C   0  0  0  0  0  0  0  0  0  0  0  0
    6.0079    0.1401    0.5267 C   0  0  0  0  0  0  0  0  0  0  0  0
    0.0007    3.6457   -0.4815 C   0  0  0  0  0  0  0  0  0  0  0  0
   -0.8487    2.9873    1.6824 C   0  0  0  0  0  0  0  0  0  0  0  0
    0.2971    4.9129    0.0205 C   0  0  0  0  0  0  0  0  0  0  0  0
   -0.5523    4.2546    2.1842 C   0  0  0  0  0  0  0  0  0  0  0  0
    7.0348    0.4345   -0.5430 C   0  0  0  0  0  0  0  0  0  0  0  0
    0.0207    5.2173    1.3532 C   0  0  0  0  0  0  0  0  0  0  0  0
    9.3491    0.8216   -0.8482 C   0  0  0  0  0  0  0  0  0  0  0  0
   -5.9923   -1.5261   -1.4553 H   0  0  0  0  0  0  0  0  0  0  0  0
   -6.0493    1.0527    0.0038 H   0  0  0  0  0  0  0  0  0  0  0  0
   -7.2252    0.4430   -1.1606 H   0  0  0  0  0  0  0  0  0  0  0  0
   -6.9643   -2.7565    0.2180 H   0  0  0  0  0  0  0  0  0  0  0  0
   -5.3923   -2.6622    1.0170 H   0  0  0  0  0  0  0  0  0  0  0  0
   -7.8666    0.7284    1.4855 H   0  0  0  0  0  0  0  0  0  0  0  0
   -8.5411   -0.5753    0.4930 H   0  0  0  0  0  0  0  0  0  0  0  0
   -7.5282   -1.7775    2.3434 H   0  0  0  0  0  0  0  0  0  0  0  0
   -6.0976   -0.7271    2.3199 H   0  0  0  0  0  0  0  0  0  0  0  0
   -1.0867    0.5657   -3.2076 H   0  0  0  0  0  0  0  0  0  0  0  0
   -2.7533    1.1269   -3.4338 H   0  0  0  0  0  0  0  0  0  0  0  0
   -2.3459   -0.5531   -3.7620 H   0  0  0  0  0  0  0  0  0  0  0  0
    0.3589   -3.0007   -0.8755 H   0  0  0  0  0  0  0  0  0  0  0  0
    3.7958   -2.6809   -0.0289 H   0  0  0  0  0  0  0  0  0  0  0  0
    2.5666   -3.6415   -0.7691 H   0  0  0  0  0  0  0  0  0  0  0  0
    1.6958    1.4744    0.7640 H   0  0  0  0  0  0  0  0  0  0  0  0
    3.9275   -1.2213    1.6269 H   0  0  0  0  0  0  0  0  0  0  0  0
    3.5840    0.4690    1.7630 H   0  0  0  0  0  0  0  0  0  0  0  0
    2.7332   -3.1039    2.2365 H   0  0  0  0  0  0  0  0  0  0  0  0
    4.3119    0.9123   -0.5568 H   0  0  0  0  0  0  0  0  0  0  0  0
    4.6158   -0.7918   -0.8341 H   0  0  0  0  0  0  0  0  0  0  0  0
    3.4961   -5.6326    0.7108 H   0  0  0  0  0  0  0  0  0  0  0  0
    3.5011   -5.4222    2.4714 H   0  0  0  0  0  0  0  0  0  0  0  0
    4.6244   -4.4939    1.4679 H   0  0  0  0  0  0  0  0  0  0  0  0
    0.8676   -4.9268    0.6537 H   0  0  0  0  0  0  0  0  0  0  0  0
    1.0903   -4.9931    2.4050 H   0  0  0  0  0  0  0  0  0  0  0  0
    0.4193   -3.5437    1.6832 H   0  0  0  0  0  0  0  0  0  0  0  0
    6.3042   -0.7849    1.0343 H   0  0  0  0  0  0  0  0  0  0  0  0
    6.0187    0.9644    1.2485 H   0  0  0  0  0  0  0  0  0  0  0  0
    0.2215    3.4239   -1.5228 H   0  0  0  0  0  0  0  0  0  0  0  0
   -1.2957    2.2478    2.3427 H   0  0  0  0  0  0  0  0  0  0  0  0
    0.7431    5.6626   -0.6265 H   0  0  0  0  0  0  0  0  0  0  0  0
   -0.7676    4.4918    3.2219 H   0  0  0  0  0  0  0  0  0  0  0  0
    0.2515    6.2040    1.7439 H   0  0  0  0  0  0  0  0  0  0  0  0
   10.2671    0.8823   -0.2577 H   0  0  0  0  0  0  0  0  0  0  0  0
    9.1900    1.7810   -1.3497 H   0  0  0  0  0  0  0  0  0  0  0  0
    9.4549    0.0152   -1.5802 H   0  0  0  0  0  0  0  0  0  0  0  0
  1 13  1  0  0  0  0
  1 14  1  0  0  0  0
  2 14  2  0  0  0  0
  3 16  2  0  0  0  0
  4 18  2  0  0  0  0
  5 36  1  0  0  0  0
  5 38  1  0  0  0  0
  6 36  2  0  0  0  0
  7 20  1  0  0  0  0
  7 22  1  0  0  0  0
  7 23  1  0  0  0  0
  8  9  1  0  0  0  0
  8 10  1  0  0  0  0
  8 14  1  0  0  0  0
  8 39  1  0  0  0  0
  9 11  1  0  0  0  0
  9 40  1  0  0  0  0
  9 41  1  0  0  0  0
 10 12  1  0  0  0  0
 10 42  1  0  0  0  0
 10 43  1  0  0  0  0
 11 12  1  0  0  0  0
 11 44  1  0  0  0  0
 11 45  1  0  0  0  0
 12 46  1  0  0  0  0
 12 47  1  0  0  0  0
 13 16  1  0  0  0  0
 13 18  1  0  0  0  0
 13 21  1  0  0  0  0
 15 16  1  0  0  0  0
 15 17  1  0  0  0  0
 15 22  2  0  0  0  0
 17 19  2  0  0  0  0
 17 24  1  0  0  0  0
 18 19  1  0  0  0  0
 19 27  1  0  0  0  0
 20 24  2  0  0  0  0
 20 25  1  0  0  0  0
 21 48  1  0  0  0  0
 21 49  1  0  0  0  0
 21 50  1  0  0  0  0
 22 51  1  0  0  0  0
 23 26  1  0  0  0  0
 23 52  1  0  0  0  0
 23 53  1  0  0  0  0
 24 54  1  0  0  0  0
 25 28  1  0  0  0  0
 25 55  1  0  0  0  0
 25 56  1  0  0  0  0
 26 29  1  0  0  0  0
 26 30  1  0  0  0  0
 26 57  1  0  0  0  0
 27 32  2  0  0  0  0
 27 33  1  0  0  0  0
 28 31  1  0  0  0  0
 28 58  1  0  0  0  0
 28 59  1  0  0  0  0
 29 60  1  0  0  0  0
 29 61  1  0  0  0  0
 29 62  1  0  0  0  0
 30 63  1  0  0  0  0
 30 64  1  0  0  0  0
 30 65  1  0  0  0  0
 31 36  1  0  0  0  0
 31 66  1  0  0  0  0
 31 67  1  0  0  0  0
 32 34  1  0  0  0  0
 32 68  1  0  0  0  0
 33 35  2  0  0  0  0
 33 69  1  0  0  0  0
 34 37  2  0  0  0  0
 34 70  1  0  0  0  0
 35 37  1  0  0  0  0
 35 71  1  0  0  0  0
 37 72  1  0  0  0  0
 38 73  1  0  0  0  0
 38 74  1  0  0  0  0
 38 75  1  0  0  0  0
M  END
> <PUBCHEM_COMPOUND_CID>
16745689

> <PUBCHEM_CONFORMER_RMSD>
1.2

> <PUBCHEM_CONFORMER_DIVERSEORDER>
1
32
33
19
21
45
47
14
46
48
41
39
44
13
49
28
38
51
30
31
40
16
52
23
43
10
3
6
37
20
42
50
25
36
27
29
12
24
4
22
34
5
2
53
17
35
11
9
8
18
15
26
7

> <PUBCHEM_MMFF94_PARTIAL_CHARGES>
35
1 -0.43
13 0.4
14 0.66
15 0.01
16 0.49
18 0.49
19 -0.01
2 -0.57
20 -0.04
22 -0.05
23 0.37
24 -0.15
25 0.14
27 0.03
3 -0.57
31 0.06
32 -0.15
33 -0.15
34 -0.15
35 -0.15
36 0.66
37 -0.15
38 0.28
4 -0.57
5 -0.43
51 0.15
54 0.15
6 -0.57
68 0.15
69 0.15
7 -0.57
70 0.15
71 0.15
72 0.15
8 0.06

> <PUBCHEM_EFFECTIVE_ROTOR_COUNT>
12.4

> <PUBCHEM_PHARMACOPHORE_FEATURES>
10
1 2 acceptor
1 3 acceptor
1 4 acceptor
1 6 acceptor
1 7 cation
3 26 29 30 hydrophobe
5 8 9 10 11 12 rings
6 13 15 16 17 18 19 rings
6 27 32 33 34 35 37 rings
6 7 15 17 20 22 24 rings

> <PUBCHEM_HEAVY_ATOM_COUNT>
38

> <PUBCHEM_ATOM_DEF_STEREO_COUNT>
0

> <PUBCHEM_ATOM_UDEF_STEREO_COUNT>
1

> <PUBCHEM_BOND_DEF_STEREO_COUNT>
0

> <PUBCHEM_BOND_UDEF_STEREO_COUNT>
0

> <PUBCHEM_ISOTOPIC_ATOM_COUNT>
0

> <PUBCHEM_COMPONENT_COUNT>
1

> <PUBCHEM_CACTVS_TAUTO_COUNT>
1

> <PUBCHEM_CONFORMER_ID>
00FF84D900000001

> <PUBCHEM_MMFF94_ENERGY>
96.1507

> <PUBCHEM_FEATURE_SELFOVERLAP>
50.772

> <PUBCHEM_SHAPE_FINGERPRINT>
10006869 2 18199176305192138199
10074138 170 17619333322299502169
10190108 129 18341619217306763496
10258939 38 16443335464531527310
10674148 151 17203611497816281618
1100329 8 18198057182685413079
11135926 11 18335127709373402566
11421498 54 18409726223485385424
11456790 92 18193004726069103233
12788726 201 18129370519441655660
13140716 1 17979622765546567277
13540713 5 18053092931436590074
13911987 19 18261384564357662478
14955137 171 18271245035911570145
15347590 135 18334294253821127026
15538507 32 18264772233130417700
15840311 113 17274818121272443833
15849732 13 17704075122787672997
15911013 46 18189894400505320451
15927050 60 17620473949095600132
16087824 20 18343022147770077089
19315092 285 16879326949218822618
19319366 153 18334292089200229726
19611394 137 18189624997594398243
21049683 271 18261956352990282245
21792961 116 18261382322099799846
21792964 463 18042988483470004572
21796203 349 18267886019609685571
21859007 373 10663824031371537810
24180151 248 17987252031813393254
283562 15 18411139091785467560
2838139 119 11167940256452676171
3178227 256 18337681931145769809
3552219 110 18335713749034200556
4258327 124 16733563727259269182
469060 322 18337399257509973064
5104073 3 18196641909209738787
57527358 35 15504032507965840872
5912855 24 18196093239843221976

> <PUBCHEM_SHAPE_MULTIPOLES>
741.83
17.79
5.99
1.84
16.35
3.2
-0.41
-4.94
-1.12
2.93
4.34
-0.89
0.12
-1.54

> <PUBCHEM_SHAPE_SELFOVERLAP>
1583.942

> <PUBCHEM_SHAPE_VOLUME>
410.7

> <PUBCHEM_COORDINATE_TYPE>
2
5
10

$$$$
