5052536
  -OEChem-01171812083D

 61 66  0     0  0  0  0  0  0999 V2000
    0.9194   -3.6404   -0.0383 O   0  0  0  0  0  0  0  0  0  0  0  0
    4.6980    0.1598    0.0446 O   0  0  0  0  0  0  0  0  0  0  0  0
   -6.7045    0.0803    2.0612 O   0  0  0  0  0  0  0  0  0  0  0  0
   -6.5002    0.9166   -1.3147 O   0  0  0  0  0  0  0  0  0  0  0  0
    5.5049    5.7165   -1.5435 O   0  0  0  0  0  0  0  0  0  0  0  0
    4.7722    6.4234    0.4852 O   0  0  0  0  0  0  0  0  0  0  0  0
   -1.9317   -0.2478    0.5084 N   0  0  0  0  0  0  0  0  0  0  0  0
   -4.8083    0.0169    0.7392 N   0  0  0  0  0  0  0  0  0  0  0  0
    2.4620    1.9398    0.3873 N   0  0  0  0  0  0  0  0  0  0  0  0
   -0.2501   -2.8671    0.1260 N   0  0  0  0  0  0  0  0  0  0  0  0
   -2.8284   -1.2020   -0.1492 C   0  0  0  0  0  0  0  0  0  0  0  0
   -2.5302    0.8287    1.3022 C   0  0  0  0  0  0  0  0  0  0  0  0
   -4.1775   -0.5515   -0.4572 C   0  0  0  0  0  0  0  0  0  0  0  0
   -3.9066    0.4150    1.8179 C   0  0  0  0  0  0  0  0  0  0  0  0
   -0.5490   -0.3658    0.3923 C   0  0  0  0  0  0  0  0  0  0  0  0
    0.1447   -1.5771    0.2218 C   0  0  0  0  0  0  0  0  0  0  0  0
    1.5554   -1.5472    0.1179 C   0  0  0  0  0  0  0  0  0  0  0  0
    2.4383   -0.4939    0.1535 C   0  0  0  0  0  0  0  0  0  0  0  0
    0.3152    0.7697    0.4372 C   0  0  0  0  0  0  0  0  0  0  0  0
    1.7525    0.7148    0.3229 C   0  0  0  0  0  0  0  0  0  0  0  0
    1.9938   -2.8141   -0.0389 C   0  0  0  0  0  0  0  0  0  0  0  0
    3.3631   -3.2351   -0.1841 C   0  0  0  0  0  0  0  0  0  0  0  0
    3.8877   -0.7550    0.0179 C   0  0  0  0  0  0  0  0  0  0  0  0
    4.3307   -2.1934   -0.1561 C   0  0  0  0  0  0  0  0  0  0  0  0
   -6.1988    0.1248    0.9376 C   0  0  0  0  0  0  0  0  0  0  0  0
    1.8117    3.1981    0.5580 C   0  0  0  0  0  0  0  0  0  0  0  0
    3.7626   -4.5593   -0.3439 C   0  0  0  0  0  0  0  0  0  0  0  0
    5.6854   -2.4961   -0.2886 C   0  0  0  0  0  0  0  0  0  0  0  0
   -7.0393    0.2835   -0.2470 C   0  0  0  0  0  0  0  0  0  0  0  0
    2.8365    4.3266    0.6720 C   0  0  0  0  0  0  0  0  0  0  0  0
    5.1216   -4.8509   -0.4759 C   0  0  0  0  0  0  0  0  0  0  0  0
    6.0752   -3.8275   -0.4483 C   0  0  0  0  0  0  0  0  0  0  0  0
    3.7077    4.5050   -0.5744 C   0  0  0  0  0  0  0  0  0  0  0  0
   -8.3277   -0.1037   -0.4959 C   0  0  0  0  0  0  0  0  0  0  0  0
   -8.6087    0.3210   -1.8163 C   0  0  0  0  0  0  0  0  0  0  0  0
   -7.4655    0.9360   -2.2711 C   0  0  0  0  0  0  0  0  0  0  0  0
    4.6879    5.6515   -0.4596 C   0  0  0  0  0  0  0  0  0  0  0  0
   -2.9749   -2.0707    0.5038 H   0  0  0  0  0  0  0  0  0  0  0  0
   -2.4010   -1.5523   -1.0963 H   0  0  0  0  0  0  0  0  0  0  0  0
   -1.9019    1.0715    2.1678 H   0  0  0  0  0  0  0  0  0  0  0  0
   -2.6190    1.7288    0.6819 H   0  0  0  0  0  0  0  0  0  0  0  0
   -4.8561   -1.2779   -0.9166 H   0  0  0  0  0  0  0  0  0  0  0  0
   -4.0316    0.2733   -1.1649 H   0  0  0  0  0  0  0  0  0  0  0  0
   -4.3644    1.2307    2.3887 H   0  0  0  0  0  0  0  0  0  0  0  0
   -3.8186   -0.4461    2.4922 H   0  0  0  0  0  0  0  0  0  0  0  0
   -0.1706    1.7377    0.5474 H   0  0  0  0  0  0  0  0  0  0  0  0
    3.4738    1.8866    0.3764 H   0  0  0  0  0  0  0  0  0  0  0  0
    1.1471    3.4126   -0.2876 H   0  0  0  0  0  0  0  0  0  0  0  0
    1.2164    3.2053    1.4791 H   0  0  0  0  0  0  0  0  0  0  0  0
    3.0376   -5.3679   -0.3677 H   0  0  0  0  0  0  0  0  0  0  0  0
    6.4444   -1.7197   -0.2705 H   0  0  0  0  0  0  0  0  0  0  0  0
    2.3035    5.2641    0.8753 H   0  0  0  0  0  0  0  0  0  0  0  0
    3.4848    4.1471    1.5397 H   0  0  0  0  0  0  0  0  0  0  0  0
    5.4422   -5.8816   -0.6010 H   0  0  0  0  0  0  0  0  0  0  0  0
    7.1289   -4.0717   -0.5523 H   0  0  0  0  0  0  0  0  0  0  0  0
    4.2899    3.5965   -0.7614 H   0  0  0  0  0  0  0  0  0  0  0  0
    3.0684    4.6979   -1.4432 H   0  0  0  0  0  0  0  0  0  0  0  0
   -8.9893   -0.6263    0.1801 H   0  0  0  0  0  0  0  0  0  0  0  0
   -9.5290    0.1944   -2.3678 H   0  0  0  0  0  0  0  0  0  0  0  0
   -7.1921    1.4128   -3.2010 H   0  0  0  0  0  0  0  0  0  0  0  0
    6.1506    6.4513   -1.4708 H   0  0  0  0  0  0  0  0  0  0  0  0
  1 10  1  0  0  0  0
  1 21  1  0  0  0  0
  2 23  2  0  0  0  0
  3 25  2  0  0  0  0
  4 29  1  0  0  0  0
  4 36  1  0  0  0  0
  5 37  1  0  0  0  0
  5 61  1  0  0  0  0
  6 37  2  0  0  0  0
  7 11  1  0  0  0  0
  7 12  1  0  0  0  0
  7 15  1  0  0  0  0
  8 13  1  0  0  0  0
  8 14  1  0  0  0  0
  8 25  1  0  0  0  0
  9 20  1  0  0  0  0
  9 26  1  0  0  0  0
  9 47  1  0  0  0  0
 10 16  2  0  0  0  0
 11 13  1  0  0  0  0
 11 38  1  0  0  0  0
 11 39  1  0  0  0  0
 12 14  1  0  0  0  0
 12 40  1  0  0  0  0
 12 41  1  0  0  0  0
 13 42  1  0  0  0  0
 13 43  1  0  0  0  0
 14 44  1  0  0  0  0
 14 45  1  0  0  0  0
 15 16  1  0  0  0  0
 15 19  2  0  0  0  0
 16 17  1  0  0  0  0
 17 18  1  0  0  0  0
 17 21  2  0  0  0  0
 18 20  2  0  0  0  0
 18 23  1  0  0  0  0
 19 20  1  0  0  0  0
 19 46  1  0  0  0  0
 21 22  1  0  0  0  0
 22 24  1  0  0  0  0
 22 27  2  0  0  0  0
 23 24  1  0  0  0  0
 24 28  2  0  0  0  0
 25 29  1  0  0  0  0
 26 30  1  0  0  0  0
 26 48  1  0  0  0  0
 26 49  1  0  0  0  0
 27 31  1  0  0  0  0
 27 50  1  0  0  0  0
 28 32  1  0  0  0  0
 28 51  1  0  0  0  0
 29 34  2  0  0  0  0
 30 33  1  0  0  0  0
 30 52  1  0  0  0  0
 30 53  1  0  0  0  0
 31 32  2  0  0  0  0
 31 54  1  0  0  0  0
 32 55  1  0  0  0  0
 33 37  1  0  0  0  0
 33 56  1  0  0  0  0
 33 57  1  0  0  0  0
 34 35  1  0  0  0  0
 34 58  1  0  0  0  0
 35 36  2  0  0  0  0
 35 59  1  0  0  0  0
 36 60  1  0  0  0  0
M  END
> <PUBCHEM_COMPOUND_CID>
5052536

> <PUBCHEM_CONFORMER_RMSD>
1

> <PUBCHEM_CONFORMER_DIVERSEORDER>
1
9
43
49
36
54
20
40
42
44
52
47
45
23
17
25
30
46
51
33
53
37
26
41
16
34
39
50
27
22
10
31
15
12
35
38
29
8
28
48
32
24
14
4
18
13
19
7
6
11
2
5
3
21

> <PUBCHEM_MMFF94_PARTIAL_CHARGES>
45
1 -0.02
10 -0.41
11 0.37
12 0.37
13 0.3
14 0.3
15 0.1
16 0.29
18 0.09
19 -0.15
2 -0.57
20 0.1
21 0.09
22 0.05
23 0.4
24 0.09
25 0.71
26 0.37
27 -0.15
28 -0.15
29 0.05
3 -0.57
31 -0.15
32 -0.15
33 0.06
34 -0.15
35 -0.15
36 -0.01
37 0.66
4 -0.28
46 0.15
47 0.4
5 -0.65
50 0.15
51 0.15
54 0.15
55 0.15
58 0.15
59 0.15
6 -0.57
60 0.15
61 0.5
7 -0.84
8 -0.66
9 -0.87

> <PUBCHEM_EFFECTIVE_ROTOR_COUNT>
9.2

> <PUBCHEM_PHARMACOPHORE_FEATURES>
16
1 10 acceptor
1 2 acceptor
1 3 acceptor
1 4 acceptor
1 5 acceptor
1 6 acceptor
1 7 cation
1 9 cation
1 9 donor
3 5 6 37 anion
5 1 10 16 17 21 rings
5 4 29 34 35 36 rings
6 15 16 17 18 19 20 rings
6 17 18 21 22 23 24 rings
6 22 24 27 28 31 32 rings
6 7 8 11 12 13 14 rings

> <PUBCHEM_HEAVY_ATOM_COUNT>
37

> <PUBCHEM_ATOM_DEF_STEREO_COUNT>
0

> <PUBCHEM_ATOM_UDEF_STEREO_COUNT>
0

> <PUBCHEM_BOND_DEF_STEREO_COUNT>
0

> <PUBCHEM_BOND_UDEF_STEREO_COUNT>
0

> <PUBCHEM_ISOTOPIC_ATOM_COUNT>
0

> <PUBCHEM_COMPONENT_COUNT>
1

> <PUBCHEM_CACTVS_TAUTO_COUNT>
3

> <PUBCHEM_CONFORMER_ID>
004D187800000001

> <PUBCHEM_MMFF94_ENERGY>
119.8716

> <PUBCHEM_FEATURE_SELFOVERLAP>
81.533

> <PUBCHEM_SHAPE_FINGERPRINT>
10411042 1 18123754158613886362
10675989 125 18339366365743464064
10816530 90 18335139839067765356
11297010 23 18341897458759007172
11411753 3 17968103053742786923
12013929 27 18343006802041918111
12166972 35 18059006186364223371
12236239 1 17775002328857749787
12660671 118 18273224088101044060
12741549 16 17822848664267569262
13008946 170 18130212857044647344
13248334 5 18411419518958767994
13617811 41 18338520747524177494
14068700 675 17916862396624605475
14117953 113 18412269459144230124
14790565 3 17979082914286135520
14849402 71 18340499897569133066
14937079 2 18411983546964707618
15082195 135 18412261757143936985
15198563 99 17979366261720777878
15320294 125 16772931633611670231
15324884 4 17605296119124211915
15347591 1 18411422856523072403
15400415 2 17907584979614134984
15419008 47 17895476904439282429
15439362 3 18337670931344686500
1577012 14 17774725260564756347
15927050 60 17982178013258255022
15980000 95 18196945374935949512
18365409 1 17059756927591433886
20028762 73 17845088459455221583
21033648 29 17386281103937881065
21133410 127 18114456872504158469
21792961 116 17971474000963257606
22311459 1 18411141342659190160
23516275 100 17823401851650817893
23522609 53 17702968988800901441
23559900 14 18410855447976957795
24771293 8 18130507423466486194
24771750 20 18339929328022157278
249057 25 17775010068483529257
335352 9 18341052913665125606
397830 11 11455300940560839159
4015057 19 18411985737587985219
474113 269 17170672173758484298
58083652 198 18264490594069101138
58902169 19 18059563660582709855
6058803 2 18130794464541139387
6697151 62 18263631880104353219
9962374 69 18271232872975975735

> <PUBCHEM_SHAPE_MULTIPOLES>
706.3
20.82
7.92
1.3
48.08
13.54
0.13
-0.73
7.85
-27.57
1.87
3.01
0.63
0.12

> <PUBCHEM_SHAPE_SELFOVERLAP>
1569.426

> <PUBCHEM_SHAPE_VOLUME>
375.1

> <PUBCHEM_COORDINATE_TYPE>
2
5
10

$$$$
