5715097
  -OEChem-01171811563D

 33 35  0     0  0  0  0  0  0999 V2000
   -2.6744   -0.1209    2.4763 Cl  0  0  0  0  0  0  0  0  0  0  0  0
   -1.0082    3.8803   -0.0758 O   0  0  0  0  0  0  0  0  0  0  0  0
    2.0205    2.0957    0.0421 N   0  0  0  0  0  0  0  0  0  0  0  0
    0.2661    0.4906   -0.0859 N   0  0  0  0  0  0  0  0  0  0  0  0
    1.1503    3.1450    0.0222 N   0  0  0  0  0  0  0  0  0  0  0  0
    1.5255    0.8127   -0.0107 C   0  0  0  0  0  0  0  0  0  0  0  0
    2.5084   -0.3200    0.0148 C   0  0  0  0  0  0  0  0  0  0  0  0
   -0.6397    1.5177   -0.1127 C   0  0  0  0  0  0  0  0  0  0  0  0
   -2.5789   -0.0566   -0.2573 C   0  0  0  0  0  0  0  0  0  0  0  0
   -1.9561    1.2738   -0.1917 C   0  0  0  0  0  0  0  0  0  0  0  0
   -0.2064    2.9485   -0.0555 C   0  0  0  0  0  0  0  0  0  0  0  0
    2.1382   -1.5386    0.5708 C   0  0  0  0  0  0  0  0  0  0  0  0
    3.7790   -0.1391   -0.5183 C   0  0  0  0  0  0  0  0  0  0  0  0
   -2.9341   -0.7554    0.8889 C   0  0  0  0  0  0  0  0  0  0  0  0
   -2.8018   -0.5956   -1.5183 C   0  0  0  0  0  0  0  0  0  0  0  0
    3.0521   -2.5920    0.5943 C   0  0  0  0  0  0  0  0  0  0  0  0
    4.6930   -1.1926   -0.4949 C   0  0  0  0  0  0  0  0  0  0  0  0
    4.3294   -2.4190    0.0615 C   0  0  0  0  0  0  0  0  0  0  0  0
   -3.5225   -2.0148    0.7728 C   0  0  0  0  0  0  0  0  0  0  0  0
   -3.3900   -1.8552   -1.6341 C   0  0  0  0  0  0  0  0  0  0  0  0
   -3.7503   -2.5647   -0.4887 C   0  0  0  0  0  0  0  0  0  0  0  0
   -2.6792    2.0863   -0.2148 H   0  0  0  0  0  0  0  0  0  0  0  0
    3.0014    2.3237    0.1610 H   0  0  0  0  0  0  0  0  0  0  0  0
    1.5718    4.0662    0.0666 H   0  0  0  0  0  0  0  0  0  0  0  0
    1.1520   -1.6944    0.9995 H   0  0  0  0  0  0  0  0  0  0  0  0
    4.0842    0.7977   -0.9750 H   0  0  0  0  0  0  0  0  0  0  0  0
   -2.5273   -0.0556   -2.4210 H   0  0  0  0  0  0  0  0  0  0  0  0
    2.7699   -3.5465    1.0289 H   0  0  0  0  0  0  0  0  0  0  0  0
    5.6863   -1.0598   -0.9136 H   0  0  0  0  0  0  0  0  0  0  0  0
    5.0409   -3.2394    0.0793 H   0  0  0  0  0  0  0  0  0  0  0  0
   -3.8094   -2.5815    1.6551 H   0  0  0  0  0  0  0  0  0  0  0  0
   -3.5675   -2.2835   -2.6163 H   0  0  0  0  0  0  0  0  0  0  0  0
   -4.2082   -3.5454   -0.5792 H   0  0  0  0  0  0  0  0  0  0  0  0
  1 14  1  0  0  0  0
  2 11  2  0  0  0  0
  3  5  1  0  0  0  0
  3  6  1  0  0  0  0
  3 23  1  0  0  0  0
  4  6  2  0  0  0  0
  4  8  1  0  0  0  0
  5 11  1  0  0  0  0
  5 24  1  0  0  0  0
  6  7  1  0  0  0  0
  7 12  2  0  0  0  0
  7 13  1  0  0  0  0
  8 10  2  0  0  0  0
  8 11  1  0  0  0  0
  9 10  1  0  0  0  0
  9 14  1  0  0  0  0
  9 15  2  0  0  0  0
 10 22  1  0  0  0  0
 12 16  1  0  0  0  0
 12 25  1  0  0  0  0
 13 17  2  0  0  0  0
 13 26  1  0  0  0  0
 14 19  2  0  0  0  0
 15 20  1  0  0  0  0
 15 27  1  0  0  0  0
 16 18  2  0  0  0  0
 16 28  1  0  0  0  0
 17 18  1  0  0  0  0
 17 29  1  0  0  0  0
 18 30  1  0  0  0  0
 19 21  1  0  0  0  0
 19 31  1  0  0  0  0
 20 21  2  0  0  0  0
 20 32  1  0  0  0  0
 21 33  1  0  0  0  0
M  END
> <PUBCHEM_COMPOUND_CID>
5715097

> <PUBCHEM_CONFORMER_RMSD>
0.6

> <PUBCHEM_CONFORMER_DIVERSEORDER>
2
4
5
1
3

> <PUBCHEM_MMFF94_PARTIAL_CHARGES>
33
1 -0.18
10 -0.18
11 0.62
12 -0.15
13 -0.15
14 0.18
15 -0.15
16 -0.15
17 -0.15
18 -0.15
19 -0.15
2 -0.57
20 -0.15
21 -0.15
22 0.15
23 0.4
24 0.37
25 0.15
26 0.15
27 0.15
28 0.15
29 0.15
3 -0.47
30 0.15
31 0.15
32 0.15
33 0.15
4 -0.62
5 -0.41
6 0.41
7 0.09
8 0.19
9 0.03

> <PUBCHEM_EFFECTIVE_ROTOR_COUNT>
2.4

> <PUBCHEM_PHARMACOPHORE_FEATURES>
7
1 2 acceptor
1 3 donor
1 5 donor
3 3 4 6 cation
6 3 4 5 6 8 11 rings
6 7 12 13 16 17 18 rings
6 9 14 15 19 20 21 rings

> <PUBCHEM_HEAVY_ATOM_COUNT>
21

> <PUBCHEM_ATOM_DEF_STEREO_COUNT>
0

> <PUBCHEM_ATOM_UDEF_STEREO_COUNT>
0

> <PUBCHEM_BOND_DEF_STEREO_COUNT>
1

> <PUBCHEM_BOND_UDEF_STEREO_COUNT>
0

> <PUBCHEM_ISOTOPIC_ATOM_COUNT>
0

> <PUBCHEM_COMPONENT_COUNT>
1

> <PUBCHEM_CACTVS_TAUTO_COUNT>
4

> <PUBCHEM_CONFORMER_ID>
0057349900000002

> <PUBCHEM_MMFF94_ENERGY>
68.6536

> <PUBCHEM_FEATURE_SELFOVERLAP>
37.103

> <PUBCHEM_SHAPE_FINGERPRINT>
10616163 171 18194965132671445862
11552529 35 17775281617136859546
11578080 2 17845915399504484993
12107183 9 18341628014412641979
12363563 72 18408882944932037638
12553582 1 18409449176261689170
12596599 1 17988660582985299742
12633257 1 15051737546667209523
12788726 201 18120362160424490761
13009979 54 17774452692748993003
13140716 1 18342177747876129609
13533116 47 18124880325009070459
13544653 18 18334579044596517886
138480 1 14952089421699927276
13911987 19 17611479922458512524
14767858 380 18190477120054938572
14787075 74 18334862770684737316
14790565 3 17690280413155925389
14844126 61 17976249150060714522
15352361 1 18410570686727811958
15537594 2 18338818752827755582
1813 80 18271544059855386943
18927931 339 18265619775916500430
20291156 8 18412261744132473414
20645477 70 18046891960581035031
221490 88 18335983172379404222
23379529 103 18128265476303061926
235170 7 16370449964250832766
23559900 14 18337376223357387573
23598288 3 18193010217902543580
23598291 2 18129395945579489161
23728640 28 17906727012556107811
46194498 28 17314506139922082855
463206 1 18335140954962982803
4921388 177 16153717509311940971
5309563 4 18337957891037169915
6669772 16 17763472012500335444
7097593 13 18198920278049650433
7970288 3 18411980277799419414

> <PUBCHEM_SHAPE_MULTIPOLES>
413.23
8.35
3.9
1.33
4.82
2.87
0.46
-8.08
-0.65
0.1
-0.17
-1.73
-0.53
-0.66

> <PUBCHEM_SHAPE_SELFOVERLAP>
897.215

> <PUBCHEM_SHAPE_VOLUME>
224.8

> <PUBCHEM_COORDINATE_TYPE>
2
5
10

$$$$
