664985
  -OEChem-01171811383D

 40 42  0     0  0  0  0  0  0999 V2000
    1.6914    2.0713    0.1856 S   0  0  0  0  0  0  0  0  0  0  0  0
    2.6153    2.1720    1.3047 O   0  0  0  0  0  0  0  0  0  0  0  0
    1.1590    3.2870   -0.4085 O   0  0  0  0  0  0  0  0  0  0  0  0
   -4.0360   -1.0145    0.0540 N   0  0  0  0  0  0  0  0  0  0  0  0
    2.4171    1.0953   -1.0311 N   0  0  0  0  0  0  0  0  0  0  0  0
    3.2109   -0.4678    0.5471 N   0  0  0  0  0  0  0  0  0  0  0  0
   -0.7866    0.8393   -0.0927 C   0  0  0  0  0  0  0  0  0  0  0  0
   -1.8333    0.0282    0.4066 C   0  0  0  0  0  0  0  0  0  0  0  0
    0.3399    1.0783    0.7112 C   0  0  0  0  0  0  0  0  0  0  0  0
   -2.9599   -0.2111   -0.3971 C   0  0  0  0  0  0  0  0  0  0  0  0
   -0.8972    1.3872   -1.3812 C   0  0  0  0  0  0  0  0  0  0  0  0
   -1.7228   -0.5201    1.6948 C   0  0  0  0  0  0  0  0  0  0  0  0
    0.4330    0.5260    1.9890 C   0  0  0  0  0  0  0  0  0  0  0  0
   -3.0532    0.3416   -1.6747 C   0  0  0  0  0  0  0  0  0  0  0  0
   -0.5963   -0.2719    2.4798 C   0  0  0  0  0  0  0  0  0  0  0  0
   -2.0238    1.1392   -2.1658 C   0  0  0  0  0  0  0  0  0  0  0  0
   -4.0336   -2.4395   -0.1928 C   0  0  0  0  0  0  0  0  0  0  0  0
   -5.1371   -0.4168    0.7764 C   0  0  0  0  0  0  0  0  0  0  0  0
    2.7531   -0.2643   -0.7038 C   0  0  0  0  0  0  0  0  0  0  0  0
    2.5936   -1.2523   -1.6548 C   0  0  0  0  0  0  0  0  0  0  0  0
    2.9307   -2.5522   -1.2942 C   0  0  0  0  0  0  0  0  0  0  0  0
    3.5282   -1.7438    0.8613 C   0  0  0  0  0  0  0  0  0  0  0  0
    3.4076   -2.8111   -0.0139 C   0  0  0  0  0  0  0  0  0  0  0  0
   -0.1287    1.9905   -1.8474 H   0  0  0  0  0  0  0  0  0  0  0  0
   -2.5021   -1.1474    2.1202 H   0  0  0  0  0  0  0  0  0  0  0  0
    1.2898    0.6915    2.6348 H   0  0  0  0  0  0  0  0  0  0  0  0
   -3.9245    0.1557   -2.2980 H   0  0  0  0  0  0  0  0  0  0  0  0
   -0.5234   -0.7020    3.4746 H   0  0  0  0  0  0  0  0  0  0  0  0
   -2.0947    1.5628   -3.1635 H   0  0  0  0  0  0  0  0  0  0  0  0
    2.1492    1.2698   -2.0079 H   0  0  0  0  0  0  0  0  0  0  0  0
   -3.2788   -2.9380    0.4241 H   0  0  0  0  0  0  0  0  0  0  0  0
   -3.8140   -2.6527   -1.2447 H   0  0  0  0  0  0  0  0  0  0  0  0
   -5.0045   -2.8929    0.0336 H   0  0  0  0  0  0  0  0  0  0  0  0
   -5.7972    0.1180    0.0856 H   0  0  0  0  0  0  0  0  0  0  0  0
   -4.7792    0.2939    1.5293 H   0  0  0  0  0  0  0  0  0  0  0  0
   -5.7354   -1.1698    1.3003 H   0  0  0  0  0  0  0  0  0  0  0  0
    2.2190   -1.0379   -2.6496 H   0  0  0  0  0  0  0  0  0  0  0  0
    2.8211   -3.3622   -2.0091 H   0  0  0  0  0  0  0  0  0  0  0  0
    3.8940   -1.8925    1.8719 H   0  0  0  0  0  0  0  0  0  0  0  0
    3.6758   -3.8166    0.2894 H   0  0  0  0  0  0  0  0  0  0  0  0
  1  2  2  0  0  0  0
  1  3  2  0  0  0  0
  1  5  1  0  0  0  0
  1  9  1  0  0  0  0
  4 10  1  0  0  0  0
  4 17  1  0  0  0  0
  4 18  1  0  0  0  0
  5 19  1  0  0  0  0
  5 30  1  0  0  0  0
  6 19  1  0  0  0  0
  6 22  2  0  0  0  0
  7  8  2  0  0  0  0
  7  9  1  0  0  0  0
  7 11  1  0  0  0  0
  8 10  1  0  0  0  0
  8 12  1  0  0  0  0
  9 13  2  0  0  0  0
 10 14  2  0  0  0  0
 11 16  2  0  0  0  0
 11 24  1  0  0  0  0
 12 15  2  0  0  0  0
 12 25  1  0  0  0  0
 13 15  1  0  0  0  0
 13 26  1  0  0  0  0
 14 16  1  0  0  0  0
 14 27  1  0  0  0  0
 15 28  1  0  0  0  0
 16 29  1  0  0  0  0
 17 31  1  0  0  0  0
 17 32  1  0  0  0  0
 17 33  1  0  0  0  0
 18 34  1  0  0  0  0
 18 35  1  0  0  0  0
 18 36  1  0  0  0  0
 19 20  2  0  0  0  0
 20 21  1  0  0  0  0
 20 37  1  0  0  0  0
 21 23  2  0  0  0  0
 21 38  1  0  0  0  0
 22 23  1  0  0  0  0
 22 39  1  0  0  0  0
 23 40  1  0  0  0  0
M  END
> <PUBCHEM_COMPOUND_CID>
664985

> <PUBCHEM_CONFORMER_RMSD>
0.8

> <PUBCHEM_CONFORMER_DIVERSEORDER>
1
20
12
21
3
24
5
14
23
2
19
22
17
18
15
13
8
10
4
6
11
16
9
7

> <PUBCHEM_MMFF94_PARTIAL_CHARGES>
32
1 1.45
10 0.1
11 -0.15
12 -0.15
13 -0.15
14 -0.15
15 -0.15
16 -0.15
17 0.37
18 0.37
19 0.51
2 -0.65
20 -0.15
21 -0.15
22 0.16
23 -0.15
24 0.15
25 0.15
26 0.15
27 0.15
28 0.15
29 0.15
3 -0.65
30 0.42
37 0.15
38 0.15
39 0.15
4 -0.84
40 0.15
5 -0.76
6 -0.62
9 -0.01

> <PUBCHEM_EFFECTIVE_ROTOR_COUNT>
4

> <PUBCHEM_PHARMACOPHORE_FEATURES>
8
1 2 acceptor
1 3 acceptor
1 4 cation
1 5 donor
1 6 acceptor
6 6 19 20 21 22 23 rings
6 7 8 10 11 14 16 rings
6 7 8 9 12 13 15 rings

> <PUBCHEM_HEAVY_ATOM_COUNT>
23

> <PUBCHEM_ATOM_DEF_STEREO_COUNT>
0

> <PUBCHEM_ATOM_UDEF_STEREO_COUNT>
0

> <PUBCHEM_BOND_DEF_STEREO_COUNT>
0

> <PUBCHEM_BOND_UDEF_STEREO_COUNT>
0

> <PUBCHEM_ISOTOPIC_ATOM_COUNT>
0

> <PUBCHEM_COMPONENT_COUNT>
1

> <PUBCHEM_CACTVS_TAUTO_COUNT>
2

> <PUBCHEM_CONFORMER_ID>
000A259900000001

> <PUBCHEM_MMFF94_ENERGY>
86.3075

> <PUBCHEM_FEATURE_SELFOVERLAP>
40.644

> <PUBCHEM_SHAPE_FINGERPRINT>
11578080 2 17273391916841237248
11582403 64 16315751481304284700
11796584 16 17845948445536461927
12363563 72 18265899060248581806
12553582 1 17917429787674236086
128993 33 9510585902181317806
13544653 18 17631717271670227502
13583140 156 17416966321695372745
13911987 19 17974601227508602660
14022347 108 15553345767849286809
14341114 328 15338250434280121698
14848160 33 18342451513349633830
15375462 189 16917063399390959727
15422964 175 18129947750108777446
15475509 35 17631163268572222207
15848702 105 13768508507972827793
15848702 151 18335983159947975145
16752209 62 16443059487455735965
17818456 19 17630346159375182681
1813 80 18059304145182712006
20691752 17 17968366970360902267
20775530 9 17913213061650748718
21421861 104 17275389815140677426
21731516 1 18127427669684456022
22907989 373 16155714174856339751
23526113 38 18040444282519365448
23557571 272 17895183420185612505
23559900 14 18340204201797748273
23728640 28 16898781489302726738
238 59 18116163344719536590
2637199 183 14201973241856672110
2748010 2 16157095411154401057
3323516 105 18259984868675212995
34934 24 15338275804245653521
3797600 57 17344073136842187446
392239 28 16126933406381558450
394222 165 17058646489645535536
4072396 5 15841283549780999091
4340502 62 17700696439113400451
463206 1 18187366471846610067
5262128 65 17676779707630718996
7399639 24 18049990384074255861
84936 31 18200307857033355832
8509985 295 16702308949334399673
90316 7 15123501476463008891
9981440 41 13699293229414094444

> <PUBCHEM_SHAPE_MULTIPOLES>
450.5
7.64
2.84
2.06
4.07
0.02
-0.28
-5.55
0.7
-2.33
0.46
0.34
0.18
1.04

> <PUBCHEM_SHAPE_SELFOVERLAP>
967.77

> <PUBCHEM_SHAPE_VOLUME>
249.8

> <PUBCHEM_COORDINATE_TYPE>
2
5
10

$$$$
