1470429
  -OEChem-01171812083D

 41 42  0     0  0  0  0  0  0999 V2000
    2.3926   -3.0728   -0.1586 S   0  0  0  0  0  0  0  0  0  0  0  0
   -0.2095   -2.0432    1.0403 S   0  0  0  0  0  0  0  0  0  0  0  0
    3.6117   -0.7871    1.6145 O   0  0  0  0  0  0  0  0  0  0  0  0
   -3.3500    0.4132   -1.3670 O   0  0  0  0  0  0  0  0  0  0  0  0
    2.9844    0.5738   -0.1627 N   0  0  0  0  0  0  0  0  0  0  0  0
   -2.3949   -0.6872    0.4855 N   0  0  0  0  0  0  0  0  0  0  0  0
    0.4796   -1.6519   -1.3967 N   0  0  0  0  0  0  0  0  0  0  0  0
   -0.7499   -1.0332   -1.2517 N   0  0  0  0  0  0  0  0  0  0  0  0
    2.7839    1.7891    0.5873 C   0  0  0  0  0  0  0  0  0  0  0  0
    1.3356    1.9416    1.0342 C   0  0  0  0  0  0  0  0  0  0  0  0
    3.0052    3.0294   -0.2703 C   0  0  0  0  0  0  0  0  0  0  0  0
    0.6159    2.5121   -0.1849 C   0  0  0  0  0  0  0  0  0  0  0  0
    1.6806    3.2463   -1.0003 C   0  0  0  0  0  0  0  0  0  0  0  0
    3.3842   -0.6209    0.4173 C   0  0  0  0  0  0  0  0  0  0  0  0
    3.5407   -1.7413   -0.5838 C   0  0  0  0  0  0  0  0  0  0  0  0
   -4.5656    0.4063    0.7148 C   0  0  0  0  0  0  0  0  0  0  0  0
   -3.3794    0.0598   -0.1920 C   0  0  0  0  0  0  0  0  0  0  0  0
   -5.6095   -0.7076    0.6618 C   0  0  0  0  0  0  0  0  0  0  0  0
   -5.1922    1.7420    0.3196 C   0  0  0  0  0  0  0  0  0  0  0  0
    0.8567   -2.2061   -0.2779 C   0  0  0  0  0  0  0  0  0  0  0  0
   -1.2202   -1.1624   -0.0295 C   0  0  0  0  0  0  0  0  0  0  0  0
    3.4599    1.7795    1.4489 H   0  0  0  0  0  0  0  0  0  0  0  0
    0.8819    1.0091    1.3803 H   0  0  0  0  0  0  0  0  0  0  0  0
    1.2784    2.6666    1.8556 H   0  0  0  0  0  0  0  0  0  0  0  0
    3.2023    3.8934    0.3764 H   0  0  0  0  0  0  0  0  0  0  0  0
    3.8448    2.9331   -0.9660 H   0  0  0  0  0  0  0  0  0  0  0  0
   -0.2046    3.1747    0.1080 H   0  0  0  0  0  0  0  0  0  0  0  0
    0.1845    1.7039   -0.7858 H   0  0  0  0  0  0  0  0  0  0  0  0
    1.7270    2.8302   -2.0132 H   0  0  0  0  0  0  0  0  0  0  0  0
    1.4533    4.3131   -1.0958 H   0  0  0  0  0  0  0  0  0  0  0  0
    2.7711    0.5909   -1.1558 H   0  0  0  0  0  0  0  0  0  0  0  0
    3.3631   -1.4071   -1.6102 H   0  0  0  0  0  0  0  0  0  0  0  0
    4.5683   -2.1132   -0.5265 H   0  0  0  0  0  0  0  0  0  0  0  0
   -4.2020    0.5000    1.7458 H   0  0  0  0  0  0  0  0  0  0  0  0
   -5.9956   -0.8407   -0.3549 H   0  0  0  0  0  0  0  0  0  0  0  0
   -5.1752   -1.6633    0.9748 H   0  0  0  0  0  0  0  0  0  0  0  0
   -6.4531   -0.4860    1.3235 H   0  0  0  0  0  0  0  0  0  0  0  0
   -5.6177    1.7039   -0.6894 H   0  0  0  0  0  0  0  0  0  0  0  0
   -5.9921    2.0177    1.0146 H   0  0  0  0  0  0  0  0  0  0  0  0
   -4.4417    2.5398    0.3320 H   0  0  0  0  0  0  0  0  0  0  0  0
   -2.5540   -0.9141    1.4636 H   0  0  0  0  0  0  0  0  0  0  0  0
  1 15  1  0  0  0  0
  1 20  1  0  0  0  0
  2 20  1  0  0  0  0
  2 21  1  0  0  0  0
  3 14  2  0  0  0  0
  4 17  2  0  0  0  0
  5  9  1  0  0  0  0
  5 14  1  0  0  0  0
  5 31  1  0  0  0  0
  6 17  1  0  0  0  0
  6 21  1  0  0  0  0
  6 41  1  0  0  0  0
  7  8  1  0  0  0  0
  7 20  2  0  0  0  0
  8 21  2  0  0  0  0
  9 10  1  0  0  0  0
  9 11  1  0  0  0  0
  9 22  1  0  0  0  0
 10 12  1  0  0  0  0
 10 23  1  0  0  0  0
 10 24  1  0  0  0  0
 11 13  1  0  0  0  0
 11 25  1  0  0  0  0
 11 26  1  0  0  0  0
 12 13  1  0  0  0  0
 12 27  1  0  0  0  0
 12 28  1  0  0  0  0
 13 29  1  0  0  0  0
 13 30  1  0  0  0  0
 14 15  1  0  0  0  0
 15 32  1  0  0  0  0
 15 33  1  0  0  0  0
 16 17  1  0  0  0  0
 16 18  1  0  0  0  0
 16 19  1  0  0  0  0
 16 34  1  0  0  0  0
 18 35  1  0  0  0  0
 18 36  1  0  0  0  0
 18 37  1  0  0  0  0
 19 38  1  0  0  0  0
 19 39  1  0  0  0  0
 19 40  1  0  0  0  0
M  END
> <PUBCHEM_COMPOUND_CID>
1470429

> <PUBCHEM_CONFORMER_RMSD>
0.8

> <PUBCHEM_CONFORMER_DIVERSEORDER>
2
7
344
441
257
448
388
406
161
416
230
319
322
82
440
95
444
360
358
330
284
214
394
293
41
223
218
447
305
98
97
339
198
306
425
187
300
136
159
363
343
398
267
421
85
285
30
451
199
419
205
209
90
417
286
191
276
66
176
345
331
355
216
370
377
241
326
194
426
248
410
327
128
134
251
371
445
430
437
350
317
150
120
424
221
3
402
45
81
392
175
308
147
21
332
237
349
151
181
334
456
375
179
69
393
288
302
274
192
352
405
29
369
91
362
166
6
439
429
270
422
61
291
387
242
329
202
213
111
453
126
1
401
163
340
210
158
34
113
301
183
442
153
433
186
423
411
105
381
177
336
86
206
390
162
135
428
212
396
386
217
282
258
434
155
454
287
364
67
435
321
112
70
80
382
446
374
55
400
247
236
277
129
75
311
156
38
229
189
418
380
309
72
367
73
378
313
361
154
141
188
414
268
203
356
298
164
438
325
379
89
366
376
436
157
197
215
94
167
318
312
103
342
351
168
50
19
224
296
53
365
200
384
432
253
383
271
130
56
324
77
243
273
368
316
415
180
144
24
26
178
54
397
412
59
190
25
184
359
455
118
87
119
269
52
18
15
169
240
107
250
48
299
100
101
404
220
310
49
8
93
399
133
337
222
71
125
357
110
263
143
328
131
201
106
389
171
290
452
341
395
40
211
114
207
315
420
403
385
295
88
84
266
409
225
239
165
249
9
427
44
449
264
63
279
413
408
372
297
22
117
256
145
407
278
443
65
347
96
450
289
294
142
354
335
146
195
346
14
20
235
127
303
219
391
39
4
28
265
79
32
307
252
173
353
16
185
46
13
5
174
31
132
231
148
99
232
51
262
228
373
246
122
226
42
104
234
78
292
47
208
149
348
314
272
254
121
60
123
10
431
160
320
116
37
196
260
333
92
281
323
283
68
338
83
138
170
259
139
140
62
280
76
33
124
23
193
227
172
152
64
275
74
12
58
245
115
137
182
261
238
102
11
204
233
27
57
255
35
109
304
36
244
108
43
17

> <PUBCHEM_MMFF94_PARTIAL_CHARGES>
17
1 -0.29
14 0.57
15 0.29
16 0.06
17 0.57
2 -0.08
20 0.43
21 0.44
3 -0.57
31 0.37
4 -0.57
41 0.37
5 -0.73
6 -0.49
7 -0.34
8 -0.34
9 0.3

> <PUBCHEM_EFFECTIVE_ROTOR_COUNT>
9

> <PUBCHEM_PHARMACOPHORE_FEATURES>
8
1 3 acceptor
1 4 acceptor
1 5 donor
1 6 donor
1 7 acceptor
3 16 18 19 hydrophobe
5 2 7 8 20 21 rings
5 9 10 11 12 13 rings

> <PUBCHEM_HEAVY_ATOM_COUNT>
21

> <PUBCHEM_ATOM_DEF_STEREO_COUNT>
0

> <PUBCHEM_ATOM_UDEF_STEREO_COUNT>
0

> <PUBCHEM_BOND_DEF_STEREO_COUNT>
0

> <PUBCHEM_BOND_UDEF_STEREO_COUNT>
0

> <PUBCHEM_ISOTOPIC_ATOM_COUNT>
0

> <PUBCHEM_COMPONENT_COUNT>
1

> <PUBCHEM_CACTVS_TAUTO_COUNT>
6

> <PUBCHEM_CONFORMER_ID>
00166FDD00000002

> <PUBCHEM_MMFF94_ENERGY>
26.5805

> <PUBCHEM_FEATURE_SELFOVERLAP>
40.596

> <PUBCHEM_SHAPE_FINGERPRINT>
10366900 7 17749398039962012291
10382601 240 18042671979224843176
10688039 33 18043251236920686908
11045977 3 18187372017318671579
12173636 292 17619066574048146268
12403259 327 17749105591196394994
12422481 6 18053350281413214306
12596602 18 13912622532349936407
12617007 42 18200610111525893286
12633257 1 18114451323136366243
13075007 39 18041861583198953809
13140716 1 18339634667817581506
13422730 153 18199727281203857727
13583140 156 17895739730652662459
14178342 30 17619331543787701192
14251764 38 18335988670364694337
14251764 75 18124612017785210025
15081414 286 18341332198065070396
151778 21 18190748719968697629
15210252 30 18187945940939648516
15238133 3 18260832596841325422
15475509 84 17178551166243635683
1601671 61 18412545379825646586
17859628 37 18411982464036772278
18785283 64 18261960742351458157
20465049 17 18194986229603135932
21041028 32 17976246951190757374
21304253 335 17775000146328158585
21475661 188 18334290942659602565
21860390 5 18343305838084087134
23558518 356 18048026660401691546
23559900 14 18339928095752184411
3014063 31 18194683661599201813
3052486 1 18046912567607462588
338550 245 18196105339135911977
474 4 18412262856729508595
484985 159 14934596329647985162
49207404 50 18116725190850629851
5283268 108 18265895753054945282
5939293 188 18410290328853593656
6443956 14 18340772528908059224

> <PUBCHEM_SHAPE_MULTIPOLES>
408.21
9.4
3.96
1.18
14.55
1.63
0.02
1.45
-1.69
-4.3
0.5
-0.18
-0.11
0.07

> <PUBCHEM_SHAPE_SELFOVERLAP>
803.67

> <PUBCHEM_SHAPE_VOLUME>
246.2

> <PUBCHEM_COORDINATE_TYPE>
2
5
10

$$$$
