2865279
  -OEChem-01171811403D

 31 32  0     1  0  0  0  0  0999 V2000
   -0.0831   -2.2920    0.3458 O   0  0  0  0  0  0  0  0  0  0  0  0
   -0.0707   -1.1781   -1.7470 O   0  0  0  0  0  0  0  0  0  0  0  0
   -3.0820    1.4113   -1.4689 O   0  0  0  0  0  0  0  0  0  0  0  0
    2.5632    2.2805    0.3912 O   0  0  0  0  0  0  0  0  0  0  0  0
   -1.6418    0.0069    0.5504 N   0  0  1  0  0  0  0  0  0  0  0  0
    0.3463   -1.1232   -0.3730 C   0  0  1  0  0  0  0  0  0  0  0  0
   -0.2767    0.1195    0.2447 C   0  0  0  0  0  0  0  0  0  0  0  0
   -2.1647   -1.2773    1.0343 C   0  0  0  0  0  0  0  0  0  0  0  0
   -1.5028   -2.4443    0.3217 C   0  0  0  0  0  0  0  0  0  0  0  0
   -2.4854    1.1635    0.8422 C   0  0  0  0  0  0  0  0  0  0  0  0
    1.8504   -1.1172   -0.3529 C   0  0  0  0  0  0  0  0  0  0  0  0
    0.4699    1.2124    0.4855 C   0  0  0  0  0  0  0  0  0  0  0  0
    2.6068   -0.0457   -0.0783 C   0  0  0  0  0  0  0  0  0  0  0  0
    1.9339    1.2351    0.2596 C   0  0  0  0  0  0  0  0  0  0  0  0
   -2.5653    2.1085   -0.3429 C   0  0  0  0  0  0  0  0  0  0  0  0
    4.1020   -0.0599   -0.1125 C   0  0  0  0  0  0  0  0  0  0  0  0
   -3.2497   -1.3444    0.8955 H   0  0  0  0  0  0  0  0  0  0  0  0
   -1.9596   -1.3424    2.1099 H   0  0  0  0  0  0  0  0  0  0  0  0
   -1.7495   -3.3811    0.8318 H   0  0  0  0  0  0  0  0  0  0  0  0
   -1.8540   -2.5368   -0.7124 H   0  0  0  0  0  0  0  0  0  0  0  0
   -2.1172    1.6893    1.7309 H   0  0  0  0  0  0  0  0  0  0  0  0
   -3.5040    0.8318    1.0803 H   0  0  0  0  0  0  0  0  0  0  0  0
    2.3417   -2.0502   -0.6231 H   0  0  0  0  0  0  0  0  0  0  0  0
    0.0578    2.1144    0.9245 H   0  0  0  0  0  0  0  0  0  0  0  0
   -1.6020    2.5352   -0.6289 H   0  0  0  0  0  0  0  0  0  0  0  0
   -3.2383    2.9428   -0.1189 H   0  0  0  0  0  0  0  0  0  0  0  0
    0.6162   -1.6238   -2.2707 H   0  0  0  0  0  0  0  0  0  0  0  0
    4.5088    0.2201    0.8648 H   0  0  0  0  0  0  0  0  0  0  0  0
    4.4750    0.6475   -0.8604 H   0  0  0  0  0  0  0  0  0  0  0  0
    4.4967   -1.0496   -0.3651 H   0  0  0  0  0  0  0  0  0  0  0  0
   -3.9566    1.0638   -1.2242 H   0  0  0  0  0  0  0  0  0  0  0  0
  1  6  1  0  0  0  0
  1  9  1  0  0  0  0
  2  6  1  0  0  0  0
  2 27  1  0  0  0  0
  3 15  1  0  0  0  0
  3 31  1  0  0  0  0
  4 14  2  0  0  0  0
  5  7  1  0  0  0  0
  5  8  1  0  0  0  0
  5 10  1  0  0  0  0
  6  7  1  0  0  0  0
  6 11  1  0  0  0  0
  7 12  2  0  0  0  0
  8  9  1  0  0  0  0
  8 17  1  0  0  0  0
  8 18  1  0  0  0  0
  9 19  1  0  0  0  0
  9 20  1  0  0  0  0
 10 15  1  0  0  0  0
 10 21  1  0  0  0  0
 10 22  1  0  0  0  0
 11 13  2  0  0  0  0
 11 23  1  0  0  0  0
 12 14  1  0  0  0  0
 12 24  1  0  0  0  0
 13 14  1  0  0  0  0
 13 16  1  0  0  0  0
 15 25  1  0  0  0  0
 15 26  1  0  0  0  0
 16 28  1  0  0  0  0
 16 29  1  0  0  0  0
 16 30  1  0  0  0  0
M  END
> <PUBCHEM_COMPOUND_CID>
2865279

> <PUBCHEM_CONFORMER_RMSD>
0.6

> <PUBCHEM_CONFORMER_DIVERSEORDER>
2
8
3
7
1
4
5
6

> <PUBCHEM_MMFF94_PARTIAL_CHARGES>
20
1 -0.56
10 0.37
11 -0.29
12 -0.14
13 -0.12
14 0.54
15 0.28
16 0.14
2 -0.68
23 0.15
24 0.15
27 0.4
3 -0.68
31 0.4
4 -0.57
5 -0.84
6 0.84
7 -0.04
8 0.37
9 0.28

> <PUBCHEM_EFFECTIVE_ROTOR_COUNT>
2.8

> <PUBCHEM_PHARMACOPHORE_FEATURES>
9
1 1 acceptor
1 2 acceptor
1 2 donor
1 3 acceptor
1 3 donor
1 4 acceptor
1 5 cation
6 1 5 6 7 8 9 rings
6 6 7 11 12 13 14 rings

> <PUBCHEM_HEAVY_ATOM_COUNT>
16

> <PUBCHEM_ATOM_DEF_STEREO_COUNT>
0

> <PUBCHEM_ATOM_UDEF_STEREO_COUNT>
1

> <PUBCHEM_BOND_DEF_STEREO_COUNT>
0

> <PUBCHEM_BOND_UDEF_STEREO_COUNT>
0

> <PUBCHEM_ISOTOPIC_ATOM_COUNT>
0

> <PUBCHEM_COMPONENT_COUNT>
1

> <PUBCHEM_CACTVS_TAUTO_COUNT>
1

> <PUBCHEM_CONFORMER_ID>
002BB87F00000002

> <PUBCHEM_MMFF94_ENERGY>
30.6734

> <PUBCHEM_FEATURE_SELFOVERLAP>
45.74

> <PUBCHEM_SHAPE_FINGERPRINT>
10608611 8 18339927125025823856
10967382 1 18195535800495929672
12077114 3 18187645777858592856
12138202 97 18333731286639921359
12730499 353 17973161734838562069
13140716 1 18341617048685895440
13380535 76 18341050713902410587
13464514 151 17832987144184728901
14614273 12 18053099815594224616
15279308 100 18409449172219890324
16945 1 18340776935723274888
18186145 218 18197223554918123317
18219364 16 18265066755521065073
20511035 2 18272368702604002956
21501502 16 18268439107964740858
21524375 3 18412825755079719919
2334 1 18269276944483904840
23402539 116 18340204198025176231
23559900 14 18270691875132712878
25 1 18193556658117801293
2748010 2 18270686479746479440
5255222 1 17769939304869861264
6333449 129 18408325475541301009
81228 2 18046626978114996561

> <PUBCHEM_SHAPE_MULTIPOLES>
300.81
5
2.56
1.05
2.34
0.31
0.34
-2.06
0.16
-1.11
-0.09
-0.61
0.02
0.83

> <PUBCHEM_SHAPE_SELFOVERLAP>
628.853

> <PUBCHEM_SHAPE_VOLUME>
168.3

> <PUBCHEM_COORDINATE_TYPE>
2
5
10

$$$$
