5759521
  -OEChem-01171811443D

 45 48  0     0  0  0  0  0  0999 V2000
   -2.3984   -1.3596    0.2623 S   0  0  0  0  0  0  0  0  0  0  0  0
   -7.5331   -0.4829    0.3042 O   0  0  0  0  0  0  0  0  0  0  0  0
    2.4687   -1.2797    0.1363 O   0  0  0  0  0  0  0  0  0  0  0  0
    4.1547    0.3900   -0.0754 N   0  0  0  0  0  0  0  0  0  0  0  0
    4.1959    1.7755   -0.2151 N   0  0  0  0  0  0  0  0  0  0  0  0
   -0.1761    0.0801    0.0657 N   0  0  0  0  0  0  0  0  0  0  0  0
   -2.2531    1.2027    0.0061 N   0  0  0  0  0  0  0  0  0  0  0  0
    2.0194    1.0815   -0.0890 C   0  0  0  0  0  0  0  0  0  0  0  0
    2.9601    2.1937   -0.2232 C   0  0  0  0  0  0  0  0  0  0  0  0
    2.8526   -0.1328    0.0112 C   0  0  0  0  0  0  0  0  0  0  0  0
    5.2926   -0.4001   -0.0262 C   0  0  0  0  0  0  0  0  0  0  0  0
   -3.8812   -0.4813    0.2124 C   0  0  0  0  0  0  0  0  0  0  0  0
   -3.6011    0.8813    0.0716 C   0  0  0  0  0  0  0  0  0  0  0  0
    0.6894    1.1203   -0.0595 C   0  0  0  0  0  0  0  0  0  0  0  0
   -1.5788    0.1085    0.0978 C   0  0  0  0  0  0  0  0  0  0  0  0
   -5.1977   -0.9632    0.2926 C   0  0  0  0  0  0  0  0  0  0  0  0
    2.5546    3.6215   -0.3552 C   0  0  0  0  0  0  0  0  0  0  0  0
   -6.2457   -0.0412    0.2284 C   0  0  0  0  0  0  0  0  0  0  0  0
   -4.6786    1.7917    0.0096 C   0  0  0  0  0  0  0  0  0  0  0  0
   -5.9917    1.3189    0.0889 C   0  0  0  0  0  0  0  0  0  0  0  0
    5.2602   -1.7162   -0.5008 C   0  0  0  0  0  0  0  0  0  0  0  0
    6.4853    0.1112    0.4977 C   0  0  0  0  0  0  0  0  0  0  0  0
    6.4056   -2.5107   -0.4521 C   0  0  0  0  0  0  0  0  0  0  0  0
    7.6307   -0.6834    0.5463 C   0  0  0  0  0  0  0  0  0  0  0  0
    7.5908   -1.9943    0.0714 C   0  0  0  0  0  0  0  0  0  0  0  0
   -7.7997   -1.7898   -0.1996 C   0  0  0  0  0  0  0  0  0  0  0  0
   -9.2253   -1.8416   -0.7064 C   0  0  0  0  0  0  0  0  0  0  0  0
    0.1857    2.0786   -0.1424 H   0  0  0  0  0  0  0  0  0  0  0  0
    0.2648   -0.8328    0.1450 H   0  0  0  0  0  0  0  0  0  0  0  0
   -5.3627   -2.0268    0.4301 H   0  0  0  0  0  0  0  0  0  0  0  0
    1.9747    3.9241    0.5209 H   0  0  0  0  0  0  0  0  0  0  0  0
    1.9484    3.7515   -1.2558 H   0  0  0  0  0  0  0  0  0  0  0  0
    3.4405    4.2581   -0.4300 H   0  0  0  0  0  0  0  0  0  0  0  0
   -4.4914    2.8562   -0.0995 H   0  0  0  0  0  0  0  0  0  0  0  0
   -6.8156    2.0265    0.0401 H   0  0  0  0  0  0  0  0  0  0  0  0
    4.3750   -2.1476   -0.9574 H   0  0  0  0  0  0  0  0  0  0  0  0
    6.5399    1.1276    0.8799 H   0  0  0  0  0  0  0  0  0  0  0  0
    6.3780   -3.5283   -0.8310 H   0  0  0  0  0  0  0  0  0  0  0  0
    8.5534   -0.2819    0.9548 H   0  0  0  0  0  0  0  0  0  0  0  0
    8.4832   -2.6122    0.1075 H   0  0  0  0  0  0  0  0  0  0  0  0
   -7.1438   -2.0457   -1.0412 H   0  0  0  0  0  0  0  0  0  0  0  0
   -7.6668   -2.5208    0.6056 H   0  0  0  0  0  0  0  0  0  0  0  0
   -9.4683   -2.8359   -1.0917 H   0  0  0  0  0  0  0  0  0  0  0  0
   -9.9286   -1.5924    0.0951 H   0  0  0  0  0  0  0  0  0  0  0  0
   -9.3784   -1.1066   -1.5035 H   0  0  0  0  0  0  0  0  0  0  0  0
  1 12  1  0  0  0  0
  1 15  1  0  0  0  0
  2 18  1  0  0  0  0
  2 26  1  0  0  0  0
  3 10  2  0  0  0  0
  4  5  1  0  0  0  0
  4 10  1  0  0  0  0
  4 11  1  0  0  0  0
  5  9  2  0  0  0  0
  6 14  1  0  0  0  0
  6 15  1  0  0  0  0
  6 29  1  0  0  0  0
  7 13  1  0  0  0  0
  7 15  2  0  0  0  0
  8  9  1  0  0  0  0
  8 10  1  0  0  0  0
  8 14  2  0  0  0  0
  9 17  1  0  0  0  0
 11 21  2  0  0  0  0
 11 22  1  0  0  0  0
 12 13  2  0  0  0  0
 12 16  1  0  0  0  0
 13 19  1  0  0  0  0
 14 28  1  0  0  0  0
 16 18  2  0  0  0  0
 16 30  1  0  0  0  0
 17 31  1  0  0  0  0
 17 32  1  0  0  0  0
 17 33  1  0  0  0  0
 18 20  1  0  0  0  0
 19 20  2  0  0  0  0
 19 34  1  0  0  0  0
 20 35  1  0  0  0  0
 21 23  1  0  0  0  0
 21 36  1  0  0  0  0
 22 24  2  0  0  0  0
 22 37  1  0  0  0  0
 23 25  2  0  0  0  0
 23 38  1  0  0  0  0
 24 25  1  0  0  0  0
 24 39  1  0  0  0  0
 25 40  1  0  0  0  0
 26 27  1  0  0  0  0
 26 41  1  0  0  0  0
 26 42  1  0  0  0  0
 27 43  1  0  0  0  0
 27 44  1  0  0  0  0
 27 45  1  0  0  0  0
M  END
> <PUBCHEM_COMPOUND_CID>
5759521

> <PUBCHEM_CONFORMER_RMSD>
0.8

> <PUBCHEM_CONFORMER_DIVERSEORDER>
1
12
7
18
9
21
5
23
11
10
19
14
16
22
17
8
6
2
3
4
15
13
20

> <PUBCHEM_MMFF94_PARTIAL_CHARGES>
36
1 -0.08
10 0.62
11 0.12
12 0.04
13 0.23
14 -0.05
15 0.46
16 -0.15
17 0.06
18 0.08
19 -0.15
2 -0.36
20 -0.15
21 -0.15
22 -0.15
23 -0.15
24 -0.15
25 -0.15
26 0.28
28 0.15
29 0.4
3 -0.57
30 0.15
34 0.15
35 0.15
36 0.15
37 0.15
38 0.15
39 0.15
4 -0.11
40 0.15
5 -0.51
6 -0.58
7 -0.57
8 0.03
9 0.37

> <PUBCHEM_EFFECTIVE_ROTOR_COUNT>
5.2

> <PUBCHEM_PHARMACOPHORE_FEATURES>
9
1 2 acceptor
1 3 acceptor
1 5 acceptor
1 6 donor
3 6 7 15 cation
5 1 7 12 13 15 rings
5 4 5 8 9 10 rings
6 11 21 22 23 24 25 rings
6 12 13 16 18 19 20 rings

> <PUBCHEM_HEAVY_ATOM_COUNT>
27

> <PUBCHEM_ATOM_DEF_STEREO_COUNT>
0

> <PUBCHEM_ATOM_UDEF_STEREO_COUNT>
0

> <PUBCHEM_BOND_DEF_STEREO_COUNT>
1

> <PUBCHEM_BOND_UDEF_STEREO_COUNT>
0

> <PUBCHEM_ISOTOPIC_ATOM_COUNT>
0

> <PUBCHEM_COMPONENT_COUNT>
1

> <PUBCHEM_CACTVS_TAUTO_COUNT>
5

> <PUBCHEM_CONFORMER_ID>
0057E22100000001

> <PUBCHEM_MMFF94_ENERGY>
87.0469

> <PUBCHEM_FEATURE_SELFOVERLAP>
45.746

> <PUBCHEM_SHAPE_FINGERPRINT>
10 15 11815901158809078271
10299344 5 18408889524779457707
10411042 1 18337673002442004812
10670039 82 15791726365292722709
11386260 185 17022905704437947645
11456790 92 18202015326315476777
11524674 6 17275101726094192519
11638347 137 15410901738927140670
11719270 70 18201720626865591462
12166972 35 18272089396406955504
12516196 113 18411699851521650648
12592606 108 18410855455933817574
12645989 146 18408888455918313261
13533116 47 18411140276647970769
13673619 4 17967534553995611628
13685833 64 18410013217611167450
13885169 127 18410573938408321633
14170010 4 18411418423779121848
14251764 18 18410858762958012422
15183329 4 17967813821052767722
15198563 99 15213575638191047990
15419008 91 18263061293731390580
15690457 1 18343298180453180111
15849732 13 18130786738010940518
16120349 18 18336826498505296820
1754911 235 10809344446862571403
1768 124 18131351882561444054
18681886 176 18412538812678272218
2026 5 18339360769032169455
20721686 124 11674873374137194688
21130935 74 18201440208134246298
21267235 1 18408889524853408241
21315759 40 17989210369581000483
21315763 28 18411136952965327577
22224240 67 11599716264824293916
232437 2 18411982447659197642
23522609 53 18046379403485095108
23559900 14 18410570716739874736
23569917 315 18336271227906415331
23569943 247 17907303144108098178
23576562 1 13696449840832028627
249057 25 18130521794221544689
3004659 81 18260266343535937736
3103668 31 17824539673626991212
335352 9 18334861632307576262
3383291 50 18408323302473232771
4073 2 17968383467250749642
4340502 62 14907896051635469956
59755656 215 17821446837442622890
6081469 158 17894908538563703735
6138700 20 18335140869537559011
6438161 24 18411135844315255946
99344 41 18343303626835669399
9962374 69 18340480174720840767

> <PUBCHEM_SHAPE_MULTIPOLES>
527.83
26.53
2.74
0.68
17.88
1.23
0.01
-17.72
0.6
-2.13
0.47
-0.02
-0.07
-0.39

> <PUBCHEM_SHAPE_SELFOVERLAP>
1142.779

> <PUBCHEM_SHAPE_VOLUME>
291.5

> <PUBCHEM_COORDINATE_TYPE>
2
5
10

$$$$
