1043500
  -OEChem-01171811513D

 43 46  0     0  0  0  0  0  0999 V2000
    2.7510    2.0412   -0.8961 S   0  0  0  0  0  0  0  0  0  0  0  0
    3.3304    3.2120   -0.2518 O   0  0  0  0  0  0  0  0  0  0  0  0
    2.5754    2.0221   -2.3412 O   0  0  0  0  0  0  0  0  0  0  0  0
   -2.1683   -0.4389   -1.9513 O   0  0  0  0  0  0  0  0  0  0  0  0
   -3.1801    1.2009    2.2936 O   0  0  0  0  0  0  0  0  0  0  0  0
   -8.2681   -2.0182   -0.2383 O   0  0  0  0  0  0  0  0  0  0  0  0
    6.3599   -3.4951   -0.3537 O   0  0  0  0  0  0  0  0  0  0  0  0
    7.0878   -2.5464    1.5794 O   0  0  0  0  0  0  0  0  0  0  0  0
   -3.1443    0.1797    0.1369 N   0  0  0  0  0  0  0  0  0  0  0  0
   -1.0039    0.8054   -0.3527 C   0  0  0  0  0  0  0  0  0  0  0  0
   -1.2931    1.2647    0.9170 C   0  0  0  0  0  0  0  0  0  0  0  0
    1.1751    1.7323   -0.2066 C   0  0  0  0  0  0  0  0  0  0  0  0
    0.2249    1.0214   -0.9447 C   0  0  0  0  0  0  0  0  0  0  0  0
   -2.1789    0.1028   -0.8606 C   0  0  0  0  0  0  0  0  0  0  0  0
   -2.6632    0.8763    1.2397 C   0  0  0  0  0  0  0  0  0  0  0  0
   -0.3718    1.9702    1.6656 C   0  0  0  0  0  0  0  0  0  0  0  0
    0.8792    2.2030    1.0876 C   0  0  0  0  0  0  0  0  0  0  0  0
    3.8249    0.6995   -0.4634 C   0  0  0  0  0  0  0  0  0  0  0  0
   -4.4589   -0.3837    0.0411 C   0  0  0  0  0  0  0  0  0  0  0  0
    4.5569    0.7764    0.7063 C   0  0  0  0  0  0  0  0  0  0  0  0
    3.9072   -0.3931   -1.3055 C   0  0  0  0  0  0  0  0  0  0  0  0
   -5.1195   -0.8227    1.1906 C   0  0  0  0  0  0  0  0  0  0  0  0
   -5.0838   -0.4971   -1.2030 C   0  0  0  0  0  0  0  0  0  0  0  0
    5.4033   -0.2787    1.0465 C   0  0  0  0  0  0  0  0  0  0  0  0
    4.7535   -1.4483   -0.9651 C   0  0  0  0  0  0  0  0  0  0  0  0
    5.5016   -1.3911    0.2108 C   0  0  0  0  0  0  0  0  0  0  0  0
   -6.3981   -1.3722    1.0968 C   0  0  0  0  0  0  0  0  0  0  0  0
   -6.3624   -1.0465   -1.2969 C   0  0  0  0  0  0  0  0  0  0  0  0
   -7.0197   -1.4841   -0.1469 C   0  0  0  0  0  0  0  0  0  0  0  0
    6.3832   -2.4917    0.5660 C   0  0  0  0  0  0  0  0  0  0  0  0
    0.4328    0.6422   -1.9388 H   0  0  0  0  0  0  0  0  0  0  0  0
   -0.5992    2.3317    2.6617 H   0  0  0  0  0  0  0  0  0  0  0  0
    1.6215    2.7504    1.6629 H   0  0  0  0  0  0  0  0  0  0  0  0
    4.4878    1.6285    1.3751 H   0  0  0  0  0  0  0  0  0  0  0  0
    3.3273   -0.4576   -2.2209 H   0  0  0  0  0  0  0  0  0  0  0  0
   -4.6554   -0.7771    2.1711 H   0  0  0  0  0  0  0  0  0  0  0  0
   -4.6142   -0.1415   -2.1150 H   0  0  0  0  0  0  0  0  0  0  0  0
    5.9759   -0.2161    1.9682 H   0  0  0  0  0  0  0  0  0  0  0  0
    4.7985   -2.2958   -1.6433 H   0  0  0  0  0  0  0  0  0  0  0  0
   -6.8974   -1.7148    1.9992 H   0  0  0  0  0  0  0  0  0  0  0  0
   -6.8444   -1.1251   -2.2677 H   0  0  0  0  0  0  0  0  0  0  0  0
   -8.5708   -2.2660    0.6523 H   0  0  0  0  0  0  0  0  0  0  0  0
    6.9571   -4.2324   -0.1046 H   0  0  0  0  0  0  0  0  0  0  0  0
  1  2  2  0  0  0  0
  1  3  2  0  0  0  0
  1 12  1  0  0  0  0
  1 18  1  0  0  0  0
  4 14  2  0  0  0  0
  5 15  2  0  0  0  0
  6 29  1  0  0  0  0
  6 42  1  0  0  0  0
  7 30  1  0  0  0  0
  7 43  1  0  0  0  0
  8 30  2  0  0  0  0
  9 14  1  0  0  0  0
  9 15  1  0  0  0  0
  9 19  1  0  0  0  0
 10 11  2  0  0  0  0
 10 13  1  0  0  0  0
 10 14  1  0  0  0  0
 11 15  1  0  0  0  0
 11 16  1  0  0  0  0
 12 13  2  0  0  0  0
 12 17  1  0  0  0  0
 13 31  1  0  0  0  0
 16 17  2  0  0  0  0
 16 32  1  0  0  0  0
 17 33  1  0  0  0  0
 18 20  2  0  0  0  0
 18 21  1  0  0  0  0
 19 22  2  0  0  0  0
 19 23  1  0  0  0  0
 20 24  1  0  0  0  0
 20 34  1  0  0  0  0
 21 25  2  0  0  0  0
 21 35  1  0  0  0  0
 22 27  1  0  0  0  0
 22 36  1  0  0  0  0
 23 28  2  0  0  0  0
 23 37  1  0  0  0  0
 24 26  2  0  0  0  0
 24 38  1  0  0  0  0
 25 26  1  0  0  0  0
 25 39  1  0  0  0  0
 26 30  1  0  0  0  0
 27 29  2  0  0  0  0
 27 40  1  0  0  0  0
 28 29  1  0  0  0  0
 28 41  1  0  0  0  0
M  END
> <PUBCHEM_COMPOUND_CID>
1043500

> <PUBCHEM_CONFORMER_RMSD>
0.8

> <PUBCHEM_CONFORMER_DIVERSEORDER>
1
2

> <PUBCHEM_MMFF94_PARTIAL_CHARGES>
43
1 1.32
10 0.09
11 0.09
12 -0.01
13 -0.15
14 0.54
15 0.54
16 -0.15
17 -0.15
18 -0.01
19 0.12
2 -0.65
20 -0.15
21 -0.15
22 -0.15
23 -0.15
24 -0.15
25 -0.15
26 0.09
27 -0.15
28 -0.15
29 0.08
3 -0.65
30 0.63
31 0.15
32 0.15
33 0.15
34 0.15
35 0.15
36 0.15
37 0.15
38 0.15
39 0.15
4 -0.57
40 0.15
41 0.15
42 0.45
43 0.5
5 -0.57
6 -0.53
7 -0.65
8 -0.57
9 -0.24

> <PUBCHEM_EFFECTIVE_ROTOR_COUNT>
4.2

> <PUBCHEM_PHARMACOPHORE_FEATURES>
12
1 2 acceptor
1 3 acceptor
1 4 acceptor
1 5 acceptor
1 6 donor
1 7 acceptor
1 8 acceptor
3 7 8 30 anion
5 9 10 11 14 15 rings
6 10 11 12 13 16 17 rings
6 18 20 21 24 25 26 rings
6 19 22 23 27 28 29 rings

> <PUBCHEM_HEAVY_ATOM_COUNT>
30

> <PUBCHEM_ATOM_DEF_STEREO_COUNT>
0

> <PUBCHEM_ATOM_UDEF_STEREO_COUNT>
0

> <PUBCHEM_BOND_DEF_STEREO_COUNT>
0

> <PUBCHEM_BOND_UDEF_STEREO_COUNT>
0

> <PUBCHEM_ISOTOPIC_ATOM_COUNT>
0

> <PUBCHEM_COMPONENT_COUNT>
1

> <PUBCHEM_CACTVS_TAUTO_COUNT>
2

> <PUBCHEM_CONFORMER_ID>
000FEC2C00000001

> <PUBCHEM_MMFF94_ENERGY>
83.9379

> <PUBCHEM_FEATURE_SELFOVERLAP>
61.066

> <PUBCHEM_SHAPE_FINGERPRINT>
10 15 13470688152717559131
10319926 262 16701466637554745756
10670039 82 13407061587902705478
11399510 152 17058637470921466530
11505856 67 10589178286246810960
117089 54 18196945366399535782
1200032 147 10663814188112668718
12035758 1 15482950557940538321
12166972 35 18333733507502029940
12633257 1 15913033327644357104
13533116 47 18411702131600879616
1361 4 18191308389010235707
13782708 43 18260831553159186115
14118638 360 18339369659551123300
14347332 77 18343305873061555561
14359421 15 17313944104924004714
14565420 104 12391511979955273028
15131766 46 9367055628110250019
15183329 4 14345791639081509823
15188451 53 18272367547030843146
15324884 4 15721392943111412032
15475509 8 16226044479635620933
15510800 12 18334303050093737394
15840311 113 9727642717265710899
16728300 4 18201434714781352383
17857418 61 18060142076349191069
1813 80 18337117774497014172
19315092 285 18201438035355172200
1979834 28 16845583006345597758
19841028 212 18409445886612373642
20028762 73 18271808986888355438
2026 5 18259979358475714203
20567600 234 13758075220751773449
20642791 239 12180139677907543037
20771845 140 16917074377749973023
21033648 29 13326852262075250484
21307412 95 16950573168142457835
21344244 181 17603589668329966971
21344244 78 17704072893758234224
21641784 216 13623792935293890839
21682296 61 18261112963368359639
21792934 111 16916798340549491697
21814621 53 18260259781364291349
22061861 79 17967814985479437069
2303208 19 17386292103332957769
23522609 53 17842028699616594457
23559900 14 15357988892590949572
23569943 247 18334576811689025467
270888 7 9799392431348137130
2838139 119 9943525181260131082
3004659 81 17702679880844580189
3383291 50 18273496780018041343
3411729 13 15768641178291715880
3472631 163 10665235843340449098
34797466 226 17241609605912232541
3504750 166 17988642957124838749
3680242 22 18130790091700202502
3886686 26 16909210429863838086
394071 54 11455889165695418202
397830 11 11671779416708204589
406291 66 18338795616129693146
437795 160 14261354696506139143
46194498 28 17386002918721412692
474113 269 18130782344391492943
50009960 94 16986850549880044543
5104073 3 15912781470097500722
513202 73 18410014321687197069
531348 171 18411133650620650647
5718773 13 18188767241855931970
58260988 647 18186522098597399115
5874358 3 17631147815232211671
59682541 52 16732974336700877979
7970288 3 18335704889028125106
9689198 14 10519700129059492346

> <PUBCHEM_SHAPE_MULTIPOLES>
575.17
20.15
2.97
1.74
10.7
0.58
-0.02
21.62
1.95
-5.11
0.33
0.23
-0.39
-1.83

> <PUBCHEM_SHAPE_SELFOVERLAP>
1278.092

> <PUBCHEM_SHAPE_VOLUME>
307.6

> <PUBCHEM_COORDINATE_TYPE>
2
5
10

$$$$
