6464558
  -OEChem-01171812103D

 28 29  0     0  0  0  0  0  0999 V2000
    0.0594    2.2452   -0.2642 S   0  0  0  0  0  0  0  0  0  0  0  0
   -0.4174    3.4441    0.3998 O   0  0  0  0  0  0  0  0  0  0  0  0
    0.3490    2.2753   -1.6850 O   0  0  0  0  0  0  0  0  0  0  0  0
   -2.3726   -0.7340   -0.1470 N   0  0  0  0  0  0  0  0  0  0  0  0
    1.4143    1.6244    0.6010 N   0  0  0  0  0  0  0  0  0  0  0  0
   -2.8175   -0.1260    0.9660 N   0  0  0  0  0  0  0  0  0  0  0  0
    2.3077   -0.4193    1.3685 N   0  0  0  0  0  0  0  0  0  0  0  0
    1.7913   -0.1001   -0.9636 N   0  0  0  0  0  0  0  0  0  0  0  0
   -1.1555    0.9882    0.0129 C   0  0  0  0  0  0  0  0  0  0  0  0
   -1.3479   -0.0763   -0.7619 C   0  0  0  0  0  0  0  0  0  0  0  0
   -2.9809   -1.9684   -0.5809 C   0  0  0  0  0  0  0  0  0  0  0  0
   -2.0401    0.9566    1.0516 C   0  0  0  0  0  0  0  0  0  0  0  0
   -2.2963   -3.1870    0.0140 C   0  0  0  0  0  0  0  0  0  0  0  0
    1.8614    0.2992    0.3207 C   0  0  0  0  0  0  0  0  0  0  0  0
    2.7219   -1.6678    1.0678 C   0  0  0  0  0  0  0  0  0  0  0  0
    2.2213   -1.3582   -1.1927 C   0  0  0  0  0  0  0  0  0  0  0  0
    2.7019   -2.1958   -0.2068 C   0  0  0  0  0  0  0  0  0  0  0  0
   -0.8959   -0.4420   -1.6732 H   0  0  0  0  0  0  0  0  0  0  0  0
   -4.0391   -1.9429   -0.2976 H   0  0  0  0  0  0  0  0  0  0  0  0
   -2.9309   -1.9996   -1.6749 H   0  0  0  0  0  0  0  0  0  0  0  0
   -2.1856    1.6391    1.8761 H   0  0  0  0  0  0  0  0  0  0  0  0
    1.4599    1.8588    1.6011 H   0  0  0  0  0  0  0  0  0  0  0  0
   -1.2399   -3.2255   -0.2728 H   0  0  0  0  0  0  0  0  0  0  0  0
   -2.7796   -4.1039   -0.3370 H   0  0  0  0  0  0  0  0  0  0  0  0
   -2.3443   -3.1716    1.1080 H   0  0  0  0  0  0  0  0  0  0  0  0
    3.0822   -2.2516    1.9080 H   0  0  0  0  0  0  0  0  0  0  0  0
    2.1657   -1.6858   -2.2253 H   0  0  0  0  0  0  0  0  0  0  0  0
    3.0397   -3.2011   -0.4194 H   0  0  0  0  0  0  0  0  0  0  0  0
  1  2  2  0  0  0  0
  1  3  2  0  0  0  0
  1  5  1  0  0  0  0
  1  9  1  0  0  0  0
  4  6  1  0  0  0  0
  4 10  1  0  0  0  0
  4 11  1  0  0  0  0
  5 14  1  0  0  0  0
  5 22  1  0  0  0  0
  6 12  2  0  0  0  0
  7 14  1  0  0  0  0
  7 15  2  0  0  0  0
  8 14  2  0  0  0  0
  8 16  1  0  0  0  0
  9 10  2  0  0  0  0
  9 12  1  0  0  0  0
 10 18  1  0  0  0  0
 11 13  1  0  0  0  0
 11 19  1  0  0  0  0
 11 20  1  0  0  0  0
 12 21  1  0  0  0  0
 13 23  1  0  0  0  0
 13 24  1  0  0  0  0
 13 25  1  0  0  0  0
 15 17  1  0  0  0  0
 15 26  1  0  0  0  0
 16 17  2  0  0  0  0
 16 27  1  0  0  0  0
 17 28  1  0  0  0  0
M  END
> <PUBCHEM_COMPOUND_CID>
6464558

> <PUBCHEM_CONFORMER_RMSD>
0.6

> <PUBCHEM_CONFORMER_DIVERSEORDER>
1
22
9
13
50
47
51
35
6
36
44
15
43
18
4
30
52
12
10
19
49
21
8
48
2
39
14
7
37
5
40
3
42
11
29
54
53
38
16
23
25
46
17
34
31
33
20
24
32
27
26
28
41
45

> <PUBCHEM_MMFF94_PARTIAL_CHARGES>
22
1 1.5
10 -0.3
11 0.26
12 0.14
14 0.82
15 0.16
16 0.16
17 -0.15
18 0.15
2 -0.65
21 0.15
22 0.42
26 0.15
27 0.15
28 0.15
3 -0.65
4 0.31
5 -0.76
6 -0.71
7 -0.62
8 -0.62
9 -0.06

> <PUBCHEM_EFFECTIVE_ROTOR_COUNT>
4

> <PUBCHEM_PHARMACOPHORE_FEATURES>
7
1 2 acceptor
1 3 acceptor
1 5 donor
1 6 acceptor
1 7 acceptor
5 4 6 9 10 12 rings
6 7 8 14 15 16 17 rings

> <PUBCHEM_HEAVY_ATOM_COUNT>
17

> <PUBCHEM_ATOM_DEF_STEREO_COUNT>
0

> <PUBCHEM_ATOM_UDEF_STEREO_COUNT>
0

> <PUBCHEM_BOND_DEF_STEREO_COUNT>
0

> <PUBCHEM_BOND_UDEF_STEREO_COUNT>
0

> <PUBCHEM_ISOTOPIC_ATOM_COUNT>
0

> <PUBCHEM_COMPONENT_COUNT>
1

> <PUBCHEM_CACTVS_TAUTO_COUNT>
2

> <PUBCHEM_CONFORMER_ID>
0062A42E00000001

> <PUBCHEM_MMFF94_ENERGY>
32.7634

> <PUBCHEM_FEATURE_SELFOVERLAP>
35.541

> <PUBCHEM_SHAPE_FINGERPRINT>
11067466 332 17762058048418874951
11321824 6 17829592973095588531
11322862 65 17619352008989991621
12400796 359 18125981983603036442
12400797 245 18270950370968980838
12553582 1 18411144627491929223
14178342 30 18198622340152123097
1420 336 18410295808910759715
14251705 54 18122621918823663875
15375462 175 17834699109384354486
16752209 62 17974848367851733197
16945 1 18198627622687505573
20361792 2 18113622257056458197
20645477 70 17834668680195846295
21421861 104 17979649145267984851
21524375 3 10159699100949657780
21731516 1 18260271810849781930
22445834 79 18269004257157741049
23728640 28 17615671947798435555
257057 1 18337656594574579651
465052 167 17320180466136050449
568465 68 17059481929810136458
598444 67 17480877324165032791
7364860 26 18052823834012437277
81228 2 18192143794076321601
8199 65 17474666629762066567
90525 40 17539139354457218346

> <PUBCHEM_SHAPE_MULTIPOLES>
317.06
4.68
3.58
1.24
0.12
0.43
-0.08
-3.9
0.68
-1.12
-0.29
0.4
0.14
-0.35

> <PUBCHEM_SHAPE_SELFOVERLAP>
656.964

> <PUBCHEM_SHAPE_VOLUME>
182.4

> <PUBCHEM_COORDINATE_TYPE>
2
5
10

$$$$
