5889235
  -OEChem-01171811463D

 53 55  0     0  0  0  0  0  0999 V2000
    2.1735   -0.5280   -0.5946 O   0  0  0  0  0  0  0  0  0  0  0  0
   -3.2990    0.6859   -0.5958 O   0  0  0  0  0  0  0  0  0  0  0  0
    0.6001   -2.2038   -2.1559 O   0  0  0  0  0  0  0  0  0  0  0  0
    4.5748    0.0968   -1.4128 O   0  0  0  0  0  0  0  0  0  0  0  0
   -5.5932    0.3902   -0.0558 N   0  0  0  0  0  0  0  0  0  0  0  0
   -6.3677   -0.5101    0.6597 N   0  0  0  0  0  0  0  0  0  0  0  0
    5.4152    0.3576    0.7683 N   0  0  0  0  0  0  0  0  0  0  0  0
   -7.7951    4.6082   -1.0241 N   0  0  0  0  0  0  0  0  0  0  0  0
   -4.1597   -1.1268    0.7401 C   0  0  0  0  0  0  0  0  0  0  0  0
   -5.5447   -1.4064    1.1342 C   0  0  0  0  0  0  0  0  0  0  0  0
   -4.2266    0.1030   -0.0690 C   0  0  0  0  0  0  0  0  0  0  0  0
   -6.1544    1.5330   -0.7327 C   0  0  0  0  0  0  0  0  0  0  0  0
   -3.0589   -1.8153    1.0322 C   0  0  0  0  0  0  0  0  0  0  0  0
   -1.6864   -1.4799    0.6030 C   0  0  0  0  0  0  0  0  0  0  0  0
   -1.1804   -2.0031   -0.5869 C   0  0  0  0  0  0  0  0  0  0  0  0
   -6.8091    2.5164    0.2298 C   0  0  0  0  0  0  0  0  0  0  0  0
   -5.9563   -2.5703    1.9691 C   0  0  0  0  0  0  0  0  0  0  0  0
   -0.8960   -0.6399    1.3874 C   0  0  0  0  0  0  0  0  0  0  0  0
    0.1160   -1.6860   -0.9927 C   0  0  0  0  0  0  0  0  0  0  0  0
    0.9064   -0.8461   -0.2083 C   0  0  0  0  0  0  0  0  0  0  0  0
    0.4005   -0.3232    0.9817 C   0  0  0  0  0  0  0  0  0  0  0  0
    3.1187   -0.2618    0.4398 C   0  0  0  0  0  0  0  0  0  0  0  0
    4.4503    0.0812   -0.1919 C   0  0  0  0  0  0  0  0  0  0  0  0
   -7.3597    3.6852   -0.4718 C   0  0  0  0  0  0  0  0  0  0  0  0
    6.7675    0.7142    0.5532 C   0  0  0  0  0  0  0  0  0  0  0  0
   -0.2713   -3.0536   -2.8994 C   0  0  0  0  0  0  0  0  0  0  0  0
    7.6057    0.9592    1.6408 C   0  0  0  0  0  0  0  0  0  0  0  0
    7.2624    0.8214   -0.7466 C   0  0  0  0  0  0  0  0  0  0  0  0
    8.9386    1.3111    1.4287 C   0  0  0  0  0  0  0  0  0  0  0  0
    8.5954    1.1731   -0.9587 C   0  0  0  0  0  0  0  0  0  0  0  0
    9.4336    1.4179    0.1289 C   0  0  0  0  0  0  0  0  0  0  0  0
   -5.3687    2.0354   -1.3095 H   0  0  0  0  0  0  0  0  0  0  0  0
   -6.8896    1.1559   -1.4540 H   0  0  0  0  0  0  0  0  0  0  0  0
   -3.1244   -2.7152    1.6389 H   0  0  0  0  0  0  0  0  0  0  0  0
   -1.8396   -2.6509   -1.1561 H   0  0  0  0  0  0  0  0  0  0  0  0
   -7.6109    2.0184    0.7880 H   0  0  0  0  0  0  0  0  0  0  0  0
   -6.0743    2.8490    0.9730 H   0  0  0  0  0  0  0  0  0  0  0  0
   -7.0373   -2.5516    2.1326 H   0  0  0  0  0  0  0  0  0  0  0  0
   -5.6911   -3.5013    1.4608 H   0  0  0  0  0  0  0  0  0  0  0  0
   -5.4512   -2.5277    2.9377 H   0  0  0  0  0  0  0  0  0  0  0  0
   -1.2794   -0.2212    2.3148 H   0  0  0  0  0  0  0  0  0  0  0  0
    0.9549    0.3520    1.6228 H   0  0  0  0  0  0  0  0  0  0  0  0
    2.8402    0.6235    1.0210 H   0  0  0  0  0  0  0  0  0  0  0  0
    3.2394   -1.1386    1.0861 H   0  0  0  0  0  0  0  0  0  0  0  0
    5.1338    0.2998    1.7448 H   0  0  0  0  0  0  0  0  0  0  0  0
    0.2757   -3.3728   -3.7928 H   0  0  0  0  0  0  0  0  0  0  0  0
   -1.1601   -2.5160   -3.2471 H   0  0  0  0  0  0  0  0  0  0  0  0
   -0.5237   -3.9614   -2.3408 H   0  0  0  0  0  0  0  0  0  0  0  0
    7.2329    0.8795    2.6588 H   0  0  0  0  0  0  0  0  0  0  0  0
    6.6756    0.6470   -1.6375 H   0  0  0  0  0  0  0  0  0  0  0  0
    9.5914    1.5019    2.2755 H   0  0  0  0  0  0  0  0  0  0  0  0
    8.9820    1.2566   -1.9703 H   0  0  0  0  0  0  0  0  0  0  0  0
   10.4715    1.6918   -0.0361 H   0  0  0  0  0  0  0  0  0  0  0  0
  1 20  1  0  0  0  0
  1 22  1  0  0  0  0
  2 11  2  0  0  0  0
  3 19  1  0  0  0  0
  3 26  1  0  0  0  0
  4 23  2  0  0  0  0
  5  6  1  0  0  0  0
  5 11  1  0  0  0  0
  5 12  1  0  0  0  0
  6 10  2  0  0  0  0
  7 23  1  0  0  0  0
  7 25  1  0  0  0  0
  7 45  1  0  0  0  0
  8 24  3  0  0  0  0
  9 10  1  0  0  0  0
  9 11  1  0  0  0  0
  9 13  2  0  0  0  0
 10 17  1  0  0  0  0
 12 16  1  0  0  0  0
 12 32  1  0  0  0  0
 12 33  1  0  0  0  0
 13 14  1  0  0  0  0
 13 34  1  0  0  0  0
 14 15  2  0  0  0  0
 14 18  1  0  0  0  0
 15 19  1  0  0  0  0
 15 35  1  0  0  0  0
 16 24  1  0  0  0  0
 16 36  1  0  0  0  0
 16 37  1  0  0  0  0
 17 38  1  0  0  0  0
 17 39  1  0  0  0  0
 17 40  1  0  0  0  0
 18 21  2  0  0  0  0
 18 41  1  0  0  0  0
 19 20  2  0  0  0  0
 20 21  1  0  0  0  0
 21 42  1  0  0  0  0
 22 23  1  0  0  0  0
 22 43  1  0  0  0  0
 22 44  1  0  0  0  0
 25 27  2  0  0  0  0
 25 28  1  0  0  0  0
 26 46  1  0  0  0  0
 26 47  1  0  0  0  0
 26 48  1  0  0  0  0
 27 29  1  0  0  0  0
 27 49  1  0  0  0  0
 28 30  2  0  0  0  0
 28 50  1  0  0  0  0
 29 31  2  0  0  0  0
 29 51  1  0  0  0  0
 30 31  1  0  0  0  0
 30 52  1  0  0  0  0
 31 53  1  0  0  0  0
M  END
> <PUBCHEM_COMPOUND_CID>
5889235

> <PUBCHEM_CONFORMER_RMSD>
1

> <PUBCHEM_CONFORMER_DIVERSEORDER>
32
170
201
213
207
141
79
18
123
174
130
65
67
72
34
44
101
129
157
152
92
50
91
172
128
10
21
133
148
166
77
111
105
103
73
84
54
171
25
193
66
202
82
155
3
90
187
45
110
167
200
98
22
116
162
107
74
176
6
61
71
29
212
55
199
19
186
147
143
119
149
41
60
177
7
215
64
118
94
62
23
184
56
160
151
86
96
36
46
185
175
180
178
39
158
138
109
51
117
154
38
59
190
127
150
153
42
95
142
203
132
70
210
76
89
189
16
115
214
63
68
208
85
43
14
126
173
140
108
5
24
47
102
188
182
87
131
217
145
15
17
37
135
40
33
192
48
164
13
134
124
165
159
211
104
106
83
218
78
216
183
198
99
204
179
137
49
8
196
112
97
125
113
57
4
9
75
58
93
121
139
2
136
122
169
197
191
53
69
20
205
27
144
11
114
88
194
28
146
161
26
163
100
52
206
156
181
1
30
81
120
35
80
219
209
31
195
12
168

> <PUBCHEM_MMFF94_PARTIAL_CHARGES>
41
1 -0.36
10 0.37
11 0.62
12 0.3
13 -0.18
14 0.03
15 -0.15
16 0.2
17 0.06
18 -0.15
19 0.08
2 -0.57
20 0.08
21 -0.15
22 0.34
23 0.57
24 0.36
25 0.12
26 0.28
27 -0.15
28 -0.15
29 -0.15
3 -0.36
30 -0.15
31 -0.15
34 0.15
35 0.15
4 -0.57
41 0.15
42 0.15
45 0.37
49 0.15
5 -0.3
50 0.15
51 0.15
52 0.15
53 0.15
6 -0.51
7 -0.55
8 -0.56
9 0.03

> <PUBCHEM_EFFECTIVE_ROTOR_COUNT>
9.2

> <PUBCHEM_PHARMACOPHORE_FEATURES>
10
1 1 acceptor
1 2 acceptor
1 3 acceptor
1 4 acceptor
1 6 acceptor
1 7 donor
1 8 acceptor
5 5 6 9 10 11 rings
6 14 15 18 19 20 21 rings
6 25 27 28 29 30 31 rings

> <PUBCHEM_HEAVY_ATOM_COUNT>
31

> <PUBCHEM_ATOM_DEF_STEREO_COUNT>
0

> <PUBCHEM_ATOM_UDEF_STEREO_COUNT>
0

> <PUBCHEM_BOND_DEF_STEREO_COUNT>
1

> <PUBCHEM_BOND_UDEF_STEREO_COUNT>
0

> <PUBCHEM_ISOTOPIC_ATOM_COUNT>
0

> <PUBCHEM_COMPONENT_COUNT>
1

> <PUBCHEM_CACTVS_TAUTO_COUNT>
2

> <PUBCHEM_CONFORMER_ID>
0059DCD300000020

> <PUBCHEM_MMFF94_ENERGY>
103.1706

> <PUBCHEM_FEATURE_SELFOVERLAP>
50.765

> <PUBCHEM_SHAPE_FINGERPRINT>
10 15 18411702114405420114
10100884 174 16735527548820251499
10280341 67 18335130943784722997
10299344 5 16732979873599511754
10533779 1 18116144477583470485
11181472 205 18114184108579972164
11315181 36 17240482559164660867
11475781 23 18410580548183330652
11720765 8 17259061793509110663
12838862 33 17274813663428459394
1361 4 10735613379227399956
13673619 4 14345785081347126198
13911987 19 17489587848981284627
14040221 275 15793123771678793893
14251764 18 16733264646952979914
14849402 71 16951416597283781452
15183329 4 15051734174842919460
15328684 2 17386551518931096648
15350500 55 18411697664755491244
15455200 26 16882707841130304805
15849732 13 18271249417199886998
20721686 146 18337669715805749349
20982279 24 12830037835035324584
21033648 29 18335149665325217511
21150785 3 13110971937807687578
21781055 127 17386017127058653110
21792934 111 13623802878027454446
21927370 108 12901542412534875390
23522609 53 16878809213008806710
23559900 14 15984535741504557498
23569943 247 9508980650345855468
23576562 1 17844514703099682989
249057 25 17096099098778323823
249057 3 17774726480477581336
2838139 119 18411134783722110653
4339292 15 18196091265003064059
437795 83 17632300038782627713
44802255 64 17846212255454804223
504843 32 17917990628615158159
563151 97 17131287752527498427
58902169 19 14045743751157846064
5937810 71 17846220987224388073
636775 72 18335981987544216445
6673363 416 18273208687493616405
6691757 9 17022624195908535235
9555976 147 17314249897883568779
999808 66 12540691526835454538

> <PUBCHEM_SHAPE_MULTIPOLES>
594.56
29.43
3.46
1.78
43.12
3.07
-0.64
29.63
5.2
-11.2
-1.54
0.3
-1.35
3.87

> <PUBCHEM_SHAPE_SELFOVERLAP>
1265.899

> <PUBCHEM_SHAPE_VOLUME>
327.7

> <PUBCHEM_COORDINATE_TYPE>
2
5
10

$$$$
