1918250
  -OEChem-01171811563D

 41 43  0     0  0  0  0  0  0999 V2000
    0.9983   -0.8542   -0.7035 S   0  0  0  0  0  0  0  0  0  0  0  0
   -1.7008   -2.0026   -1.4427 S   0  0  0  0  0  0  0  0  0  0  0  0
   -0.3069    2.6892   -0.0690 O   0  0  0  0  0  0  0  0  0  0  0  0
   -2.9198    0.4602    1.3654 O   0  0  0  0  0  0  0  0  0  0  0  0
    8.0958   -1.0052   -0.8473 O   0  0  0  0  0  0  0  0  0  0  0  0
    7.9214   -1.5755    1.3460 O   0  0  0  0  0  0  0  0  0  0  0  0
   -1.1087    0.5820   -0.7133 N   0  0  0  0  0  0  0  0  0  0  0  0
   -2.4232    0.9666   -0.8426 N   0  0  0  0  0  0  0  0  0  0  0  0
   -4.6589    1.3221   -0.0814 C   0  0  0  0  0  0  0  0  0  0  0  0
    1.1600    0.8074   -0.2738 C   0  0  0  0  0  0  0  0  0  0  0  0
   -5.6938    0.2444    0.1071 C   0  0  0  0  0  0  0  0  0  0  0  0
   -0.1494    1.5047   -0.3274 C   0  0  0  0  0  0  0  0  0  0  0  0
   -3.2517    0.8685    0.2550 C   0  0  0  0  0  0  0  0  0  0  0  0
    3.6280    0.7735    0.1359 C   0  0  0  0  0  0  0  0  0  0  0  0
    2.3001    1.4112    0.0648 C   0  0  0  0  0  0  0  0  0  0  0  0
   -0.7413   -0.7238   -0.9675 C   0  0  0  0  0  0  0  0  0  0  0  0
   -6.0031   -0.5982   -0.9514 C   0  0  0  0  0  0  0  0  0  0  0  0
   -6.3228    0.1089    1.3367 C   0  0  0  0  0  0  0  0  0  0  0  0
    4.0507    0.2214    1.3334 C   0  0  0  0  0  0  0  0  0  0  0  0
    4.4251    0.7412   -0.9961 C   0  0  0  0  0  0  0  0  0  0  0  0
    6.1226   -0.4219    0.2699 C   0  0  0  0  0  0  0  0  0  0  0  0
    5.3071   -0.3806    1.4010 C   0  0  0  0  0  0  0  0  0  0  0  0
    5.6815    0.1391   -0.9286 C   0  0  0  0  0  0  0  0  0  0  0  0
   -6.9614   -1.5966   -0.7768 C   0  0  0  0  0  0  0  0  0  0  0  0
   -7.2811   -0.8896    1.5112 C   0  0  0  0  0  0  0  0  0  0  0  0
   -7.6003   -1.7422    0.4543 C   0  0  0  0  0  0  0  0  0  0  0  0
    7.4325   -1.0499    0.3406 C   0  0  0  0  0  0  0  0  0  0  0  0
   -4.7193    1.7097   -1.1061 H   0  0  0  0  0  0  0  0  0  0  0  0
   -4.8871    2.1806    0.5635 H   0  0  0  0  0  0  0  0  0  0  0  0
   -2.7120    1.2994   -1.7565 H   0  0  0  0  0  0  0  0  0  0  0  0
    2.3040    2.4681    0.3222 H   0  0  0  0  0  0  0  0  0  0  0  0
   -5.5093   -0.4939   -1.9134 H   0  0  0  0  0  0  0  0  0  0  0  0
   -6.0802    0.7665    2.1666 H   0  0  0  0  0  0  0  0  0  0  0  0
    3.4245    0.2480    2.2212 H   0  0  0  0  0  0  0  0  0  0  0  0
    4.0923    1.1759   -1.9349 H   0  0  0  0  0  0  0  0  0  0  0  0
    5.6322   -0.8118    2.3443 H   0  0  0  0  0  0  0  0  0  0  0  0
    6.2838    0.1293   -1.8327 H   0  0  0  0  0  0  0  0  0  0  0  0
   -7.2094   -2.2610   -1.5993 H   0  0  0  0  0  0  0  0  0  0  0  0
   -7.7782   -1.0037    2.4700 H   0  0  0  0  0  0  0  0  0  0  0  0
   -8.3461   -2.5200    0.5904 H   0  0  0  0  0  0  0  0  0  0  0  0
    8.9774   -1.4316   -0.7892 H   0  0  0  0  0  0  0  0  0  0  0  0
  1 10  1  0  0  0  0
  1 16  1  0  0  0  0
  2 16  2  0  0  0  0
  3 12  2  0  0  0  0
  4 13  2  0  0  0  0
  5 27  1  0  0  0  0
  5 41  1  0  0  0  0
  6 27  2  0  0  0  0
  7  8  1  0  0  0  0
  7 12  1  0  0  0  0
  7 16  1  0  0  0  0
  8 13  1  0  0  0  0
  8 30  1  0  0  0  0
  9 11  1  0  0  0  0
  9 13  1  0  0  0  0
  9 28  1  0  0  0  0
  9 29  1  0  0  0  0
 10 12  1  0  0  0  0
 10 15  2  0  0  0  0
 11 17  2  0  0  0  0
 11 18  1  0  0  0  0
 14 15  1  0  0  0  0
 14 19  2  0  0  0  0
 14 20  1  0  0  0  0
 15 31  1  0  0  0  0
 17 24  1  0  0  0  0
 17 32  1  0  0  0  0
 18 25  2  0  0  0  0
 18 33  1  0  0  0  0
 19 22  1  0  0  0  0
 19 34  1  0  0  0  0
 20 23  2  0  0  0  0
 20 35  1  0  0  0  0
 21 22  2  0  0  0  0
 21 23  1  0  0  0  0
 21 27  1  0  0  0  0
 22 36  1  0  0  0  0
 23 37  1  0  0  0  0
 24 26  2  0  0  0  0
 24 38  1  0  0  0  0
 25 26  1  0  0  0  0
 25 39  1  0  0  0  0
 26 40  1  0  0  0  0
M  END
> <PUBCHEM_COMPOUND_CID>
1918250

> <PUBCHEM_CONFORMER_RMSD>
0.8

> <PUBCHEM_CONFORMER_DIVERSEORDER>
2
7
10
12
11
1
9
6
4
13
3
5
8

> <PUBCHEM_MMFF94_PARTIAL_CHARGES>
39
1 -0.24
10 0.12
11 -0.14
12 0.62
13 0.57
14 0.03
15 -0.18
16 0.58
17 -0.15
18 -0.15
19 -0.15
2 -0.38
20 -0.15
21 0.09
22 -0.15
23 -0.15
24 -0.15
25 -0.15
26 -0.15
27 0.63
3 -0.57
30 0.37
31 0.15
32 0.15
33 0.15
34 0.15
35 0.15
36 0.15
37 0.15
38 0.15
39 0.15
4 -0.57
40 0.15
41 0.5
5 -0.65
6 -0.57
7 -0.12
8 -0.43
9 0.2

> <PUBCHEM_EFFECTIVE_ROTOR_COUNT>
6.4

> <PUBCHEM_PHARMACOPHORE_FEATURES>
10
1 2 acceptor
1 3 acceptor
1 4 acceptor
1 5 acceptor
1 6 acceptor
1 8 donor
3 5 6 27 anion
5 1 7 10 12 16 rings
6 11 17 18 24 25 26 rings
6 14 19 20 21 22 23 rings

> <PUBCHEM_HEAVY_ATOM_COUNT>
27

> <PUBCHEM_ATOM_DEF_STEREO_COUNT>
0

> <PUBCHEM_ATOM_UDEF_STEREO_COUNT>
0

> <PUBCHEM_BOND_DEF_STEREO_COUNT>
1

> <PUBCHEM_BOND_UDEF_STEREO_COUNT>
0

> <PUBCHEM_ISOTOPIC_ATOM_COUNT>
0

> <PUBCHEM_COMPONENT_COUNT>
1

> <PUBCHEM_CACTVS_TAUTO_COUNT>
2

> <PUBCHEM_CONFORMER_ID>
001D452A00000002

> <PUBCHEM_MMFF94_ENERGY>
68.9825

> <PUBCHEM_FEATURE_SELFOVERLAP>
50.806

> <PUBCHEM_SHAPE_FINGERPRINT>
10 15 17274820289597749768
10299344 5 17967817136983823648
10533779 47 15482405179078542990
10883706 142 14261352457793767573
11181472 205 11455903477132875634
11456790 92 15626223490514875306
11475781 23 9223231879562085096
11646440 116 17275107240562915017
11963148 33 18334568040627626891
12166972 35 18340490053541871201
12236239 1 17968096370800301004
13668630 136 17603302652433740058
13673619 4 18260545627942606084
13782708 43 17967527965462583349
13862211 1 18410855477672320405
14251764 18 18201719578713813652
14849402 71 17345188007574383473
14866123 147 18270675489105232127
15048467 5 11095890367511964193
15183329 4 8070032155790239847
15198563 99 15502362410423805815
16120349 21 18271806852141377111
16994733 274 12175631663508082583
1818759 1 18334584537591027954
2026 5 17896033236117957554
20554085 129 8286197207253438228
20567600 75 16805315592254764047
21150785 3 14490191613442929183
21267235 1 18410294705393840716
21298829 104 10519985980375957730
21304303 64 11887954358910989259
21315759 40 18334861606205294060
21756936 100 15841550761319103829
21781051 124 18338531802063434334
22956985 138 18049445838362081974
23522609 53 17971504894847842493
23559900 14 16298954276905920333
23576562 1 10737872918566293611
246663 6 18409169904940428062
2838139 119 14045734916003702465
3009799 131 8430313537009359158
3383291 50 18343300383566018843
4325135 7 12251903690205155066
4340502 62 15482677878893683772
437815 12 15285358431630838375
465052 167 18333734628219663580
5104073 3 17916577794642463232
5385378 56 17560530507863541111
54039377 194 18334013857735599934
563151 97 11747478502999651317
68570916 9 16127516232826004981
9953998 17 17060341825718572075

> <PUBCHEM_SHAPE_MULTIPOLES>
529.91
24.57
1.84
1.37
5.05
0.04
0.33
-12.25
7.66
-0.91
-0.32
-0.05
-0.3
-0.72

> <PUBCHEM_SHAPE_SELFOVERLAP>
1124.992

> <PUBCHEM_SHAPE_VOLUME>
297.2

> <PUBCHEM_COORDINATE_TYPE>
2
5
10

$$$$
