4309009
  -OEChem-01171812093D

 57 60  0     0  0  0  0  0  0999 V2000
   -6.0016   -3.3829   -0.3534 Br  0  0  0  0  0  0  0  0  0  0  0  0
    0.3974   -2.8460   -0.1363 S   0  0  0  0  0  0  0  0  0  0  0  0
   -3.8624    3.3548    0.6532 O   0  0  0  0  0  0  0  0  0  0  0  0
   -3.3696    2.4756   -1.4255 O   0  0  0  0  0  0  0  0  0  0  0  0
    2.3889    2.7062   -0.5817 O   0  0  0  0  0  0  0  0  0  0  0  0
    3.1723   -2.3477    0.9811 O   0  0  0  0  0  0  0  0  0  0  0  0
    0.8568   -2.6055   -1.4912 O   0  0  0  0  0  0  0  0  0  0  0  0
    0.9013   -3.9796    0.6158 O   0  0  0  0  0  0  0  0  0  0  0  0
    0.1767    1.2354   -0.0597 N   0  0  0  0  0  0  0  0  0  0  0  0
    0.5571   -1.4364    0.7802 N   0  0  0  0  0  0  0  0  0  0  0  0
   -1.6423    3.4801   -0.0786 C   0  0  0  0  0  0  0  0  0  0  0  0
   -1.1563    2.8363    1.2232 C   0  0  0  0  0  0  0  0  0  0  0  0
   -0.6987    3.1897   -1.2497 C   0  0  0  0  0  0  0  0  0  0  0  0
   -0.7704    1.3676    1.0459 C   0  0  0  0  0  0  0  0  0  0  0  0
   -0.3081    1.7143   -1.3527 C   0  0  0  0  0  0  0  0  0  0  0  0
    1.4015    0.6540    0.0923 C   0  0  0  0  0  0  0  0  0  0  0  0
   -3.0421    3.0359   -0.3883 C   0  0  0  0  0  0  0  0  0  0  0  0
    1.6586   -0.6018    0.4814 C   0  0  0  0  0  0  0  0  0  0  0  0
    2.5622    1.5453   -0.2230 C   0  0  0  0  0  0  0  0  0  0  0  0
    3.9319    1.0039   -0.0977 C   0  0  0  0  0  0  0  0  0  0  0  0
    3.0062   -1.1887    0.6216 C   0  0  0  0  0  0  0  0  0  0  0  0
    4.1474   -0.3131    0.3087 C   0  0  0  0  0  0  0  0  0  0  0  0
    5.0265    1.8267   -0.3923 C   0  0  0  0  0  0  0  0  0  0  0  0
    5.4516   -0.8094    0.4214 C   0  0  0  0  0  0  0  0  0  0  0  0
   -5.2354    2.9861    0.4896 C   0  0  0  0  0  0  0  0  0  0  0  0
    6.3257    1.3300   -0.2796 C   0  0  0  0  0  0  0  0  0  0  0  0
    6.5378    0.0144    0.1266 C   0  0  0  0  0  0  0  0  0  0  0  0
   -1.3641   -2.9930   -0.1956 C   0  0  0  0  0  0  0  0  0  0  0  0
   -6.0087    3.4052    1.7217 C   0  0  0  0  0  0  0  0  0  0  0  0
   -2.0569   -2.3891   -1.2296 C   0  0  0  0  0  0  0  0  0  0  0  0
   -2.0145   -3.7102    0.7928 C   0  0  0  0  0  0  0  0  0  0  0  0
   -3.4459   -2.5059   -1.2767 C   0  0  0  0  0  0  0  0  0  0  0  0
   -3.4036   -3.8272    0.7456 C   0  0  0  0  0  0  0  0  0  0  0  0
   -4.1194   -3.2251   -0.2892 C   0  0  0  0  0  0  0  0  0  0  0  0
   -1.6911    4.5696    0.0500 H   0  0  0  0  0  0  0  0  0  0  0  0
   -0.2675    3.3866    1.5609 H   0  0  0  0  0  0  0  0  0  0  0  0
   -1.8936    2.9232    2.0290 H   0  0  0  0  0  0  0  0  0  0  0  0
   -1.1396    3.5153   -2.1997 H   0  0  0  0  0  0  0  0  0  0  0  0
    0.2055    3.7942   -1.1128 H   0  0  0  0  0  0  0  0  0  0  0  0
   -0.3412    1.0104    1.9903 H   0  0  0  0  0  0  0  0  0  0  0  0
   -1.6654    0.7669    0.8432 H   0  0  0  0  0  0  0  0  0  0  0  0
    0.4478    1.5913   -2.1382 H   0  0  0  0  0  0  0  0  0  0  0  0
   -1.1665    1.1056   -1.6593 H   0  0  0  0  0  0  0  0  0  0  0  0
   -0.3215   -0.9455    0.9704 H   0  0  0  0  0  0  0  0  0  0  0  0
    4.8895    2.8566   -0.7113 H   0  0  0  0  0  0  0  0  0  0  0  0
    5.6414   -1.8321    0.7361 H   0  0  0  0  0  0  0  0  0  0  0  0
   -5.3084    1.9008    0.3581 H   0  0  0  0  0  0  0  0  0  0  0  0
   -5.6457    3.4881   -0.3938 H   0  0  0  0  0  0  0  0  0  0  0  0
    7.1726    1.9702   -0.5089 H   0  0  0  0  0  0  0  0  0  0  0  0
    7.5498   -0.3703    0.2137 H   0  0  0  0  0  0  0  0  0  0  0  0
   -5.9300    4.4863    1.8768 H   0  0  0  0  0  0  0  0  0  0  0  0
   -5.5978    2.9252    2.6160 H   0  0  0  0  0  0  0  0  0  0  0  0
   -7.0650    3.1372    1.6305 H   0  0  0  0  0  0  0  0  0  0  0  0
   -1.5513   -1.8176   -2.0018 H   0  0  0  0  0  0  0  0  0  0  0  0
   -1.4755   -4.1793    1.6100 H   0  0  0  0  0  0  0  0  0  0  0  0
   -3.9889   -2.0283   -2.0883 H   0  0  0  0  0  0  0  0  0  0  0  0
   -3.9133   -4.3894    1.5239 H   0  0  0  0  0  0  0  0  0  0  0  0
  1 34  1  0  0  0  0
  2  7  2  0  0  0  0
  2  8  2  0  0  0  0
  2 10  1  0  0  0  0
  2 28  1  0  0  0  0
  3 17  1  0  0  0  0
  3 25  1  0  0  0  0
  4 17  2  0  0  0  0
  5 19  2  0  0  0  0
  6 21  2  0  0  0  0
  9 14  1  0  0  0  0
  9 15  1  0  0  0  0
  9 16  1  0  0  0  0
 10 18  1  0  0  0  0
 10 44  1  0  0  0  0
 11 12  1  0  0  0  0
 11 13  1  0  0  0  0
 11 17  1  0  0  0  0
 11 35  1  0  0  0  0
 12 14  1  0  0  0  0
 12 36  1  0  0  0  0
 12 37  1  0  0  0  0
 13 15  1  0  0  0  0
 13 38  1  0  0  0  0
 13 39  1  0  0  0  0
 14 40  1  0  0  0  0
 14 41  1  0  0  0  0
 15 42  1  0  0  0  0
 15 43  1  0  0  0  0
 16 18  2  0  0  0  0
 16 19  1  0  0  0  0
 18 21  1  0  0  0  0
 19 20  1  0  0  0  0
 20 22  1  0  0  0  0
 20 23  2  0  0  0  0
 21 22  1  0  0  0  0
 22 24  2  0  0  0  0
 23 26  1  0  0  0  0
 23 45  1  0  0  0  0
 24 27  1  0  0  0  0
 24 46  1  0  0  0  0
 25 29  1  0  0  0  0
 25 47  1  0  0  0  0
 25 48  1  0  0  0  0
 26 27  2  0  0  0  0
 26 49  1  0  0  0  0
 27 50  1  0  0  0  0
 28 30  2  0  0  0  0
 28 31  1  0  0  0  0
 29 51  1  0  0  0  0
 29 52  1  0  0  0  0
 29 53  1  0  0  0  0
 30 32  1  0  0  0  0
 30 54  1  0  0  0  0
 31 33  2  0  0  0  0
 31 55  1  0  0  0  0
 32 34  2  0  0  0  0
 32 56  1  0  0  0  0
 33 34  1  0  0  0  0
 33 57  1  0  0  0  0
M  END
> <PUBCHEM_COMPOUND_CID>
4309009

> <PUBCHEM_CONFORMER_RMSD>
1

> <PUBCHEM_CONFORMER_DIVERSEORDER>
1
66
70
12
20
41
32
53
50
10
6
15
23
36
71
5
49
64
39
63
22
25
34
76
75
8
26
69
35
40
65
59
60
78
18
62
31
13
48
17
58
67
19
74
46
77
68
42
33
21
55
73
45
29
52
11
30
61
7
9
16
44
24
57
43
56
4
72
54
51
14
47
27
37
2
38
3
28

> <PUBCHEM_MMFF94_PARTIAL_CHARGES>
40
1 -0.11
10 -0.75
11 0.06
14 0.37
15 0.37
16 0.11
17 0.66
18 0.21
19 0.47
2 1.45
20 0.09
21 0.47
22 0.09
23 -0.15
24 -0.15
25 0.28
26 -0.15
27 -0.15
28 -0.01
3 -0.43
30 -0.15
31 -0.15
32 -0.15
33 -0.15
34 0.11
4 -0.57
44 0.42
45 0.15
46 0.15
49 0.15
5 -0.57
50 0.15
54 0.15
55 0.15
56 0.15
57 0.15
6 -0.57
7 -0.65
8 -0.65
9 -0.84

> <PUBCHEM_EFFECTIVE_ROTOR_COUNT>
8.2

> <PUBCHEM_PHARMACOPHORE_FEATURES>
12
1 1 hydrophobe
1 10 donor
1 4 acceptor
1 5 acceptor
1 6 acceptor
1 7 acceptor
1 8 acceptor
1 9 cation
6 16 18 19 20 21 22 rings
6 20 22 23 24 26 27 rings
6 28 30 31 32 33 34 rings
6 9 11 12 13 14 15 rings

> <PUBCHEM_HEAVY_ATOM_COUNT>
34

> <PUBCHEM_ATOM_DEF_STEREO_COUNT>
0

> <PUBCHEM_ATOM_UDEF_STEREO_COUNT>
0

> <PUBCHEM_BOND_DEF_STEREO_COUNT>
0

> <PUBCHEM_BOND_UDEF_STEREO_COUNT>
0

> <PUBCHEM_ISOTOPIC_ATOM_COUNT>
0

> <PUBCHEM_COMPONENT_COUNT>
1

> <PUBCHEM_CACTVS_TAUTO_COUNT>
3

> <PUBCHEM_CONFORMER_ID>
0041C01100000001

> <PUBCHEM_MMFF94_ENERGY>
83.3721

> <PUBCHEM_FEATURE_SELFOVERLAP>
60.94

> <PUBCHEM_SHAPE_FINGERPRINT>
10050765 1 18409728470602502858
10190206 1 18335419114735728228
10675989 125 17758112983998944388
1100329 8 17976810996455986194
11513181 2 18131347483955991695
12156800 1 18194993857180139733
12788726 201 18336817710738218642
13004483 165 18195239151885182210
13383665 225 18189914178876665708
13590594 115 18122348144780999731
1361 2 18122063105287550809
14028597 1 17461130379557465562
140371 6 17901391409487169188
14068700 675 17701260463320738507
14790565 3 18337953359994216444
14866123 147 18410008823305872114
14955137 171 17976262666091166454
15276724 80 18269559514893469204
15439362 3 17909549459469059092
15483637 11 18409728457053092555
15927050 60 18268994194091791943
15968369 153 18057304275102119389
16087824 20 18336546126991776799
16112460 7 18269554949332690785
17138139 8 17769048503457958613
20642791 105 18337940251932766760
21133410 38 18057891235199228385
21133410 62 18116696445694555005
21133410 90 17274541049021918137
21197605 99 18336277743275695537
21285901 2 17916321583281164230
21307412 95 17769395842264919390
21641784 216 18188781668481865436
22223350 30 18268691880160816448
23559900 14 17757822712892768835
23576562 1 18260559931296584348
38695281 34 18120932806775164068
4058900 60 17981891834918276601
469060 322 16950831583877248796
46939830 39 17459460234037338789
5171179 24 17701242861985649097
653340 110 18340195401367567520

> <PUBCHEM_SHAPE_MULTIPOLES>
664.32
12.94
6.8
1.23
6.26
0.75
-0.09
0.41
1.19
-12.05
0.61
-0.98
0.35
-2.2

> <PUBCHEM_SHAPE_SELFOVERLAP>
1414.27

> <PUBCHEM_SHAPE_VOLUME>
374.5

> <PUBCHEM_COORDINATE_TYPE>
2
5
10

$$$$
