5855786
  -OEChem-01171811433D

 34 36  0     0  0  0  0  0  0999 V2000
   -0.0013    1.3777    0.4660 O   0  0  0  0  0  0  0  0  0  0  0  0
    2.0284   -1.4631   -2.6000 O   0  5  0  0  0  0  0  0  0  0  0  0
    1.2064    0.4907   -2.0287 O   0  0  0  0  0  0  0  0  0  0  0  0
    1.8050   -0.5732   -1.7469 N   0  3  0  0  0  0  0  0  0  0  0  0
   -2.2955   -1.6602   -0.2935 N   0  0  0  0  0  0  0  0  0  0  0  0
   -2.2513    0.6978   -0.2623 N   0  0  0  0  0  0  0  0  0  0  0  0
   -2.7524    1.9217    0.0420 N   0  0  0  0  0  0  0  0  0  0  0  0
   -3.9964   -0.6809    0.6740 N   0  0  0  0  0  0  0  0  0  0  0  0
   -1.0799   -1.8861   -0.9737 N   0  0  0  0  0  0  0  0  0  0  0  0
   -4.1816   -2.0471    0.7460 N   0  0  0  0  0  0  0  0  0  0  0  0
    2.0285    0.1748    0.5859 C   0  0  0  0  0  0  0  0  0  0  0  0
    1.3426    1.4173    0.3048 C   0  0  0  0  0  0  0  0  0  0  0  0
    2.2469   -0.7786   -0.4087 C   0  0  0  0  0  0  0  0  0  0  0  0
    1.7590    2.6559   -0.0988 C   0  0  0  0  0  0  0  0  0  0  0  0
    2.4753   -0.0593    1.8864 C   0  0  0  0  0  0  0  0  0  0  0  0
   -0.4567    2.6204    0.1584 C   0  0  0  0  0  0  0  0  0  0  0  0
    0.5871    3.4435   -0.1954 C   0  0  0  0  0  0  0  0  0  0  0  0
    2.9121   -1.9659   -0.1027 C   0  0  0  0  0  0  0  0  0  0  0  0
    3.1405   -1.2467    2.1922 C   0  0  0  0  0  0  0  0  0  0  0  0
    3.3588   -2.1999    1.1978 C   0  0  0  0  0  0  0  0  0  0  0  0
   -1.8573    2.8568    0.2461 C   0  0  0  0  0  0  0  0  0  0  0  0
   -2.8661   -0.4791    0.0504 C   0  0  0  0  0  0  0  0  0  0  0  0
   -3.1522   -2.6164    0.1607 C   0  0  0  0  0  0  0  0  0  0  0  0
    2.7749    2.9641   -0.3015 H   0  0  0  0  0  0  0  0  0  0  0  0
    2.3132    0.6724    2.6746 H   0  0  0  0  0  0  0  0  0  0  0  0
    0.5164    4.4816   -0.4874 H   0  0  0  0  0  0  0  0  0  0  0  0
    3.1023   -2.7348   -0.8472 H   0  0  0  0  0  0  0  0  0  0  0  0
    3.4881   -1.4292    3.2048 H   0  0  0  0  0  0  0  0  0  0  0  0
    3.8765   -3.1243    1.4366 H   0  0  0  0  0  0  0  0  0  0  0  0
   -2.2126    3.8827    0.4346 H   0  0  0  0  0  0  0  0  0  0  0  0
   -1.3785    0.6611   -0.7835 H   0  0  0  0  0  0  0  0  0  0  0  0
   -2.9850   -3.6780    0.0440 H   0  0  0  0  0  0  0  0  0  0  0  0
   -1.2168   -2.3794   -1.8550 H   0  0  0  0  0  0  0  0  0  0  0  0
   -0.4325   -2.4534   -0.4278 H   0  0  0  0  0  0  0  0  0  0  0  0
  1 12  1  0  0  0  0
  1 16  1  0  0  0  0
  2  4  1  0  0  0  0
  3  4  2  0  0  0  0
  4 13  1  0  0  0  0
  5  9  1  0  0  0  0
  5 22  1  0  0  0  0
  5 23  1  0  0  0  0
  6  7  1  0  0  0  0
  6 22  1  0  0  0  0
  6 31  1  0  0  0  0
  7 21  2  0  0  0  0
  8 10  1  0  0  0  0
  8 22  2  0  0  0  0
  9 33  1  0  0  0  0
  9 34  1  0  0  0  0
 10 23  2  0  0  0  0
 11 12  1  0  0  0  0
 11 13  1  0  0  0  0
 11 15  2  0  0  0  0
 12 14  2  0  0  0  0
 13 18  2  0  0  0  0
 14 17  1  0  0  0  0
 14 24  1  0  0  0  0
 15 19  1  0  0  0  0
 15 25  1  0  0  0  0
 16 17  2  0  0  0  0
 16 21  1  0  0  0  0
 17 26  1  0  0  0  0
 18 20  1  0  0  0  0
 18 27  1  0  0  0  0
 19 20  2  0  0  0  0
 19 28  1  0  0  0  0
 20 29  1  0  0  0  0
 21 30  1  0  0  0  0
 23 32  1  0  0  0  0
M  CHG  2   2  -1   4   1
M  END
> <PUBCHEM_COMPOUND_CID>
5855786

> <PUBCHEM_CONFORMER_RMSD>
0.8

> <PUBCHEM_CONFORMER_DIVERSEORDER>
1
13
22
31
25
34
45
27
14
9
33
26
32
21
10
46
28
24
5
11
23
36
29
16
30
15
39
4
8
12
41
35
42
2
19
3
44
7
40
17
43
6
18
20
37
38

> <PUBCHEM_MMFF94_PARTIAL_CHARGES>
34
1 -0.28
10 -0.34
11 0.05
12 0.09
13 0.13
14 -0.15
15 -0.15
16 0.05
17 -0.15
18 -0.15
19 -0.15
2 -0.52
20 -0.15
21 0.47
22 0.27
23 0.04
24 0.15
25 0.15
26 0.15
27 0.15
28 0.15
29 0.15
3 -0.52
30 0.06
31 0.4
32 0.15
33 0.36
34 0.36
4 0.91
5 0.45
6 -0.44
7 -0.49
8 -0.34
9 -0.87

> <PUBCHEM_EFFECTIVE_ROTOR_COUNT>
5

> <PUBCHEM_PHARMACOPHORE_FEATURES>
11
1 1 acceptor
1 2 acceptor
1 2 anion
1 3 acceptor
1 6 donor
1 7 acceptor
1 9 donor
4 5 6 8 22 cation
5 1 12 14 16 17 rings
5 5 8 10 22 23 rings
6 11 13 15 18 19 20 rings

> <PUBCHEM_HEAVY_ATOM_COUNT>
23

> <PUBCHEM_ATOM_DEF_STEREO_COUNT>
0

> <PUBCHEM_ATOM_UDEF_STEREO_COUNT>
0

> <PUBCHEM_BOND_DEF_STEREO_COUNT>
1

> <PUBCHEM_BOND_UDEF_STEREO_COUNT>
0

> <PUBCHEM_ISOTOPIC_ATOM_COUNT>
0

> <PUBCHEM_COMPONENT_COUNT>
1

> <PUBCHEM_CACTVS_TAUTO_COUNT>
2

> <PUBCHEM_CONFORMER_ID>
00595A2A00000001

> <PUBCHEM_MMFF94_ENERGY>
62.1398

> <PUBCHEM_FEATURE_SELFOVERLAP>
55.909

> <PUBCHEM_SHAPE_FINGERPRINT>
10382601 240 18124604342345634488
11578080 2 17459167634990310164
12156800 1 12379504067117378127
12363563 72 18409442588040118651
12553582 1 18410858784723291619
12633257 1 18339933627991107169
13009979 54 17969511403025214362
13140716 1 18340204090197385033
13726171 33 18124345785589397324
15664445 248 17533235286586478173
20291156 8 18334571343546109155
20397935 3 18336557035892242966
20600515 1 18196368109434829848
20905425 154 18340205314125855448
21421861 104 18335426828191355041
21731516 1 18334584524832577337
23184049 29 18409161112899910089
23419403 2 17174004999438039384
23559900 14 17910957933853924766
25222932 49 17686623854600088091
5283268 108 18341341045566000467
568465 68 17273959260619379128
57091435 65 18266738176340361218
70634741 139 17337628582156400750
81228 2 18055919788205177745

> <PUBCHEM_SHAPE_MULTIPOLES>
420.85
6.35
3.93
1.66
3.83
2.16
0.64
-5.26
-2.17
1.39
-0.18
-1.83
-0.81
-0.16

> <PUBCHEM_SHAPE_SELFOVERLAP>
927.252

> <PUBCHEM_SHAPE_VOLUME>
226.9

> <PUBCHEM_COORDINATE_TYPE>
2
5
10

$$$$
