4529187
  -OEChem-01171812033D

 40 42  0     1  0  0  0  0  0999 V2000
   -0.3897    2.2215   -0.0387 S   0  0  0  0  0  0  0  0  0  0  0  0
   -5.5655    1.3667    0.0024 S   0  0  0  0  0  0  0  0  0  0  0  0
   -2.0642   -2.3973    0.0606 O   0  0  0  0  0  0  0  0  0  0  0  0
   -2.9447    1.6074   -0.0165 N   0  0  0  0  0  0  0  0  0  0  0  0
   -3.6737   -0.6753    0.0267 N   0  0  0  0  0  0  0  0  0  0  0  0
    2.9730   -0.1082    0.3617 C   0  0  2  0  0  0  0  0  0  0  0  0
    4.4634    0.0431    0.0656 C   0  0  0  0  0  0  0  0  0  0  0  0
    2.3932   -1.3437   -0.3579 C   0  0  0  0  0  0  0  0  0  0  0  0
    2.2093    1.1716   -0.0427 C   0  0  0  0  0  0  0  0  0  0  0  0
    0.9195   -1.5804    0.0107 C   0  0  0  0  0  0  0  0  0  0  0  0
    0.7315    0.9325   -0.0200 C   0  0  0  0  0  0  0  0  0  0  0  0
    0.1190   -0.3129   -0.0142 C   0  0  0  0  0  0  0  0  0  0  0  0
    5.2126   -1.2259    0.5063 C   0  0  0  0  0  0  0  0  0  0  0  0
    4.6748    0.2566   -1.4430 C   0  0  0  0  0  0  0  0  0  0  0  0
    5.0255    1.2531    0.8309 C   0  0  0  0  0  0  0  0  0  0  0  0
   -1.3089   -0.1862   -0.0009 C   0  0  0  0  0  0  0  0  0  0  0  0
   -1.6673    1.1307   -0.0180 C   0  0  0  0  0  0  0  0  0  0  0  0
   -2.3457   -1.2023    0.0303 C   0  0  0  0  0  0  0  0  0  0  0  0
   -4.0083    0.7170    0.0043 C   0  0  0  0  0  0  0  0  0  0  0  0
   -4.7538   -1.6679    0.0524 C   0  0  0  0  0  0  0  0  0  0  0  0
    2.8330   -0.2601    1.4426 H   0  0  0  0  0  0  0  0  0  0  0  0
    2.9329   -2.2629   -0.1141 H   0  0  0  0  0  0  0  0  0  0  0  0
    2.4355   -1.2181   -1.4455 H   0  0  0  0  0  0  0  0  0  0  0  0
    2.4484    1.5125   -1.0529 H   0  0  0  0  0  0  0  0  0  0  0  0
    2.4467    1.9865    0.6509 H   0  0  0  0  0  0  0  0  0  0  0  0
    0.8622   -2.0075    1.0196 H   0  0  0  0  0  0  0  0  0  0  0  0
    0.4932   -2.3148   -0.6819 H   0  0  0  0  0  0  0  0  0  0  0  0
    5.0255   -2.0796   -0.1525 H   0  0  0  0  0  0  0  0  0  0  0  0
    6.2968   -1.0613    0.4854 H   0  0  0  0  0  0  0  0  0  0  0  0
    4.9483   -1.5117    1.5305 H   0  0  0  0  0  0  0  0  0  0  0  0
    4.2662    1.1969   -1.8203 H   0  0  0  0  0  0  0  0  0  0  0  0
    4.2991   -0.5643   -2.0589 H   0  0  0  0  0  0  0  0  0  0  0  0
    5.7521    0.3086   -1.6514 H   0  0  0  0  0  0  0  0  0  0  0  0
    4.7944    1.1897    1.9001 H   0  0  0  0  0  0  0  0  0  0  0  0
    6.1168    1.3010    0.7348 H   0  0  0  0  0  0  0  0  0  0  0  0
    4.6411    2.2057    0.4524 H   0  0  0  0  0  0  0  0  0  0  0  0
   -3.0995    2.6099   -0.0309 H   0  0  0  0  0  0  0  0  0  0  0  0
   -5.3812   -1.5377   -0.8349 H   0  0  0  0  0  0  0  0  0  0  0  0
   -5.3625   -1.5109    0.9484 H   0  0  0  0  0  0  0  0  0  0  0  0
   -4.3785   -2.6941    0.0636 H   0  0  0  0  0  0  0  0  0  0  0  0
  1 11  1  0  0  0  0
  1 17  1  0  0  0  0
  2 19  2  0  0  0  0
  3 18  2  0  0  0  0
  4 17  1  0  0  0  0
  4 19  1  0  0  0  0
  4 37  1  0  0  0  0
  5 18  1  0  0  0  0
  5 19  1  0  0  0  0
  5 20  1  0  0  0  0
  6  7  1  0  0  0  0
  6  8  1  0  0  0  0
  6  9  1  0  0  0  0
  6 21  1  0  0  0  0
  7 13  1  0  0  0  0
  7 14  1  0  0  0  0
  7 15  1  0  0  0  0
  8 10  1  0  0  0  0
  8 22  1  0  0  0  0
  8 23  1  0  0  0  0
  9 11  1  0  0  0  0
  9 24  1  0  0  0  0
  9 25  1  0  0  0  0
 10 12  1  0  0  0  0
 10 26  1  0  0  0  0
 10 27  1  0  0  0  0
 11 12  2  0  0  0  0
 12 16  1  0  0  0  0
 13 28  1  0  0  0  0
 13 29  1  0  0  0  0
 13 30  1  0  0  0  0
 14 31  1  0  0  0  0
 14 32  1  0  0  0  0
 14 33  1  0  0  0  0
 15 34  1  0  0  0  0
 15 35  1  0  0  0  0
 15 36  1  0  0  0  0
 16 17  2  0  0  0  0
 16 18  1  0  0  0  0
 20 38  1  0  0  0  0
 20 39  1  0  0  0  0
 20 40  1  0  0  0  0
M  END
> <PUBCHEM_COMPOUND_CID>
4529187

> <PUBCHEM_CONFORMER_RMSD>
0.6

> <PUBCHEM_CONFORMER_DIVERSEORDER>
1
3
2

> <PUBCHEM_MMFF94_PARTIAL_CHARGES>
15
1 -0.08
10 0.18
11 -0.14
12 -0.18
16 -0.09
17 0.1
18 0.72
19 0.5
2 -0.38
20 0.3
3 -0.57
37 0.37
4 -0.49
5 -0.42
9 0.18

> <PUBCHEM_EFFECTIVE_ROTOR_COUNT>
1.8

> <PUBCHEM_PHARMACOPHORE_FEATURES>
7
1 2 acceptor
1 3 acceptor
1 4 donor
4 7 13 14 15 hydrophobe
5 1 11 12 16 17 rings
6 4 5 16 17 18 19 rings
6 6 8 9 10 11 12 rings

> <PUBCHEM_HEAVY_ATOM_COUNT>
20

> <PUBCHEM_ATOM_DEF_STEREO_COUNT>
0

> <PUBCHEM_ATOM_UDEF_STEREO_COUNT>
1

> <PUBCHEM_BOND_DEF_STEREO_COUNT>
0

> <PUBCHEM_BOND_UDEF_STEREO_COUNT>
0

> <PUBCHEM_ISOTOPIC_ATOM_COUNT>
0

> <PUBCHEM_COMPONENT_COUNT>
1

> <PUBCHEM_CACTVS_TAUTO_COUNT>
4

> <PUBCHEM_CONFORMER_ID>
00451C2300000001

> <PUBCHEM_MMFF94_ENERGY>
52.0203

> <PUBCHEM_FEATURE_SELFOVERLAP>
35.651

> <PUBCHEM_SHAPE_FINGERPRINT>
10062212 137 18335698368708190990
10616163 171 18411421738718700063
10906281 52 18339942440926466133
10967382 1 18338517439117211439
11045977 3 18201715176177312520
11132069 177 18410292519123520672
11578080 2 13684926842634104729
12011746 2 18342175544678979325
12107183 9 17614273365129240042
12236239 1 17821730528627459820
12390115 104 17985279477946985409
12403814 3 17530683186838034509
12616971 3 17167859781679118852
13140716 1 18338797926220218024
13214271 11 18342452660026377751
13533116 47 17458899337310380042
13675066 3 18130785702586231144
13862211 1 18411133671130655319
14790565 3 18051981325092075705
15099037 51 18410292497785847349
15196674 1 18410572898540562554
15375358 24 18272934907720687158
15788980 27 17313101930160095252
17349148 13 17822296768916142006
17804303 29 18341332270673637825
1813 80 17312821576312352156
19141452 34 18413951693841838807
200 152 17989202659782394541
20510252 161 18200030612599730865
20645477 70 16845298185932170284
21033648 29 17632002130738088451
21267235 1 18337962276340736235
21279426 13 18339923710173064455
21421861 104 17824254904446449546
2297311 6 18271538545481401540
23175994 123 17203330013621746393
23366157 5 17825668030270534820
23402539 116 18413100663304636335
23557571 272 18272101495397782750
23559900 14 18341614781222672622
3004659 81 18260549988093559862
335352 9 18410292493485748461
34797466 226 17275108361654977756
34934 24 18411131424878343367
350125 39 18410013255876067573
3545911 37 18411139099773768405
4214541 1 18410573985357270441
474 4 16878799351843119996
4990 188 18060145310617658436
5104073 3 18410855460180955746
542803 24 17385726902299617532
559249 180 18334570213843427779
59755656 215 18268716022209020502
633830 44 17022907848143241042
9709674 26 18412269432134827062

> <PUBCHEM_SHAPE_MULTIPOLES>
403.46
11.86
2.16
0.78
0.82
0.21
0.12
-0.36
-0.38
-1.31
-0.08
0.78
-0.07
0.11

> <PUBCHEM_SHAPE_SELFOVERLAP>
841.637

> <PUBCHEM_SHAPE_VOLUME>
234.2

> <PUBCHEM_COORDINATE_TYPE>
2
5
10

$$$$
