67038
  -OEChem-01171811493D

 30 31  0     0  0  0  0  0  0999 V2000
   -4.0515   -0.0022    0.0088 S   0  0  0  0  0  0  0  0  0  0  0  0
    2.2025   -2.4335    0.5645 O   0  0  0  0  0  0  0  0  0  0  0  0
   -4.4822    0.4182   -1.5114 O   0  0  0  0  0  0  0  0  0  0  0  0
   -4.5308   -1.3596    0.2256 O   0  0  0  0  0  0  0  0  0  0  0  0
   -4.4448    1.0750    0.9037 O   0  0  0  0  0  0  0  0  0  0  0  0
    1.8790   -0.1620   -0.0339 N   0  0  0  0  0  0  0  0  0  0  0  0
    2.6747    0.9208   -0.3373 N   0  0  0  0  0  0  0  0  0  0  0  0
    0.4945   -0.1088   -0.0212 C   0  0  0  0  0  0  0  0  0  0  0  0
   -0.1846    1.0741    0.2983 C   0  0  0  0  0  0  0  0  0  0  0  0
    4.0460   -0.9142    0.1239 C   0  0  0  0  0  0  0  0  0  0  0  0
    2.6083   -1.3244    0.2612 C   0  0  0  0  0  0  0  0  0  0  0  0
    3.9036    0.5218   -0.2558 C   0  0  0  0  0  0  0  0  0  0  0  0
   -2.3060   -0.0420   -0.0037 C   0  0  0  0  0  0  0  0  0  0  0  0
   -0.2438   -1.2576   -0.3316 C   0  0  0  0  0  0  0  0  0  0  0  0
   -1.5791    1.1073    0.3070 C   0  0  0  0  0  0  0  0  0  0  0  0
   -1.6382   -1.2245   -0.3231 C   0  0  0  0  0  0  0  0  0  0  0  0
    0.5684    2.3201    0.6347 C   0  0  0  0  0  0  0  0  0  0  0  0
    5.0840    1.3915   -0.5097 C   0  0  0  0  0  0  0  0  0  0  0  0
    4.5367   -1.4772   -0.6721 H   0  0  0  0  0  0  0  0  0  0  0  0
    4.5706   -1.0115    1.0761 H   0  0  0  0  0  0  0  0  0  0  0  0
    0.2246   -2.1874   -0.6382 H   0  0  0  0  0  0  0  0  0  0  0  0
   -2.0934    2.0343    0.5470 H   0  0  0  0  0  0  0  0  0  0  0  0
   -2.1843   -2.1262   -0.5858 H   0  0  0  0  0  0  0  0  0  0  0  0
    1.0103    2.7694   -0.2600 H   0  0  0  0  0  0  0  0  0  0  0  0
   -0.1029    3.0765    1.0599 H   0  0  0  0  0  0  0  0  0  0  0  0
    1.3269    2.1413    1.4039 H   0  0  0  0  0  0  0  0  0  0  0  0
    5.7036    1.4327    0.3897 H   0  0  0  0  0  0  0  0  0  0  0  0
    4.7633    2.4026   -0.7732 H   0  0  0  0  0  0  0  0  0  0  0  0
    5.6715    0.9739   -1.3313 H   0  0  0  0  0  0  0  0  0  0  0  0
   -4.2067   -0.2117   -2.2184 H   0  0  0  0  0  0  0  0  0  0  0  0
  1  3  1  0  0  0  0
  1  4  2  0  0  0  0
  1  5  2  0  0  0  0
  1 13  1  0  0  0  0
  2 11  2  0  0  0  0
  3 30  1  0  0  0  0
  6  7  1  0  0  0  0
  6  8  1  0  0  0  0
  6 11  1  0  0  0  0
  7 12  2  0  0  0  0
  8  9  2  0  0  0  0
  8 14  1  0  0  0  0
  9 15  1  0  0  0  0
  9 17  1  0  0  0  0
 10 11  1  0  0  0  0
 10 12  1  0  0  0  0
 10 19  1  0  0  0  0
 10 20  1  0  0  0  0
 12 18  1  0  0  0  0
 13 15  2  0  0  0  0
 13 16  1  0  0  0  0
 14 16  2  0  0  0  0
 14 21  1  0  0  0  0
 15 22  1  0  0  0  0
 16 23  1  0  0  0  0
 17 24  1  0  0  0  0
 17 25  1  0  0  0  0
 17 26  1  0  0  0  0
 18 27  1  0  0  0  0
 18 28  1  0  0  0  0
 18 29  1  0  0  0  0
M  END
> <PUBCHEM_COMPOUND_CID>
67038

> <PUBCHEM_CONFORMER_RMSD>
0.6

> <PUBCHEM_CONFORMER_DIVERSEORDER>
2
3
1
4

> <PUBCHEM_MMFF94_PARTIAL_CHARGES>
22
1 1.49
10 0.12
11 0.57
12 0.33
13 -0.01
14 -0.15
15 -0.15
16 -0.15
17 0.14
18 0.06
2 -0.57
21 0.15
22 0.15
23 0.15
3 -0.68
30 0.5
4 -0.65
5 -0.65
6 -0.11
7 -0.51
8 0.12
9 -0.14

> <PUBCHEM_EFFECTIVE_ROTOR_COUNT>
2.4

> <PUBCHEM_PHARMACOPHORE_FEATURES>
8
1 2 acceptor
1 3 acceptor
1 4 acceptor
1 5 acceptor
1 7 acceptor
4 1 3 4 5 anion
5 6 7 10 11 12 rings
6 8 9 13 14 15 16 rings

> <PUBCHEM_HEAVY_ATOM_COUNT>
18

> <PUBCHEM_ATOM_DEF_STEREO_COUNT>
0

> <PUBCHEM_ATOM_UDEF_STEREO_COUNT>
0

> <PUBCHEM_BOND_DEF_STEREO_COUNT>
0

> <PUBCHEM_BOND_UDEF_STEREO_COUNT>
0

> <PUBCHEM_ISOTOPIC_ATOM_COUNT>
0

> <PUBCHEM_COMPONENT_COUNT>
1

> <PUBCHEM_CACTVS_TAUTO_COUNT>
3

> <PUBCHEM_CONFORMER_ID>
000105DE00000002

> <PUBCHEM_MMFF94_ENERGY>
50.1597

> <PUBCHEM_FEATURE_SELFOVERLAP>
40.655

> <PUBCHEM_SHAPE_FINGERPRINT>
10062212 137 18130784543282658367
10967382 1 18411700980670755570
11471102 20 18408882936637170910
12236239 1 18409732868016063196
13221675 6 18342174474910316982
13760787 5 18411980226506503807
14787075 74 18334016133013154218
14790565 3 18340497762786523840
14993402 34 18130785676579011685
15196674 1 18411984650016967410
15342168 16 17605285167163458844
15375358 24 17821450170442609602
15375462 189 18412542110970614098
15536298 74 18341896264641585718
16945 1 18341037601340849681
18186145 218 18186804638747364311
19026448 4 17095525059029010871
200 152 18342174453482803930
20281475 54 18411696569744539483
20510252 161 17988366953372415688
20645477 70 18410012100577305390
21029758 11 18201715163218758881
21267235 1 18339652161435837526
23402539 116 17917426505997565709
23402655 69 18412260631704067989
23463225 33 18340206284698494755
23559900 14 18409729539427374098
2871803 45 18409730638790919012
296302 2 17967253104455920583
34934 24 18343297102452818388
4340502 62 17240205438735889627
449060 62 18412547604666230666
474 4 17968664933896092092
5104073 3 18409731754976073106
537710 114 18412547617419478112
633830 44 18200037231344534271
9709674 26 18336553737173224018

> <PUBCHEM_SHAPE_MULTIPOLES>
340.84
9.62
1.97
0.82
1.56
0.06
-0.12
-0.79
-1.17
-0.94
0.36
0.44
-0.1
-0.55

> <PUBCHEM_SHAPE_SELFOVERLAP>
716.578

> <PUBCHEM_SHAPE_VOLUME>
193.9

> <PUBCHEM_COORDINATE_TYPE>
2
5
10

$$$$
