16745746
  -OEChem-01171811563D

 57 60  0     1  0  0  0  0  0999 V2000
    2.7026   -1.4738    1.2247 O   0  0  0  0  0  0  0  0  0  0  0  0
    0.6902    0.1144    2.0662 O   0  0  0  0  0  0  0  0  0  0  0  0
    2.1806   -3.3978   -0.6337 O   0  0  0  0  0  0  0  0  0  0  0  0
    2.2856   -0.2706   -0.6990 O   0  0  0  0  0  0  0  0  0  0  0  0
    6.6921    2.0582   -1.5912 O   0  0  0  0  0  0  0  0  0  0  0  0
    7.0759    0.9624    0.4020 O   0  0  0  0  0  0  0  0  0  0  0  0
   -3.1389   -0.1925    0.2940 N   0  0  0  0  0  0  0  0  0  0  0  0
   -4.6865   -1.1987   -1.3917 C   0  0  0  0  0  0  0  0  0  0  0  0
   -5.1467   -2.4831   -2.0163 C   0  0  0  0  0  0  0  0  0  0  0  0
   -5.7902   -1.9901   -0.7534 C   0  0  0  0  0  0  0  0  0  0  0  0
   -3.3542   -1.1601   -0.7282 C   0  0  0  0  0  0  0  0  0  0  0  0
   -2.3661   -2.0194   -1.0833 C   0  0  0  0  0  0  0  0  0  0  0  0
   -1.0646   -1.9608   -0.4142 C   0  0  0  0  0  0  0  0  0  0  0  0
   -1.8896   -0.1439    0.9263 C   0  0  0  0  0  0  0  0  0  0  0  0
   -0.8642   -0.9610    0.6295 C   0  0  0  0  0  0  0  0  0  0  0  0
   -4.1895    0.7463    0.6966 C   0  0  0  0  0  0  0  0  0  0  0  0
    1.3926   -2.0144    1.1807 C   0  0  1  0  0  0  0  0  0  0  0  0
    0.4311   -0.8511    1.3511 C   0  0  0  0  0  0  0  0  0  0  0  0
   -0.0843   -2.7996   -0.7862 C   0  0  0  0  0  0  0  0  0  0  0  0
    1.2479   -2.7746   -0.1284 C   0  0  0  0  0  0  0  0  0  0  0  0
   -3.7540    2.1636    0.4469 C   0  0  0  0  0  0  0  0  0  0  0  0
    1.2054   -2.9816    2.3506 C   0  0  0  0  0  0  0  0  0  0  0  0
   -3.0802    2.8718    1.4421 C   0  0  0  0  0  0  0  0  0  0  0  0
   -4.0233    2.7702   -0.7800 C   0  0  0  0  0  0  0  0  0  0  0  0
    3.0279   -0.6040    0.2143 C   0  0  0  0  0  0  0  0  0  0  0  0
   -2.6759    4.1865    1.2104 C   0  0  0  0  0  0  0  0  0  0  0  0
   -3.6188    4.0850   -1.0116 C   0  0  0  0  0  0  0  0  0  0  0  0
    4.4464   -0.1142    0.4123 C   0  0  0  0  0  0  0  0  0  0  0  0
   -2.9451    4.7930   -0.0163 C   0  0  0  0  0  0  0  0  0  0  0  0
    4.9183    0.8016   -0.7149 C   0  0  0  0  0  0  0  0  0  0  0  0
    6.3505    1.2582   -0.5374 C   0  0  0  0  0  0  0  0  0  0  0  0
    8.0247    2.5798   -1.5619 C   0  0  0  0  0  0  0  0  0  0  0  0
   -4.9474   -0.2960   -1.9348 H   0  0  0  0  0  0  0  0  0  0  0  0
   -5.7248   -2.4156   -2.9315 H   0  0  0  0  0  0  0  0  0  0  0  0
   -4.5862   -3.4051   -1.9316 H   0  0  0  0  0  0  0  0  0  0  0  0
   -5.5859   -2.5330    0.1617 H   0  0  0  0  0  0  0  0  0  0  0  0
   -6.7968   -1.5953   -0.8209 H   0  0  0  0  0  0  0  0  0  0  0  0
   -2.4903   -2.7488   -1.8764 H   0  0  0  0  0  0  0  0  0  0  0  0
   -1.8099    0.5822    1.7232 H   0  0  0  0  0  0  0  0  0  0  0  0
   -4.3999    0.6084    1.7664 H   0  0  0  0  0  0  0  0  0  0  0  0
   -5.1548    0.5794    0.2083 H   0  0  0  0  0  0  0  0  0  0  0  0
   -0.2139   -3.5228   -1.5856 H   0  0  0  0  0  0  0  0  0  0  0  0
    1.3661   -2.4738    3.3087 H   0  0  0  0  0  0  0  0  0  0  0  0
    0.2017   -3.4203    2.3608 H   0  0  0  0  0  0  0  0  0  0  0  0
    1.9341   -3.7989    2.3011 H   0  0  0  0  0  0  0  0  0  0  0  0
   -2.8831    2.4274    2.4138 H   0  0  0  0  0  0  0  0  0  0  0  0
   -4.5467    2.2298   -1.5639 H   0  0  0  0  0  0  0  0  0  0  0  0
   -2.1565    4.7401    1.9874 H   0  0  0  0  0  0  0  0  0  0  0  0
   -3.8284    4.5575   -1.9667 H   0  0  0  0  0  0  0  0  0  0  0  0
    5.1034   -0.9898    0.4721 H   0  0  0  0  0  0  0  0  0  0  0  0
    4.4931    0.4202    1.3681 H   0  0  0  0  0  0  0  0  0  0  0  0
   -2.6315    5.8172   -0.1962 H   0  0  0  0  0  0  0  0  0  0  0  0
    4.2778    1.6901   -0.7592 H   0  0  0  0  0  0  0  0  0  0  0  0
    4.8447    0.2730   -1.6725 H   0  0  0  0  0  0  0  0  0  0  0  0
    8.1673    3.2046   -0.6750 H   0  0  0  0  0  0  0  0  0  0  0  0
    8.7517    1.7624   -1.5805 H   0  0  0  0  0  0  0  0  0  0  0  0
    8.1677    3.1971   -2.4528 H   0  0  0  0  0  0  0  0  0  0  0  0
  1 17  1  0  0  0  0
  1 25  1  0  0  0  0
  2 18  2  0  0  0  0
  3 20  2  0  0  0  0
  4 25  2  0  0  0  0
  5 31  1  0  0  0  0
  5 32  1  0  0  0  0
  6 31  2  0  0  0  0
  7 11  1  0  0  0  0
  7 14  1  0  0  0  0
  7 16  1  0  0  0  0
  8  9  1  0  0  0  0
  8 10  1  0  0  0  0
  8 11  1  0  0  0  0
  8 33  1  0  0  0  0
  9 10  1  0  0  0  0
  9 34  1  0  0  0  0
  9 35  1  0  0  0  0
 10 36  1  0  0  0  0
 10 37  1  0  0  0  0
 11 12  2  0  0  0  0
 12 13  1  0  0  0  0
 12 38  1  0  0  0  0
 13 15  1  0  0  0  0
 13 19  2  0  0  0  0
 14 15  2  0  0  0  0
 14 39  1  0  0  0  0
 15 18  1  0  0  0  0
 16 21  1  0  0  0  0
 16 40  1  0  0  0  0
 16 41  1  0  0  0  0
 17 18  1  0  0  0  0
 17 20  1  0  0  0  0
 17 22  1  0  0  0  0
 19 20  1  0  0  0  0
 19 42  1  0  0  0  0
 21 23  2  0  0  0  0
 21 24  1  0  0  0  0
 22 43  1  0  0  0  0
 22 44  1  0  0  0  0
 22 45  1  0  0  0  0
 23 26  1  0  0  0  0
 23 46  1  0  0  0  0
 24 27  2  0  0  0  0
 24 47  1  0  0  0  0
 25 28  1  0  0  0  0
 26 29  2  0  0  0  0
 26 48  1  0  0  0  0
 27 29  1  0  0  0  0
 27 49  1  0  0  0  0
 28 30  1  0  0  0  0
 28 50  1  0  0  0  0
 28 51  1  0  0  0  0
 29 52  1  0  0  0  0
 30 31  1  0  0  0  0
 30 53  1  0  0  0  0
 30 54  1  0  0  0  0
 32 55  1  0  0  0  0
 32 56  1  0  0  0  0
 32 57  1  0  0  0  0
M  END
> <PUBCHEM_COMPOUND_CID>
16745746

> <PUBCHEM_CONFORMER_RMSD>
1

> <PUBCHEM_CONFORMER_DIVERSEORDER>
2
9
59
6
82
54
95
15
53
85
87
46
41
80
71
67
90
43
62
79
89
28
30
36
57
69
49
84
55
98
17
73
34
63
68
40
65
66
77
47
76
74
12
10
51
92
37
48
21
11
44
91
81
1
83
29
31
61
32
96
88
14
42
7
25
35
60
52
56
64
72
13
18
4
78
23
70
93
33
58
86
45
94
38
22
50
24
16
20
5
75
39
97
3
26
8
19
27

> <PUBCHEM_MMFF94_PARTIAL_CHARGES>
43
1 -0.43
10 -0.2
11 0.06
12 -0.15
14 -0.05
15 0.01
16 0.51
17 0.4
18 0.49
19 -0.14
2 -0.57
20 0.49
21 -0.14
23 -0.15
24 -0.15
25 0.66
26 -0.15
27 -0.15
28 0.06
29 -0.15
3 -0.57
30 0.06
31 0.66
32 0.28
33 0.1
34 0.1
35 0.1
36 0.1
37 0.1
38 0.15
39 0.15
4 -0.57
42 0.15
46 0.15
47 0.15
48 0.15
49 0.15
5 -0.43
52 0.15
6 -0.57
7 -0.57
8 -0.06
9 -0.2

> <PUBCHEM_EFFECTIVE_ROTOR_COUNT>
10

> <PUBCHEM_PHARMACOPHORE_FEATURES>
8
1 2 acceptor
1 3 acceptor
1 4 acceptor
1 6 acceptor
1 7 cation
6 13 15 17 18 19 20 rings
6 21 23 24 26 27 29 rings
6 7 11 12 13 14 15 rings

> <PUBCHEM_HEAVY_ATOM_COUNT>
32

> <PUBCHEM_ATOM_DEF_STEREO_COUNT>
0

> <PUBCHEM_ATOM_UDEF_STEREO_COUNT>
1

> <PUBCHEM_BOND_DEF_STEREO_COUNT>
0

> <PUBCHEM_BOND_UDEF_STEREO_COUNT>
0

> <PUBCHEM_ISOTOPIC_ATOM_COUNT>
0

> <PUBCHEM_COMPONENT_COUNT>
1

> <PUBCHEM_CACTVS_TAUTO_COUNT>
1

> <PUBCHEM_CONFORMER_ID>
00FF851200000002

> <PUBCHEM_MMFF94_ENERGY>
87.4544

> <PUBCHEM_FEATURE_SELFOVERLAP>
40.622

> <PUBCHEM_SHAPE_FINGERPRINT>
10670039 82 18341891922260844400
10871710 139 18411699881333155693
11477941 20 18201146762962486285
12788726 201 18337936923660731587
13583140 156 17463983350249218267
13690498 29 17988638635802390983
13911987 19 18336809988529880831
14400156 162 12974976595711137200
15064981 113 18202008738040944110
15163728 17 18340499867636341014
15448158 71 18190195502480214901
15575132 122 18411418401771327581
15705408 1 17547820386075681669
21049683 271 18264481975066386823
21641784 216 18341604932867762549
21796203 349 17976840984382202291
22122407 14 16153425077889262444
22907989 373 18199167522421705773
23516275 100 17838601611540245928
23576562 1 17908143179059031023
249057 25 18188474810195882450
27425 322 17680997284391456601
2838139 119 18333736797684257834
550186 72 18411135853180016829
563151 97 18335421257729658446
6058803 2 18192699052081069291
6371009 1 18260828258745541556
6608658 132 18410852196016528645
7237137 82 18201997724974740961
7808743 9 18270397175123548657

> <PUBCHEM_SHAPE_MULTIPOLES>
618.35
15.26
5.66
1.77
30.04
5.6
0.31
11.54
-8.66
-5.4
-0.42
0.09
-0.39
-4.22

> <PUBCHEM_SHAPE_SELFOVERLAP>
1332.48

> <PUBCHEM_SHAPE_VOLUME>
337.9

> <PUBCHEM_COORDINATE_TYPE>
2
5
10

$$$$
