16189542
  -OEChem-01171811483D

 50 53  0     0  0  0  0  0  0999 V2000
   -2.0852   -1.7993    1.6281 O   0  0  0  0  0  0  0  0  0  0  0  0
    3.5498    4.7268   -0.6568 O   0  0  0  0  0  0  0  0  0  0  0  0
    1.9025   -3.3327   -2.1692 O   0  0  0  0  0  0  0  0  0  0  0  0
    3.9909   -4.4086   -0.6487 O   0  0  0  0  0  0  0  0  0  0  0  0
   -2.5588    0.1271    0.3233 N   0  0  0  0  0  0  0  0  0  0  0  0
   -1.7375    1.1367   -0.1117 N   0  0  0  0  0  0  0  0  0  0  0  0
   -0.4685    0.9410    0.3744 C   0  0  0  0  0  0  0  0  0  0  0  0
   -0.3831   -0.1980    1.0837 C   0  0  0  0  0  0  0  0  0  0  0  0
   -1.7791   -0.7576    1.0706 C   0  0  0  0  0  0  0  0  0  0  0  0
    0.5789    1.9303    0.1048 C   0  0  0  0  0  0  0  0  0  0  0  0
   -3.9246    0.0761   -0.0314 C   0  0  0  0  0  0  0  0  0  0  0  0
    0.7177   -0.8228    1.7423 C   0  0  0  0  0  0  0  0  0  0  0  0
    1.5281   -1.7129    1.1464 C   0  0  0  0  0  0  0  0  0  0  0  0
    1.2023    2.5915    1.1632 C   0  0  0  0  0  0  0  0  0  0  0  0
    0.9536    2.2094   -1.2095 C   0  0  0  0  0  0  0  0  0  0  0  0
   -4.7137   -0.9960    0.3854 C   0  0  0  0  0  0  0  0  0  0  0  0
   -4.4850    1.0979   -0.7979 C   0  0  0  0  0  0  0  0  0  0  0  0
    2.2003    3.5316    0.9073 C   0  0  0  0  0  0  0  0  0  0  0  0
    1.9516    3.1496   -1.4655 C   0  0  0  0  0  0  0  0  0  0  0  0
    1.3089   -2.0883   -0.2419 C   0  0  0  0  0  0  0  0  0  0  0  0
    2.5749    3.8109   -0.4070 C   0  0  0  0  0  0  0  0  0  0  0  0
    2.6306   -2.3074    1.8846 C   0  0  0  0  0  0  0  0  0  0  0  0
   -6.0630   -1.0464    0.0355 C   0  0  0  0  0  0  0  0  0  0  0  0
   -5.8344    1.0476   -1.1478 C   0  0  0  0  0  0  0  0  0  0  0  0
    2.1069   -2.9744   -0.8546 C   0  0  0  0  0  0  0  0  0  0  0  0
   -6.6233   -0.0247   -0.7310 C   0  0  0  0  0  0  0  0  0  0  0  0
    3.4482   -3.1957    1.3058 C   0  0  0  0  0  0  0  0  0  0  0  0
    3.2446   -3.5957   -0.1128 C   0  0  0  0  0  0  0  0  0  0  0  0
    4.1468    5.3641    0.4717 C   0  0  0  0  0  0  0  0  0  0  0  0
    2.6197   -2.4800   -3.0413 C   0  0  0  0  0  0  0  0  0  0  0  0
   -2.0785    2.0780   -0.2576 H   0  0  0  0  0  0  0  0  0  0  0  0
    0.8535   -0.5561    2.7877 H   0  0  0  0  0  0  0  0  0  0  0  0
    0.9196    2.3905    2.1939 H   0  0  0  0  0  0  0  0  0  0  0  0
    0.4810    1.7003   -2.0462 H   0  0  0  0  0  0  0  0  0  0  0  0
   -4.3257   -1.8137    0.9809 H   0  0  0  0  0  0  0  0  0  0  0  0
   -3.9115    1.9489   -1.1515 H   0  0  0  0  0  0  0  0  0  0  0  0
    2.6421    4.0085    1.7755 H   0  0  0  0  0  0  0  0  0  0  0  0
    2.2403    3.3619   -2.4913 H   0  0  0  0  0  0  0  0  0  0  0  0
    0.4898   -1.6604   -0.8106 H   0  0  0  0  0  0  0  0  0  0  0  0
    2.7901   -2.0236    2.9204 H   0  0  0  0  0  0  0  0  0  0  0  0
   -6.6780   -1.8811    0.3593 H   0  0  0  0  0  0  0  0  0  0  0  0
   -6.2711    1.8421   -1.7459 H   0  0  0  0  0  0  0  0  0  0  0  0
   -7.6739   -0.0641   -1.0038 H   0  0  0  0  0  0  0  0  0  0  0  0
    4.2729   -3.6439    1.8477 H   0  0  0  0  0  0  0  0  0  0  0  0
    4.9004    6.0600    0.0887 H   0  0  0  0  0  0  0  0  0  0  0  0
    4.6711    4.6444    1.1096 H   0  0  0  0  0  0  0  0  0  0  0  0
    3.4166    5.9594    1.0305 H   0  0  0  0  0  0  0  0  0  0  0  0
    2.4432   -2.8156   -4.0676 H   0  0  0  0  0  0  0  0  0  0  0  0
    3.6975   -2.5289   -2.8512 H   0  0  0  0  0  0  0  0  0  0  0  0
    2.2707   -1.4443   -2.9608 H   0  0  0  0  0  0  0  0  0  0  0  0
  1  9  2  0  0  0  0
  2 21  1  0  0  0  0
  2 29  1  0  0  0  0
  3 25  1  0  0  0  0
  3 30  1  0  0  0  0
  4 28  2  0  0  0  0
  5  6  1  0  0  0  0
  5  9  1  0  0  0  0
  5 11  1  0  0  0  0
  6  7  1  0  0  0  0
  6 31  1  0  0  0  0
  7  8  2  0  0  0  0
  7 10  1  0  0  0  0
  8  9  1  0  0  0  0
  8 12  1  0  0  0  0
 10 14  2  0  0  0  0
 10 15  1  0  0  0  0
 11 16  2  0  0  0  0
 11 17  1  0  0  0  0
 12 13  2  0  0  0  0
 12 32  1  0  0  0  0
 13 20  1  0  0  0  0
 13 22  1  0  0  0  0
 14 18  1  0  0  0  0
 14 33  1  0  0  0  0
 15 19  2  0  0  0  0
 15 34  1  0  0  0  0
 16 23  1  0  0  0  0
 16 35  1  0  0  0  0
 17 24  2  0  0  0  0
 17 36  1  0  0  0  0
 18 21  2  0  0  0  0
 18 37  1  0  0  0  0
 19 21  1  0  0  0  0
 19 38  1  0  0  0  0
 20 25  2  0  0  0  0
 20 39  1  0  0  0  0
 22 27  2  0  0  0  0
 22 40  1  0  0  0  0
 23 26  2  0  0  0  0
 23 41  1  0  0  0  0
 24 26  1  0  0  0  0
 24 42  1  0  0  0  0
 25 28  1  0  0  0  0
 26 43  1  0  0  0  0
 27 28  1  0  0  0  0
 27 44  1  0  0  0  0
 29 45  1  0  0  0  0
 29 46  1  0  0  0  0
 29 47  1  0  0  0  0
 30 48  1  0  0  0  0
 30 49  1  0  0  0  0
 30 50  1  0  0  0  0
M  END
> <PUBCHEM_COMPOUND_CID>
16189542

> <PUBCHEM_CONFORMER_RMSD>
0.8

> <PUBCHEM_CONFORMER_DIVERSEORDER>
1
2
6
11
8
3
12
10
5
4
9
7

> <PUBCHEM_MMFF94_PARTIAL_CHARGES>
43
1 -0.57
10 0.03
11 0.12
12 -0.15
14 -0.15
15 -0.15
16 -0.15
17 -0.15
18 -0.15
19 -0.15
2 -0.36
20 -0.15
21 0.08
22 -0.15
23 -0.15
24 -0.15
25 0.09
26 -0.15
27 -0.14
28 0.54
29 0.28
3 -0.36
30 0.28
31 0.4
32 0.15
33 0.15
34 0.15
35 0.15
36 0.15
37 0.15
38 0.15
39 0.15
4 -0.57
40 0.15
41 0.15
42 0.15
43 0.15
44 0.15
5 -0.16
6 -0.52
7 0.07
8 0.01
9 0.62

> <PUBCHEM_EFFECTIVE_ROTOR_COUNT>
5

> <PUBCHEM_PHARMACOPHORE_FEATURES>
9
1 1 acceptor
1 2 acceptor
1 3 acceptor
1 4 acceptor
1 6 donor
5 5 6 7 8 9 rings
6 10 14 15 18 19 21 rings
6 11 16 17 23 24 26 rings
6 13 20 22 25 27 28 rings

> <PUBCHEM_HEAVY_ATOM_COUNT>
30

> <PUBCHEM_ATOM_DEF_STEREO_COUNT>
0

> <PUBCHEM_ATOM_UDEF_STEREO_COUNT>
0

> <PUBCHEM_BOND_DEF_STEREO_COUNT>
1

> <PUBCHEM_BOND_UDEF_STEREO_COUNT>
0

> <PUBCHEM_ISOTOPIC_ATOM_COUNT>
0

> <PUBCHEM_COMPONENT_COUNT>
1

> <PUBCHEM_CACTVS_TAUTO_COUNT>
3

> <PUBCHEM_CONFORMER_ID>
00F7086600000001

> <PUBCHEM_MMFF94_ENERGY>
122.3672

> <PUBCHEM_FEATURE_SELFOVERLAP>
45.677

> <PUBCHEM_SHAPE_FINGERPRINT>
10369192 42 17898568945743113021
10721379 63 18411430500594226809
11297010 23 18264469832487498917
11488393 25 18337964470879004051
11513181 2 18335972147826188093
11763715 3 17904215732509947610
11991303 11 17762347216041229428
12160290 23 17035586049981765608
12788726 201 17395581588669643770
13149001 5 18114190700695506011
133893 2 18337692857142027777
13540713 4 17968098660007080371
13681431 1 18339085891002912560
13757389 114 17333668076093896236
15439362 3 18262229023289148281
15664445 248 18267304235650235875
15775530 1 17824285867261227955
15961568 22 18266173943004426722
1813 80 18198905803856953307
19026451 147 18337400318619992278
20554085 129 18054213599667948953
20600515 1 17981036410444621665
20775438 99 18264194985093990975
21133665 82 18119533383026380860
21304303 282 17478309294836829188
23559900 14 18335690612666927395
24771750 20 18189906485845991332
249999 5 18336541715738753473
255183 313 17257954004602915219
3298306 158 18264214788612374204
3388396 114 17978547203041641390
3411729 13 18187915244423586777
376196 1 17972027304540951761
38695281 34 18268425926668145136
4017518 198 18196094559484936452
44802255 64 17467374626161603772
46194498 28 18409441493356253671
5081480 168 18115292385729364117
5219985 13 17902228145862157573
5265222 85 17828776375802529676
5385378 56 18336552728425557137
54076057 127 18337681914482924027
59755656 215 18260826037899146597
60123966 16 18190435231123154861
6669772 16 18197505236512356404
6700243 42 17267528097203530926
7399639 24 17768785612762942018
9831232 110 18270959047974472927
9981440 41 17898850425014537785

> <PUBCHEM_SHAPE_MULTIPOLES>
583.95
10.81
6.92
1.9
22.9
4.25
0.86
0.44
2.42
-16.14
1.29
-1.61
-1.48
1.23

> <PUBCHEM_SHAPE_SELFOVERLAP>
1284.327

> <PUBCHEM_SHAPE_VOLUME>
314.7

> <PUBCHEM_COORDINATE_TYPE>
2
5
10

$$$$
