659124
  -OEChem-01171812143D

 52 55  0     0  0  0  0  0  0999 V2000
    0.5615   -3.2427    0.1940 O   0  0  0  0  0  0  0  0  0  0  0  0
   -1.3484   -2.4649    1.1955 O   0  0  0  0  0  0  0  0  0  0  0  0
   -4.6122    0.8734   -0.0051 O   0  0  0  0  0  0  0  0  0  0  0  0
   -2.6174   -1.9418   -0.6434 O   0  0  0  0  0  0  0  0  0  0  0  0
    0.1269    1.2434   -0.3389 N   0  0  0  0  0  0  0  0  0  0  0  0
   -2.0343    0.2384   -0.0441 N   0  0  0  0  0  0  0  0  0  0  0  0
    2.5078    1.6569   -0.4810 N   0  0  0  0  0  0  0  0  0  0  0  0
    2.6725   -1.0965    0.2469 N   0  0  0  0  0  0  0  0  0  0  0  0
   -0.3460    2.5672   -0.6835 C   0  0  0  0  0  0  0  0  0  0  0  0
   -0.6639    0.1603   -0.0418 C   0  0  0  0  0  0  0  0  0  0  0  0
    1.4415    0.8757   -0.2594 C   0  0  0  0  0  0  0  0  0  0  0  0
   -0.5150    3.4556    0.5481 C   0  0  0  0  0  0  0  0  0  0  0  0
    1.4903   -0.4594    0.0937 C   0  0  0  0  0  0  0  0  0  0  0  0
    0.1589   -0.9133    0.2314 C   0  0  0  0  0  0  0  0  0  0  0  0
   -1.0254    4.8431    0.1622 C   0  0  0  0  0  0  0  0  0  0  0  0
    3.6793    1.0223   -0.3285 C   0  0  0  0  0  0  0  0  0  0  0  0
    3.7616   -0.3439    0.0331 C   0  0  0  0  0  0  0  0  0  0  0  0
   -0.2901   -2.2296    0.5871 C   0  0  0  0  0  0  0  0  0  0  0  0
   -1.2341    5.7203    1.3863 C   0  0  0  0  0  0  0  0  0  0  0  0
   -2.9459   -0.7974   -0.3397 C   0  0  0  0  0  0  0  0  0  0  0  0
    4.8568    1.7352   -0.5333 C   0  0  0  0  0  0  0  0  0  0  0  0
    5.0166   -0.9287    0.1718 C   0  0  0  0  0  0  0  0  0  0  0  0
    6.1069    1.1357   -0.3911 C   0  0  0  0  0  0  0  0  0  0  0  0
    6.1872   -0.2017   -0.0368 C   0  0  0  0  0  0  0  0  0  0  0  0
   -4.3659   -0.4041   -0.3074 C   0  0  0  0  0  0  0  0  0  0  0  0
    0.1740   -4.5829    0.5177 C   0  0  0  0  0  0  0  0  0  0  0  0
   -5.4678   -1.1356   -0.5368 C   0  0  0  0  0  0  0  0  0  0  0  0
    1.2303   -5.5389    0.0060 C   0  0  0  0  0  0  0  0  0  0  0  0
   -6.5390   -0.2272   -0.3625 C   0  0  0  0  0  0  0  0  0  0  0  0
   -5.9665    0.9811   -0.0403 C   0  0  0  0  0  0  0  0  0  0  0  0
   -1.2833    2.4716   -1.2422 H   0  0  0  0  0  0  0  0  0  0  0  0
    0.3802    3.0100   -1.3759 H   0  0  0  0  0  0  0  0  0  0  0  0
   -1.2162    2.9879    1.2505 H   0  0  0  0  0  0  0  0  0  0  0  0
    0.4424    3.5477    1.0761 H   0  0  0  0  0  0  0  0  0  0  0  0
   -0.3104    5.3283   -0.5124 H   0  0  0  0  0  0  0  0  0  0  0  0
   -1.9740    4.7534   -0.3797 H   0  0  0  0  0  0  0  0  0  0  0  0
   -2.4274    1.1746    0.0111 H   0  0  0  0  0  0  0  0  0  0  0  0
   -0.2974    5.8553    1.9363 H   0  0  0  0  0  0  0  0  0  0  0  0
   -1.9707    5.2782    2.0648 H   0  0  0  0  0  0  0  0  0  0  0  0
   -1.5979    6.7082    1.0870 H   0  0  0  0  0  0  0  0  0  0  0  0
    4.8126    2.7867   -0.8118 H   0  0  0  0  0  0  0  0  0  0  0  0
    5.0982   -1.9783    0.4493 H   0  0  0  0  0  0  0  0  0  0  0  0
    7.0109    1.7138   -0.5567 H   0  0  0  0  0  0  0  0  0  0  0  0
    7.1545   -0.6810    0.0776 H   0  0  0  0  0  0  0  0  0  0  0  0
    0.0792   -4.6810    1.6046 H   0  0  0  0  0  0  0  0  0  0  0  0
   -0.7893   -4.8062    0.0462 H   0  0  0  0  0  0  0  0  0  0  0  0
   -5.5307   -2.1825   -0.7964 H   0  0  0  0  0  0  0  0  0  0  0  0
    0.9660   -6.5744    0.2375 H   0  0  0  0  0  0  0  0  0  0  0  0
    1.3489   -5.4376   -1.0778 H   0  0  0  0  0  0  0  0  0  0  0  0
    2.2036   -5.3132    0.4544 H   0  0  0  0  0  0  0  0  0  0  0  0
   -7.5962   -0.4280   -0.4597 H   0  0  0  0  0  0  0  0  0  0  0  0
   -6.3633    1.9610    0.1820 H   0  0  0  0  0  0  0  0  0  0  0  0
  1 18  1  0  0  0  0
  1 26  1  0  0  0  0
  2 18  2  0  0  0  0
  3 25  1  0  0  0  0
  3 30  1  0  0  0  0
  4 20  2  0  0  0  0
  5  9  1  0  0  0  0
  5 10  1  0  0  0  0
  5 11  1  0  0  0  0
  6 10  1  0  0  0  0
  6 20  1  0  0  0  0
  6 37  1  0  0  0  0
  7 11  2  0  0  0  0
  7 16  1  0  0  0  0
  8 13  2  0  0  0  0
  8 17  1  0  0  0  0
  9 12  1  0  0  0  0
  9 31  1  0  0  0  0
  9 32  1  0  0  0  0
 10 14  2  0  0  0  0
 11 13  1  0  0  0  0
 12 15  1  0  0  0  0
 12 33  1  0  0  0  0
 12 34  1  0  0  0  0
 13 14  1  0  0  0  0
 14 18  1  0  0  0  0
 15 19  1  0  0  0  0
 15 35  1  0  0  0  0
 15 36  1  0  0  0  0
 16 17  1  0  0  0  0
 16 21  2  0  0  0  0
 17 22  2  0  0  0  0
 19 38  1  0  0  0  0
 19 39  1  0  0  0  0
 19 40  1  0  0  0  0
 20 25  1  0  0  0  0
 21 23  1  0  0  0  0
 21 41  1  0  0  0  0
 22 24  1  0  0  0  0
 22 42  1  0  0  0  0
 23 24  2  0  0  0  0
 23 43  1  0  0  0  0
 24 44  1  0  0  0  0
 25 27  2  0  0  0  0
 26 28  1  0  0  0  0
 26 45  1  0  0  0  0
 26 46  1  0  0  0  0
 27 29  1  0  0  0  0
 27 47  1  0  0  0  0
 28 48  1  0  0  0  0
 28 49  1  0  0  0  0
 28 50  1  0  0  0  0
 29 30  2  0  0  0  0
 29 51  1  0  0  0  0
 30 52  1  0  0  0  0
M  END
> <PUBCHEM_COMPOUND_CID>
659124

> <PUBCHEM_CONFORMER_RMSD>
1

> <PUBCHEM_CONFORMER_DIVERSEORDER>
1
10
15
17
4
13
11
16
8
14
5
2
3
12
7
6
9

> <PUBCHEM_MMFF94_PARTIAL_CHARGES>
34
1 -0.43
10 -0.09
11 0.11
13 0.26
14 -0.09
16 0.31
17 0.31
18 0.81
2 -0.57
20 0.71
21 -0.15
22 -0.15
23 -0.15
24 -0.15
25 0.05
26 0.28
27 -0.15
29 -0.15
3 -0.28
30 -0.01
37 0.37
4 -0.57
41 0.15
42 0.15
43 0.15
44 0.15
47 0.15
5 0.05
51 0.15
52 0.15
6 -0.49
7 -0.57
8 -0.57
9 0.26

> <PUBCHEM_EFFECTIVE_ROTOR_COUNT>
9

> <PUBCHEM_PHARMACOPHORE_FEATURES>
11
1 19 hydrophobe
1 2 acceptor
1 3 acceptor
1 4 acceptor
1 6 donor
1 8 acceptor
3 5 7 11 cation
5 3 25 27 29 30 rings
5 5 10 11 13 14 rings
6 16 17 21 22 23 24 rings
6 7 8 11 13 16 17 rings

> <PUBCHEM_HEAVY_ATOM_COUNT>
30

> <PUBCHEM_ATOM_DEF_STEREO_COUNT>
0

> <PUBCHEM_ATOM_UDEF_STEREO_COUNT>
0

> <PUBCHEM_BOND_DEF_STEREO_COUNT>
0

> <PUBCHEM_BOND_UDEF_STEREO_COUNT>
0

> <PUBCHEM_ISOTOPIC_ATOM_COUNT>
0

> <PUBCHEM_COMPONENT_COUNT>
1

> <PUBCHEM_CACTVS_TAUTO_COUNT>
5

> <PUBCHEM_CONFORMER_ID>
000A0EB400000001

> <PUBCHEM_MMFF94_ENERGY>
66.2865

> <PUBCHEM_FEATURE_SELFOVERLAP>
56.046

> <PUBCHEM_SHAPE_FINGERPRINT>
10050765 1 17907296550752036014
102385 1 17906733600856500629
10906281 52 18339099162641735164
10930396 42 18196625567502879680
1100329 8 18265334095501902341
11135926 11 18336822001457721239
11421498 54 18340767040398304217
11578080 2 17342927454743085202
11646440 116 18410582807499977017
12058002 1 17413631467946071105
12236239 1 18272369784909264503
12440605 4 17979646636558269385
12516196 113 18341328980712988277
12788726 201 18410289173259887360
13140716 1 18409444812574825570
13911987 19 18334585671462108637
14178342 30 17977648824231189248
14394314 77 18412269402809028273
14790565 3 18408606971792641509
14849402 71 18194410107344421681
15131766 46 14853318635385245982
15927050 60 17763189038210064548
16728300 4 17244110784575796682
18681886 176 18270109240737629371
19319366 153 17385995196496918874
20028762 73 18341610395623532054
20775438 99 16760252378600154383
21033648 29 18198053875344487034
21285901 2 17917444094094631556
23402539 116 18342453776665088326
23558518 356 18049451343928957948
23559900 14 18197773516880275512
266924 87 18266173933427788485
283562 15 18339081493030676544
3004659 81 18186800301363021964
3178227 256 18336277842218400083
335352 9 18334858342557806574
350125 39 18408602527039774620
38695281 34 18411135840205697687
4073 2 17823420568811090506
5486654 2 18409452513894084604
59755656 215 18337110072860919206
6004065 56 18268702978150073567
6138700 20 18409449172114479846

> <PUBCHEM_SHAPE_MULTIPOLES>
573.98
12.5
6.4
0.82
2.44
1.02
-0.11
1.09
2.5
0.98
-2.35
0.15
0.29
-1.01

> <PUBCHEM_SHAPE_SELFOVERLAP>
1261.542

> <PUBCHEM_SHAPE_VOLUME>
307.7

> <PUBCHEM_COORDINATE_TYPE>
2
5
10

$$$$
