1222695
  -OEChem-01171812023D

 58 60  0     0  0  0  0  0  0999 V2000
    3.3895   -0.8275    1.2048 O   0  0  0  0  0  0  0  0  0  0  0  0
    4.8668   -2.3825   -0.5417 O   0  0  0  0  0  0  0  0  0  0  0  0
   -4.7396    1.7087   -2.1666 O   0  0  0  0  0  0  0  0  0  0  0  0
   -5.4263   -2.6850   -0.4313 O   0  0  0  0  0  0  0  0  0  0  0  0
    1.6551    1.2515    1.1553 N   0  0  0  0  0  0  0  0  0  0  0  0
   -1.2117    1.0406    1.4648 N   0  0  0  0  0  0  0  0  0  0  0  0
    0.9288    2.0882    2.1185 C   0  0  0  0  0  0  0  0  0  0  0  0
    0.7892    0.9048    0.0216 C   0  0  0  0  0  0  0  0  0  0  0  0
   -0.3461    1.3865    2.5990 C   0  0  0  0  0  0  0  0  0  0  0  0
   -0.4851    0.2024    0.5032 C   0  0  0  0  0  0  0  0  0  0  0  0
    2.8685    1.9238    0.6950 C   0  0  0  0  0  0  0  0  0  0  0  0
   -2.4261    0.3698    1.9243 C   0  0  0  0  0  0  0  0  0  0  0  0
    3.6697    1.0572   -0.2397 C   0  0  0  0  0  0  0  0  0  0  0  0
   -3.3645    0.0670    0.7864 C   0  0  0  0  0  0  0  0  0  0  0  0
    3.8914   -0.2801    0.0612 C   0  0  0  0  0  0  0  0  0  0  0  0
    4.1787    1.6204   -1.4027 C   0  0  0  0  0  0  0  0  0  0  0  0
   -3.9637   -1.1822    0.7091 C   0  0  0  0  0  0  0  0  0  0  0  0
   -3.6165    1.0415   -0.1690 C   0  0  0  0  0  0  0  0  0  0  0  0
    4.6358   -1.0685   -0.8164 C   0  0  0  0  0  0  0  0  0  0  0  0
   -4.4857    0.7609   -1.2233 C   0  0  0  0  0  0  0  0  0  0  0  0
   -4.8331   -1.4629   -0.3452 C   0  0  0  0  0  0  0  0  0  0  0  0
    4.9230    0.8321   -2.2801 C   0  0  0  0  0  0  0  0  0  0  0  0
    5.1516   -0.5124   -1.9870 C   0  0  0  0  0  0  0  0  0  0  0  0
   -5.0940   -0.4913   -1.3114 C   0  0  0  0  0  0  0  0  0  0  0  0
    4.3295   -1.3739    2.1271 C   0  0  0  0  0  0  0  0  0  0  0  0
    3.9129   -3.3241   -1.0294 C   0  0  0  0  0  0  0  0  0  0  0  0
   -4.0835    2.9666   -2.0162 C   0  0  0  0  0  0  0  0  0  0  0  0
   -5.1146   -3.6315    0.5897 C   0  0  0  0  0  0  0  0  0  0  0  0
    0.6698    3.0601    1.6770 H   0  0  0  0  0  0  0  0  0  0  0  0
    1.5634    2.2845    2.9911 H   0  0  0  0  0  0  0  0  0  0  0  0
    1.2781    0.2187   -0.6779 H   0  0  0  0  0  0  0  0  0  0  0  0
    0.5161    1.8038   -0.5486 H   0  0  0  0  0  0  0  0  0  0  0  0
   -0.8775    2.0647    3.2776 H   0  0  0  0  0  0  0  0  0  0  0  0
   -0.0780    0.4907    3.1758 H   0  0  0  0  0  0  0  0  0  0  0  0
   -1.0802   -0.0111   -0.3910 H   0  0  0  0  0  0  0  0  0  0  0  0
   -0.2203   -0.7653    0.9518 H   0  0  0  0  0  0  0  0  0  0  0  0
    2.6167    2.8781    0.2126 H   0  0  0  0  0  0  0  0  0  0  0  0
    3.5137    2.1615    1.5511 H   0  0  0  0  0  0  0  0  0  0  0  0
   -2.9675    1.0154    2.6282 H   0  0  0  0  0  0  0  0  0  0  0  0
   -2.1716   -0.5499    2.4680 H   0  0  0  0  0  0  0  0  0  0  0  0
    4.0096    2.6662   -1.6433 H   0  0  0  0  0  0  0  0  0  0  0  0
   -3.7270   -1.8994    1.4873 H   0  0  0  0  0  0  0  0  0  0  0  0
   -3.1363    2.0061   -0.0488 H   0  0  0  0  0  0  0  0  0  0  0  0
    5.3250    1.2650   -3.1915 H   0  0  0  0  0  0  0  0  0  0  0  0
    5.7331   -1.1203   -2.6748 H   0  0  0  0  0  0  0  0  0  0  0  0
   -5.7712   -0.7100   -2.1332 H   0  0  0  0  0  0  0  0  0  0  0  0
    3.9503   -1.1960    3.1378 H   0  0  0  0  0  0  0  0  0  0  0  0
    5.3146   -0.9015    2.0450 H   0  0  0  0  0  0  0  0  0  0  0  0
    4.4116   -2.4548    1.9830 H   0  0  0  0  0  0  0  0  0  0  0  0
    4.2247   -4.3230   -0.7123 H   0  0  0  0  0  0  0  0  0  0  0  0
    2.9209   -3.1190   -0.6145 H   0  0  0  0  0  0  0  0  0  0  0  0
    3.8753   -3.2992   -2.1231 H   0  0  0  0  0  0  0  0  0  0  0  0
   -4.3957    3.5958   -2.8562 H   0  0  0  0  0  0  0  0  0  0  0  0
   -2.9949    2.8640   -2.0824 H   0  0  0  0  0  0  0  0  0  0  0  0
   -4.3987    3.4781   -1.1004 H   0  0  0  0  0  0  0  0  0  0  0  0
   -5.4513   -3.2879    1.5737 H   0  0  0  0  0  0  0  0  0  0  0  0
   -4.0517   -3.8961    0.5828 H   0  0  0  0  0  0  0  0  0  0  0  0
   -5.6725   -4.5460    0.3632 H   0  0  0  0  0  0  0  0  0  0  0  0
  1 15  1  0  0  0  0
  1 25  1  0  0  0  0
  2 19  1  0  0  0  0
  2 26  1  0  0  0  0
  3 20  1  0  0  0  0
  3 27  1  0  0  0  0
  4 21  1  0  0  0  0
  4 28  1  0  0  0  0
  5  7  1  0  0  0  0
  5  8  1  0  0  0  0
  5 11  1  0  0  0  0
  6  9  1  0  0  0  0
  6 10  1  0  0  0  0
  6 12  1  0  0  0  0
  7  9  1  0  0  0  0
  7 29  1  0  0  0  0
  7 30  1  0  0  0  0
  8 10  1  0  0  0  0
  8 31  1  0  0  0  0
  8 32  1  0  0  0  0
  9 33  1  0  0  0  0
  9 34  1  0  0  0  0
 10 35  1  0  0  0  0
 10 36  1  0  0  0  0
 11 13  1  0  0  0  0
 11 37  1  0  0  0  0
 11 38  1  0  0  0  0
 12 14  1  0  0  0  0
 12 39  1  0  0  0  0
 12 40  1  0  0  0  0
 13 15  2  0  0  0  0
 13 16  1  0  0  0  0
 14 17  2  0  0  0  0
 14 18  1  0  0  0  0
 15 19  1  0  0  0  0
 16 22  2  0  0  0  0
 16 41  1  0  0  0  0
 17 21  1  0  0  0  0
 17 42  1  0  0  0  0
 18 20  2  0  0  0  0
 18 43  1  0  0  0  0
 19 23  2  0  0  0  0
 20 24  1  0  0  0  0
 21 24  2  0  0  0  0
 22 23  1  0  0  0  0
 22 44  1  0  0  0  0
 23 45  1  0  0  0  0
 24 46  1  0  0  0  0
 25 47  1  0  0  0  0
 25 48  1  0  0  0  0
 25 49  1  0  0  0  0
 26 50  1  0  0  0  0
 26 51  1  0  0  0  0
 26 52  1  0  0  0  0
 27 53  1  0  0  0  0
 27 54  1  0  0  0  0
 27 55  1  0  0  0  0
 28 56  1  0  0  0  0
 28 57  1  0  0  0  0
 28 58  1  0  0  0  0
M  END
> <PUBCHEM_COMPOUND_CID>
1222695

> <PUBCHEM_CONFORMER_RMSD>
1

> <PUBCHEM_CONFORMER_DIVERSEORDER>
11
74
46
85
97
51
65
38
9
78
13
88
83
26
63
91
35
1
80
20
94
93
60
24
2
27
52
87
58
71
99
55
77
7
31
75
49
12
32
48
67
84
50
76
14
21
69
34
54
64
6
57
45
22
41
79
92
96
44
98
19
29
8
5
25
3
59
42
53
17
68
66
62
72
39
70
81
16
95
30
23
73
10
56
100
15
82
90
89
61
40
28
47
86
33
36
37
4
18
43

> <PUBCHEM_MMFF94_PARTIAL_CHARGES>
34
1 -0.36
10 0.27
11 0.41
12 0.41
13 -0.14
14 -0.14
15 0.08
16 -0.15
17 -0.15
18 -0.15
19 0.08
2 -0.36
20 0.08
21 0.08
22 -0.15
23 -0.15
24 -0.15
25 0.28
26 0.28
27 0.28
28 0.28
3 -0.36
4 -0.36
41 0.15
42 0.15
43 0.15
44 0.15
45 0.15
46 0.15
5 -0.81
6 -0.81
7 0.27
8 0.27
9 0.27

> <PUBCHEM_EFFECTIVE_ROTOR_COUNT>
9.2

> <PUBCHEM_PHARMACOPHORE_FEATURES>
9
1 1 acceptor
1 2 acceptor
1 3 acceptor
1 4 acceptor
1 5 cation
1 6 cation
6 13 15 16 19 22 23 rings
6 14 17 18 20 21 24 rings
6 5 6 7 8 9 10 rings

> <PUBCHEM_HEAVY_ATOM_COUNT>
28

> <PUBCHEM_ATOM_DEF_STEREO_COUNT>
0

> <PUBCHEM_ATOM_UDEF_STEREO_COUNT>
0

> <PUBCHEM_BOND_DEF_STEREO_COUNT>
0

> <PUBCHEM_BOND_UDEF_STEREO_COUNT>
0

> <PUBCHEM_ISOTOPIC_ATOM_COUNT>
0

> <PUBCHEM_COMPONENT_COUNT>
1

> <PUBCHEM_CACTVS_TAUTO_COUNT>
1

> <PUBCHEM_CONFORMER_ID>
0012A8270000000B

> <PUBCHEM_MMFF94_ENERGY>
117.4635

> <PUBCHEM_FEATURE_SELFOVERLAP>
45.679

> <PUBCHEM_SHAPE_FINGERPRINT>
10928967 22 17418096524458313223
11135609 201 10955186985349327590
11796584 16 18338507565066584627
12422481 6 14548755983842726861
13782708 43 18058437868187277463
14347332 77 18260259781337436779
14480069 147 18201450211070906519
14848178 5 18131063801586876042
14848178 96 14562528492145819504
14910302 57 18337380639174169877
15183329 4 17822287942494773565
15799311 1 18270141070471383931
16067690 210 16805606927938401557
17349148 13 16845578625146704245
1813 80 16773794813857504713
18222031 100 16917067758909807648
19377110 9 11527361819415474064
193927 3 17561372798104781633
21033650 10 17894909612031857457
21315764 119 18335698313511874733
21968339 14 17822580516516823436
22393880 68 18261667108549263923
312425 54 12967139301959344133
312425 83 17967540068633184916
34797466 226 17604159223800442973
3610482 184 17386296398089471941
38570 142 16806733854859956965
393628 179 16953679456691664748
4017518 198 16106710840725628534
439807 62 18339932592646110303
44062 13 18409442575439890751
44317340 157 15936683784045006827
46194498 28 18119527884428791189
5104073 3 16845585226622169867
57724786 102 12902087736406249589
6034566 193 12396601627279143441
613672 6 17632003195895408265
633830 44 16009025047345224713
7064713 232 12607415411706251869
7970288 3 17775016673621250734
960060 61 18186525397454126460

> <PUBCHEM_SHAPE_MULTIPOLES>
542.79
15.24
3.29
2.47
3.39
2.33
0.29
7.5
-8.16
1.91
-0.58
-0.71
-1.26
1.58

> <PUBCHEM_SHAPE_SELFOVERLAP>
1143.716

> <PUBCHEM_SHAPE_VOLUME>
306.8

> <PUBCHEM_COORDINATE_TYPE>
2
5
10

$$$$
