244159
  -OEChem-01171812153D

 23 24  0     0  0  0  0  0  0999 V2000
   -1.1875   -2.9603   -0.0010 Br  0  0  0  0  0  0  0  0  0  0  0  0
   -3.0252   -0.5391   -0.0014 O   0  0  0  0  0  0  0  0  0  0  0  0
    2.2517    1.1155   -0.0007 N   0  0  0  0  0  0  0  0  0  0  0  0
    0.1948    2.9877   -0.0004 N   0  0  0  0  0  0  0  0  0  0  0  0
    0.6599   -0.6937    0.0006 C   0  0  0  0  0  0  0  0  0  0  0  0
    0.9773    0.6807    0.0000 C   0  0  0  0  0  0  0  0  0  0  0  0
   -0.0723    1.5953    0.0003 C   0  0  0  0  0  0  0  0  0  0  0  0
   -0.6816   -1.1121    0.0015 C   0  0  0  0  0  0  0  0  0  0  0  0
   -1.7114   -0.1758    0.0016 C   0  0  0  0  0  0  0  0  0  0  0  0
   -1.4061    1.1796    0.0010 C   0  0  0  0  0  0  0  0  0  0  0  0
    1.7160   -1.6149    0.0005 C   0  0  0  0  0  0  0  0  0  0  0  0
    3.0302   -1.1698   -0.0002 C   0  0  0  0  0  0  0  0  0  0  0  0
    3.2419    0.1939   -0.0008 C   0  0  0  0  0  0  0  0  0  0  0  0
   -3.9878    0.5129   -0.0009 C   0  0  0  0  0  0  0  0  0  0  0  0
   -2.1525    1.9668    0.0006 H   0  0  0  0  0  0  0  0  0  0  0  0
    1.5610   -2.6890    0.0012 H   0  0  0  0  0  0  0  0  0  0  0  0
    3.8593   -1.8675   -0.0003 H   0  0  0  0  0  0  0  0  0  0  0  0
    4.2480    0.6003   -0.0013 H   0  0  0  0  0  0  0  0  0  0  0  0
   -0.5672    3.6525    0.0005 H   0  0  0  0  0  0  0  0  0  0  0  0
    1.1525    3.3131   -0.0003 H   0  0  0  0  0  0  0  0  0  0  0  0
   -4.9760    0.0407   -0.0018 H   0  0  0  0  0  0  0  0  0  0  0  0
   -3.9302    1.1177   -0.9126 H   0  0  0  0  0  0  0  0  0  0  0  0
   -3.9311    1.1161    0.9119 H   0  0  0  0  0  0  0  0  0  0  0  0
  1  8  1  0  0  0  0
  2  9  1  0  0  0  0
  2 14  1  0  0  0  0
  3  6  1  0  0  0  0
  3 13  2  0  0  0  0
  4  7  1  0  0  0  0
  4 19  1  0  0  0  0
  4 20  1  0  0  0  0
  5  6  2  0  0  0  0
  5  8  1  0  0  0  0
  5 11  1  0  0  0  0
  6  7  1  0  0  0  0
  7 10  2  0  0  0  0
  8  9  2  0  0  0  0
  9 10  1  0  0  0  0
 10 15  1  0  0  0  0
 11 12  2  0  0  0  0
 11 16  1  0  0  0  0
 12 13  1  0  0  0  0
 12 17  1  0  0  0  0
 13 18  1  0  0  0  0
 14 21  1  0  0  0  0
 14 22  1  0  0  0  0
 14 23  1  0  0  0  0
M  END
> <PUBCHEM_COMPOUND_CID>
244159

> <PUBCHEM_CONFORMER_RMSD>
0.4

> <PUBCHEM_CONFORMER_DIVERSEORDER>
3
1
2

> <PUBCHEM_MMFF94_PARTIAL_CHARGES>
19
1 -0.11
10 -0.15
11 -0.15
12 -0.15
13 0.16
14 0.28
15 0.15
16 0.15
17 0.15
18 0.15
19 0.4
2 -0.36
20 0.4
3 -0.62
4 -0.9
6 0.31
7 0.1
8 0.11
9 0.08

> <PUBCHEM_EFFECTIVE_ROTOR_COUNT>
1

> <PUBCHEM_PHARMACOPHORE_FEATURES>
7
1 1 hydrophobe
1 2 acceptor
1 3 acceptor
1 4 cation
1 4 donor
6 3 5 6 11 12 13 rings
6 5 6 7 8 9 10 rings

> <PUBCHEM_HEAVY_ATOM_COUNT>
14

> <PUBCHEM_ATOM_DEF_STEREO_COUNT>
0

> <PUBCHEM_ATOM_UDEF_STEREO_COUNT>
0

> <PUBCHEM_BOND_DEF_STEREO_COUNT>
0

> <PUBCHEM_BOND_UDEF_STEREO_COUNT>
0

> <PUBCHEM_ISOTOPIC_ATOM_COUNT>
0

> <PUBCHEM_COMPONENT_COUNT>
1

> <PUBCHEM_CACTVS_TAUTO_COUNT>
1

> <PUBCHEM_CONFORMER_ID>
0003B9BF00000003

> <PUBCHEM_MMFF94_ENERGY>
64.4625

> <PUBCHEM_FEATURE_SELFOVERLAP>
35.551

> <PUBCHEM_SHAPE_FINGERPRINT>
10219947 1 18412266108119731491
10967382 1 18410855438674677670
11132069 177 18341887493864680258
11471102 20 18410006620304056549
11680986 33 18196932399069231945
12032990 46 18410018710468345475
12382932 28 18339921618777387258
12423570 1 10861810006587599408
12524768 44 18343026587979803382
13140716 1 18122904501685198216
13380535 76 18413106164767956334
14251717 144 18411412895939823607
14648413 74 18120654892426094569
14993402 34 18412545409774470719
16945 1 18338517550770582336
193761 8 17978511171669489351
20510252 161 18199745839246061184
20511035 2 17986106542048730501
20588541 1 18412829092274752534
20645476 183 17823438121799279206
21501502 16 18048598415084912183
2334 1 17617941777984802245
23402539 116 18271231747008397966
23419403 2 16185151558675268475
23463225 33 18409449146117361388
23552423 10 17976258259332674015
23559900 14 18342181116037747092
2748010 2 18337952264407803613
34934 24 18410003373293053842
43471831 8 18047471119250953690
528886 8 18411976974958025258
53812653 166 18270676583978338368
589210 1 17978508968451616723
7364860 26 18053383480951547585
8809292 202 18334861627659492874

> <PUBCHEM_SHAPE_MULTIPOLES>
278.22
4.86
2.79
0.61
1.18
0.36
0
0.13
0
0.38
0
0.01
0.05
0

> <PUBCHEM_SHAPE_SELFOVERLAP>
592.781

> <PUBCHEM_SHAPE_VOLUME>
159.8

> <PUBCHEM_COORDINATE_TYPE>
2
5
10

$$$$
