6533029
  -OEChem-01171812103D

 48 50  0     1  0  0  0  0  0999 V2000
   -6.0383   -1.9797   -0.0082 S   0  0  0  0  0  0  0  0  0  0  0  0
    1.9130    0.9471    1.1922 S   0  0  0  0  0  0  0  0  0  0  0  0
   -0.3429    2.5130    2.4204 S   0  0  0  0  0  0  0  0  0  0  0  0
   -7.3001   -2.0610   -0.7140 O   0  0  0  0  0  0  0  0  0  0  0  0
   -5.2846   -3.1574    0.3687 O   0  0  0  0  0  0  0  0  0  0  0  0
   -2.3065   -0.1311    0.3762 O   0  0  0  0  0  0  0  0  0  0  0  0
    0.2279    0.4391   -2.1936 O   0  0  0  0  0  0  0  0  0  0  0  0
    7.4740    0.5066   -0.2435 O   0  0  0  0  0  0  0  0  0  0  0  0
   -3.9449    1.3281   -0.4239 N   0  0  0  0  0  0  0  0  0  0  0  0
   -0.2582    1.4797   -0.1395 N   0  0  0  0  0  0  0  0  0  0  0  0
   -5.0616    0.4667   -0.1529 C   0  0  1  0  0  0  0  0  0  0  0  0
   -4.9540   -0.8668   -0.8915 C   0  0  0  0  0  0  0  0  0  0  0  0
   -5.1729    0.1179    1.3334 C   0  0  0  0  0  0  0  0  0  0  0  0
   -6.2565   -0.9492    1.4349 C   0  0  0  0  0  0  0  0  0  0  0  0
   -2.6193    0.9500   -0.1296 C   0  0  0  0  0  0  0  0  0  0  0  0
   -4.2688    2.6243   -1.0253 C   0  0  0  0  0  0  0  0  0  0  0  0
   -1.5592    1.9785   -0.4822 C   0  0  0  0  0  0  0  0  0  0  0  0
    0.5285    0.7439   -1.0470 C   0  0  0  0  0  0  0  0  0  0  0  0
    0.3175    1.6916    1.1235 C   0  0  0  0  0  0  0  0  0  0  0  0
    1.8163    0.3664   -0.4186 C   0  0  0  0  0  0  0  0  0  0  0  0
    2.7607   -0.3361   -1.0466 C   0  0  0  0  0  0  0  0  0  0  0  0
    4.0590   -0.7416   -0.4767 C   0  0  0  0  0  0  0  0  0  0  0  0
    5.1570    0.0873   -0.6356 C   0  0  0  0  0  0  0  0  0  0  0  0
    4.1531   -1.9431    0.2054 C   0  0  0  0  0  0  0  0  0  0  0  0
    6.3849   -0.2966   -0.0965 C   0  0  0  0  0  0  0  0  0  0  0  0
    5.3811   -2.3269    0.7443 C   0  0  0  0  0  0  0  0  0  0  0  0
    6.4969   -1.5037    0.5933 C   0  0  0  0  0  0  0  0  0  0  0  0
    8.6978    0.0527    0.3328 C   0  0  0  0  0  0  0  0  0  0  0  0
   -5.9905    0.9660   -0.4608 H   0  0  0  0  0  0  0  0  0  0  0  0
   -3.9580   -1.3135   -0.8815 H   0  0  0  0  0  0  0  0  0  0  0  0
   -5.2905   -0.7842   -1.9285 H   0  0  0  0  0  0  0  0  0  0  0  0
   -4.2426   -0.2901    1.7405 H   0  0  0  0  0  0  0  0  0  0  0  0
   -5.4256    0.9958    1.9376 H   0  0  0  0  0  0  0  0  0  0  0  0
   -6.1674   -1.5542    2.3395 H   0  0  0  0  0  0  0  0  0  0  0  0
   -7.2535   -0.5022    1.3796 H   0  0  0  0  0  0  0  0  0  0  0  0
   -4.8283    2.4427   -1.9488 H   0  0  0  0  0  0  0  0  0  0  0  0
   -3.4120    3.2480   -1.2712 H   0  0  0  0  0  0  0  0  0  0  0  0
   -4.9045    3.1747   -0.3244 H   0  0  0  0  0  0  0  0  0  0  0  0
   -1.7582    2.9209    0.0334 H   0  0  0  0  0  0  0  0  0  0  0  0
   -1.5845    2.1420   -1.5653 H   0  0  0  0  0  0  0  0  0  0  0  0
    2.6096   -0.6622   -2.0734 H   0  0  0  0  0  0  0  0  0  0  0  0
    5.0759    1.0291   -1.1728 H   0  0  0  0  0  0  0  0  0  0  0  0
    3.2912   -2.5933    0.3290 H   0  0  0  0  0  0  0  0  0  0  0  0
    5.4673   -3.2671    1.2812 H   0  0  0  0  0  0  0  0  0  0  0  0
    7.4193   -1.8628    1.0369 H   0  0  0  0  0  0  0  0  0  0  0  0
    8.6235   -0.0291    1.4225 H   0  0  0  0  0  0  0  0  0  0  0  0
    9.0402   -0.8784   -0.1312 H   0  0  0  0  0  0  0  0  0  0  0  0
    9.4564    0.8132    0.1206 H   0  0  0  0  0  0  0  0  0  0  0  0
  1  4  2  0  0  0  0
  1  5  2  0  0  0  0
  1 12  1  0  0  0  0
  1 14  1  0  0  0  0
  2 19  1  0  0  0  0
  2 20  1  0  0  0  0
  3 19  2  0  0  0  0
  6 15  2  0  0  0  0
  7 18  2  0  0  0  0
  8 25  1  0  0  0  0
  8 28  1  0  0  0  0
  9 11  1  0  0  0  0
  9 15  1  0  0  0  0
  9 16  1  0  0  0  0
 10 17  1  0  0  0  0
 10 18  1  0  0  0  0
 10 19  1  0  0  0  0
 11 12  1  0  0  0  0
 11 13  1  0  0  0  0
 11 29  1  0  0  0  0
 12 30  1  0  0  0  0
 12 31  1  0  0  0  0
 13 14  1  0  0  0  0
 13 32  1  0  0  0  0
 13 33  1  0  0  0  0
 14 34  1  0  0  0  0
 14 35  1  0  0  0  0
 15 17  1  0  0  0  0
 16 36  1  0  0  0  0
 16 37  1  0  0  0  0
 16 38  1  0  0  0  0
 17 39  1  0  0  0  0
 17 40  1  0  0  0  0
 18 20  1  0  0  0  0
 20 21  2  0  0  0  0
 21 22  1  0  0  0  0
 21 41  1  0  0  0  0
 22 23  2  0  0  0  0
 22 24  1  0  0  0  0
 23 25  1  0  0  0  0
 23 42  1  0  0  0  0
 24 26  2  0  0  0  0
 24 43  1  0  0  0  0
 25 27  2  0  0  0  0
 26 27  1  0  0  0  0
 26 44  1  0  0  0  0
 27 45  1  0  0  0  0
 28 46  1  0  0  0  0
 28 47  1  0  0  0  0
 28 48  1  0  0  0  0
M  END
> <PUBCHEM_COMPOUND_CID>
6533029

> <PUBCHEM_CONFORMER_RMSD>
0.8

> <PUBCHEM_CONFORMER_DIVERSEORDER>
2
131
263
427
220
411
356
185
351
373
26
129
367
274
260
238
184
330
139
108
284
215
312
231
192
408
196
313
140
323
233
107
326
125
243
309
67
347
235
315
86
157
252
378
202
384
250
314
229
28
77
445
306
147
420
200
396
64
244
207
85
176
82
343
175
51
236
336
180
338
237
407
319
162
369
426
204
17
130
91
300
438
282
368
370
92
311
301
133
247
272
201
217
296
32
167
417
348
335
80
404
324
289
104
397
126
58
134
328
41
89
65
210
362
399
381
79
287
390
317
214
316
361
35
159
277
100
63
153
222
333
62
436
270
245
102
423
391
364
50
165
144
42
267
160
400
172
382
376
387
442
434
155
406
283
303
291
409
181
55
395
262
342
53
346
123
435
141
143
257
286
227
106
93
412
38
219
352
228
305
117
71
318
377
115
90
174
194
19
206
410
136
78
271
374
74
294
209
203
290
33
122
293
226
88
116
275
189
119
431
195
278
70
419
241
154
425
392
25
149
302
173
212
439
322
27
199
128
156
344
152
337
264
371
363
401
253
169
208
20
223
96
276
366
101
393
248
23
48
87
161
145
148
422
265
402
345
60
110
83
327
72
34
13
191
280
24
430
428
415
429
193
57
232
14
225
310
331
332
138
350
39
218
297
190
118
166
295
394
30
288
433
73
137
98
188
413
242
308
120
359
251
9
292
405
109
171
59
354
360
444
95
15
388
334
421
266
240
298
124
178
437
81
443
325
268
168
355
29
84
349
16
414
4
21
151
383
329
94
353
69
441
31
6
76
379
179
234
114
365
386
127
259
357
40
213
121
339
44
239
211
273
340
375
261
249
221
254
372
186
8
22
246
304
198
187
403
146
103
416
177
440
46
258
68
269
418
398
111
75
5
389
99
158
10
281
36
142
170
132
37
45
150
1
56
341
105
164
135
113
197
205
358
230
380
47
163
255
3
299
43
224
182
11
66
12
216
97
385
54
285
256
52
279
432
49
7
61
307
112
18
321
424
320
183

> <PUBCHEM_MMFF94_PARTIAL_CHARGES>
32
1 1.09
10 -0.42
11 0.3
12 0.11
14 0.11
15 0.57
16 0.3
17 0.36
18 0.62
19 0.58
2 -0.24
20 0.12
21 -0.18
22 0.03
23 -0.15
24 -0.15
25 0.08
26 -0.15
27 -0.15
28 0.28
3 -0.38
4 -0.65
41 0.15
42 0.15
43 0.15
44 0.15
45 0.15
5 -0.65
6 -0.57
7 -0.57
8 -0.36
9 -0.66

> <PUBCHEM_EFFECTIVE_ROTOR_COUNT>
7.2

> <PUBCHEM_PHARMACOPHORE_FEATURES>
9
1 3 acceptor
1 4 acceptor
1 5 acceptor
1 6 acceptor
1 7 acceptor
1 8 acceptor
5 1 11 12 13 14 rings
5 2 10 18 19 20 rings
6 22 23 24 25 26 27 rings

> <PUBCHEM_HEAVY_ATOM_COUNT>
28

> <PUBCHEM_ATOM_DEF_STEREO_COUNT>
0

> <PUBCHEM_ATOM_UDEF_STEREO_COUNT>
1

> <PUBCHEM_BOND_DEF_STEREO_COUNT>
1

> <PUBCHEM_BOND_UDEF_STEREO_COUNT>
0

> <PUBCHEM_ISOTOPIC_ATOM_COUNT>
0

> <PUBCHEM_COMPONENT_COUNT>
1

> <PUBCHEM_CACTVS_TAUTO_COUNT>
1

> <PUBCHEM_CONFORMER_ID>
0063AFA500000002

> <PUBCHEM_MMFF94_ENERGY>
78.5232

> <PUBCHEM_FEATURE_SELFOVERLAP>
45.692

> <PUBCHEM_SHAPE_FINGERPRINT>
10 15 11743842487019273847
105312 117 11386376936822983465
10577160 183 12901539174556951280
10674148 151 17675928690733266385
10939801 23 18339079414809895862
11135926 11 14851885816150215873
117089 54 17898862515712219979
11724838 91 18259704502596409574
11796584 16 18264767653855769701
12516196 113 18131070437337618074
12522641 126 18118686754118507252
12596602 18 18339922607099672834
12633257 1 17131556154261602215
12778500 126 11384117445371268882
13540713 5 16198159906730159581
13673619 4 18341613750446534257
13690498 29 18187358823252932805
13782708 43 18408601457043824090
13914758 101 9295293846240262100
14251751 18 18409732863473357887
14251764 18 18413672430641670206
14251764 30 18410853274306566441
14347329 18 8718829756467889711
14849402 71 15984529135491058504
15183329 4 15068621582634615954
15238133 3 12103555425164186162
15301273 46 16343714204986062556
15352257 5 18411418418708844019
15728490 51 18409729586840871478
17780758 139 17989211430596301809
18335252 98 18202285801886151342
190975 80 18202280329316892754
19958102 18 16443347550575052402
20105231 36 17346886642086864222
20505436 4 16807286883808520669
20567600 247 18333731312235879451
20567600 70 18272372000685309778
21049683 271 18342738555295582816
21130935 74 18337670798754614482
21223535 225 15285631045894780503
21637258 2 18187642496487624527
21781051 124 17918003754942049798
22122407 14 11383535841594958222
22393880 68 14707495858037106297
2260408 40 15338852966087530141
23522609 53 18123223231578330593
23559900 14 18335975463583501685
23569914 2 9940402395833200050
23576562 1 11459297686143589914
2747138 104 17632860824319808184
2838139 119 8790880774536386043
4015057 19 16805904955777703516
4058900 60 11025788774142008689
437795 51 18131343155593547880
439807 62 18407760352730209671
465052 167 17988925565825300340
4938544 92 17632024031573409497
5104073 3 16843608159314462538
5718773 13 18411697729808274319
59682541 35 18131062763080269594
6431902 208 18259988171721698699
7495541 125 18342739628213999508
8863177 126 18271240637975776907
9862886 166 18409450288626265027
999808 66 18411422817108841183

> <PUBCHEM_SHAPE_MULTIPOLES>
548.47
21.77
2.71
1.5
14.93
0.45
-0.31
13.6
-1.62
-3.37
-0.7
-0.79
-0.71
0.17

> <PUBCHEM_SHAPE_SELFOVERLAP>
1126.719

> <PUBCHEM_SHAPE_VOLUME>
318.7

> <PUBCHEM_COORDINATE_TYPE>
2
5
10

$$$$
