2828330
  -OEChem-01171811543D

 35 37  0     1  0  0  0  0  0999 V2000
    0.6967    2.1077    0.1661 O   0  0  0  0  0  0  0  0  0  0  0  0
   -0.8641   -0.5763    1.7742 O   0  0  0  0  0  0  0  0  0  0  0  0
    1.1152    1.1273    2.2906 O   0  0  0  0  0  0  0  0  0  0  0  0
   -0.2376   -2.1641   -0.6842 O   0  0  0  0  0  0  0  0  0  0  0  0
   -2.9986   -0.5179    0.1977 O   0  0  0  0  0  0  0  0  0  0  0  0
   -2.9750    0.7903   -1.7121 O   0  0  0  0  0  0  0  0  0  0  0  0
   -0.2608   -0.0774    0.6053 C   0  0  2  0  0  0  0  0  0  0  0  0
    0.9196    0.8876    0.9070 C   0  0  1  0  0  0  0  0  0  0  0  0
    2.1217    0.1812    0.3327 C   0  0  0  0  0  0  0  0  0  0  0  0
   -1.1554    0.7902   -0.1934 C   0  0  0  0  0  0  0  0  0  0  0  0
    0.3512   -1.2126   -0.2031 C   0  0  0  0  0  0  0  0  0  0  0  0
    1.7899   -1.0096   -0.3072 C   0  0  0  0  0  0  0  0  0  0  0  0
   -0.5738    1.9725   -0.3968 C   0  0  0  0  0  0  0  0  0  0  0  0
    3.4441    0.6004    0.3524 C   0  0  0  0  0  0  0  0  0  0  0  0
    2.7249   -1.8185   -0.9270 C   0  0  0  0  0  0  0  0  0  0  0  0
   -2.4647    0.3771   -0.6763 C   0  0  0  0  0  0  0  0  0  0  0  0
   -1.0659    3.1598   -1.1466 C   0  0  0  0  0  0  0  0  0  0  0  0
    4.4123   -0.1988   -0.2644 C   0  0  0  0  0  0  0  0  0  0  0  0
    4.0548   -1.3999   -0.8987 C   0  0  0  0  0  0  0  0  0  0  0  0
   -4.2947   -1.0215   -0.1420 C   0  0  0  0  0  0  0  0  0  0  0  0
   -4.7399   -1.9977    0.9259 C   0  0  0  0  0  0  0  0  0  0  0  0
    3.7288    1.5299    0.8345 H   0  0  0  0  0  0  0  0  0  0  0  0
   -0.1663   -0.9551    2.3357 H   0  0  0  0  0  0  0  0  0  0  0  0
    0.2391    1.1750    2.7088 H   0  0  0  0  0  0  0  0  0  0  0  0
    2.4449   -2.7427   -1.4194 H   0  0  0  0  0  0  0  0  0  0  0  0
   -0.9325    4.0644   -0.5439 H   0  0  0  0  0  0  0  0  0  0  0  0
   -2.1272    3.0969   -1.3980 H   0  0  0  0  0  0  0  0  0  0  0  0
   -0.4984    3.2817   -2.0744 H   0  0  0  0  0  0  0  0  0  0  0  0
    5.4532    0.1137   -0.2558 H   0  0  0  0  0  0  0  0  0  0  0  0
    4.8223   -2.0053   -1.3733 H   0  0  0  0  0  0  0  0  0  0  0  0
   -5.0046   -0.1892   -0.2033 H   0  0  0  0  0  0  0  0  0  0  0  0
   -4.2454   -1.5294   -1.1115 H   0  0  0  0  0  0  0  0  0  0  0  0
   -5.7290   -2.4038    0.6971 H   0  0  0  0  0  0  0  0  0  0  0  0
   -4.0283   -2.8256    1.0112 H   0  0  0  0  0  0  0  0  0  0  0  0
   -4.7760   -1.5078    1.9045 H   0  0  0  0  0  0  0  0  0  0  0  0
  1  8  1  0  0  0  0
  1 13  1  0  0  0  0
  2  7  1  0  0  0  0
  2 23  1  0  0  0  0
  3  8  1  0  0  0  0
  3 24  1  0  0  0  0
  4 11  2  0  0  0  0
  5 16  1  0  0  0  0
  5 20  1  0  0  0  0
  6 16  2  0  0  0  0
  7  8  1  0  0  0  0
  7 10  1  0  0  0  0
  7 11  1  0  0  0  0
  8  9  1  0  0  0  0
  9 12  1  0  0  0  0
  9 14  2  0  0  0  0
 10 13  2  0  0  0  0
 10 16  1  0  0  0  0
 11 12  1  0  0  0  0
 12 15  2  0  0  0  0
 13 17  1  0  0  0  0
 14 18  1  0  0  0  0
 14 22  1  0  0  0  0
 15 19  1  0  0  0  0
 15 25  1  0  0  0  0
 17 26  1  0  0  0  0
 17 27  1  0  0  0  0
 17 28  1  0  0  0  0
 18 19  2  0  0  0  0
 18 29  1  0  0  0  0
 19 30  1  0  0  0  0
 20 21  1  0  0  0  0
 20 31  1  0  0  0  0
 20 32  1  0  0  0  0
 21 33  1  0  0  0  0
 21 34  1  0  0  0  0
 21 35  1  0  0  0  0
M  END
> <PUBCHEM_COMPOUND_CID>
2828330

> <PUBCHEM_CONFORMER_RMSD>
0.6

> <PUBCHEM_CONFORMER_DIVERSEORDER>
1
12
22
23
3
7
15
4
10
20
9
18
2
16
5
8
21
17
11
6
19
14
24
13

> <PUBCHEM_MMFF94_PARTIAL_CHARGES>
26
1 -0.36
10 -0.12
11 0.42
12 0.09
13 -0.06
14 -0.15
15 -0.15
16 0.71
17 0.14
18 -0.15
19 -0.15
2 -0.68
20 0.28
22 0.15
23 0.4
24 0.4
25 0.15
29 0.15
3 -0.68
30 0.15
4 -0.57
5 -0.43
6 -0.57
7 0.48
8 0.7
9 -0.14

> <PUBCHEM_EFFECTIVE_ROTOR_COUNT>
3.2

> <PUBCHEM_PHARMACOPHORE_FEATURES>
10
1 1 acceptor
1 2 acceptor
1 2 donor
1 3 acceptor
1 3 donor
1 4 acceptor
1 6 acceptor
5 1 7 8 10 13 rings
5 7 8 9 11 12 rings
6 9 12 14 15 18 19 rings

> <PUBCHEM_HEAVY_ATOM_COUNT>
21

> <PUBCHEM_ATOM_DEF_STEREO_COUNT>
0

> <PUBCHEM_ATOM_UDEF_STEREO_COUNT>
2

> <PUBCHEM_BOND_DEF_STEREO_COUNT>
0

> <PUBCHEM_BOND_UDEF_STEREO_COUNT>
0

> <PUBCHEM_ISOTOPIC_ATOM_COUNT>
0

> <PUBCHEM_COMPONENT_COUNT>
1

> <PUBCHEM_CACTVS_TAUTO_COUNT>
1

> <PUBCHEM_CONFORMER_ID>
002B282A00000001

> <PUBCHEM_MMFF94_ENERGY>
48.222

> <PUBCHEM_FEATURE_SELFOVERLAP>
51.366

> <PUBCHEM_SHAPE_FINGERPRINT>
10064457 181 17559394862928968039
10863032 1 18046340838803808756
10948715 1 8142079840742309005
11578080 2 14977667704199293672
11640471 11 16010151965016839741
12032990 46 18411140237966553527
12035758 1 18267302208520384522
12119455 92 12612753527615310034
121448 382 17604150320175047945
12403259 226 18339079273028001926
13140716 1 17983001538819034978
13299463 15 18127967508202742148
13464513 79 18338799034685718579
15375462 189 17346313804079509486
15527383 91 18202009828519635323
16945 1 18119525432001795912
17357779 13 18338785771884523381
200 152 17774720862344015638
20871999 31 18040996228866599943
221490 88 18270402664313455006
22182313 1 18337653309046365901
23402539 116 18040429971508779214
23419403 2 17773857771143306264
23493267 7 17968927592293862225
23557571 272 18260267430009546389
23559900 14 18192705645156373030
2748010 2 18266156457527913301
298252 57 13551474803827711385
3286 77 17846779632696502769
5104073 3 18200591372625947978

> <PUBCHEM_SHAPE_MULTIPOLES>
396.95
7.24
2.51
1.34
1.91
1.15
-0.42
-4.52
0.77
1.09
0.66
0.17
0.25
1.53

> <PUBCHEM_SHAPE_SELFOVERLAP>
879.823

> <PUBCHEM_SHAPE_VOLUME>
213.5

> <PUBCHEM_COORDINATE_TYPE>
2
5
10

$$$$
