17584779
  -OEChem-01171812103D

 50 52  0     0  0  0  0  0  0999 V2000
   -3.4732   -0.5753    0.7230 S   0  0  0  0  0  0  0  0  0  0  0  0
   -3.7365   -0.4401    2.1392 O   0  0  0  0  0  0  0  0  0  0  0  0
   -4.5473   -0.8084   -0.2177 O   0  0  0  0  0  0  0  0  0  0  0  0
    0.9355   -2.0156   -1.8992 O   0  0  0  0  0  0  0  0  0  0  0  0
   -0.5146    4.2358   -1.0377 O   0  0  0  0  0  0  0  0  0  0  0  0
   -2.2643   -1.7683    0.4918 N   0  0  0  0  0  0  0  0  0  0  0  0
    2.3421   -2.5890   -0.1352 N   0  0  0  0  0  0  0  0  0  0  0  0
    3.7367    2.1337    0.8390 N   0  0  0  0  0  0  0  0  0  0  0  0
    0.0819   -3.3850   -0.1378 C   0  0  0  0  0  0  0  0  0  0  0  0
   -1.1912   -3.4242   -0.9852 C   0  0  0  0  0  0  0  0  0  0  0  0
   -0.1878   -2.8525    1.2707 C   0  0  0  0  0  0  0  0  0  0  0  0
   -1.9775   -2.1172   -0.9289 C   0  0  0  0  0  0  0  0  0  0  0  0
   -1.0140   -1.5681    1.2786 C   0  0  0  0  0  0  0  0  0  0  0  0
    1.1445   -2.5817   -0.8294 C   0  0  0  0  0  0  0  0  0  0  0  0
   -2.5912    0.8607    0.1976 C   0  0  0  0  0  0  0  0  0  0  0  0
    3.5295   -1.9094   -0.6004 C   0  0  0  0  0  0  0  0  0  0  0  0
   -1.8541    1.6026    1.1206 C   0  0  0  0  0  0  0  0  0  0  0  0
   -2.6303    1.2526   -1.1405 C   0  0  0  0  0  0  0  0  0  0  0  0
    3.6018   -0.4967   -0.0973 C   0  0  0  0  0  0  0  0  0  0  0  0
   -1.1561    2.7365    0.7055 C   0  0  0  0  0  0  0  0  0  0  0  0
   -1.9322    2.3866   -1.5555 C   0  0  0  0  0  0  0  0  0  0  0  0
   -1.1950    3.1285   -0.6327 C   0  0  0  0  0  0  0  0  0  0  0  0
    4.2325   -0.2169    1.1099 C   0  0  0  0  0  0  0  0  0  0  0  0
    3.0385    0.5372   -0.8370 C   0  0  0  0  0  0  0  0  0  0  0  0
    4.2727    1.1027    1.5301 C   0  0  0  0  0  0  0  0  0  0  0  0
    3.1320    1.8233   -0.3297 C   0  0  0  0  0  0  0  0  0  0  0  0
    0.2175    4.9482   -0.0418 C   0  0  0  0  0  0  0  0  0  0  0  0
    0.4705   -4.4095   -0.0582 H   0  0  0  0  0  0  0  0  0  0  0  0
   -1.8319   -4.2297   -0.6017 H   0  0  0  0  0  0  0  0  0  0  0  0
   -0.9689   -3.6784   -2.0286 H   0  0  0  0  0  0  0  0  0  0  0  0
    0.7280   -2.6893    1.8476 H   0  0  0  0  0  0  0  0  0  0  0  0
   -0.7525   -3.6214    1.8158 H   0  0  0  0  0  0  0  0  0  0  0  0
   -1.4248   -1.3091   -1.4153 H   0  0  0  0  0  0  0  0  0  0  0  0
   -2.9138   -2.2655   -1.4767 H   0  0  0  0  0  0  0  0  0  0  0  0
   -0.4146   -0.7580    0.8514 H   0  0  0  0  0  0  0  0  0  0  0  0
   -1.2559   -1.3183    2.3167 H   0  0  0  0  0  0  0  0  0  0  0  0
    2.4265   -3.1311    0.7190 H   0  0  0  0  0  0  0  0  0  0  0  0
    4.3960   -2.4851   -0.2559 H   0  0  0  0  0  0  0  0  0  0  0  0
    3.5520   -1.9254   -1.6965 H   0  0  0  0  0  0  0  0  0  0  0  0
   -1.8083    1.3149    2.1672 H   0  0  0  0  0  0  0  0  0  0  0  0
   -3.1950    0.6883   -1.8770 H   0  0  0  0  0  0  0  0  0  0  0  0
   -0.6032    3.2659    1.4739 H   0  0  0  0  0  0  0  0  0  0  0  0
   -1.9655    2.6867   -2.5993 H   0  0  0  0  0  0  0  0  0  0  0  0
    4.6807   -0.9993    1.7129 H   0  0  0  0  0  0  0  0  0  0  0  0
    2.5403    0.3572   -1.7832 H   0  0  0  0  0  0  0  0  0  0  0  0
    4.7521    1.3735    2.4650 H   0  0  0  0  0  0  0  0  0  0  0  0
    2.7092    2.6646   -0.8689 H   0  0  0  0  0  0  0  0  0  0  0  0
   -0.4459    5.3631    0.7246 H   0  0  0  0  0  0  0  0  0  0  0  0
    1.0154    4.3345    0.3894 H   0  0  0  0  0  0  0  0  0  0  0  0
    0.7002    5.7956   -0.5397 H   0  0  0  0  0  0  0  0  0  0  0  0
  1  2  2  0  0  0  0
  1  3  2  0  0  0  0
  1  6  1  0  0  0  0
  1 15  1  0  0  0  0
  4 14  2  0  0  0  0
  5 22  1  0  0  0  0
  5 27  1  0  0  0  0
  6 12  1  0  0  0  0
  6 13  1  0  0  0  0
  7 14  1  0  0  0  0
  7 16  1  0  0  0  0
  7 37  1  0  0  0  0
  8 25  2  0  0  0  0
  8 26  1  0  0  0  0
  9 10  1  0  0  0  0
  9 11  1  0  0  0  0
  9 14  1  0  0  0  0
  9 28  1  0  0  0  0
 10 12  1  0  0  0  0
 10 29  1  0  0  0  0
 10 30  1  0  0  0  0
 11 13  1  0  0  0  0
 11 31  1  0  0  0  0
 11 32  1  0  0  0  0
 12 33  1  0  0  0  0
 12 34  1  0  0  0  0
 13 35  1  0  0  0  0
 13 36  1  0  0  0  0
 15 17  2  0  0  0  0
 15 18  1  0  0  0  0
 16 19  1  0  0  0  0
 16 38  1  0  0  0  0
 16 39  1  0  0  0  0
 17 20  1  0  0  0  0
 17 40  1  0  0  0  0
 18 21  2  0  0  0  0
 18 41  1  0  0  0  0
 19 23  2  0  0  0  0
 19 24  1  0  0  0  0
 20 22  2  0  0  0  0
 20 42  1  0  0  0  0
 21 22  1  0  0  0  0
 21 43  1  0  0  0  0
 23 25  1  0  0  0  0
 23 44  1  0  0  0  0
 24 26  2  0  0  0  0
 24 45  1  0  0  0  0
 25 46  1  0  0  0  0
 26 47  1  0  0  0  0
 27 48  1  0  0  0  0
 27 49  1  0  0  0  0
 27 50  1  0  0  0  0
M  END
> <PUBCHEM_COMPOUND_CID>
17584779

> <PUBCHEM_CONFORMER_RMSD>
1

> <PUBCHEM_CONFORMER_DIVERSEORDER>
1
51
77
45
104
60
83
68
54
36
16
95
26
98
92
52
61
55
56
48
40
66
74
109
23
86
65
64
18
33
44
62
97
91
9
94
42
10
90
53
78
47
2
103
67
46
63
50
88
27
35
70
41
28
19
71
102
93
13
81
21
3
34
107
20
59
32
100
101
12
89
87
24
37
15
5
58
72
22
110
80
82
84
73
106
69
49
4
105
31
6
76
43
108
57
75
96
79
29
39
99
17
25
11
30
7
38
85
8
14

> <PUBCHEM_MMFF94_PARTIAL_CHARGES>
34
1 1.45
12 0.36
13 0.36
14 0.57
15 -0.01
16 0.44
17 -0.15
18 -0.15
19 -0.14
2 -0.65
20 -0.15
21 -0.15
22 0.08
23 -0.15
24 -0.15
25 0.16
26 0.16
27 0.28
3 -0.65
37 0.37
4 -0.57
40 0.15
41 0.15
42 0.15
43 0.15
44 0.15
45 0.15
46 0.15
47 0.15
5 -0.36
6 -0.85
7 -0.73
8 -0.62
9 0.06

> <PUBCHEM_EFFECTIVE_ROTOR_COUNT>
8.2

> <PUBCHEM_PHARMACOPHORE_FEATURES>
9
1 2 acceptor
1 3 acceptor
1 4 acceptor
1 5 acceptor
1 7 donor
1 8 acceptor
6 15 17 18 20 21 22 rings
6 6 9 10 11 12 13 rings
6 8 19 23 24 25 26 rings

> <PUBCHEM_HEAVY_ATOM_COUNT>
27

> <PUBCHEM_ATOM_DEF_STEREO_COUNT>
0

> <PUBCHEM_ATOM_UDEF_STEREO_COUNT>
0

> <PUBCHEM_BOND_DEF_STEREO_COUNT>
0

> <PUBCHEM_BOND_UDEF_STEREO_COUNT>
0

> <PUBCHEM_ISOTOPIC_ATOM_COUNT>
0

> <PUBCHEM_COMPONENT_COUNT>
1

> <PUBCHEM_CACTVS_TAUTO_COUNT>
2

> <PUBCHEM_CONFORMER_ID>
010C528B00000001

> <PUBCHEM_MMFF94_ENERGY>
57.745

> <PUBCHEM_FEATURE_SELFOVERLAP>
45.692

> <PUBCHEM_SHAPE_FINGERPRINT>
10675989 125 15742470100448896108
10721379 63 15806598114916070069
11221954 11 17832146017836719047
11370993 70 18266725905793162068
11513181 2 17266116745069108292
12038231 1 18266741277391443732
12156800 1 13593798077456551262
12422481 6 18190767287850517729
12539773 59 17559685129550356735
12553582 1 18264215883750127916
12596602 18 16226627276522412826
13122387 1 17617942431009722404
13402501 40 18412543223699453152
14117953 113 18411698820044042188
14466204 15 18049155571734866394
14725015 67 18264203612891251154
15840311 113 17486522355377161939
16120349 306 16826717899111016113
17627616 140 16462194632154716888
17974551 9 17027697126935529426
17977149 70 18124904449819299692
19930381 70 18411419488392810993
20764821 26 18410854326478627748
21796203 349 17900576598067121208
22113638 7 18267019651106159796
22749437 52 18339072667046508152
238 59 18051953845262750069
3187 122 18040729043209302545
35225 105 18335426772324846172
437795 70 17185625927228258612
469060 322 18197198450881906918
508706 21 18047757001095471574
6004065 56 18339917230064563781
6287921 2 18057061137135634395

> <PUBCHEM_SHAPE_MULTIPOLES>
521.08
7.33
5.87
1.56
4.57
3.7
0.18
0.52
1.89
-0.78
-1.34
-0.35
-0.15
1.18

> <PUBCHEM_SHAPE_SELFOVERLAP>
1089.493

> <PUBCHEM_SHAPE_VOLUME>
295.2

> <PUBCHEM_COORDINATE_TYPE>
2
5
10

$$$$
