3155996
  -OEChem-01171811483D

 47 50  0     0  0  0  0  0  0999 V2000
    6.9457    0.5487    0.0547 Cl  0  0  0  0  0  0  0  0  0  0  0  0
    0.2917    0.4926   -0.3118 O   0  0  0  0  0  0  0  0  0  0  0  0
   -3.4615    0.9842    1.8112 O   0  0  0  0  0  0  0  0  0  0  0  0
   -1.0256   -0.3699    2.2193 O   0  0  0  0  0  0  0  0  0  0  0  0
    4.3299   -2.5123    0.0471 O   0  0  0  0  0  0  0  0  0  0  0  0
    5.5609   -1.7433   -1.7021 O   0  0  0  0  0  0  0  0  0  0  0  0
   -5.4703    1.2533   -0.9256 N   0  0  0  0  0  0  0  0  0  0  0  0
   -1.8214   -3.4296    0.9531 N   0  0  0  0  0  0  0  0  0  0  0  0
   -5.2936    1.4092    0.4085 N   0  0  0  0  0  0  0  0  0  0  0  0
   -1.3359   -2.6825    1.9737 N   0  0  0  0  0  0  0  0  0  0  0  0
   -2.0275   -0.0572   -0.6190 C   0  0  0  0  0  0  0  0  0  0  0  0
   -3.3928    0.5068   -0.5533 C   0  0  0  0  0  0  0  0  0  0  0  0
   -1.8832   -1.3300    0.1782 C   0  0  0  0  0  0  0  0  0  0  0  0
   -0.9631    0.9501   -0.2260 C   0  0  0  0  0  0  0  0  0  0  0  0
   -4.3507    0.6923   -1.4789 C   0  0  0  0  0  0  0  0  0  0  0  0
   -2.1145   -2.6224   -0.1133 C   0  0  0  0  0  0  0  0  0  0  0  0
   -4.0119    0.9869    0.7231 C   0  0  0  0  0  0  0  0  0  0  0  0
   -1.3605   -1.3537    1.5815 C   0  0  0  0  0  0  0  0  0  0  0  0
   -1.0498    2.2233    0.1943 C   0  0  0  0  0  0  0  0  0  0  0  0
    1.0694    1.5367    0.0779 C   0  0  0  0  0  0  0  0  0  0  0  0
    0.2918    2.6246    0.3997 C   0  0  0  0  0  0  0  0  0  0  0  0
   -4.3211    0.3510   -2.9257 C   0  0  0  0  0  0  0  0  0  0  0  0
   -2.5967   -3.2136   -1.3895 C   0  0  0  0  0  0  0  0  0  0  0  0
    2.4833    1.2878    0.0702 C   0  0  0  0  0  0  0  0  0  0  0  0
    2.9769    0.0395   -0.3216 C   0  0  0  0  0  0  0  0  0  0  0  0
    3.3769    2.2927    0.4531 C   0  0  0  0  0  0  0  0  0  0  0  0
    4.3508   -0.2016   -0.3300 C   0  0  0  0  0  0  0  0  0  0  0  0
    4.7508    2.0516    0.4445 C   0  0  0  0  0  0  0  0  0  0  0  0
    5.2377    0.8046    0.0530 C   0  0  0  0  0  0  0  0  0  0  0  0
    4.8143   -1.5197   -0.7463 C   0  0  0  0  0  0  0  0  0  0  0  0
   -1.8018   -0.3086   -1.6639 H   0  0  0  0  0  0  0  0  0  0  0  0
   -1.9288    2.8336    0.3387 H   0  0  0  0  0  0  0  0  0  0  0  0
   -6.3825    1.2326   -1.3582 H   0  0  0  0  0  0  0  0  0  0  0  0
   -1.6630   -4.4243    0.8791 H   0  0  0  0  0  0  0  0  0  0  0  0
   -6.0175    1.8011    0.9957 H   0  0  0  0  0  0  0  0  0  0  0  0
   -1.0522   -3.1028    2.8485 H   0  0  0  0  0  0  0  0  0  0  0  0
    0.6325    3.5929    0.7383 H   0  0  0  0  0  0  0  0  0  0  0  0
   -5.1079   -0.3729   -3.1618 H   0  0  0  0  0  0  0  0  0  0  0  0
   -3.3668   -0.0835   -3.2347 H   0  0  0  0  0  0  0  0  0  0  0  0
   -4.4876    1.2482   -3.5308 H   0  0  0  0  0  0  0  0  0  0  0  0
   -1.8580   -3.9164   -1.7882 H   0  0  0  0  0  0  0  0  0  0  0  0
   -2.7785   -2.4517   -2.1530 H   0  0  0  0  0  0  0  0  0  0  0  0
   -3.5350   -3.7540   -1.2282 H   0  0  0  0  0  0  0  0  0  0  0  0
    2.3040   -0.7588   -0.6287 H   0  0  0  0  0  0  0  0  0  0  0  0
    3.0293    3.2748    0.7633 H   0  0  0  0  0  0  0  0  0  0  0  0
    5.4288    2.8463    0.7455 H   0  0  0  0  0  0  0  0  0  0  0  0
    4.6461   -3.3958   -0.2391 H   0  0  0  0  0  0  0  0  0  0  0  0
  1 29  1  0  0  0  0
  2 14  1  0  0  0  0
  2 20  1  0  0  0  0
  3 17  2  0  0  0  0
  4 18  2  0  0  0  0
  5 30  1  0  0  0  0
  5 47  1  0  0  0  0
  6 30  2  0  0  0  0
  7  9  1  0  0  0  0
  7 15  1  0  0  0  0
  7 33  1  0  0  0  0
  8 10  1  0  0  0  0
  8 16  1  0  0  0  0
  8 34  1  0  0  0  0
  9 17  1  0  0  0  0
  9 35  1  0  0  0  0
 10 18  1  0  0  0  0
 10 36  1  0  0  0  0
 11 12  1  0  0  0  0
 11 13  1  0  0  0  0
 11 14  1  0  0  0  0
 11 31  1  0  0  0  0
 12 15  2  0  0  0  0
 12 17  1  0  0  0  0
 13 16  2  0  0  0  0
 13 18  1  0  0  0  0
 14 19  2  0  0  0  0
 15 22  1  0  0  0  0
 16 23  1  0  0  0  0
 19 21  1  0  0  0  0
 19 32  1  0  0  0  0
 20 21  2  0  0  0  0
 20 24  1  0  0  0  0
 21 37  1  0  0  0  0
 22 38  1  0  0  0  0
 22 39  1  0  0  0  0
 22 40  1  0  0  0  0
 23 41  1  0  0  0  0
 23 42  1  0  0  0  0
 23 43  1  0  0  0  0
 24 25  2  0  0  0  0
 24 26  1  0  0  0  0
 25 27  1  0  0  0  0
 25 44  1  0  0  0  0
 26 28  2  0  0  0  0
 26 45  1  0  0  0  0
 27 29  2  0  0  0  0
 27 30  1  0  0  0  0
 28 29  1  0  0  0  0
 28 46  1  0  0  0  0
M  END
> <PUBCHEM_COMPOUND_CID>
3155996

> <PUBCHEM_CONFORMER_RMSD>
0.8

> <PUBCHEM_CONFORMER_DIVERSEORDER>
1
286
106
36
196
209
173
152
149
256
137
216
306
170
140
218
72
273
176
159
237
43
315
247
51
305
298
226
188
262
164
212
183
231
291
284
287
84
277
158
317
82
243
312
154
208
227
67
69
302
190
228
303
301
249
41
42
267
194
207
160
220
229
318
204
184
147
280
171
206
54
105
156
269
144
297
110
236
145
217
202
203
166
189
238
178
292
242
185
257
234
319
130
100
271
127
155
255
59
53
131
148
7
95
259
150
288
16
39
118
230
253
245
223
219
102
283
162
275
123
142
272
56
132
175
141
296
182
192
232
221
293
35
68
139
279
143
120
135
28
314
58
126
248
241
201
195
80
169
112
65
266
8
211
235
250
101
168
98
290
295
310
181
90
225
281
320
22
81
244
274
97
278
107
99
187
119
74
153
205
321
215
268
261
117
111
57
167
83
92
197
64
264
116
3
186
129
121
128
161
222
191
136
21
151
38
133
44
276
15
210
138
134
214
213
252
200
62
52
258
251
23
239
47
91
6
240
124
2
37
76
125
78
49
316
18
224
309
40
180
71
73
96
63
55
246
300
87
17
146
70
115
179
25
20
34
163
254
282
265
5
108
294
27
307
172
26
114
86
24
198
14
94
61
19
30
157
285
9
270
233
174
33
177
77
109
193
313
263
50
75
45
122
79
308
88
299
31
199
46
113
66
289
60
11
4
304
89
104
12
103
93
311
260
85
13
10
32
165
29
48

> <PUBCHEM_MMFF94_PARTIAL_CHARGES>
40
1 -0.18
10 -0.41
11 0.46
12 -0.12
13 -0.12
14 -0.04
15 -0.04
16 -0.04
17 0.62
18 0.62
19 -0.15
2 -0.28
20 0.09
21 -0.15
22 0.14
23 0.14
24 0.05
25 -0.15
26 -0.15
27 0.09
28 -0.15
29 0.18
3 -0.57
30 0.63
32 0.15
33 0.4
34 0.4
35 0.37
36 0.37
37 0.15
4 -0.57
44 0.15
45 0.15
46 0.15
47 0.5
5 -0.65
6 -0.57
7 -0.52
8 -0.52
9 -0.41

> <PUBCHEM_EFFECTIVE_ROTOR_COUNT>
5

> <PUBCHEM_PHARMACOPHORE_FEATURES>
14
1 10 donor
1 2 acceptor
1 3 acceptor
1 4 acceptor
1 5 acceptor
1 6 acceptor
1 7 donor
1 8 donor
1 9 donor
3 5 6 30 anion
5 2 14 19 20 21 rings
5 7 9 12 15 17 rings
5 8 10 13 16 18 rings
6 24 25 26 27 28 29 rings

> <PUBCHEM_HEAVY_ATOM_COUNT>
30

> <PUBCHEM_ATOM_DEF_STEREO_COUNT>
0

> <PUBCHEM_ATOM_UDEF_STEREO_COUNT>
0

> <PUBCHEM_BOND_DEF_STEREO_COUNT>
0

> <PUBCHEM_BOND_UDEF_STEREO_COUNT>
0

> <PUBCHEM_ISOTOPIC_ATOM_COUNT>
0

> <PUBCHEM_COMPONENT_COUNT>
1

> <PUBCHEM_CACTVS_TAUTO_COUNT>
15

> <PUBCHEM_CONFORMER_ID>
0030281C00000001

> <PUBCHEM_MMFF94_ENERGY>
85.0163

> <PUBCHEM_FEATURE_SELFOVERLAP>
74.347

> <PUBCHEM_SHAPE_FINGERPRINT>
10254770 206 18048019784919135018
10369192 42 13551191074452197168
105312 117 17385990759600094271
10764073 3 17973761119004577627
107951 10 17022908930074554443
10906281 52 18200611236227517524
11315181 36 17489589000059140736
11578080 2 17129009775288824097
12596602 18 15410606004795948776
12643181 29 18408321091081324810
12788726 201 18338510842464865464
12969540 114 18114453488290181517
13135754 10 16951710149455152043
13583140 156 17559674134444992352
1361 2 18059569153265847110
140371 6 18410296938767142468
14790565 3 18194120707715018097
15082195 135 17974560605238697820
15183329 4 18411129221422853732
15361156 5 18337117843068265372
15420108 30 16907796427846449489
17349148 13 17561370573206259613
20511986 3 17560783438656225300
21033648 29 18115008767306405925
21279426 13 18410572838632878597
21756936 100 15574982988099580909
23559900 14 18338512041061388384
3298306 158 17822845373515478963
3383291 50 18410575123703686483
340366 18 17676492782229895996
3633792 109 18341044113076344445
3729539 64 18044371630279087843
4015057 19 18200586011831996480
404807 14 15763056414841361623
4073 2 18339360876927824832
4403749 210 18124584548002040160
44802255 64 17167859746982186422
508706 21 18114183107204064258
5104073 3 18267581485143960584
550186 7 16154257292412033517
58260988 521 17604449443958219017
59755656 520 18411131459976495429
7226269 152 18408318886903824056
9709674 26 18338236067705090548

> <PUBCHEM_SHAPE_MULTIPOLES>
569.99
13.34
3.36
1.68
14.33
2.45
0.21
-1.56
4.13
-0.58
-0.45
-2.28
0.62
1.21

> <PUBCHEM_SHAPE_SELFOVERLAP>
1261.587

> <PUBCHEM_SHAPE_VOLUME>
306.8

> <PUBCHEM_COORDINATE_TYPE>
2
5
10

$$$$
