3844247
  -OEChem-01171811423D

 48 52  0     0  0  0  0  0  0999 V2000
    5.6516   -1.9556   -0.2869 S   0  0  0  0  0  0  0  0  0  0  0  0
   -2.0080   -1.5891    0.1722 O   0  0  0  0  0  0  0  0  0  0  0  0
   -0.7764   -3.4970    0.5494 O   0  0  0  0  0  0  0  0  0  0  0  0
    2.3531   -0.6122    0.9244 N   0  0  0  0  0  0  0  0  0  0  0  0
    1.9710    1.7648    0.6729 N   0  0  0  0  0  0  0  0  0  0  0  0
   -0.7189    0.9274    0.2246 N   0  0  0  0  0  0  0  0  0  0  0  0
    2.1187   -2.9649    1.0583 N   0  0  0  0  0  0  0  0  0  0  0  0
    1.5715    0.4857    0.6933 C   0  0  0  0  0  0  0  0  0  0  0  0
    0.2773    0.0506    0.4803 C   0  0  0  0  0  0  0  0  0  0  0  0
    1.5746   -1.7422    0.8625 C   0  0  0  0  0  0  0  0  0  0  0  0
    0.2779   -1.3587    0.5874 C   0  0  0  0  0  0  0  0  0  0  0  0
    3.7757   -0.5735    1.1912 C   0  0  0  0  0  0  0  0  0  0  0  0
    4.5650   -0.6631   -0.0855 C   0  0  0  0  0  0  0  0  0  0  0  0
    0.9806    2.6326    0.4191 C   0  0  0  0  0  0  0  0  0  0  0  0
   -0.3543    2.2176    0.1962 C   0  0  0  0  0  0  0  0  0  0  0  0
   -0.8352   -2.2539    0.4439 C   0  0  0  0  0  0  0  0  0  0  0  0
    1.2783    3.9913    0.3732 C   0  0  0  0  0  0  0  0  0  0  0  0
   -1.3245    3.1814   -0.0614 C   0  0  0  0  0  0  0  0  0  0  0  0
    4.5274    0.1875   -1.1492 C   0  0  0  0  0  0  0  0  0  0  0  0
    0.2958    4.9453    0.1144 C   0  0  0  0  0  0  0  0  0  0  0  0
   -1.0109    4.5386   -0.1042 C   0  0  0  0  0  0  0  0  0  0  0  0
   -3.1932   -2.3753    0.0082 C   0  0  0  0  0  0  0  0  0  0  0  0
    5.4226   -0.2298   -2.1761 C   0  0  0  0  0  0  0  0  0  0  0  0
    6.0976   -1.3818   -1.8374 C   0  0  0  0  0  0  0  0  0  0  0  0
   -4.3498   -1.4636   -0.2793 C   0  0  0  0  0  0  0  0  0  0  0  0
   -5.1042   -0.9557    0.7725 C   0  0  0  0  0  0  0  0  0  0  0  0
   -4.6571   -1.1351   -1.5949 C   0  0  0  0  0  0  0  0  0  0  0  0
   -6.1797   -0.1086    0.5053 C   0  0  0  0  0  0  0  0  0  0  0  0
   -5.7325   -0.2879   -1.8622 C   0  0  0  0  0  0  0  0  0  0  0  0
   -6.4937    0.2254   -0.8121 C   0  0  0  0  0  0  0  0  0  0  0  0
    4.0246   -1.3572    1.9143 H   0  0  0  0  0  0  0  0  0  0  0  0
    3.9990    0.3774    1.6909 H   0  0  0  0  0  0  0  0  0  0  0  0
    3.1069   -3.1198    1.2272 H   0  0  0  0  0  0  0  0  0  0  0  0
    1.5543   -3.8084    1.0203 H   0  0  0  0  0  0  0  0  0  0  0  0
    2.2995    4.3285    0.5420 H   0  0  0  0  0  0  0  0  0  0  0  0
   -2.3559    2.8795   -0.2351 H   0  0  0  0  0  0  0  0  0  0  0  0
    3.9076    1.0717   -1.2136 H   0  0  0  0  0  0  0  0  0  0  0  0
    0.5538    5.9994    0.0840 H   0  0  0  0  0  0  0  0  0  0  0  0
   -1.7861    5.2711   -0.3071 H   0  0  0  0  0  0  0  0  0  0  0  0
   -3.3807   -2.9528    0.9217 H   0  0  0  0  0  0  0  0  0  0  0  0
   -3.0527   -3.0848   -0.8166 H   0  0  0  0  0  0  0  0  0  0  0  0
    5.5654    0.2895   -3.1148 H   0  0  0  0  0  0  0  0  0  0  0  0
    6.8316   -1.9137   -2.4262 H   0  0  0  0  0  0  0  0  0  0  0  0
   -4.8668   -1.2074    1.8025 H   0  0  0  0  0  0  0  0  0  0  0  0
   -4.0694   -1.5274   -2.4202 H   0  0  0  0  0  0  0  0  0  0  0  0
   -6.7719    0.2918    1.3229 H   0  0  0  0  0  0  0  0  0  0  0  0
   -5.9767   -0.0273   -2.8878 H   0  0  0  0  0  0  0  0  0  0  0  0
   -7.3307    0.8854   -1.0202 H   0  0  0  0  0  0  0  0  0  0  0  0
  1 13  1  0  0  0  0
  1 24  1  0  0  0  0
  2 16  1  0  0  0  0
  2 22  1  0  0  0  0
  3 16  2  0  0  0  0
  4  8  1  0  0  0  0
  4 10  1  0  0  0  0
  4 12  1  0  0  0  0
  5  8  2  0  0  0  0
  5 14  1  0  0  0  0
  6  9  2  0  0  0  0
  6 15  1  0  0  0  0
  7 10  1  0  0  0  0
  7 33  1  0  0  0  0
  7 34  1  0  0  0  0
  8  9  1  0  0  0  0
  9 11  1  0  0  0  0
 10 11  2  0  0  0  0
 11 16  1  0  0  0  0
 12 13  1  0  0  0  0
 12 31  1  0  0  0  0
 12 32  1  0  0  0  0
 13 19  2  0  0  0  0
 14 15  1  0  0  0  0
 14 17  2  0  0  0  0
 15 18  2  0  0  0  0
 17 20  1  0  0  0  0
 17 35  1  0  0  0  0
 18 21  1  0  0  0  0
 18 36  1  0  0  0  0
 19 23  1  0  0  0  0
 19 37  1  0  0  0  0
 20 21  2  0  0  0  0
 20 38  1  0  0  0  0
 21 39  1  0  0  0  0
 22 25  1  0  0  0  0
 22 40  1  0  0  0  0
 22 41  1  0  0  0  0
 23 24  2  0  0  0  0
 23 42  1  0  0  0  0
 24 43  1  0  0  0  0
 25 26  2  0  0  0  0
 25 27  1  0  0  0  0
 26 28  1  0  0  0  0
 26 44  1  0  0  0  0
 27 29  2  0  0  0  0
 27 45  1  0  0  0  0
 28 30  2  0  0  0  0
 28 46  1  0  0  0  0
 29 30  1  0  0  0  0
 29 47  1  0  0  0  0
 30 48  1  0  0  0  0
M  END
> <PUBCHEM_COMPOUND_CID>
3844247

> <PUBCHEM_CONFORMER_RMSD>
0.8

> <PUBCHEM_CONFORMER_DIVERSEORDER>
1
13
102
184
120
163
225
66
16
80
170
174
205
253
215
63
56
190
12
42
145
131
48
153
222
94
46
221
47
20
189
101
129
154
62
135
98
28
77
198
19
123
69
188
121
91
15
18
245
194
180
128
241
68
30
213
175
10
76
208
72
26
113
53
173
168
57
6
103
35
24
114
133
14
211
156
142
181
7
179
150
219
216
84
231
237
214
162
226
217
203
169
50
182
79
220
185
146
86
85
23
132
105
172
11
207
106
202
239
210
229
32
143
249
164
151
81
116
5
206
166
60
152
93
2
223
242
40
155
59
235
4
139
110
196
8
127
89
200
125
195
124
160
144
236
201
232
108
49
31
43
158
38
240
74
191
227
159
109
88
126
41
243
58
3
92
122
204
228
104
138
224
183
165
176
9
212
67
193
75
134
234
111
247
87
37
186
65
96
33
117
34
136
178
99
71
61
112
248
218
55
90
252
29
52
250
54
147
244
73
157
95
140
97
44
192
64
39
119
115
230
36
22
45
254
246
148
238
161
199
251
51
233
27
82
100
167
149
209
141
21
177
25
197
83
17
107
187
118
78
137
171
70
130

> <PUBCHEM_MMFF94_PARTIAL_CHARGES>
44
1 -0.08
10 -0.07
11 -0.09
12 0.44
13 -0.14
14 0.31
15 0.31
16 0.81
17 -0.15
18 -0.15
19 -0.15
2 -0.43
20 -0.15
21 -0.15
22 0.42
23 -0.15
24 -0.11
25 -0.14
26 -0.15
27 -0.15
28 -0.15
29 -0.15
3 -0.57
30 -0.15
33 0.4
34 0.4
35 0.15
36 0.15
37 0.15
38 0.15
39 0.15
4 0.05
42 0.15
43 0.15
44 0.15
45 0.15
46 0.15
47 0.15
48 0.15
5 -0.57
6 -0.57
7 -0.88
8 0.11
9 0.26

> <PUBCHEM_EFFECTIVE_ROTOR_COUNT>
6

> <PUBCHEM_PHARMACOPHORE_FEATURES>
10
1 3 acceptor
1 6 acceptor
1 7 cation
1 7 donor
3 4 5 8 cation
5 1 13 19 23 24 rings
5 4 8 9 10 11 rings
6 14 15 17 18 20 21 rings
6 25 26 27 28 29 30 rings
6 5 6 8 9 14 15 rings

> <PUBCHEM_HEAVY_ATOM_COUNT>
30

> <PUBCHEM_ATOM_DEF_STEREO_COUNT>
0

> <PUBCHEM_ATOM_UDEF_STEREO_COUNT>
0

> <PUBCHEM_BOND_DEF_STEREO_COUNT>
0

> <PUBCHEM_BOND_UDEF_STEREO_COUNT>
0

> <PUBCHEM_ISOTOPIC_ATOM_COUNT>
0

> <PUBCHEM_COMPONENT_COUNT>
1

> <PUBCHEM_CACTVS_TAUTO_COUNT>
4

> <PUBCHEM_CONFORMER_ID>
003AA89700000001

> <PUBCHEM_MMFF94_ENERGY>
68.395

> <PUBCHEM_FEATURE_SELFOVERLAP>
50.92

> <PUBCHEM_SHAPE_FINGERPRINT>
10190206 1 18336278842755635678
10675989 125 18334013939065509508
10815517 723 18129958771232502409
11070050 100 11530752752167319620
11331351 85 17847066567009683169
11479125 193 16011594764827672044
11513181 2 17838612615086728007
12293681 160 18187090567905900034
12422481 6 17132116831460315245
12553582 1 18409442587913459795
12788726 201 18262234413525735666
13540713 5 17827077299766993738
13590594 115 18411143524028349401
13726171 33 15285904811790369039
14068700 675 18060701676180883201
14117953 113 18343017745549638821
14289585 56 18200580428732604503
14294032 229 18123198896361781408
14347329 18 16879041102593015535
14400156 260 18334854974575868873
14508225 48 18341620330172849380
14918310 93 17417542289035994183
14955137 171 18263940971715645363
15081414 286 18267305519855922713
15183329 4 18272937111102733247
15198563 99 18339367340379372068
15210252 30 17968095382366947052
15475509 8 18200889399820995767
1601671 61 18408035225936303443
16087824 20 18266457612567396841
16994733 274 15430035473947531173
19319366 153 17822001017506005482
20642791 105 18046330947794767650
20642791 239 18043264620228886552
20771845 165 16175402438613230524
21133665 82 17399795390798751888
21279426 13 18409448124131617839
21285901 2 17916882222373258254
21641784 216 18114188475654410180
21796203 349 17976018390385422289
21860390 5 18271238438989152759
23536364 44 18337383842803425269
23559900 14 18270959175693817483
24771293 8 18128521851274051888
24771750 20 17613452450766300924
25223398 141 17098302412426727228
3103668 31 18263922134142462285
340366 18 18059292200868671503
4353968 344 18268161877539910790
46939830 39 18040156214873871021

> <PUBCHEM_SHAPE_MULTIPOLES>
589.57
13.72
5.18
1.41
6.55
7.86
0.74
-9.61
7.59
-0.03
-0.85
-0.75
-0.56
0.24

> <PUBCHEM_SHAPE_SELFOVERLAP>
1311.591

> <PUBCHEM_SHAPE_VOLUME>
317

> <PUBCHEM_COORDINATE_TYPE>
2
5
10

$$$$
