24687013
  -OEChem-01171812123D

 66 68  0     0  0  0  0  0  0999 V2000
   -2.1252    3.1833    0.3558 O   0  0  0  0  0  0  0  0  0  0  0  0
   -4.0251   -0.2528   -1.2679 O   0  0  0  0  0  0  0  0  0  0  0  0
   -1.7398   -4.1899   -0.8258 O   0  0  0  0  0  0  0  0  0  0  0  0
    2.6715    0.9800   -1.0309 O   0  0  0  0  0  0  0  0  0  0  0  0
   -2.6394    0.9313    0.7587 N   0  0  0  0  0  0  0  0  0  0  0  0
   -1.1914   -2.4324    0.6128 N   0  0  0  0  0  0  0  0  0  0  0  0
   -2.8685   -2.2222   -1.0319 N   0  0  0  0  0  0  0  0  0  0  0  0
   -0.6720   -0.5642    2.0721 N   0  0  0  0  0  0  0  0  0  0  0  0
   -3.6763    1.1371    1.7803 C   0  0  0  0  0  0  0  0  0  0  0  0
   -5.0775    1.2634    1.1719 C   0  0  0  0  0  0  0  0  0  0  0  0
   -2.3550   -0.3643    0.4174 C   0  0  0  0  0  0  0  0  0  0  0  0
   -0.1667   -3.2318    1.2876 C   0  0  0  0  0  0  0  0  0  0  0  0
   -1.4088   -1.1072    1.0381 C   0  0  0  0  0  0  0  0  0  0  0  0
    1.2435   -2.8797    0.8262 C   0  0  0  0  0  0  0  0  0  0  0  0
   -5.1272    2.4534    0.2130 C   0  0  0  0  0  0  0  0  0  0  0  0
   -6.1502    1.4186    2.2524 C   0  0  0  0  0  0  0  0  0  0  0  0
   -1.9501    1.9854    0.1320 C   0  0  0  0  0  0  0  0  0  0  0  0
   -3.1641   -0.9185   -0.6980 C   0  0  0  0  0  0  0  0  0  0  0  0
   -1.9114   -3.0327   -0.4336 C   0  0  0  0  0  0  0  0  0  0  0  0
    1.4363   -3.0775   -0.6791 C   0  0  0  0  0  0  0  0  0  0  0  0
   -0.9202    1.6568   -0.8680 C   0  0  0  0  0  0  0  0  0  0  0  0
    2.8312   -2.6618   -1.1195 C   0  0  0  0  0  0  0  0  0  0  0  0
    0.4041    1.4719   -0.4707 C   0  0  0  0  0  0  0  0  0  0  0  0
   -1.2692    1.5304   -2.2126 C   0  0  0  0  0  0  0  0  0  0  0  0
    1.3794    1.1605   -1.4181 C   0  0  0  0  0  0  0  0  0  0  0  0
   -0.2939    1.2191   -3.1600 C   0  0  0  0  0  0  0  0  0  0  0  0
    1.0304    1.0342   -2.7627 C   0  0  0  0  0  0  0  0  0  0  0  0
    2.9590    1.1239    0.3592 C   0  0  0  0  0  0  0  0  0  0  0  0
    4.4293    0.9202    0.5789 C   0  0  0  0  0  0  0  0  0  0  0  0
    4.9248   -0.3566    0.8426 C   0  0  0  0  0  0  0  0  0  0  0  0
    5.3006    2.0079    0.5198 C   0  0  0  0  0  0  0  0  0  0  0  0
    6.2916   -0.5460    1.0474 C   0  0  0  0  0  0  0  0  0  0  0  0
    6.6673    1.8187    0.7244 C   0  0  0  0  0  0  0  0  0  0  0  0
    7.1628    0.5417    0.9882 C   0  0  0  0  0  0  0  0  0  0  0  0
   -3.4264    2.0524    2.3312 H   0  0  0  0  0  0  0  0  0  0  0  0
   -3.6431    0.3101    2.5008 H   0  0  0  0  0  0  0  0  0  0  0  0
   -5.3317    0.3539    0.6205 H   0  0  0  0  0  0  0  0  0  0  0  0
   -0.3438   -4.2956    1.0876 H   0  0  0  0  0  0  0  0  0  0  0  0
   -0.2690   -3.1252    2.3737 H   0  0  0  0  0  0  0  0  0  0  0  0
    1.9584   -3.5101    1.3690 H   0  0  0  0  0  0  0  0  0  0  0  0
    1.4874   -1.8440    1.0822 H   0  0  0  0  0  0  0  0  0  0  0  0
   -4.5056    2.3022   -0.6729 H   0  0  0  0  0  0  0  0  0  0  0  0
   -6.1501    2.6030   -0.1517 H   0  0  0  0  0  0  0  0  0  0  0  0
   -4.8199    3.3812    0.7070 H   0  0  0  0  0  0  0  0  0  0  0  0
   -7.1485    1.4802    1.8067 H   0  0  0  0  0  0  0  0  0  0  0  0
   -6.1393    0.5609    2.9333 H   0  0  0  0  0  0  0  0  0  0  0  0
   -5.9863    2.3243    2.8460 H   0  0  0  0  0  0  0  0  0  0  0  0
    0.7145   -2.4832   -1.2488 H   0  0  0  0  0  0  0  0  0  0  0  0
    1.2735   -4.1301   -0.9371 H   0  0  0  0  0  0  0  0  0  0  0  0
   -3.4031   -2.6330   -1.7922 H   0  0  0  0  0  0  0  0  0  0  0  0
    0.0248   -1.1053    2.5625 H   0  0  0  0  0  0  0  0  0  0  0  0
   -0.8516    0.3896    2.3617 H   0  0  0  0  0  0  0  0  0  0  0  0
    2.9755   -1.5897   -0.9930 H   0  0  0  0  0  0  0  0  0  0  0  0
    2.9733   -2.8911   -2.1805 H   0  0  0  0  0  0  0  0  0  0  0  0
    3.6014   -3.1940   -0.5528 H   0  0  0  0  0  0  0  0  0  0  0  0
    0.6165    1.5924    0.5861 H   0  0  0  0  0  0  0  0  0  0  0  0
   -2.2965    1.6780   -2.5350 H   0  0  0  0  0  0  0  0  0  0  0  0
   -0.5654    1.1216   -4.2070 H   0  0  0  0  0  0  0  0  0  0  0  0
    1.7858    0.7912   -3.5050 H   0  0  0  0  0  0  0  0  0  0  0  0
    2.6978    2.1312    0.7101 H   0  0  0  0  0  0  0  0  0  0  0  0
    2.4090    0.3826    0.9523 H   0  0  0  0  0  0  0  0  0  0  0  0
    4.2584   -1.2095    0.9173 H   0  0  0  0  0  0  0  0  0  0  0  0
    4.9276    3.0075    0.3128 H   0  0  0  0  0  0  0  0  0  0  0  0
    6.6766   -1.5394    1.2586 H   0  0  0  0  0  0  0  0  0  0  0  0
    7.3459    2.6655    0.6781 H   0  0  0  0  0  0  0  0  0  0  0  0
    8.2268    0.3945    1.1489 H   0  0  0  0  0  0  0  0  0  0  0  0
  1 17  2  0  0  0  0
  2 18  2  0  0  0  0
  3 19  2  0  0  0  0
  4 25  1  0  0  0  0
  4 28  1  0  0  0  0
  5  9  1  0  0  0  0
  5 11  1  0  0  0  0
  5 17  1  0  0  0  0
  6 12  1  0  0  0  0
  6 13  1  0  0  0  0
  6 19  1  0  0  0  0
  7 18  1  0  0  0  0
  7 19  1  0  0  0  0
  7 50  1  0  0  0  0
  8 13  1  0  0  0  0
  8 51  1  0  0  0  0
  8 52  1  0  0  0  0
  9 10  1  0  0  0  0
  9 35  1  0  0  0  0
  9 36  1  0  0  0  0
 10 15  1  0  0  0  0
 10 16  1  0  0  0  0
 10 37  1  0  0  0  0
 11 13  2  0  0  0  0
 11 18  1  0  0  0  0
 12 14  1  0  0  0  0
 12 38  1  0  0  0  0
 12 39  1  0  0  0  0
 14 20  1  0  0  0  0
 14 40  1  0  0  0  0
 14 41  1  0  0  0  0
 15 42  1  0  0  0  0
 15 43  1  0  0  0  0
 15 44  1  0  0  0  0
 16 45  1  0  0  0  0
 16 46  1  0  0  0  0
 16 47  1  0  0  0  0
 17 21  1  0  0  0  0
 20 22  1  0  0  0  0
 20 48  1  0  0  0  0
 20 49  1  0  0  0  0
 21 23  2  0  0  0  0
 21 24  1  0  0  0  0
 22 53  1  0  0  0  0
 22 54  1  0  0  0  0
 22 55  1  0  0  0  0
 23 25  1  0  0  0  0
 23 56  1  0  0  0  0
 24 26  2  0  0  0  0
 24 57  1  0  0  0  0
 25 27  2  0  0  0  0
 26 27  1  0  0  0  0
 26 58  1  0  0  0  0
 27 59  1  0  0  0  0
 28 29  1  0  0  0  0
 28 60  1  0  0  0  0
 28 61  1  0  0  0  0
 29 30  2  0  0  0  0
 29 31  1  0  0  0  0
 30 32  1  0  0  0  0
 30 62  1  0  0  0  0
 31 33  2  0  0  0  0
 31 63  1  0  0  0  0
 32 34  2  0  0  0  0
 32 64  1  0  0  0  0
 33 34  1  0  0  0  0
 33 65  1  0  0  0  0
 34 66  1  0  0  0  0
M  END
> <PUBCHEM_COMPOUND_CID>
24687013

> <PUBCHEM_CONFORMER_RMSD>
1.2

> <PUBCHEM_CONFORMER_DIVERSEORDER>
2
36
115
112
149
153
127
211
214
47
212
192
161
65
104
41
75
83
28
131
141
24
51
123
48
176
57
45
178
207
156
158
208
188
64
21
80
79
172
179
111
23
121
86
82
38
204
109
39
119
137
184
200
27
71
56
193
202
142
195
22
108
216
114
191
186
170
92
148
25
134
120
138
163
66
150
20
12
62
30
5
128
185
203
124
50
84
35
107
166
70
100
96
17
102
95
175
144
18
132
173
55
90
117
171
43
73
130
168
37
140
3
29
219
169
87
26
8
183
196
164
165
206
157
13
10
9
89
34
113
94
125
135
139
61
59
187
85
201
46
181
133
99
49
160
145
182
177
68
189
116
91
167
98
93
151
129
1
52
11
118
67
7
162
198
42
209
53
190
218
14
103
154
54
74
215
15
6
143
78
16
205
76
40
136
217
4
155
110
213
19
159
106
174
210
77
58
32
63
101
72
81
197
147
180
152
88
97
126
44
60
69
105
199
31
146
122
33
194

> <PUBCHEM_MMFF94_PARTIAL_CHARGES>
40
1 -0.57
11 0.12
12 0.3
13 0.21
17 0.54
18 0.62
19 0.69
2 -0.57
21 0.09
23 -0.15
24 -0.15
25 0.08
26 -0.15
27 -0.15
28 0.42
29 -0.14
3 -0.57
30 -0.15
31 -0.15
32 -0.15
33 -0.15
34 -0.15
4 -0.36
5 -0.47
50 0.37
51 0.4
52 0.4
56 0.15
57 0.15
58 0.15
59 0.15
6 -0.47
62 0.15
63 0.15
64 0.15
65 0.15
66 0.15
7 -0.49
8 -0.9
9 0.3

> <PUBCHEM_EFFECTIVE_ROTOR_COUNT>
11

> <PUBCHEM_PHARMACOPHORE_FEATURES>
12
1 1 acceptor
1 2 acceptor
1 22 hydrophobe
1 3 acceptor
1 4 acceptor
1 7 donor
1 8 cation
1 8 donor
3 10 15 16 hydrophobe
6 21 23 24 25 26 27 rings
6 29 30 31 32 33 34 rings
6 6 7 11 13 18 19 rings

> <PUBCHEM_HEAVY_ATOM_COUNT>
34

> <PUBCHEM_ATOM_DEF_STEREO_COUNT>
0

> <PUBCHEM_ATOM_UDEF_STEREO_COUNT>
0

> <PUBCHEM_BOND_DEF_STEREO_COUNT>
0

> <PUBCHEM_BOND_UDEF_STEREO_COUNT>
0

> <PUBCHEM_ISOTOPIC_ATOM_COUNT>
0

> <PUBCHEM_COMPONENT_COUNT>
1

> <PUBCHEM_CACTVS_TAUTO_COUNT>
8

> <PUBCHEM_CONFORMER_ID>
0178B1A500000002

> <PUBCHEM_MMFF94_ENERGY>
118.5599

> <PUBCHEM_FEATURE_SELFOVERLAP>
60.896

> <PUBCHEM_SHAPE_FINGERPRINT>
10305334 12 18273216404156624337
11552529 35 18338506560735385416
11607047 141 17127361307117057307
12422481 6 18113622248461346592
12633257 1 18410577314231666704
12788726 201 17617970327233851103
131258 43 11459296565156722633
133893 2 17249822734560007081
13583140 156 17703781535908592624
14068700 675 17840014479575122375
14279260 333 17843684362612181862
14395042 24 18189905399747507739
14747281 78 15554163671446459739
14840074 17 17822007618832925424
15840311 113 18126860296326534169
15849732 13 17967252005456476593
16110190 28 17749395914100945408
16994733 274 16127825054576869681
20764821 26 18046323268446652026
22182313 1 17750795437456955173
23559900 14 18057352572315890564
4112364 45 17483417235503594809
4340502 62 18271252629134116248
513202 73 17168687632721066786
57527585 103 17459768092460889763
6669772 16 17988087686372599567

> <PUBCHEM_SHAPE_MULTIPOLES>
656.3
13.03
4.12
2.24
15.9
4.2
1.22
-8.37
-8.74
-1.44
0.39
-1.2
-0.77
-0.73

> <PUBCHEM_SHAPE_SELFOVERLAP>
1388.938

> <PUBCHEM_SHAPE_VOLUME>
364.4

> <PUBCHEM_COORDINATE_TYPE>
2
5
10

$$$$
