610995
  -OEChem-01171811543D

 28 30  0     0  0  0  0  0  0999 V2000
   -4.1459   -0.3125   -0.2799 O   0  0  0  0  0  0  0  0  0  0  0  0
    0.5536   -1.1407   -0.0851 N   0  0  0  0  0  0  0  0  0  0  0  0
    1.0172    1.5719    0.0231 N   0  0  0  0  0  0  0  0  0  0  0  0
   -2.0347   -2.1350   -0.2375 N   0  0  0  0  0  0  0  0  0  0  0  0
   -0.4733   -0.2763   -0.1057 C   0  0  0  0  0  0  0  0  0  0  0  0
   -0.2378    1.1012   -0.0506 C   0  0  0  0  0  0  0  0  0  0  0  0
   -1.7853   -0.7394   -0.1822 C   0  0  0  0  0  0  0  0  0  0  0  0
    1.8087   -0.6701   -0.0113 C   0  0  0  0  0  0  0  0  0  0  0  0
    2.0442    0.7075    0.0436 C   0  0  0  0  0  0  0  0  0  0  0  0
   -2.8643    0.1421   -0.2047 C   0  0  0  0  0  0  0  0  0  0  0  0
   -1.3209    1.9774   -0.0735 C   0  0  0  0  0  0  0  0  0  0  0  0
   -2.6309    1.5080   -0.1500 C   0  0  0  0  0  0  0  0  0  0  0  0
    2.8918   -1.5465    0.0116 C   0  0  0  0  0  0  0  0  0  0  0  0
    3.3563    1.1705    0.1198 C   0  0  0  0  0  0  0  0  0  0  0  0
    4.2018   -1.0772    0.0877 C   0  0  0  0  0  0  0  0  0  0  0  0
    4.4353    0.2888    0.1421 C   0  0  0  0  0  0  0  0  0  0  0  0
   -4.8160   -0.5699    0.9527 C   0  0  0  0  0  0  0  0  0  0  0  0
   -1.1501    3.0513   -0.0313 H   0  0  0  0  0  0  0  0  0  0  0  0
   -3.4564    2.2136   -0.1671 H   0  0  0  0  0  0  0  0  0  0  0  0
    2.7209   -2.6203   -0.0306 H   0  0  0  0  0  0  0  0  0  0  0  0
    3.5519    2.2401    0.1630 H   0  0  0  0  0  0  0  0  0  0  0  0
    5.0321   -1.7764    0.1042 H   0  0  0  0  0  0  0  0  0  0  0  0
    5.4503    0.6694    0.2016 H   0  0  0  0  0  0  0  0  0  0  0  0
   -1.2589   -2.7838   -0.2287 H   0  0  0  0  0  0  0  0  0  0  0  0
   -2.9834   -2.4760   -0.3162 H   0  0  0  0  0  0  0  0  0  0  0  0
   -4.2700   -1.3088    1.5477 H   0  0  0  0  0  0  0  0  0  0  0  0
   -5.8086   -0.9687    0.7259 H   0  0  0  0  0  0  0  0  0  0  0  0
   -4.9337    0.3571    1.5230 H   0  0  0  0  0  0  0  0  0  0  0  0
  1 10  1  0  0  0  0
  1 17  1  0  0  0  0
  2  5  2  0  0  0  0
  2  8  1  0  0  0  0
  3  6  2  0  0  0  0
  3  9  1  0  0  0  0
  4  7  1  0  0  0  0
  4 24  1  0  0  0  0
  4 25  1  0  0  0  0
  5  6  1  0  0  0  0
  5  7  1  0  0  0  0
  6 11  1  0  0  0  0
  7 10  2  0  0  0  0
  8  9  1  0  0  0  0
  8 13  2  0  0  0  0
  9 14  2  0  0  0  0
 10 12  1  0  0  0  0
 11 12  2  0  0  0  0
 11 18  1  0  0  0  0
 12 19  1  0  0  0  0
 13 15  1  0  0  0  0
 13 20  1  0  0  0  0
 14 16  1  0  0  0  0
 14 21  1  0  0  0  0
 15 16  2  0  0  0  0
 15 22  1  0  0  0  0
 16 23  1  0  0  0  0
 17 26  1  0  0  0  0
 17 27  1  0  0  0  0
 17 28  1  0  0  0  0
M  END
> <PUBCHEM_COMPOUND_CID>
610995

> <PUBCHEM_CONFORMER_RMSD>
0.6

> <PUBCHEM_CONFORMER_DIVERSEORDER>
1

> <PUBCHEM_MMFF94_PARTIAL_CHARGES>
25
1 -0.36
10 0.08
11 -0.15
12 -0.15
13 -0.15
14 -0.15
15 -0.15
16 -0.15
17 0.28
18 0.15
19 0.15
2 -0.62
20 0.15
21 0.15
22 0.15
23 0.15
24 0.4
25 0.4
3 -0.62
4 -0.9
5 0.31
6 0.31
7 0.1
8 0.31
9 0.31

> <PUBCHEM_EFFECTIVE_ROTOR_COUNT>
1

> <PUBCHEM_PHARMACOPHORE_FEATURES>
8
1 1 acceptor
1 2 acceptor
1 3 acceptor
1 4 cation
1 4 donor
6 2 3 5 6 8 9 rings
6 5 6 7 10 11 12 rings
6 8 9 13 14 15 16 rings

> <PUBCHEM_HEAVY_ATOM_COUNT>
17

> <PUBCHEM_ATOM_DEF_STEREO_COUNT>
0

> <PUBCHEM_ATOM_UDEF_STEREO_COUNT>
0

> <PUBCHEM_BOND_DEF_STEREO_COUNT>
0

> <PUBCHEM_BOND_UDEF_STEREO_COUNT>
0

> <PUBCHEM_ISOTOPIC_ATOM_COUNT>
0

> <PUBCHEM_COMPONENT_COUNT>
1

> <PUBCHEM_CACTVS_TAUTO_COUNT>
3

> <PUBCHEM_CONFORMER_ID>
000952B300000001

> <PUBCHEM_MMFF94_ENERGY>
75.4326

> <PUBCHEM_FEATURE_SELFOVERLAP>
40.672

> <PUBCHEM_SHAPE_FINGERPRINT>
10608611 8 18411974741918110924
10616163 171 18413107294623969190
10967382 1 18411135848731380190
11132069 177 18411972581433133344
11471102 20 18410849975523529236
11543360 7 15647064775703819015
11806522 49 18408039628050454205
12032990 46 18408888412351305517
12251169 10 18413390951174462455
13140716 1 18195808698217234987
13221675 6 18410290311156863619
13581323 91 18334576823908560700
13675066 3 18261109698992689601
13862211 1 18410849975861528999
14115302 16 17603877731443597879
14144814 61 18410853218382099680
14252887 29 18130515158280371742
15196674 1 18410573946549700892
15209294 21 17703240520527037473
15375462 189 18333725819009689586
15442244 35 18194961842857989106
15536298 74 18342736308757680332
16945 1 18411692218573565837
17804303 29 18341896260082913316
18522853 276 18413106151851035665
19141452 34 18272372009897905415
200 152 18131058330220599061
20261772 1 18271527580303514919
20510252 161 18200593596838829641
20645477 70 18341044125433446710
21029758 11 18343292670099842513
21029758 27 18260274061755776877
21267235 1 18410582764518557662
21501502 16 18411417268016051196
23402539 116 18272079501149789325
23463225 33 18409446964717203716
23559900 14 18197490732697999646
26918003 58 18040433308656306715
2748010 2 18194962946358694261
2871803 45 18261386728488312327
335352 9 18123186792916561796
42 15 18407761425844058835
4214541 1 18410572842853934076
474 4 17168998936124537012
5104073 3 18338795607238325336
537710 114 18410860983667458452
69090 78 18343015597179552935
7364860 26 18340767164984562264
8809292 202 18261675960160434347
9709674 26 18341052934654158654

> <PUBCHEM_SHAPE_MULTIPOLES>
329.04
8.37
1.89
0.67
0.49
0.1
-0.06
-1.64
-1.19
0.15
0.07
0.26
-0.03
0.18

> <PUBCHEM_SHAPE_SELFOVERLAP>
740.529

> <PUBCHEM_SHAPE_VOLUME>
173.7

> <PUBCHEM_COORDINATE_TYPE>
2
5
10

$$$$
