20846820
  -OEChem-01171811443D

 51 53  0     0  0  0  0  0  0999 V2000
   -3.7541    2.6088   -1.1555 O   0  5  0  0  0  0  0  0  0  0  0  0
   -3.7158    2.6619    1.0387 O   0  0  0  0  0  0  0  0  0  0  0  0
   -4.0516   -0.5598    0.0238 N   0  0  0  0  0  0  0  0  0  0  0  0
   -3.3180    2.1973   -0.0552 N   0  3  0  0  0  0  0  0  0  0  0  0
    2.3576    0.0118   -0.1002 N   0  0  0  0  0  0  0  0  0  0  0  0
    5.9753    0.3709   -0.1695 N   0  0  0  0  0  0  0  0  0  0  0  0
    3.6113    0.5305   -0.1337 N   0  0  0  0  0  0  0  0  0  0  0  0
    6.2426   -1.8003   -0.1253 N   0  0  0  0  0  0  0  0  0  0  0  0
    4.8893   -1.5276   -0.1090 N   0  0  0  0  0  0  0  0  0  0  0  0
    6.2639    1.7548   -0.2051 N   0  0  0  0  0  0  0  0  0  0  0  0
   -6.8000   -1.4562    0.1828 C   0  0  0  0  0  0  0  0  0  0  0  0
   -6.1053   -1.2220   -1.1622 C   0  0  0  0  0  0  0  0  0  0  0  0
   -6.1942   -0.5262    1.2391 C   0  0  0  0  0  0  0  0  0  0  0  0
   -4.5907   -1.3973   -1.0527 C   0  0  0  0  0  0  0  0  0  0  0  0
   -4.6810   -0.7089    1.3429 C   0  0  0  0  0  0  0  0  0  0  0  0
   -8.3060   -1.2356    0.0633 C   0  0  0  0  0  0  0  0  0  0  0  0
   -2.7048   -0.1789   -0.0087 C   0  0  0  0  0  0  0  0  0  0  0  0
   -2.3371    1.1661   -0.0474 C   0  0  0  0  0  0  0  0  0  0  0  0
   -1.7235   -1.1702   -0.0013 C   0  0  0  0  0  0  0  0  0  0  0  0
   -0.9881    1.5196   -0.0786 C   0  0  0  0  0  0  0  0  0  0  0  0
   -0.3745   -0.8166   -0.0329 C   0  0  0  0  0  0  0  0  0  0  0  0
   -0.0069    0.5283   -0.0715 C   0  0  0  0  0  0  0  0  0  0  0  0
    1.3998    0.8962   -0.1043 C   0  0  0  0  0  0  0  0  0  0  0  0
    6.8766   -0.6501   -0.1617 C   0  0  0  0  0  0  0  0  0  0  0  0
    4.7494   -0.2215   -0.1358 C   0  0  0  0  0  0  0  0  0  0  0  0
    8.3366   -0.4447   -0.1908 C   0  0  0  0  0  0  0  0  0  0  0  0
    8.9492   -0.3304    1.2108 C   0  0  0  0  0  0  0  0  0  0  0  0
   -6.6312   -2.4966    0.4903 H   0  0  0  0  0  0  0  0  0  0  0  0
   -6.3238   -0.2066   -1.5184 H   0  0  0  0  0  0  0  0  0  0  0  0
   -6.4967   -1.9154   -1.9159 H   0  0  0  0  0  0  0  0  0  0  0  0
   -6.4139    0.5185    0.9824 H   0  0  0  0  0  0  0  0  0  0  0  0
   -6.6505   -0.7177    2.2174 H   0  0  0  0  0  0  0  0  0  0  0  0
   -4.3496   -2.4502   -0.8613 H   0  0  0  0  0  0  0  0  0  0  0  0
   -4.1374   -1.1232   -2.0133 H   0  0  0  0  0  0  0  0  0  0  0  0
   -4.2875    0.0298    2.0515 H   0  0  0  0  0  0  0  0  0  0  0  0
   -4.4482   -1.7019    1.7475 H   0  0  0  0  0  0  0  0  0  0  0  0
   -8.5364   -0.2093   -0.2422 H   0  0  0  0  0  0  0  0  0  0  0  0
   -8.7397   -1.9148   -0.6781 H   0  0  0  0  0  0  0  0  0  0  0  0
   -8.8024   -1.4231    1.0212 H   0  0  0  0  0  0  0  0  0  0  0  0
   -1.9910   -2.2232    0.0349 H   0  0  0  0  0  0  0  0  0  0  0  0
   -0.7015    2.5690   -0.1086 H   0  0  0  0  0  0  0  0  0  0  0  0
    0.3676   -1.6103   -0.0250 H   0  0  0  0  0  0  0  0  0  0  0  0
    1.6292    1.9778   -0.1333 H   0  0  0  0  0  0  0  0  0  0  0  0
    8.8015   -1.2974   -0.7010 H   0  0  0  0  0  0  0  0  0  0  0  0
    8.6043    0.4398   -0.7797 H   0  0  0  0  0  0  0  0  0  0  0  0
    3.6903    1.5444   -0.1669 H   0  0  0  0  0  0  0  0  0  0  0  0
    8.7450   -1.2296    1.8018 H   0  0  0  0  0  0  0  0  0  0  0  0
   10.0341   -0.2054    1.1395 H   0  0  0  0  0  0  0  0  0  0  0  0
    8.5393    0.5291    1.7516 H   0  0  0  0  0  0  0  0  0  0  0  0
    5.5798    2.3070    0.3112 H   0  0  0  0  0  0  0  0  0  0  0  0
    7.1635    1.9805    0.2178 H   0  0  0  0  0  0  0  0  0  0  0  0
  1  4  1  0  0  0  0
  2  4  2  0  0  0  0
  3 14  1  0  0  0  0
  3 15  1  0  0  0  0
  3 17  1  0  0  0  0
  4 18  1  0  0  0  0
  5  7  1  0  0  0  0
  5 23  2  0  0  0  0
  6 10  1  0  0  0  0
  6 24  1  0  0  0  0
  6 25  1  0  0  0  0
  7 25  1  0  0  0  0
  7 46  1  0  0  0  0
  8  9  1  0  0  0  0
  8 24  2  0  0  0  0
  9 25  2  0  0  0  0
 10 50  1  0  0  0  0
 10 51  1  0  0  0  0
 11 12  1  0  0  0  0
 11 13  1  0  0  0  0
 11 16  1  0  0  0  0
 11 28  1  0  0  0  0
 12 14  1  0  0  0  0
 12 29  1  0  0  0  0
 12 30  1  0  0  0  0
 13 15  1  0  0  0  0
 13 31  1  0  0  0  0
 13 32  1  0  0  0  0
 14 33  1  0  0  0  0
 14 34  1  0  0  0  0
 15 35  1  0  0  0  0
 15 36  1  0  0  0  0
 16 37  1  0  0  0  0
 16 38  1  0  0  0  0
 16 39  1  0  0  0  0
 17 18  2  0  0  0  0
 17 19  1  0  0  0  0
 18 20  1  0  0  0  0
 19 21  2  0  0  0  0
 19 40  1  0  0  0  0
 20 22  2  0  0  0  0
 20 41  1  0  0  0  0
 21 22  1  0  0  0  0
 21 42  1  0  0  0  0
 22 23  1  0  0  0  0
 23 43  1  0  0  0  0
 24 26  1  0  0  0  0
 26 27  1  0  0  0  0
 26 44  1  0  0  0  0
 26 45  1  0  0  0  0
 27 47  1  0  0  0  0
 27 48  1  0  0  0  0
 27 49  1  0  0  0  0
M  CHG  2   1  -1   4   1
M  END
> <PUBCHEM_COMPOUND_CID>
20846820

> <PUBCHEM_CONFORMER_RMSD>
0.8

> <PUBCHEM_CONFORMER_DIVERSEORDER>
2
107
88
51
75
12
93
28
105
57
52
44
22
111
74
106
46
80
42
63
119
86
7
17
110
117
25
114
49
54
8
101
69
32
64
66
97
104
103
91
9
73
55
85
102
41
56
47
87
70
124
112
67
120
118
27
83
68
58
38
121
30
33
99
81
115
24
127
96
123
43
34
45
39
23
20
37
76
48
72
59
14
122
125
60
11
78
65
50
29
77
21
113
53
31
16
84
18
98
26
36
109
108
62
116
6
35
61
19
40
15
100
82
79
90
89
10
13
71
4
1
94
92
5
95
126
3

> <PUBCHEM_MMFF94_PARTIAL_CHARGES>
29
1 -0.52
10 -0.87
14 0.37
15 0.37
17 0.1
18 0.13
19 -0.15
2 -0.52
20 -0.15
21 -0.15
22 0.09
23 0.3
24 0.01
25 0.27
26 0.18
3 -0.84
4 0.91
40 0.15
41 0.15
42 0.15
43 0.06
46 0.4
5 -0.49
50 0.36
51 0.36
6 0.45
7 -0.44
8 -0.34
9 -0.34

> <PUBCHEM_EFFECTIVE_ROTOR_COUNT>
7.2

> <PUBCHEM_PHARMACOPHORE_FEATURES>
12
1 1 acceptor
1 1 anion
1 10 donor
1 2 acceptor
1 27 hydrophobe
1 3 cation
1 5 acceptor
1 7 donor
4 6 7 9 25 cation
5 6 8 9 24 25 rings
6 17 18 19 20 21 22 rings
6 3 11 12 13 14 15 rings

> <PUBCHEM_HEAVY_ATOM_COUNT>
27

> <PUBCHEM_ATOM_DEF_STEREO_COUNT>
0

> <PUBCHEM_ATOM_UDEF_STEREO_COUNT>
0

> <PUBCHEM_BOND_DEF_STEREO_COUNT>
1

> <PUBCHEM_BOND_UDEF_STEREO_COUNT>
0

> <PUBCHEM_ISOTOPIC_ATOM_COUNT>
0

> <PUBCHEM_COMPONENT_COUNT>
1

> <PUBCHEM_CACTVS_TAUTO_COUNT>
2

> <PUBCHEM_CONFORMER_ID>
013E18E400000002

> <PUBCHEM_MMFF94_ENERGY>
69.9723

> <PUBCHEM_FEATURE_SELFOVERLAP>
60.978

> <PUBCHEM_SHAPE_FINGERPRINT>
10 15 12895356594328681983
10050765 1 18194121807353051407
10299344 5 18059859484623084614
106641 1 17203325637461482474
11315181 36 17168151147485594096
11524674 6 15985104137027916271
12166972 35 18413392059698771792
12516196 113 18060699494711692024
12616971 3 13901900141921021296
12643181 29 17968097564231848355
12760667 363 18410857681443957387
13073987 5 18339643339630877970
13685833 64 18410013247623229930
13885169 127 18408040685203493093
14118638 360 18261391109877499242
14251764 18 18060140959604920614
14251764 46 17203611501873664094
15131766 46 15551607508690701065
15183329 4 18259982661399652554
15510794 2 18130227061107695190
15716309 27 18273216412862337063
16087824 20 18337953374018906621
17844677 252 18412550907723434792
21130935 74 18270116791649221618
21150785 3 16515402975717649462
21236236 1 18410294684003452061
21267235 1 18409451396690780541
21315763 28 18408322181892137652
21792934 111 18342451560415134008
21792961 116 18040147423729410335
220451 1 12607403274407851980
22224240 67 17346880061806900902
23081809 10 17895200970218413332
23522609 53 17985014653952002017
23559900 14 18190739932502325313
249057 3 15574998416239312503
3383291 50 18261395572027163242
4325135 7 18343302574004166670
5104073 3 18339078194980713672
59682541 35 17988924500468208786
5969126 39 18408600358144522573
9953998 17 16988842800224267015
9962374 69 18338791342472962670

> <PUBCHEM_SHAPE_MULTIPOLES>
504.06
26.35
2.05
0.96
36.25
1.32
0.13
-10.9
2.89
-2.01
-0.18
-0.98
-0.03
-0.25

> <PUBCHEM_SHAPE_SELFOVERLAP>
1059.573

> <PUBCHEM_SHAPE_VOLUME>
284.8

> <PUBCHEM_COORDINATE_TYPE>
2
5
10

$$$$
