231558
  -OEChem-01171812153D

 27 28  0     0  0  0  0  0  0999 V2000
   -1.5081   -1.8420    0.1605 O   0  0  0  0  0  0  0  0  0  0  0  0
   -2.9481    0.4733   -0.1720 O   0  0  0  0  0  0  0  0  0  0  0  0
    2.5728    0.7185    0.0159 N   0  0  0  0  0  0  0  0  0  0  0  0
    1.0915    3.0475   -0.3188 N   0  0  0  0  0  0  0  0  0  0  0  0
    0.5578   -0.6010    0.0927 C   0  0  0  0  0  0  0  0  0  0  0  0
    1.2298    0.6335   -0.0272 C   0  0  0  0  0  0  0  0  0  0  0  0
   -0.8456   -0.6527    0.0436 C   0  0  0  0  0  0  0  0  0  0  0  0
    0.4626    1.7832   -0.1938 C   0  0  0  0  0  0  0  0  0  0  0  0
   -1.5880    0.5128   -0.1237 C   0  0  0  0  0  0  0  0  0  0  0  0
   -0.9327    1.7320   -0.2427 C   0  0  0  0  0  0  0  0  0  0  0  0
    1.3295   -1.7586    0.2605 C   0  0  0  0  0  0  0  0  0  0  0  0
    2.7135   -1.6743    0.3051 C   0  0  0  0  0  0  0  0  0  0  0  0
    3.2810   -0.4226    0.1791 C   0  0  0  0  0  0  0  0  0  0  0  0
   -1.7706   -2.5541   -1.0449 C   0  0  0  0  0  0  0  0  0  0  0  0
   -3.6454    0.6043    1.0656 C   0  0  0  0  0  0  0  0  0  0  0  0
   -1.5113    2.6436   -0.3743 H   0  0  0  0  0  0  0  0  0  0  0  0
    0.8702   -2.7384    0.3651 H   0  0  0  0  0  0  0  0  0  0  0  0
    3.3256   -2.5589    0.4357 H   0  0  0  0  0  0  0  0  0  0  0  0
    4.3581   -0.2950    0.2070 H   0  0  0  0  0  0  0  0  0  0  0  0
    0.5337    3.8823   -0.4404 H   0  0  0  0  0  0  0  0  0  0  0  0
    2.1005    3.1103   -0.2871 H   0  0  0  0  0  0  0  0  0  0  0  0
   -0.8466   -2.7513   -1.5973 H   0  0  0  0  0  0  0  0  0  0  0  0
   -2.4683   -1.9935   -1.6750 H   0  0  0  0  0  0  0  0  0  0  0  0
   -2.2306   -3.5110   -0.7836 H   0  0  0  0  0  0  0  0  0  0  0  0
   -4.7179    0.5431    0.8624 H   0  0  0  0  0  0  0  0  0  0  0  0
   -3.4307    1.5742    1.5254 H   0  0  0  0  0  0  0  0  0  0  0  0
   -3.3720   -0.2050    1.7500 H   0  0  0  0  0  0  0  0  0  0  0  0
  1  7  1  0  0  0  0
  1 14  1  0  0  0  0
  2  9  1  0  0  0  0
  2 15  1  0  0  0  0
  3  6  1  0  0  0  0
  3 13  2  0  0  0  0
  4  8  1  0  0  0  0
  4 20  1  0  0  0  0
  4 21  1  0  0  0  0
  5  6  2  0  0  0  0
  5  7  1  0  0  0  0
  5 11  1  0  0  0  0
  6  8  1  0  0  0  0
  7  9  2  0  0  0  0
  8 10  2  0  0  0  0
  9 10  1  0  0  0  0
 10 16  1  0  0  0  0
 11 12  2  0  0  0  0
 11 17  1  0  0  0  0
 12 13  1  0  0  0  0
 12 18  1  0  0  0  0
 13 19  1  0  0  0  0
 14 22  1  0  0  0  0
 14 23  1  0  0  0  0
 14 24  1  0  0  0  0
 15 25  1  0  0  0  0
 15 26  1  0  0  0  0
 15 27  1  0  0  0  0
M  END
> <PUBCHEM_COMPOUND_CID>
231558

> <PUBCHEM_CONFORMER_RMSD>
0.6

> <PUBCHEM_CONFORMER_DIVERSEORDER>
1
2

> <PUBCHEM_MMFF94_PARTIAL_CHARGES>
20
1 -0.36
10 -0.15
11 -0.15
12 -0.15
13 0.16
14 0.28
15 0.28
16 0.15
17 0.15
18 0.15
19 0.15
2 -0.36
20 0.4
21 0.4
3 -0.62
4 -0.9
6 0.31
7 0.08
8 0.1
9 0.08

> <PUBCHEM_EFFECTIVE_ROTOR_COUNT>
2

> <PUBCHEM_PHARMACOPHORE_FEATURES>
7
1 1 acceptor
1 2 acceptor
1 3 acceptor
1 4 cation
1 4 donor
6 3 5 6 11 12 13 rings
6 5 6 7 8 9 10 rings

> <PUBCHEM_HEAVY_ATOM_COUNT>
15

> <PUBCHEM_ATOM_DEF_STEREO_COUNT>
0

> <PUBCHEM_ATOM_UDEF_STEREO_COUNT>
0

> <PUBCHEM_BOND_DEF_STEREO_COUNT>
0

> <PUBCHEM_BOND_UDEF_STEREO_COUNT>
0

> <PUBCHEM_ISOTOPIC_ATOM_COUNT>
0

> <PUBCHEM_COMPONENT_COUNT>
1

> <PUBCHEM_CACTVS_TAUTO_COUNT>
1

> <PUBCHEM_CONFORMER_ID>
0003888600000001

> <PUBCHEM_MMFF94_ENERGY>
76.522

> <PUBCHEM_FEATURE_SELFOVERLAP>
35.557

> <PUBCHEM_SHAPE_FINGERPRINT>
10219947 1 18339646616442797161
10967382 1 18409728430855994858
11132069 177 18410844465502442704
12032990 46 18263651662301484818
12382932 28 18411694383432138650
12524768 44 18341331085167699158
13140716 1 18265897041218417968
13172582 1 18340491066968724547
14178342 30 18269259322111627458
14617773 55 17913213345333990507
14993402 34 18340764854080550015
15309172 13 18269840817939599899
15490181 8 17758116286480264976
16945 1 18410005537719246164
17844478 74 17749959855817005901
193761 8 18193838381959671157
20510252 161 18055628417803126600
20588541 1 18341895134764512962
20871998 184 18051688845912390532
21029758 27 18188223000130939004
21501502 16 18194683889258569493
22112679 90 18192967427196465410
23184049 59 18340775827727246627
2334 1 17977102692831894836
23388829 49 17909248523399541646
23402539 116 18198888228391660574
23419403 2 16614124920624324763
23463225 33 18335985255390920560
23552423 10 18192427695635207799
23559900 14 18342183293707401180
2748010 2 18049155571016772484
34934 24 18335973203828823554
352729 6 17472409959640220452
528886 8 18410568479314796138
53812654 25 18411694357541002282
6992083 37 18341899571497261515
7364860 26 18268430316130126280
7832392 63 18412826914546823010

> <PUBCHEM_SHAPE_MULTIPOLES>
286.99
4.63
2.78
0.78
0.66
0.3
-0.01
-0.63
-1.07
-0.01
0.66
0.38
-0.16
-0.57

> <PUBCHEM_SHAPE_SELFOVERLAP>
622.396

> <PUBCHEM_SHAPE_VOLUME>
157.7

> <PUBCHEM_COORDINATE_TYPE>
2
5
10

$$$$
