1265172
  -OEChem-01171811383D

 47 50  0     0  0  0  0  0  0999 V2000
    6.4755    0.2048   -1.8872 O   0  0  0  0  0  0  0  0  0  0  0  0
    7.7090   -0.1041    0.5846 O   0  0  0  0  0  0  0  0  0  0  0  0
   -2.6953    3.3943    0.7803 O   0  0  0  0  0  0  0  0  0  0  0  0
   -1.8175    1.2805    0.3606 N   0  0  0  0  0  0  0  0  0  0  0  0
    1.4530    0.2111    0.2905 N   0  0  0  0  0  0  0  0  0  0  0  0
   -0.4869    1.5105    0.5122 N   0  0  0  0  0  0  0  0  0  0  0  0
   -0.7644   -0.6897    0.0292 N   0  0  0  0  0  0  0  0  0  0  0  0
   -3.1426   -0.6120   -0.0827 N   0  0  0  0  0  0  0  0  0  0  0  0
    2.1646   -1.0117    0.0526 C   0  0  0  0  0  0  0  0  0  0  0  0
    0.0933    0.2850    0.2636 C   0  0  0  0  0  0  0  0  0  0  0  0
    3.6369   -0.7701    0.1902 C   0  0  0  0  0  0  0  0  0  0  0  0
   -1.9892   -0.0560    0.0892 C   0  0  0  0  0  0  0  0  0  0  0  0
   -4.2295    0.2488    0.0253 C   0  0  0  0  0  0  0  0  0  0  0  0
   -2.8142    2.2067    0.5110 C   0  0  0  0  0  0  0  0  0  0  0  0
    4.3816   -0.3914   -0.9224 C   0  0  0  0  0  0  0  0  0  0  0  0
   -4.1495    1.5705    0.3055 C   0  0  0  0  0  0  0  0  0  0  0  0
    4.2490   -0.9263    1.4299 C   0  0  0  0  0  0  0  0  0  0  0  0
   -5.5691   -0.3552   -0.1583 C   0  0  0  0  0  0  0  0  0  0  0  0
    5.7522   -0.1661   -0.7941 C   0  0  0  0  0  0  0  0  0  0  0  0
    6.3713   -0.3212    0.4463 C   0  0  0  0  0  0  0  0  0  0  0  0
    5.6198   -0.7014    1.5582 C   0  0  0  0  0  0  0  0  0  0  0  0
   -6.1491   -0.3919   -1.4259 C   0  0  0  0  0  0  0  0  0  0  0  0
   -6.2497   -0.8867    0.9368 C   0  0  0  0  0  0  0  0  0  0  0  0
   -7.4110   -0.9608   -1.5987 C   0  0  0  0  0  0  0  0  0  0  0  0
   -7.5114   -1.4557    0.7640 C   0  0  0  0  0  0  0  0  0  0  0  0
   -8.0921   -1.4928   -0.5037 C   0  0  0  0  0  0  0  0  0  0  0  0
    6.5941    1.6032   -2.1420 C   0  0  0  0  0  0  0  0  0  0  0  0
    8.5712   -1.2225    0.3850 C   0  0  0  0  0  0  0  0  0  0  0  0
    1.9401   -1.3964   -0.9501 H   0  0  0  0  0  0  0  0  0  0  0  0
    1.8461   -1.7859    0.7617 H   0  0  0  0  0  0  0  0  0  0  0  0
    1.9850    1.0557    0.4821 H   0  0  0  0  0  0  0  0  0  0  0  0
   -0.0769    2.4142    0.3124 H   0  0  0  0  0  0  0  0  0  0  0  0
    3.9031   -0.2683   -1.8908 H   0  0  0  0  0  0  0  0  0  0  0  0
   -5.0225    2.2085    0.3926 H   0  0  0  0  0  0  0  0  0  0  0  0
    3.6735   -1.2201    2.3035 H   0  0  0  0  0  0  0  0  0  0  0  0
    6.0952   -0.8229    2.5277 H   0  0  0  0  0  0  0  0  0  0  0  0
   -5.6302    0.0180   -2.2890 H   0  0  0  0  0  0  0  0  0  0  0  0
   -5.8098   -0.8658    1.9309 H   0  0  0  0  0  0  0  0  0  0  0  0
   -7.8632   -0.9898   -2.5857 H   0  0  0  0  0  0  0  0  0  0  0  0
   -8.0418   -1.8700    1.6163 H   0  0  0  0  0  0  0  0  0  0  0  0
   -9.0744   -1.9358   -0.6383 H   0  0  0  0  0  0  0  0  0  0  0  0
    7.0890    2.1067   -1.3056 H   0  0  0  0  0  0  0  0  0  0  0  0
    5.6084    2.0458   -2.3173 H   0  0  0  0  0  0  0  0  0  0  0  0
    7.2027    1.7373   -3.0404 H   0  0  0  0  0  0  0  0  0  0  0  0
    8.4631   -1.6162   -0.6306 H   0  0  0  0  0  0  0  0  0  0  0  0
    8.3569   -2.0073    1.1174 H   0  0  0  0  0  0  0  0  0  0  0  0
    9.6031   -0.8883    0.5223 H   0  0  0  0  0  0  0  0  0  0  0  0
  1 19  1  0  0  0  0
  1 27  1  0  0  0  0
  2 20  1  0  0  0  0
  2 28  1  0  0  0  0
  3 14  2  0  0  0  0
  4  6  1  0  0  0  0
  4 12  1  0  0  0  0
  4 14  1  0  0  0  0
  5  9  1  0  0  0  0
  5 10  1  0  0  0  0
  5 31  1  0  0  0  0
  6 10  1  0  0  0  0
  6 32  1  0  0  0  0
  7 10  2  0  0  0  0
  7 12  1  0  0  0  0
  8 12  2  0  0  0  0
  8 13  1  0  0  0  0
  9 11  1  0  0  0  0
  9 29  1  0  0  0  0
  9 30  1  0  0  0  0
 11 15  2  0  0  0  0
 11 17  1  0  0  0  0
 13 16  2  0  0  0  0
 13 18  1  0  0  0  0
 14 16  1  0  0  0  0
 15 19  1  0  0  0  0
 15 33  1  0  0  0  0
 16 34  1  0  0  0  0
 17 21  2  0  0  0  0
 17 35  1  0  0  0  0
 18 22  2  0  0  0  0
 18 23  1  0  0  0  0
 19 20  2  0  0  0  0
 20 21  1  0  0  0  0
 21 36  1  0  0  0  0
 22 24  1  0  0  0  0
 22 37  1  0  0  0  0
 23 25  2  0  0  0  0
 23 38  1  0  0  0  0
 24 26  2  0  0  0  0
 24 39  1  0  0  0  0
 25 26  1  0  0  0  0
 25 40  1  0  0  0  0
 26 41  1  0  0  0  0
 27 42  1  0  0  0  0
 27 43  1  0  0  0  0
 27 44  1  0  0  0  0
 28 45  1  0  0  0  0
 28 46  1  0  0  0  0
 28 47  1  0  0  0  0
M  END
> <PUBCHEM_COMPOUND_CID>
1265172

> <PUBCHEM_CONFORMER_RMSD>
0.8

> <PUBCHEM_CONFORMER_DIVERSEORDER>
2
52
102
125
61
53
84
109
44
96
42
13
25
74
123
101
108
35
72
106
21
97
122
120
20
119
76
23
60
107
39
83
78
86
124
112
89
115
114
26
62
69
126
28
110
14
113
111
94
105
8
92
22
40
59
57
90
17
71
30
54
80
91
103
27
37
46
75
100
95
16
93
10
117
45
82
31
43
47
118
51
81
88
48
128
127
87
66
38
3
68
4
41
116
65
49
55
32
50
67
104
1
29
56
121
85
18
70
5
12
77
24
63
36
73
6
33
9
58
99
7
79
19
98
15
64
34
11

> <PUBCHEM_MMFF94_PARTIAL_CHARGES>
39
1 -0.36
10 0.55
11 -0.14
12 0.72
13 0.14
14 0.62
15 -0.15
16 -0.14
17 -0.15
18 0.03
19 0.08
2 -0.36
20 0.08
21 -0.15
22 -0.15
23 -0.15
24 -0.15
25 -0.15
26 -0.15
27 0.28
28 0.28
3 -0.57
31 0.4
32 0.4
33 0.15
34 0.15
35 0.15
36 0.15
37 0.15
38 0.15
39 0.15
4 -0.1
40 0.15
41 0.15
5 -0.82
6 -0.47
7 -0.66
8 -0.62
9 0.51

> <PUBCHEM_EFFECTIVE_ROTOR_COUNT>
6

> <PUBCHEM_PHARMACOPHORE_FEATURES>
10
1 1 acceptor
1 2 acceptor
1 3 acceptor
1 5 donor
1 6 donor
4 5 6 7 10 cation
5 4 6 7 10 12 rings
6 11 15 17 19 20 21 rings
6 18 22 23 24 25 26 rings
6 4 8 12 13 14 16 rings

> <PUBCHEM_HEAVY_ATOM_COUNT>
28

> <PUBCHEM_ATOM_DEF_STEREO_COUNT>
0

> <PUBCHEM_ATOM_UDEF_STEREO_COUNT>
0

> <PUBCHEM_BOND_DEF_STEREO_COUNT>
0

> <PUBCHEM_BOND_UDEF_STEREO_COUNT>
0

> <PUBCHEM_ISOTOPIC_ATOM_COUNT>
0

> <PUBCHEM_COMPONENT_COUNT>
1

> <PUBCHEM_CACTVS_TAUTO_COUNT>
9

> <PUBCHEM_CONFORMER_ID>
00134E1400000002

> <PUBCHEM_MMFF94_ENERGY>
112.5028

> <PUBCHEM_FEATURE_SELFOVERLAP>
50.941

> <PUBCHEM_SHAPE_FINGERPRINT>
10162869 55 17675922119374786970
10591671 39 18343305851216836940
10595046 47 18261678082317123792
11101153 10 18040160625562814029
11315181 36 17749391464730617547
11724838 91 18260266335668546642
12082328 90 16877655765477294751
12089408 11 18334295336859201648
12166972 35 17968096451872098933
12236239 1 17968097490973998616
12516196 113 17704352173468033857
12616971 3 12391505361152147992
12730499 353 16917068829058109238
13673619 4 17917989490696101057
13914758 101 15357971240095832671
14118638 360 18341049614512511394
14150022 121 16773804667113485913
14429380 56 17240481433946091254
14556957 393 18114190713712634597
14767858 380 18335140903617774503
14849402 71 15625365978502466443
14933364 13 15051735291608620363
15131766 46 16373278033323058814
15183329 4 10881398733622524839
15301273 46 16271931497851155993
15352257 5 16415482648845894087
15419008 47 17561358470083736296
15461852 350 14129070222240581459
15510794 2 16988562368465355229
1577012 14 18187653461565927260
15979999 66 17895191147349289541
18335252 98 17989488511362824750
18608769 82 17846493751099612422
19427546 20 18337108957114031341
2026 5 17416419667096696278
20554085 129 13046217329270329069
21150785 3 17748825233000312287
21267235 1 18343864424334950025
21315763 28 18040152903532478604
21792961 116 18259698992237810087
220451 1 11167934750209500908
2303208 19 16988846047040032300
23081809 10 18188212004877439928
23198884 109 15430031046838548299
23522609 53 18196681555963742408
23559900 14 18115025341911683497
23729398 52 18048886483765785505
249057 25 17967824816507149348
2747138 104 18131351938300579587
3009799 131 14923943448968910511
3383291 50 18343018921848802115
34797466 226 17418095447249560168
3633792 109 16950276274122156747
4093350 32 12391518572940893596
4325135 7 18260828194056923846
4938544 92 17274550820078239353
504579 68 17822018605728982230
5219985 9 18411418428221976969
5381727 24 18342171151945852442
54039377 194 18410291454684210231
59682541 35 17988636432848308082
5969126 39 18342451531262842621
636775 8 18335708264719471227
9663363 56 18343577452797002327
9953998 17 16272209704922451659

> <PUBCHEM_SHAPE_MULTIPOLES>
533.71
27.54
1.87
1.41
8.52
1.54
-0.52
-10.74
-5.79
-1.59
0.43
1.05
0.18
-2.44

> <PUBCHEM_SHAPE_SELFOVERLAP>
1170.027

> <PUBCHEM_SHAPE_VOLUME>
289.2

> <PUBCHEM_COORDINATE_TYPE>
2
5
10

$$$$
