721114
  -OEChem-01171811513D

 26 28  0     0  0  0  0  0  0999 V2000
   -6.0768   -0.1902   -0.0024 Cl  0  0  0  0  0  0  0  0  0  0  0  0
   -0.1895    0.0728    0.0014 N   0  0  0  0  0  0  0  0  0  0  0  0
    0.5355   -1.0487    0.0009 N   0  0  0  0  0  0  0  0  0  0  0  0
    0.4324    1.2546    0.0009 N   0  0  0  0  0  0  0  0  0  0  0  0
    5.4334   -1.0593   -0.0013 N   0  0  0  0  0  0  0  0  0  0  0  0
    1.7920   -0.5743    0.0005 C   0  0  0  0  0  0  0  0  0  0  0  0
    1.7264    0.8944    0.0001 C   0  0  0  0  0  0  0  0  0  0  0  0
   -1.5812    0.0105    0.0015 C   0  0  0  0  0  0  0  0  0  0  0  0
    3.0153   -1.2702    0.0001 C   0  0  0  0  0  0  0  0  0  0  0  0
    2.8825    1.6969   -0.0005 C   0  0  0  0  0  0  0  0  0  0  0  0
    4.1539   -0.4438   -0.0007 C   0  0  0  0  0  0  0  0  0  0  0  0
    4.0904    0.9754   -0.0009 C   0  0  0  0  0  0  0  0  0  0  0  0
   -2.2135   -1.2269    0.0010 C   0  0  0  0  0  0  0  0  0  0  0  0
   -2.3213    1.1867    0.0008 C   0  0  0  0  0  0  0  0  0  0  0  0
   -3.6070   -1.2890   -0.0001 C   0  0  0  0  0  0  0  0  0  0  0  0
   -3.7148    1.1245   -0.0002 C   0  0  0  0  0  0  0  0  0  0  0  0
   -4.3577   -0.1134   -0.0008 C   0  0  0  0  0  0  0  0  0  0  0  0
    3.0725   -2.3519    0.0003 H   0  0  0  0  0  0  0  0  0  0  0  0
    2.8559    2.7791   -0.0007 H   0  0  0  0  0  0  0  0  0  0  0  0
    5.0194    1.5459   -0.0014 H   0  0  0  0  0  0  0  0  0  0  0  0
   -1.6673   -2.1662    0.0013 H   0  0  0  0  0  0  0  0  0  0  0  0
   -1.8610    2.1709    0.0009 H   0  0  0  0  0  0  0  0  0  0  0  0
   -4.0949   -2.2603   -0.0006 H   0  0  0  0  0  0  0  0  0  0  0  0
   -4.2874    2.0486   -0.0008 H   0  0  0  0  0  0  0  0  0  0  0  0
    6.2683   -0.4885   -0.0025 H   0  0  0  0  0  0  0  0  0  0  0  0
    5.5075   -2.0680   -0.0017 H   0  0  0  0  0  0  0  0  0  0  0  0
  1 17  1  0  0  0  0
  2  3  1  0  0  0  0
  2  4  1  0  0  0  0
  2  8  1  0  0  0  0
  3  6  2  0  0  0  0
  4  7  2  0  0  0  0
  5 11  1  0  0  0  0
  5 25  1  0  0  0  0
  5 26  1  0  0  0  0
  6  7  1  0  0  0  0
  6  9  1  0  0  0  0
  7 10  1  0  0  0  0
  8 13  2  0  0  0  0
  8 14  1  0  0  0  0
  9 11  2  0  0  0  0
  9 18  1  0  0  0  0
 10 12  2  0  0  0  0
 10 19  1  0  0  0  0
 11 12  1  0  0  0  0
 12 20  1  0  0  0  0
 13 15  1  0  0  0  0
 13 21  1  0  0  0  0
 14 16  2  0  0  0  0
 14 22  1  0  0  0  0
 15 17  2  0  0  0  0
 15 23  1  0  0  0  0
 16 17  1  0  0  0  0
 16 24  1  0  0  0  0
M  END
> <PUBCHEM_COMPOUND_CID>
721114

> <PUBCHEM_CONFORMER_RMSD>
0.6

> <PUBCHEM_CONFORMER_DIVERSEORDER>
1

> <PUBCHEM_MMFF94_PARTIAL_CHARGES>
26
1 -0.18
10 -0.15
11 0.1
12 -0.15
13 -0.15
14 -0.15
15 -0.15
16 -0.15
17 0.18
18 0.15
19 0.15
2 0.86
20 0.15
21 0.15
22 0.15
23 0.15
24 0.15
25 0.4
26 0.4
3 -0.71
4 -0.71
5 -0.9
6 0.29
7 0.29
8 -0.02
9 -0.15

> <PUBCHEM_EFFECTIVE_ROTOR_COUNT>
1

> <PUBCHEM_PHARMACOPHORE_FEATURES>
7
1 3 acceptor
1 4 acceptor
1 5 cation
1 5 donor
5 2 3 4 6 7 rings
6 6 7 9 10 11 12 rings
6 8 13 14 15 16 17 rings

> <PUBCHEM_HEAVY_ATOM_COUNT>
17

> <PUBCHEM_ATOM_DEF_STEREO_COUNT>
0

> <PUBCHEM_ATOM_UDEF_STEREO_COUNT>
0

> <PUBCHEM_BOND_DEF_STEREO_COUNT>
0

> <PUBCHEM_BOND_UDEF_STEREO_COUNT>
0

> <PUBCHEM_ISOTOPIC_ATOM_COUNT>
0

> <PUBCHEM_COMPONENT_COUNT>
1

> <PUBCHEM_CACTVS_TAUTO_COUNT>
2

> <PUBCHEM_CONFORMER_ID>
000B00DA00000001

> <PUBCHEM_MMFF94_ENERGY>
60.0076

> <PUBCHEM_FEATURE_SELFOVERLAP>
35.7

> <PUBCHEM_SHAPE_FINGERPRINT>
10608611 8 18409726270450866021
10616163 171 18341332287832901863
11471102 20 18410574002806184484
12107183 9 17690844462699037627
12236239 1 17988925578572980523
13081056 2 18409446998734278037
13167823 11 18411417332092550447
13288520 33 18411139117001136391
13533116 47 13901640592868531580
13675066 3 18131345319724132592
13862211 1 18337106774895773730
14341114 176 18408328804125150601
15196674 1 18410575123338896583
15442244 35 18267304222954724912
15536298 74 18341612637754313008
17802600 8 18410571781939035157
17834072 33 18342174496706835583
18186145 218 17822002129574590234
18522853 276 18342739619813637737
19141452 34 18341612655113757847
200 152 18131911568360097729
20612939 158 18187372051514782284
20645477 70 18341614789269496294
21267235 1 18410864247700042059
21452121 103 18200019764166280720
221490 88 18263933296476835122
23402539 116 18202558476300630157
23402655 69 18412825797892379388
23557571 272 17603584084735110933
23559900 14 18339356469605622472
26918003 58 18409449202294944771
2871803 45 18260261945267639947
29717793 49 17988644081947535901
3004659 81 18333452019825039982
335352 9 18411136922267541199
3545911 37 18410293622719080173
42 15 18409450288573400405
4214541 1 18410855434754276229
42788 4 18410573985642016071
474 4 17604435235653009076
4990 188 18272941505265038734
5104073 3 18411419544010991969
5374978 207 18412821404135606497
542803 24 17060342928897237833
633830 44 17603583070985580896
69090 78 18412823603607326095
7495541 125 17346311665454750259
77779 3 18410294726420154189
9709674 26 18411143553650157767
9981440 41 17399234643260934656

> <PUBCHEM_SHAPE_MULTIPOLES>
331.8
11.7
1.56
0.6
3.93
0.15
0
-1.43
0.01
-0.59
0
0.05
0
0

> <PUBCHEM_SHAPE_SELFOVERLAP>
725.46

> <PUBCHEM_SHAPE_VOLUME>
182.1

> <PUBCHEM_COORDINATE_TYPE>
2
5
10

$$$$
