2561884
  -OEChem-01171811533D

 35 37  0     0  0  0  0  0  0999 V2000
   -5.7075    1.3454   -0.6043 S   0  0  0  0  0  0  0  0  0  0  0  0
   -1.5327   -0.6772   -0.3730 O   0  0  0  0  0  0  0  0  0  0  0  0
    1.9915   -2.5110    0.4585 O   0  0  0  0  0  0  0  0  0  0  0  0
    1.8169    2.8243   -0.9519 O   0  0  0  0  0  0  0  0  0  0  0  0
   -0.4066   -2.6455   -0.7685 O   0  0  0  0  0  0  0  0  0  0  0  0
   -4.3626   -0.1938    0.9781 N   0  0  0  0  0  0  0  0  0  0  0  0
    3.1387   -0.4042    0.2625 C   0  0  0  0  0  0  0  0  0  0  0  0
    3.0989    0.9637   -0.0980 C   0  0  0  0  0  0  0  0  0  0  0  0
    1.9812   -1.1864    0.1175 C   0  0  0  0  0  0  0  0  0  0  0  0
    0.8015   -0.6279   -0.3755 C   0  0  0  0  0  0  0  0  0  0  0  0
    1.9030    1.5092   -0.5930 C   0  0  0  0  0  0  0  0  0  0  0  0
    0.7625    0.7173   -0.7303 C   0  0  0  0  0  0  0  0  0  0  0  0
    4.3346   -0.9495    0.7571 C   0  0  0  0  0  0  0  0  0  0  0  0
    4.2561    1.7460    0.0467 C   0  0  0  0  0  0  0  0  0  0  0  0
   -0.4036   -1.4324   -0.5288 C   0  0  0  0  0  0  0  0  0  0  0  0
    5.4749   -0.1575    0.8946 C   0  0  0  0  0  0  0  0  0  0  0  0
    5.4357    1.1878    0.5401 C   0  0  0  0  0  0  0  0  0  0  0  0
   -2.7858   -1.3574   -0.5001 C   0  0  0  0  0  0  0  0  0  0  0  0
   -3.9002   -0.3728   -0.2991 C   0  0  0  0  0  0  0  0  0  0  0  0
   -4.4868    0.3569   -1.2927 C   0  0  0  0  0  0  0  0  0  0  0  0
   -5.3266    0.6989    0.9390 C   0  0  0  0  0  0  0  0  0  0  0  0
   -6.0830    1.1662    2.1211 C   0  0  0  0  0  0  0  0  0  0  0  0
   -0.1406    1.1727   -1.1300 H   0  0  0  0  0  0  0  0  0  0  0  0
    4.4282   -1.9960    1.0329 H   0  0  0  0  0  0  0  0  0  0  0  0
    4.2891    2.7962   -0.2291 H   0  0  0  0  0  0  0  0  0  0  0  0
    6.3952   -0.5921    1.2739 H   0  0  0  0  0  0  0  0  0  0  0  0
    6.3255    1.8023    0.6432 H   0  0  0  0  0  0  0  0  0  0  0  0
   -2.8498   -2.1486    0.2561 H   0  0  0  0  0  0  0  0  0  0  0  0
   -2.8575   -1.8108   -1.4959 H   0  0  0  0  0  0  0  0  0  0  0  0
   -4.2763    0.3684   -2.3527 H   0  0  0  0  0  0  0  0  0  0  0  0
    2.6012   -2.6596    1.1983 H   0  0  0  0  0  0  0  0  0  0  0  0
    2.4466    3.3560   -0.4410 H   0  0  0  0  0  0  0  0  0  0  0  0
   -7.1505    0.9467    2.0167 H   0  0  0  0  0  0  0  0  0  0  0  0
   -5.7271    0.6652    3.0273 H   0  0  0  0  0  0  0  0  0  0  0  0
   -5.9592    2.2442    2.2662 H   0  0  0  0  0  0  0  0  0  0  0  0
  1 20  1  0  0  0  0
  1 21  1  0  0  0  0
  2 15  1  0  0  0  0
  2 18  1  0  0  0  0
  3  9  1  0  0  0  0
  3 31  1  0  0  0  0
  4 11  1  0  0  0  0
  4 32  1  0  0  0  0
  5 15  2  0  0  0  0
  6 19  1  0  0  0  0
  6 21  2  0  0  0  0
  7  8  1  0  0  0  0
  7  9  1  0  0  0  0
  7 13  2  0  0  0  0
  8 11  1  0  0  0  0
  8 14  2  0  0  0  0
  9 10  2  0  0  0  0
 10 12  1  0  0  0  0
 10 15  1  0  0  0  0
 11 12  2  0  0  0  0
 12 23  1  0  0  0  0
 13 16  1  0  0  0  0
 13 24  1  0  0  0  0
 14 17  1  0  0  0  0
 14 25  1  0  0  0  0
 16 17  2  0  0  0  0
 16 26  1  0  0  0  0
 17 27  1  0  0  0  0
 18 19  1  0  0  0  0
 18 28  1  0  0  0  0
 18 29  1  0  0  0  0
 19 20  2  0  0  0  0
 20 30  1  0  0  0  0
 21 22  1  0  0  0  0
 22 33  1  0  0  0  0
 22 34  1  0  0  0  0
 22 35  1  0  0  0  0
M  END
> <PUBCHEM_COMPOUND_CID>
2561884

> <PUBCHEM_CONFORMER_RMSD>
0.6

> <PUBCHEM_CONFORMER_DIVERSEORDER>
2
136
36
112
29
142
10
81
94
22
68
110
153
23
135
19
113
17
89
134
76
33
109
3
8
141
82
1
16
74
85
128
111
75
11
92
34
7
133
20
79
100
83
138
12
86
9
73
18
72
80
25
15
70
125
145
121
4
21
93
63
122
84
99
65
14
59
60
126
90
137
13
91
143
151
127
66
103
69
144
114
30
64
6
47
78
40
5
51
104
48
77
39
52
129
61
146
117
71
123
62
35
106
105
154
32
124
31
155
118
67
115
119
131
147
132
152
58
116
57
130
24
26
44
45
88
56
102
37
43
87
38
55
101
54
46
53
120
148
98
97
27
41
42
96
28
95
108
150
149
107
49
50
139
140

> <PUBCHEM_MMFF94_PARTIAL_CHARGES>
28
1 -0.08
10 0.09
11 0.08
12 -0.15
13 -0.15
14 -0.15
15 0.63
16 -0.15
17 -0.15
18 0.46
19 0.05
2 -0.43
20 -0.11
21 0.2
22 0.18
23 0.15
24 0.15
25 0.15
26 0.15
27 0.15
3 -0.53
30 0.15
31 0.45
32 0.45
4 -0.53
5 -0.57
6 -0.57
9 0.08

> <PUBCHEM_EFFECTIVE_ROTOR_COUNT>
4

> <PUBCHEM_PHARMACOPHORE_FEATURES>
7
1 3 donor
1 4 donor
1 5 acceptor
1 6 acceptor
5 1 6 19 20 21 rings
6 7 8 13 14 16 17 rings
6 7 8 9 10 11 12 rings

> <PUBCHEM_HEAVY_ATOM_COUNT>
22

> <PUBCHEM_ATOM_DEF_STEREO_COUNT>
0

> <PUBCHEM_ATOM_UDEF_STEREO_COUNT>
0

> <PUBCHEM_BOND_DEF_STEREO_COUNT>
0

> <PUBCHEM_BOND_UDEF_STEREO_COUNT>
0

> <PUBCHEM_ISOTOPIC_ATOM_COUNT>
0

> <PUBCHEM_COMPONENT_COUNT>
1

> <PUBCHEM_CACTVS_TAUTO_COUNT>
16

> <PUBCHEM_CONFORMER_ID>
0027175C00000002

> <PUBCHEM_MMFF94_ENERGY>
60.0091

> <PUBCHEM_FEATURE_SELFOVERLAP>
35.548

> <PUBCHEM_SHAPE_FINGERPRINT>
10688039 33 17603580803180214965
10906281 52 18189619522586748428
11089746 13 17703498969751427200
11724838 91 18341333370923737343
12236239 1 18131064943884789150
12507557 5 18333731321453398789
12596602 18 17894631469875526089
12633257 1 18186237355356492579
13583140 156 17385995170753215215
13785724 45 17908703934769882258
14251764 30 14418126297101367040
14341114 176 18040719155793757793
14790565 3 17827363499176588300
15081414 286 18410014312680297588
15142383 8 17385994040681048556
15238133 3 18040159508886244564
15348495 7 17530688744504694425
15475509 8 18269856280323090908
15880784 105 13479140103121951469
1601671 61 18409725175560844108
18785283 64 17532100560284322156
19784866 9 18410290324226447058
20739085 24 18114181947741852772
21298829 104 18200593584793184817
21304253 335 18339922727200858964
21315759 148 15791730793261722393
21421861 104 17968639537928622586
22182313 1 18116701933628992302
22393880 68 12751228186981851189
22950370 63 11674874481277867455
23402539 116 17632571677787760021
23559900 14 17775014513711188550
2767999 5 18060414712151383417
2838139 119 17203886362178681265
312425 54 16081366307252126721
33382 64 14924211678672805512
335352 9 18409441497645998342
351380 3 11602824605712986409
4259306 186 9583519815470619987
474 4 18413108338612082839
5104073 3 18263354944871041098
6328613 192 18270399520529555184
633830 44 18060424573586478871
636775 72 17476918426052113456
7495541 125 13695585568424933966
7970288 3 11963394072264970809

> <PUBCHEM_SHAPE_MULTIPOLES>
428.14
14.7
2.27
1.22
11.72
0.23
0.4
-6.46
5.51
-1.19
-0.39
1.73
-0.33
-1.08

> <PUBCHEM_SHAPE_SELFOVERLAP>
929.793

> <PUBCHEM_SHAPE_VOLUME>
235.9

> <PUBCHEM_COORDINATE_TYPE>
2
5
10

$$$$
