6494532
  -OEChem-01171812073D

 55 58  0     1  0  0  0  0  0999 V2000
   -0.2999    0.5140   -0.8905 O   0  0  0  0  0  0  0  0  0  0  0  0
   -2.9186   -2.8695   -0.7741 O   0  0  0  0  0  0  0  0  0  0  0  0
    6.6119   -1.7122   -0.4188 O   0  0  0  0  0  0  0  0  0  0  0  0
    6.2359    1.5877    0.6634 O   0  0  0  0  0  0  0  0  0  0  0  0
   -7.7729    1.4160    0.2203 O   0  0  0  0  0  0  0  0  0  0  0  0
    1.7185   -0.4211   -0.2181 N   0  0  0  0  0  0  0  0  0  0  0  0
   -2.7060   -0.8948    0.5435 N   0  0  0  0  0  0  0  0  0  0  0  0
    4.6286   -0.5302   -0.2716 N   0  0  0  0  0  0  0  0  0  0  0  0
   -0.3877   -1.0288    0.9126 C   0  0  1  0  0  0  0  0  0  0  0  0
   -1.6554   -0.3336    1.3730 C   0  0  0  0  0  0  0  0  0  0  0  0
   -0.8683   -2.3613    0.3641 C   0  0  0  0  0  0  0  0  0  0  0  0
    0.3371   -0.2369   -0.1479 C   0  0  0  0  0  0  0  0  0  0  0  0
    2.4724   -1.3118    0.6719 C   0  0  0  0  0  0  0  0  0  0  0  0
    2.4925    0.3069   -1.2246 C   0  0  0  0  0  0  0  0  0  0  0  0
    3.8276   -1.7007    0.0923 C   0  0  0  0  0  0  0  0  0  0  0  0
    3.8863    0.6588   -0.7158 C   0  0  0  0  0  0  0  0  0  0  0  0
   -2.2944   -2.0939   -0.0637 C   0  0  0  0  0  0  0  0  0  0  0  0
   -4.0024   -0.3026    0.4595 C   0  0  0  0  0  0  0  0  0  0  0  0
    6.0337   -0.6345   -0.2636 C   0  0  0  0  0  0  0  0  0  0  0  0
   -5.0065   -0.9244   -0.2827 C   0  0  0  0  0  0  0  0  0  0  0  0
   -4.2653    0.8971    1.1208 C   0  0  0  0  0  0  0  0  0  0  0  0
    6.7986    0.5960   -0.0757 C   0  0  0  0  0  0  0  0  0  0  0  0
   -6.2734   -0.3465   -0.3637 C   0  0  0  0  0  0  0  0  0  0  0  0
   -5.5322    1.4750    1.0399 C   0  0  0  0  0  0  0  0  0  0  0  0
   -6.5362    0.8532    0.2975 C   0  0  0  0  0  0  0  0  0  0  0  0
    8.0439    0.9732   -0.5217 C   0  0  0  0  0  0  0  0  0  0  0  0
    8.2602    2.2805   -0.0247 C   0  0  0  0  0  0  0  0  0  0  0  0
    7.1318    2.6091    0.6897 C   0  0  0  0  0  0  0  0  0  0  0  0
   -8.5213    1.1783   -0.9709 C   0  0  0  0  0  0  0  0  0  0  0  0
   -9.4384    2.3567   -1.2205 C   0  0  0  0  0  0  0  0  0  0  0  0
    0.2585   -1.1541    1.7858 H   0  0  0  0  0  0  0  0  0  0  0  0
   -1.8835   -0.5850    2.4155 H   0  0  0  0  0  0  0  0  0  0  0  0
   -1.5810    0.7523    1.2647 H   0  0  0  0  0  0  0  0  0  0  0  0
   -0.2824   -2.7178   -0.4879 H   0  0  0  0  0  0  0  0  0  0  0  0
   -0.8860   -3.1273    1.1465 H   0  0  0  0  0  0  0  0  0  0  0  0
    2.6053   -0.7760    1.6193 H   0  0  0  0  0  0  0  0  0  0  0  0
    1.8996   -2.2217    0.8707 H   0  0  0  0  0  0  0  0  0  0  0  0
    2.5584   -0.3429   -2.1055 H   0  0  0  0  0  0  0  0  0  0  0  0
    1.9602    1.2154   -1.5254 H   0  0  0  0  0  0  0  0  0  0  0  0
    4.3880   -2.3180    0.8033 H   0  0  0  0  0  0  0  0  0  0  0  0
    3.6964   -2.2914   -0.8226 H   0  0  0  0  0  0  0  0  0  0  0  0
    3.7968    1.3243    0.1505 H   0  0  0  0  0  0  0  0  0  0  0  0
    4.4630    1.1767   -1.4892 H   0  0  0  0  0  0  0  0  0  0  0  0
   -4.8757   -1.8570   -0.8138 H   0  0  0  0  0  0  0  0  0  0  0  0
   -3.5239    1.4136    1.7209 H   0  0  0  0  0  0  0  0  0  0  0  0
   -7.0351   -0.8765   -0.9280 H   0  0  0  0  0  0  0  0  0  0  0  0
   -5.7327    2.4081    1.5593 H   0  0  0  0  0  0  0  0  0  0  0  0
    8.7151    0.3831   -1.1295 H   0  0  0  0  0  0  0  0  0  0  0  0
    9.1298    2.9053   -0.1691 H   0  0  0  0  0  0  0  0  0  0  0  0
    6.8270    3.4836    1.2458 H   0  0  0  0  0  0  0  0  0  0  0  0
   -9.1153    0.2662   -0.8468 H   0  0  0  0  0  0  0  0  0  0  0  0
   -7.8706    1.0769   -1.8486 H   0  0  0  0  0  0  0  0  0  0  0  0
  -10.0369    2.2031   -2.1229 H   0  0  0  0  0  0  0  0  0  0  0  0
   -8.8593    3.2793   -1.3330 H   0  0  0  0  0  0  0  0  0  0  0  0
  -10.1131    2.5066   -0.3711 H   0  0  0  0  0  0  0  0  0  0  0  0
  1 12  2  0  0  0  0
  2 17  2  0  0  0  0
  3 19  2  0  0  0  0
  4 22  1  0  0  0  0
  4 28  1  0  0  0  0
  5 25  1  0  0  0  0
  5 29  1  0  0  0  0
  6 12  1  0  0  0  0
  6 13  1  0  0  0  0
  6 14  1  0  0  0  0
  7 10  1  0  0  0  0
  7 17  1  0  0  0  0
  7 18  1  0  0  0  0
  8 15  1  0  0  0  0
  8 16  1  0  0  0  0
  8 19  1  0  0  0  0
  9 10  1  0  0  0  0
  9 11  1  0  0  0  0
  9 12  1  0  0  0  0
  9 31  1  0  0  0  0
 10 32  1  0  0  0  0
 10 33  1  0  0  0  0
 11 17  1  0  0  0  0
 11 34  1  0  0  0  0
 11 35  1  0  0  0  0
 13 15  1  0  0  0  0
 13 36  1  0  0  0  0
 13 37  1  0  0  0  0
 14 16  1  0  0  0  0
 14 38  1  0  0  0  0
 14 39  1  0  0  0  0
 15 40  1  0  0  0  0
 15 41  1  0  0  0  0
 16 42  1  0  0  0  0
 16 43  1  0  0  0  0
 18 20  2  0  0  0  0
 18 21  1  0  0  0  0
 19 22  1  0  0  0  0
 20 23  1  0  0  0  0
 20 44  1  0  0  0  0
 21 24  2  0  0  0  0
 21 45  1  0  0  0  0
 22 26  2  0  0  0  0
 23 25  2  0  0  0  0
 23 46  1  0  0  0  0
 24 25  1  0  0  0  0
 24 47  1  0  0  0  0
 26 27  1  0  0  0  0
 26 48  1  0  0  0  0
 27 28  2  0  0  0  0
 27 49  1  0  0  0  0
 28 50  1  0  0  0  0
 29 30  1  0  0  0  0
 29 51  1  0  0  0  0
 29 52  1  0  0  0  0
 30 53  1  0  0  0  0
 30 54  1  0  0  0  0
 30 55  1  0  0  0  0
M  END
> <PUBCHEM_COMPOUND_CID>
6494532

> <PUBCHEM_CONFORMER_RMSD>
1

> <PUBCHEM_CONFORMER_DIVERSEORDER>
1
11
80
43
70
58
74
67
26
53
31
77
2
62
15
5
45
54
38
41
48
55
16
59
78
56
30
29
65
68
14
51
13
47
21
10
46
66
72
4
9
71
73
63
52
36
40
7
32
60
20
82
76
19
17
24
61
35
18
39
12
27
57
49
28
64
33
42
6
79
37
22
75
44
50
34
81
8
25
23
69
3

> <PUBCHEM_MMFF94_PARTIAL_CHARGES>
36
1 -0.57
10 0.3
11 0.06
12 0.57
13 0.3
14 0.3
15 0.3
16 0.3
17 0.57
18 0.12
19 0.71
2 -0.57
20 -0.15
21 -0.15
22 0.05
23 -0.15
24 -0.15
25 0.08
26 -0.15
27 -0.15
28 -0.01
29 0.28
3 -0.57
4 -0.28
44 0.15
45 0.15
46 0.15
47 0.15
48 0.15
49 0.15
5 -0.36
50 0.15
6 -0.66
7 -0.48
8 -0.66
9 0.06

> <PUBCHEM_EFFECTIVE_ROTOR_COUNT>
9

> <PUBCHEM_PHARMACOPHORE_FEATURES>
9
1 1 acceptor
1 2 acceptor
1 3 acceptor
1 4 acceptor
1 5 acceptor
5 4 22 26 27 28 rings
5 7 9 10 11 17 rings
6 18 20 21 23 24 25 rings
6 6 8 13 14 15 16 rings

> <PUBCHEM_HEAVY_ATOM_COUNT>
30

> <PUBCHEM_ATOM_DEF_STEREO_COUNT>
0

> <PUBCHEM_ATOM_UDEF_STEREO_COUNT>
1

> <PUBCHEM_BOND_DEF_STEREO_COUNT>
0

> <PUBCHEM_BOND_UDEF_STEREO_COUNT>
0

> <PUBCHEM_ISOTOPIC_ATOM_COUNT>
0

> <PUBCHEM_COMPONENT_COUNT>
1

> <PUBCHEM_CACTVS_TAUTO_COUNT>
2

> <PUBCHEM_CONFORMER_ID>
0063194400000001

> <PUBCHEM_MMFF94_ENERGY>
83.4501

> <PUBCHEM_FEATURE_SELFOVERLAP>
45.676

> <PUBCHEM_SHAPE_FINGERPRINT>
10 15 17894348877969824176
10280341 67 17557978727267596216
10835480 77 18343587365101558234
11181472 205 17916314843859713232
11211813 74 18409164398645018812
11315181 36 18201723955849796001
11578821 258 18410012156518161349
11607047 141 17532080619568584962
11991303 11 15697993080909129876
12236239 1 18412266142611877938
12838862 33 18186790384199516421
13668630 136 11959728261705446593
13782708 43 7997977847523391760
14028597 1 15285346302464501712
14251764 18 18187085082773694250
14344974 52 18410289230117646869
14347424 109 18410008815834419082
14556957 393 15482128166393219376
15183329 4 18202284684297719259
15276724 80 18337105675067472748
15461852 350 17489306425549287967
15604295 49 18261387841608536005
1577012 14 18335133190152371195
15840311 113 18261396619898293710
1754911 235 18202565081317045540
20105231 36 8862949394304463216
2026 5 8790346417062001792
20505436 4 18260822692573732947
20511986 3 18411414025289674314
20771845 171 17060348392649559542
21130935 74 18187366541241112162
21150785 3 16559034891236875760
21298829 104 18408044026397639220
21344244 181 10015867583375958012
21792934 111 18409441467871215080
23559900 14 18059570351350258330
23576562 1 16987705969425442761
246663 6 10807934868776754821
24771293 8 18116994589218379724
25269216 80 17631999958545277919
3178227 256 14490193817098781708
3633792 109 18341052925889955731
4073 2 18262242239610555954
44880568 143 17417264117126581377
4516262 110 18260259721123758479
4760202 170 18413101775628352212
5028188 123 18267877250035436692
5104073 3 16444484579301028864
5385378 56 16877937218567680618
6009941 240 17749114412900328785
6328613 192 18342460356808225888
636775 8 12175619599213850125

> <PUBCHEM_SHAPE_MULTIPOLES>
573.1
28.73
2.54
1.07
3.64
0.04
0.05
-24.26
-4.83
-0.37
-0.07
0.87
-0.22
1.09

> <PUBCHEM_SHAPE_SELFOVERLAP>
1229.684

> <PUBCHEM_SHAPE_VOLUME>
315.7

> <PUBCHEM_COORDINATE_TYPE>
2
5
10

$$$$
