878545
  -OEChem-01171811463D

 31 32  0     0  0  0  0  0  0999 V2000
    0.0417   -1.5056    0.2214 O   0  0  0  0  0  0  0  0  0  0  0  0
    1.3671   -2.2665   -1.5512 O   0  0  0  0  0  0  0  0  0  0  0  0
   -4.1323    1.8976   -1.1099 O   0  0  0  0  0  0  0  0  0  0  0  0
    0.7324    1.9031   -0.2830 N   0  0  0  0  0  0  0  0  0  0  0  0
   -5.0205    0.3562    0.3231 N   0  0  0  0  0  0  0  0  0  0  0  0
   -2.3335   -1.3990    1.8456 N   0  0  0  0  0  0  0  0  0  0  0  0
    1.9418    0.0885    0.1875 C   0  0  0  0  0  0  0  0  0  0  0  0
    2.0149    1.4640   -0.0424 C   0  0  0  0  0  0  0  0  0  0  0  0
    0.5722   -0.2813    0.0765 C   0  0  0  0  0  0  0  0  0  0  0  0
   -0.1463    0.8557   -0.2132 C   0  0  0  0  0  0  0  0  0  0  0  0
    3.1301   -0.6172    0.4623 C   0  0  0  0  0  0  0  0  0  0  0  0
    3.2216    2.1720   -0.0112 C   0  0  0  0  0  0  0  0  0  0  0  0
   -1.5070    1.1232   -0.4337 C   0  0  0  0  0  0  0  0  0  0  0  0
    4.3445    0.0779    0.4969 C   0  0  0  0  0  0  0  0  0  0  0  0
    4.3872    1.4510    0.2634 C   0  0  0  0  0  0  0  0  0  0  0  0
   -2.6028    0.5067    0.1147 C   0  0  0  0  0  0  0  0  0  0  0  0
    0.5295   -2.4741   -0.6834 C   0  0  0  0  0  0  0  0  0  0  0  0
   -3.9671    0.9961   -0.2908 C   0  0  0  0  0  0  0  0  0  0  0  0
   -0.1222   -3.8032   -0.4411 C   0  0  0  0  0  0  0  0  0  0  0  0
   -2.4511   -0.5452    1.0683 C   0  0  0  0  0  0  0  0  0  0  0  0
    0.4861    2.8639   -0.4804 H   0  0  0  0  0  0  0  0  0  0  0  0
    3.1165   -1.6862    0.6541 H   0  0  0  0  0  0  0  0  0  0  0  0
    3.2559    3.2410   -0.1927 H   0  0  0  0  0  0  0  0  0  0  0  0
   -1.7001    1.9516   -1.1158 H   0  0  0  0  0  0  0  0  0  0  0  0
    5.2639   -0.4610    0.7101 H   0  0  0  0  0  0  0  0  0  0  0  0
    5.3413    1.9709    0.2955 H   0  0  0  0  0  0  0  0  0  0  0  0
    0.0861   -4.1344    0.5792 H   0  0  0  0  0  0  0  0  0  0  0  0
    0.2854   -4.5404   -1.1383 H   0  0  0  0  0  0  0  0  0  0  0  0
   -1.1990   -3.7203   -0.6069 H   0  0  0  0  0  0  0  0  0  0  0  0
   -4.9118   -0.3905    1.0011 H   0  0  0  0  0  0  0  0  0  0  0  0
   -5.9761    0.6220    0.1082 H   0  0  0  0  0  0  0  0  0  0  0  0
  1  9  1  0  0  0  0
  1 17  1  0  0  0  0
  2 17  2  0  0  0  0
  3 18  2  0  0  0  0
  4  8  1  0  0  0  0
  4 10  1  0  0  0  0
  4 21  1  0  0  0  0
  5 18  1  0  0  0  0
  5 30  1  0  0  0  0
  5 31  1  0  0  0  0
  6 20  3  0  0  0  0
  7  8  1  0  0  0  0
  7  9  1  0  0  0  0
  7 11  2  0  0  0  0
  8 12  2  0  0  0  0
  9 10  2  0  0  0  0
 10 13  1  0  0  0  0
 11 14  1  0  0  0  0
 11 22  1  0  0  0  0
 12 15  1  0  0  0  0
 12 23  1  0  0  0  0
 13 16  2  0  0  0  0
 13 24  1  0  0  0  0
 14 15  2  0  0  0  0
 14 25  1  0  0  0  0
 15 26  1  0  0  0  0
 16 18  1  0  0  0  0
 16 20  1  0  0  0  0
 17 19  1  0  0  0  0
 19 27  1  0  0  0  0
 19 28  1  0  0  0  0
 19 29  1  0  0  0  0
M  END
> <PUBCHEM_COMPOUND_CID>
878545

> <PUBCHEM_CONFORMER_RMSD>
0.6

> <PUBCHEM_CONFORMER_DIVERSEORDER>
1
29
28
12
105
10
94
113
82
98
101
71
125
106
26
17
79
43
112
87
39
55
48
15
46
30
54
68
22
52
31
13
50
27
7
116
104
9
4
96
70
34
44
60
119
6
16
126
66
103
51
37
23
78
65
92
61
33
5
69
67
109
123
100
99
93
32
24
21
120
114
14
47
76
102
58
118
11
45
127
108
35
88
128
19
49
53
124
77
95
25
86
72
38
117
36
8
18
129
90
115
3
85
81
42
40
62
121
84
111
89
2
91
97
20
64
83
107
41
122
75
80
63
110
57
74
73
59
56

> <PUBCHEM_MMFF94_PARTIAL_CHARGES>
27
1 -0.21
10 -0.2
11 -0.15
12 -0.15
13 -0.11
14 -0.15
15 -0.15
16 0.08
17 0.66
18 0.62
19 0.06
2 -0.57
20 0.49
21 0.27
22 0.15
23 0.15
24 0.15
25 0.15
26 0.15
3 -0.57
30 0.37
31 0.37
4 0.03
5 -0.8
6 -0.56
8 -0.15
9 0.06

> <PUBCHEM_EFFECTIVE_ROTOR_COUNT>
4

> <PUBCHEM_PHARMACOPHORE_FEATURES>
8
1 2 acceptor
1 3 acceptor
1 4 cation
1 4 donor
1 5 donor
1 6 acceptor
5 4 7 8 9 10 rings
6 7 8 11 12 14 15 rings

> <PUBCHEM_HEAVY_ATOM_COUNT>
20

> <PUBCHEM_ATOM_DEF_STEREO_COUNT>
0

> <PUBCHEM_ATOM_UDEF_STEREO_COUNT>
0

> <PUBCHEM_BOND_DEF_STEREO_COUNT>
1

> <PUBCHEM_BOND_UDEF_STEREO_COUNT>
0

> <PUBCHEM_ISOTOPIC_ATOM_COUNT>
0

> <PUBCHEM_COMPONENT_COUNT>
1

> <PUBCHEM_CACTVS_TAUTO_COUNT>
2

> <PUBCHEM_CONFORMER_ID>
000D67D100000001

> <PUBCHEM_MMFF94_ENERGY>
48.2401

> <PUBCHEM_FEATURE_SELFOVERLAP>
40.688

> <PUBCHEM_SHAPE_FINGERPRINT>
10411042 1 17403173699465093343
10871710 139 16965777511194715452
10906281 52 18262252023029104141
12077114 3 18335422425538464571
12119455 92 18410849971297250608
12553582 1 17404596471890395999
12592029 89 18342455915595977979
13380535 76 18334574625175429553
13583140 156 17168964812144886144
15309172 13 18341899618641623024
15375358 24 18334575703138478145
16945 1 18130799944550150060
17138139 8 17271123770798339367
1813 80 12829485900933875874
20261772 1 18051144871204033258
204376 136 18342458166105859693
20600515 1 16877951512002498629
20645477 70 18339358574123552308
21033648 29 18271512191372910232
21054139 6 18129642206546725615
22182313 1 18266480791688053383
23402539 116 18201991162338903524
23557571 272 16733544893437175637
23558518 356 17686609552411220192
23559900 14 18192425264741961458
2748010 2 18336563667063129198
3060560 45 18341890745476618590
33824 294 18339922619457307263
34934 24 18262511606989679696
42630746 31 18272652307715596687
465052 167 18186803552204852890
474229 33 18339076094562435151
495365 180 18270381833236863609
5104073 3 18187925131522880520
59554788 248 18198921372680917215
633830 44 17631192860152606112
69090 78 18338791316602828088
7364860 26 18198060274703228679
81228 2 17691664002678417610
81539 233 18339638949615087086
8272917 22 18200315403401580389
9709674 26 18336550417590135371

> <PUBCHEM_SHAPE_MULTIPOLES>
379.04
7.89
3.07
1.03
2.59
3.1
0.13
-4.94
0.93
-0.29
-0.97
0.53
0.41
0.89

> <PUBCHEM_SHAPE_SELFOVERLAP>
822.319

> <PUBCHEM_SHAPE_VOLUME>
202.9

> <PUBCHEM_COORDINATE_TYPE>
2
5
10

$$$$
