2929846
  -OEChem-01171811433D

 54 58  0     0  0  0  0  0  0999 V2000
    6.3539    0.3145   -0.9511 Cl  0  0  0  0  0  0  0  0  0  0  0  0
    6.0387   -2.9047   -0.8799 Cl  0  0  0  0  0  0  0  0  0  0  0  0
   -2.3340   -2.5344    0.4902 O   0  0  0  0  0  0  0  0  0  0  0  0
   -0.0889   -1.3453   -1.1861 O   0  0  0  0  0  0  0  0  0  0  0  0
    1.0307    0.9716    1.2275 N   0  0  0  0  0  0  0  0  0  0  0  0
   -4.2916   -0.8835    2.7352 N   0  0  0  0  0  0  0  0  0  0  0  0
   -2.7425   -1.4824   -3.3162 N   0  0  0  0  0  0  0  0  0  0  0  0
   -3.7917   -2.0511    2.2641 N   0  0  0  0  0  0  0  0  0  0  0  0
   -1.4759   -1.8524   -3.0092 N   0  0  0  0  0  0  0  0  0  0  0  0
   -2.3108    0.4274   -0.1410 C   0  0  0  0  0  0  0  0  0  0  0  0
   -0.9603    0.8795    0.2506 C   0  0  0  0  0  0  0  0  0  0  0  0
   -0.2919    2.0479   -0.2110 C   0  0  0  0  0  0  0  0  0  0  0  0
   -3.0420   -0.2797    0.9783 C   0  0  0  0  0  0  0  0  0  0  0  0
   -2.3077   -0.4198   -1.3942 C   0  0  0  0  0  0  0  0  0  0  0  0
    0.9550    2.0820    0.4171 C   0  0  0  0  0  0  0  0  0  0  0  0
   -0.1218    0.2388    1.1336 C   0  0  0  0  0  0  0  0  0  0  0  0
   -3.8648    0.1538    1.9498 C   0  0  0  0  0  0  0  0  0  0  0  0
   -3.2135   -0.6128   -2.3693 C   0  0  0  0  0  0  0  0  0  0  0  0
    2.1582    0.6154    2.0623 C   0  0  0  0  0  0  0  0  0  0  0  0
   -2.9808   -1.7628    1.1780 C   0  0  0  0  0  0  0  0  0  0  0  0
   -1.1324   -1.2500   -1.8096 C   0  0  0  0  0  0  0  0  0  0  0  0
   -0.6291    3.0830   -1.1057 C   0  0  0  0  0  0  0  0  0  0  0  0
    1.8851    3.1036    0.1945 C   0  0  0  0  0  0  0  0  0  0  0  0
    3.1383   -0.2525    1.3203 C   0  0  0  0  0  0  0  0  0  0  0  0
    0.2915    4.1113   -1.3382 C   0  0  0  0  0  0  0  0  0  0  0  0
   -4.3370    1.5383    2.2164 C   0  0  0  0  0  0  0  0  0  0  0  0
   -4.5609   -0.0017   -2.5182 C   0  0  0  0  0  0  0  0  0  0  0  0
    1.5286    4.1194   -0.6970 C   0  0  0  0  0  0  0  0  0  0  0  0
    4.1730    0.3383    0.6079 C   0  0  0  0  0  0  0  0  0  0  0  0
    2.9944   -1.6328    1.3582 C   0  0  0  0  0  0  0  0  0  0  0  0
    5.0813   -0.4666   -0.0796 C   0  0  0  0  0  0  0  0  0  0  0  0
    3.9026   -2.4377    0.6707 C   0  0  0  0  0  0  0  0  0  0  0  0
    4.9461   -1.8545   -0.0482 C   0  0  0  0  0  0  0  0  0  0  0  0
   -2.8985    1.3253   -0.3777 H   0  0  0  0  0  0  0  0  0  0  0  0
   -0.2407   -0.6736    1.7028 H   0  0  0  0  0  0  0  0  0  0  0  0
    1.7726    0.0968    2.9491 H   0  0  0  0  0  0  0  0  0  0  0  0
    2.6324    1.5312    2.4328 H   0  0  0  0  0  0  0  0  0  0  0  0
   -1.5884    3.0922   -1.6151 H   0  0  0  0  0  0  0  0  0  0  0  0
    2.8421    3.1383    0.7009 H   0  0  0  0  0  0  0  0  0  0  0  0
   -5.1017   -0.8376    3.3364 H   0  0  0  0  0  0  0  0  0  0  0  0
   -3.1259   -1.5622   -4.2471 H   0  0  0  0  0  0  0  0  0  0  0  0
   -4.0040   -2.9347    2.7076 H   0  0  0  0  0  0  0  0  0  0  0  0
   -0.9526   -2.4864   -3.5980 H   0  0  0  0  0  0  0  0  0  0  0  0
    0.0365    4.9127   -2.0266 H   0  0  0  0  0  0  0  0  0  0  0  0
   -5.4258    1.5961    2.1179 H   0  0  0  0  0  0  0  0  0  0  0  0
   -3.8985    2.2633    1.5245 H   0  0  0  0  0  0  0  0  0  0  0  0
   -4.0660    1.8437    3.2323 H   0  0  0  0  0  0  0  0  0  0  0  0
   -5.3301   -0.7800   -2.5531 H   0  0  0  0  0  0  0  0  0  0  0  0
   -4.6165    0.5802   -3.4438 H   0  0  0  0  0  0  0  0  0  0  0  0
   -4.8024    0.6674   -1.6869 H   0  0  0  0  0  0  0  0  0  0  0  0
    2.2263    4.9307   -0.8885 H   0  0  0  0  0  0  0  0  0  0  0  0
    4.2921    1.4168    0.5968 H   0  0  0  0  0  0  0  0  0  0  0  0
    2.1852   -2.0976    1.9144 H   0  0  0  0  0  0  0  0  0  0  0  0
    3.7818   -3.5176    0.7055 H   0  0  0  0  0  0  0  0  0  0  0  0
  1 31  1  0  0  0  0
  2 33  1  0  0  0  0
  3 20  2  0  0  0  0
  4 21  2  0  0  0  0
  5 15  1  0  0  0  0
  5 16  1  0  0  0  0
  5 19  1  0  0  0  0
  6  8  1  0  0  0  0
  6 17  1  0  0  0  0
  6 40  1  0  0  0  0
  7  9  1  0  0  0  0
  7 18  1  0  0  0  0
  7 41  1  0  0  0  0
  8 20  1  0  0  0  0
  8 42  1  0  0  0  0
  9 21  1  0  0  0  0
  9 43  1  0  0  0  0
 10 11  1  0  0  0  0
 10 13  1  0  0  0  0
 10 14  1  0  0  0  0
 10 34  1  0  0  0  0
 11 12  1  0  0  0  0
 11 16  2  0  0  0  0
 12 15  1  0  0  0  0
 12 22  2  0  0  0  0
 13 17  2  0  0  0  0
 13 20  1  0  0  0  0
 14 18  2  0  0  0  0
 14 21  1  0  0  0  0
 15 23  2  0  0  0  0
 16 35  1  0  0  0  0
 17 26  1  0  0  0  0
 18 27  1  0  0  0  0
 19 24  1  0  0  0  0
 19 36  1  0  0  0  0
 19 37  1  0  0  0  0
 22 25  1  0  0  0  0
 22 38  1  0  0  0  0
 23 28  1  0  0  0  0
 23 39  1  0  0  0  0
 24 29  2  0  0  0  0
 24 30  1  0  0  0  0
 25 28  2  0  0  0  0
 25 44  1  0  0  0  0
 26 45  1  0  0  0  0
 26 46  1  0  0  0  0
 26 47  1  0  0  0  0
 27 48  1  0  0  0  0
 27 49  1  0  0  0  0
 27 50  1  0  0  0  0
 28 51  1  0  0  0  0
 29 31  1  0  0  0  0
 29 52  1  0  0  0  0
 30 32  2  0  0  0  0
 30 53  1  0  0  0  0
 31 33  2  0  0  0  0
 32 33  1  0  0  0  0
 32 54  1  0  0  0  0
M  END
> <PUBCHEM_COMPOUND_CID>
2929846

> <PUBCHEM_CONFORMER_RMSD>
1

> <PUBCHEM_CONFORMER_DIVERSEORDER>
6
364
154
290
632
312
587
446
551
447
88
439
243
497
518
579
260
231
560
261
316
483
83
583
503
297
428
531
302
568
223
112
535
29
170
42
62
128
499
548
129
618
230
496
475
131
449
158
100
495
39
348
301
467
395
491
376
626
204
593
185
66
233
34
180
115
272
202
371
372
533
208
340
589
23
78
126
211
93
147
422
2
269
299
255
106
425
217
344
210
148
356
166
420
249
138
207
506
284
435
168
457
472
237
76
504
67
492
514
556
547
193
595
111
287
386
413
403
225
132
280
107
232
27
262
375
402
442
620
16
77
382
44
460
321
600
122
40
263
286
294
187
173
332
74
157
194
304
247
363
602
454
101
104
133
89
591
378
43
488
113
55
298
192
105
96
1
409
220
419
586
481
30
164
291
390
421
524
189
590
135
161
81
279
635
337
149
479
578
71
567
20
169
174
130
552
37
306
392
240
136
281
347
186
462
150
203
120
151
474
15
196
387
153
484
424
331
468
50
205
21
391
117
72
17
273
216
417
32
288
97
99
9
35
69
184
33
14
7
4
47
11
8
12
3
5
13
10
18

> <PUBCHEM_MMFF94_PARTIAL_CHARGES>
44
1 -0.18
10 0.46
11 -0.18
13 -0.12
14 -0.12
15 -0.15
16 -0.3
17 -0.04
18 -0.04
19 0.4
2 -0.18
20 0.62
21 0.62
22 -0.15
23 -0.15
24 -0.14
25 -0.15
26 0.14
27 0.14
28 -0.15
29 -0.15
3 -0.57
30 -0.15
31 0.18
32 -0.15
33 0.18
35 0.15
38 0.15
39 0.15
4 -0.57
40 0.4
41 0.4
42 0.37
43 0.37
44 0.15
5 0.05
51 0.15
52 0.15
53 0.15
54 0.15
6 -0.52
7 -0.52
8 -0.41
9 -0.41

> <PUBCHEM_EFFECTIVE_ROTOR_COUNT>
5

> <PUBCHEM_PHARMACOPHORE_FEATURES>
12
1 3 acceptor
1 4 acceptor
1 5 cation
1 6 donor
1 7 donor
1 8 donor
1 9 donor
5 5 11 12 15 16 rings
5 6 8 13 17 20 rings
5 7 9 14 18 21 rings
6 12 15 22 23 25 28 rings
6 24 29 30 31 32 33 rings

> <PUBCHEM_HEAVY_ATOM_COUNT>
33

> <PUBCHEM_ATOM_DEF_STEREO_COUNT>
0

> <PUBCHEM_ATOM_UDEF_STEREO_COUNT>
0

> <PUBCHEM_BOND_DEF_STEREO_COUNT>
0

> <PUBCHEM_BOND_UDEF_STEREO_COUNT>
0

> <PUBCHEM_ISOTOPIC_ATOM_COUNT>
0

> <PUBCHEM_COMPONENT_COUNT>
1

> <PUBCHEM_CACTVS_TAUTO_COUNT>
15

> <PUBCHEM_CONFORMER_ID>
002CB4B600000006

> <PUBCHEM_MMFF94_ENERGY>
89.7344

> <PUBCHEM_FEATURE_SELFOVERLAP>
64.226

> <PUBCHEM_SHAPE_FINGERPRINT>
10369192 42 17027134559640593724
10764073 3 17480041699907668849
107951 10 17541940884178000325
10928967 22 18130497540699713222
11135926 11 18264774432227331804
11227688 84 18334570218234068402
11578080 2 17095237068677038373
11582403 64 14332275235430620793
11763715 3 17416395696366400553
12156800 1 17393079177825785109
12160290 23 17832679324016067416
12422481 6 18058182634679613818
12553582 1 18334849516009538824
12623949 98 17318472142672117691
12788726 201 17900797393423548128
13009979 54 17773023366440122655
13383661 66 16319220754149098518
133893 2 18197772417410391285
14068700 675 16270773767772865455
14840074 17 18272094876874246190
14932701 244 11963686512187159771
14955137 171 18271261472777805560
15064986 96 17844271586744755923
15444296 8 18334863783727489541
15537594 2 18202287992155961086
16991981 162 15792565241198948750
17818456 19 17489295438954327213
1813 80 18412537717683306796
20197701 30 10447641341042002288
22182313 1 17605540261718203673
22440779 20 16588605140476404841
26353 1 18116689925111994300
5081480 168 18336834190221739124
513202 73 18196093231511827934
613672 6 18261658325757725584
6287921 2 18121222244836850984
6669772 16 17759254273000689644

> <PUBCHEM_SHAPE_MULTIPOLES>
646.22
11.11
4
2.86
12.59
3.98
-1.07
-7.68
0.34
1.93
-1.1
-4.51
-1.34
0.05

> <PUBCHEM_SHAPE_SELFOVERLAP>
1424.13

> <PUBCHEM_SHAPE_VOLUME>
351.7

> <PUBCHEM_COORDINATE_TYPE>
2
5
10

$$$$
