746367
  -OEChem-01171811573D

 34 36  0     0  0  0  0  0  0999 V2000
   -1.7860    2.1153    0.4733 S   0  0  0  0  0  0  0  0  0  0  0  0
   -2.7957   -3.4029   -1.2710 F   0  0  0  0  0  0  0  0  0  0  0  0
   -2.7471    2.4072    1.5204 O   0  0  0  0  0  0  0  0  0  0  0  0
   -1.7342    2.9516   -0.7105 O   0  0  0  0  0  0  0  0  0  0  0  0
    3.8776   -0.1164   -1.9827 O   0  0  0  0  0  0  0  0  0  0  0  0
   -0.2213    1.9866    1.1758 N   0  0  0  0  0  0  0  0  0  0  0  0
    1.4169    0.1741    0.7568 C   0  0  0  0  0  0  0  0  0  0  0  0
    0.8335    1.4011    0.4015 C   0  0  0  0  0  0  0  0  0  0  0  0
    2.4554   -0.3563   -0.0450 C   0  0  0  0  0  0  0  0  0  0  0  0
   -2.0896    0.4528   -0.0525 C   0  0  0  0  0  0  0  0  0  0  0  0
    1.2674    2.0951   -0.7283 C   0  0  0  0  0  0  0  0  0  0  0  0
    2.8796    0.3560   -1.1787 C   0  0  0  0  0  0  0  0  0  0  0  0
    0.9927   -0.5382    1.8905 C   0  0  0  0  0  0  0  0  0  0  0  0
    2.2884    1.5734   -1.5172 C   0  0  0  0  0  0  0  0  0  0  0  0
    3.0393   -1.5831    0.3104 C   0  0  0  0  0  0  0  0  0  0  0  0
    1.5839   -1.7560    2.2284 C   0  0  0  0  0  0  0  0  0  0  0  0
    2.6052   -2.2774    1.4399 C   0  0  0  0  0  0  0  0  0  0  0  0
   -2.7064   -0.4264    0.8188 C   0  0  0  0  0  0  0  0  0  0  0  0
   -1.7045    0.0675   -1.3236 C   0  0  0  0  0  0  0  0  0  0  0  0
   -2.9460   -1.7366    0.4047 C   0  0  0  0  0  0  0  0  0  0  0  0
   -1.9443   -1.2428   -1.7376 C   0  0  0  0  0  0  0  0  0  0  0  0
   -2.5650   -2.1447   -0.8735 C   0  0  0  0  0  0  0  0  0  0  0  0
   -0.1757    1.8448    2.1918 H   0  0  0  0  0  0  0  0  0  0  0  0
    0.8396    3.0559   -0.9999 H   0  0  0  0  0  0  0  0  0  0  0  0
    0.1954   -0.1780    2.5348 H   0  0  0  0  0  0  0  0  0  0  0  0
    2.6239    2.1222   -2.3930 H   0  0  0  0  0  0  0  0  0  0  0  0
    3.8500   -2.0301   -0.2578 H   0  0  0  0  0  0  0  0  0  0  0  0
    1.2458   -2.2980    3.1070 H   0  0  0  0  0  0  0  0  0  0  0  0
    3.0668   -3.2240    1.7059 H   0  0  0  0  0  0  0  0  0  0  0  0
   -3.0021   -0.1308    1.8205 H   0  0  0  0  0  0  0  0  0  0  0  0
   -1.2229    0.7537   -2.0127 H   0  0  0  0  0  0  0  0  0  0  0  0
   -3.4272   -2.4399    1.0778 H   0  0  0  0  0  0  0  0  0  0  0  0
   -1.6479   -1.5610   -2.7327 H   0  0  0  0  0  0  0  0  0  0  0  0
    3.9104   -1.0848   -1.9476 H   0  0  0  0  0  0  0  0  0  0  0  0
  1  3  2  0  0  0  0
  1  4  2  0  0  0  0
  1  6  1  0  0  0  0
  1 10  1  0  0  0  0
  2 22  1  0  0  0  0
  5 12  1  0  0  0  0
  5 34  1  0  0  0  0
  6  8  1  0  0  0  0
  6 23  1  0  0  0  0
  7  8  1  0  0  0  0
  7  9  1  0  0  0  0
  7 13  2  0  0  0  0
  8 11  2  0  0  0  0
  9 12  1  0  0  0  0
  9 15  2  0  0  0  0
 10 18  2  0  0  0  0
 10 19  1  0  0  0  0
 11 14  1  0  0  0  0
 11 24  1  0  0  0  0
 12 14  2  0  0  0  0
 13 16  1  0  0  0  0
 13 25  1  0  0  0  0
 14 26  1  0  0  0  0
 15 17  1  0  0  0  0
 15 27  1  0  0  0  0
 16 17  2  0  0  0  0
 16 28  1  0  0  0  0
 17 29  1  0  0  0  0
 18 20  1  0  0  0  0
 18 30  1  0  0  0  0
 19 21  2  0  0  0  0
 19 31  1  0  0  0  0
 20 22  2  0  0  0  0
 20 32  1  0  0  0  0
 21 22  1  0  0  0  0
 21 33  1  0  0  0  0
M  END
> <PUBCHEM_COMPOUND_CID>
746367

> <PUBCHEM_CONFORMER_RMSD>
0.6

> <PUBCHEM_CONFORMER_DIVERSEORDER>
1
18
4
5
16
6
15
7
3
19
2
11
13
17
8
9
14
12
10

> <PUBCHEM_MMFF94_PARTIAL_CHARGES>
32
1 1.45
10 -0.01
11 -0.15
12 0.08
13 -0.15
14 -0.15
15 -0.15
16 -0.15
17 -0.15
18 -0.15
19 -0.15
2 -0.19
20 -0.15
21 -0.15
22 0.19
23 0.42
24 0.15
25 0.15
26 0.15
27 0.15
28 0.15
29 0.15
3 -0.65
30 0.15
31 0.15
32 0.15
33 0.15
34 0.45
4 -0.65
5 -0.53
6 -0.76
8 0.2

> <PUBCHEM_EFFECTIVE_ROTOR_COUNT>
3

> <PUBCHEM_PHARMACOPHORE_FEATURES>
7
1 3 acceptor
1 4 acceptor
1 5 donor
1 6 donor
6 10 18 19 20 21 22 rings
6 7 8 9 11 12 14 rings
6 7 9 13 15 16 17 rings

> <PUBCHEM_HEAVY_ATOM_COUNT>
22

> <PUBCHEM_ATOM_DEF_STEREO_COUNT>
0

> <PUBCHEM_ATOM_UDEF_STEREO_COUNT>
0

> <PUBCHEM_BOND_DEF_STEREO_COUNT>
0

> <PUBCHEM_BOND_UDEF_STEREO_COUNT>
0

> <PUBCHEM_ISOTOPIC_ATOM_COUNT>
0

> <PUBCHEM_COMPONENT_COUNT>
1

> <PUBCHEM_CACTVS_TAUTO_COUNT>
3

> <PUBCHEM_CONFORMER_ID>
000B637F00000001

> <PUBCHEM_MMFF94_ENERGY>
58.0957

> <PUBCHEM_FEATURE_SELFOVERLAP>
35.565

> <PUBCHEM_SHAPE_FINGERPRINT>
11578080 2 18046875278765325804
121448 382 18115313409536456336
12403259 327 17055803998700404354
12553582 1 18341330106131628263
12596599 1 18057613263771794739
12633257 1 13541363746670873847
14787075 74 18052817241712820432
15664445 248 17756973877093774509
16752209 62 18270953545450842309
16945 1 18188494687035288136
17492 54 15001083221742200399
18981168 100 11386922199863429577
20645476 183 18191596254692301157
21634736 98 18336278932554595492
21731516 1 18342169020454831895
22112679 90 18264204721404133448
232386 152 18198889336820179576
23419403 2 15525354323303741473
23559900 14 17631178477319527318
23598291 2 18043540412431101568
23728640 28 18053649296836083027
238 59 16951114213752119494
465052 167 18044395837574696417
5845 1 17057780057556153869
90525 40 17903075530008451529

> <PUBCHEM_SHAPE_MULTIPOLES>
426.74
5.62
3.3
2
0.6
0.07
0.03
2.12
1.39
-1.58
-0.11
0.43
0.43
-2.36

> <PUBCHEM_SHAPE_SELFOVERLAP>
930.328

> <PUBCHEM_SHAPE_VOLUME>
235.8

> <PUBCHEM_COORDINATE_TYPE>
2
5
10

$$$$
