239930
  -OEChem-01171812143D

 46 47  0     0  0  0  0  0  0999 V2000
    2.4251   -3.1533    0.4585 O   0  0  0  0  0  0  0  0  0  0  0  0
   -4.1969   -0.4990    0.2192 N   0  0  0  0  0  0  0  0  0  0  0  0
   -0.9925   -0.2325   -1.2202 N   0  0  0  0  0  0  0  0  0  0  0  0
    0.6656    1.9481   -0.7430 N   0  0  0  0  0  0  0  0  0  0  0  0
   -3.2007   -0.8296   -2.0247 C   0  0  0  0  0  0  0  0  0  0  0  0
   -3.9182    0.1255   -1.0683 C   0  0  0  0  0  0  0  0  0  0  0  0
   -1.8643   -1.3320   -1.4755 C   0  0  0  0  0  0  0  0  0  0  0  0
   -4.8700    0.4324    1.1135 C   0  0  0  0  0  0  0  0  0  0  0  0
    0.3044   -0.3961   -0.6714 C   0  0  0  0  0  0  0  0  0  0  0  0
    1.1130    0.7140   -0.4433 C   0  0  0  0  0  0  0  0  0  0  0  0
    2.3952    0.4995    0.1042 C   0  0  0  0  0  0  0  0  0  0  0  0
   -3.9996    1.6638    1.3477 C   0  0  0  0  0  0  0  0  0  0  0  0
   -5.1918   -0.2695    2.4291 C   0  0  0  0  0  0  0  0  0  0  0  0
    0.7362   -1.6907   -0.3724 C   0  0  0  0  0  0  0  0  0  0  0  0
    3.2096    1.6167    0.3342 C   0  0  0  0  0  0  0  0  0  0  0  0
    2.8298   -0.8024    0.4051 C   0  0  0  0  0  0  0  0  0  0  0  0
    2.0004   -1.8945    0.1666 C   0  0  0  0  0  0  0  0  0  0  0  0
    2.7515    2.8896    0.0264 C   0  0  0  0  0  0  0  0  0  0  0  0
    4.5850    1.4964    0.9113 C   0  0  0  0  0  0  0  0  0  0  0  0
    1.4828    2.9997   -0.5057 C   0  0  0  0  0  0  0  0  0  0  0  0
    3.7352   -3.2863    1.0087 C   0  0  0  0  0  0  0  0  0  0  0  0
   -3.0358   -0.3132   -2.9790 H   0  0  0  0  0  0  0  0  0  0  0  0
   -3.8451   -1.6912   -2.2397 H   0  0  0  0  0  0  0  0  0  0  0  0
   -4.8591    0.4343   -1.5412 H   0  0  0  0  0  0  0  0  0  0  0  0
   -3.3007    1.0221   -0.9730 H   0  0  0  0  0  0  0  0  0  0  0  0
   -1.4249   -2.0031   -2.2235 H   0  0  0  0  0  0  0  0  0  0  0  0
   -2.0466   -1.9157   -0.5655 H   0  0  0  0  0  0  0  0  0  0  0  0
   -5.8226    0.7520    0.6717 H   0  0  0  0  0  0  0  0  0  0  0  0
   -4.7727   -1.3290    0.0811 H   0  0  0  0  0  0  0  0  0  0  0  0
   -1.2369    0.7015   -1.5301 H   0  0  0  0  0  0  0  0  0  0  0  0
   -3.9883    2.3397    0.4869 H   0  0  0  0  0  0  0  0  0  0  0  0
   -2.9670    1.3928    1.5967 H   0  0  0  0  0  0  0  0  0  0  0  0
   -4.3904    2.2509    2.1872 H   0  0  0  0  0  0  0  0  0  0  0  0
   -4.2812   -0.6080    2.9365 H   0  0  0  0  0  0  0  0  0  0  0  0
   -5.7237    0.4051    3.1088 H   0  0  0  0  0  0  0  0  0  0  0  0
   -5.8321   -1.1433    2.2640 H   0  0  0  0  0  0  0  0  0  0  0  0
    0.1192   -2.5670   -0.5474 H   0  0  0  0  0  0  0  0  0  0  0  0
    3.8212   -0.9267    0.8245 H   0  0  0  0  0  0  0  0  0  0  0  0
    3.3531    3.7768    0.1905 H   0  0  0  0  0  0  0  0  0  0  0  0
    5.2261    0.8935    0.2595 H   0  0  0  0  0  0  0  0  0  0  0  0
    5.0695    2.4735    1.0189 H   0  0  0  0  0  0  0  0  0  0  0  0
    4.5473    1.0485    1.9100 H   0  0  0  0  0  0  0  0  0  0  0  0
    1.0710    3.9693   -0.7659 H   0  0  0  0  0  0  0  0  0  0  0  0
    3.9063   -4.3544    1.1785 H   0  0  0  0  0  0  0  0  0  0  0  0
    3.8153   -2.7926    1.9831 H   0  0  0  0  0  0  0  0  0  0  0  0
    4.5040   -2.9489    0.3052 H   0  0  0  0  0  0  0  0  0  0  0  0
  1 17  1  0  0  0  0
  1 21  1  0  0  0  0
  2  6  1  0  0  0  0
  2  8  1  0  0  0  0
  2 29  1  0  0  0  0
  3  7  1  0  0  0  0
  3  9  1  0  0  0  0
  3 30  1  0  0  0  0
  4 10  2  0  0  0  0
  4 20  1  0  0  0  0
  5  6  1  0  0  0  0
  5  7  1  0  0  0  0
  5 22  1  0  0  0  0
  5 23  1  0  0  0  0
  6 24  1  0  0  0  0
  6 25  1  0  0  0  0
  7 26  1  0  0  0  0
  7 27  1  0  0  0  0
  8 12  1  0  0  0  0
  8 13  1  0  0  0  0
  8 28  1  0  0  0  0
  9 10  1  0  0  0  0
  9 14  2  0  0  0  0
 10 11  1  0  0  0  0
 11 15  2  0  0  0  0
 11 16  1  0  0  0  0
 12 31  1  0  0  0  0
 12 32  1  0  0  0  0
 12 33  1  0  0  0  0
 13 34  1  0  0  0  0
 13 35  1  0  0  0  0
 13 36  1  0  0  0  0
 14 17  1  0  0  0  0
 14 37  1  0  0  0  0
 15 18  1  0  0  0  0
 15 19  1  0  0  0  0
 16 17  2  0  0  0  0
 16 38  1  0  0  0  0
 18 20  2  0  0  0  0
 18 39  1  0  0  0  0
 19 40  1  0  0  0  0
 19 41  1  0  0  0  0
 19 42  1  0  0  0  0
 20 43  1  0  0  0  0
 21 44  1  0  0  0  0
 21 45  1  0  0  0  0
 21 46  1  0  0  0  0
M  END
> <PUBCHEM_COMPOUND_CID>
239930

> <PUBCHEM_CONFORMER_RMSD>
0.8

> <PUBCHEM_CONFORMER_DIVERSEORDER>
3
54
51
68
40
18
52
30
36
50
59
48
43
76
57
79
42
65
75
71
55
74
32
70
25
67
60
12
84
62
47
73
14
63
7
1
53
11
69
34
58
66
61
82
38
5
72
46
41
80
17
56
19
33
77
45
39
37
81
22
15
4
29
26
35
9
31
13
2
24
83
28
44
23
6
64
21
27
8
16
49
78
20
10

> <PUBCHEM_MMFF94_PARTIAL_CHARGES>
23
1 -0.36
10 0.31
14 -0.15
15 -0.14
16 -0.15
17 0.08
18 -0.15
19 0.14
2 -0.9
20 0.16
21 0.28
29 0.36
3 -0.87
30 0.4
37 0.15
38 0.15
39 0.15
4 -0.62
43 0.15
6 0.27
7 0.37
8 0.27
9 0.1

> <PUBCHEM_EFFECTIVE_ROTOR_COUNT>
7

> <PUBCHEM_PHARMACOPHORE_FEATURES>
9
1 1 acceptor
1 2 cation
1 2 donor
1 3 cation
1 3 donor
1 4 acceptor
3 8 12 13 hydrophobe
6 4 10 11 15 18 20 rings
6 9 10 11 14 16 17 rings

> <PUBCHEM_HEAVY_ATOM_COUNT>
21

> <PUBCHEM_ATOM_DEF_STEREO_COUNT>
0

> <PUBCHEM_ATOM_UDEF_STEREO_COUNT>
0

> <PUBCHEM_BOND_DEF_STEREO_COUNT>
0

> <PUBCHEM_BOND_UDEF_STEREO_COUNT>
0

> <PUBCHEM_ISOTOPIC_ATOM_COUNT>
0

> <PUBCHEM_COMPONENT_COUNT>
1

> <PUBCHEM_CACTVS_TAUTO_COUNT>
1

> <PUBCHEM_CONFORMER_ID>
0003A93A00000003

> <PUBCHEM_MMFF94_ENERGY>
63.5667

> <PUBCHEM_FEATURE_SELFOVERLAP>
45.7

> <PUBCHEM_SHAPE_FINGERPRINT>
10382601 240 18412262843949790014
10906281 52 18124881407504482900
11049842 53 16773807960773406295
11370993 144 18186805743155066825
11552529 35 18267870678098130867
11640471 11 17988651838832467373
11725454 13 13254210745753527951
12390115 104 17832430065731228284
12422481 6 18126824046538428754
12553582 1 18194956353769115406
12633257 1 17677337246115270769
12644460 14 18335690646694648498
12892183 10 18335996319838565977
13009979 54 17989192733986886351
13140716 1 18048587411589858892
13533116 47 18260839198433081947
13965767 371 18059868229192602809
14739800 52 17130401657924523994
14790565 3 18191305082070339820
14844126 61 17110683828046797602
14950920 106 18265635233672305891
15003188 33 8862674447952193387
15475509 8 17845109385025660262
15475509 84 17984983700333371816
15842332 3 18059561534120367039
1813 80 18127413345858462638
20645477 70 18044907195547300375
20715895 44 17697327214234682561
20739085 24 18338239262954965670
21041028 32 18192990422603848494
21427221 339 18130509647847770125
21503847 285 18201730526152804663
21864079 5 18059866034743584149
22849341 161 18128545855582641318
23557571 272 14548734062724682663
25147074 1 17988065777823869087
2748010 2 17906134440719544332
2838139 119 15552743291565529664
341906 21 16272201981916944059
38570 142 18052285034623887228
458136 41 18188773967389121588
474 4 18338792445968308373
602551 16 15647051590338875921
621550 5 17532660035371798302
633830 44 18199192978060152548
7097593 13 18412543197992959351
7615 1 17916851500598484951

> <PUBCHEM_SHAPE_MULTIPOLES>
411.36
10.06
3.44
1.67
11.23
0.54
0.23
-0.98
5.53
-5.27
0.51
2.78
0.3
-1.57

> <PUBCHEM_SHAPE_SELFOVERLAP>
854.394

> <PUBCHEM_SHAPE_VOLUME>
237.1

> <PUBCHEM_COORDINATE_TYPE>
2
5
10

$$$$
