16745655
  -OEChem-01171811563D

 54 57  0     1  0  0  0  0  0999 V2000
    2.3135    0.1769    1.6987 O   0  0  0  0  0  0  0  0  0  0  0  0
    0.4466    1.9053    0.8002 O   0  0  0  0  0  0  0  0  0  0  0  0
    1.6922   -2.4714    1.8676 O   0  0  0  0  0  0  0  0  0  0  0  0
    2.1561   -0.4848   -0.5058 O   0  0  0  0  0  0  0  0  0  0  0  0
    6.8455    0.2366   -2.2734 O   0  0  0  0  0  0  0  0  0  0  0  0
    6.9781    1.0219   -0.1085 O   0  0  0  0  0  0  0  0  0  0  0  0
   -3.2754    0.4675   -0.6057 N   0  0  0  0  0  0  0  0  0  0  0  0
   -5.2037    1.8792   -0.1433 C   0  0  0  0  0  0  0  0  0  0  0  0
   -4.8200   -1.4233   -1.1424 C   0  0  0  0  0  0  0  0  0  0  0  0
   -4.8891    3.1117    0.6529 C   0  0  0  0  0  0  0  0  0  0  0  0
   -5.9788    3.1423   -0.3784 C   0  0  0  0  0  0  0  0  0  0  0  0
   -4.8956   -2.8354   -1.6444 C   0  0  0  0  0  0  0  0  0  0  0  0
   -4.9009   -1.6921   -2.6164 C   0  0  0  0  0  0  0  0  0  0  0  0
   -4.2353    1.4136   -1.1808 C   0  0  0  0  0  0  0  0  0  0  0  0
   -3.5357   -0.9319   -0.5716 C   0  0  0  0  0  0  0  0  0  0  0  0
   -2.6316   -1.7884   -0.0332 C   0  0  0  0  0  0  0  0  0  0  0  0
   -2.0703    0.9440   -0.0732 C   0  0  0  0  0  0  0  0  0  0  0  0
   -1.1280    0.1582    0.4762 C   0  0  0  0  0  0  0  0  0  0  0  0
   -1.3758   -1.2790    0.5223 C   0  0  0  0  0  0  0  0  0  0  0  0
    0.1242    0.7410    1.0266 C   0  0  0  0  0  0  0  0  0  0  0  0
    0.9558   -0.1730    1.9096 C   0  0  1  0  0  0  0  0  0  0  0  0
   -0.4762   -2.1347    1.0335 C   0  0  0  0  0  0  0  0  0  0  0  0
    0.8070   -1.6566    1.6106 C   0  0  0  0  0  0  0  0  0  0  0  0
    0.5877    0.0879    3.3709 C   0  0  0  0  0  0  0  0  0  0  0  0
    2.7976   -0.0305    0.4314 C   0  0  0  0  0  0  0  0  0  0  0  0
    4.2476    0.3999    0.3724 C   0  0  0  0  0  0  0  0  0  0  0  0
    4.8895    0.1300   -0.9867 C   0  0  0  0  0  0  0  0  0  0  0  0
    6.3505    0.5228   -1.0324 C   0  0  0  0  0  0  0  0  0  0  0  0
    8.2244    0.5624   -2.4768 C   0  0  0  0  0  0  0  0  0  0  0  0
   -5.7257    1.0725    0.3556 H   0  0  0  0  0  0  0  0  0  0  0  0
   -5.7099   -1.0566   -0.6422 H   0  0  0  0  0  0  0  0  0  0  0  0
   -5.1807    3.1243    1.6960 H   0  0  0  0  0  0  0  0  0  0  0  0
   -3.9801    3.6595    0.4375 H   0  0  0  0  0  0  0  0  0  0  0  0
   -5.7971    3.7028   -1.2871 H   0  0  0  0  0  0  0  0  0  0  0  0
   -7.0031    3.1781   -0.0281 H   0  0  0  0  0  0  0  0  0  0  0  0
   -4.0313   -3.4857   -1.6854 H   0  0  0  0  0  0  0  0  0  0  0  0
   -5.8274   -3.3701   -1.4958 H   0  0  0  0  0  0  0  0  0  0  0  0
   -5.8322   -1.4625   -3.1199 H   0  0  0  0  0  0  0  0  0  0  0  0
   -4.0177   -1.5457   -3.2268 H   0  0  0  0  0  0  0  0  0  0  0  0
   -3.6986    2.2648   -1.6222 H   0  0  0  0  0  0  0  0  0  0  0  0
   -4.7851    0.9739   -2.0197 H   0  0  0  0  0  0  0  0  0  0  0  0
   -2.8107   -2.8563    0.0285 H   0  0  0  0  0  0  0  0  0  0  0  0
   -1.9622    2.0211   -0.1400 H   0  0  0  0  0  0  0  0  0  0  0  0
   -0.6373   -3.2084    1.0396 H   0  0  0  0  0  0  0  0  0  0  0  0
    1.2204   -0.5025    4.0436 H   0  0  0  0  0  0  0  0  0  0  0  0
   -0.4580   -0.1627    3.5795 H   0  0  0  0  0  0  0  0  0  0  0  0
    0.7456    1.1405    3.6331 H   0  0  0  0  0  0  0  0  0  0  0  0
    4.7958   -0.1438    1.1508 H   0  0  0  0  0  0  0  0  0  0  0  0
    4.2956    1.4712    0.5987 H   0  0  0  0  0  0  0  0  0  0  0  0
    4.3582    0.6933   -1.7626 H   0  0  0  0  0  0  0  0  0  0  0  0
    4.8157   -0.9382   -1.2218 H   0  0  0  0  0  0  0  0  0  0  0  0
    8.4916    0.2859   -3.5002 H   0  0  0  0  0  0  0  0  0  0  0  0
    8.8535   -0.0047   -1.7842 H   0  0  0  0  0  0  0  0  0  0  0  0
    8.3819    1.6378   -2.3510 H   0  0  0  0  0  0  0  0  0  0  0  0
  1 21  1  0  0  0  0
  1 25  1  0  0  0  0
  2 20  2  0  0  0  0
  3 23  2  0  0  0  0
  4 25  2  0  0  0  0
  5 28  1  0  0  0  0
  5 29  1  0  0  0  0
  6 28  2  0  0  0  0
  7 14  1  0  0  0  0
  7 15  1  0  0  0  0
  7 17  1  0  0  0  0
  8 10  1  0  0  0  0
  8 11  1  0  0  0  0
  8 14  1  0  0  0  0
  8 30  1  0  0  0  0
  9 12  1  0  0  0  0
  9 13  1  0  0  0  0
  9 15  1  0  0  0  0
  9 31  1  0  0  0  0
 10 11  1  0  0  0  0
 10 32  1  0  0  0  0
 10 33  1  0  0  0  0
 11 34  1  0  0  0  0
 11 35  1  0  0  0  0
 12 13  1  0  0  0  0
 12 36  1  0  0  0  0
 12 37  1  0  0  0  0
 13 38  1  0  0  0  0
 13 39  1  0  0  0  0
 14 40  1  0  0  0  0
 14 41  1  0  0  0  0
 15 16  2  0  0  0  0
 16 19  1  0  0  0  0
 16 42  1  0  0  0  0
 17 18  2  0  0  0  0
 17 43  1  0  0  0  0
 18 19  1  0  0  0  0
 18 20  1  0  0  0  0
 19 22  2  0  0  0  0
 20 21  1  0  0  0  0
 21 23  1  0  0  0  0
 21 24  1  0  0  0  0
 22 23  1  0  0  0  0
 22 44  1  0  0  0  0
 24 45  1  0  0  0  0
 24 46  1  0  0  0  0
 24 47  1  0  0  0  0
 25 26  1  0  0  0  0
 26 27  1  0  0  0  0
 26 48  1  0  0  0  0
 26 49  1  0  0  0  0
 27 28  1  0  0  0  0
 27 50  1  0  0  0  0
 27 51  1  0  0  0  0
 29 52  1  0  0  0  0
 29 53  1  0  0  0  0
 29 54  1  0  0  0  0
M  END
> <PUBCHEM_COMPOUND_CID>
16745655

> <PUBCHEM_CONFORMER_RMSD>
1

> <PUBCHEM_CONFORMER_DIVERSEORDER>
2
60
26
42
62
6
49
12
30
50
61
18
7
19
65
58
41
45
3
63
56
16
13
36
59
57
32
44
22
17
29
47
35
4
43
39
64
25
51
21
28
31
55
53
38
9
54
1
40
15
8
11
52
37
20
14
23
24
33
5
48
46
27
34
10

> <PUBCHEM_MMFF94_PARTIAL_CHARGES>
40
1 -0.43
10 -0.2
11 -0.2
12 -0.2
13 -0.2
14 0.46
15 0.06
16 -0.15
17 -0.05
18 0.01
2 -0.57
20 0.49
21 0.4
22 -0.14
23 0.49
25 0.66
26 0.06
27 0.06
28 0.66
29 0.28
3 -0.57
30 0.1
31 0.1
32 0.1
33 0.1
34 0.1
35 0.1
36 0.1
37 0.1
38 0.1
39 0.1
4 -0.57
42 0.15
43 0.15
44 0.15
5 -0.43
6 -0.57
7 -0.57
8 -0.19
9 -0.06

> <PUBCHEM_EFFECTIVE_ROTOR_COUNT>
10.6

> <PUBCHEM_PHARMACOPHORE_FEATURES>
7
1 2 acceptor
1 3 acceptor
1 4 acceptor
1 6 acceptor
1 7 cation
6 18 19 20 21 22 23 rings
6 7 15 16 17 18 19 rings

> <PUBCHEM_HEAVY_ATOM_COUNT>
29

> <PUBCHEM_ATOM_DEF_STEREO_COUNT>
0

> <PUBCHEM_ATOM_UDEF_STEREO_COUNT>
1

> <PUBCHEM_BOND_DEF_STEREO_COUNT>
0

> <PUBCHEM_BOND_UDEF_STEREO_COUNT>
0

> <PUBCHEM_ISOTOPIC_ATOM_COUNT>
0

> <PUBCHEM_COMPONENT_COUNT>
1

> <PUBCHEM_CACTVS_TAUTO_COUNT>
1

> <PUBCHEM_CONFORMER_ID>
00FF84B700000002

> <PUBCHEM_MMFF94_ENERGY>
75.544

> <PUBCHEM_FEATURE_SELFOVERLAP>
35.547

> <PUBCHEM_SHAPE_FINGERPRINT>
10 15 13623533467639738348
10369192 42 16733279992222165044
12120059 9 16343122646804291446
12342043 65 17129855269729596327
12596602 18 10809341148812881084
12760667 363 14405192733581991412
12954195 1 18343297094163694127
13383668 90 18273221906167623446
13540713 5 18190158123880504419
13583140 156 14273729613206843331
13690498 29 18059287768963146639
13757389 114 18271807866271195373
13782708 43 17345743217790657670
14251764 30 16200154335023429902
14790565 3 17982447093207613817
15131766 46 17603579708443543853
15188451 53 9079104558272052801
1577012 14 18040716961803889604
17492 54 17676757764521444794
1813 80 14763801844079281088
21033650 10 18413388748114910891
21756936 100 17822017505831979249
22393880 68 18059563711373029107
23081809 10 18187074049456073498
23559900 14 17561071506296939897
24771750 20 18127690423200288047
249057 25 17750772450686530954
25147074 1 18190159227518080211
2838139 119 17385438822069680260
3610482 184 18334583407998623212
38570 142 18262246495331750161
397830 11 13262399951486231096
4098825 35 18342462508333958326
4107672 100 18272094872585047341
44880568 143 18272374204842906660
46194498 28 17630030792362820921
474113 269 11167653231782496801
504843 32 16443353134560149274
57527295 17 18412542106818571794

> <PUBCHEM_SHAPE_MULTIPOLES>
556.61
17.14
2.87
2.48
28.1
0.44
0.57
6.3
-17.32
-7.16
-0.31
2.59
-0.72
-1.82

> <PUBCHEM_SHAPE_SELFOVERLAP>
1184.953

> <PUBCHEM_SHAPE_VOLUME>
308

> <PUBCHEM_COORDINATE_TYPE>
2
5
10

$$$$
