5915936
  -OEChem-01171811563D

 41 44  0     0  0  0  0  0  0999 V2000
   -6.7127   -1.9894   -1.0303 F   0  0  0  0  0  0  0  0  0  0  0  0
   -1.4732    1.3973   -0.3452 O   0  0  0  0  0  0  0  0  0  0  0  0
    1.6725   -3.1378    1.0124 O   0  0  0  0  0  0  0  0  0  0  0  0
    0.8038    0.2817    1.1361 O   0  0  0  0  0  0  0  0  0  0  0  0
    5.2912   -0.2237   -0.0614 O   0  0  0  0  0  0  0  0  0  0  0  0
    2.9771    3.3322   -1.7927 O   0  0  0  0  0  0  0  0  0  0  0  0
    3.0382   -0.0286    0.5410 N   0  0  0  0  0  0  0  0  0  0  0  0
    4.0924    1.5294   -0.9004 N   0  0  0  0  0  0  0  0  0  0  0  0
    3.0986   -1.2353    1.3600 C   0  0  0  0  0  0  0  0  0  0  0  0
    1.7886    1.8590   -0.3396 C   0  0  0  0  0  0  0  0  0  0  0  0
    1.8025    0.6421    0.5148 C   0  0  0  0  0  0  0  0  0  0  0  0
    2.7247   -2.4435    0.5469 C   0  0  0  0  0  0  0  0  0  0  0  0
    4.2132    0.3728   -0.1290 C   0  0  0  0  0  0  0  0  0  0  0  0
    0.6525    2.5640   -0.4420 C   0  0  0  0  0  0  0  0  0  0  0  0
   -0.5708    2.2279    0.2191 C   0  0  0  0  0  0  0  0  0  0  0  0
    2.9782    2.3301   -1.0841 C   0  0  0  0  0  0  0  0  0  0  0  0
   -2.4988    1.2996    0.5410 C   0  0  0  0  0  0  0  0  0  0  0  0
   -0.9859    2.6681    1.4434 C   0  0  0  0  0  0  0  0  0  0  0  0
   -3.5841    0.4521    0.1355 C   0  0  0  0  0  0  0  0  0  0  0  0
   -2.2472    2.0627    1.6573 C   0  0  0  0  0  0  0  0  0  0  0  0
    3.2502   -2.9757   -0.5798 C   0  0  0  0  0  0  0  0  0  0  0  0
    2.4562   -4.1146   -0.8539 C   0  0  0  0  0  0  0  0  0  0  0  0
   -4.6920    0.2793    0.9710 C   0  0  0  0  0  0  0  0  0  0  0  0
   -3.5419   -0.2069   -1.0973 C   0  0  0  0  0  0  0  0  0  0  0  0
    1.5103   -4.1697    0.1431 C   0  0  0  0  0  0  0  0  0  0  0  0
   -5.7471   -0.5441    0.5779 C   0  0  0  0  0  0  0  0  0  0  0  0
   -4.5969   -1.0303   -1.4906 C   0  0  0  0  0  0  0  0  0  0  0  0
   -5.6996   -1.1988   -0.6530 C   0  0  0  0  0  0  0  0  0  0  0  0
    2.4324   -1.1370    2.2249 H   0  0  0  0  0  0  0  0  0  0  0  0
    4.1141   -1.3717    1.7492 H   0  0  0  0  0  0  0  0  0  0  0  0
    0.6118    3.4586   -1.0580 H   0  0  0  0  0  0  0  0  0  0  0  0
    4.9337    1.8221   -1.3902 H   0  0  0  0  0  0  0  0  0  0  0  0
   -0.4610    3.3381    2.1099 H   0  0  0  0  0  0  0  0  0  0  0  0
   -2.8814    2.1790    2.5248 H   0  0  0  0  0  0  0  0  0  0  0  0
    4.0940   -2.6144   -1.1492 H   0  0  0  0  0  0  0  0  0  0  0  0
    2.5603   -4.8087   -1.6753 H   0  0  0  0  0  0  0  0  0  0  0  0
   -4.7595    0.7752    1.9360 H   0  0  0  0  0  0  0  0  0  0  0  0
   -2.7004   -0.1016   -1.7778 H   0  0  0  0  0  0  0  0  0  0  0  0
    0.6956   -4.8436    0.3645 H   0  0  0  0  0  0  0  0  0  0  0  0
   -6.6058   -0.6759    1.2295 H   0  0  0  0  0  0  0  0  0  0  0  0
   -4.5606   -1.5405   -2.4486 H   0  0  0  0  0  0  0  0  0  0  0  0
  1 28  1  0  0  0  0
  2 15  1  0  0  0  0
  2 17  1  0  0  0  0
  3 12  1  0  0  0  0
  3 25  1  0  0  0  0
  4 11  2  0  0  0  0
  5 13  2  0  0  0  0
  6 16  2  0  0  0  0
  7  9  1  0  0  0  0
  7 11  1  0  0  0  0
  7 13  1  0  0  0  0
  8 13  1  0  0  0  0
  8 16  1  0  0  0  0
  8 32  1  0  0  0  0
  9 12  1  0  0  0  0
  9 29  1  0  0  0  0
  9 30  1  0  0  0  0
 10 11  1  0  0  0  0
 10 14  2  0  0  0  0
 10 16  1  0  0  0  0
 12 21  2  0  0  0  0
 14 15  1  0  0  0  0
 14 31  1  0  0  0  0
 15 18  2  0  0  0  0
 17 19  1  0  0  0  0
 17 20  2  0  0  0  0
 18 20  1  0  0  0  0
 18 33  1  0  0  0  0
 19 23  2  0  0  0  0
 19 24  1  0  0  0  0
 20 34  1  0  0  0  0
 21 22  1  0  0  0  0
 21 35  1  0  0  0  0
 22 25  2  0  0  0  0
 22 36  1  0  0  0  0
 23 26  1  0  0  0  0
 23 37  1  0  0  0  0
 24 27  2  0  0  0  0
 24 38  1  0  0  0  0
 25 39  1  0  0  0  0
 26 28  2  0  0  0  0
 26 40  1  0  0  0  0
 27 28  1  0  0  0  0
 27 41  1  0  0  0  0
M  END
> <PUBCHEM_COMPOUND_CID>
5915936

> <PUBCHEM_CONFORMER_RMSD>
0.8

> <PUBCHEM_CONFORMER_DIVERSEORDER>
1
25
14
26
11
17
22
6
20
27
16
23
19
2
4
15
18
12
21
8
24
13
10
5
3
7
9

> <PUBCHEM_MMFF94_PARTIAL_CHARGES>
39
1 -0.19
10 0.03
11 0.62
12 -0.04
13 0.69
14 -0.11
15 0.09
16 0.62
17 0.09
18 -0.15
19 0.05
2 -0.28
20 -0.15
21 -0.15
22 -0.15
23 -0.15
24 -0.15
25 -0.01
26 -0.15
27 -0.15
28 0.19
3 -0.28
31 0.15
32 0.37
33 0.15
34 0.15
35 0.15
36 0.15
37 0.15
38 0.15
39 0.15
4 -0.57
40 0.15
41 0.15
5 -0.57
6 -0.57
7 -0.42
8 -0.49
9 0.48

> <PUBCHEM_EFFECTIVE_ROTOR_COUNT>
4.4

> <PUBCHEM_PHARMACOPHORE_FEATURES>
11
1 10 anion
1 2 acceptor
1 3 acceptor
1 4 acceptor
1 5 acceptor
1 6 acceptor
1 8 donor
5 2 15 17 18 20 rings
5 3 12 21 22 25 rings
6 19 23 24 26 27 28 rings
6 7 8 10 11 13 16 rings

> <PUBCHEM_HEAVY_ATOM_COUNT>
28

> <PUBCHEM_ATOM_DEF_STEREO_COUNT>
0

> <PUBCHEM_ATOM_UDEF_STEREO_COUNT>
0

> <PUBCHEM_BOND_DEF_STEREO_COUNT>
1

> <PUBCHEM_BOND_UDEF_STEREO_COUNT>
0

> <PUBCHEM_ISOTOPIC_ATOM_COUNT>
0

> <PUBCHEM_COMPONENT_COUNT>
1

> <PUBCHEM_CACTVS_TAUTO_COUNT>
3

> <PUBCHEM_CONFORMER_ID>
005A452000000001

> <PUBCHEM_MMFF94_ENERGY>
60.5805

> <PUBCHEM_FEATURE_SELFOVERLAP>
55.825

> <PUBCHEM_SHAPE_FINGERPRINT>
10042902 136 18055641612011290110
10928967 22 17988636445923159463
11069576 57 18411695491533850799
11315621 136 18410578340570517110
11421498 54 18201725028990629848
11513181 2 18058176029036510487
11552529 35 17912364225846686840
12596602 18 17275385438827524251
12788726 201 17988380216727635905
13150687 139 18117294738618026116
13583140 156 17415534555434596120
1361 2 18409168843703814946
13692114 37 18127406972828244612
13911987 19 17680729294905699973
14429380 30 18119248363804885074
14863182 85 18339352063364776768
150020 26 16125853530737345719
15250474 111 18341047506279336687
15537594 2 18202005426046391827
17138139 8 17984132940125524151
17492 89 18268430131478285043
17818456 19 17770227055042185793
17974551 9 14183392405743531674
18681886 176 18336261332258963408
19319366 153 18268702982134051670
20028762 73 18342177769899410574
20645477 70 18113339725476043081
20764821 26 18338241565105850867
20775530 9 18125433120794582403
21054139 6 18412546509586635782
21285901 2 17531234076623710549
21304303 282 16453228046337315004
21315763 178 18272088314243618185
21315764 371 18059852896037602280
21421861 104 18199204914016620281
23379529 103 17118330893122021950
235170 7 17458337538065217815
23598288 3 17773309037769205957
3004659 81 18335413591133783841
314194 84 18340492257175741337
3737641 26 18271808960564104771
4280585 95 17757543063197596266
46194498 28 17749104530365482893
463206 1 18270112543325048987
5223283 242 17315056785163375365
5283384 97 18410285939355001239
6287921 2 18056480551951835982

> <PUBCHEM_SHAPE_MULTIPOLES>
529.64
12.06
4.8
1.4
15.22
3.59
-0.02
6.12
-2.47
-4.94
-0.73
0.31
-0.41
-2.51

> <PUBCHEM_SHAPE_SELFOVERLAP>
1183.387

> <PUBCHEM_SHAPE_VOLUME>
281.7

> <PUBCHEM_COORDINATE_TYPE>
2
5
10

$$$$
