661750
  -OEChem-01171812123D

 47 50  0     0  0  0  0  0  0999 V2000
   -3.0166    0.8768    0.1997 O   0  0  0  0  0  0  0  0  0  0  0  0
    4.2410    2.3791   -0.0737 O   0  0  0  0  0  0  0  0  0  0  0  0
   -2.1965    2.9742   -0.2772 O   0  0  0  0  0  0  0  0  0  0  0  0
    1.3749    0.7152   -0.9085 N   0  0  0  0  0  0  0  0  0  0  0  0
    1.4638   -1.6874   -0.6267 N   0  0  0  0  0  0  0  0  0  0  0  0
   -1.2899   -1.3572    0.0412 N   0  0  0  0  0  0  0  0  0  0  0  0
    0.6963    2.9812   -1.0223 N   0  0  0  0  0  0  0  0  0  0  0  0
   -0.7690    1.0685   -0.4020 C   0  0  0  0  0  0  0  0  0  0  0  0
    0.8327   -0.5051   -0.6141 C   0  0  0  0  0  0  0  0  0  0  0  0
   -0.4984   -0.3147   -0.2954 C   0  0  0  0  0  0  0  0  0  0  0  0
    0.4071    1.6818   -0.7826 C   0  0  0  0  0  0  0  0  0  0  0  0
   -4.3104    1.4317    0.4606 C   0  0  0  0  0  0  0  0  0  0  0  0
    2.7535    0.9372   -1.2913 C   0  0  0  0  0  0  0  0  0  0  0  0
   -2.0141    1.7435   -0.1674 C   0  0  0  0  0  0  0  0  0  0  0  0
   -4.8050    2.1285   -0.8061 C   0  0  0  0  0  0  0  0  0  0  0  0
   -5.2382    0.2785    0.8369 C   0  0  0  0  0  0  0  0  0  0  0  0
   -4.1901    2.4237    1.6166 C   0  0  0  0  0  0  0  0  0  0  0  0
    3.6128    1.1912   -0.0837 C   0  0  0  0  0  0  0  0  0  0  0  0
    0.6761   -2.7200   -0.2925 C   0  0  0  0  0  0  0  0  0  0  0  0
   -0.6903   -2.5567    0.0394 C   0  0  0  0  0  0  0  0  0  0  0  0
    1.2244   -3.9989   -0.2714 C   0  0  0  0  0  0  0  0  0  0  0  0
   -1.4399   -3.6798    0.3757 C   0  0  0  0  0  0  0  0  0  0  0  0
    3.8804    0.4441    1.0112 C   0  0  0  0  0  0  0  0  0  0  0  0
    0.4610   -5.1147    0.0672 C   0  0  0  0  0  0  0  0  0  0  0  0
   -0.8766   -4.9544    0.3924 C   0  0  0  0  0  0  0  0  0  0  0  0
    4.7615    1.2331    1.7884 C   0  0  0  0  0  0  0  0  0  0  0  0
    4.9497    2.4003    1.0857 C   0  0  0  0  0  0  0  0  0  0  0  0
    2.8036    1.7580   -2.0131 H   0  0  0  0  0  0  0  0  0  0  0  0
    3.1109    0.0424   -1.8142 H   0  0  0  0  0  0  0  0  0  0  0  0
   -4.6353    1.5018   -1.6894 H   0  0  0  0  0  0  0  0  0  0  0  0
   -5.8809    2.3290   -0.7378 H   0  0  0  0  0  0  0  0  0  0  0  0
   -4.3358    3.0954   -1.0032 H   0  0  0  0  0  0  0  0  0  0  0  0
   -4.8585   -0.2538    1.7167 H   0  0  0  0  0  0  0  0  0  0  0  0
   -5.2885   -0.4589    0.0275 H   0  0  0  0  0  0  0  0  0  0  0  0
   -6.2537    0.6255    1.0532 H   0  0  0  0  0  0  0  0  0  0  0  0
   -3.7238    3.3750    1.3495 H   0  0  0  0  0  0  0  0  0  0  0  0
   -5.1820    2.6768    2.0096 H   0  0  0  0  0  0  0  0  0  0  0  0
   -3.6017    1.9974    2.4374 H   0  0  0  0  0  0  0  0  0  0  0  0
    1.6212    3.3152   -1.2708 H   0  0  0  0  0  0  0  0  0  0  0  0
   -0.0108    3.7053   -0.9380 H   0  0  0  0  0  0  0  0  0  0  0  0
    2.2735   -4.1433   -0.5237 H   0  0  0  0  0  0  0  0  0  0  0  0
   -2.4921   -3.5722    0.6337 H   0  0  0  0  0  0  0  0  0  0  0  0
    3.5073   -0.5423    1.2448 H   0  0  0  0  0  0  0  0  0  0  0  0
    0.9125   -6.1020    0.0761 H   0  0  0  0  0  0  0  0  0  0  0  0
   -1.4827   -5.8150    0.6583 H   0  0  0  0  0  0  0  0  0  0  0  0
    5.2043    0.9822    2.7415 H   0  0  0  0  0  0  0  0  0  0  0  0
    5.5264    3.2961    1.2645 H   0  0  0  0  0  0  0  0  0  0  0  0
  1 12  1  0  0  0  0
  1 14  1  0  0  0  0
  2 18  1  0  0  0  0
  2 27  1  0  0  0  0
  3 14  2  0  0  0  0
  4  9  1  0  0  0  0
  4 11  1  0  0  0  0
  4 13  1  0  0  0  0
  5  9  2  0  0  0  0
  5 19  1  0  0  0  0
  6 10  2  0  0  0  0
  6 20  1  0  0  0  0
  7 11  1  0  0  0  0
  7 39  1  0  0  0  0
  7 40  1  0  0  0  0
  8 10  1  0  0  0  0
  8 11  2  0  0  0  0
  8 14  1  0  0  0  0
  9 10  1  0  0  0  0
 12 15  1  0  0  0  0
 12 16  1  0  0  0  0
 12 17  1  0  0  0  0
 13 18  1  0  0  0  0
 13 28  1  0  0  0  0
 13 29  1  0  0  0  0
 15 30  1  0  0  0  0
 15 31  1  0  0  0  0
 15 32  1  0  0  0  0
 16 33  1  0  0  0  0
 16 34  1  0  0  0  0
 16 35  1  0  0  0  0
 17 36  1  0  0  0  0
 17 37  1  0  0  0  0
 17 38  1  0  0  0  0
 18 23  2  0  0  0  0
 19 20  1  0  0  0  0
 19 21  2  0  0  0  0
 20 22  2  0  0  0  0
 21 24  1  0  0  0  0
 21 41  1  0  0  0  0
 22 25  1  0  0  0  0
 22 42  1  0  0  0  0
 23 26  1  0  0  0  0
 23 43  1  0  0  0  0
 24 25  2  0  0  0  0
 24 44  1  0  0  0  0
 25 45  1  0  0  0  0
 26 27  2  0  0  0  0
 26 46  1  0  0  0  0
 27 47  1  0  0  0  0
M  END
> <PUBCHEM_COMPOUND_CID>
661750

> <PUBCHEM_CONFORMER_RMSD>
0.8

> <PUBCHEM_CONFORMER_DIVERSEORDER>
1
12
52
21
24
50
48
31
43
38
39
32
17
35
44
41
27
36
51
6
40
30
47
45
29
9
42
33
23
25
26
46
8
13
28
3
34
15
22
4
18
20
10
37
49
16
14
11
7
5
2
19

> <PUBCHEM_MMFF94_PARTIAL_CHARGES>
33
1 -0.43
10 0.26
11 -0.07
12 0.28
13 0.44
14 0.81
18 -0.04
19 0.31
2 -0.28
20 0.31
21 -0.15
22 -0.15
23 -0.15
24 -0.15
25 -0.15
26 -0.15
27 -0.01
3 -0.57
39 0.4
4 0.05
40 0.4
41 0.15
42 0.15
43 0.15
44 0.15
45 0.15
46 0.15
47 0.15
5 -0.57
6 -0.57
7 -0.88
8 -0.09
9 0.11

> <PUBCHEM_EFFECTIVE_ROTOR_COUNT>
5

> <PUBCHEM_PHARMACOPHORE_FEATURES>
11
1 2 acceptor
1 3 acceptor
1 6 acceptor
1 7 cation
1 7 donor
3 4 5 9 cation
4 12 15 16 17 hydrophobe
5 2 18 23 26 27 rings
5 4 8 9 10 11 rings
6 19 20 21 22 24 25 rings
6 5 6 9 10 19 20 rings

> <PUBCHEM_HEAVY_ATOM_COUNT>
27

> <PUBCHEM_ATOM_DEF_STEREO_COUNT>
0

> <PUBCHEM_ATOM_UDEF_STEREO_COUNT>
0

> <PUBCHEM_BOND_DEF_STEREO_COUNT>
0

> <PUBCHEM_BOND_UDEF_STEREO_COUNT>
0

> <PUBCHEM_ISOTOPIC_ATOM_COUNT>
0

> <PUBCHEM_COMPONENT_COUNT>
1

> <PUBCHEM_CACTVS_TAUTO_COUNT>
4

> <PUBCHEM_CONFORMER_ID>
000A18F600000001

> <PUBCHEM_MMFF94_ENERGY>
63.2821

> <PUBCHEM_FEATURE_SELFOVERLAP>
55.993

> <PUBCHEM_SHAPE_FINGERPRINT>
10074138 170 18122883572583631378
10319926 262 18126551552861086744
1100329 8 17977383068787562167
11070050 100 18202283567563966273
11115154 58 17196541805464068327
11399510 152 17618552767997517281
11582403 64 17774993592376785548
11719270 70 18408041810648383453
12107183 9 18336814348184657386
12160290 23 17912949440794220591
12293681 4 17908416201803860199
12422481 6 18041550343629376616
12553582 1 17544767080655787374
12788726 201 17686068592584566858
12839892 36 18407757041062407409
13004483 165 17618217755456349018
13052359 8 18265329680465081919
13140716 1 18338517439186289902
13692114 37 18343299283996401759
138480 1 17761214310646600207
13911987 19 18333733528798344077
13955234 65 18123195597878989515
14178342 30 18193271021818693854
14787075 74 17989199374101362425
14863182 85 18190199935054360381
14866123 147 18338228371103058522
15230672 131 18409168780698694534
15338160 23 17908974749816813992
15475509 84 17686907532741612123
15927050 60 18412826889342282046
16110190 28 18190716693573776930
16728300 4 17532629309249265115
1813 80 10737290116846839777
19301679 30 18048315845594057842
19591789 44 18264785280344024206
1979834 28 18189914040804663377
20028762 73 18199196268633101839
20642791 268 17482547491144373563
20739085 24 18189343380952097892
21033648 29 18340752797886947688
21304303 172 17908420608292345902
21796203 349 17403493696240716363
22149856 69 18193021287162342257
22956985 138 17972318408491721170
23559900 14 17901389987552444061
3091708 16 9121193858671587014
3421961 26 17904213533575862553
345986 75 17468168469150919666
352729 6 18193571183849924103
4340502 62 18341898480781549801
5104073 3 18194413195488977857
5171179 24 17688582767581732909
58807428 26 18410849941453869696
6371380 46 18341895152698554806
6442390 28 18411986857888789296
653340 110 18268435805109049211
6673363 416 17261038719701055870
6679774 75 17968102976191542722
79837 15 18338238274959890227
9777508 108 18268709592172901576
9896288 288 18122899000871283314
9981440 41 18409168809903044921

> <PUBCHEM_SHAPE_MULTIPOLES>
518.12
8.87
6.36
1.18
1.44
10.91
0.27
-11.48
4.02
0.2
0.42
-0.46
-0.76
0.6

> <PUBCHEM_SHAPE_SELFOVERLAP>
1155.747

> <PUBCHEM_SHAPE_VOLUME>
276.6

> <PUBCHEM_COORDINATE_TYPE>
2
5
10

$$$$
