2066478
  -OEChem-01171811553D

 30 32  0     0  0  0  0  0  0999 V2000
   -1.4407    0.6398    0.3873 N   0  0  0  0  0  0  0  0  0  0  0  0
    0.2357    2.3572    0.1334 N   0  0  0  0  0  0  0  0  0  0  0  0
   -0.4910   -0.3984    0.2566 C   0  0  0  0  0  0  0  0  0  0  0  0
    0.8614   -0.0246    0.0586 C   0  0  0  0  0  0  0  0  0  0  0  0
   -2.8444    0.3152    0.5934 C   0  0  0  0  0  0  0  0  0  0  0  0
    1.8670   -1.0110   -0.0807 C   0  0  0  0  0  0  0  0  0  0  0  0
    1.2112    1.3423   -0.0008 C   0  0  0  0  0  0  0  0  0  0  0  0
   -3.5562    0.1241   -0.7418 C   0  0  0  0  0  0  0  0  0  0  0  0
   -0.8106   -1.7626    0.3119 C   0  0  0  0  0  0  0  0  0  0  0  0
   -0.9801    1.9403    0.3120 C   0  0  0  0  0  0  0  0  0  0  0  0
    1.5094   -2.3640   -0.0203 C   0  0  0  0  0  0  0  0  0  0  0  0
    3.1981   -0.6127   -0.2753 C   0  0  0  0  0  0  0  0  0  0  0  0
    2.5458    1.7120   -0.1959 C   0  0  0  0  0  0  0  0  0  0  0  0
    0.1809   -2.7348    0.1746 C   0  0  0  0  0  0  0  0  0  0  0  0
   -5.0199   -0.2621   -0.5806 C   0  0  0  0  0  0  0  0  0  0  0  0
    3.5336    0.7394   -0.3323 C   0  0  0  0  0  0  0  0  0  0  0  0
   -3.3292    1.1444    1.1265 H   0  0  0  0  0  0  0  0  0  0  0  0
   -2.9824   -0.5469    1.2557 H   0  0  0  0  0  0  0  0  0  0  0  0
   -3.0549   -0.6504   -1.3341 H   0  0  0  0  0  0  0  0  0  0  0  0
   -3.4942    1.0491   -1.3284 H   0  0  0  0  0  0  0  0  0  0  0  0
   -1.8291   -2.1120    0.4499 H   0  0  0  0  0  0  0  0  0  0  0  0
   -1.7838    2.6875    0.4195 H   0  0  0  0  0  0  0  0  0  0  0  0
    2.2623   -3.1422   -0.1249 H   0  0  0  0  0  0  0  0  0  0  0  0
    3.9873   -1.3537   -0.3846 H   0  0  0  0  0  0  0  0  0  0  0  0
    2.8225    2.7623   -0.2425 H   0  0  0  0  0  0  0  0  0  0  0  0
   -0.0853   -3.7873    0.2172 H   0  0  0  0  0  0  0  0  0  0  0  0
   -5.1163   -1.2074   -0.0374 H   0  0  0  0  0  0  0  0  0  0  0  0
   -5.5687    0.5089   -0.0307 H   0  0  0  0  0  0  0  0  0  0  0  0
   -5.4913   -0.3825   -1.5610 H   0  0  0  0  0  0  0  0  0  0  0  0
    4.5679    1.0349   -0.4836 H   0  0  0  0  0  0  0  0  0  0  0  0
  1  3  1  0  0  0  0
  1  5  1  0  0  0  0
  1 10  1  0  0  0  0
  2  7  1  0  0  0  0
  2 10  2  0  0  0  0
  3  4  1  0  0  0  0
  3  9  2  0  0  0  0
  4  6  2  0  0  0  0
  4  7  1  0  0  0  0
  5  8  1  0  0  0  0
  5 17  1  0  0  0  0
  5 18  1  0  0  0  0
  6 11  1  0  0  0  0
  6 12  1  0  0  0  0
  7 13  2  0  0  0  0
  8 15  1  0  0  0  0
  8 19  1  0  0  0  0
  8 20  1  0  0  0  0
  9 14  1  0  0  0  0
  9 21  1  0  0  0  0
 10 22  1  0  0  0  0
 11 14  2  0  0  0  0
 11 23  1  0  0  0  0
 12 16  2  0  0  0  0
 12 24  1  0  0  0  0
 13 16  1  0  0  0  0
 13 25  1  0  0  0  0
 14 26  1  0  0  0  0
 15 27  1  0  0  0  0
 15 28  1  0  0  0  0
 15 29  1  0  0  0  0
 16 30  1  0  0  0  0
M  END
> <PUBCHEM_COMPOUND_CID>
2066478

> <PUBCHEM_CONFORMER_RMSD>
0.6

> <PUBCHEM_CONFORMER_DIVERSEORDER>
2
4
1
3

> <PUBCHEM_MMFF94_PARTIAL_CHARGES>
19
1 -0.52
10 0.44
11 -0.15
12 -0.15
13 -0.15
14 -0.15
16 -0.15
2 -0.63
21 0.15
22 0.06
23 0.15
24 0.15
25 0.15
26 0.15
3 0.1
30 0.15
5 0.37
7 0.18
9 -0.15

> <PUBCHEM_EFFECTIVE_ROTOR_COUNT>
2.2

> <PUBCHEM_PHARMACOPHORE_FEATURES>
5
1 15 hydrophobe
3 1 2 10 cation
6 1 2 3 4 7 10 rings
6 3 4 6 9 11 14 rings
6 4 6 7 12 13 16 rings

> <PUBCHEM_HEAVY_ATOM_COUNT>
16

> <PUBCHEM_ATOM_DEF_STEREO_COUNT>
0

> <PUBCHEM_ATOM_UDEF_STEREO_COUNT>
0

> <PUBCHEM_BOND_DEF_STEREO_COUNT>
0

> <PUBCHEM_BOND_UDEF_STEREO_COUNT>
0

> <PUBCHEM_ISOTOPIC_ATOM_COUNT>
0

> <PUBCHEM_COMPONENT_COUNT>
1

> <PUBCHEM_CACTVS_TAUTO_COUNT>
1

> <PUBCHEM_CONFORMER_ID>
001F882E00000002

> <PUBCHEM_MMFF94_ENERGY>
46.9212

> <PUBCHEM_FEATURE_SELFOVERLAP>
25.456

> <PUBCHEM_SHAPE_FINGERPRINT>
10693767 8 18130220458836269631
10967382 1 18410578387719834906
11471102 20 18409728465199935069
11806522 49 18343016709844860997
12730499 353 18259982670295464103
13140716 1 18338520866849312754
13380535 76 18410294739542673338
13583140 156 16877943883787081297
13862211 1 18338234852425063718
14178342 30 17908131093189351736
14251717 144 18411134727797715463
14576447 43 18200581597248687951
14790565 3 15308179178039067425
14911166 2 18410862079020996300
15757776 16 18341608196568095103
16945 1 18337965501797586274
193761 8 17833555595964557776
200 152 18272929401852188373
20645477 70 18340482280003837311
21267235 1 18340496590191457943
21501502 16 18122066398978502728
21634736 98 17913754287927884703
221490 88 18336832004342101475
22182313 1 18123207928603761654
22289505 5 18263629690008610133
22713019 99 18342462551320197124
2334 1 18050575328586244242
23388829 49 18268993094237155705
23402539 116 18342731914694848484
23402655 69 18413102845327546213
23419403 2 16889983364359710570
23559900 14 18198639916071376052
238 59 17901342863202642351
25 1 18335414690566225503
257057 1 17469030073470135202
2748010 2 18194977463442976594
2871803 45 18411697656334381245
3060560 45 18410005559246674615
33824 294 18409165515246526739
4072396 5 18261936484339026594
4409770 3 15173006300800011529
528886 8 18411136974134098722
543358 83 18195244413199222133
8199 65 18410573967977064587
8272917 22 18339928108915881695

> <PUBCHEM_SHAPE_MULTIPOLES>
319.31
6.19
2.63
0.73
6.27
0.75
-0.03
-0.67
-1.66
-1.13
0.21
0.27
-0.01
-0.14

> <PUBCHEM_SHAPE_SELFOVERLAP>
701.93

> <PUBCHEM_SHAPE_VOLUME>
169.4

> <PUBCHEM_COORDINATE_TYPE>
2
5
10

$$$$
