5082182
  -OEChem-01171811453D

 47 50  0     0  0  0  0  0  0999 V2000
    0.8873    3.8502   -2.7875 Cl  0  0  0  0  0  0  0  0  0  0  0  0
   -2.5264    1.7686    1.5620 O   0  0  0  0  0  0  0  0  0  0  0  0
   -1.9083   -2.7459   -1.2262 O   0  0  0  0  0  0  0  0  0  0  0  0
    1.3692   -0.8833    1.7398 O   0  0  0  0  0  0  0  0  0  0  0  0
    0.0042    0.8556    1.2660 N   0  0  0  0  0  0  0  0  0  0  0  0
    0.3336   -1.5636   -0.2279 N   0  0  0  0  0  0  0  0  0  0  0  0
   -1.0214    0.1462    0.7026 C   0  0  0  0  0  0  0  0  0  0  0  0
   -3.5488    0.0383    0.3540 C   0  0  0  0  0  0  0  0  0  0  0  0
   -0.8892   -0.9903   -0.0019 C   0  0  0  0  0  0  0  0  0  0  0  0
   -3.3918   -1.1387   -0.3740 C   0  0  0  0  0  0  0  0  0  0  0  0
   -2.3788    0.7318    0.9225 C   0  0  0  0  0  0  0  0  0  0  0  0
   -2.0518   -1.7095   -0.5867 C   0  0  0  0  0  0  0  0  0  0  0  0
    0.7548    1.8892    0.6991 C   0  0  0  0  0  0  0  0  0  0  0  0
   -4.8296    0.5709    0.5494 C   0  0  0  0  0  0  0  0  0  0  0  0
   -4.5128   -1.7865   -0.9081 C   0  0  0  0  0  0  0  0  0  0  0  0
   -5.9448   -0.0761    0.0162 C   0  0  0  0  0  0  0  0  0  0  0  0
   -5.7866   -1.2532   -0.7115 C   0  0  0  0  0  0  0  0  0  0  0  0
    0.4956    2.3211   -0.6085 C   0  0  0  0  0  0  0  0  0  0  0  0
    1.7772    2.5080    1.4312 C   0  0  0  0  0  0  0  0  0  0  0  0
    1.3910   -1.4733    0.6624 C   0  0  0  0  0  0  0  0  0  0  0  0
    2.2604    3.9623   -0.4364 C   0  0  0  0  0  0  0  0  0  0  0  0
    1.2451    3.3530   -1.1737 C   0  0  0  0  0  0  0  0  0  0  0  0
    2.5265    3.5396    0.8660 C   0  0  0  0  0  0  0  0  0  0  0  0
    2.6330   -2.1800    0.2546 C   0  0  0  0  0  0  0  0  0  0  0  0
    3.0856    5.0710   -1.0051 C   0  0  0  0  0  0  0  0  0  0  0  0
    3.8453   -1.7211    0.7259 C   0  0  0  0  0  0  0  0  0  0  0  0
    2.5333   -3.2723   -0.5817 C   0  0  0  0  0  0  0  0  0  0  0  0
    5.0111   -2.3845    0.3434 C   0  0  0  0  0  0  0  0  0  0  0  0
    3.6992   -3.9358   -0.9641 C   0  0  0  0  0  0  0  0  0  0  0  0
    4.9381   -3.4918   -0.5015 C   0  0  0  0  0  0  0  0  0  0  0  0
    0.0148    0.8392    2.2817 H   0  0  0  0  0  0  0  0  0  0  0  0
   -4.9802    1.4877    1.1132 H   0  0  0  0  0  0  0  0  0  0  0  0
   -4.4151   -2.7059   -1.4794 H   0  0  0  0  0  0  0  0  0  0  0  0
    0.3718   -2.2022   -1.0148 H   0  0  0  0  0  0  0  0  0  0  0  0
   -6.9370    0.3386    0.1687 H   0  0  0  0  0  0  0  0  0  0  0  0
   -6.6554   -1.7561   -1.1260 H   0  0  0  0  0  0  0  0  0  0  0  0
   -0.2924    1.8597   -1.1995 H   0  0  0  0  0  0  0  0  0  0  0  0
    1.9970    2.1882    2.4470 H   0  0  0  0  0  0  0  0  0  0  0  0
    3.3139    4.0021    1.4553 H   0  0  0  0  0  0  0  0  0  0  0  0
    2.4535    5.9262   -1.2663 H   0  0  0  0  0  0  0  0  0  0  0  0
    3.6260    4.7311   -1.8947 H   0  0  0  0  0  0  0  0  0  0  0  0
    3.8346    5.4302   -0.2907 H   0  0  0  0  0  0  0  0  0  0  0  0
    3.9189   -0.8570    1.3794 H   0  0  0  0  0  0  0  0  0  0  0  0
    1.5936   -3.6842   -0.9317 H   0  0  0  0  0  0  0  0  0  0  0  0
    5.9758   -2.0384    0.7027 H   0  0  0  0  0  0  0  0  0  0  0  0
    3.6425   -4.8045   -1.6136 H   0  0  0  0  0  0  0  0  0  0  0  0
    5.8457   -4.0097   -0.7975 H   0  0  0  0  0  0  0  0  0  0  0  0
  1 22  1  0  0  0  0
  2 11  2  0  0  0  0
  3 12  2  0  0  0  0
  4 20  2  0  0  0  0
  5  7  1  0  0  0  0
  5 13  1  0  0  0  0
  5 31  1  0  0  0  0
  6  9  1  0  0  0  0
  6 20  1  0  0  0  0
  6 34  1  0  0  0  0
  7  9  2  0  0  0  0
  7 11  1  0  0  0  0
  8 10  1  0  0  0  0
  8 11  1  0  0  0  0
  8 14  2  0  0  0  0
  9 12  1  0  0  0  0
 10 12  1  0  0  0  0
 10 15  2  0  0  0  0
 13 18  2  0  0  0  0
 13 19  1  0  0  0  0
 14 16  1  0  0  0  0
 14 32  1  0  0  0  0
 15 17  1  0  0  0  0
 15 33  1  0  0  0  0
 16 17  2  0  0  0  0
 16 35  1  0  0  0  0
 17 36  1  0  0  0  0
 18 22  1  0  0  0  0
 18 37  1  0  0  0  0
 19 23  2  0  0  0  0
 19 38  1  0  0  0  0
 20 24  1  0  0  0  0
 21 22  2  0  0  0  0
 21 23  1  0  0  0  0
 21 25  1  0  0  0  0
 23 39  1  0  0  0  0
 24 26  2  0  0  0  0
 24 27  1  0  0  0  0
 25 40  1  0  0  0  0
 25 41  1  0  0  0  0
 25 42  1  0  0  0  0
 26 28  1  0  0  0  0
 26 43  1  0  0  0  0
 27 29  2  0  0  0  0
 27 44  1  0  0  0  0
 28 30  2  0  0  0  0
 28 45  1  0  0  0  0
 29 30  1  0  0  0  0
 29 46  1  0  0  0  0
 30 47  1  0  0  0  0
M  END
> <PUBCHEM_COMPOUND_CID>
5082182

> <PUBCHEM_CONFORMER_RMSD>
0.8

> <PUBCHEM_CONFORMER_DIVERSEORDER>
1
5
20
9
12
19
4
3
16
34
11
29
26
31
6
18
15
7
22
25
27
14
32
2
33
23
30
10
24
13
41
37
42
39
8
21
38
40
17
35
36
28

> <PUBCHEM_MMFF94_PARTIAL_CHARGES>
44
1 -0.18
10 0.09
11 0.47
12 0.47
13 0.1
14 -0.15
15 -0.15
16 -0.15
17 -0.15
18 -0.15
19 -0.15
2 -0.57
20 0.54
21 -0.14
22 0.18
23 -0.15
24 0.09
25 0.14
26 -0.15
27 -0.15
28 -0.15
29 -0.15
3 -0.57
30 -0.15
31 0.4
32 0.15
33 0.15
34 0.37
35 0.15
36 0.15
37 0.15
38 0.15
39 0.15
4 -0.57
43 0.15
44 0.15
45 0.15
46 0.15
47 0.15
5 -0.6
6 -0.54
7 0.11
8 0.09
9 0.12

> <PUBCHEM_EFFECTIVE_ROTOR_COUNT>
5

> <PUBCHEM_PHARMACOPHORE_FEATURES>
10
1 2 acceptor
1 3 acceptor
1 4 acceptor
1 5 cation
1 5 donor
1 6 donor
6 13 18 19 21 22 23 rings
6 24 26 27 28 29 30 rings
6 7 8 9 10 11 12 rings
6 8 10 14 15 16 17 rings

> <PUBCHEM_HEAVY_ATOM_COUNT>
30

> <PUBCHEM_ATOM_DEF_STEREO_COUNT>
0

> <PUBCHEM_ATOM_UDEF_STEREO_COUNT>
0

> <PUBCHEM_BOND_DEF_STEREO_COUNT>
0

> <PUBCHEM_BOND_UDEF_STEREO_COUNT>
0

> <PUBCHEM_ISOTOPIC_ATOM_COUNT>
0

> <PUBCHEM_COMPONENT_COUNT>
1

> <PUBCHEM_CACTVS_TAUTO_COUNT>
20

> <PUBCHEM_CONFORMER_ID>
004D8C4600000001

> <PUBCHEM_MMFF94_ENERGY>
124.3637

> <PUBCHEM_FEATURE_SELFOVERLAP>
50.77

> <PUBCHEM_SHAPE_FINGERPRINT>
10190108 129 17258790737870112019
10554248 39 18341033200275881501
11045515 52 18191870028718459246
11411753 29 17894919525733527269
11421498 54 17606399847861811482
11445158 3 18341608222665415199
11477941 20 18122078503262083934
11763715 3 17976562528091793206
11963148 33 17691956477626802927
12166972 35 18341328912473383975
12422481 6 17976780390255005872
12788726 201 17683243564739396330
13009979 54 18059582343273391251
133893 2 18264227922532870369
13540713 5 18130514115320581363
13590594 115 18264775367849596881
1361 2 18411982499113967762
14114211 68 18048331221307289173
14556957 393 17680176005008259374
14910302 57 17340138749816690166
14955137 171 18122650282966431147
15439362 3 18336546130828197789
15664445 248 18336257973241136106
15775530 1 17753630214562117867
15878777 1 13308225014867023256
15961568 22 18410576146675561646
167882 2 18337112379295143657
17980427 23 17845655820639754877
1813 80 18336539417773079010
19319366 153 17838615909458447583
20600515 1 17913501142122954396
20642791 178 18195238043567387786
21641784 216 18122081814360167542
22907989 373 17614849513627944500
23366157 5 18335696186943958643
23559900 14 18272357677629014163
24771750 20 18191314986000219126
24893989 43 16679141074948044813
25147074 1 18059863891786791547
335352 9 18058163935220286007
3380486 145 17761791571774131889
4017518 198 18052544559130328892
4280585 95 18337380531441759386
4409770 3 17400073076457538600
46194498 28 18188758548593594447
474 4 17898277557944563249
5081480 168 18261943081788686269
6700243 42 17411083659783510030
7399639 24 17985248704838566930
9981440 41 17833548277192437016

> <PUBCHEM_SHAPE_MULTIPOLES>
591.69
10.26
6.59
1.55
10.5
5.39
0.43
-8.45
0.92
-11.78
3.17
-0.36
1.33
-1.04

> <PUBCHEM_SHAPE_SELFOVERLAP>
1311.609

> <PUBCHEM_SHAPE_VOLUME>
316

> <PUBCHEM_COORDINATE_TYPE>
2
5
10

$$$$
