1484746
  -OEChem-01171811513D

 35 36  0     0  0  0  0  0  0999 V2000
   -4.4298    0.7451    0.1203 S   0  0  0  0  0  0  0  0  0  0  0  0
    2.1167    1.3080    0.6064 O   0  0  0  0  0  0  0  0  0  0  0  0
    1.9951    1.0812   -1.6717 O   0  0  0  0  0  0  0  0  0  0  0  0
    0.1413   -1.4024   -0.1615 N   0  0  0  0  0  0  0  0  0  0  0  0
   -1.9835   -0.3132   -0.0399 N   0  0  0  0  0  0  0  0  0  0  0  0
   -2.1505    2.0795   -0.2737 N   0  0  0  0  0  0  0  0  0  0  0  0
    1.6654   -3.0847   -0.7756 C   0  0  0  0  0  0  0  0  0  0  0  0
    1.0549   -3.4425    0.5683 C   0  0  0  0  0  0  0  0  0  0  0  0
    1.3924   -1.5870   -0.8927 C   0  0  0  0  0  0  0  0  0  0  0  0
   -0.2114   -2.5904    0.6121 C   0  0  0  0  0  0  0  0  0  0  0  0
   -0.6146   -0.2504   -0.1988 C   0  0  0  0  0  0  0  0  0  0  0  0
   -0.0011    1.0038   -0.3996 C   0  0  0  0  0  0  0  0  0  0  0  0
   -0.8106    2.1208   -0.4271 C   0  0  0  0  0  0  0  0  0  0  0  0
    1.4371    1.1297   -0.5734 C   0  0  0  0  0  0  0  0  0  0  0  0
   -2.6634    0.8484   -0.0870 C   0  0  0  0  0  0  0  0  0  0  0  0
    3.5393    1.4391    0.5077 C   0  0  0  0  0  0  0  0  0  0  0  0
    4.1147    1.6269    1.8954 C   0  0  0  0  0  0  0  0  0  0  0  0
   -4.5919   -0.7120    1.1908 C   0  0  0  0  0  0  0  0  0  0  0  0
    2.7304   -3.3258   -0.8386 H   0  0  0  0  0  0  0  0  0  0  0  0
    1.1447   -3.6245   -1.5759 H   0  0  0  0  0  0  0  0  0  0  0  0
    0.8442   -4.5106    0.6709 H   0  0  0  0  0  0  0  0  0  0  0  0
    1.7341   -3.1470    1.3772 H   0  0  0  0  0  0  0  0  0  0  0  0
    2.2311   -1.0958   -0.3965 H   0  0  0  0  0  0  0  0  0  0  0  0
    1.3200   -1.3050   -1.9476 H   0  0  0  0  0  0  0  0  0  0  0  0
   -1.0479   -3.1125    0.1342 H   0  0  0  0  0  0  0  0  0  0  0  0
   -0.4844   -2.3449    1.6437 H   0  0  0  0  0  0  0  0  0  0  0  0
   -0.4008    3.1148   -0.5774 H   0  0  0  0  0  0  0  0  0  0  0  0
    3.9623    0.5380    0.0509 H   0  0  0  0  0  0  0  0  0  0  0  0
    3.7815    2.3087   -0.1134 H   0  0  0  0  0  0  0  0  0  0  0  0
    5.2024    1.7330    1.8568 H   0  0  0  0  0  0  0  0  0  0  0  0
    3.6890    2.5160    2.3720 H   0  0  0  0  0  0  0  0  0  0  0  0
    3.8650    0.7733    2.5341 H   0  0  0  0  0  0  0  0  0  0  0  0
   -4.0018   -0.5848    2.1026 H   0  0  0  0  0  0  0  0  0  0  0  0
   -4.2666   -1.6145    0.6662 H   0  0  0  0  0  0  0  0  0  0  0  0
   -5.6418   -0.8344    1.4698 H   0  0  0  0  0  0  0  0  0  0  0  0
  1 15  1  0  0  0  0
  1 18  1  0  0  0  0
  2 14  1  0  0  0  0
  2 16  1  0  0  0  0
  3 14  2  0  0  0  0
  4  9  1  0  0  0  0
  4 10  1  0  0  0  0
  4 11  1  0  0  0  0
  5 11  2  0  0  0  0
  5 15  1  0  0  0  0
  6 13  1  0  0  0  0
  6 15  2  0  0  0  0
  7  8  1  0  0  0  0
  7  9  1  0  0  0  0
  7 19  1  0  0  0  0
  7 20  1  0  0  0  0
  8 10  1  0  0  0  0
  8 21  1  0  0  0  0
  8 22  1  0  0  0  0
  9 23  1  0  0  0  0
  9 24  1  0  0  0  0
 10 25  1  0  0  0  0
 10 26  1  0  0  0  0
 11 12  1  0  0  0  0
 12 13  2  0  0  0  0
 12 14  1  0  0  0  0
 13 27  1  0  0  0  0
 16 17  1  0  0  0  0
 16 28  1  0  0  0  0
 16 29  1  0  0  0  0
 17 30  1  0  0  0  0
 17 31  1  0  0  0  0
 17 32  1  0  0  0  0
 18 33  1  0  0  0  0
 18 34  1  0  0  0  0
 18 35  1  0  0  0  0
M  END
> <PUBCHEM_COMPOUND_CID>
1484746

> <PUBCHEM_CONFORMER_RMSD>
0.8

> <PUBCHEM_CONFORMER_DIVERSEORDER>
1
9
2
16
11
6
13
14
10
12
20
8
18
5
21
19
4
3
7
15
17

> <PUBCHEM_MMFF94_PARTIAL_CHARGES>
16
1 -0.33
10 0.37
11 0.41
12 0.09
13 0.16
14 0.63
15 0.72
16 0.28
18 0.23
2 -0.43
27 0.15
3 -0.57
4 -0.84
5 -0.62
6 -0.62
9 0.37

> <PUBCHEM_EFFECTIVE_ROTOR_COUNT>
6

> <PUBCHEM_PHARMACOPHORE_FEATURES>
6
1 18 hydrophobe
1 3 acceptor
3 4 5 11 cation
3 5 6 15 cation
5 4 7 8 9 10 rings
6 5 6 11 12 13 15 rings

> <PUBCHEM_HEAVY_ATOM_COUNT>
18

> <PUBCHEM_ATOM_DEF_STEREO_COUNT>
0

> <PUBCHEM_ATOM_UDEF_STEREO_COUNT>
0

> <PUBCHEM_BOND_DEF_STEREO_COUNT>
0

> <PUBCHEM_BOND_UDEF_STEREO_COUNT>
0

> <PUBCHEM_ISOTOPIC_ATOM_COUNT>
0

> <PUBCHEM_COMPONENT_COUNT>
1

> <PUBCHEM_CACTVS_TAUTO_COUNT>
1

> <PUBCHEM_CONFORMER_ID>
0016A7CA00000001

> <PUBCHEM_MMFF94_ENERGY>
60.6126

> <PUBCHEM_FEATURE_SELFOVERLAP>
30.568

> <PUBCHEM_SHAPE_FINGERPRINT>
108231 29 17834118541533652746
11680986 33 18119805816304980229
12553582 1 17040073715860781334
12592029 89 18410289186297419370
12633257 1 18127108987506891824
12716301 132 18048617085645306142
12839892 36 18335413629799097931
13004483 165 16975018868472690362
13140716 1 18051416459635468273
14178000 29 11530478921889802937
14178342 30 18339930415228995065
14787075 74 17630041800854916361
14863182 85 18263381298938113975
16945 1 18410863195791932885
20028762 73 17839473524571658479
20603629 256 18200329714459529331
20645477 70 18340768123120407327
21452121 103 18340763733199821217
21524375 3 18272643593121522756
21731228 192 18340758355805548336
22182313 1 18042680599213618149
22224240 67 18271240651008365689
23419403 2 17537975010461692150
23559900 14 18115877291349886615
23598294 1 17903359556496240960
23728640 28 18122042455158346154
2748010 2 18262521360454110173
33824 294 18409733950284661083
352729 6 18119821449890758245
427121 178 18201443613794879240
43471831 8 18408597050465342130
465052 167 17459196346946371177
4663303 62 18197771107529800572
5104073 3 18267879285628863121
5493415 88 17975420109597830759
58807428 26 18338507629644211282
5902787 121 17830738647227118531
59755656 215 18336264539902740005
7364860 26 18270116782077552902
81228 2 17620446435592649912
84936 31 17487032493658590022

> <PUBCHEM_SHAPE_MULTIPOLES>
347.6
6.66
3.61
1.21
4.78
3.34
0.22
-3.34
3.17
-2.58
0.2
-0.91
-0.23
1.37

> <PUBCHEM_SHAPE_SELFOVERLAP>
703.955

> <PUBCHEM_SHAPE_VOLUME>
205.7

> <PUBCHEM_COORDINATE_TYPE>
2
5
10

$$$$
