662864
  -OEChem-01171812143D

 51 53  0     0  0  0  0  0  0999 V2000
    6.1928    1.2959    0.7011 O   0  0  0  0  0  0  0  0  0  0  0  0
   -1.7975    3.2724    0.4888 O   0  0  0  0  0  0  0  0  0  0  0  0
    1.4949    0.8353   -0.5670 N   0  0  0  0  0  0  0  0  0  0  0  0
    1.4209   -1.5833   -0.4975 N   0  0  0  0  0  0  0  0  0  0  0  0
   -1.2446   -1.1243    0.4094 N   0  0  0  0  0  0  0  0  0  0  0  0
   -2.8619    1.2731    0.9191 N   0  0  0  0  0  0  0  0  0  0  0  0
    0.9843    3.1439   -0.4352 N   0  0  0  0  0  0  0  0  0  0  0  0
    2.8555    0.9947   -1.0362 C   0  0  0  0  0  0  0  0  0  0  0  0
    0.8841   -0.3660   -0.3355 C   0  0  0  0  0  0  0  0  0  0  0  0
    0.6150    1.8515   -0.2844 C   0  0  0  0  0  0  0  0  0  0  0  0
   -0.5739    1.2894    0.1338 C   0  0  0  0  0  0  0  0  0  0  0  0
   -0.4023   -0.1131    0.1013 C   0  0  0  0  0  0  0  0  0  0  0  0
    3.8880    1.0870    0.0867 C   0  0  0  0  0  0  0  0  0  0  0  0
   -1.7440    2.0254    0.5214 C   0  0  0  0  0  0  0  0  0  0  0  0
    5.3217    1.1941   -0.4180 C   0  0  0  0  0  0  0  0  0  0  0  0
    0.5831   -2.5846   -0.1914 C   0  0  0  0  0  0  0  0  0  0  0  0
   -0.7395   -2.3574    0.2591 C   0  0  0  0  0  0  0  0  0  0  0  0
   -4.1212    1.8658    1.3090 C   0  0  0  0  0  0  0  0  0  0  0  0
   -5.0679    2.0506    0.1277 C   0  0  0  0  0  0  0  0  0  0  0  0
   -5.4336    0.7259   -0.5454 C   0  0  0  0  0  0  0  0  0  0  0  0
    1.0327   -3.8952   -0.3216 C   0  0  0  0  0  0  0  0  0  0  0  0
   -1.5462   -3.4515    0.5567 C   0  0  0  0  0  0  0  0  0  0  0  0
    0.2129   -4.9813   -0.0201 C   0  0  0  0  0  0  0  0  0  0  0  0
   -1.0818   -4.7585    0.4212 C   0  0  0  0  0  0  0  0  0  0  0  0
   -6.4244    0.9346   -1.6801 C   0  0  0  0  0  0  0  0  0  0  0  0
    7.5529    1.3756    0.2973 C   0  0  0  0  0  0  0  0  0  0  0  0
    3.0814    0.1329   -1.6767 H   0  0  0  0  0  0  0  0  0  0  0  0
    2.9039    1.8708   -1.6913 H   0  0  0  0  0  0  0  0  0  0  0  0
    3.6662    1.9496    0.7286 H   0  0  0  0  0  0  0  0  0  0  0  0
    3.8052    0.2131    0.7462 H   0  0  0  0  0  0  0  0  0  0  0  0
    5.4315    2.0828   -1.0501 H   0  0  0  0  0  0  0  0  0  0  0  0
    5.5784    0.3056   -1.0064 H   0  0  0  0  0  0  0  0  0  0  0  0
   -3.9295    2.8340    1.7839 H   0  0  0  0  0  0  0  0  0  0  0  0
   -4.5703    1.2072    2.0601 H   0  0  0  0  0  0  0  0  0  0  0  0
   -2.8059    0.2595    0.9308 H   0  0  0  0  0  0  0  0  0  0  0  0
   -5.9806    2.5438    0.4831 H   0  0  0  0  0  0  0  0  0  0  0  0
   -4.6087    2.7183   -0.6118 H   0  0  0  0  0  0  0  0  0  0  0  0
    0.3424    3.9050   -0.2351 H   0  0  0  0  0  0  0  0  0  0  0  0
    1.9120    3.4336   -0.7253 H   0  0  0  0  0  0  0  0  0  0  0  0
   -5.8706    0.0424    0.1918 H   0  0  0  0  0  0  0  0  0  0  0  0
   -4.5360    0.2411   -0.9462 H   0  0  0  0  0  0  0  0  0  0  0  0
    2.0469   -4.0888   -0.6666 H   0  0  0  0  0  0  0  0  0  0  0  0
   -2.5660   -3.2948    0.9042 H   0  0  0  0  0  0  0  0  0  0  0  0
    0.5875   -5.9944   -0.1302 H   0  0  0  0  0  0  0  0  0  0  0  0
   -1.7309   -5.5954    0.6598 H   0  0  0  0  0  0  0  0  0  0  0  0
   -6.0058    1.5903   -2.4503 H   0  0  0  0  0  0  0  0  0  0  0  0
   -6.6725   -0.0235   -2.1475 H   0  0  0  0  0  0  0  0  0  0  0  0
   -7.3527    1.3838   -1.3130 H   0  0  0  0  0  0  0  0  0  0  0  0
    8.1740    1.4553    1.1935 H   0  0  0  0  0  0  0  0  0  0  0  0
    7.8441    0.4739   -0.2501 H   0  0  0  0  0  0  0  0  0  0  0  0
    7.7180    2.2627   -0.3218 H   0  0  0  0  0  0  0  0  0  0  0  0
  1 15  1  0  0  0  0
  1 26  1  0  0  0  0
  2 14  2  0  0  0  0
  3  8  1  0  0  0  0
  3  9  1  0  0  0  0
  3 10  1  0  0  0  0
  4  9  2  0  0  0  0
  4 16  1  0  0  0  0
  5 12  2  0  0  0  0
  5 17  1  0  0  0  0
  6 14  1  0  0  0  0
  6 18  1  0  0  0  0
  6 35  1  0  0  0  0
  7 10  1  0  0  0  0
  7 38  1  0  0  0  0
  7 39  1  0  0  0  0
  8 13  1  0  0  0  0
  8 27  1  0  0  0  0
  8 28  1  0  0  0  0
  9 12  1  0  0  0  0
 10 11  2  0  0  0  0
 11 12  1  0  0  0  0
 11 14  1  0  0  0  0
 13 15  1  0  0  0  0
 13 29  1  0  0  0  0
 13 30  1  0  0  0  0
 15 31  1  0  0  0  0
 15 32  1  0  0  0  0
 16 17  1  0  0  0  0
 16 21  2  0  0  0  0
 17 22  2  0  0  0  0
 18 19  1  0  0  0  0
 18 33  1  0  0  0  0
 18 34  1  0  0  0  0
 19 20  1  0  0  0  0
 19 36  1  0  0  0  0
 19 37  1  0  0  0  0
 20 25  1  0  0  0  0
 20 40  1  0  0  0  0
 20 41  1  0  0  0  0
 21 23  1  0  0  0  0
 21 42  1  0  0  0  0
 22 24  1  0  0  0  0
 22 43  1  0  0  0  0
 23 24  2  0  0  0  0
 23 44  1  0  0  0  0
 24 45  1  0  0  0  0
 25 46  1  0  0  0  0
 25 47  1  0  0  0  0
 25 48  1  0  0  0  0
 26 49  1  0  0  0  0
 26 50  1  0  0  0  0
 26 51  1  0  0  0  0
M  END
> <PUBCHEM_COMPOUND_CID>
662864

> <PUBCHEM_CONFORMER_RMSD>
1

> <PUBCHEM_CONFORMER_DIVERSEORDER>
1
37
73
61
30
68
60
43
40
7
25
34
66
3
38
41
23
72
46
50
6
15
71
36
17
44
28
14
69
42
13
10
18
35
21
48
29
12
52
39
8
53
47
70
32
64
20
22
55
11
19
24
65
51
31
58
5
16
57
59
49
33
62
9
26
4
56
2
45
54
63
27
67

> <PUBCHEM_MMFF94_PARTIAL_CHARGES>
29
1 -0.56
10 -0.07
11 -0.09
12 0.26
14 0.72
15 0.28
16 0.31
17 0.31
18 0.3
2 -0.57
21 -0.15
22 -0.15
23 -0.15
24 -0.15
26 0.28
3 0.05
35 0.37
38 0.4
39 0.4
4 -0.57
42 0.15
43 0.15
44 0.15
45 0.15
5 -0.57
6 -0.73
7 -0.88
8 0.26
9 0.11

> <PUBCHEM_EFFECTIVE_ROTOR_COUNT>
9

> <PUBCHEM_PHARMACOPHORE_FEATURES>
11
1 1 acceptor
1 2 acceptor
1 25 hydrophobe
1 5 acceptor
1 6 donor
1 7 cation
1 7 donor
3 3 4 9 cation
5 3 9 10 11 12 rings
6 16 17 21 22 23 24 rings
6 4 5 9 12 16 17 rings

> <PUBCHEM_HEAVY_ATOM_COUNT>
26

> <PUBCHEM_ATOM_DEF_STEREO_COUNT>
0

> <PUBCHEM_ATOM_UDEF_STEREO_COUNT>
0

> <PUBCHEM_BOND_DEF_STEREO_COUNT>
0

> <PUBCHEM_BOND_UDEF_STEREO_COUNT>
0

> <PUBCHEM_ISOTOPIC_ATOM_COUNT>
0

> <PUBCHEM_COMPONENT_COUNT>
1

> <PUBCHEM_CACTVS_TAUTO_COUNT>
7

> <PUBCHEM_CONFORMER_ID>
000A1D5000000001

> <PUBCHEM_MMFF94_ENERGY>
46.6672

> <PUBCHEM_FEATURE_SELFOVERLAP>
55.992

> <PUBCHEM_SHAPE_FINGERPRINT>
10074138 170 18267285699177476802
10319688 67 18200012037351050624
10411042 1 17619353542700186498
1100329 8 18194689399675132721
11135926 11 18410011006098980357
13052359 8 18337678627730473402
13140716 1 17691415526088825802
138480 1 17544767728578040210
13911987 19 18262252083206314621
13968360 50 18334569110542916655
14787075 74 18059855026120230913
14790565 3 18410297990680013524
14844126 61 18264772245703557786
14866123 147 18339082704543770050
15042514 8 18266466597353526250
15131766 46 15432317064651595860
15230672 131 18337681798888728158
15927050 60 18341054038835553454
17138139 8 17915719038313832743
19427546 20 17975148844133299916
19591789 44 18194142749334050934
20028762 73 18199462173546314527
20554085 129 18201422658850240328
20642791 105 18264210394697365099
21054139 6 18271800242376586789
21796203 349 17043776355395402467
22182313 1 18122659164658469067
23569917 315 18411706478024004398
283562 15 18271247105812286625
352729 6 18266483046645974057
4017518 198 18413394224773622638
4409770 3 18265054820012820499
563151 97 18339644417547077457
59444896 2 18117808132226234739
59755656 520 18410569596185673812
6669772 16 18341334392524756126
6691757 9 18342182197915695272
9981440 41 18337121080951646601

> <PUBCHEM_SHAPE_MULTIPOLES>
498.42
11.88
6.02
0.97
8.9
10.14
0.11
-14.09
1.23
-1.35
-0.68
-0.92
-0.32
0.09

> <PUBCHEM_SHAPE_SELFOVERLAP>
1062.063

> <PUBCHEM_SHAPE_VOLUME>
276.9

> <PUBCHEM_COORDINATE_TYPE>
2
5
10

$$$$
