2948741
  -OEChem-01171811383D

 55 58  0     1  0  0  0  0  0999 V2000
   -9.0250    0.2271    0.4916 O   0  0  0  0  0  0  0  0  0  0  0  0
    1.6565   -1.6110   -1.7395 O   0  0  0  0  0  0  0  0  0  0  0  0
    2.3331    2.1928    0.8554 O   0  0  0  0  0  0  0  0  0  0  0  0
    4.5101    2.0418   -0.0279 O   0  0  0  0  0  0  0  0  0  0  0  0
    7.6681   -1.4713    0.5921 O   0  0  0  0  0  0  0  0  0  0  0  0
    2.4160    0.1721   -0.3776 N   0  0  0  0  0  0  0  0  0  0  0  0
   -6.2568   -0.0905    0.1233 N   0  0  0  0  0  0  0  0  0  0  0  0
   -0.6569   -0.6076   -0.0743 N   0  0  0  0  0  0  0  0  0  0  0  0
    0.1641    0.1146   -1.0159 C   0  0  1  0  0  0  0  0  0  0  0  0
    0.4945    1.5013   -0.5071 C   0  0  0  0  0  0  0  0  0  0  0  0
    1.4978   -0.5741   -1.1087 C   0  0  0  0  0  0  0  0  0  0  0  0
    1.8657    1.3587    0.0916 C   0  0  0  0  0  0  0  0  0  0  0  0
   -6.8222    1.2380    0.3963 C   0  0  0  0  0  0  0  0  0  0  0  0
   -7.0805   -1.2220    0.5629 C   0  0  0  0  0  0  0  0  0  0  0  0
   -4.8648   -0.2183    0.0747 C   0  0  0  0  0  0  0  0  0  0  0  0
   -2.0603   -0.4775   -0.0243 C   0  0  0  0  0  0  0  0  0  0  0  0
   -8.2677    1.2910   -0.0848 C   0  0  0  0  0  0  0  0  0  0  0  0
   -8.5126   -1.0376    0.0734 C   0  0  0  0  0  0  0  0  0  0  0  0
    3.7663   -0.2372   -0.1292 C   0  0  0  0  0  0  0  0  0  0  0  0
   -4.1837   -1.0789    0.9589 C   0  0  0  0  0  0  0  0  0  0  0  0
   -4.1014    0.5087   -0.8605 C   0  0  0  0  0  0  0  0  0  0  0  0
   -2.7956   -1.2070    0.9098 C   0  0  0  0  0  0  0  0  0  0  0  0
   -2.7132    0.3804   -0.9095 C   0  0  0  0  0  0  0  0  0  0  0  0
    4.7814    0.7078    0.0408 C   0  0  0  0  0  0  0  0  0  0  0  0
    4.0695   -1.5991   -0.0545 C   0  0  0  0  0  0  0  0  0  0  0  0
    6.0910    0.2935    0.2839 C   0  0  0  0  0  0  0  0  0  0  0  0
    5.3790   -2.0133    0.1885 C   0  0  0  0  0  0  0  0  0  0  0  0
    6.3898   -1.0669    0.3577 C   0  0  0  0  0  0  0  0  0  0  0  0
    5.6055    2.9355    0.1574 C   0  0  0  0  0  0  0  0  0  0  0  0
    8.6522   -0.4512    0.7556 C   0  0  0  0  0  0  0  0  0  0  0  0
   -0.2618    0.1345   -2.0251 H   0  0  0  0  0  0  0  0  0  0  0  0
    0.5625    2.2174   -1.3333 H   0  0  0  0  0  0  0  0  0  0  0  0
   -0.2088    1.8795    0.2405 H   0  0  0  0  0  0  0  0  0  0  0  0
   -0.2157   -1.1730    0.6430 H   0  0  0  0  0  0  0  0  0  0  0  0
   -6.2571    2.0365   -0.0965 H   0  0  0  0  0  0  0  0  0  0  0  0
   -6.7837    1.4170    1.4780 H   0  0  0  0  0  0  0  0  0  0  0  0
   -7.0747   -1.2670    1.6589 H   0  0  0  0  0  0  0  0  0  0  0  0
   -6.6945   -2.1704    0.1710 H   0  0  0  0  0  0  0  0  0  0  0  0
   -8.3275    1.2307   -1.1782 H   0  0  0  0  0  0  0  0  0  0  0  0
   -8.7285    2.2356    0.2210 H   0  0  0  0  0  0  0  0  0  0  0  0
   -9.1547   -1.8174    0.4952 H   0  0  0  0  0  0  0  0  0  0  0  0
   -8.5740   -1.1122   -1.0191 H   0  0  0  0  0  0  0  0  0  0  0  0
   -4.7220   -1.6540    1.7082 H   0  0  0  0  0  0  0  0  0  0  0  0
   -4.5904    1.1760   -1.5668 H   0  0  0  0  0  0  0  0  0  0  0  0
   -2.2981   -1.8769    1.6066 H   0  0  0  0  0  0  0  0  0  0  0  0
   -2.1876    0.9755   -1.6490 H   0  0  0  0  0  0  0  0  0  0  0  0
    3.3067   -2.3663   -0.1438 H   0  0  0  0  0  0  0  0  0  0  0  0
    6.8772    1.0209    0.4154 H   0  0  0  0  0  0  0  0  0  0  0  0
    5.6049   -3.0741    0.2526 H   0  0  0  0  0  0  0  0  0  0  0  0
    5.2058    3.9516    0.0703 H   0  0  0  0  0  0  0  0  0  0  0  0
    6.0318    2.8531    1.1632 H   0  0  0  0  0  0  0  0  0  0  0  0
    6.3572    2.8270   -0.6322 H   0  0  0  0  0  0  0  0  0  0  0  0
    9.6084   -0.9541    0.9347 H   0  0  0  0  0  0  0  0  0  0  0  0
    8.7745    0.1431   -0.1565 H   0  0  0  0  0  0  0  0  0  0  0  0
    8.4513    0.1675    1.6371 H   0  0  0  0  0  0  0  0  0  0  0  0
  1 17  1  0  0  0  0
  1 18  1  0  0  0  0
  2 11  2  0  0  0  0
  3 12  2  0  0  0  0
  4 24  1  0  0  0  0
  4 29  1  0  0  0  0
  5 28  1  0  0  0  0
  5 30  1  0  0  0  0
  6 11  1  0  0  0  0
  6 12  1  0  0  0  0
  6 19  1  0  0  0  0
  7 13  1  0  0  0  0
  7 14  1  0  0  0  0
  7 15  1  0  0  0  0
  8  9  1  0  0  0  0
  8 16  1  0  0  0  0
  8 34  1  0  0  0  0
  9 10  1  0  0  0  0
  9 11  1  0  0  0  0
  9 31  1  0  0  0  0
 10 12  1  0  0  0  0
 10 32  1  0  0  0  0
 10 33  1  0  0  0  0
 13 17  1  0  0  0  0
 13 35  1  0  0  0  0
 13 36  1  0  0  0  0
 14 18  1  0  0  0  0
 14 37  1  0  0  0  0
 14 38  1  0  0  0  0
 15 20  2  0  0  0  0
 15 21  1  0  0  0  0
 16 22  2  0  0  0  0
 16 23  1  0  0  0  0
 17 39  1  0  0  0  0
 17 40  1  0  0  0  0
 18 41  1  0  0  0  0
 18 42  1  0  0  0  0
 19 24  2  0  0  0  0
 19 25  1  0  0  0  0
 20 22  1  0  0  0  0
 20 43  1  0  0  0  0
 21 23  2  0  0  0  0
 21 44  1  0  0  0  0
 22 45  1  0  0  0  0
 23 46  1  0  0  0  0
 24 26  1  0  0  0  0
 25 27  2  0  0  0  0
 25 47  1  0  0  0  0
 26 28  2  0  0  0  0
 26 48  1  0  0  0  0
 27 28  1  0  0  0  0
 27 49  1  0  0  0  0
 29 50  1  0  0  0  0
 29 51  1  0  0  0  0
 29 52  1  0  0  0  0
 30 53  1  0  0  0  0
 30 54  1  0  0  0  0
 30 55  1  0  0  0  0
M  END
> <PUBCHEM_COMPOUND_CID>
2948741

> <PUBCHEM_CONFORMER_RMSD>
1

> <PUBCHEM_CONFORMER_DIVERSEORDER>
1
33
45
105
18
87
29
59
54
8
53
61
106
88
28
79
70
26
56
17
48
37
27
96
71
6
60
62
84
99
89
108
7
43
47
101
63
16
103
4
44
3
46
57
49
83
64
95
102
66
76
77
21
58
2
90
42
85
14
38
74
30
107
50
94
34
31
69
15
22
13
40
5
97
91
100
55
98
23
36
39
68
93
24
19
32
52
78
35
75
10
82
104
11
81
92
67
73
86
80
72
51
25
41
12
65
9
20

> <PUBCHEM_MMFF94_PARTIAL_CHARGES>
38
1 -0.56
10 0.06
11 0.57
12 0.57
13 0.37
14 0.37
15 0.1
16 0.1
17 0.28
18 0.28
19 0.12
2 -0.57
20 -0.15
21 -0.15
22 -0.15
23 -0.15
24 0.08
25 -0.15
26 -0.15
27 -0.15
28 0.08
29 0.28
3 -0.57
30 0.28
34 0.4
4 -0.36
43 0.15
44 0.15
45 0.15
46 0.15
47 0.15
48 0.15
49 0.15
5 -0.36
6 -0.24
7 -0.84
8 -0.87
9 0.43

> <PUBCHEM_EFFECTIVE_ROTOR_COUNT>
7.8

> <PUBCHEM_PHARMACOPHORE_FEATURES>
12
1 1 acceptor
1 2 acceptor
1 3 acceptor
1 4 acceptor
1 5 acceptor
1 7 cation
1 8 cation
1 8 donor
5 6 9 10 11 12 rings
6 1 7 13 14 17 18 rings
6 15 16 20 21 22 23 rings
6 19 24 25 26 27 28 rings

> <PUBCHEM_HEAVY_ATOM_COUNT>
30

> <PUBCHEM_ATOM_DEF_STEREO_COUNT>
0

> <PUBCHEM_ATOM_UDEF_STEREO_COUNT>
1

> <PUBCHEM_BOND_DEF_STEREO_COUNT>
0

> <PUBCHEM_BOND_UDEF_STEREO_COUNT>
0

> <PUBCHEM_ISOTOPIC_ATOM_COUNT>
0

> <PUBCHEM_COMPONENT_COUNT>
1

> <PUBCHEM_CACTVS_TAUTO_COUNT>
7

> <PUBCHEM_CONFORMER_ID>
002CFE8500000001

> <PUBCHEM_MMFF94_ENERGY>
134.1991

> <PUBCHEM_FEATURE_SELFOVERLAP>
60.938

> <PUBCHEM_SHAPE_FINGERPRINT>
10 15 18201720669308407279
100830 39 18335700473991915085
10162869 55 17489296504686433197
10299344 5 17676490535877401947
10533779 47 18337969908988570307
106641 1 18202560688024301018
10674148 151 17168143438156760200
11719270 70 17917714595366733583
13540713 5 17629184190448753332
13617811 41 15719392819500797670
13685833 64 18186239523929874734
13885169 127 18260829268347198629
13914758 101 18412548683051253457
14040221 8 17604154731549664220
14118638 360 15913058564935628267
14251764 18 18407761443403775287
14251764 46 17989487415745075166
14347424 109 18409727379042935240
14856354 85 14056725660832916931
15131766 46 17981884460681241964
15183329 4 18186519886974091625
15247644 1 15936130759777085131
15419008 145 18270115708426075793
15475509 35 17241310405889906210
1577012 14 17775280620593586469
15840311 113 18412265069328905628
16120349 18 18411416245423743525
19301679 30 18057606461187046102
19841028 212 18188487948617580898
20105231 36 13623535645393983681
21130935 74 18407762547411389307
21150785 3 8646766698825118783
21267235 1 18340768153549181366
21792934 111 18341886390464722120
22224240 67 17632854226865393702
232437 2 18114180809797318578
23559900 14 17968660539558985725
3178227 256 18412258429351397322
3383291 50 17095814321372573011
34797466 226 16805608092423106124
4073 2 18115029739573092451
4098825 35 18411417298450386465
4325135 7 9727629509977290915
439807 62 17603864477971120914
99344 41 18341894082999328671

> <PUBCHEM_SHAPE_MULTIPOLES>
573.1
27.26
2.06
0.97
24.45
0.88
0.18
-2.6
-6.86
-2.83
-0.23
0
-0.15
0.5

> <PUBCHEM_SHAPE_SELFOVERLAP>
1238.824

> <PUBCHEM_SHAPE_VOLUME>
312.7

> <PUBCHEM_COORDINATE_TYPE>
2
5
10

$$$$
