3778426
  -OEChem-01171811513D

 29 31  0     0  0  0  0  0  0999 V2000
   -1.4848   -2.7823    0.0004 O   0  0  0  0  0  0  0  0  0  0  0  0
   -1.0413   -0.4572    0.0005 N   0  0  0  0  0  0  0  0  0  0  0  0
    0.0584    0.3615    0.0005 N   0  0  0  0  0  0  0  0  0  0  0  0
    4.8411   -0.4756   -0.0008 N   0  0  0  0  0  0  0  0  0  0  0  0
    0.7640   -1.8643    0.0007 C   0  0  0  0  0  0  0  0  0  0  0  0
    1.1063   -0.4028    0.0006 C   0  0  0  0  0  0  0  0  0  0  0  0
   -0.7369   -1.8192    0.0005 C   0  0  0  0  0  0  0  0  0  0  0  0
   -2.3138    0.1149   -0.0004 C   0  0  0  0  0  0  0  0  0  0  0  0
    2.4803    0.0582    0.0002 C   0  0  0  0  0  0  0  0  0  0  0  0
   -3.4453   -0.7007   -0.0014 C   0  0  0  0  0  0  0  0  0  0  0  0
   -2.4544    1.5025    0.0007 C   0  0  0  0  0  0  0  0  0  0  0  0
    2.7837    1.4168    0.0002 C   0  0  0  0  0  0  0  0  0  0  0  0
    3.5388   -0.8386   -0.0002 C   0  0  0  0  0  0  0  0  0  0  0  0
   -4.7176   -0.1286   -0.0013 C   0  0  0  0  0  0  0  0  0  0  0  0
   -3.7264    2.0748    0.0009 C   0  0  0  0  0  0  0  0  0  0  0  0
   -4.8580    1.2591   -0.0002 C   0  0  0  0  0  0  0  0  0  0  0  0
    4.1117    1.8293   -0.0003 C   0  0  0  0  0  0  0  0  0  0  0  0
    5.0941    0.8524   -0.0006 C   0  0  0  0  0  0  0  0  0  0  0  0
    1.1226   -2.3555   -0.9066 H   0  0  0  0  0  0  0  0  0  0  0  0
    1.1223   -2.3553    0.9082 H   0  0  0  0  0  0  0  0  0  0  0  0
   -3.4199   -1.7813   -0.0023 H   0  0  0  0  0  0  0  0  0  0  0  0
   -1.5984    2.1719    0.0018 H   0  0  0  0  0  0  0  0  0  0  0  0
    2.0011    2.1706    0.0005 H   0  0  0  0  0  0  0  0  0  0  0  0
    3.3903   -1.9134   -0.0002 H   0  0  0  0  0  0  0  0  0  0  0  0
   -5.5996   -0.7626   -0.0021 H   0  0  0  0  0  0  0  0  0  0  0  0
   -3.8365    3.1553    0.0019 H   0  0  0  0  0  0  0  0  0  0  0  0
   -5.8485    1.7047   -0.0001 H   0  0  0  0  0  0  0  0  0  0  0  0
    4.3696    2.8822   -0.0003 H   0  0  0  0  0  0  0  0  0  0  0  0
    6.1451    1.1219   -0.0010 H   0  0  0  0  0  0  0  0  0  0  0  0
  1  7  2  0  0  0  0
  2  3  1  0  0  0  0
  2  7  1  0  0  0  0
  2  8  1  0  0  0  0
  3  6  2  0  0  0  0
  4 13  1  0  0  0  0
  4 18  2  0  0  0  0
  5  6  1  0  0  0  0
  5  7  1  0  0  0  0
  5 19  1  0  0  0  0
  5 20  1  0  0  0  0
  6  9  1  0  0  0  0
  8 10  2  0  0  0  0
  8 11  1  0  0  0  0
  9 12  1  0  0  0  0
  9 13  2  0  0  0  0
 10 14  1  0  0  0  0
 10 21  1  0  0  0  0
 11 15  2  0  0  0  0
 11 22  1  0  0  0  0
 12 17  2  0  0  0  0
 12 23  1  0  0  0  0
 13 24  1  0  0  0  0
 14 16  2  0  0  0  0
 14 25  1  0  0  0  0
 15 16  1  0  0  0  0
 15 26  1  0  0  0  0
 16 27  1  0  0  0  0
 17 18  1  0  0  0  0
 17 28  1  0  0  0  0
 18 29  1  0  0  0  0
M  END
> <PUBCHEM_COMPOUND_CID>
3778426

> <PUBCHEM_CONFORMER_RMSD>
0.6

> <PUBCHEM_CONFORMER_DIVERSEORDER>
1
7
4
6
3
5
8
2

> <PUBCHEM_MMFF94_PARTIAL_CHARGES>
27
1 -0.57
10 -0.15
11 -0.15
12 -0.15
13 0.16
14 -0.15
15 -0.15
16 -0.15
17 -0.15
18 0.16
2 -0.11
21 0.15
22 0.15
23 0.15
24 0.15
25 0.15
26 0.15
27 0.15
28 0.15
29 0.15
3 -0.51
4 -0.62
5 0.12
6 0.3
7 0.57
8 0.12
9 0.09

> <PUBCHEM_EFFECTIVE_ROTOR_COUNT>
2.4

> <PUBCHEM_PHARMACOPHORE_FEATURES>
6
1 1 acceptor
1 3 acceptor
1 4 acceptor
5 2 3 5 6 7 rings
6 4 9 12 13 17 18 rings
6 8 10 11 14 15 16 rings

> <PUBCHEM_HEAVY_ATOM_COUNT>
18

> <PUBCHEM_ATOM_DEF_STEREO_COUNT>
0

> <PUBCHEM_ATOM_UDEF_STEREO_COUNT>
0

> <PUBCHEM_BOND_DEF_STEREO_COUNT>
0

> <PUBCHEM_BOND_UDEF_STEREO_COUNT>
0

> <PUBCHEM_ISOTOPIC_ATOM_COUNT>
0

> <PUBCHEM_COMPONENT_COUNT>
1

> <PUBCHEM_CACTVS_TAUTO_COUNT>
3

> <PUBCHEM_CONFORMER_ID>
0039A77A00000001

> <PUBCHEM_MMFF94_ENERGY>
55.9054

> <PUBCHEM_FEATURE_SELFOVERLAP>
30.448

> <PUBCHEM_SHAPE_FINGERPRINT>
10411042 1 17618223253162947367
10608611 8 18341048639939686808
12107183 9 17687740541321182392
12173636 292 18339356482569639310
122479 349 18334860540853074594
12390115 104 18200048256641744385
12596602 18 16732986461161965664
12644460 14 17968937474982124930
12788726 201 17100894193309283890
12916748 109 18411143532211627377
13081056 2 18411419501019399428
13583140 156 16950556710117630449
138480 1 17690280404539448103
14123255 52 18410009922880718907
14251764 18 18260542334604029512
14252887 29 12757430519099484832
15042514 8 18192437587605072523
15196674 1 18410855460149540133
17834072 32 18411138004810555777
18186145 218 18201450124859843488
200 152 17846495928958806329
20300324 65 18131066052576974357
204376 136 18410295800457481291
20645477 56 18410013264486633476
20645477 70 16988576667160661358
21267235 1 18410301310589305130
212847 35 18408605860029114396
21524375 3 18411138021863714007
21652331 79 18408322181175154661
22950370 63 9223227468377009221
23227448 37 18341049726112595957
23402539 116 18343294877459403205
23402655 69 18202562860676171244
23558518 356 17827356901842167578
23559900 14 18201159850176125758
245318 6 16882463014497028924
2916195 48 18202272637257566160
3004659 81 18262807268655014118
335352 9 18410575055484797910
351380 180 18411980260586959500
3545911 37 18413110589164091088
4214541 1 18410856577062440260
474 4 17821732779485962492
474229 33 18410856586148480871
495365 180 17346306138258984882
4990 188 17989211425541607702
5104073 3 18408323280570297050
58051976 378 18342174410860289197
633830 44 18271525282564220039
6430166 295 18410290307231090024
69090 78 18412261757043755486
77779 3 18410293614123903268
7832392 63 18337106865079258068
9709674 26 18342463655327856566

> <PUBCHEM_SHAPE_MULTIPOLES>
349.62
10.88
2.26
0.6
2.45
0.53
0
-5.07
0
-0.65
0
-0.01
-0.02
0

> <PUBCHEM_SHAPE_SELFOVERLAP>
770.73

> <PUBCHEM_SHAPE_VOLUME>
187.1

> <PUBCHEM_COORDINATE_TYPE>
2
5
10

$$$$
