51361461
  -OEChem-01171812183D

 37 39  0     0  0  0  0  0  0999 V2000
   -5.2916    1.8913   -0.5898 F   0  0  0  0  0  0  0  0  0  0  0  0
   -3.2571    2.6415   -0.7499 F   0  0  0  0  0  0  0  0  0  0  0  0
   -4.0149    1.2461   -2.2272 F   0  0  0  0  0  0  0  0  0  0  0  0
    1.5147   -3.5148   -0.8910 O   0  0  0  0  0  0  0  0  0  0  0  0
   -0.2287   -2.9231    0.6660 O   0  0  0  0  0  0  0  0  0  0  0  0
    4.0121   -1.2040   -0.6053 N   0  0  0  0  0  0  0  0  0  0  0  0
    0.5048   -0.8613   -0.1277 N   0  0  0  0  0  0  0  0  0  0  0  0
    3.6263   -2.4844   -0.8526 N   0  0  0  0  0  0  0  0  0  0  0  0
    2.9189   -0.4465   -0.2658 C   0  0  0  0  0  0  0  0  0  0  0  0
    1.7996   -1.1845   -0.3392 C   0  0  0  0  0  0  0  0  0  0  0  0
    3.0681    0.9613    0.1132 C   0  0  0  0  0  0  0  0  0  0  0  0
    2.2456   -2.5533   -0.7282 C   0  0  0  0  0  0  0  0  0  0  0  0
   -1.8187   -1.2071    0.5545 C   0  0  0  0  0  0  0  0  0  0  0  0
   -0.4489   -1.7520    0.3670 C   0  0  0  0  0  0  0  0  0  0  0  0
    2.6626    1.3900    1.3770 C   0  0  0  0  0  0  0  0  0  0  0  0
    3.6155    1.8724   -0.7899 C   0  0  0  0  0  0  0  0  0  0  0  0
   -2.2585   -0.1394   -0.2280 C   0  0  0  0  0  0  0  0  0  0  0  0
   -3.5441    0.3718   -0.0510 C   0  0  0  0  0  0  0  0  0  0  0  0
   -2.6646   -1.7637    1.5138 C   0  0  0  0  0  0  0  0  0  0  0  0
   -4.3900   -0.1847    0.9082 C   0  0  0  0  0  0  0  0  0  0  0  0
   -3.9503   -1.2525    1.6907 C   0  0  0  0  0  0  0  0  0  0  0  0
    2.8044    2.7301    1.7378 C   0  0  0  0  0  0  0  0  0  0  0  0
    3.7575    3.2123   -0.4293 C   0  0  0  0  0  0  0  0  0  0  0  0
   -4.0145    1.5134   -0.8878 C   0  0  0  0  0  0  0  0  0  0  0  0
    3.3519    3.6412    0.8346 C   0  0  0  0  0  0  0  0  0  0  0  0
    4.9605   -0.9627   -0.3543 H   0  0  0  0  0  0  0  0  0  0  0  0
    0.2902    0.1322   -0.1114 H   0  0  0  0  0  0  0  0  0  0  0  0
    4.2975   -3.1970   -1.1062 H   0  0  0  0  0  0  0  0  0  0  0  0
    2.2368    0.6938    2.0957 H   0  0  0  0  0  0  0  0  0  0  0  0
    3.9345    1.5562   -1.7802 H   0  0  0  0  0  0  0  0  0  0  0  0
   -1.6298    0.2973   -0.9996 H   0  0  0  0  0  0  0  0  0  0  0  0
   -2.3391   -2.5928    2.1366 H   0  0  0  0  0  0  0  0  0  0  0  0
   -5.3949    0.1987    1.0620 H   0  0  0  0  0  0  0  0  0  0  0  0
   -4.6086   -1.6852    2.4384 H   0  0  0  0  0  0  0  0  0  0  0  0
    2.4892    3.0639    2.7221 H   0  0  0  0  0  0  0  0  0  0  0  0
    4.1832    3.9220   -1.1327 H   0  0  0  0  0  0  0  0  0  0  0  0
    3.4624    4.6845    1.1154 H   0  0  0  0  0  0  0  0  0  0  0  0
  1 24  1  0  0  0  0
  2 24  1  0  0  0  0
  3 24  1  0  0  0  0
  4 12  2  0  0  0  0
  5 14  2  0  0  0  0
  6  8  1  0  0  0  0
  6  9  1  0  0  0  0
  6 26  1  0  0  0  0
  7 10  1  0  0  0  0
  7 14  1  0  0  0  0
  7 27  1  0  0  0  0
  8 12  1  0  0  0  0
  8 28  1  0  0  0  0
  9 10  2  0  0  0  0
  9 11  1  0  0  0  0
 10 12  1  0  0  0  0
 11 15  2  0  0  0  0
 11 16  1  0  0  0  0
 13 14  1  0  0  0  0
 13 17  2  0  0  0  0
 13 19  1  0  0  0  0
 15 22  1  0  0  0  0
 15 29  1  0  0  0  0
 16 23  2  0  0  0  0
 16 30  1  0  0  0  0
 17 18  1  0  0  0  0
 17 31  1  0  0  0  0
 18 20  2  0  0  0  0
 18 24  1  0  0  0  0
 19 21  2  0  0  0  0
 19 32  1  0  0  0  0
 20 21  1  0  0  0  0
 20 33  1  0  0  0  0
 21 34  1  0  0  0  0
 22 25  2  0  0  0  0
 22 35  1  0  0  0  0
 23 25  1  0  0  0  0
 23 36  1  0  0  0  0
 25 37  1  0  0  0  0
M  END
> <PUBCHEM_COMPOUND_CID>
51361461

> <PUBCHEM_CONFORMER_RMSD>
0.8

> <PUBCHEM_CONFORMER_DIVERSEORDER>
3
12
20
5
10
17
7
2
22
18
11
4
13
8
19
14
6
9
16
21
15
1

> <PUBCHEM_MMFF94_PARTIAL_CHARGES>
37
1 -0.34
10 0.12
11 0.03
12 0.62
13 0.09
14 0.54
15 -0.15
16 -0.15
17 -0.15
18 -0.14
19 -0.15
2 -0.34
20 -0.15
21 -0.15
22 -0.15
23 -0.15
24 1.16
25 -0.15
26 0.4
27 0.37
28 0.37
29 0.15
3 -0.34
30 0.15
31 0.15
32 0.15
33 0.15
34 0.15
35 0.15
36 0.15
37 0.15
4 -0.57
5 -0.57
6 -0.52
7 -0.54
8 -0.41
9 0.07

> <PUBCHEM_EFFECTIVE_ROTOR_COUNT>
5

> <PUBCHEM_PHARMACOPHORE_FEATURES>
8
1 4 acceptor
1 5 acceptor
1 6 donor
1 7 donor
1 8 donor
5 6 8 9 10 12 rings
6 11 15 16 22 23 25 rings
6 13 17 18 19 20 21 rings

> <PUBCHEM_HEAVY_ATOM_COUNT>
25

> <PUBCHEM_ATOM_DEF_STEREO_COUNT>
0

> <PUBCHEM_ATOM_UDEF_STEREO_COUNT>
0

> <PUBCHEM_BOND_DEF_STEREO_COUNT>
0

> <PUBCHEM_BOND_UDEF_STEREO_COUNT>
0

> <PUBCHEM_ISOTOPIC_ATOM_COUNT>
0

> <PUBCHEM_COMPONENT_COUNT>
1

> <PUBCHEM_CACTVS_TAUTO_COUNT>
10

> <PUBCHEM_CONFORMER_ID>
030FB6B500000003

> <PUBCHEM_MMFF94_ENERGY>
84.4225

> <PUBCHEM_FEATURE_SELFOVERLAP>
42.222

> <PUBCHEM_SHAPE_FINGERPRINT>
10165383 225 17982191203018223848
10319926 262 17968088755226862034
10670039 82 17830185945445701676
11456790 92 17828207593346265665
11595378 159 17023178391969455321
12100795 323 18264481974059194804
12403259 415 18334585641713835219
12422481 6 18191564524180963104
12549972 3 17822588126249085618
12596602 18 15647622309624410913
12769317 202 18343302587126237400
12788726 201 17256245939196878314
13134695 92 18199186175037852638
13402501 40 18335138652849404036
13583140 156 18339086999432230471
14114211 80 17838647756309060016
14251757 17 18408888404056997921
14251764 38 18408597050682087569
14466204 15 18191297174855563266
14468879 13 18262235637659649041
14848178 96 18410853265611422321
15081414 286 18200890474238208942
151778 21 18269002045149603688
15806764 133 18266763314652459087
15961568 22 17896889965390420221
17868525 174 18188482468138239530
20567600 299 18200026240343894828
20621476 13 18411978044420940008
21033648 29 18335138717226388721
21049683 118 17168978990486260257
21133410 62 17181947545221214785
21475661 188 18334850602177217848
21709351 56 18343865519810606238
21860390 5 18129666279548152398
22122407 14 17914076226250752313
23536364 44 17983610449523719172
23559900 14 18337391543642687578
238 59 18202280307894693342
3187 122 17469038216886286875
341906 21 17312817204035611845
3459 39 17699271472730287792
4371632 12 17628897209250583745
44317340 157 18341884157577256197
469060 322 17835797882742531311
495365 180 18272360984357842090
5252454 2 17984714560554891096
54672768 99 18409728469759094564
57124632 79 18270676584473963928
5969126 39 17410788964924219070
6086070 43 18262788554443470131
621550 34 18265911313748475707
7399639 24 18193285310663795739
7471813 234 17560515076277570202
7808743 9 17617947267554971364

> <PUBCHEM_SHAPE_MULTIPOLES>
465.99
10.28
4.34
1.46
5.77
0.01
0.14
-7.02
-0.5
-3.73
-0.55
0.85
-0.5
3.27

> <PUBCHEM_SHAPE_SELFOVERLAP>
1029.016

> <PUBCHEM_SHAPE_VOLUME>
249.6

> <PUBCHEM_COORDINATE_TYPE>
2
5
10

$$$$
