7596411
  -OEChem-01171812113D

 58 61  0     1  0  0  0  0  0999 V2000
    2.8254   -2.4219   -1.7011 O   0  0  0  0  0  0  0  0  0  0  0  0
   -2.2340    1.2425   -0.1539 O   0  0  0  0  0  0  0  0  0  0  0  0
    1.3150   -1.8027   -0.0481 N   0  0  0  0  0  0  0  0  0  0  0  0
    4.9079   -1.7495   -0.2550 N   0  0  0  0  0  0  0  0  0  0  0  0
   -3.7378   -0.5208    0.2529 N   0  0  0  0  0  0  0  0  0  0  0  0
   -1.3928   -0.9005    0.4191 C   0  0  0  0  0  0  0  0  0  0  0  0
   -0.1907   -0.1783    1.0334 C   0  0  0  0  0  0  0  0  0  0  0  0
   -0.9968   -1.6112   -0.8780 C   0  0  0  0  0  0  0  0  0  0  0  0
    0.9910   -1.1287    1.2153 C   0  0  0  0  0  0  0  0  0  0  0  0
    0.2007   -2.5317   -0.6570 C   0  0  0  0  0  0  0  0  0  0  0  0
    3.6556   -1.0488    0.0276 C   0  0  2  0  0  0  0  0  0  0  0  0
    2.5703   -1.8198   -0.6549 C   0  0  0  0  0  0  0  0  0  0  0  0
    3.7049    0.3816   -0.5184 C   0  0  0  0  0  0  0  0  0  0  0  0
   -2.4901    0.0781    0.1351 C   0  0  0  0  0  0  0  0  0  0  0  0
    4.9776    1.0988   -0.1456 C   0  0  0  0  0  0  0  0  0  0  0  0
    6.0196   -1.1241    0.4716 C   0  0  0  0  0  0  0  0  0  0  0  0
    6.1003    0.3711    0.2868 C   0  0  0  0  0  0  0  0  0  0  0  0
    5.0646    2.4902   -0.2841 C   0  0  0  0  0  0  0  0  0  0  0  0
    7.2819    1.0520    0.6088 C   0  0  0  0  0  0  0  0  0  0  0  0
   -5.0038    0.0816    0.0610 C   0  0  0  0  0  0  0  0  0  0  0  0
    6.2490    3.1565    0.0288 C   0  0  0  0  0  0  0  0  0  0  0  0
    7.3556    2.4385    0.4769 C   0  0  0  0  0  0  0  0  0  0  0  0
   -6.1068   -0.3735    0.7654 C   0  0  0  0  0  0  0  0  0  0  0  0
   -5.1080    1.1284   -0.8418 C   0  0  0  0  0  0  0  0  0  0  0  0
   -7.3463    0.2333    0.5622 C   0  0  0  0  0  0  0  0  0  0  0  0
   -6.3473    1.7353   -1.0449 C   0  0  0  0  0  0  0  0  0  0  0  0
   -7.4664    1.2878   -0.3429 C   0  0  0  0  0  0  0  0  0  0  0  0
   -6.0073   -1.5010    1.7411 C   0  0  0  0  0  0  0  0  0  0  0  0
   -8.7913    1.9370   -0.5603 C   0  0  0  0  0  0  0  0  0  0  0  0
   -1.7390   -1.6486    1.1448 H   0  0  0  0  0  0  0  0  0  0  0  0
   -0.4666    0.2607    1.9998 H   0  0  0  0  0  0  0  0  0  0  0  0
    0.1281    0.6518    0.3889 H   0  0  0  0  0  0  0  0  0  0  0  0
   -0.7460   -0.8684   -1.6471 H   0  0  0  0  0  0  0  0  0  0  0  0
   -1.8403   -2.1931   -1.2684 H   0  0  0  0  0  0  0  0  0  0  0  0
    1.8134   -0.5500    1.6298 H   0  0  0  0  0  0  0  0  0  0  0  0
    0.7446   -1.9098    1.9442 H   0  0  0  0  0  0  0  0  0  0  0  0
    0.5015   -2.9804   -1.6089 H   0  0  0  0  0  0  0  0  0  0  0  0
   -0.0648   -3.3508    0.0219 H   0  0  0  0  0  0  0  0  0  0  0  0
    3.5474   -1.0709    1.1131 H   0  0  0  0  0  0  0  0  0  0  0  0
    3.6243    0.3796   -1.6139 H   0  0  0  0  0  0  0  0  0  0  0  0
    2.8447    0.9436   -0.1341 H   0  0  0  0  0  0  0  0  0  0  0  0
    5.1032   -1.7081   -1.2561 H   0  0  0  0  0  0  0  0  0  0  0  0
    6.9504   -1.5872    0.1241 H   0  0  0  0  0  0  0  0  0  0  0  0
    5.9272   -1.3458    1.5419 H   0  0  0  0  0  0  0  0  0  0  0  0
   -3.7590   -1.4376    0.6918 H   0  0  0  0  0  0  0  0  0  0  0  0
    4.2093    3.0610   -0.6365 H   0  0  0  0  0  0  0  0  0  0  0  0
    8.1510    0.5045    0.9648 H   0  0  0  0  0  0  0  0  0  0  0  0
    6.3085    4.2358   -0.0770 H   0  0  0  0  0  0  0  0  0  0  0  0
    8.2763    2.9587    0.7245 H   0  0  0  0  0  0  0  0  0  0  0  0
   -4.2680    1.4812   -1.4308 H   0  0  0  0  0  0  0  0  0  0  0  0
   -8.2225   -0.1134    1.1050 H   0  0  0  0  0  0  0  0  0  0  0  0
   -6.4302    2.5499   -1.7597 H   0  0  0  0  0  0  0  0  0  0  0  0
   -6.9538   -1.6679    2.2671 H   0  0  0  0  0  0  0  0  0  0  0  0
   -5.2517   -1.2867    2.5045 H   0  0  0  0  0  0  0  0  0  0  0  0
   -5.7519   -2.4323    1.2252 H   0  0  0  0  0  0  0  0  0  0  0  0
   -9.3828    1.9427    0.3615 H   0  0  0  0  0  0  0  0  0  0  0  0
   -9.3500    1.4006   -1.3337 H   0  0  0  0  0  0  0  0  0  0  0  0
   -8.6757    2.9805   -0.8727 H   0  0  0  0  0  0  0  0  0  0  0  0
  1 12  2  0  0  0  0
  2 14  2  0  0  0  0
  3  9  1  0  0  0  0
  3 10  1  0  0  0  0
  3 12  1  0  0  0  0
  4 11  1  0  0  0  0
  4 16  1  0  0  0  0
  4 42  1  0  0  0  0
  5 14  1  0  0  0  0
  5 20  1  0  0  0  0
  5 45  1  0  0  0  0
  6  7  1  0  0  0  0
  6  8  1  0  0  0  0
  6 14  1  0  0  0  0
  6 30  1  0  0  0  0
  7  9  1  0  0  0  0
  7 31  1  0  0  0  0
  7 32  1  0  0  0  0
  8 10  1  0  0  0  0
  8 33  1  0  0  0  0
  8 34  1  0  0  0  0
  9 35  1  0  0  0  0
  9 36  1  0  0  0  0
 10 37  1  0  0  0  0
 10 38  1  0  0  0  0
 11 12  1  0  0  0  0
 11 13  1  0  0  0  0
 11 39  1  0  0  0  0
 13 15  1  0  0  0  0
 13 40  1  0  0  0  0
 13 41  1  0  0  0  0
 15 17  1  0  0  0  0
 15 18  2  0  0  0  0
 16 17  1  0  0  0  0
 16 43  1  0  0  0  0
 16 44  1  0  0  0  0
 17 19  2  0  0  0  0
 18 21  1  0  0  0  0
 18 46  1  0  0  0  0
 19 22  1  0  0  0  0
 19 47  1  0  0  0  0
 20 23  2  0  0  0  0
 20 24  1  0  0  0  0
 21 22  2  0  0  0  0
 21 48  1  0  0  0  0
 22 49  1  0  0  0  0
 23 25  1  0  0  0  0
 23 28  1  0  0  0  0
 24 26  2  0  0  0  0
 24 50  1  0  0  0  0
 25 27  2  0  0  0  0
 25 51  1  0  0  0  0
 26 27  1  0  0  0  0
 26 52  1  0  0  0  0
 27 29  1  0  0  0  0
 28 53  1  0  0  0  0
 28 54  1  0  0  0  0
 28 55  1  0  0  0  0
 29 56  1  0  0  0  0
 29 57  1  0  0  0  0
 29 58  1  0  0  0  0
M  END
> <PUBCHEM_COMPOUND_CID>
7596411

> <PUBCHEM_CONFORMER_RMSD>
0.8

> <PUBCHEM_CONFORMER_DIVERSEORDER>
1
61
96
91
109
44
200
93
144
175
234
160
22
63
19
202
36
240
171
237
134
23
42
166
52
226
37
159
148
170
8
176
106
194
76
9
31
162
172
130
79
17
205
150
244
34
105
55
88
104
223
81
128
151
142
123
169
168
179
85
77
118
99
227
101
136
114
74
215
221
201
47
145
24
53
40
121
195
131
51
21
80
161
59
222
149
25
95
90
89
49
218
87
126
111
48
196
173
117
177
43
72
71
231
206
65
154
225
7
26
208
50
73
229
178
16
217
46
2
143
180
70
75
30
56
39
10
67
230
141
186
219
213
187
15
58
157
241
214
82
100
232
188
116
156
236
11
239
32
28
62
210
108
13
235
137
119
193
191
146
242
245
129
132
4
3
57
183
174
189
192
140
228
41
224
113
133
147
66
107
185
164
78
243
220
94
138
20
216
135
152
238
33
45
127
120
92
69
153
190
27
35
233
103
14
98
115
54
122
204
197
110
64
199
6
124
184
139
181
167
212
125
203
38
83
68
112
207
209
155
182
86
165
5
97
102
29
163
18
60
84
211
198
12
158

> <PUBCHEM_MMFF94_PARTIAL_CHARGES>
36
1 -0.57
10 0.3
11 0.33
12 0.57
13 0.14
14 0.57
15 -0.14
16 0.41
17 -0.14
18 -0.15
19 -0.15
2 -0.57
20 0.12
21 -0.15
22 -0.15
23 -0.14
24 -0.15
25 -0.15
26 -0.15
27 -0.14
28 0.14
29 0.14
3 -0.66
4 -0.9
42 0.36
45 0.37
46 0.15
47 0.15
48 0.15
49 0.15
5 -0.55
50 0.15
51 0.15
52 0.15
6 0.06
9 0.3

> <PUBCHEM_EFFECTIVE_ROTOR_COUNT>
7

> <PUBCHEM_PHARMACOPHORE_FEATURES>
9
1 1 acceptor
1 2 acceptor
1 4 cation
1 4 donor
1 5 donor
6 15 17 18 19 21 22 rings
6 20 23 24 25 26 27 rings
6 3 6 7 8 9 10 rings
6 4 11 13 15 16 17 rings

> <PUBCHEM_HEAVY_ATOM_COUNT>
29

> <PUBCHEM_ATOM_DEF_STEREO_COUNT>
1

> <PUBCHEM_ATOM_UDEF_STEREO_COUNT>
0

> <PUBCHEM_BOND_DEF_STEREO_COUNT>
0

> <PUBCHEM_BOND_UDEF_STEREO_COUNT>
0

> <PUBCHEM_ISOTOPIC_ATOM_COUNT>
0

> <PUBCHEM_COMPONENT_COUNT>
1

> <PUBCHEM_CACTVS_TAUTO_COUNT>
2

> <PUBCHEM_CONFORMER_ID>
0073E97B00000001

> <PUBCHEM_MMFF94_ENERGY>
82.2528

> <PUBCHEM_FEATURE_SELFOVERLAP>
45.694

> <PUBCHEM_SHAPE_FINGERPRINT>
10 15 18260267468606229682
10411042 1 17907297651462149966
10554248 39 17703793578765003614
10673678 19 18342461465068036942
10835480 77 18409167689032754401
11135609 127 18343293786749070072
11211813 74 18340201900349827525
11315181 36 18273215280177822921
125118 31 18259988166930761900
12522641 24 17749943354911709178
12592606 108 8502366733671182617
12838862 33 18131338740182875920
13150687 139 17561094613980264814
13617811 41 15123790682312423488
13668630 136 11815892358325961081
13911987 19 17775286054444549119
14117953 113 18343588443592374748
14142895 15 18341890831750367909
14251757 52 18408037403326122913
14294032 229 18058448888461786582
14565420 104 18186799171423224282
14659021 117 18044098072019595379
14767858 380 17418376887074956251
150020 25 18335424534747189047
15183329 4 16271927121015809033
15419008 145 18041827408508669768
1577012 14 18341888632574508222
15840311 113 18409449163307819718
15890870 6 18411983590152049460
16989713 51 17416114209006715311
16994733 274 18335978761236910688
17134984 74 11887959843974778884
17686467 74 18113900490614670601
18335252 114 18060701685081832692
19302320 297 18188486991198504228
19319366 153 17917143905698057519
20157964 124 18413672401156991742
2026 5 9727639401815520397
20715895 44 18412825802920478596
20721686 124 18272090453586621830
21033648 29 17676491656953634570
21150785 3 17774997982550754077
21298829 104 18339921636479911596
21521721 280 18343025480020705019
22956985 138 13192273022984587584
23081809 10 16558474080736642467
23522609 53 16988020297091771923
23569943 247 10735063623007155500
23576562 1 16558170752818591329
24771293 8 18114181981574148749
25269216 80 16271352145212085965
2838139 119 18337382829438854980
306946 40 17313371298774428269
33532 11 9079112259037592761
34797466 226 18271527490436028879
3534868 343 17273991138151856630
397830 11 18261966240110479683
4073 2 18187368761211462419
4169191 19 18272375257077784801
4403749 210 18409448124860235123
444735 82 18333455343412939373
445580 126 18343014506932852960
504843 32 17917147312113662175
59682541 35 18114187462579892803
6327066 14 18270962457576417180
636775 72 18262798459719872669

> <PUBCHEM_SHAPE_MULTIPOLES>
570.12
26.06
2.91
1.11
17.88
0.69
-0.05
19.5
-1.94
-3.57
0.59
0.74
-0.42
2.33

> <PUBCHEM_SHAPE_SELFOVERLAP>
1224.147

> <PUBCHEM_SHAPE_VOLUME>
312.3

> <PUBCHEM_COORDINATE_TYPE>
2
5
10

$$$$
