6470599
  -OEChem-01171812103D

 33 34  0     0  0  0  0  0  0999 V2000
    4.8972   -0.7287   -1.4749 Cl  0  0  0  0  0  0  0  0  0  0  0  0
   -0.6320   -1.7645   -0.0590 S   0  0  0  0  0  0  0  0  0  0  0  0
   -1.2886   -2.8764    0.6017 O   0  0  0  0  0  0  0  0  0  0  0  0
    0.0296   -1.9552   -1.3357 O   0  0  0  0  0  0  0  0  0  0  0  0
    0.4176   -0.9918    1.0240 N   0  0  0  0  0  0  0  0  0  0  0  0
   -3.0430    1.0489   -1.0942 N   0  0  0  0  0  0  0  0  0  0  0  0
   -3.5118    0.9006    0.1565 N   0  0  0  0  0  0  0  0  0  0  0  0
   -1.8428   -0.4939   -0.2805 C   0  0  0  0  0  0  0  0  0  0  0  0
   -2.7455   -0.0737    0.6541 C   0  0  0  0  0  0  0  0  0  0  0  0
    1.5342   -0.1932    0.6237 C   0  0  0  0  0  0  0  0  0  0  0  0
   -2.0143    0.2071   -1.4006 C   0  0  0  0  0  0  0  0  0  0  0  0
    1.6167    1.1518    0.9846 C   0  0  0  0  0  0  0  0  0  0  0  0
   -2.9622   -0.5286    2.0389 C   0  0  0  0  0  0  0  0  0  0  0  0
    2.5481   -0.7745   -0.1377 C   0  0  0  0  0  0  0  0  0  0  0  0
   -3.6323    2.0344   -1.9688 C   0  0  0  0  0  0  0  0  0  0  0  0
    2.7129    1.9154    0.5839 C   0  0  0  0  0  0  0  0  0  0  0  0
    0.5451    1.7989    1.7999 C   0  0  0  0  0  0  0  0  0  0  0  0
    3.6445   -0.0108   -0.5383 C   0  0  0  0  0  0  0  0  0  0  0  0
    3.7267    1.3342   -0.1777 C   0  0  0  0  0  0  0  0  0  0  0  0
    0.0259   -0.7400    1.9395 H   0  0  0  0  0  0  0  0  0  0  0  0
   -1.5330    0.2098   -2.3688 H   0  0  0  0  0  0  0  0  0  0  0  0
   -3.7816    0.0172    2.5195 H   0  0  0  0  0  0  0  0  0  0  0  0
   -3.2197   -1.5919    2.0638 H   0  0  0  0  0  0  0  0  0  0  0  0
   -2.0666   -0.3736    2.6473 H   0  0  0  0  0  0  0  0  0  0  0  0
    2.5001   -1.8278   -0.4040 H   0  0  0  0  0  0  0  0  0  0  0  0
   -3.5117    3.0182   -1.5085 H   0  0  0  0  0  0  0  0  0  0  0  0
   -3.1278    2.0110   -2.9378 H   0  0  0  0  0  0  0  0  0  0  0  0
   -4.6912    1.7944   -2.0929 H   0  0  0  0  0  0  0  0  0  0  0  0
    2.7930    2.9645    0.8559 H   0  0  0  0  0  0  0  0  0  0  0  0
    0.4231    1.2869    2.7598 H   0  0  0  0  0  0  0  0  0  0  0  0
    0.7840    2.8444    2.0247 H   0  0  0  0  0  0  0  0  0  0  0  0
   -0.4050    1.7962    1.2586 H   0  0  0  0  0  0  0  0  0  0  0  0
    4.5753    1.9413   -0.4826 H   0  0  0  0  0  0  0  0  0  0  0  0
  1 18  1  0  0  0  0
  2  3  2  0  0  0  0
  2  4  2  0  0  0  0
  2  5  1  0  0  0  0
  2  8  1  0  0  0  0
  5 10  1  0  0  0  0
  5 20  1  0  0  0  0
  6  7  1  0  0  0  0
  6 11  1  0  0  0  0
  6 15  1  0  0  0  0
  7  9  2  0  0  0  0
  8  9  1  0  0  0  0
  8 11  2  0  0  0  0
  9 13  1  0  0  0  0
 10 12  2  0  0  0  0
 10 14  1  0  0  0  0
 11 21  1  0  0  0  0
 12 16  1  0  0  0  0
 12 17  1  0  0  0  0
 13 22  1  0  0  0  0
 13 23  1  0  0  0  0
 13 24  1  0  0  0  0
 14 18  2  0  0  0  0
 14 25  1  0  0  0  0
 15 26  1  0  0  0  0
 15 27  1  0  0  0  0
 15 28  1  0  0  0  0
 16 19  2  0  0  0  0
 16 29  1  0  0  0  0
 17 30  1  0  0  0  0
 17 31  1  0  0  0  0
 17 32  1  0  0  0  0
 18 19  1  0  0  0  0
 19 33  1  0  0  0  0
M  END
> <PUBCHEM_COMPOUND_CID>
6470599

> <PUBCHEM_CONFORMER_RMSD>
0.6

> <PUBCHEM_CONFORMER_DIVERSEORDER>
1
3
27
24
11
26
8
28
9
15
20
14
22
12
19
13
4
5
2
6
21
25
16
23
17
7
10
18
29

> <PUBCHEM_MMFF94_PARTIAL_CHARGES>
24
1 -0.18
10 0.2
11 -0.3
12 -0.14
13 0.18
14 -0.15
15 0.26
16 -0.15
17 0.14
18 0.18
19 -0.15
2 1.5
20 0.42
21 0.15
25 0.15
29 0.15
3 -0.65
33 0.15
4 -0.65
5 -0.76
6 0.31
7 -0.71
8 -0.06
9 0.11

> <PUBCHEM_EFFECTIVE_ROTOR_COUNT>
3

> <PUBCHEM_PHARMACOPHORE_FEATURES>
6
1 3 acceptor
1 4 acceptor
1 5 donor
1 7 acceptor
5 6 7 8 9 11 rings
6 10 12 14 16 18 19 rings

> <PUBCHEM_HEAVY_ATOM_COUNT>
19

> <PUBCHEM_ATOM_DEF_STEREO_COUNT>
0

> <PUBCHEM_ATOM_UDEF_STEREO_COUNT>
0

> <PUBCHEM_BOND_DEF_STEREO_COUNT>
0

> <PUBCHEM_BOND_UDEF_STEREO_COUNT>
0

> <PUBCHEM_ISOTOPIC_ATOM_COUNT>
0

> <PUBCHEM_COMPONENT_COUNT>
1

> <PUBCHEM_CACTVS_TAUTO_COUNT>
1

> <PUBCHEM_CONFORMER_ID>
0062BBC700000001

> <PUBCHEM_MMFF94_ENERGY>
46.5015

> <PUBCHEM_FEATURE_SELFOVERLAP>
30.464

> <PUBCHEM_SHAPE_FINGERPRINT>
10062212 137 15984829198595608615
10165383 225 18261406502813077317
10366900 7 17603871143237819507
104564 63 17914905231557051360
10498660 4 18114164329438131021
12011746 2 18187086178628554283
12553582 1 18059587836826842386
12623949 98 17482302660560698590
13294875 104 18194932246022068618
13693222 15 11025786618014963960
13764800 53 17821722840963184057
14289901 80 16660370285230984064
14341114 328 15140968339567218972
14386348 128 18409445929202908441
14787075 74 14928205332000018727
16752209 62 18129379289923142920
16945 1 18411134723618864386
17834072 14 11095887038347833306
18186145 218 18413389843373587008
18219364 16 18412265051468041179
18981168 100 18042665360162794518
20645477 56 18338237201465765016
20645477 70 17703800240817902942
21069387 34 15985100825565536022
21524375 3 18339627993417564167
21756936 100 15502385551801969620
21864079 5 17459187542142335460
22802520 49 18127126596561055296
23402539 116 17631741461210719280
23493267 7 17603582989302367041
23503958 25 17968099750016481220
238 59 18126539311349406317
25 1 18271243824556504871
2637199 183 18338796710934136741
27216 239 17967809492084656329
2748010 2 18057601177923175842
5161694 15 18272654562742199684
6049 1 18197783417048580346
6287921 2 17755876559809606316
7226269 152 18341040862144265416
7399639 24 17335616892140126706
74978 22 17632010982860811706
7808743 9 17095526141007784101
81228 2 17831856129003615411
9882013 296 12540695950836372510

> <PUBCHEM_SHAPE_MULTIPOLES>
370.05
7.68
2.29
1.79
3.69
0.41
0.09
-1.96
3.08
-0.35
-0.03
-1.25
-0.49
1.85

> <PUBCHEM_SHAPE_SELFOVERLAP>
763.785

> <PUBCHEM_SHAPE_VOLUME>
216

> <PUBCHEM_COORDINATE_TYPE>
2
5
10

$$$$
