2938230
  -OEChem-01171811403D

 36 38  0     1  0  0  0  0  0999 V2000
    6.2652   -0.5849   -0.6764 F   0  0  0  0  0  0  0  0  0  0  0  0
   -0.6512    3.7186    0.6680 O   0  0  0  0  0  0  0  0  0  0  0  0
    0.3708   -0.8030    1.4664 O   0  0  0  0  0  0  0  0  0  0  0  0
   -3.2244    1.8031   -0.6999 N   0  0  0  0  0  0  0  0  0  0  0  0
   -2.6248    3.0014   -0.3542 N   0  0  0  0  0  0  0  0  0  0  0  0
    0.2082    1.0622    0.0958 N   0  0  0  0  0  0  0  0  0  0  0  0
   -2.1326    0.8118   -0.6974 C   0  0  1  0  0  0  0  0  0  0  0  0
   -1.1686    1.3550    0.3636 C   0  0  2  0  0  0  0  0  0  0  0  0
   -2.6114   -0.5942   -0.4229 C   0  0  0  0  0  0  0  0  0  0  0  0
   -1.3935    2.8405    0.2572 C   0  0  0  0  0  0  0  0  0  0  0  0
   -1.8974   -1.6864   -0.9199 C   0  0  0  0  0  0  0  0  0  0  0  0
   -3.7688   -0.8055    0.3289 C   0  0  0  0  0  0  0  0  0  0  0  0
    0.8790   -0.0105    0.6777 C   0  0  0  0  0  0  0  0  0  0  0  0
   -2.3393   -2.9848   -0.6662 C   0  0  0  0  0  0  0  0  0  0  0  0
   -4.2105   -2.1042    0.5826 C   0  0  0  0  0  0  0  0  0  0  0  0
    2.3121   -0.1634    0.3175 C   0  0  0  0  0  0  0  0  0  0  0  0
   -3.4957   -3.1938    0.0850 C   0  0  0  0  0  0  0  0  0  0  0  0
    3.1609   -0.7839    1.2102 C   0  0  0  0  0  0  0  0  0  0  0  0
    2.7484    0.3201   -0.8987 C   0  0  0  0  0  0  0  0  0  0  0  0
    4.5065   -0.9274    0.8719 C   0  0  0  0  0  0  0  0  0  0  0  0
    4.0940    0.1766   -1.2372 C   0  0  0  0  0  0  0  0  0  0  0  0
    4.9732   -0.4473   -0.3518 C   0  0  0  0  0  0  0  0  0  0  0  0
   -1.6587    0.8378   -1.6901 H   0  0  0  0  0  0  0  0  0  0  0  0
   -1.4385    1.0375    1.3786 H   0  0  0  0  0  0  0  0  0  0  0  0
   -3.6005    1.8983   -1.6424 H   0  0  0  0  0  0  0  0  0  0  0  0
   -3.0664    3.8903   -0.5571 H   0  0  0  0  0  0  0  0  0  0  0  0
    0.7061    1.7101   -0.5054 H   0  0  0  0  0  0  0  0  0  0  0  0
   -0.9949   -1.5375   -1.5068 H   0  0  0  0  0  0  0  0  0  0  0  0
   -4.3405    0.0188    0.7458 H   0  0  0  0  0  0  0  0  0  0  0  0
   -1.7825   -3.8333   -1.0532 H   0  0  0  0  0  0  0  0  0  0  0  0
   -5.1087   -2.2675    1.1709 H   0  0  0  0  0  0  0  0  0  0  0  0
   -3.8391   -4.2049    0.2835 H   0  0  0  0  0  0  0  0  0  0  0  0
    2.8149   -1.1586    2.1689 H   0  0  0  0  0  0  0  0  0  0  0  0
    2.0913    0.7784   -1.6302 H   0  0  0  0  0  0  0  0  0  0  0  0
    5.1916   -1.4119    1.5614 H   0  0  0  0  0  0  0  0  0  0  0  0
    4.4566    0.5431   -2.1931 H   0  0  0  0  0  0  0  0  0  0  0  0
  1 22  1  0  0  0  0
  2 10  2  0  0  0  0
  3 13  2  0  0  0  0
  4  5  1  0  0  0  0
  4  7  1  0  0  0  0
  4 25  1  0  0  0  0
  5 10  1  0  0  0  0
  5 26  1  0  0  0  0
  6  8  1  0  0  0  0
  6 13  1  0  0  0  0
  6 27  1  0  0  0  0
  7  8  1  0  0  0  0
  7  9  1  0  0  0  0
  7 23  1  0  0  0  0
  8 10  1  0  0  0  0
  8 24  1  0  0  0  0
  9 11  2  0  0  0  0
  9 12  1  0  0  0  0
 11 14  1  0  0  0  0
 11 28  1  0  0  0  0
 12 15  2  0  0  0  0
 12 29  1  0  0  0  0
 13 16  1  0  0  0  0
 14 17  2  0  0  0  0
 14 30  1  0  0  0  0
 15 17  1  0  0  0  0
 15 31  1  0  0  0  0
 16 18  2  0  0  0  0
 16 19  1  0  0  0  0
 17 32  1  0  0  0  0
 18 20  1  0  0  0  0
 18 33  1  0  0  0  0
 19 21  2  0  0  0  0
 19 34  1  0  0  0  0
 20 22  2  0  0  0  0
 20 35  1  0  0  0  0
 21 22  1  0  0  0  0
 21 36  1  0  0  0  0
M  END
> <PUBCHEM_COMPOUND_CID>
2938230

> <PUBCHEM_CONFORMER_RMSD>
0.8

> <PUBCHEM_CONFORMER_DIVERSEORDER>
1
7
23
14
21
17
15
18
19
4
13
16
26
5
27
6
25
20
12
22
9
8
24
3
11
10
2

> <PUBCHEM_MMFF94_PARTIAL_CHARGES>
34
1 -0.19
10 0.57
11 -0.15
12 -0.15
13 0.54
14 -0.15
15 -0.15
16 0.09
17 -0.15
18 -0.15
19 -0.15
2 -0.57
20 -0.15
21 -0.15
22 0.19
25 0.36
26 0.37
27 0.37
28 0.15
29 0.15
3 -0.57
30 0.15
31 0.15
32 0.15
33 0.15
34 0.15
35 0.15
36 0.15
4 -0.64
5 -0.42
6 -0.73
7 0.41
8 0.36
9 -0.14

> <PUBCHEM_EFFECTIVE_ROTOR_COUNT>
4.8

> <PUBCHEM_PHARMACOPHORE_FEATURES>
8
1 2 acceptor
1 3 acceptor
1 4 donor
1 5 donor
1 6 donor
5 4 5 7 8 10 rings
6 16 18 19 20 21 22 rings
6 9 11 12 14 15 17 rings

> <PUBCHEM_HEAVY_ATOM_COUNT>
22

> <PUBCHEM_ATOM_DEF_STEREO_COUNT>
0

> <PUBCHEM_ATOM_UDEF_STEREO_COUNT>
2

> <PUBCHEM_BOND_DEF_STEREO_COUNT>
0

> <PUBCHEM_BOND_UDEF_STEREO_COUNT>
0

> <PUBCHEM_ISOTOPIC_ATOM_COUNT>
0

> <PUBCHEM_COMPONENT_COUNT>
1

> <PUBCHEM_CACTVS_TAUTO_COUNT>
6

> <PUBCHEM_CONFORMER_ID>
002CD57600000001

> <PUBCHEM_MMFF94_ENERGY>
57.267

> <PUBCHEM_FEATURE_SELFOVERLAP>
42.094

> <PUBCHEM_SHAPE_FINGERPRINT>
10369192 42 16912263078402740992
10616163 171 18410291385078503478
107951 10 18055638309096783917
11045515 52 18040715904535534093
11056379 131 18411706448137567796
11370993 144 17060625498937972666
12173636 292 18052247397825212189
12236239 1 17894630318586627428
12553582 1 18338507664099271619
12714826 92 18273495675809558171
12788726 201 18335997431454438618
13167823 11 18260829272452417666
13583140 156 17774142528018278074
14251751 93 18336265660921281310
14251757 5 18334579095894175410
14251764 30 18117288166637918707
14790565 3 18124035620574222729
15042514 8 18410858733352209785
16752209 62 18266438976329135967
17492 89 18408323259644819946
1813 80 18198914797344423975
200 152 17894914057285624154
20291156 8 18336263564982171327
20775438 99 16968841854565813651
21634736 98 18261392316420203548
22950370 63 18265341783736254195
2297311 6 18412553127688562742
23402539 116 18259985955628746198
23557571 272 18272934895194513724
23559900 14 18341321254457264952
23598288 3 18335977580437603311
238078 22 18410296938338939225
4409770 3 18336540539418484669
4921388 177 18271531892424118076
57527573 199 16125882204576836747
633830 44 16588875551527053690
7164475 11 18408604760417214390
7970288 3 18267021845830329543
84936 182 10667152309166563247

> <PUBCHEM_SHAPE_MULTIPOLES>
418.79
10.05
3.54
1.11
12.47
2.08
0.04
-5.93
-1.19
-5.34
0.13
0.62
-0.18
-0.11

> <PUBCHEM_SHAPE_SELFOVERLAP>
912.713

> <PUBCHEM_SHAPE_VOLUME>
228.2

> <PUBCHEM_COORDINATE_TYPE>
2
5
10

$$$$
