9605336
  -OEChem-01171811403D

 45 47  0     1  0  0  0  0  0999 V2000
    0.3441    0.6271   -1.3996 O   0  0  0  0  0  0  0  0  0  0  0  0
    2.4648    1.8866   -0.1838 N   0  0  0  0  0  0  0  0  0  0  0  0
   -1.0711    1.6215    0.1427 N   0  0  0  0  0  0  0  0  0  0  0  0
   -2.0945    0.7883   -0.1535 N   0  0  0  0  0  0  0  0  0  0  0  0
   -4.2966   -0.7635   -0.5740 N   0  0  0  0  0  0  0  0  0  0  0  0
    1.1715    2.4799   -0.0778 C   0  0  1  0  0  0  0  0  0  0  0  0
    2.8198    0.6984    0.5010 C   0  0  0  0  0  0  0  0  0  0  0  0
    3.7661   -0.1975   -0.0227 C   0  0  0  0  0  0  0  0  0  0  0  0
    4.0842   -1.3703    0.7027 C   0  0  0  0  0  0  0  0  0  0  0  0
    2.1957    0.4414    1.7222 C   0  0  0  0  0  0  0  0  0  0  0  0
    1.1110    3.7402   -0.9291 C   0  0  0  0  0  0  0  0  0  0  0  0
    4.4040    0.0449   -1.2503 C   0  0  0  0  0  0  0  0  0  0  0  0
    3.4467   -1.6127    1.9305 C   0  0  0  0  0  0  0  0  0  0  0  0
    0.1275    1.4724   -0.5334 C   0  0  0  0  0  0  0  0  0  0  0  0
    2.5088   -0.7117    2.4356 C   0  0  0  0  0  0  0  0  0  0  0  0
    5.0306   -2.2662    0.1793 C   0  0  0  0  0  0  0  0  0  0  0  0
    5.3416   -0.8562   -1.7554 C   0  0  0  0  0  0  0  0  0  0  0  0
    5.6543   -2.0096   -1.0420 C   0  0  0  0  0  0  0  0  0  0  0  0
   -4.3735    0.2171    0.3530 C   0  0  0  0  0  0  0  0  0  0  0  0
   -3.1690    1.0104    0.5331 C   0  0  0  0  0  0  0  0  0  0  0  0
   -5.4100   -1.5094   -0.7523 C   0  0  0  0  0  0  0  0  0  0  0  0
   -5.5046    0.4862    1.1061 C   0  0  0  0  0  0  0  0  0  0  0  0
   -6.5900   -1.3216   -0.0509 C   0  0  0  0  0  0  0  0  0  0  0  0
   -6.6300   -0.3026    0.8942 C   0  0  0  0  0  0  0  0  0  0  0  0
   -5.3314   -2.5931   -1.7755 C   0  0  0  0  0  0  0  0  0  0  0  0
    0.9731    2.7896    0.9547 H   0  0  0  0  0  0  0  0  0  0  0  0
    3.0711    2.2050   -0.9285 H   0  0  0  0  0  0  0  0  0  0  0  0
    1.4737    1.1190    2.1662 H   0  0  0  0  0  0  0  0  0  0  0  0
    0.1286    4.2183   -0.8511 H   0  0  0  0  0  0  0  0  0  0  0  0
    1.8700    4.4647   -0.6142 H   0  0  0  0  0  0  0  0  0  0  0  0
    1.2828    3.5152   -1.9883 H   0  0  0  0  0  0  0  0  0  0  0  0
    4.1965    0.9203   -1.8578 H   0  0  0  0  0  0  0  0  0  0  0  0
    3.6766   -2.5072    2.5057 H   0  0  0  0  0  0  0  0  0  0  0  0
    2.0262   -0.9096    3.3883 H   0  0  0  0  0  0  0  0  0  0  0  0
    5.2904   -3.1740    0.7197 H   0  0  0  0  0  0  0  0  0  0  0  0
    5.8265   -0.6587   -2.7072 H   0  0  0  0  0  0  0  0  0  0  0  0
    6.3840   -2.7110   -1.4361 H   0  0  0  0  0  0  0  0  0  0  0  0
   -1.2187    2.3336    0.8513 H   0  0  0  0  0  0  0  0  0  0  0  0
   -3.2158    1.8172    1.2883 H   0  0  0  0  0  0  0  0  0  0  0  0
   -5.5280    1.2832    1.8417 H   0  0  0  0  0  0  0  0  0  0  0  0
   -7.4616   -1.9434   -0.2252 H   0  0  0  0  0  0  0  0  0  0  0  0
   -7.5365   -0.1235    1.4646 H   0  0  0  0  0  0  0  0  0  0  0  0
   -5.5128   -3.5681   -1.3121 H   0  0  0  0  0  0  0  0  0  0  0  0
   -4.3421   -2.6208   -2.2439 H   0  0  0  0  0  0  0  0  0  0  0  0
   -6.0731   -2.4274   -2.5633 H   0  0  0  0  0  0  0  0  0  0  0  0
  1 14  2  0  0  0  0
  2  6  1  0  0  0  0
  2  7  1  0  0  0  0
  2 27  1  0  0  0  0
  3  4  1  0  0  0  0
  3 14  1  0  0  0  0
  3 38  1  0  0  0  0
  4 20  2  0  0  0  0
  5 19  1  0  0  0  0
  5 21  2  0  0  0  0
  6 11  1  0  0  0  0
  6 14  1  0  0  0  0
  6 26  1  0  0  0  0
  7  8  1  0  0  0  0
  7 10  2  0  0  0  0
  8  9  1  0  0  0  0
  8 12  2  0  0  0  0
  9 13  1  0  0  0  0
  9 16  2  0  0  0  0
 10 15  1  0  0  0  0
 10 28  1  0  0  0  0
 11 29  1  0  0  0  0
 11 30  1  0  0  0  0
 11 31  1  0  0  0  0
 12 17  1  0  0  0  0
 12 32  1  0  0  0  0
 13 15  2  0  0  0  0
 13 33  1  0  0  0  0
 15 34  1  0  0  0  0
 16 18  1  0  0  0  0
 16 35  1  0  0  0  0
 17 18  2  0  0  0  0
 17 36  1  0  0  0  0
 18 37  1  0  0  0  0
 19 20  1  0  0  0  0
 19 22  2  0  0  0  0
 20 39  1  0  0  0  0
 21 23  1  0  0  0  0
 21 25  1  0  0  0  0
 22 24  1  0  0  0  0
 22 40  1  0  0  0  0
 23 24  2  0  0  0  0
 23 41  1  0  0  0  0
 24 42  1  0  0  0  0
 25 43  1  0  0  0  0
 25 44  1  0  0  0  0
 25 45  1  0  0  0  0
M  END
> <PUBCHEM_COMPOUND_CID>
9605336

> <PUBCHEM_CONFORMER_RMSD>
0.8

> <PUBCHEM_CONFORMER_DIVERSEORDER>
2
119
5
86
174
62
192
49
24
38
177
141
171
32
183
142
164
98
101
182
25
122
29
3
152
233
153
21
170
52
56
175
84
17
136
34
151
87
179
162
216
144
210
238
33
163
77
76
212
158
68
127
126
93
71
224
148
79
59
15
201
99
221
89
204
69
125
139
112
211
14
155
236
97
63
184
111
57
172
96
104
108
100
8
135
223
213
219
4
41
194
88
35
138
78
42
19
208
73
118
75
115
237
26
222
47
22
197
80
30
1
187
113
82
227
205
143
114
67
7
209
102
173
18
190
157
145
226
106
28
150
53
36
9
203
132
81
130
134
44
207
46
188
11
159
66
95
229
161
131
116
64
156
72
230
70
235
37
140
94
234
133
217
146
166
214
137
191
10
220
193
165
121
74
198
202
128
40
196
154
199
27
12
43
110
129
218
31
117
185
123
54
61
55
16
45
232
147
103
231
178
169
120
83
195
149
105
181
50
228
58
13
91
225
60
168
200
215
206
51
23
160
20
85
39
176
124
92
186
109
180
167
6
48
107
90
65
189

> <PUBCHEM_MMFF94_PARTIAL_CHARGES>
35
1 -0.57
10 -0.15
12 -0.15
13 -0.15
14 0.57
15 -0.15
16 -0.15
17 -0.15
18 -0.15
19 0.4
2 -0.87
20 0.3
21 0.17
22 -0.15
23 -0.15
24 -0.15
25 0.14
27 0.4
28 0.15
3 -0.37
32 0.15
33 0.15
34 0.15
35 0.15
36 0.15
37 0.15
38 0.37
39 0.06
4 -0.51
40 0.15
41 0.15
42 0.15
5 -0.62
6 0.43
7 0.1

> <PUBCHEM_EFFECTIVE_ROTOR_COUNT>
6

> <PUBCHEM_PHARMACOPHORE_FEATURES>
9
1 1 acceptor
1 2 cation
1 2 donor
1 3 donor
1 4 acceptor
1 5 acceptor
6 5 19 21 22 23 24 rings
6 7 8 9 10 13 15 rings
6 8 9 12 16 17 18 rings

> <PUBCHEM_HEAVY_ATOM_COUNT>
25

> <PUBCHEM_ATOM_DEF_STEREO_COUNT>
0

> <PUBCHEM_ATOM_UDEF_STEREO_COUNT>
1

> <PUBCHEM_BOND_DEF_STEREO_COUNT>
1

> <PUBCHEM_BOND_UDEF_STEREO_COUNT>
0

> <PUBCHEM_ISOTOPIC_ATOM_COUNT>
0

> <PUBCHEM_COMPONENT_COUNT>
1

> <PUBCHEM_CACTVS_TAUTO_COUNT>
2

> <PUBCHEM_CONFORMER_ID>
009290D800000002

> <PUBCHEM_MMFF94_ENERGY>
80.4612

> <PUBCHEM_FEATURE_SELFOVERLAP>
45.708

> <PUBCHEM_SHAPE_FINGERPRINT>
10042902 136 18342736329699864583
10319926 262 16988850458329920625
10622 236 17171221924933695266
10928967 22 18262221266620623875
11069576 57 17024296436687550402
11315621 136 18116999003521502379
11545043 162 17703789172170489305
11991303 11 17171224124373987669
12107183 9 18269001891021853009
12166972 35 18272656766092337649
12422481 6 17060339634726024383
12592606 108 18410858768445288219
12596602 18 17703788128239975746
12633257 1 14549008884217225176
13533116 47 18336828705849214953
1361 4 18051412066137560663
13690498 29 18114464457484097557
14251740 57 18272644688237878688
14251764 30 18129665188800830822
14767858 380 17749404641637553750
14931854 50 17458916937833436522
15001296 14 18190732232174635235
15188451 53 17632284701680590879
15348495 7 16415191308804180819
15537594 2 18040998449254311971
17134984 74 16950569912472766931
17349148 13 18342739641710291831
18222031 100 18409443678692818809
20028762 73 18201999941036233911
20715895 44 10303810973505738622
20775438 99 18262236746247072970
21774942 28 12540686012398607822
22061861 79 17385717015844162119
22950370 63 18336270037608818476
23016692 55 18335425629610421445
23522609 53 18049760427146312885
23559900 14 18341331201611792585
2748736 6 9295282824832369675
2838139 119 12468652659198016846
3004659 81 18411983589835369409
312425 54 17632857534127238363
314194 84 18186523189545563691
3472631 163 11025809703443178442
351380 3 18335422352903815651
46194498 28 15140974997024737207
465052 167 18343026570952557956
5085150 59 17060052697342574439
5104073 3 17489033777083610009
5372103 7 15286504196109507398
543368 44 7925912574332033751
57527585 21 14493040311280371422
58260988 587 17917144031322546160
7970288 3 18411416168283423246
960060 61 17240196629752670569

> <PUBCHEM_SHAPE_MULTIPOLES>
488.69
17.32
2.95
1.78
21.79
1.52
-0.46
-13.53
2.06
-1.14
1.13
-1.4
-0.71
-1.68

> <PUBCHEM_SHAPE_SELFOVERLAP>
1055.615

> <PUBCHEM_SHAPE_VOLUME>
267.5

> <PUBCHEM_COORDINATE_TYPE>
2
5
10

$$$$
