290794
  -OEChem-01171811543D

 20 21  0     0  0  0  0  0  0999 V2000
    0.4653   -0.7923   -0.5421 N   0  0  0  0  0  0  0  0  0  0  0  0
   -0.3347    1.7932    0.0860 N   0  0  0  0  0  0  0  0  0  0  0  0
    4.2022   -0.6761    1.2206 N   0  0  0  0  0  0  0  0  0  0  0  0
   -0.8145   -0.5282   -0.2258 C   0  0  0  0  0  0  0  0  0  0  0  0
   -1.2197    0.7810    0.0924 C   0  0  0  0  0  0  0  0  0  0  0  0
    1.3350    0.2340   -0.5428 C   0  0  0  0  0  0  0  0  0  0  0  0
   -1.7585   -1.5524   -0.2094 C   0  0  0  0  0  0  0  0  0  0  0  0
   -2.5538    1.0177    0.4152 C   0  0  0  0  0  0  0  0  0  0  0  0
    0.9407    1.5084   -0.2331 C   0  0  0  0  0  0  0  0  0  0  0  0
    2.7515   -0.0604   -0.8920 C   0  0  0  0  0  0  0  0  0  0  0  0
   -3.0912   -1.3048    0.1151 C   0  0  0  0  0  0  0  0  0  0  0  0
   -3.4905   -0.0143    0.4289 C   0  0  0  0  0  0  0  0  0  0  0  0
    3.5683   -0.4055    0.2870 C   0  0  0  0  0  0  0  0  0  0  0  0
   -1.4589   -2.5698   -0.4535 H   0  0  0  0  0  0  0  0  0  0  0  0
   -2.8810    2.0255    0.6634 H   0  0  0  0  0  0  0  0  0  0  0  0
    1.6241    2.3489   -0.2260 H   0  0  0  0  0  0  0  0  0  0  0  0
    3.1966    0.7943   -1.4158 H   0  0  0  0  0  0  0  0  0  0  0  0
    2.7791   -0.8947   -1.6040 H   0  0  0  0  0  0  0  0  0  0  0  0
   -3.8108   -2.1177    0.1219 H   0  0  0  0  0  0  0  0  0  0  0  0
   -4.5256    0.1920    0.6835 H   0  0  0  0  0  0  0  0  0  0  0  0
  1  4  1  0  0  0  0
  1  6  2  0  0  0  0
  2  5  1  0  0  0  0
  2  9  2  0  0  0  0
  3 13  3  0  0  0  0
  4  5  1  0  0  0  0
  4  7  2  0  0  0  0
  5  8  2  0  0  0  0
  6  9  1  0  0  0  0
  6 10  1  0  0  0  0
  7 11  1  0  0  0  0
  7 14  1  0  0  0  0
  8 12  1  0  0  0  0
  8 15  1  0  0  0  0
  9 16  1  0  0  0  0
 10 13  1  0  0  0  0
 10 17  1  0  0  0  0
 10 18  1  0  0  0  0
 11 12  2  0  0  0  0
 11 19  1  0  0  0  0
 12 20  1  0  0  0  0
M  END
> <PUBCHEM_COMPOUND_CID>
290794

> <PUBCHEM_CONFORMER_RMSD>
0.4

> <PUBCHEM_CONFORMER_DIVERSEORDER>
1
3
5
6
4
2

> <PUBCHEM_MMFF94_PARTIAL_CHARGES>
18
1 -0.62
10 0.34
11 -0.15
12 -0.15
13 0.36
14 0.15
15 0.15
16 0.15
19 0.15
2 -0.62
20 0.15
3 -0.56
4 0.31
5 0.31
6 0.17
7 -0.15
8 -0.15
9 0.16

> <PUBCHEM_EFFECTIVE_ROTOR_COUNT>
1

> <PUBCHEM_PHARMACOPHORE_FEATURES>
5
1 1 acceptor
1 2 acceptor
1 3 acceptor
6 1 2 4 5 6 9 rings
6 4 5 7 8 11 12 rings

> <PUBCHEM_HEAVY_ATOM_COUNT>
13

> <PUBCHEM_ATOM_DEF_STEREO_COUNT>
0

> <PUBCHEM_ATOM_UDEF_STEREO_COUNT>
0

> <PUBCHEM_BOND_DEF_STEREO_COUNT>
0

> <PUBCHEM_BOND_UDEF_STEREO_COUNT>
0

> <PUBCHEM_ISOTOPIC_ATOM_COUNT>
0

> <PUBCHEM_COMPONENT_COUNT>
1

> <PUBCHEM_CACTVS_TAUTO_COUNT>
2

> <PUBCHEM_CONFORMER_ID>
00046FEA00000001

> <PUBCHEM_MMFF94_ENERGY>
32.8839

> <PUBCHEM_FEATURE_SELFOVERLAP>
25.413

> <PUBCHEM_SHAPE_FINGERPRINT>
10130415 120 18335988643977724744
10857977 72 18273498974444629092
11132069 177 18271810094445689095
11401426 45 18272927211714156205
11543360 7 15719967958544894615
11769659 78 18187927330128890535
12032990 46 18341908388822566135
12251169 10 18272085011381872192
12382932 28 18271812289184533386
124424 183 18259981574445690607
14144814 61 18410300223994143366
15375462 189 18113617880606259250
16945 1 18342472417071247981
17804303 29 18343588434305711172
19026448 4 15769504157258447933
193761 8 17547021727789533957
21501502 16 18268718392545300589
21501925 9 18342173418364056542
232386 152 18410298038008764254
23380061 330 18272371983679364495
23402539 116 18201148898082867445
23463225 33 18408609170936898044
23552423 10 17975141147192780197
23559900 14 18129111039435521638
2748010 2 18198067078300866109
53812654 25 18272090534308907877
5902787 121 18337675329306424786
7364860 26 18055923340127560588
90316 7 18262516988024863392

> <PUBCHEM_SHAPE_MULTIPOLES>
252.59
6.3
1.56
0.84
3.58
0.25
0.07
-1.87
1.77
-0.66
0
0.59
-0.09
-0.42

> <PUBCHEM_SHAPE_SELFOVERLAP>
549.377

> <PUBCHEM_SHAPE_VOLUME>
134.6

> <PUBCHEM_COORDINATE_TYPE>
2
5
10

$$$$
