51361198
  -OEChem-01171812183D

 34 36  0     0  0  0  0  0  0999 V2000
   -6.3667    2.1301   -0.1927 Br  0  0  0  0  0  0  0  0  0  0  0  0
    0.4913   -3.5038   -0.3973 O   0  0  0  0  0  0  0  0  0  0  0  0
   -1.2487   -2.3125    0.7718 O   0  0  0  0  0  0  0  0  0  0  0  0
    3.3567   -1.6588   -0.1871 N   0  0  0  0  0  0  0  0  0  0  0  0
   -0.0421   -0.6155   -0.2690 N   0  0  0  0  0  0  0  0  0  0  0  0
    2.7507   -2.8746   -0.2521 N   0  0  0  0  0  0  0  0  0  0  0  0
    2.4075   -0.6682   -0.1435 C   0  0  0  0  0  0  0  0  0  0  0  0
    1.1770   -1.1972   -0.2378 C   0  0  0  0  0  0  0  0  0  0  0  0
    2.7947    0.7386   -0.0058 C   0  0  0  0  0  0  0  0  0  0  0  0
    1.3787   -2.6731   -0.3098 C   0  0  0  0  0  0  0  0  0  0  0  0
    2.4378    1.6598   -0.9906 C   0  0  0  0  0  0  0  0  0  0  0  0
    3.5201    1.1563    1.1099 C   0  0  0  0  0  0  0  0  0  0  0  0
   -1.1995   -1.2059    0.2402 C   0  0  0  0  0  0  0  0  0  0  0  0
   -2.4451   -0.4023    0.1356 C   0  0  0  0  0  0  0  0  0  0  0  0
    2.8064    2.9988   -0.8597 C   0  0  0  0  0  0  0  0  0  0  0  0
    3.8886    2.4952    1.2409 C   0  0  0  0  0  0  0  0  0  0  0  0
    3.5318    3.4164    0.2561 C   0  0  0  0  0  0  0  0  0  0  0  0
   -3.4786   -0.5952    1.0523 C   0  0  0  0  0  0  0  0  0  0  0  0
   -2.5806    0.5454   -0.8790 C   0  0  0  0  0  0  0  0  0  0  0  0
   -4.6476    0.1595    0.9545 C   0  0  0  0  0  0  0  0  0  0  0  0
   -3.7495    1.3000   -0.9768 C   0  0  0  0  0  0  0  0  0  0  0  0
   -4.7830    1.1071   -0.0601 C   0  0  0  0  0  0  0  0  0  0  0  0
    4.3112   -1.5423    0.1220 H   0  0  0  0  0  0  0  0  0  0  0  0
   -0.0575    0.3828   -0.4585 H   0  0  0  0  0  0  0  0  0  0  0  0
    3.2888   -3.7304   -0.2784 H   0  0  0  0  0  0  0  0  0  0  0  0
    1.8770    1.3524   -1.8700 H   0  0  0  0  0  0  0  0  0  0  0  0
    3.8042    0.4527    1.8888 H   0  0  0  0  0  0  0  0  0  0  0  0
    2.5295    3.7159   -1.6269 H   0  0  0  0  0  0  0  0  0  0  0  0
    4.4529    2.8208    2.1099 H   0  0  0  0  0  0  0  0  0  0  0  0
    3.8189    4.4589    0.3581 H   0  0  0  0  0  0  0  0  0  0  0  0
   -3.3902   -1.3252    1.8526 H   0  0  0  0  0  0  0  0  0  0  0  0
   -1.8080    0.7061   -1.6255 H   0  0  0  0  0  0  0  0  0  0  0  0
   -5.4431   -0.0023    1.6774 H   0  0  0  0  0  0  0  0  0  0  0  0
   -3.8416    2.0307   -1.7763 H   0  0  0  0  0  0  0  0  0  0  0  0
  1 22  1  0  0  0  0
  2 10  2  0  0  0  0
  3 13  2  0  0  0  0
  4  6  1  0  0  0  0
  4  7  1  0  0  0  0
  4 23  1  0  0  0  0
  5  8  1  0  0  0  0
  5 13  1  0  0  0  0
  5 24  1  0  0  0  0
  6 10  1  0  0  0  0
  6 25  1  0  0  0  0
  7  8  2  0  0  0  0
  7  9  1  0  0  0  0
  8 10  1  0  0  0  0
  9 11  2  0  0  0  0
  9 12  1  0  0  0  0
 11 15  1  0  0  0  0
 11 26  1  0  0  0  0
 12 16  2  0  0  0  0
 12 27  1  0  0  0  0
 13 14  1  0  0  0  0
 14 18  2  0  0  0  0
 14 19  1  0  0  0  0
 15 17  2  0  0  0  0
 15 28  1  0  0  0  0
 16 17  1  0  0  0  0
 16 29  1  0  0  0  0
 17 30  1  0  0  0  0
 18 20  1  0  0  0  0
 18 31  1  0  0  0  0
 19 21  2  0  0  0  0
 19 32  1  0  0  0  0
 20 22  2  0  0  0  0
 20 33  1  0  0  0  0
 21 22  1  0  0  0  0
 21 34  1  0  0  0  0
M  END
> <PUBCHEM_COMPOUND_CID>
51361198

> <PUBCHEM_CONFORMER_RMSD>
0.6

> <PUBCHEM_CONFORMER_DIVERSEORDER>
2
4
5
6
16
7
13
10
11
14
18
3
17
12
15
9
8
1

> <PUBCHEM_MMFF94_PARTIAL_CHARGES>
34
1 -0.11
10 0.62
11 -0.15
12 -0.15
13 0.54
14 0.09
15 -0.15
16 -0.15
17 -0.15
18 -0.15
19 -0.15
2 -0.57
20 -0.15
21 -0.15
22 0.11
23 0.4
24 0.37
25 0.37
26 0.15
27 0.15
28 0.15
29 0.15
3 -0.57
30 0.15
31 0.15
32 0.15
33 0.15
34 0.15
4 -0.52
5 -0.54
6 -0.41
7 0.07
8 0.12
9 0.03

> <PUBCHEM_EFFECTIVE_ROTOR_COUNT>
4

> <PUBCHEM_PHARMACOPHORE_FEATURES>
9
1 1 hydrophobe
1 2 acceptor
1 3 acceptor
1 4 donor
1 5 donor
1 6 donor
5 4 6 7 8 10 rings
6 14 18 19 20 21 22 rings
6 9 11 12 15 16 17 rings

> <PUBCHEM_HEAVY_ATOM_COUNT>
22

> <PUBCHEM_ATOM_DEF_STEREO_COUNT>
0

> <PUBCHEM_ATOM_UDEF_STEREO_COUNT>
0

> <PUBCHEM_BOND_DEF_STEREO_COUNT>
0

> <PUBCHEM_BOND_UDEF_STEREO_COUNT>
0

> <PUBCHEM_ISOTOPIC_ATOM_COUNT>
0

> <PUBCHEM_COMPONENT_COUNT>
1

> <PUBCHEM_CACTVS_TAUTO_COUNT>
10

> <PUBCHEM_CONFORMER_ID>
030FB5AE00000002

> <PUBCHEM_MMFF94_ENERGY>
82.469

> <PUBCHEM_FEATURE_SELFOVERLAP>
47.297

> <PUBCHEM_SHAPE_FINGERPRINT>
10411042 1 17691124838159852030
10670039 82 17903086869228619676
11370993 70 18338230573972738904
11595378 159 15574712478385133701
12035758 1 18265031597619984258
12107183 9 18265597962210166896
12173636 292 17764023967083452430
12403259 327 16588021350692700120
12403259 415 18336557074689288995
12633257 1 17531513395331659224
12769317 202 18272365399326156136
12788726 201 16966325592019077394
12925494 130 18119809102567755141
13134695 92 18122337987257477142
13140716 1 18409447016077898554
13878862 14 18263628594676132565
13965767 371 18188474896037400500
14251764 75 18267597981644391169
14468879 13 18189060944123928177
14848178 96 18341897406807767001
14932701 244 16696365186452710469
15342168 16 18411139177526453909
15420108 30 18198321014411680178
17810953 82 18410012126299779149
17844677 252 18268718212821390217
1798214 55 18340771567004046968
1979834 28 18333737931239795253
20157964 124 18411976932778563621
20715895 44 18410567354139262561
21033648 29 18113903749593099569
21304303 282 17199356503548686998
21452121 103 18408880711686070489
21475661 188 18260827090054909625
21709351 56 18413386514584594135
21860390 5 18128542561104926958
22122407 14 17985847943065540609
22149856 69 18264230109815611851
23559900 14 18337674109678364947
283562 15 17617671960352089270
312425 83 14835586715846368208
474 4 18412542115450067625
49207404 50 18260840340129127723
495365 180 18342170051125605203
5048184 11 18268432519353345244
5104073 3 18261398819670395569
7808743 9 17833274499335930924
960060 61 11600008773234579657
9981440 41 18266734869004820178

> <PUBCHEM_SHAPE_MULTIPOLES>
432.01
11.22
4.05
1.05
14.85
0.52
0.11
-9.64
1.19
-4.61
-0.29
-0.04
-0.38
1.22

> <PUBCHEM_SHAPE_SELFOVERLAP>
936.258

> <PUBCHEM_SHAPE_VOLUME>
241.1

> <PUBCHEM_COORDINATE_TYPE>
2
5
10

$$$$
