659592
  -OEChem-01171812153D

 49 52  0     1  0  0  0  0  0999 V2000
   -6.2995   -1.6826    0.7696 Cl  0  0  0  0  0  0  0  0  0  0  0  0
   -1.4074   -1.3528    0.4220 O   0  0  0  0  0  0  0  0  0  0  0  0
    3.7464   -0.3129   -2.0310 O   0  0  0  0  0  0  0  0  0  0  0  0
    2.6424    1.8520    2.9176 O   0  0  0  0  0  0  0  0  0  0  0  0
   -2.0067    0.6389   -0.7378 N   0  0  0  0  0  0  0  0  0  0  0  0
   -1.4743    1.5420   -1.5865 N   0  0  0  0  0  0  0  0  0  0  0  0
   -0.7443   -3.3421    1.4201 N   0  0  0  0  0  0  0  0  0  0  0  0
    2.6883   -3.9415    0.4356 N   0  0  0  0  0  0  0  0  0  0  0  0
    1.2326   -0.9392   -0.8275 C   0  0  1  0  0  0  0  0  0  0  0  0
    0.0560   -0.0505   -1.0086 C   0  0  0  0  0  0  0  0  0  0  0  0
   -1.1279   -0.3330   -0.3801 C   0  0  0  0  0  0  0  0  0  0  0  0
    2.2484   -0.0579   -0.1770 C   0  0  0  0  0  0  0  0  0  0  0  0
    0.8630   -2.1386    0.0642 C   0  0  0  0  0  0  0  0  0  0  0  0
   -0.2169    1.1108   -1.7543 C   0  0  0  0  0  0  0  0  0  0  0  0
   -0.3732   -2.2915    0.6249 C   0  0  0  0  0  0  0  0  0  0  0  0
    3.4613    0.2163   -0.8083 C   0  0  0  0  0  0  0  0  0  0  0  0
    1.9727    0.4910    1.0748 C   0  0  0  0  0  0  0  0  0  0  0  0
    0.6916    1.8500   -2.6475 C   0  0  0  0  0  0  0  0  0  0  0  0
   -3.3334    0.7541   -0.3277 C   0  0  0  0  0  0  0  0  0  0  0  0
    2.9109    1.3154    1.6961 C   0  0  0  0  0  0  0  0  0  0  0  0
    4.3993    1.0408   -0.1869 C   0  0  0  0  0  0  0  0  0  0  0  0
    4.1241    1.5901    1.0654 C   0  0  0  0  0  0  0  0  0  0  0  0
    1.8714   -3.1347    0.2695 C   0  0  0  0  0  0  0  0  0  0  0  0
   -4.0612   -0.3896   -0.0227 C   0  0  0  0  0  0  0  0  0  0  0  0
   -3.9126    2.0133   -0.2265 C   0  0  0  0  0  0  0  0  0  0  0  0
   -5.3886   -0.2725    0.3897 C   0  0  0  0  0  0  0  0  0  0  0  0
   -5.2398    2.1304    0.1860 C   0  0  0  0  0  0  0  0  0  0  0  0
   -5.9779    0.9876    0.4942 C   0  0  0  0  0  0  0  0  0  0  0  0
    5.0098    0.0204   -2.6026 C   0  0  0  0  0  0  0  0  0  0  0  0
    3.6456    2.6863    3.4952 C   0  0  0  0  0  0  0  0  0  0  0  0
    1.5476   -1.3139   -1.8086 H   0  0  0  0  0  0  0  0  0  0  0  0
    1.0397    0.2907    1.5952 H   0  0  0  0  0  0  0  0  0  0  0  0
    1.3445    2.5099   -2.0674 H   0  0  0  0  0  0  0  0  0  0  0  0
    1.3206    1.1627   -3.2223 H   0  0  0  0  0  0  0  0  0  0  0  0
    0.1387    2.4666   -3.3642 H   0  0  0  0  0  0  0  0  0  0  0  0
    5.3614    1.2978   -0.6166 H   0  0  0  0  0  0  0  0  0  0  0  0
    4.8960    2.2218    1.4919 H   0  0  0  0  0  0  0  0  0  0  0  0
   -0.0927   -4.0834    1.6419 H   0  0  0  0  0  0  0  0  0  0  0  0
   -1.6873   -3.3661    1.7870 H   0  0  0  0  0  0  0  0  0  0  0  0
   -3.6554   -1.3889   -0.1441 H   0  0  0  0  0  0  0  0  0  0  0  0
   -3.3597    2.9221   -0.4489 H   0  0  0  0  0  0  0  0  0  0  0  0
   -5.6981    3.1115    0.2698 H   0  0  0  0  0  0  0  0  0  0  0  0
   -7.0109    1.0942    0.8149 H   0  0  0  0  0  0  0  0  0  0  0  0
    5.0927    1.0946   -2.8001 H   0  0  0  0  0  0  0  0  0  0  0  0
    5.0675   -0.4854   -3.5721 H   0  0  0  0  0  0  0  0  0  0  0  0
    5.8399   -0.3590   -1.9971 H   0  0  0  0  0  0  0  0  0  0  0  0
    3.8221    3.5817    2.8896 H   0  0  0  0  0  0  0  0  0  0  0  0
    4.5679    2.1292    3.6918 H   0  0  0  0  0  0  0  0  0  0  0  0
    3.2649    3.0258    4.4641 H   0  0  0  0  0  0  0  0  0  0  0  0
  1 26  1  0  0  0  0
  2 11  1  0  0  0  0
  2 15  1  0  0  0  0
  3 16  1  0  0  0  0
  3 29  1  0  0  0  0
  4 20  1  0  0  0  0
  4 30  1  0  0  0  0
  5  6  1  0  0  0  0
  5 11  1  0  0  0  0
  5 19  1  0  0  0  0
  6 14  2  0  0  0  0
  7 15  1  0  0  0  0
  7 38  1  0  0  0  0
  7 39  1  0  0  0  0
  8 23  3  0  0  0  0
  9 10  1  0  0  0  0
  9 12  1  0  0  0  0
  9 13  1  0  0  0  0
  9 31  1  0  0  0  0
 10 11  2  0  0  0  0
 10 14  1  0  0  0  0
 12 16  2  0  0  0  0
 12 17  1  0  0  0  0
 13 15  2  0  0  0  0
 13 23  1  0  0  0  0
 14 18  1  0  0  0  0
 16 21  1  0  0  0  0
 17 20  2  0  0  0  0
 17 32  1  0  0  0  0
 18 33  1  0  0  0  0
 18 34  1  0  0  0  0
 18 35  1  0  0  0  0
 19 24  2  0  0  0  0
 19 25  1  0  0  0  0
 20 22  1  0  0  0  0
 21 22  2  0  0  0  0
 21 36  1  0  0  0  0
 22 37  1  0  0  0  0
 24 26  1  0  0  0  0
 24 40  1  0  0  0  0
 25 27  2  0  0  0  0
 25 41  1  0  0  0  0
 26 28  2  0  0  0  0
 27 28  1  0  0  0  0
 27 42  1  0  0  0  0
 28 43  1  0  0  0  0
 29 44  1  0  0  0  0
 29 45  1  0  0  0  0
 29 46  1  0  0  0  0
 30 47  1  0  0  0  0
 30 48  1  0  0  0  0
 30 49  1  0  0  0  0
M  END
> <PUBCHEM_COMPOUND_CID>
659592

> <PUBCHEM_CONFORMER_RMSD>
0.8

> <PUBCHEM_CONFORMER_DIVERSEORDER>
3
18
11
13
7
16
20
6
17
12
10
8
14
5
15
4
19
2
9
1

> <PUBCHEM_MMFF94_PARTIAL_CHARGES>
39
1 -0.18
10 -0.18
11 -0.09
12 -0.14
13 -0.07
14 0.11
15 0.18
16 0.08
17 -0.15
18 0.18
19 -0.02
2 -0.14
20 0.08
21 -0.15
22 -0.15
23 0.49
24 -0.15
25 -0.15
26 0.18
27 -0.15
28 -0.15
29 0.28
3 -0.36
30 0.28
32 0.15
36 0.15
37 0.15
38 0.4
39 0.4
4 -0.36
40 0.15
41 0.15
42 0.15
43 0.15
5 0.59
6 -0.71
7 -0.9
8 -0.56
9 0.46

> <PUBCHEM_EFFECTIVE_ROTOR_COUNT>
4.4

> <PUBCHEM_PHARMACOPHORE_FEATURES>
11
1 2 acceptor
1 3 acceptor
1 4 acceptor
1 6 acceptor
1 7 cation
1 7 donor
1 8 acceptor
5 5 6 10 11 14 rings
6 12 16 17 20 21 22 rings
6 19 24 25 26 27 28 rings
6 2 9 10 11 13 15 rings

> <PUBCHEM_HEAVY_ATOM_COUNT>
30

> <PUBCHEM_ATOM_DEF_STEREO_COUNT>
0

> <PUBCHEM_ATOM_UDEF_STEREO_COUNT>
1

> <PUBCHEM_BOND_DEF_STEREO_COUNT>
0

> <PUBCHEM_BOND_UDEF_STEREO_COUNT>
0

> <PUBCHEM_ISOTOPIC_ATOM_COUNT>
0

> <PUBCHEM_COMPONENT_COUNT>
1

> <PUBCHEM_CACTVS_TAUTO_COUNT>
2

> <PUBCHEM_CONFORMER_ID>
000A108800000003

> <PUBCHEM_MMFF94_ENERGY>
104.1125

> <PUBCHEM_FEATURE_SELFOVERLAP>
55.923

> <PUBCHEM_SHAPE_FINGERPRINT>
10074138 170 17899396869013209835
10165383 225 18409452483977110468
11443803 9 17387430128148833508
11479125 193 16556767831947760265
11578080 2 18126856121486459708
12107698 1 17203335480867330648
12422481 6 17969200288083029267
12633257 1 18046037583943153296
13140716 1 17825675718303432663
13782708 43 18342184336192652702
14178342 30 18262231248235324611
14747281 78 17416143878192382688
14787075 74 18271803592445672489
14790565 3 17896905285517699013
15238133 3 17556014689169933041
15295992 7 18129649924571132272
15475509 84 17766841624158913881
15629462 23 17270912466680791974
1601671 61 18040444282250281981
17349148 13 17894915174377787933
17980427 26 17915715696460056348
18681886 176 18115323278838683236
20028762 73 18264497363628987119
20600515 1 16894509332646711454
20739085 24 17896327917522315375
21033648 29 18413106195196529913
21401589 2 17628047281934284144
21475661 188 17988632056029012456
22956985 138 17461143379596321842
23559900 14 17898563177564389815
244849 19 17916875754300066434
2838139 119 17203317953164064985
34797466 226 17346878966647853285
350125 39 18116434735081634782
376196 1 17057500807636208216
392239 28 18343021099438854569
427121 178 18409163307622741714
469060 322 18043789074427338311
5104073 3 18336271120557587395
5265222 85 18191597557058870182
6086070 43 17844238519928979609
6442390 28 18408886247735572943
7288768 16 17769909570985624128
7808743 9 18191586556867305708
9658208 31 18340211885341500238

> <PUBCHEM_SHAPE_MULTIPOLES>
581.72
11.82
3.35
2.42
14.8
2.78
0.58
-3.91
1.84
-1.19
1.89
-4.13
-2.01
2.41

> <PUBCHEM_SHAPE_SELFOVERLAP>
1278.7

> <PUBCHEM_SHAPE_VOLUME>
317

> <PUBCHEM_COORDINATE_TYPE>
2
5
10

$$$$
