1260077
  -OEChem-01171811393D

 27 28  0     0  0  0  0  0  0999 V2000
    3.0215    0.9737   -0.3517 O   0  0  0  0  0  0  0  0  0  0  0  0
   -4.5281    1.7104   -0.3321 O   0  0  0  0  0  0  0  0  0  0  0  0
   -2.6212   -0.9214    0.6975 N   0  0  0  0  0  0  0  0  0  0  0  0
   -3.8206   -0.2849    0.6852 N   0  0  0  0  0  0  0  0  0  0  0  0
   -0.2849   -0.5686   -0.0785 C   0  0  0  0  0  0  0  0  0  0  0  0
   -1.6967   -0.1699    0.0173 C   0  0  0  0  0  0  0  0  0  0  0  0
    0.7106    0.4040   -0.1707 C   0  0  0  0  0  0  0  0  0  0  0  0
    2.0498    0.0248   -0.2622 C   0  0  0  0  0  0  0  0  0  0  0  0
    0.0587   -1.9205   -0.0782 C   0  0  0  0  0  0  0  0  0  0  0  0
   -2.2618    0.9344   -0.5006 C   0  0  0  0  0  0  0  0  0  0  0  0
    2.3934   -1.3271   -0.2618 C   0  0  0  0  0  0  0  0  0  0  0  0
    1.3978   -2.2998   -0.1697 C   0  0  0  0  0  0  0  0  0  0  0  0
   -3.6848    0.8727   -0.0621 C   0  0  0  0  0  0  0  0  0  0  0  0
    4.2978    0.6499    0.1977 C   0  0  0  0  0  0  0  0  0  0  0  0
    4.9685    1.9222    0.6700 C   0  0  0  0  0  0  0  0  0  0  0  0
    0.4674    1.4639   -0.1636 H   0  0  0  0  0  0  0  0  0  0  0  0
   -0.6975   -2.6991   -0.0173 H   0  0  0  0  0  0  0  0  0  0  0  0
   -2.3746   -1.5827    1.4206 H   0  0  0  0  0  0  0  0  0  0  0  0
   -1.8290    1.7278   -1.0843 H   0  0  0  0  0  0  0  0  0  0  0  0
    3.4206   -1.6653   -0.3597 H   0  0  0  0  0  0  0  0  0  0  0  0
    1.6646   -3.3527   -0.1778 H   0  0  0  0  0  0  0  0  0  0  0  0
   -4.6305   -0.6766    1.1469 H   0  0  0  0  0  0  0  0  0  0  0  0
    4.2118   -0.0174    1.0644 H   0  0  0  0  0  0  0  0  0  0  0  0
    4.9112    0.1721   -0.5741 H   0  0  0  0  0  0  0  0  0  0  0  0
    5.9568    1.7120    1.0887 H   0  0  0  0  0  0  0  0  0  0  0  0
    5.0797    2.6298   -0.1584 H   0  0  0  0  0  0  0  0  0  0  0  0
    4.3598    2.4190    1.4328 H   0  0  0  0  0  0  0  0  0  0  0  0
  1  8  1  0  0  0  0
  1 14  1  0  0  0  0
  2 13  2  0  0  0  0
  3  4  1  0  0  0  0
  3  6  1  0  0  0  0
  3 18  1  0  0  0  0
  4 13  1  0  0  0  0
  4 22  1  0  0  0  0
  5  6  1  0  0  0  0
  5  7  2  0  0  0  0
  5  9  1  0  0  0  0
  6 10  2  0  0  0  0
  7  8  1  0  0  0  0
  7 16  1  0  0  0  0
  8 11  2  0  0  0  0
  9 12  2  0  0  0  0
  9 17  1  0  0  0  0
 10 13  1  0  0  0  0
 10 19  1  0  0  0  0
 11 12  1  0  0  0  0
 11 20  1  0  0  0  0
 12 21  1  0  0  0  0
 14 15  1  0  0  0  0
 14 23  1  0  0  0  0
 14 24  1  0  0  0  0
 15 25  1  0  0  0  0
 15 26  1  0  0  0  0
 15 27  1  0  0  0  0
M  END
> <PUBCHEM_COMPOUND_CID>
1260077

> <PUBCHEM_CONFORMER_RMSD>
0.6

> <PUBCHEM_CONFORMER_DIVERSEORDER>
3
14
8
9
18
20
19
4
16
1
13
7
2
17
5
11
6
15
10
12

> <PUBCHEM_MMFF94_PARTIAL_CHARGES>
21
1 -0.36
10 -0.14
11 -0.15
12 -0.15
13 0.62
14 0.28
16 0.15
17 0.15
18 0.4
19 0.15
2 -0.57
20 0.15
21 0.15
22 0.37
3 -0.52
4 -0.41
5 0.03
6 0.07
7 -0.15
8 0.08
9 -0.15

> <PUBCHEM_EFFECTIVE_ROTOR_COUNT>
3

> <PUBCHEM_PHARMACOPHORE_FEATURES>
6
1 1 acceptor
1 2 acceptor
1 3 donor
1 4 donor
5 3 4 6 10 13 rings
6 5 7 8 9 11 12 rings

> <PUBCHEM_HEAVY_ATOM_COUNT>
15

> <PUBCHEM_ATOM_DEF_STEREO_COUNT>
0

> <PUBCHEM_ATOM_UDEF_STEREO_COUNT>
0

> <PUBCHEM_BOND_DEF_STEREO_COUNT>
0

> <PUBCHEM_BOND_UDEF_STEREO_COUNT>
0

> <PUBCHEM_ISOTOPIC_ATOM_COUNT>
0

> <PUBCHEM_COMPONENT_COUNT>
1

> <PUBCHEM_CACTVS_TAUTO_COUNT>
5

> <PUBCHEM_CONFORMER_ID>
00133A2D00000003

> <PUBCHEM_MMFF94_ENERGY>
54.8669

> <PUBCHEM_FEATURE_SELFOVERLAP>
32.051

> <PUBCHEM_SHAPE_FINGERPRINT>
10608611 8 18262238803145595269
11132069 177 18113340803760494461
11471102 20 18339642226622347295
11543360 7 15123507051414980584
122479 349 18337110189383763306
12346645 44 18413390929678527002
12403259 118 18040995206316736892
13214271 11 18334575767636639445
13380535 76 18408605893951152274
14123255 52 18341327872811515596
14325111 11 18408608037197550015
14897335 6 18413386549033723598
15219456 202 18334863775174431919
15375358 24 18261393325842889585
15536298 74 18341054021306978902
15775835 57 18273214205154188527
17834072 32 18338799052108518708
18186145 218 18201173086848165278
19784866 170 18260832592108625308
20279233 1 18187372004169713491
204376 136 18341050813108612538
20645477 70 18200312096224210175
212916 134 18199167638238052016
21452121 103 18338792321862467874
21499 59 18343861125837080870
21524375 3 18339360880858834118
21618674 25 18408321060383369097
21713013 43 11959732655103705801
22926399 37 17917713500186729841
23402539 116 18272362109855720524
23402655 69 18272082743839769109
23559900 14 18195524796843205322
2748010 2 18335718112546503726
2916195 48 18059285595578053280
449060 50 18410859849927740149
5104073 3 18261961739232024211
53812653 166 18342455980331490088
633830 44 18131074779301621748
7364860 26 18269838610432242566
81539 233 18408605842553781366

> <PUBCHEM_SHAPE_MULTIPOLES>
286.99
8.79
2.06
0.72
0.98
0.57
-0.03
-6.56
-1.18
1.08
0
-0.05
-0.03
0.8

> <PUBCHEM_SHAPE_SELFOVERLAP>
612.501

> <PUBCHEM_SHAPE_VOLUME>
161.6

> <PUBCHEM_COORDINATE_TYPE>
2
5
10

$$$$
