1930124
  -OEChem-01171812143D

 63 67  0     0  0  0  0  0  0999 V2000
    0.8279   -2.2881   -0.1834 S   0  0  0  0  0  0  0  0  0  0  0  0
   -2.8945   -1.6097   -0.9409 S   0  0  0  0  0  0  0  0  0  0  0  0
    0.7330   -2.6423   -1.5951 O   0  0  0  0  0  0  0  0  0  0  0  0
    0.0627   -3.0169    0.8242 O   0  0  0  0  0  0  0  0  0  0  0  0
   -2.8536   -3.0579   -0.8751 O   0  0  0  0  0  0  0  0  0  0  0  0
   -2.4645   -0.9155   -2.1402 O   0  0  0  0  0  0  0  0  0  0  0  0
   -0.8455    1.2137    0.1192 N   0  0  0  0  0  0  0  0  0  0  0  0
   -2.0858   -0.9524    0.4347 N   0  0  0  0  0  0  0  0  0  0  0  0
    0.8778    2.8627   -0.2942 N   0  0  0  0  0  0  0  0  0  0  0  0
    2.5199    0.5517   -0.6113 N   0  0  0  0  0  0  0  0  0  0  0  0
   -0.9005   -0.1582    0.1575 C   0  0  0  0  0  0  0  0  0  0  0  0
    0.3609   -0.6487   -0.1117 C   0  0  0  0  0  0  0  0  0  0  0  0
   -1.9625    2.1032    0.3495 C   0  0  0  0  0  0  0  0  0  0  0  0
    0.4323    1.6047   -0.1710 C   0  0  0  0  0  0  0  0  0  0  0  0
    1.2030    0.4673   -0.3190 C   0  0  0  0  0  0  0  0  0  0  0  0
   -2.1003    2.4827    1.8231 C   0  0  0  0  0  0  0  0  0  0  0  0
   -3.2921    3.4127    2.0446 C   0  0  0  0  0  0  0  0  0  0  0  0
    2.5266   -2.3851    0.3076 C   0  0  0  0  0  0  0  0  0  0  0  0
    2.1846    2.9435   -0.5844 C   0  0  0  0  0  0  0  0  0  0  0  0
    3.0000    1.7970   -0.7414 C   0  0  0  0  0  0  0  0  0  0  0  0
   -3.4600    3.7630    3.5144 C   0  0  0  0  0  0  0  0  0  0  0  0
    2.8307   -2.5692    1.6436 C   0  0  0  0  0  0  0  0  0  0  0  0
    3.5122   -2.2745   -0.6555 C   0  0  0  0  0  0  0  0  0  0  0  0
   -4.5618   -1.1060   -0.6283 C   0  0  0  0  0  0  0  0  0  0  0  0
    2.7587    4.2021   -0.7359 C   0  0  0  0  0  0  0  0  0  0  0  0
    4.3481    1.9662   -1.0420 C   0  0  0  0  0  0  0  0  0  0  0  0
    4.1688   -2.6458    2.0305 C   0  0  0  0  0  0  0  0  0  0  0  0
    4.8502   -2.3509   -0.2686 C   0  0  0  0  0  0  0  0  0  0  0  0
    5.1787   -2.5369    1.0743 C   0  0  0  0  0  0  0  0  0  0  0  0
    4.1107    4.3560   -1.0374 C   0  0  0  0  0  0  0  0  0  0  0  0
    4.9087    3.2334   -1.1908 C   0  0  0  0  0  0  0  0  0  0  0  0
   -5.3929   -1.9407    0.0967 C   0  0  0  0  0  0  0  0  0  0  0  0
   -5.0001    0.1122   -1.1152 C   0  0  0  0  0  0  0  0  0  0  0  0
    6.6093   -2.6194    1.4877 C   0  0  0  0  0  0  0  0  0  0  0  0
   -6.7074   -1.5437    0.3430 C   0  0  0  0  0  0  0  0  0  0  0  0
   -6.3147    0.5090   -0.8690 C   0  0  0  0  0  0  0  0  0  0  0  0
   -7.1686   -0.3190   -0.1400 C   0  0  0  0  0  0  0  0  0  0  0  0
   -2.8693    1.6123   -0.0089 H   0  0  0  0  0  0  0  0  0  0  0  0
   -1.8165    2.9953   -0.2704 H   0  0  0  0  0  0  0  0  0  0  0  0
   -1.1809    2.9706    2.1705 H   0  0  0  0  0  0  0  0  0  0  0  0
   -2.2225    1.5760    2.4290 H   0  0  0  0  0  0  0  0  0  0  0  0
   -1.9044   -1.6507    1.1690 H   0  0  0  0  0  0  0  0  0  0  0  0
   -3.1575    4.3342    1.4664 H   0  0  0  0  0  0  0  0  0  0  0  0
   -4.2099    2.9339    1.6835 H   0  0  0  0  0  0  0  0  0  0  0  0
   -2.5703    4.2705    3.9006 H   0  0  0  0  0  0  0  0  0  0  0  0
   -3.6311    2.8639    4.1149 H   0  0  0  0  0  0  0  0  0  0  0  0
   -4.3173    4.4300    3.6495 H   0  0  0  0  0  0  0  0  0  0  0  0
    2.0595   -2.6471    2.4035 H   0  0  0  0  0  0  0  0  0  0  0  0
    3.2768   -2.1275   -1.7049 H   0  0  0  0  0  0  0  0  0  0  0  0
    2.1468    5.0948   -0.6186 H   0  0  0  0  0  0  0  0  0  0  0  0
    4.9895    1.0954   -1.1658 H   0  0  0  0  0  0  0  0  0  0  0  0
    4.4120   -2.7868    3.0803 H   0  0  0  0  0  0  0  0  0  0  0  0
    5.6279   -2.2612   -1.0225 H   0  0  0  0  0  0  0  0  0  0  0  0
    4.5345    5.3491   -1.1506 H   0  0  0  0  0  0  0  0  0  0  0  0
    5.9635    3.3389   -1.4254 H   0  0  0  0  0  0  0  0  0  0  0  0
   -5.0502   -2.8939    0.4870 H   0  0  0  0  0  0  0  0  0  0  0  0
   -4.3539    0.7702   -1.6874 H   0  0  0  0  0  0  0  0  0  0  0  0
    6.7295   -3.2534    2.3728 H   0  0  0  0  0  0  0  0  0  0  0  0
    6.9918   -1.6200    1.7177 H   0  0  0  0  0  0  0  0  0  0  0  0
    7.2248   -3.0572    0.6944 H   0  0  0  0  0  0  0  0  0  0  0  0
   -7.3716   -2.1875    0.9123 H   0  0  0  0  0  0  0  0  0  0  0  0
   -6.6736    1.4627   -1.2451 H   0  0  0  0  0  0  0  0  0  0  0  0
   -8.1918   -0.0099    0.0520 H   0  0  0  0  0  0  0  0  0  0  0  0
  1  3  2  0  0  0  0
  1  4  2  0  0  0  0
  1 12  1  0  0  0  0
  1 18  1  0  0  0  0
  2  5  2  0  0  0  0
  2  6  2  0  0  0  0
  2  8  1  0  0  0  0
  2 24  1  0  0  0  0
  7 11  1  0  0  0  0
  7 13  1  0  0  0  0
  7 14  1  0  0  0  0
  8 11  1  0  0  0  0
  8 42  1  0  0  0  0
  9 14  2  0  0  0  0
  9 19  1  0  0  0  0
 10 15  2  0  0  0  0
 10 20  1  0  0  0  0
 11 12  2  0  0  0  0
 12 15  1  0  0  0  0
 13 16  1  0  0  0  0
 13 38  1  0  0  0  0
 13 39  1  0  0  0  0
 14 15  1  0  0  0  0
 16 17  1  0  0  0  0
 16 40  1  0  0  0  0
 16 41  1  0  0  0  0
 17 21  1  0  0  0  0
 17 43  1  0  0  0  0
 17 44  1  0  0  0  0
 18 22  2  0  0  0  0
 18 23  1  0  0  0  0
 19 20  1  0  0  0  0
 19 25  2  0  0  0  0
 20 26  2  0  0  0  0
 21 45  1  0  0  0  0
 21 46  1  0  0  0  0
 21 47  1  0  0  0  0
 22 27  1  0  0  0  0
 22 48  1  0  0  0  0
 23 28  2  0  0  0  0
 23 49  1  0  0  0  0
 24 32  2  0  0  0  0
 24 33  1  0  0  0  0
 25 30  1  0  0  0  0
 25 50  1  0  0  0  0
 26 31  1  0  0  0  0
 26 51  1  0  0  0  0
 27 29  2  0  0  0  0
 27 52  1  0  0  0  0
 28 29  1  0  0  0  0
 28 53  1  0  0  0  0
 29 34  1  0  0  0  0
 30 31  2  0  0  0  0
 30 54  1  0  0  0  0
 31 55  1  0  0  0  0
 32 35  1  0  0  0  0
 32 56  1  0  0  0  0
 33 36  2  0  0  0  0
 33 57  1  0  0  0  0
 34 58  1  0  0  0  0
 34 59  1  0  0  0  0
 34 60  1  0  0  0  0
 35 37  2  0  0  0  0
 35 61  1  0  0  0  0
 36 37  1  0  0  0  0
 36 62  1  0  0  0  0
 37 63  1  0  0  0  0
M  END
> <PUBCHEM_COMPOUND_CID>
1930124

> <PUBCHEM_CONFORMER_RMSD>
1

> <PUBCHEM_CONFORMER_DIVERSEORDER>
1
12
47
21
54
39
4
35
64
13
60
50
38
16
40
45
32
30
42
33
20
9
67
61
26
37
66
34
24
52
15
41
28
68
6
17
53
11
27
51
46
44
29
18
3
56
14
8
55
65
62
58
31
59
25
36
63
7
2
43
5
23
49
48
22
10
57
19

> <PUBCHEM_MMFF94_PARTIAL_CHARGES>
48
1 1.37
10 -0.57
11 -0.01
12 -0.06
13 0.26
14 0.11
15 0.26
18 -0.01
19 0.31
2 1.45
20 0.31
22 -0.15
23 -0.15
24 -0.01
25 -0.15
26 -0.15
27 -0.15
28 -0.15
29 -0.14
3 -0.65
30 -0.15
31 -0.15
32 -0.15
33 -0.15
34 0.14
35 -0.15
36 -0.15
37 -0.15
4 -0.65
42 0.42
48 0.15
49 0.15
5 -0.65
50 0.15
51 0.15
52 0.15
53 0.15
54 0.15
55 0.15
56 0.15
57 0.15
6 -0.65
61 0.15
62 0.15
63 0.15
7 0.05
8 -0.7
9 -0.57

> <PUBCHEM_EFFECTIVE_ROTOR_COUNT>
8

> <PUBCHEM_PHARMACOPHORE_FEATURES>
13
1 10 acceptor
1 21 hydrophobe
1 3 acceptor
1 4 acceptor
1 5 acceptor
1 6 acceptor
1 8 donor
3 7 9 14 cation
5 7 11 12 14 15 rings
6 18 22 23 27 28 29 rings
6 19 20 25 26 30 31 rings
6 24 32 33 35 36 37 rings
6 9 10 14 15 19 20 rings

> <PUBCHEM_HEAVY_ATOM_COUNT>
37

> <PUBCHEM_ATOM_DEF_STEREO_COUNT>
0

> <PUBCHEM_ATOM_UDEF_STEREO_COUNT>
0

> <PUBCHEM_BOND_DEF_STEREO_COUNT>
0

> <PUBCHEM_BOND_UDEF_STEREO_COUNT>
0

> <PUBCHEM_ISOTOPIC_ATOM_COUNT>
0

> <PUBCHEM_COMPONENT_COUNT>
1

> <PUBCHEM_CACTVS_TAUTO_COUNT>
3

> <PUBCHEM_CONFORMER_ID>
001D738C00000001

> <PUBCHEM_MMFF94_ENERGY>
67.1994

> <PUBCHEM_FEATURE_SELFOVERLAP>
66.18

> <PUBCHEM_SHAPE_FINGERPRINT>
10006869 2 18202002144754817645
10190206 1 18126309616435762236
10411042 1 18263076614285514274
10675989 125 18194966476927988644
11135609 187 18191871347537897604
11135926 11 18191855928399076836
11763715 3 17828210891839437566
12788726 201 17989214754611065665
12977781 61 17241624968498106473
13140716 1 18339083662405645592
13540713 5 18341065029123964456
13560911 43 18261670377562409419
13636023 20 17342370023706691785
13782708 43 17675921002462419731
140371 6 18341897342547125407
14068700 675 18270385123455949923
14395042 24 18341049597854934345
14400156 266 18270124496493028948
14790565 3 17758962905906804429
15351339 4 18120365712183525299
15420108 30 17478052653366799401
15927050 60 18047752886665332934
16112460 7 18410297986379414563
19319366 153 18123188171759371381
21033648 29 17831859427501900020
2132832 1 18342174427871645785
21360443 120 18116155657108275044
21781055 127 17131009619874250115
21927370 108 18191017920535524978
23559900 14 18336252505362347371
244849 19 17458922538312256331
24771293 8 18269273474820041520
25147074 1 18340213998533845432
266924 1 18342465849966402369
3411729 13 18263362645552275646
4058900 60 17970924477567746668
4073 2 17897168137990953987
4149490 64 18113622318030240779
469060 322 18120088390814372794
5385378 56 18189611821066906012

> <PUBCHEM_SHAPE_MULTIPOLES>
725.74
14.63
5.98
1.91
12.57
4.69
-1.55
-5.68
-0.59
-6.66
-1.27
0.72
1.21
-6.14

> <PUBCHEM_SHAPE_SELFOVERLAP>
1570.47

> <PUBCHEM_SHAPE_VOLUME>
399.6

> <PUBCHEM_COORDINATE_TYPE>
2
5
10

$$$$
