5401874
  -OEChem-01171811413D

 36 38  0     0  0  0  0  0  0999 V2000
    0.9046    0.0809   -1.1355 S   0  0  0  0  0  0  0  0  0  0  0  0
    1.9801    0.5591    2.4242 O   0  0  0  0  0  0  0  0  0  0  0  0
   -2.6798    2.4751   -1.2532 O   0  0  0  0  0  0  0  0  0  0  0  0
   -1.5637    0.9901    0.1853 N   0  0  0  0  0  0  0  0  0  0  0  0
   -0.4931    0.8995    1.0483 N   0  0  0  0  0  0  0  0  0  0  0  0
   -2.4415   -0.1280   -0.0345 C   0  0  0  0  0  0  0  0  0  0  0  0
    3.0099   -0.1314    0.4037 C   0  0  0  0  0  0  0  0  0  0  0  0
   -2.6424   -1.0367    0.9767 C   0  0  0  0  0  0  0  0  0  0  0  0
    2.6087   -0.3067   -0.9095 C   0  0  0  0  0  0  0  0  0  0  0  0
    0.6036    0.5061    0.5137 C   0  0  0  0  0  0  0  0  0  0  0  0
    1.9005    0.3273    1.2330 C   0  0  0  0  0  0  0  0  0  0  0  0
   -3.0450   -0.2331   -1.2660 C   0  0  0  0  0  0  0  0  0  0  0  0
    4.3088   -0.3746    0.8211 C   0  0  0  0  0  0  0  0  0  0  0  0
   -3.4972   -2.1142    0.7438 C   0  0  0  0  0  0  0  0  0  0  0  0
    3.5168   -0.7398   -1.8630 C   0  0  0  0  0  0  0  0  0  0  0  0
   -1.9827   -0.9154    2.3120 C   0  0  0  0  0  0  0  0  0  0  0  0
   -1.7654    2.2130   -0.4705 C   0  0  0  0  0  0  0  0  0  0  0  0
   -3.8998   -1.3104   -1.4987 C   0  0  0  0  0  0  0  0  0  0  0  0
   -4.1258   -2.2510   -0.4939 C   0  0  0  0  0  0  0  0  0  0  0  0
    5.2276   -0.8108   -0.1335 C   0  0  0  0  0  0  0  0  0  0  0  0
    4.8342   -0.9924   -1.4681 C   0  0  0  0  0  0  0  0  0  0  0  0
   -0.7583    3.2934   -0.1354 C   0  0  0  0  0  0  0  0  0  0  0  0
   -2.8455    0.4200   -2.1066 H   0  0  0  0  0  0  0  0  0  0  0  0
    4.6117   -0.2338    1.8528 H   0  0  0  0  0  0  0  0  0  0  0  0
   -3.6822   -2.8580    1.5143 H   0  0  0  0  0  0  0  0  0  0  0  0
    3.2232   -0.8836   -2.8981 H   0  0  0  0  0  0  0  0  0  0  0  0
   -2.0908    0.0885    2.7350 H   0  0  0  0  0  0  0  0  0  0  0  0
   -2.4660   -1.5814    3.0382 H   0  0  0  0  0  0  0  0  0  0  0  0
   -0.9342   -1.2241    2.2700 H   0  0  0  0  0  0  0  0  0  0  0  0
   -4.3753   -1.4281   -2.4681 H   0  0  0  0  0  0  0  0  0  0  0  0
   -4.7876   -3.0925   -0.6770 H   0  0  0  0  0  0  0  0  0  0  0  0
    6.2551   -1.0116    0.1566 H   0  0  0  0  0  0  0  0  0  0  0  0
    5.5609   -1.3326   -2.2009 H   0  0  0  0  0  0  0  0  0  0  0  0
   -1.1138    4.2479   -0.5373 H   0  0  0  0  0  0  0  0  0  0  0  0
    0.2088    3.0759   -0.5933 H   0  0  0  0  0  0  0  0  0  0  0  0
   -0.6517    3.4120    0.9462 H   0  0  0  0  0  0  0  0  0  0  0  0
  1  9  1  0  0  0  0
  1 10  1  0  0  0  0
  2 11  2  0  0  0  0
  3 17  2  0  0  0  0
  4  5  1  0  0  0  0
  4  6  1  0  0  0  0
  4 17  1  0  0  0  0
  5 10  2  0  0  0  0
  6  8  1  0  0  0  0
  6 12  2  0  0  0  0
  7  9  1  0  0  0  0
  7 11  1  0  0  0  0
  7 13  2  0  0  0  0
  8 14  2  0  0  0  0
  8 16  1  0  0  0  0
  9 15  2  0  0  0  0
 10 11  1  0  0  0  0
 12 18  1  0  0  0  0
 12 23  1  0  0  0  0
 13 20  1  0  0  0  0
 13 24  1  0  0  0  0
 14 19  1  0  0  0  0
 14 25  1  0  0  0  0
 15 21  1  0  0  0  0
 15 26  1  0  0  0  0
 16 27  1  0  0  0  0
 16 28  1  0  0  0  0
 16 29  1  0  0  0  0
 17 22  1  0  0  0  0
 18 19  2  0  0  0  0
 18 30  1  0  0  0  0
 19 31  1  0  0  0  0
 20 21  2  0  0  0  0
 20 32  1  0  0  0  0
 21 33  1  0  0  0  0
 22 34  1  0  0  0  0
 22 35  1  0  0  0  0
 22 36  1  0  0  0  0
M  END
> <PUBCHEM_COMPOUND_CID>
5401874

> <PUBCHEM_CONFORMER_RMSD>
0.6

> <PUBCHEM_CONFORMER_DIVERSEORDER>
1
2
4
3
7
5
8
6
9

> <PUBCHEM_MMFF94_PARTIAL_CHARGES>
30
1 -0.24
10 0.59
11 0.48
12 -0.15
13 -0.15
14 -0.15
15 -0.15
16 0.14
17 0.57
18 -0.15
19 -0.15
2 -0.57
20 -0.15
21 -0.15
22 0.06
23 0.15
24 0.15
25 0.15
26 0.15
3 -0.57
30 0.15
31 0.15
32 0.15
33 0.15
4 -0.11
5 -0.51
6 0.12
7 0.09
8 -0.14
9 0.1

> <PUBCHEM_EFFECTIVE_ROTOR_COUNT>
3.2

> <PUBCHEM_PHARMACOPHORE_FEATURES>
6
1 2 acceptor
1 3 acceptor
1 5 acceptor
5 1 7 9 10 11 rings
6 6 8 12 14 18 19 rings
6 7 9 13 15 20 21 rings

> <PUBCHEM_HEAVY_ATOM_COUNT>
22

> <PUBCHEM_ATOM_DEF_STEREO_COUNT>
0

> <PUBCHEM_ATOM_UDEF_STEREO_COUNT>
0

> <PUBCHEM_BOND_DEF_STEREO_COUNT>
1

> <PUBCHEM_BOND_UDEF_STEREO_COUNT>
0

> <PUBCHEM_ISOTOPIC_ATOM_COUNT>
0

> <PUBCHEM_COMPONENT_COUNT>
1

> <PUBCHEM_CACTVS_TAUTO_COUNT>
1

> <PUBCHEM_CONFORMER_ID>
00526D1200000001

> <PUBCHEM_MMFF94_ENERGY>
92.3421

> <PUBCHEM_FEATURE_SELFOVERLAP>
30.507

> <PUBCHEM_SHAPE_FINGERPRINT>
11370993 144 16772689718740296182
11552529 35 15266479881032108774
11578080 2 17846775247962850601
11582403 64 15896351437774391489
12363563 72 18337955691923548607
12553582 1 18259987102121452411
12633257 1 15625960775633351939
12714826 92 18272095963274215792
12788726 201 18041835113310441153
12892183 10 15267348418219888898
13224815 77 17846784000973609374
13544653 18 17774720965106628687
13583140 156 18129086845884820598
13675066 3 13686307850692035686
13994607 96 11963398427129576375
14251764 30 17751378376642398731
14341114 176 15913058637391195282
15475509 8 18411972560744293749
16752209 62 18041268915981747715
17349148 13 17676205754271706778
17357779 13 18271796952051446493
17780758 139 16199878254531203034
1813 80 18270974551734798157
18186145 218 10665493094200521577
19862831 5 16950562198769407890
200 152 17676207991585755414
20775438 99 16746492020501228155
22620623 9 18411973642532875949
23402539 116 18186522081433386476
23402655 69 15068618297222420598
23557571 272 18341883078622930408
23559900 14 18261662766216092612
3027735 51 18339924814476213499
3286 77 17131555041063524299
4028521 119 13045933629584766751
463206 1 18116144648722629851
4921388 177 18339645529473511365
5104073 3 16271368483885338162
56616090 13 12685353159696180223
59755656 520 18055075350812487993
6786 2 17407139663929135825
7970288 3 18335989786598411595
81228 2 18409443653450880121

> <PUBCHEM_SHAPE_MULTIPOLES>
434.9
9.44
2.39
1.93
7.04
1.89
0.53
-6.19
-2.42
-2.94
-0.49
0.18
-0.31
1.01

> <PUBCHEM_SHAPE_SELFOVERLAP>
942.381

> <PUBCHEM_SHAPE_VOLUME>
239.5

> <PUBCHEM_COORDINATE_TYPE>
2
5
10

$$$$
