721127
  -OEChem-01171812003D

 26 28  0     0  0  0  0  0  0999 V2000
   -5.7180   -0.1798    0.0003 F   0  0  0  0  0  0  0  0  0  0  0  0
   -0.2120    0.0714    0.0006 N   0  0  0  0  0  0  0  0  0  0  0  0
    0.5142   -1.0493    0.0005 N   0  0  0  0  0  0  0  0  0  0  0  0
    0.4087    1.2540    0.0003 N   0  0  0  0  0  0  0  0  0  0  0  0
    5.4122   -1.0545   -0.0003 N   0  0  0  0  0  0  0  0  0  0  0  0
    1.7703   -0.5735    0.0004 C   0  0  0  0  0  0  0  0  0  0  0  0
    1.7030    0.8952   -0.0001 C   0  0  0  0  0  0  0  0  0  0  0  0
   -1.6036    0.0077    0.0003 C   0  0  0  0  0  0  0  0  0  0  0  0
    2.9943   -1.2681    0.0004 C   0  0  0  0  0  0  0  0  0  0  0  0
    2.8583    1.6989   -0.0005 C   0  0  0  0  0  0  0  0  0  0  0  0
    4.1320   -0.4404   -0.0001 C   0  0  0  0  0  0  0  0  0  0  0  0
    4.0669    0.9788   -0.0004 C   0  0  0  0  0  0  0  0  0  0  0  0
   -2.2348   -1.2303   -0.0003 C   0  0  0  0  0  0  0  0  0  0  0  0
   -2.3449    1.1832    0.0004 C   0  0  0  0  0  0  0  0  0  0  0  0
   -3.6283   -1.2938   -0.0008 C   0  0  0  0  0  0  0  0  0  0  0  0
   -3.7383    1.1196    0.0000 C   0  0  0  0  0  0  0  0  0  0  0  0
   -4.3800   -0.1189   -0.0007 C   0  0  0  0  0  0  0  0  0  0  0  0
    3.0527   -2.3497    0.0006 H   0  0  0  0  0  0  0  0  0  0  0  0
    2.8305    2.7811   -0.0007 H   0  0  0  0  0  0  0  0  0  0  0  0
    4.9953    1.5502   -0.0006 H   0  0  0  0  0  0  0  0  0  0  0  0
   -1.6879   -2.1692   -0.0003 H   0  0  0  0  0  0  0  0  0  0  0  0
   -1.8858    2.1679    0.0010 H   0  0  0  0  0  0  0  0  0  0  0  0
   -4.1288   -2.2577   -0.0010 H   0  0  0  0  0  0  0  0  0  0  0  0
   -4.3245    2.0339    0.0004 H   0  0  0  0  0  0  0  0  0  0  0  0
    6.2464   -0.4829   -0.0014 H   0  0  0  0  0  0  0  0  0  0  0  0
    5.4873   -2.0631   -0.0007 H   0  0  0  0  0  0  0  0  0  0  0  0
  1 17  1  0  0  0  0
  2  3  1  0  0  0  0
  2  4  1  0  0  0  0
  2  8  1  0  0  0  0
  3  6  2  0  0  0  0
  4  7  2  0  0  0  0
  5 11  1  0  0  0  0
  5 25  1  0  0  0  0
  5 26  1  0  0  0  0
  6  7  1  0  0  0  0
  6  9  1  0  0  0  0
  7 10  1  0  0  0  0
  8 13  2  0  0  0  0
  8 14  1  0  0  0  0
  9 11  2  0  0  0  0
  9 18  1  0  0  0  0
 10 12  2  0  0  0  0
 10 19  1  0  0  0  0
 11 12  1  0  0  0  0
 12 20  1  0  0  0  0
 13 15  1  0  0  0  0
 13 21  1  0  0  0  0
 14 16  2  0  0  0  0
 14 22  1  0  0  0  0
 15 17  2  0  0  0  0
 15 23  1  0  0  0  0
 16 17  1  0  0  0  0
 16 24  1  0  0  0  0
M  END
> <PUBCHEM_COMPOUND_CID>
721127

> <PUBCHEM_CONFORMER_RMSD>
0.6

> <PUBCHEM_CONFORMER_DIVERSEORDER>
1

> <PUBCHEM_MMFF94_PARTIAL_CHARGES>
26
1 -0.19
10 -0.15
11 0.1
12 -0.15
13 -0.15
14 -0.15
15 -0.15
16 -0.15
17 0.19
18 0.15
19 0.15
2 0.86
20 0.15
21 0.15
22 0.15
23 0.15
24 0.15
25 0.4
26 0.4
3 -0.71
4 -0.71
5 -0.9
6 0.29
7 0.29
8 -0.02
9 -0.15

> <PUBCHEM_EFFECTIVE_ROTOR_COUNT>
1

> <PUBCHEM_PHARMACOPHORE_FEATURES>
7
1 3 acceptor
1 4 acceptor
1 5 cation
1 5 donor
5 2 3 4 6 7 rings
6 6 7 9 10 11 12 rings
6 8 13 14 15 16 17 rings

> <PUBCHEM_HEAVY_ATOM_COUNT>
17

> <PUBCHEM_ATOM_DEF_STEREO_COUNT>
0

> <PUBCHEM_ATOM_UDEF_STEREO_COUNT>
0

> <PUBCHEM_BOND_DEF_STEREO_COUNT>
0

> <PUBCHEM_BOND_UDEF_STEREO_COUNT>
0

> <PUBCHEM_ISOTOPIC_ATOM_COUNT>
0

> <PUBCHEM_COMPONENT_COUNT>
1

> <PUBCHEM_CACTVS_TAUTO_COUNT>
2

> <PUBCHEM_CONFORMER_ID>
000B00E700000001

> <PUBCHEM_MMFF94_ENERGY>
59.2927

> <PUBCHEM_FEATURE_SELFOVERLAP>
35.7

> <PUBCHEM_SHAPE_FINGERPRINT>
10608611 8 18410007749669809437
10616163 171 18341332287843451367
11471102 20 18410574002816733988
12107183 9 17691125937617719507
12236239 1 17989488528405095539
13167823 11 18411417332076726191
13288520 33 18411420587661780742
13675066 3 18131345319718857832
13862211 1 18337106779196028762
14341114 176 18408610278985823241
15196674 1 18410855498830379207
15442244 35 18267304222954724912
15536298 74 18341612642028181288
17802600 8 18410571781917942637
17834072 33 18341330071523483031
18186145 218 17894341198620896830
18522853 276 18342738520175422409
200 152 18131630097562290361
20612939 158 18187090576596093908
20645477 70 18413109437765021206
21267235 1 18410864251995028851
21452121 103 18200019764166280720
221490 88 18263933296455736114
23402539 116 18130781249053493445
23402655 69 18412544318631296412
23557571 272 17603865559537754765
23559900 14 18339637940413972872
26918003 58 18412544318636519243
2871803 45 18260261945257090411
29717793 49 18060419097202177637
3004659 81 18187932734295261246
335352 9 18410573959397478559
3545911 37 18410294722183222173
42 15 18409450288562857396
4214541 1 18410855434717346469
474 4 17532096166664750748
4990 188 18272941505249201486
5104073 3 18411419539694938657
542803 24 17060624399478773905
633830 44 17603583066685358328
69090 78 18412823603533486055
7495541 125 17274535546324993667
77779 3 18410294726425428941
8809292 202 18261115209399028235
9709674 26 18411143557976773559
9981440 41 17398953168273693944

> <PUBCHEM_SHAPE_MULTIPOLES>
322.65
10.79
1.58
0.59
1.97
0.15
0
-1.33
0
-0.47
0
-0.01
0.01
0

> <PUBCHEM_SHAPE_SELFOVERLAP>
717.446

> <PUBCHEM_SHAPE_VOLUME>
174

> <PUBCHEM_COORDINATE_TYPE>
2
5
10

$$$$
