6497614
  -OEChem-01171812073D

 55 58  0     1  0  0  0  0  0999 V2000
    8.7671    1.8363   -2.1677 Cl  0  0  0  0  0  0  0  0  0  0  0  0
   -5.4553   -0.5044   -1.5163 S   0  0  0  0  0  0  0  0  0  0  0  0
   -5.2567    0.0203   -2.8498 O   0  0  0  0  0  0  0  0  0  0  0  0
   -6.3180   -1.6419   -1.2818 O   0  0  0  0  0  0  0  0  0  0  0  0
    3.8883    1.0284    2.6358 O   0  0  0  0  0  0  0  0  0  0  0  0
    1.2890   -0.3328   -0.4892 O   0  0  0  0  0  0  0  0  0  0  0  0
   -5.9294    0.7748   -0.4784 N   0  0  0  0  0  0  0  0  0  0  0  0
    4.1575   -0.4639    0.7969 N   0  0  0  0  0  0  0  0  0  0  0  0
   -0.1219   -1.7542    0.7557 N   0  0  0  0  0  0  0  0  0  0  0  0
   -5.0309    1.9670   -0.4853 C   0  0  0  0  0  0  0  0  0  0  0  0
   -6.3079    0.3647    0.9061 C   0  0  0  0  0  0  0  0  0  0  0  0
   -5.7319    3.1402    0.1913 C   0  0  0  0  0  0  0  0  0  0  0  0
   -7.0278    1.5154    1.6017 C   0  0  0  0  0  0  0  0  0  0  0  0
   -6.1751    2.7812    1.6068 C   0  0  0  0  0  0  0  0  0  0  0  0
    2.2245   -1.7500    1.1688 C   0  0  1  0  0  0  0  0  0  0  0  0
    3.5318   -1.7117    0.3994 C   0  0  0  0  0  0  0  0  0  0  0  0
    2.4922   -0.9096    2.4057 C   0  0  0  0  0  0  0  0  0  0  0  0
    3.5870    0.0425    1.9776 C   0  0  0  0  0  0  0  0  0  0  0  0
    1.0855   -1.1844    0.3696 C   0  0  0  0  0  0  0  0  0  0  0  0
   -3.8680   -0.8761   -0.8396 C   0  0  0  0  0  0  0  0  0  0  0  0
    5.2648    0.0887    0.0849 C   0  0  0  0  0  0  0  0  0  0  0  0
   -1.3765   -1.4597    0.2218 C   0  0  0  0  0  0  0  0  0  0  0  0
   -3.7654   -1.8169    0.1720 C   0  0  0  0  0  0  0  0  0  0  0  0
   -2.7511   -0.2211   -1.3317 C   0  0  0  0  0  0  0  0  0  0  0  0
   -2.5108   -2.1107    0.7065 C   0  0  0  0  0  0  0  0  0  0  0  0
   -1.4966   -0.5149   -0.7974 C   0  0  0  0  0  0  0  0  0  0  0  0
    5.8926    1.2470    0.5509 C   0  0  0  0  0  0  0  0  0  0  0  0
    5.7271   -0.5258   -1.0822 C   0  0  0  0  0  0  0  0  0  0  0  0
    6.9744    1.7869   -0.1449 C   0  0  0  0  0  0  0  0  0  0  0  0
    6.8089    0.0142   -1.7779 C   0  0  0  0  0  0  0  0  0  0  0  0
    7.4325    1.1704   -1.3093 C   0  0  0  0  0  0  0  0  0  0  0  0
   -4.1027    1.7528    0.0541 H   0  0  0  0  0  0  0  0  0  0  0  0
   -4.7876    2.2524   -1.5137 H   0  0  0  0  0  0  0  0  0  0  0  0
   -6.9837   -0.4957    0.8775 H   0  0  0  0  0  0  0  0  0  0  0  0
   -5.4165    0.0910    1.4799 H   0  0  0  0  0  0  0  0  0  0  0  0
   -5.0617    4.0065    0.2216 H   0  0  0  0  0  0  0  0  0  0  0  0
   -6.6101    3.4315   -0.3986 H   0  0  0  0  0  0  0  0  0  0  0  0
   -7.9745    1.7203    1.0863 H   0  0  0  0  0  0  0  0  0  0  0  0
   -7.2750    1.2313    2.6305 H   0  0  0  0  0  0  0  0  0  0  0  0
   -5.2931    2.6277    2.2405 H   0  0  0  0  0  0  0  0  0  0  0  0
   -6.7435    3.6112    2.0409 H   0  0  0  0  0  0  0  0  0  0  0  0
    1.9874   -2.7865    1.4377 H   0  0  0  0  0  0  0  0  0  0  0  0
    3.3655   -1.7626   -0.6805 H   0  0  0  0  0  0  0  0  0  0  0  0
    4.1916   -2.5304    0.7098 H   0  0  0  0  0  0  0  0  0  0  0  0
    1.6179   -0.3480    2.7474 H   0  0  0  0  0  0  0  0  0  0  0  0
    2.8793   -1.5247    3.2249 H   0  0  0  0  0  0  0  0  0  0  0  0
   -0.1107   -2.4474    1.5004 H   0  0  0  0  0  0  0  0  0  0  0  0
   -4.6360   -2.3324    0.5655 H   0  0  0  0  0  0  0  0  0  0  0  0
   -2.8236    0.5183   -2.1236 H   0  0  0  0  0  0  0  0  0  0  0  0
   -2.4319   -2.8486    1.5009 H   0  0  0  0  0  0  0  0  0  0  0  0
   -0.6758    0.0359   -1.2320 H   0  0  0  0  0  0  0  0  0  0  0  0
    5.5916    1.7764    1.4445 H   0  0  0  0  0  0  0  0  0  0  0  0
    5.2853   -1.4326   -1.4815 H   0  0  0  0  0  0  0  0  0  0  0  0
    7.4515    2.6885    0.2311 H   0  0  0  0  0  0  0  0  0  0  0  0
    7.1574   -0.4779   -2.6824 H   0  0  0  0  0  0  0  0  0  0  0  0
  1 31  1  0  0  0  0
  2  3  2  0  0  0  0
  2  4  2  0  0  0  0
  2  7  1  0  0  0  0
  2 20  1  0  0  0  0
  5 18  2  0  0  0  0
  6 19  2  0  0  0  0
  7 10  1  0  0  0  0
  7 11  1  0  0  0  0
  8 16  1  0  0  0  0
  8 18  1  0  0  0  0
  8 21  1  0  0  0  0
  9 19  1  0  0  0  0
  9 22  1  0  0  0  0
  9 47  1  0  0  0  0
 10 12  1  0  0  0  0
 10 32  1  0  0  0  0
 10 33  1  0  0  0  0
 11 13  1  0  0  0  0
 11 34  1  0  0  0  0
 11 35  1  0  0  0  0
 12 14  1  0  0  0  0
 12 36  1  0  0  0  0
 12 37  1  0  0  0  0
 13 14  1  0  0  0  0
 13 38  1  0  0  0  0
 13 39  1  0  0  0  0
 14 40  1  0  0  0  0
 14 41  1  0  0  0  0
 15 16  1  0  0  0  0
 15 17  1  0  0  0  0
 15 19  1  0  0  0  0
 15 42  1  0  0  0  0
 16 43  1  0  0  0  0
 16 44  1  0  0  0  0
 17 18  1  0  0  0  0
 17 45  1  0  0  0  0
 17 46  1  0  0  0  0
 20 23  2  0  0  0  0
 20 24  1  0  0  0  0
 21 27  2  0  0  0  0
 21 28  1  0  0  0  0
 22 25  2  0  0  0  0
 22 26  1  0  0  0  0
 23 25  1  0  0  0  0
 23 48  1  0  0  0  0
 24 26  2  0  0  0  0
 24 49  1  0  0  0  0
 25 50  1  0  0  0  0
 26 51  1  0  0  0  0
 27 29  1  0  0  0  0
 27 52  1  0  0  0  0
 28 30  2  0  0  0  0
 28 53  1  0  0  0  0
 29 31  2  0  0  0  0
 29 54  1  0  0  0  0
 30 31  1  0  0  0  0
 30 55  1  0  0  0  0
M  END
> <PUBCHEM_COMPOUND_CID>
6497614

> <PUBCHEM_CONFORMER_RMSD>
1

> <PUBCHEM_CONFORMER_DIVERSEORDER>
1
26
58
49
12
62
5
71
36
20
42
53
78
72
16
70
31
48
54
41
55
56
28
64
50
44
74
40
46
30
73
6
25
19
38
45
17
47
66
8
18
23
39
24
61
15
65
75
77
13
69
10
51
21
3
9
11
67
52
29
14
59
76
43
33
22
27
63
60
68
7
57
4
34
2
35
32
37

> <PUBCHEM_MMFF94_PARTIAL_CHARGES>
37
1 -0.18
10 0.36
11 0.36
15 0.06
16 0.3
17 0.06
18 0.57
19 0.57
2 1.45
20 -0.01
21 0.12
22 0.12
23 -0.15
24 -0.15
25 -0.15
26 -0.15
27 -0.15
28 -0.15
29 -0.15
3 -0.65
30 -0.15
31 0.18
4 -0.65
47 0.37
48 0.15
49 0.15
5 -0.57
50 0.15
51 0.15
52 0.15
53 0.15
54 0.15
55 0.15
6 -0.57
7 -0.85
8 -0.48
9 -0.55

> <PUBCHEM_EFFECTIVE_ROTOR_COUNT>
8

> <PUBCHEM_PHARMACOPHORE_FEATURES>
9
1 3 acceptor
1 4 acceptor
1 5 acceptor
1 6 acceptor
1 9 donor
5 8 15 16 17 18 rings
6 20 22 23 24 25 26 rings
6 21 27 28 29 30 31 rings
6 7 10 11 12 13 14 rings

> <PUBCHEM_HEAVY_ATOM_COUNT>
31

> <PUBCHEM_ATOM_DEF_STEREO_COUNT>
0

> <PUBCHEM_ATOM_UDEF_STEREO_COUNT>
1

> <PUBCHEM_BOND_DEF_STEREO_COUNT>
0

> <PUBCHEM_BOND_UDEF_STEREO_COUNT>
0

> <PUBCHEM_ISOTOPIC_ATOM_COUNT>
0

> <PUBCHEM_COMPONENT_COUNT>
1

> <PUBCHEM_CACTVS_TAUTO_COUNT>
4

> <PUBCHEM_CONFORMER_ID>
0063254E00000001

> <PUBCHEM_MMFF94_ENERGY>
72.0445

> <PUBCHEM_FEATURE_SELFOVERLAP>
45.691

> <PUBCHEM_SHAPE_FINGERPRINT>
10 15 16298104293580880975
10454371 7 18060425694304086409
10577160 183 10519716553742334983
10763959 59 17561079228642661928
10906281 52 18334580122322592531
11007060 377 17095520708596795315
11135609 201 17385728014875593104
11456790 92 15791719842282437372
11991303 11 16128360627986603909
12082328 90 18202283610914909919
12596602 18 15213293089208293609
12717326 69 11458422423538437200
13165053 103 11527946768861780157
13627175 4 10951762044957145221
13782708 43 9727631717617205374
14150022 121 17750249148235829891
14461889 52 13984665849732280792
14747281 78 17986971656026738375
14849402 71 18187372055488347005
14904525 67 18041837303200905068
15183329 4 18259980491850435076
15188451 53 9583517599220100482
15297060 5 18113902684863067106
15519825 34 12252194003518101616
1577012 14 18411134714612061666
16126227 98 18114189648053744411
1768 4 17458633345268927292
17857418 61 9799687121443001203
190975 80 11386371461024380710
19377110 9 15791451530214300755
2026 5 12391515282606256525
21033648 29 18130213952540265314
23081809 10 18339067220944139515
23522609 53 18337679619852224649
312425 54 12757420593403585909
3711267 37 17603874429336831068
394071 54 17749391459934568702
397830 11 14129061408861902298
3986486 107 18342468049928518892
4098825 35 17988929924774299679
4107672 100 17489586783882039519
4169191 19 18040151837837381197
4173938 188 16660650704705926699
4340502 62 13840258187669097202
4403749 210 15285355133433675307
445580 37 18130788949824158569
504579 68 15339124519789831574
5085150 59 10665231453747573473
5104073 3 14924213877173691107
5109719 28 16298398971919900542
5223283 242 18115602431382792286
531348 171 11671780460632917155
5718773 13 10015579489331585808
5911458 16 18334586732404056532
5937810 71 18337399326498396836
6036956 94 17906166257965289389
6201320 221 16772131138045242814
6201320 82 17244449692430683772
6289498 60 17313657283108707476
6697151 62 13686288042055317586
9689198 14 18337402573144902112
9953998 17 12829484844925607629
9980921 221 17274557437684137912

> <PUBCHEM_SHAPE_MULTIPOLES>
605.26
25.59
2.62
2.25
16.19
1.09
0.2
19.07
-6.92
-2.35
0.6
0.14
0.43
-3.68

> <PUBCHEM_SHAPE_SELFOVERLAP>
1278.581

> <PUBCHEM_SHAPE_VOLUME>
339.9

> <PUBCHEM_COORDINATE_TYPE>
2
5
10

$$$$
