275192
  -OEChem-01171811473D

 47 49  0     1  0  0  0  0  0999 V2000
    1.1139   -1.9077   -2.6047 O   0  0  0  0  0  0  0  0  0  0  0  0
   -3.2551    2.3886   -0.7723 O   0  0  0  0  0  0  0  0  0  0  0  0
   -4.9016    1.1614    1.0974 O   0  0  0  0  0  0  0  0  0  0  0  0
    4.4382   -0.6215    1.2437 O   0  0  0  0  0  0  0  0  0  0  0  0
    4.7928    2.0523    0.5741 O   0  0  0  0  0  0  0  0  0  0  0  0
   -0.0234   -2.7276   -0.2872 N   0  0  0  0  0  0  0  0  0  0  0  0
    0.5736   -0.9079   -1.7238 C   0  0  1  0  0  0  0  0  0  0  0  0
   -0.3677   -1.4934   -0.7191 C   0  0  0  0  0  0  0  0  0  0  0  0
   -1.4962   -0.7921   -0.2894 C   0  0  0  0  0  0  0  0  0  0  0  0
    1.7131   -0.1119   -1.1020 C   0  0  0  0  0  0  0  0  0  0  0  0
   -2.3294   -1.4190    0.6599 C   0  0  0  0  0  0  0  0  0  0  0  0
   -1.8190    0.4899   -0.7639 C   0  0  0  0  0  0  0  0  0  0  0  0
   -3.4739   -0.7444    1.1158 C   0  0  0  0  0  0  0  0  0  0  0  0
   -2.9594    1.1453   -0.3000 C   0  0  0  0  0  0  0  0  0  0  0  0
    2.5553   -0.7411   -0.2090 C   0  0  0  0  0  0  0  0  0  0  0  0
   -1.9905   -2.6968    1.1200 C   0  0  0  0  0  0  0  0  0  0  0  0
   -3.7851    0.5295    0.6376 C   0  0  0  0  0  0  0  0  0  0  0  0
    1.8673    1.2139   -1.4507 C   0  0  0  0  0  0  0  0  0  0  0  0
   -0.8441   -3.2965    0.6212 C   0  0  0  0  0  0  0  0  0  0  0  0
    3.5988   -0.0118    0.3610 C   0  0  0  0  0  0  0  0  0  0  0  0
    2.9107    1.9431   -0.8808 C   0  0  0  0  0  0  0  0  0  0  0  0
    3.7765    1.3303    0.0250 C   0  0  0  0  0  0  0  0  0  0  0  0
   -2.7307    3.5026   -0.0789 C   0  0  0  0  0  0  0  0  0  0  0  0
   -6.1121    0.9591    0.3976 C   0  0  0  0  0  0  0  0  0  0  0  0
    4.2080   -1.9828    1.5449 C   0  0  0  0  0  0  0  0  0  0  0  0
    4.5399    2.7384    1.7835 C   0  0  0  0  0  0  0  0  0  0  0  0
    0.0246   -0.2727   -2.4241 H   0  0  0  0  0  0  0  0  0  0  0  0
   -1.2078    1.0211   -1.4854 H   0  0  0  0  0  0  0  0  0  0  0  0
   -4.1281   -1.2125    1.8491 H   0  0  0  0  0  0  0  0  0  0  0  0
    2.3919   -1.7895    0.0057 H   0  0  0  0  0  0  0  0  0  0  0  0
   -2.6017   -3.2180    1.8504 H   0  0  0  0  0  0  0  0  0  0  0  0
    1.2016    1.7012   -2.1564 H   0  0  0  0  0  0  0  0  0  0  0  0
   -0.5479   -4.2861    0.9538 H   0  0  0  0  0  0  0  0  0  0  0  0
    3.0441    2.9880   -1.1480 H   0  0  0  0  0  0  0  0  0  0  0  0
    1.9182   -1.5515   -3.0192 H   0  0  0  0  0  0  0  0  0  0  0  0
   -3.0925    3.5237    0.9542 H   0  0  0  0  0  0  0  0  0  0  0  0
   -3.0658    4.4142   -0.5815 H   0  0  0  0  0  0  0  0  0  0  0  0
   -1.6360    3.4842   -0.0883 H   0  0  0  0  0  0  0  0  0  0  0  0
   -6.0256    1.3034   -0.6380 H   0  0  0  0  0  0  0  0  0  0  0  0
   -6.8990    1.5376    0.8897 H   0  0  0  0  0  0  0  0  0  0  0  0
   -6.3974   -0.0978    0.4144 H   0  0  0  0  0  0  0  0  0  0  0  0
    4.3322   -2.6209    0.6631 H   0  0  0  0  0  0  0  0  0  0  0  0
    3.2359   -2.1345    2.0269 H   0  0  0  0  0  0  0  0  0  0  0  0
    4.9702   -2.2921    2.2679 H   0  0  0  0  0  0  0  0  0  0  0  0
    4.2579    2.0384    2.5767 H   0  0  0  0  0  0  0  0  0  0  0  0
    3.7492    3.4834    1.6479 H   0  0  0  0  0  0  0  0  0  0  0  0
    5.4542    3.2556    2.0875 H   0  0  0  0  0  0  0  0  0  0  0  0
  1  7  1  0  0  0  0
  1 35  1  0  0  0  0
  2 14  1  0  0  0  0
  2 23  1  0  0  0  0
  3 17  1  0  0  0  0
  3 24  1  0  0  0  0
  4 20  1  0  0  0  0
  4 25  1  0  0  0  0
  5 22  1  0  0  0  0
  5 26  1  0  0  0  0
  6  8  2  0  0  0  0
  6 19  1  0  0  0  0
  7  8  1  0  0  0  0
  7 10  1  0  0  0  0
  7 27  1  0  0  0  0
  8  9  1  0  0  0  0
  9 11  1  0  0  0  0
  9 12  2  0  0  0  0
 10 15  2  0  0  0  0
 10 18  1  0  0  0  0
 11 13  2  0  0  0  0
 11 16  1  0  0  0  0
 12 14  1  0  0  0  0
 12 28  1  0  0  0  0
 13 17  1  0  0  0  0
 13 29  1  0  0  0  0
 14 17  2  0  0  0  0
 15 20  1  0  0  0  0
 15 30  1  0  0  0  0
 16 19  2  0  0  0  0
 16 31  1  0  0  0  0
 18 21  2  0  0  0  0
 18 32  1  0  0  0  0
 19 33  1  0  0  0  0
 20 22  2  0  0  0  0
 21 22  1  0  0  0  0
 21 34  1  0  0  0  0
 23 36  1  0  0  0  0
 23 37  1  0  0  0  0
 23 38  1  0  0  0  0
 24 39  1  0  0  0  0
 24 40  1  0  0  0  0
 24 41  1  0  0  0  0
 25 42  1  0  0  0  0
 25 43  1  0  0  0  0
 25 44  1  0  0  0  0
 26 45  1  0  0  0  0
 26 46  1  0  0  0  0
 26 47  1  0  0  0  0
M  END
> <PUBCHEM_COMPOUND_CID>
275192

> <PUBCHEM_CONFORMER_RMSD>
0.8

> <PUBCHEM_CONFORMER_DIVERSEORDER>
2
48
57
60
14
63
61
21
33
30
18
17
26
59
66
51
23
50
44
19
64
65
45
42
56
52
43
9
13
36
34
5
16
24
58
20
37
62
53
47
46
4
40
7
49
41
15
11
22
55
10
35
3
32
8
31
6
39
27
29
25
1
28
67
54
38
12

> <PUBCHEM_MMFF94_PARTIAL_CHARGES>
32
1 -0.68
10 -0.14
12 -0.15
13 -0.15
14 0.08
15 -0.15
16 -0.15
17 0.08
18 -0.15
19 0.16
2 -0.36
20 0.08
21 -0.15
22 0.08
23 0.28
24 0.28
25 0.28
26 0.28
28 0.15
29 0.15
3 -0.36
30 0.15
31 0.15
32 0.15
33 0.15
34 0.15
35 0.4
4 -0.36
5 -0.36
6 -0.62
7 0.57
8 0.17

> <PUBCHEM_EFFECTIVE_ROTOR_COUNT>
6

> <PUBCHEM_PHARMACOPHORE_FEATURES>
10
1 1 acceptor
1 1 donor
1 2 acceptor
1 3 acceptor
1 4 acceptor
1 5 acceptor
1 6 acceptor
6 10 15 18 20 21 22 rings
6 6 8 9 11 16 19 rings
6 9 11 12 13 14 17 rings

> <PUBCHEM_HEAVY_ATOM_COUNT>
26

> <PUBCHEM_ATOM_DEF_STEREO_COUNT>
0

> <PUBCHEM_ATOM_UDEF_STEREO_COUNT>
1

> <PUBCHEM_BOND_DEF_STEREO_COUNT>
0

> <PUBCHEM_BOND_UDEF_STEREO_COUNT>
0

> <PUBCHEM_ISOTOPIC_ATOM_COUNT>
0

> <PUBCHEM_COMPONENT_COUNT>
1

> <PUBCHEM_CACTVS_TAUTO_COUNT>
1

> <PUBCHEM_CONFORMER_ID>
000432F800000002

> <PUBCHEM_MMFF94_ENERGY>
121.6712

> <PUBCHEM_FEATURE_SELFOVERLAP>
50.792

> <PUBCHEM_SHAPE_FINGERPRINT>
10074138 170 18116995700966069707
10759866 29 18041857215143678820
11370993 70 18335700494885788133
11725454 13 18060693979309389775
12363563 72 13696411357497392518
12403260 363 18334574603821918959
12633257 1 18334860510666763202
12670546 177 11527943456808315770
12670546 56 18335976566751578874
12892183 10 18260545671208263866
13140716 1 18189350107450839523
13402501 40 18272655683565802809
13583140 156 18196642107052274264
13965767 371 17245833641512343005
14178342 30 18043802303037424610
14251764 38 18199750241266006937
14466204 15 17976533919356130698
14787075 74 18272370871916051749
16110190 28 18115014231121445906
17974551 9 18259980462181296714
1813 80 15068341198785651910
20715895 44 18261957328565043149
21033648 29 17774154747100164752
21756936 100 18052537966096754756
21792934 111 17897458194987685545
22149856 69 18049196370277090523
22950370 63 9367347037873524843
23559900 14 18265359268395038631
3117164 225 18263907909542197480
3680242 22 18261404304096205961
3886686 26 17750230297033972187
4340502 62 18337402561003922227
469060 322 17629757044386146063
474 4 17989212516405369215
484985 159 12758239767852076741
495365 180 17703520891133072838
5104073 3 18335139820974975115
58807428 26 18114471089050875755
7097593 13 18113615733444429214
960060 61 9223221923716661633

> <PUBCHEM_SHAPE_MULTIPOLES>
500.74
10.43
3.68
1.64
0.93
0.12
0.39
6.76
-5.43
0.31
-0.72
-1.27
-0.31
0.68

> <PUBCHEM_SHAPE_SELFOVERLAP>
1087.938

> <PUBCHEM_SHAPE_VOLUME>
275.2

> <PUBCHEM_COORDINATE_TYPE>
2
5
10

$$$$
