614552
  -OEChem-01171811473D

 42 44  0     1  0  0  0  0  0999 V2000
    1.9649    0.9906    2.3025 O   0  0  0  0  0  0  0  0  0  0  0  0
   -0.4791    0.0461    1.9111 O   0  0  0  0  0  0  0  0  0  0  0  0
   -0.4635   -1.7989   -0.4318 O   0  0  0  0  0  0  0  0  0  0  0  0
   -2.3719    0.1073   -0.1621 O   0  0  0  0  0  0  0  0  0  0  0  0
   -2.3560    2.1309   -1.2866 O   0  0  0  0  0  0  0  0  0  0  0  0
    1.6368    2.0813    0.2178 N   0  0  0  0  0  0  0  0  0  0  0  0
    1.6643    0.8198    0.9283 C   0  0  2  0  0  0  0  0  0  0  0  0
    0.2094    0.2687    0.7046 C   0  0  2  0  0  0  0  0  0  0  0  0
    2.5478   -0.1920    0.2630 C   0  0  0  0  0  0  0  0  0  0  0  0
   -0.4391    1.3425   -0.1369 C   0  0  0  0  0  0  0  0  0  0  0  0
    0.4077   -1.0306   -0.0652 C   0  0  0  0  0  0  0  0  0  0  0  0
    1.8311   -1.2444   -0.3014 C   0  0  0  0  0  0  0  0  0  0  0  0
    0.4236    2.3446   -0.3778 C   0  0  0  0  0  0  0  0  0  0  0  0
    3.9311   -0.1737    0.1617 C   0  0  0  0  0  0  0  0  0  0  0  0
   -1.8163    1.2672   -0.6042 C   0  0  0  0  0  0  0  0  0  0  0  0
    2.4360   -2.2939   -0.9687 C   0  0  0  0  0  0  0  0  0  0  0  0
    0.2400    3.6020   -1.1512 C   0  0  0  0  0  0  0  0  0  0  0  0
    4.5696   -1.2225   -0.5083 C   0  0  0  0  0  0  0  0  0  0  0  0
    3.8270   -2.2749   -1.0688 C   0  0  0  0  0  0  0  0  0  0  0  0
   -3.7337   -0.1137   -0.5432 C   0  0  0  0  0  0  0  0  0  0  0  0
   -4.2231   -1.4500    0.0220 C   0  0  0  0  0  0  0  0  0  0  0  0
   -4.1626   -1.4641    1.5509 C   0  0  0  0  0  0  0  0  0  0  0  0
   -5.6439   -1.7421   -0.4556 C   0  0  0  0  0  0  0  0  0  0  0  0
    2.4189    2.7189    0.1511 H   0  0  0  0  0  0  0  0  0  0  0  0
    4.5130    0.6352    0.5913 H   0  0  0  0  0  0  0  0  0  0  0  0
    1.3739    1.6860    2.6376 H   0  0  0  0  0  0  0  0  0  0  0  0
    0.1029   -0.4662    2.4979 H   0  0  0  0  0  0  0  0  0  0  0  0
    1.8604   -3.1041   -1.4015 H   0  0  0  0  0  0  0  0  0  0  0  0
    1.1548    3.8444   -1.7039 H   0  0  0  0  0  0  0  0  0  0  0  0
    0.0247    4.4349   -0.4746 H   0  0  0  0  0  0  0  0  0  0  0  0
   -0.5583    3.5402   -1.8932 H   0  0  0  0  0  0  0  0  0  0  0  0
    5.6528   -1.2243   -0.5968 H   0  0  0  0  0  0  0  0  0  0  0  0
    4.3427   -3.0800   -1.5852 H   0  0  0  0  0  0  0  0  0  0  0  0
   -3.7952   -0.1292   -1.6381 H   0  0  0  0  0  0  0  0  0  0  0  0
   -4.3522    0.7099   -0.1657 H   0  0  0  0  0  0  0  0  0  0  0  0
   -3.5591   -2.2454   -0.3395 H   0  0  0  0  0  0  0  0  0  0  0  0
   -4.5214   -2.4213    1.9440 H   0  0  0  0  0  0  0  0  0  0  0  0
   -4.7817   -0.6689    1.9798 H   0  0  0  0  0  0  0  0  0  0  0  0
   -3.1370   -1.3253    1.9076 H   0  0  0  0  0  0  0  0  0  0  0  0
   -5.9889   -2.7115   -0.0807 H   0  0  0  0  0  0  0  0  0  0  0  0
   -5.6877   -1.7727   -1.5495 H   0  0  0  0  0  0  0  0  0  0  0  0
   -6.3458   -0.9757   -0.1094 H   0  0  0  0  0  0  0  0  0  0  0  0
  1  7  1  0  0  0  0
  1 26  1  0  0  0  0
  2  8  1  0  0  0  0
  2 27  1  0  0  0  0
  3 11  2  0  0  0  0
  4 15  1  0  0  0  0
  4 20  1  0  0  0  0
  5 15  2  0  0  0  0
  6  7  1  0  0  0  0
  6 13  1  0  0  0  0
  6 24  1  0  0  0  0
  7  8  1  0  0  0  0
  7  9  1  0  0  0  0
  8 10  1  0  0  0  0
  8 11  1  0  0  0  0
  9 12  1  0  0  0  0
  9 14  2  0  0  0  0
 10 13  2  0  0  0  0
 10 15  1  0  0  0  0
 11 12  1  0  0  0  0
 12 16  2  0  0  0  0
 13 17  1  0  0  0  0
 14 18  1  0  0  0  0
 14 25  1  0  0  0  0
 16 19  1  0  0  0  0
 16 28  1  0  0  0  0
 17 29  1  0  0  0  0
 17 30  1  0  0  0  0
 17 31  1  0  0  0  0
 18 19  2  0  0  0  0
 18 32  1  0  0  0  0
 19 33  1  0  0  0  0
 20 21  1  0  0  0  0
 20 34  1  0  0  0  0
 20 35  1  0  0  0  0
 21 22  1  0  0  0  0
 21 23  1  0  0  0  0
 21 36  1  0  0  0  0
 22 37  1  0  0  0  0
 22 38  1  0  0  0  0
 22 39  1  0  0  0  0
 23 40  1  0  0  0  0
 23 41  1  0  0  0  0
 23 42  1  0  0  0  0
M  END
> <PUBCHEM_COMPOUND_CID>
614552

> <PUBCHEM_CONFORMER_RMSD>
0.8

> <PUBCHEM_CONFORMER_DIVERSEORDER>
1
23
8
13
3
22
7
20
10
14
18
27
12
2
33
32
4
15
6
17
31
9
25
11
26
5
24
16
29
19
28
30
21

> <PUBCHEM_MMFF94_PARTIAL_CHARGES>
27
1 -0.68
10 -0.12
11 0.42
12 0.09
13 -0.04
14 -0.15
15 0.71
16 -0.15
17 0.14
18 -0.15
19 -0.15
2 -0.68
20 0.28
24 0.4
25 0.15
26 0.4
27 0.4
28 0.15
3 -0.57
32 0.15
33 0.15
4 -0.43
5 -0.57
6 -0.87
7 0.79
8 0.48
9 -0.14

> <PUBCHEM_EFFECTIVE_ROTOR_COUNT>
4.2

> <PUBCHEM_PHARMACOPHORE_FEATURES>
12
1 1 acceptor
1 1 donor
1 2 acceptor
1 2 donor
1 3 acceptor
1 5 acceptor
1 6 cation
1 6 donor
3 21 22 23 hydrophobe
5 6 7 8 10 13 rings
5 7 8 9 11 12 rings
6 9 12 14 16 18 19 rings

> <PUBCHEM_HEAVY_ATOM_COUNT>
23

> <PUBCHEM_ATOM_DEF_STEREO_COUNT>
0

> <PUBCHEM_ATOM_UDEF_STEREO_COUNT>
2

> <PUBCHEM_BOND_DEF_STEREO_COUNT>
0

> <PUBCHEM_BOND_UDEF_STEREO_COUNT>
0

> <PUBCHEM_ISOTOPIC_ATOM_COUNT>
0

> <PUBCHEM_COMPONENT_COUNT>
1

> <PUBCHEM_CACTVS_TAUTO_COUNT>
2

> <PUBCHEM_CONFORMER_ID>
0009609800000001

> <PUBCHEM_MMFF94_ENERGY>
62.4655

> <PUBCHEM_FEATURE_SELFOVERLAP>
61.477

> <PUBCHEM_SHAPE_FINGERPRINT>
11640471 11 15866610683635636516
116883 192 18408040736574061637
12035758 1 17986650719470423458
12403259 226 18268427937192861630
12553582 1 18113331990967456201
12778500 126 17489041400677330611
12892183 10 11382957442822891692
13103583 49 16988857068205987691
13140716 1 17906722957827321090
13464513 79 18412823620344148582
13533116 47 17916868053756215531
13544653 18 18202006508045925419
14790565 3 17400366040530652629
15527383 91 18130516258055626939
16945 1 17631148862823825112
17357779 13 18408878538643576503
17492 54 18042704955819945804
1813 80 18409735062201032639
20645477 70 18044928215902755871
20871999 31 18187926119306777069
21475661 188 8430310234158812342
221490 88 18408889555039388207
22182313 1 18339059549863263789
23402539 116 18041277648040371118
23419403 2 17773855550782078400
23557571 272 18263640680170498276
2748010 2 18267283396542489485
3286 77 17703791457309212587
46194498 28 18116146848050749151
5104073 3 18128813045830344650
9709674 26 18189614024796695795

> <PUBCHEM_SHAPE_MULTIPOLES>
439
8.45
3.13
1.36
7.28
1.94
-0.64
-7.5
0.92
-0.33
1.33
0.01
0.2
1.41

> <PUBCHEM_SHAPE_SELFOVERLAP>
960.039

> <PUBCHEM_SHAPE_VOLUME>
240.3

> <PUBCHEM_COORDINATE_TYPE>
2
5
10

$$$$
