5439911
  -OEChem-01171811443D

 45 48  0     0  0  0  0  0  0999 V2000
   -2.9779   -1.5260   -0.0632 S   0  0  0  0  0  0  0  0  0  0  0  0
    1.8745   -1.1219   -0.0350 O   0  0  0  0  0  0  0  0  0  0  0  0
   -8.1591   -0.9898   -0.0542 O   0  0  0  0  0  0  0  0  0  0  0  0
    3.4494    0.6644    0.0318 N   0  0  0  0  0  0  0  0  0  0  0  0
    3.4010    2.0557    0.0827 N   0  0  0  0  0  0  0  0  0  0  0  0
   -0.8531    0.0647    0.0019 N   0  0  0  0  0  0  0  0  0  0  0  0
   -2.9987    1.0513    0.0342 N   0  0  0  0  0  0  0  0  0  0  0  0
    1.2736    1.2147    0.0494 C   0  0  0  0  0  0  0  0  0  0  0  0
    4.6362   -0.0514    0.0067 C   0  0  0  0  0  0  0  0  0  0  0  0
    2.1406    2.3921    0.0951 C   0  0  0  0  0  0  0  0  0  0  0  0
    2.1836    0.0533    0.0082 C   0  0  0  0  0  0  0  0  0  0  0  0
   -0.0564    1.1649    0.0447 C   0  0  0  0  0  0  0  0  0  0  0  0
    4.6998   -1.3334    0.5644 C   0  0  0  0  0  0  0  0  0  0  0  0
    5.7823    0.5007   -0.5764 C   0  0  0  0  0  0  0  0  0  0  0  0
   -4.5147   -0.7447   -0.0370 C   0  0  0  0  0  0  0  0  0  0  0  0
   -4.3232    0.6392    0.0156 C   0  0  0  0  0  0  0  0  0  0  0  0
    7.0321   -1.4973   -0.0435 C   0  0  0  0  0  0  0  0  0  0  0  0
   -2.2549   -0.0003   -0.0037 C   0  0  0  0  0  0  0  0  0  0  0  0
    1.6435    3.7960    0.1463 C   0  0  0  0  0  0  0  0  0  0  0  0
    5.8938   -2.0539    0.5394 C   0  0  0  0  0  0  0  0  0  0  0  0
    6.9764   -0.2200   -0.6015 C   0  0  0  0  0  0  0  0  0  0  0  0
   -5.7975   -1.3154   -0.0614 C   0  0  0  0  0  0  0  0  0  0  0  0
   -5.4573    1.4795    0.0449 C   0  0  0  0  0  0  0  0  0  0  0  0
   -6.9028   -0.4615   -0.0314 C   0  0  0  0  0  0  0  0  0  0  0  0
   -6.7373    0.9182    0.0210 C   0  0  0  0  0  0  0  0  0  0  0  0
    8.3088   -2.2679   -0.0709 C   0  0  0  0  0  0  0  0  0  0  0  0
   -8.2628   -2.4109   -0.1081 C   0  0  0  0  0  0  0  0  0  0  0  0
   -0.6211    2.0918    0.0779 H   0  0  0  0  0  0  0  0  0  0  0  0
    3.8538   -1.7903    1.0682 H   0  0  0  0  0  0  0  0  0  0  0  0
    5.7624    1.4916   -1.0232 H   0  0  0  0  0  0  0  0  0  0  0  0
    2.4863    4.4916    0.1837 H   0  0  0  0  0  0  0  0  0  0  0  0
    1.0278    3.9382    1.0385 H   0  0  0  0  0  0  0  0  0  0  0  0
    1.0477    4.0096   -0.7452 H   0  0  0  0  0  0  0  0  0  0  0  0
   -0.3540   -0.8206   -0.0303 H   0  0  0  0  0  0  0  0  0  0  0  0
    5.9282   -3.0436    0.9873 H   0  0  0  0  0  0  0  0  0  0  0  0
    7.8567    0.2244   -1.0583 H   0  0  0  0  0  0  0  0  0  0  0  0
   -5.8674   -2.3957   -0.1023 H   0  0  0  0  0  0  0  0  0  0  0  0
   -5.3393    2.5586    0.0860 H   0  0  0  0  0  0  0  0  0  0  0  0
   -7.6052    1.5725    0.0438 H   0  0  0  0  0  0  0  0  0  0  0  0
    8.9066   -2.0108   -0.9519 H   0  0  0  0  0  0  0  0  0  0  0  0
    8.8966   -2.0527    0.8270 H   0  0  0  0  0  0  0  0  0  0  0  0
    8.1190   -3.3457   -0.1163 H   0  0  0  0  0  0  0  0  0  0  0  0
   -7.8346   -2.8122   -1.0330 H   0  0  0  0  0  0  0  0  0  0  0  0
   -9.3300   -2.6562   -0.1198 H   0  0  0  0  0  0  0  0  0  0  0  0
   -7.8385   -2.8808    0.7858 H   0  0  0  0  0  0  0  0  0  0  0  0
  1 15  1  0  0  0  0
  1 18  1  0  0  0  0
  2 11  2  0  0  0  0
  3 24  1  0  0  0  0
  3 27  1  0  0  0  0
  4  5  1  0  0  0  0
  4  9  1  0  0  0  0
  4 11  1  0  0  0  0
  5 10  2  0  0  0  0
  6 12  1  0  0  0  0
  6 18  1  0  0  0  0
  6 34  1  0  0  0  0
  7 16  1  0  0  0  0
  7 18  2  0  0  0  0
  8 10  1  0  0  0  0
  8 11  1  0  0  0  0
  8 12  2  0  0  0  0
  9 13  2  0  0  0  0
  9 14  1  0  0  0  0
 10 19  1  0  0  0  0
 12 28  1  0  0  0  0
 13 20  1  0  0  0  0
 13 29  1  0  0  0  0
 14 21  2  0  0  0  0
 14 30  1  0  0  0  0
 15 16  2  0  0  0  0
 15 22  1  0  0  0  0
 16 23  1  0  0  0  0
 17 20  2  0  0  0  0
 17 21  1  0  0  0  0
 17 26  1  0  0  0  0
 19 31  1  0  0  0  0
 19 32  1  0  0  0  0
 19 33  1  0  0  0  0
 20 35  1  0  0  0  0
 21 36  1  0  0  0  0
 22 24  2  0  0  0  0
 22 37  1  0  0  0  0
 23 25  2  0  0  0  0
 23 38  1  0  0  0  0
 24 25  1  0  0  0  0
 25 39  1  0  0  0  0
 26 40  1  0  0  0  0
 26 41  1  0  0  0  0
 26 42  1  0  0  0  0
 27 43  1  0  0  0  0
 27 44  1  0  0  0  0
 27 45  1  0  0  0  0
M  END
> <PUBCHEM_COMPOUND_CID>
5439911

> <PUBCHEM_CONFORMER_RMSD>
0.8

> <PUBCHEM_CONFORMER_DIVERSEORDER>
1
11
6
12
5
8
9
2
4
3
10
7

> <PUBCHEM_MMFF94_PARTIAL_CHARGES>
36
1 -0.08
10 0.37
11 0.62
12 -0.05
13 -0.15
14 -0.15
15 0.04
16 0.23
17 -0.14
18 0.46
19 0.06
2 -0.57
20 -0.15
21 -0.15
22 -0.15
23 -0.15
24 0.08
25 -0.15
26 0.14
27 0.28
28 0.15
29 0.15
3 -0.36
30 0.15
34 0.4
35 0.15
36 0.15
37 0.15
38 0.15
39 0.15
4 -0.11
5 -0.51
6 -0.58
7 -0.57
8 0.03
9 0.12

> <PUBCHEM_EFFECTIVE_ROTOR_COUNT>
4.2

> <PUBCHEM_PHARMACOPHORE_FEATURES>
9
1 2 acceptor
1 3 acceptor
1 5 acceptor
1 6 donor
3 6 7 18 cation
5 1 7 15 16 18 rings
5 4 5 8 10 11 rings
6 15 16 22 23 24 25 rings
6 9 13 14 17 20 21 rings

> <PUBCHEM_HEAVY_ATOM_COUNT>
27

> <PUBCHEM_ATOM_DEF_STEREO_COUNT>
0

> <PUBCHEM_ATOM_UDEF_STEREO_COUNT>
0

> <PUBCHEM_BOND_DEF_STEREO_COUNT>
1

> <PUBCHEM_BOND_UDEF_STEREO_COUNT>
0

> <PUBCHEM_ISOTOPIC_ATOM_COUNT>
0

> <PUBCHEM_COMPONENT_COUNT>
1

> <PUBCHEM_CACTVS_TAUTO_COUNT>
5

> <PUBCHEM_CONFORMER_ID>
005301A700000001

> <PUBCHEM_MMFF94_ENERGY>
91.7688

> <PUBCHEM_FEATURE_SELFOVERLAP>
45.746

> <PUBCHEM_SHAPE_FINGERPRINT>
10 15 11527946759622264062
10050765 1 18124031488208281799
100830 39 18337671889565992389
10299344 5 18335141981369781046
10411042 1 18411136893179190016
11315181 36 18343304765123127449
11386260 185 16878226471318539109
11456790 92 17845948398576191355
11524674 6 17132111351493593279
11719270 70 18131633366001378302
11963148 33 18339354176647877438
12166972 35 18273495693127129985
125118 31 9727638310218087295
12516196 113 18412260623757886880
12539745 222 17559958715415768344
12592606 108 18411418414614375551
12645989 146 18409729595367242845
13248334 5 18194119844807081668
13673619 4 18113899346893055348
13685833 64 18410575084932091336
13862211 1 18411421679406218210
13885169 127 18410292471863257509
14068700 675 18272090478628087176
14178184 131 18129380570193753847
14251764 18 18411139138697512447
15183329 4 18260547805490408203
15198563 99 15864345788419226646
15849732 13 18060699485778892268
15927050 60 17838614810569532636
18681886 176 18342451564756931027
19301679 30 18129384787798020350
20028762 73 18273214184186403966
21130935 74 18343018874076128211
21267235 1 18411139129833167201
21315763 28 18412262865851887727
21781055 127 16701203957048753041
21792934 111 18342164541632468448
221357 26 18260827103003426700
22956985 138 17413325576941036614
232437 2 18410012114311435694
23522609 53 18119842198715352460
23559900 14 18339356478327685841
23569943 247 17970060054811053243
23576562 1 14780123020874206903
3004659 81 18333729126203040184
3103668 31 18043245743326408357
33532 11 18408602560834997531
335352 9 18410294722383747550
4073 2 17969506089685984762
4340502 62 14333407835866337804
465052 167 18344148077698635476
559249 180 18341611504083348503
59682541 52 14129331850848384456
6138700 20 18408886218145354243
636775 72 9222963565204432631
6438161 24 18408600370860255298
9962374 69 18270673290007590559
999808 66 17967827054485537819

> <PUBCHEM_SHAPE_MULTIPOLES>
527.83
25.84
2.83
0.65
10.1
1.52
0
-18.41
1.34
-1.64
-0.19
-0.3
-0.04
-0.44

> <PUBCHEM_SHAPE_SELFOVERLAP>
1147.383

> <PUBCHEM_SHAPE_VOLUME>
291.7

> <PUBCHEM_COORDINATE_TYPE>
2
5
10

$$$$
