16727381
  -OEChem-01171811573D

 29 31  0     0  0  0  0  0  0999 V2000
   -1.2150    2.5975    0.2518 O   0  0  0  0  0  0  0  0  0  0  0  0
    0.0384    0.6760    0.0572 N   0  0  0  0  0  0  0  0  0  0  0  0
    1.4086   -1.2617   -0.1377 N   0  0  0  0  0  0  0  0  0  0  0  0
    2.7100    0.6654   -0.5629 N   0  0  0  0  0  0  0  0  0  0  0  0
   -2.2784   -0.8285   -0.0628 C   0  0  0  0  0  0  0  0  0  0  0  0
   -2.3908    0.5616    0.0692 C   0  0  0  0  0  0  0  0  0  0  0  0
    0.1636   -0.6956   -0.0732 C   0  0  0  0  0  0  0  0  0  0  0  0
   -0.9537   -1.4457   -0.1332 C   0  0  0  0  0  0  0  0  0  0  0  0
   -1.1548    1.3775    0.1348 C   0  0  0  0  0  0  0  0  0  0  0  0
   -3.4395   -1.6062   -0.1255 C   0  0  0  0  0  0  0  0  0  0  0  0
   -3.6470    1.1713    0.1379 C   0  0  0  0  0  0  0  0  0  0  0  0
   -4.6947   -0.9988   -0.0568 C   0  0  0  0  0  0  0  0  0  0  0  0
   -4.7978    0.3860    0.0744 C   0  0  0  0  0  0  0  0  0  0  0  0
    2.6348   -0.5977   -0.0867 C   0  0  0  0  0  0  0  0  0  0  0  0
    3.7073   -1.2871    0.4561 C   0  0  0  0  0  0  0  0  0  0  0  0
    4.9359   -0.6386    0.5138 C   0  0  0  0  0  0  0  0  0  0  0  0
    5.0528    0.6612    0.0337 C   0  0  0  0  0  0  0  0  0  0  0  0
    3.9203    1.2633   -0.4902 C   0  0  0  0  0  0  0  0  0  0  0  0
   -0.9011   -2.5255   -0.2351 H   0  0  0  0  0  0  0  0  0  0  0  0
    0.8940    1.2193    0.1059 H   0  0  0  0  0  0  0  0  0  0  0  0
   -3.3812   -2.6871   -0.2278 H   0  0  0  0  0  0  0  0  0  0  0  0
   -3.7483    2.2480    0.2401 H   0  0  0  0  0  0  0  0  0  0  0  0
    1.4439   -2.2719   -0.2247 H   0  0  0  0  0  0  0  0  0  0  0  0
   -5.5937   -1.6066   -0.1059 H   0  0  0  0  0  0  0  0  0  0  0  0
   -5.7768    0.8536    0.1273 H   0  0  0  0  0  0  0  0  0  0  0  0
    3.6093   -2.3011    0.8303 H   0  0  0  0  0  0  0  0  0  0  0  0
    5.8005   -1.1447    0.9324 H   0  0  0  0  0  0  0  0  0  0  0  0
    6.0005    1.1862    0.0687 H   0  0  0  0  0  0  0  0  0  0  0  0
    3.9584    2.2762   -0.8773 H   0  0  0  0  0  0  0  0  0  0  0  0
  1  9  2  0  0  0  0
  2  7  1  0  0  0  0
  2  9  1  0  0  0  0
  2 20  1  0  0  0  0
  3  7  1  0  0  0  0
  3 14  1  0  0  0  0
  3 23  1  0  0  0  0
  4 14  1  0  0  0  0
  4 18  2  0  0  0  0
  5  6  1  0  0  0  0
  5  8  1  0  0  0  0
  5 10  2  0  0  0  0
  6  9  1  0  0  0  0
  6 11  2  0  0  0  0
  7  8  2  0  0  0  0
  8 19  1  0  0  0  0
 10 12  1  0  0  0  0
 10 21  1  0  0  0  0
 11 13  1  0  0  0  0
 11 22  1  0  0  0  0
 12 13  2  0  0  0  0
 12 24  1  0  0  0  0
 13 25  1  0  0  0  0
 14 15  2  0  0  0  0
 15 16  1  0  0  0  0
 15 26  1  0  0  0  0
 16 17  2  0  0  0  0
 16 27  1  0  0  0  0
 17 18  1  0  0  0  0
 17 28  1  0  0  0  0
 18 29  1  0  0  0  0
M  END
> <PUBCHEM_COMPOUND_CID>
16727381

> <PUBCHEM_CONFORMER_RMSD>
0.6

> <PUBCHEM_CONFORMER_DIVERSEORDER>
1
19
11
16
14
6
10
8
4
5
13
15
20
2
7
9
17
3
12
18

> <PUBCHEM_MMFF94_PARTIAL_CHARGES>
29
1 -0.57
10 -0.15
11 -0.15
12 -0.15
13 -0.15
14 0.41
15 -0.15
16 -0.15
17 -0.15
18 0.16
19 0.15
2 -0.54
20 0.37
21 0.15
22 0.15
23 0.4
24 0.15
25 0.15
26 0.15
27 0.15
28 0.15
29 0.15
3 -0.6
4 -0.62
5 0.03
6 0.09
7 0.21
8 -0.18
9 0.54

> <PUBCHEM_EFFECTIVE_ROTOR_COUNT>
2

> <PUBCHEM_PHARMACOPHORE_FEATURES>
8
1 1 acceptor
1 2 donor
1 3 cation
1 3 donor
1 4 acceptor
6 2 5 6 7 8 9 rings
6 4 14 15 16 17 18 rings
6 5 6 10 11 12 13 rings

> <PUBCHEM_HEAVY_ATOM_COUNT>
18

> <PUBCHEM_ATOM_DEF_STEREO_COUNT>
0

> <PUBCHEM_ATOM_UDEF_STEREO_COUNT>
0

> <PUBCHEM_BOND_DEF_STEREO_COUNT>
0

> <PUBCHEM_BOND_UDEF_STEREO_COUNT>
0

> <PUBCHEM_ISOTOPIC_ATOM_COUNT>
0

> <PUBCHEM_COMPONENT_COUNT>
1

> <PUBCHEM_CACTVS_TAUTO_COUNT>
9

> <PUBCHEM_CONFORMER_ID>
00FF3D5500000001

> <PUBCHEM_MMFF94_ENERGY>
59.7936

> <PUBCHEM_FEATURE_SELFOVERLAP>
40.654

> <PUBCHEM_SHAPE_FINGERPRINT>
10062212 137 18410854395377342111
10906281 52 18270136655724583703
11132069 177 18343305838173750727
12107183 9 17687177587394540674
12236239 1 18113616785268240010
12390115 104 17844263830223977017
12403814 3 17894629240993065053
13167823 11 18334292054792472690
13214271 11 18344144791705996487
13533116 47 17531238410293211106
13862211 1 18412822521280991727
13897977 58 18413110567093058237
14341114 176 18335424539205861930
14787075 74 18335138738790791987
14790565 3 17837216978850902609
15196674 1 18410575084668360172
17492 89 18337670798195912906
17802600 8 18411978057648499400
17862501 102 18261106340539273898
18186145 218 17530960289406291946
18522853 276 18410854360959503360
19050596 39 18408603652035888826
200 152 18335417980273686807
20510252 161 18272653394099755521
20715895 44 18046058264442857101
21065198 48 18334574603948441546
21267235 1 18409738364925751758
21652331 79 18410292519155260072
2297311 6 18201450159646824076
23402539 116 18341887506871051063
23557571 272 18059586779673933724
23559900 14 18127128576578415118
26918003 58 17894349998940477242
34797466 226 16845016826207718196
34934 24 18339356375791535991
351380 180 18409165511173027594
3545911 37 18410013226232815518
4214541 1 18409166580240225492
4340502 62 16877951499460189291
474 4 17531815774383509652
5104073 3 18410012130599405002
5283173 99 18042392561400421621
5374978 207 18410289220725644714
537710 114 18411423933415131900
542803 24 17530967990424792822
59755656 215 18272095955375865478
67856867 119 18262235642303269220
77779 3 18409730655680852106
9709674 26 18410581660538324526

> <PUBCHEM_SHAPE_MULTIPOLES>
349.62
11.04
1.87
0.66
4.92
0.52
0
-0.39
0.48
-0.61
0.05
0.18
0
-0.56

> <PUBCHEM_SHAPE_SELFOVERLAP>
774.083

> <PUBCHEM_SHAPE_VOLUME>
184.4

> <PUBCHEM_COORDINATE_TYPE>
2
5
10

$$$$
