1084720
  -OEChem-01171812183D

 44 47  0     0  0  0  0  0  0999 V2000
   -2.4106   -2.2484   -0.0007 O   0  0  0  0  0  0  0  0  0  0  0  0
   -5.2801    1.4670   -0.0007 O   0  0  0  0  0  0  0  0  0  0  0  0
    0.4608    0.9122    0.0001 N   0  0  0  0  0  0  0  0  0  0  0  0
   -2.9893    1.8687   -0.0001 N   0  0  0  0  0  0  0  0  0  0  0  0
   -3.8608   -0.3943    0.0004 N   0  0  0  0  0  0  0  0  0  0  0  0
    5.9655    1.8439    0.0000 N   0  0  0  0  0  0  0  0  0  0  0  0
   -1.5144   -0.0895    0.0005 C   0  0  0  0  0  0  0  0  0  0  0  0
   -1.7204    1.2998    0.0002 C   0  0  0  0  0  0  0  0  0  0  0  0
   -0.1568   -0.3143    0.0004 C   0  0  0  0  0  0  0  0  0  0  0  0
   -0.4855    1.9079    0.0003 C   0  0  0  0  0  0  0  0  0  0  0  0
   -2.5950   -1.0351    0.0005 C   0  0  0  0  0  0  0  0  0  0  0  0
    0.5777   -1.5640    0.0001 C   0  0  0  0  0  0  0  0  0  0  0  0
    1.8391    1.1454    0.0001 C   0  0  0  0  0  0  0  0  0  0  0  0
   -4.1260    1.0228    0.0001 C   0  0  0  0  0  0  0  0  0  0  0  0
   -3.1484    3.3197   -0.0006 C   0  0  0  0  0  0  0  0  0  0  0  0
   -5.0423   -1.2517    0.0004 C   0  0  0  0  0  0  0  0  0  0  0  0
    0.9276   -2.1591   -1.2080 C   0  0  0  0  0  0  0  0  0  0  0  0
    0.9279   -2.1595    1.2079 C   0  0  0  0  0  0  0  0  0  0  0  0
    2.5119    1.2591    1.2080 C   0  0  0  0  0  0  0  0  0  0  0  0
    2.5118    1.2600   -1.2079 C   0  0  0  0  0  0  0  0  0  0  0  0
    3.8872    1.4924    1.2080 C   0  0  0  0  0  0  0  0  0  0  0  0
    3.8871    1.4934   -1.2079 C   0  0  0  0  0  0  0  0  0  0  0  0
    1.6349   -3.3614   -1.2083 C   0  0  0  0  0  0  0  0  0  0  0  0
    1.6350   -3.3618    1.2075 C   0  0  0  0  0  0  0  0  0  0  0  0
    4.5747    1.6097    0.0001 C   0  0  0  0  0  0  0  0  0  0  0  0
    1.9886   -3.9628   -0.0005 C   0  0  0  0  0  0  0  0  0  0  0  0
   -0.2014    2.9529    0.0002 H   0  0  0  0  0  0  0  0  0  0  0  0
   -2.6741    3.7321    0.8953 H   0  0  0  0  0  0  0  0  0  0  0  0
   -4.2031    3.6065   -0.0006 H   0  0  0  0  0  0  0  0  0  0  0  0
   -2.6741    3.7316   -0.8967 H   0  0  0  0  0  0  0  0  0  0  0  0
   -4.7879   -2.3140    0.0027 H   0  0  0  0  0  0  0  0  0  0  0  0
   -5.6404   -1.0262   -0.8884 H   0  0  0  0  0  0  0  0  0  0  0  0
   -5.6429   -1.0232    0.8867 H   0  0  0  0  0  0  0  0  0  0  0  0
    0.6588   -1.7024   -2.1573 H   0  0  0  0  0  0  0  0  0  0  0  0
    0.6592   -1.7032    2.1575 H   0  0  0  0  0  0  0  0  0  0  0  0
    1.9875    1.1695    2.1558 H   0  0  0  0  0  0  0  0  0  0  0  0
    1.9874    1.1711   -2.1558 H   0  0  0  0  0  0  0  0  0  0  0  0
    4.4118    1.5805    2.1560 H   0  0  0  0  0  0  0  0  0  0  0  0
    4.4116    1.5821   -2.1559 H   0  0  0  0  0  0  0  0  0  0  0  0
    1.9102   -3.8292   -2.1489 H   0  0  0  0  0  0  0  0  0  0  0  0
    1.9105   -3.8301    2.1480 H   0  0  0  0  0  0  0  0  0  0  0  0
    2.5394   -4.8988   -0.0007 H   0  0  0  0  0  0  0  0  0  0  0  0
    6.4639    1.9320   -0.8756 H   0  0  0  0  0  0  0  0  0  0  0  0
    6.4641    1.9313    0.8755 H   0  0  0  0  0  0  0  0  0  0  0  0
  1 11  2  0  0  0  0
  2 14  2  0  0  0  0
  3  9  1  0  0  0  0
  3 10  1  0  0  0  0
  3 13  1  0  0  0  0
  4  8  1  0  0  0  0
  4 14  1  0  0  0  0
  4 15  1  0  0  0  0
  5 11  1  0  0  0  0
  5 14  1  0  0  0  0
  5 16  1  0  0  0  0
  6 25  1  0  0  0  0
  6 43  1  0  0  0  0
  6 44  1  0  0  0  0
  7  8  1  0  0  0  0
  7  9  2  0  0  0  0
  7 11  1  0  0  0  0
  8 10  2  0  0  0  0
  9 12  1  0  0  0  0
 10 27  1  0  0  0  0
 12 17  2  0  0  0  0
 12 18  1  0  0  0  0
 13 19  2  0  0  0  0
 13 20  1  0  0  0  0
 15 28  1  0  0  0  0
 15 29  1  0  0  0  0
 15 30  1  0  0  0  0
 16 31  1  0  0  0  0
 16 32  1  0  0  0  0
 16 33  1  0  0  0  0
 17 23  1  0  0  0  0
 17 34  1  0  0  0  0
 18 24  2  0  0  0  0
 18 35  1  0  0  0  0
 19 21  1  0  0  0  0
 19 36  1  0  0  0  0
 20 22  2  0  0  0  0
 20 37  1  0  0  0  0
 21 25  2  0  0  0  0
 21 38  1  0  0  0  0
 22 25  1  0  0  0  0
 22 39  1  0  0  0  0
 23 26  2  0  0  0  0
 23 40  1  0  0  0  0
 24 26  1  0  0  0  0
 24 41  1  0  0  0  0
 26 42  1  0  0  0  0
M  END
> <PUBCHEM_COMPOUND_CID>
1084720

> <PUBCHEM_CONFORMER_RMSD>
0.6

> <PUBCHEM_CONFORMER_DIVERSEORDER>
1
2

> <PUBCHEM_MMFF94_PARTIAL_CHARGES>
38
1 -0.57
10 -0.3
11 0.72
12 0.05
13 -0.02
14 0.69
15 0.3
16 0.3
17 -0.15
18 -0.15
19 -0.15
2 -0.57
20 -0.15
21 -0.15
22 -0.15
23 -0.15
24 -0.15
25 0.1
26 -0.15
27 0.15
3 0.33
34 0.15
35 0.15
36 0.15
37 0.15
38 0.15
39 0.15
4 -0.42
40 0.15
41 0.15
42 0.15
43 0.4
44 0.4
5 -0.42
6 -0.9
7 -0.09
8 0.06
9 -0.2

> <PUBCHEM_EFFECTIVE_ROTOR_COUNT>
2

> <PUBCHEM_PHARMACOPHORE_FEATURES>
9
1 1 acceptor
1 2 acceptor
1 3 cation
1 6 cation
1 6 donor
5 3 7 8 9 10 rings
6 12 17 18 23 24 26 rings
6 13 19 20 21 22 25 rings
6 4 5 7 8 11 14 rings

> <PUBCHEM_HEAVY_ATOM_COUNT>
26

> <PUBCHEM_ATOM_DEF_STEREO_COUNT>
0

> <PUBCHEM_ATOM_UDEF_STEREO_COUNT>
0

> <PUBCHEM_BOND_DEF_STEREO_COUNT>
0

> <PUBCHEM_BOND_UDEF_STEREO_COUNT>
0

> <PUBCHEM_ISOTOPIC_ATOM_COUNT>
0

> <PUBCHEM_COMPONENT_COUNT>
1

> <PUBCHEM_CACTVS_TAUTO_COUNT>
1

> <PUBCHEM_CONFORMER_ID>
00108D3000000001

> <PUBCHEM_MMFF94_ENERGY>
98.0639

> <PUBCHEM_FEATURE_SELFOVERLAP>
45.776

> <PUBCHEM_SHAPE_FINGERPRINT>
10616163 171 18336828692626332547
10906281 52 18115038493032874489
1100329 8 17549830979909389761
11488393 25 17844831225241897934
11578080 2 17170101543711395350
11963148 33 18191299584459765243
12236239 1 17749666389582248792
12422481 6 18119784960254872058
12592029 89 18409167714354139730
12788726 201 17395306062734704326
12839892 36 18337093640442359434
13140716 1 18122910004234714497
13149001 5 17323777986218435084
133893 2 18121237389055261448
14223421 5 18338797819241258483
14466204 15 18411695500266703632
14790565 3 18265337385610881548
15042514 8 17976823412884373738
16752209 62 18193272116665985330
18681886 176 18190738824659595928
19591789 44 18050850223704835771
20028762 73 17767972291754118799
20197701 30 18411697725254174966
20554085 129 18129924746422377888
20567600 347 18408044035009055954
20587220 46 13459992459874520774
20691752 17 17386295268206766537
20905425 154 18341616958111514006
21033648 29 18057874930581097360
21421861 104 18262519169688369595
22393880 68 18342186513798476974
22956985 138 18042956589327694618
23366157 5 18115593617096764538
23419403 2 17535169074051996574
23558518 356 18263084319276910825
23559900 14 18054505799013998959
23728640 28 18121215644068553282
25147074 1 18271801260441883109
283562 15 18341053037727839201
3298306 158 18343022194649999454
3411729 13 18337388236454449424
34934 24 18341891896712437469
350125 39 18337955571479711468
352729 6 18044673124224426521
43471831 8 18409445899349081954
469060 322 18265354948322681185
5104073 3 18266750087144809161
5265222 85 18267876163277296172
59755656 215 18411704266172907908
6138700 20 18338805499323753262
7364860 26 18270115691335350530
81228 2 17334481096328252290
9981440 41 18334298707485766178

> <PUBCHEM_SHAPE_MULTIPOLES>
503.41
9.27
4.39
1.07
2.7
3.61
0
-6.53
0
-2.02
0
-1.06
0.32
0

> <PUBCHEM_SHAPE_SELFOVERLAP>
1123.455

> <PUBCHEM_SHAPE_VOLUME>
268.4

> <PUBCHEM_COORDINATE_TYPE>
2
5
10

$$$$
