3236869
  -OEChem-01171812113D

 46 49  0     1  0  0  0  0  0999 V2000
   -1.5576   -1.4930   -0.0118 O   0  0  0  0  0  0  0  0  0  0  0  0
   -2.2672    0.7556   -0.3445 N   0  0  0  0  0  0  0  0  0  0  0  0
    3.2735    0.7038    1.7626 N   0  0  0  0  0  0  0  0  0  0  0  0
   -1.7814    1.9432   -0.7606 N   0  0  0  0  0  0  0  0  0  0  0  0
   -0.7830   -3.6745    0.1715 N   0  0  0  0  0  0  0  0  0  0  0  0
    2.6846   -3.6761   -0.8398 N   0  0  0  0  0  0  0  0  0  0  0  0
    6.4551    1.9590    0.8501 N   0  0  0  0  0  0  0  0  0  0  0  0
    1.0699   -0.4879   -0.8994 C   0  0  1  0  0  0  0  0  0  0  0  0
   -0.1594    0.3367   -0.7744 C   0  0  0  0  0  0  0  0  0  0  0  0
    2.1422    0.0501   -0.0252 C   0  0  0  0  0  0  0  0  0  0  0  0
   -1.3325   -0.2297   -0.3505 C   0  0  0  0  0  0  0  0  0  0  0  0
    0.7653   -1.9562   -0.5505 C   0  0  0  0  0  0  0  0  0  0  0  0
    3.3978    0.5397   -0.4488 C   0  0  0  0  0  0  0  0  0  0  0  0
    2.0872    0.1609    1.3427 C   0  0  0  0  0  0  0  0  0  0  0  0
   -0.4958    1.6787   -1.0293 C   0  0  0  0  0  0  0  0  0  0  0  0
   -0.4673   -2.3799   -0.1418 C   0  0  0  0  0  0  0  0  0  0  0  0
    4.0797    0.9385    0.6796 C   0  0  0  0  0  0  0  0  0  0  0  0
    3.8851    0.6098   -1.8435 C   0  0  0  0  0  0  0  0  0  0  0  0
    1.0276   -0.1915    2.3070 C   0  0  0  0  0  0  0  0  0  0  0  0
    0.3790    2.7520   -1.5308 C   0  0  0  0  0  0  0  0  0  0  0  0
   -3.6048    0.6330    0.0262 C   0  0  0  0  0  0  0  0  0  0  0  0
    1.8260   -2.9068   -0.7103 C   0  0  0  0  0  0  0  0  0  0  0  0
   -3.9692   -0.3082    0.9813 C   0  0  0  0  0  0  0  0  0  0  0  0
   -4.5589    1.4539   -0.5627 C   0  0  0  0  0  0  0  0  0  0  0  0
    5.3823    1.4981    0.7731 C   0  0  0  0  0  0  0  0  0  0  0  0
   -5.3080   -0.4305    1.3533 C   0  0  0  0  0  0  0  0  0  0  0  0
   -5.8978    1.3317   -0.1907 C   0  0  0  0  0  0  0  0  0  0  0  0
   -6.2722    0.3894    0.7672 C   0  0  0  0  0  0  0  0  0  0  0  0
    1.3769   -0.4600   -1.9535 H   0  0  0  0  0  0  0  0  0  0  0  0
    3.5168    0.9011    2.7240 H   0  0  0  0  0  0  0  0  0  0  0  0
    3.2353    1.2531   -2.4455 H   0  0  0  0  0  0  0  0  0  0  0  0
    4.9005    1.0118   -1.9118 H   0  0  0  0  0  0  0  0  0  0  0  0
    3.8959   -0.3875   -2.2958 H   0  0  0  0  0  0  0  0  0  0  0  0
    1.3414    0.0192    3.3358 H   0  0  0  0  0  0  0  0  0  0  0  0
    0.1187    0.3892    2.1285 H   0  0  0  0  0  0  0  0  0  0  0  0
    0.7859   -1.2565    2.2626 H   0  0  0  0  0  0  0  0  0  0  0  0
   -0.1937    3.6361   -1.8307 H   0  0  0  0  0  0  0  0  0  0  0  0
    0.9448    2.4133   -2.4045 H   0  0  0  0  0  0  0  0  0  0  0  0
    1.0906    3.0592   -0.7578 H   0  0  0  0  0  0  0  0  0  0  0  0
   -0.0885   -4.4081    0.1189 H   0  0  0  0  0  0  0  0  0  0  0  0
   -1.7283   -3.8884    0.4632 H   0  0  0  0  0  0  0  0  0  0  0  0
   -3.2532   -0.9326    1.5052 H   0  0  0  0  0  0  0  0  0  0  0  0
   -4.2997    2.1899   -1.3193 H   0  0  0  0  0  0  0  0  0  0  0  0
   -5.5987   -1.1557    2.1079 H   0  0  0  0  0  0  0  0  0  0  0  0
   -6.6492    1.9687   -0.6481 H   0  0  0  0  0  0  0  0  0  0  0  0
   -7.3144    0.2958    1.0584 H   0  0  0  0  0  0  0  0  0  0  0  0
  1 11  1  0  0  0  0
  1 16  1  0  0  0  0
  2  4  1  0  0  0  0
  2 11  1  0  0  0  0
  2 21  1  0  0  0  0
  3 14  1  0  0  0  0
  3 17  1  0  0  0  0
  3 30  1  0  0  0  0
  4 15  2  0  0  0  0
  5 16  1  0  0  0  0
  5 40  1  0  0  0  0
  5 41  1  0  0  0  0
  6 22  3  0  0  0  0
  7 25  3  0  0  0  0
  8  9  1  0  0  0  0
  8 10  1  0  0  0  0
  8 12  1  0  0  0  0
  8 29  1  0  0  0  0
  9 11  2  0  0  0  0
  9 15  1  0  0  0  0
 10 13  1  0  0  0  0
 10 14  2  0  0  0  0
 12 16  2  0  0  0  0
 12 22  1  0  0  0  0
 13 17  2  0  0  0  0
 13 18  1  0  0  0  0
 14 19  1  0  0  0  0
 15 20  1  0  0  0  0
 17 25  1  0  0  0  0
 18 31  1  0  0  0  0
 18 32  1  0  0  0  0
 18 33  1  0  0  0  0
 19 34  1  0  0  0  0
 19 35  1  0  0  0  0
 19 36  1  0  0  0  0
 20 37  1  0  0  0  0
 20 38  1  0  0  0  0
 20 39  1  0  0  0  0
 21 23  2  0  0  0  0
 21 24  1  0  0  0  0
 23 26  1  0  0  0  0
 23 42  1  0  0  0  0
 24 27  2  0  0  0  0
 24 43  1  0  0  0  0
 26 28  2  0  0  0  0
 26 44  1  0  0  0  0
 27 28  1  0  0  0  0
 27 45  1  0  0  0  0
 28 46  1  0  0  0  0
M  END
> <PUBCHEM_COMPOUND_CID>
3236869

> <PUBCHEM_CONFORMER_RMSD>
0.6

> <PUBCHEM_CONFORMER_DIVERSEORDER>
1
4
7
6
5
8
2
3

> <PUBCHEM_MMFF94_PARTIAL_CHARGES>
36
1 -0.14
10 -0.18
11 -0.09
12 -0.07
13 -0.18
14 -0.33
15 0.11
16 0.18
17 -0.13
18 0.18
19 0.18
2 0.59
20 0.18
21 -0.02
22 0.49
23 -0.15
24 -0.15
25 0.54
26 -0.15
27 -0.15
28 -0.15
3 0.03
30 0.27
4 -0.71
40 0.4
41 0.4
42 0.15
43 0.15
44 0.15
45 0.15
46 0.15
5 -0.9
6 -0.56
7 -0.56
8 0.5
9 -0.18

> <PUBCHEM_EFFECTIVE_ROTOR_COUNT>
2.4

> <PUBCHEM_PHARMACOPHORE_FEATURES>
12
1 1 acceptor
1 3 cation
1 3 donor
1 4 acceptor
1 5 cation
1 5 donor
1 6 acceptor
1 7 acceptor
5 2 4 9 11 15 rings
5 3 10 13 14 17 rings
6 1 8 9 11 12 16 rings
6 21 23 24 26 27 28 rings

> <PUBCHEM_HEAVY_ATOM_COUNT>
28

> <PUBCHEM_ATOM_DEF_STEREO_COUNT>
0

> <PUBCHEM_ATOM_UDEF_STEREO_COUNT>
1

> <PUBCHEM_BOND_DEF_STEREO_COUNT>
0

> <PUBCHEM_BOND_UDEF_STEREO_COUNT>
0

> <PUBCHEM_ISOTOPIC_ATOM_COUNT>
0

> <PUBCHEM_COMPONENT_COUNT>
1

> <PUBCHEM_CACTVS_TAUTO_COUNT>
2

> <PUBCHEM_CONFORMER_ID>
0031640500000001

> <PUBCHEM_MMFF94_ENERGY>
59.7627

> <PUBCHEM_FEATURE_SELFOVERLAP>
60.996

> <PUBCHEM_SHAPE_FINGERPRINT>
10074138 170 18118948424668395098
10165383 225 18272931648236245920
10493431 412 18411980290783437077
10906281 52 17896338960389947077
1100329 8 18191306180916965292
11578080 2 17842266262778761456
12236239 1 17385445436071408956
12422481 6 18336250268069690162
12730499 353 18272376360103605678
13140716 1 18119532286738133765
13540713 4 18118116966376145021
14341114 328 17240769500991089320
14790565 3 18191321569979940213
14955137 171 18334586762394714821
15183329 4 13902196979927522113
15927050 60 18342454863593637902
1601671 61 18334583442643256421
19784866 170 18409165510877751869
1979834 28 18409735044905333133
21033648 29 18201991106741868313
21452121 103 18337952285951263723
22149856 69 18191893175394548449
22182313 1 18116428150885844199
22224240 67 18341327872895970289
23559900 14 17970918752201852015
25222932 49 17386012823021407835
2838139 119 16272211911433115617
350125 39 18266463100970689598
427121 178 18272089391853096026
4340502 62 18343866610721236254
465052 167 17676496068217350489
5104073 3 18264778653931854985
5265222 85 18124603239873350454
59755656 215 18339366262743032702
59755656 520 17988919002898968574
6442390 28 18341896311438183951

> <PUBCHEM_SHAPE_MULTIPOLES>
540.47
11.83
3.11
1.56
7.25
3
0.45
-6.97
4.05
-1.78
-1.14
-1.05
-0.33
1.47

> <PUBCHEM_SHAPE_SELFOVERLAP>
1202.874

> <PUBCHEM_SHAPE_VOLUME>
286.6

> <PUBCHEM_COORDINATE_TYPE>
2
5
10

$$$$
