1895705
  -OEChem-01171811413D

 31 33  0     0  0  0  0  0  0999 V2000
   -3.7122    2.0850   -0.0878 O   0  0  0  0  0  0  0  0  0  0  0  0
   -1.4019    3.3310   -0.5335 O   0  0  0  0  0  0  0  0  0  0  0  0
    3.2815   -1.7763   -1.5861 O   0  0  0  0  0  0  0  0  0  0  0  0
    0.9977   -0.7342   -0.3144 N   0  0  0  0  0  0  0  0  0  0  0  0
   -1.4539   -0.7449   -0.0052 C   0  0  0  0  0  0  0  0  0  0  0  0
   -0.1736   -0.0229   -0.2583 C   0  0  0  0  0  0  0  0  0  0  0  0
   -2.6743   -0.0461    0.0566 C   0  0  0  0  0  0  0  0  0  0  0  0
   -0.1713    1.3107   -0.4299 C   0  0  0  0  0  0  0  0  0  0  0  0
   -1.5100   -2.1388    0.1826 C   0  0  0  0  0  0  0  0  0  0  0  0
   -2.6928    1.4146   -0.1287 C   0  0  0  0  0  0  0  0  0  0  0  0
    2.2819   -0.3086    0.0281 C   0  0  0  0  0  0  0  0  0  0  0  0
   -3.8910   -0.7023    0.2925 C   0  0  0  0  0  0  0  0  0  0  0  0
   -1.3984    2.1195   -0.3797 C   0  0  0  0  0  0  0  0  0  0  0  0
   -2.7223   -2.7976    0.4193 C   0  0  0  0  0  0  0  0  0  0  0  0
   -3.9111   -2.0805    0.4736 C   0  0  0  0  0  0  0  0  0  0  0  0
    3.4156   -0.8332   -0.6111 C   0  0  0  0  0  0  0  0  0  0  0  0
    2.4561    0.6610    1.0270 C   0  0  0  0  0  0  0  0  0  0  0  0
    4.6934   -0.3983   -0.2594 C   0  0  0  0  0  0  0  0  0  0  0  0
    3.7340    1.0958    1.3788 C   0  0  0  0  0  0  0  0  0  0  0  0
    4.8526    0.5662    0.7357 C   0  0  0  0  0  0  0  0  0  0  0  0
    0.9417   -1.6627   -0.7177 H   0  0  0  0  0  0  0  0  0  0  0  0
    0.7302    1.8718   -0.6551 H   0  0  0  0  0  0  0  0  0  0  0  0
   -0.6109   -2.7497    0.1587 H   0  0  0  0  0  0  0  0  0  0  0  0
   -4.8284   -0.1545    0.3385 H   0  0  0  0  0  0  0  0  0  0  0  0
   -2.7317   -3.8744    0.5625 H   0  0  0  0  0  0  0  0  0  0  0  0
   -4.8503   -2.5935    0.6575 H   0  0  0  0  0  0  0  0  0  0  0  0
    1.6152    1.0705    1.5807 H   0  0  0  0  0  0  0  0  0  0  0  0
    5.5740   -0.8024   -0.7517 H   0  0  0  0  0  0  0  0  0  0  0  0
    3.8590    1.8400    2.1599 H   0  0  0  0  0  0  0  0  0  0  0  0
    5.8476    0.9033    1.0112 H   0  0  0  0  0  0  0  0  0  0  0  0
    4.1635   -2.0221   -1.9140 H   0  0  0  0  0  0  0  0  0  0  0  0
  1 10  2  0  0  0  0
  2 13  2  0  0  0  0
  3 16  1  0  0  0  0
  3 31  1  0  0  0  0
  4  6  1  0  0  0  0
  4 11  1  0  0  0  0
  4 21  1  0  0  0  0
  5  6  1  0  0  0  0
  5  7  1  0  0  0  0
  5  9  2  0  0  0  0
  6  8  2  0  0  0  0
  7 10  1  0  0  0  0
  7 12  2  0  0  0  0
  8 13  1  0  0  0  0
  8 22  1  0  0  0  0
  9 14  1  0  0  0  0
  9 23  1  0  0  0  0
 10 13  1  0  0  0  0
 11 16  1  0  0  0  0
 11 17  2  0  0  0  0
 12 15  1  0  0  0  0
 12 24  1  0  0  0  0
 14 15  2  0  0  0  0
 14 25  1  0  0  0  0
 15 26  1  0  0  0  0
 16 18  2  0  0  0  0
 17 19  1  0  0  0  0
 17 27  1  0  0  0  0
 18 20  1  0  0  0  0
 18 28  1  0  0  0  0
 19 20  2  0  0  0  0
 19 29  1  0  0  0  0
 20 30  1  0  0  0  0
M  END
> <PUBCHEM_COMPOUND_CID>
1895705

> <PUBCHEM_CONFORMER_RMSD>
0.6

> <PUBCHEM_CONFORMER_DIVERSEORDER>
1
16
13
8
15
5
14
4
11
9
3
7
6
2
10
12

> <PUBCHEM_MMFF94_PARTIAL_CHARGES>
31
1 -0.57
10 0.48
11 0.1
12 -0.15
13 0.56
14 -0.15
15 -0.15
16 0.08
17 -0.15
18 -0.15
19 -0.15
2 -0.57
20 -0.15
21 0.4
22 0.15
23 0.15
24 0.15
25 0.15
26 0.15
27 0.15
28 0.15
29 0.15
3 -0.53
30 0.15
31 0.45
4 -0.6
5 0.03
6 0.07
7 0.09
8 -0.14
9 -0.15

> <PUBCHEM_EFFECTIVE_ROTOR_COUNT>
2

> <PUBCHEM_PHARMACOPHORE_FEATURES>
8
1 1 acceptor
1 2 acceptor
1 3 donor
1 4 cation
1 4 donor
6 11 16 17 18 19 20 rings
6 5 6 7 8 10 13 rings
6 5 7 9 12 14 15 rings

> <PUBCHEM_HEAVY_ATOM_COUNT>
20

> <PUBCHEM_ATOM_DEF_STEREO_COUNT>
0

> <PUBCHEM_ATOM_UDEF_STEREO_COUNT>
0

> <PUBCHEM_BOND_DEF_STEREO_COUNT>
0

> <PUBCHEM_BOND_UDEF_STEREO_COUNT>
0

> <PUBCHEM_ISOTOPIC_ATOM_COUNT>
0

> <PUBCHEM_COMPONENT_COUNT>
1

> <PUBCHEM_CACTVS_TAUTO_COUNT>
9

> <PUBCHEM_CONFORMER_ID>
001CED1900000001

> <PUBCHEM_MMFF94_ENERGY>
70.5154

> <PUBCHEM_FEATURE_SELFOVERLAP>
40.628

> <PUBCHEM_SHAPE_FINGERPRINT>
10319926 262 18338780240520527938
10366900 7 18201709670060620920
10493431 412 18267874883023834889
10498660 4 18334289829804169556
105312 117 17677878042917569037
10608611 8 18343297046655329128
11132069 177 18409168796591095221
11370993 144 17845950536562737515
11552529 35 17488742405906799583
11595378 159 17967522459325157120
12173636 292 18191864526812859373
12236239 1 17095239233192563042
12507560 40 18273214214097466322
12553582 1 18121231036698812991
12623949 98 17559977556404347646
13140716 1 18047760574930618963
13544592 145 18198913504548549614
14081887 123 18409440375931345288
14178342 30 18260538992613246370
14420673 8 17902780874474046522
14790565 3 18121791521526187749
15042514 8 18334301955045271003
15099037 37 18409724097033487658
15219456 202 18202562865335024886
15961568 22 18117558642577898076
17349148 13 16588018013951088362
17357779 13 18268411594631083255
17804303 29 18411703226811927529
1813 80 17604149332300798037
19049666 15 18199751341130724558
19141452 34 18201442544870917687
200 152 14779257622863848522
20510252 161 18341331111063980273
20693207 138 18057622992157174086
21033648 29 17846768629006082632
21065198 57 18413106139467105306
21065201 7 18335981991580058458
21650355 55 18335416911201363505
22122407 14 16056332733668932083
22943178 12 18272369733438378166
2297311 6 18337401520946707310
23366157 5 17391354387710895093
23402539 116 18340759434164443759
23557571 272 18411986875068450628
23559900 14 18339927005067303126
23845131 108 17690857666173187609
2748010 2 18192725449350548479
3009799 131 18263907982562273367
4214541 1 18410573964119739418
5104073 3 18341609296428006674
602551 16 18334574655377500306
6049 1 18201444649282930380
621550 34 18201437034348287918
7097593 13 17536570942777238786
7364860 26 17761499483917122253
81228 2 18261684713440537289
9709674 26 18343021060509841910

> <PUBCHEM_SHAPE_MULTIPOLES>
389
9.12
2.84
0.96
6.69
0.88
0.02
-1.93
1.36
-3.25
-0.33
0.93
-0.09
1.52

> <PUBCHEM_SHAPE_SELFOVERLAP>
864.311

> <PUBCHEM_SHAPE_VOLUME>
205.8

> <PUBCHEM_COORDINATE_TYPE>
2
5
10

$$$$
