6470077
  -OEChem-01171812103D

 39 40  0     0  0  0  0  0  0999 V2000
    0.7130   -0.0355   -1.4867 O   0  0  0  0  0  0  0  0  0  0  0  0
   -0.2685   -1.2289    0.2864 N   0  0  0  0  0  0  0  0  0  0  0  0
    1.9627   -1.5306   -0.2429 N   0  0  0  0  0  0  0  0  0  0  0  0
    3.8713    0.9801   -0.7671 N   0  0  0  0  0  0  0  0  0  0  0  0
   -5.6449    0.5922    0.2906 C   0  0  0  0  0  0  0  0  0  0  0  0
   -4.2322    0.1136    0.2896 C   0  0  0  0  0  0  0  0  0  0  0  0
   -6.3829    0.2510   -1.0178 C   0  0  0  0  0  0  0  0  0  0  0  0
   -5.7548    2.1023    0.5737 C   0  0  0  0  0  0  0  0  0  0  0  0
   -3.8156   -0.8326    1.2259 C   0  0  0  0  0  0  0  0  0  0  0  0
   -3.3277    0.6124   -0.6479 C   0  0  0  0  0  0  0  0  0  0  0  0
   -1.5899   -0.7812    0.2874 C   0  0  0  0  0  0  0  0  0  0  0  0
   -2.4944   -1.2799    1.2248 C   0  0  0  0  0  0  0  0  0  0  0  0
   -2.0066    0.1648   -0.6490 C   0  0  0  0  0  0  0  0  0  0  0  0
    3.2062   -1.3409   -0.9538 C   0  0  0  0  0  0  0  0  0  0  0  0
    0.7853   -0.8499   -0.5695 C   0  0  0  0  0  0  0  0  0  0  0  0
    4.0580   -0.2783   -0.3217 C   0  0  0  0  0  0  0  0  0  0  0  0
    4.9637   -0.6399    0.6567 C   0  0  0  0  0  0  0  0  0  0  0  0
    5.7373    0.3677    1.2220 C   0  0  0  0  0  0  0  0  0  0  0  0
    5.5790    1.6812    0.7938 C   0  0  0  0  0  0  0  0  0  0  0  0
    4.6412    1.9326   -0.1945 C   0  0  0  0  0  0  0  0  0  0  0  0
   -6.1909    0.0841    1.0972 H   0  0  0  0  0  0  0  0  0  0  0  0
   -5.9564    0.7777   -1.8782 H   0  0  0  0  0  0  0  0  0  0  0  0
   -7.4397    0.5305   -0.9462 H   0  0  0  0  0  0  0  0  0  0  0  0
   -6.3327   -0.8241   -1.2238 H   0  0  0  0  0  0  0  0  0  0  0  0
   -5.2526    2.3595    1.5130 H   0  0  0  0  0  0  0  0  0  0  0  0
   -6.8051    2.4008    0.6614 H   0  0  0  0  0  0  0  0  0  0  0  0
   -5.3032    2.7026   -0.2234 H   0  0  0  0  0  0  0  0  0  0  0  0
   -4.5071   -1.2316    1.9632 H   0  0  0  0  0  0  0  0  0  0  0  0
   -3.6318    1.3498   -1.3858 H   0  0  0  0  0  0  0  0  0  0  0  0
   -2.1833   -2.0176    1.9603 H   0  0  0  0  0  0  0  0  0  0  0  0
   -1.3664    0.5972   -1.4050 H   0  0  0  0  0  0  0  0  0  0  0  0
   -0.0376   -1.9188    0.9972 H   0  0  0  0  0  0  0  0  0  0  0  0
    2.9918   -1.0719   -1.9946 H   0  0  0  0  0  0  0  0  0  0  0  0
    3.7296   -2.3033   -0.9703 H   0  0  0  0  0  0  0  0  0  0  0  0
    1.9523   -2.1730    0.5433 H   0  0  0  0  0  0  0  0  0  0  0  0
    5.0778   -1.6673    0.9845 H   0  0  0  0  0  0  0  0  0  0  0  0
    6.4618    0.1301    1.9951 H   0  0  0  0  0  0  0  0  0  0  0  0
    6.1711    2.4827    1.2204 H   0  0  0  0  0  0  0  0  0  0  0  0
    4.4792    2.9401   -0.5632 H   0  0  0  0  0  0  0  0  0  0  0  0
  1 15  2  0  0  0  0
  2 11  1  0  0  0  0
  2 15  1  0  0  0  0
  2 32  1  0  0  0  0
  3 14  1  0  0  0  0
  3 15  1  0  0  0  0
  3 35  1  0  0  0  0
  4 16  1  0  0  0  0
  4 20  2  0  0  0  0
  5  6  1  0  0  0  0
  5  7  1  0  0  0  0
  5  8  1  0  0  0  0
  5 21  1  0  0  0  0
  6  9  2  0  0  0  0
  6 10  1  0  0  0  0
  7 22  1  0  0  0  0
  7 23  1  0  0  0  0
  7 24  1  0  0  0  0
  8 25  1  0  0  0  0
  8 26  1  0  0  0  0
  8 27  1  0  0  0  0
  9 12  1  0  0  0  0
  9 28  1  0  0  0  0
 10 13  2  0  0  0  0
 10 29  1  0  0  0  0
 11 12  2  0  0  0  0
 11 13  1  0  0  0  0
 12 30  1  0  0  0  0
 13 31  1  0  0  0  0
 14 16  1  0  0  0  0
 14 33  1  0  0  0  0
 14 34  1  0  0  0  0
 16 17  2  0  0  0  0
 17 18  1  0  0  0  0
 17 36  1  0  0  0  0
 18 19  2  0  0  0  0
 18 37  1  0  0  0  0
 19 20  1  0  0  0  0
 19 38  1  0  0  0  0
 20 39  1  0  0  0  0
M  END
> <PUBCHEM_COMPOUND_CID>
6470077

> <PUBCHEM_CONFORMER_RMSD>
0.8

> <PUBCHEM_CONFORMER_DIVERSEORDER>
1
30
13
16
28
2
12
5
29
36
11
14
38
20
33
34
7
9
24
39
22
26
37
4
41
6
35
40
31
18
8
25
32
10
19
3
21
27
15
23
17

> <PUBCHEM_MMFF94_PARTIAL_CHARGES>
28
1 -0.57
10 -0.15
11 0.12
12 -0.15
13 -0.15
14 0.44
15 0.69
16 0.17
17 -0.15
18 -0.15
19 -0.15
2 -0.55
20 0.16
28 0.15
29 0.15
3 -0.73
30 0.15
31 0.15
32 0.37
35 0.37
36 0.15
37 0.15
38 0.15
39 0.15
4 -0.62
5 0.14
6 -0.14
9 -0.15

> <PUBCHEM_EFFECTIVE_ROTOR_COUNT>
6

> <PUBCHEM_PHARMACOPHORE_FEATURES>
7
1 1 acceptor
1 2 donor
1 3 donor
1 4 acceptor
3 5 7 8 hydrophobe
6 4 16 17 18 19 20 rings
6 6 9 10 11 12 13 rings

> <PUBCHEM_HEAVY_ATOM_COUNT>
20

> <PUBCHEM_ATOM_DEF_STEREO_COUNT>
0

> <PUBCHEM_ATOM_UDEF_STEREO_COUNT>
0

> <PUBCHEM_BOND_DEF_STEREO_COUNT>
0

> <PUBCHEM_BOND_UDEF_STEREO_COUNT>
0

> <PUBCHEM_ISOTOPIC_ATOM_COUNT>
0

> <PUBCHEM_COMPONENT_COUNT>
1

> <PUBCHEM_CACTVS_TAUTO_COUNT>
3

> <PUBCHEM_CONFORMER_ID>
0062B9BD00000001

> <PUBCHEM_MMFF94_ENERGY>
50.2474

> <PUBCHEM_FEATURE_SELFOVERLAP>
35.568

> <PUBCHEM_SHAPE_FINGERPRINT>
10 15 17313391148984186549
10014705 185 18343585161551512423
10591671 39 15626220251956020725
10670039 82 15338851845638772496
10730089 47 10951777348131024212
11089746 13 18408601457017619071
11128504 68 14979961376023537002
11524674 6 13912328984579483537
117890 112 18412547587291234705
12236239 1 16702303429869011367
12596602 18 17458346389877147208
12778500 126 17676759882446893528
13167372 99 18271526390560631416
13533116 47 18041558014794856594
13685833 64 10953456332461594796
13955234 65 18264773151451865074
14123256 34 12252176351824578784
14251758 9 15502364630267658359
14251764 18 17313387863534418246
14251764 30 7997969072377847723
14341114 176 17676485043310484660
14347332 77 10519714358069892035
14528608 73 16128657452970564506
14617045 38 10592044678057112628
15348495 7 17458632262652247608
15575132 122 16200441234533279585
16079462 125 18260542312596508149
1813 80 13334735704902376022
193927 3 12540686016809190474
19784866 140 9007065651278004087
20157964 124 18272652324727005046
20567600 247 7925628882245305024
21150785 3 17131825483060353837
21859007 373 16517073035322931871
220451 1 10665236929819461979
22849339 104 14189283911410459269
22950370 63 8430317943556374391
2297311 6 11815898968333728187
23081809 10 14273748356296728647
23402539 116 17749107803484171711
23522609 53 8717700712313378055
23559900 14 18042424472833441942
270888 7 17986667281086388632
2767999 5 18343580750340342777
2838139 119 18272364265755411593
2916195 48 18409729539295238857
312425 54 17240758515060514672
33382 64 7781519221997665076
345986 75 13768466692451335308
3472631 163 16916780855716790560
34797466 226 17131840892843979261
351380 3 12468352458068800696
3680242 22 18040438754601329304
46194498 28 12247670591770844226
465052 167 11963390735116994808
5104073 3 16951147173716225193
5207 217 16200146625261597735
543368 44 16702299087509252417
5924683 9 18042407013654324555
8863177 126 10737583729432835785
960060 61 11240001170341632920

> <PUBCHEM_SHAPE_MULTIPOLES>
390.78
17.15
1.73
1.2
0.83
0.58
-0.04
8.31
-2.53
-0.71
-0.2
0.04
-0.11
0.63

> <PUBCHEM_SHAPE_SELFOVERLAP>
819.007

> <PUBCHEM_SHAPE_VOLUME>
219.7

> <PUBCHEM_COORDINATE_TYPE>
2
5
10

$$$$
