665230
  -OEChem-01171812153D

 60 65  0     1  0  0  0  0  0999 V2000
    0.1699   -2.3365    0.5453 O   0  0  0  0  0  0  0  0  0  0  0  0
   -1.2705    1.2414   -2.0613 O   0  0  0  0  0  0  0  0  0  0  0  0
    0.2472    1.4163    1.2672 O   0  0  0  0  0  0  0  0  0  0  0  0
   -5.4807    0.7679    0.0799 O   0  0  0  0  0  0  0  0  0  0  0  0
   -6.2296   -1.9646    0.6119 O   0  0  0  0  0  0  0  0  0  0  0  0
    2.7103    0.9830   -0.0573 N   0  0  3  0  0  0  0  0  0  0  0  0
   -0.9497   -0.6519   -0.6768 N   0  0  0  0  0  0  0  0  0  0  0  0
    1.3935   -0.8123   -0.8500 C   0  0  1  0  0  0  0  0  0  0  0  0
    0.9277    0.5007   -1.4848 C   0  0  2  0  0  0  0  0  0  0  0  0
    2.4573   -0.4407    0.1977 C   0  0  1  0  0  0  0  0  0  0  0  0
    1.5607    1.6261   -0.6651 C   0  0  1  0  0  0  0  0  0  0  0  0
    0.1407   -1.3911   -0.2324 C   0  0  0  0  0  0  0  0  0  0  0  0
   -0.5754    0.4364   -1.4547 C   0  0  0  0  0  0  0  0  0  0  0  0
    3.7415   -1.2537    0.1763 C   0  0  0  0  0  0  0  0  0  0  0  0
    0.6889    2.1836    0.4180 C   0  0  0  0  0  0  0  0  0  0  0  0
    3.9415    1.5606    0.1400 C   0  0  0  0  0  0  0  0  0  0  0  0
    0.3942    3.6907    0.4024 C   0  0  0  0  0  0  0  0  0  0  0  0
    4.9933   -0.6048    0.2999 C   0  0  0  0  0  0  0  0  0  0  0  0
    5.0643    0.8628    0.3471 C   0  0  0  0  0  0  0  0  0  0  0  0
    3.7039   -2.6545    0.1325 C   0  0  0  0  0  0  0  0  0  0  0  0
   -2.3100   -0.9708   -0.3570 C   0  0  0  0  0  0  0  0  0  0  0  0
   -0.5330    4.0375    1.5814 C   0  0  0  0  0  0  0  0  0  0  0  0
    1.7000    4.4808    0.5590 C   0  0  0  0  0  0  0  0  0  0  0  0
   -0.3138    4.0728   -0.9043 C   0  0  0  0  0  0  0  0  0  0  0  0
    6.1703   -1.3613    0.3565 C   0  0  0  0  0  0  0  0  0  0  0  0
    4.8836   -3.3980    0.1844 C   0  0  0  0  0  0  0  0  0  0  0  0
    6.1132   -2.7533    0.2956 C   0  0  0  0  0  0  0  0  0  0  0  0
   -3.2625    0.0449   -0.2719 C   0  0  0  0  0  0  0  0  0  0  0  0
   -2.6804   -2.2980   -0.1371 C   0  0  0  0  0  0  0  0  0  0  0  0
   -4.5874   -0.2701    0.0310 C   0  0  0  0  0  0  0  0  0  0  0  0
   -4.0022   -2.6123    0.1794 C   0  0  0  0  0  0  0  0  0  0  0  0
   -4.9526   -1.5958    0.2780 C   0  0  0  0  0  0  0  0  0  0  0  0
   -6.8348    0.3081    0.0504 C   0  0  0  0  0  0  0  0  0  0  0  0
   -7.0194   -0.8439    1.0189 C   0  0  0  0  0  0  0  0  0  0  0  0
    1.7549   -1.5066   -1.6171 H   0  0  0  0  0  0  0  0  0  0  0  0
    1.2688    0.5431   -2.5263 H   0  0  0  0  0  0  0  0  0  0  0  0
    2.0549   -0.5355    1.2155 H   0  0  0  0  0  0  0  0  0  0  0  0
    1.8868    2.4151   -1.3484 H   0  0  0  0  0  0  0  0  0  0  0  0
    3.9546    2.6410    0.0755 H   0  0  0  0  0  0  0  0  0  0  0  0
    6.0213    1.3524    0.4815 H   0  0  0  0  0  0  0  0  0  0  0  0
    2.7564   -3.1820    0.0668 H   0  0  0  0  0  0  0  0  0  0  0  0
   -0.0655    3.7874    2.5409 H   0  0  0  0  0  0  0  0  0  0  0  0
   -1.4761    3.4813    1.5225 H   0  0  0  0  0  0  0  0  0  0  0  0
   -0.7761    5.1059    1.5964 H   0  0  0  0  0  0  0  0  0  0  0  0
    2.3437    4.3855   -0.3211 H   0  0  0  0  0  0  0  0  0  0  0  0
    2.2704    4.1338    1.4280 H   0  0  0  0  0  0  0  0  0  0  0  0
    1.5002    5.5499    0.6944 H   0  0  0  0  0  0  0  0  0  0  0  0
    0.2785    3.8333   -1.7923 H   0  0  0  0  0  0  0  0  0  0  0  0
   -1.2750    3.5569   -0.9957 H   0  0  0  0  0  0  0  0  0  0  0  0
   -0.5193    5.1493   -0.9341 H   0  0  0  0  0  0  0  0  0  0  0  0
    7.1400   -0.8770    0.4446 H   0  0  0  0  0  0  0  0  0  0  0  0
    4.8419   -4.4827    0.1458 H   0  0  0  0  0  0  0  0  0  0  0  0
    7.0290   -3.3358    0.3384 H   0  0  0  0  0  0  0  0  0  0  0  0
   -3.0003    1.0898   -0.4085 H   0  0  0  0  0  0  0  0  0  0  0  0
   -1.9763   -3.1183   -0.2349 H   0  0  0  0  0  0  0  0  0  0  0  0
   -4.2825   -3.6483    0.3497 H   0  0  0  0  0  0  0  0  0  0  0  0
   -7.0832    0.0159   -0.9774 H   0  0  0  0  0  0  0  0  0  0  0  0
   -7.4776    1.1480    0.3318 H   0  0  0  0  0  0  0  0  0  0  0  0
   -6.7307   -0.5641    2.0397 H   0  0  0  0  0  0  0  0  0  0  0  0
   -8.0663   -1.1628    1.0351 H   0  0  0  0  0  0  0  0  0  0  0  0
  1 12  2  0  0  0  0
  2 13  2  0  0  0  0
  3 15  2  0  0  0  0
  4 30  1  0  0  0  0
  4 33  1  0  0  0  0
  5 32  1  0  0  0  0
  5 34  1  0  0  0  0
  6 10  1  0  0  0  0
  6 11  1  0  0  0  0
  6 16  1  0  0  0  0
  7 12  1  0  0  0  0
  7 13  1  0  0  0  0
  7 21  1  0  0  0  0
  8  9  1  0  0  0  0
  8 10  1  0  0  0  0
  8 12  1  0  0  0  0
  8 35  1  0  0  0  0
  9 11  1  0  0  0  0
  9 13  1  0  0  0  0
  9 36  1  0  0  0  0
 10 14  1  0  0  0  0
 10 37  1  0  0  0  0
 11 15  1  0  0  0  0
 11 38  1  0  0  0  0
 14 18  1  0  0  0  0
 14 20  2  0  0  0  0
 15 17  1  0  0  0  0
 16 19  2  0  0  0  0
 16 39  1  0  0  0  0
 17 22  1  0  0  0  0
 17 23  1  0  0  0  0
 17 24  1  0  0  0  0
 18 19  1  0  0  0  0
 18 25  2  0  0  0  0
 19 40  1  0  0  0  0
 20 26  1  0  0  0  0
 20 41  1  0  0  0  0
 21 28  2  0  0  0  0
 21 29  1  0  0  0  0
 22 42  1  0  0  0  0
 22 43  1  0  0  0  0
 22 44  1  0  0  0  0
 23 45  1  0  0  0  0
 23 46  1  0  0  0  0
 23 47  1  0  0  0  0
 24 48  1  0  0  0  0
 24 49  1  0  0  0  0
 24 50  1  0  0  0  0
 25 27  1  0  0  0  0
 25 51  1  0  0  0  0
 26 27  2  0  0  0  0
 26 52  1  0  0  0  0
 27 53  1  0  0  0  0
 28 30  1  0  0  0  0
 28 54  1  0  0  0  0
 29 31  2  0  0  0  0
 29 55  1  0  0  0  0
 30 32  2  0  0  0  0
 31 32  1  0  0  0  0
 31 56  1  0  0  0  0
 33 34  1  0  0  0  0
 33 57  1  0  0  0  0
 33 58  1  0  0  0  0
 34 59  1  0  0  0  0
 34 60  1  0  0  0  0
M  END
> <PUBCHEM_COMPOUND_CID>
665230

> <PUBCHEM_CONFORMER_RMSD>
0.8

> <PUBCHEM_CONFORMER_DIVERSEORDER>
1
9
6
7
10
4
5
8
3
2

> <PUBCHEM_MMFF94_PARTIAL_CHARGES>
40
1 -0.57
10 0.51
11 0.43
12 0.57
13 0.57
14 -0.14
15 0.45
16 -0.05
17 0.06
18 0.03
19 -0.18
2 -0.57
20 -0.15
21 0.12
25 -0.15
26 -0.15
27 -0.15
28 -0.15
29 -0.15
3 -0.57
30 0.08
31 -0.15
32 0.08
33 0.28
34 0.28
39 0.15
4 -0.36
40 0.15
41 0.15
5 -0.36
51 0.15
52 0.15
53 0.15
54 0.15
55 0.15
56 0.15
6 -0.84
7 -0.24
8 0.06
9 0.06

> <PUBCHEM_EFFECTIVE_ROTOR_COUNT>
4.2

> <PUBCHEM_PHARMACOPHORE_FEATURES>
13
1 1 acceptor
1 2 acceptor
1 3 acceptor
1 4 acceptor
1 5 acceptor
1 6 cation
4 17 22 23 24 hydrophobe
5 6 8 9 10 11 rings
5 7 8 9 12 13 rings
6 14 18 20 25 26 27 rings
6 21 28 29 30 31 32 rings
6 4 5 30 32 33 34 rings
6 6 10 14 16 18 19 rings

> <PUBCHEM_HEAVY_ATOM_COUNT>
34

> <PUBCHEM_ATOM_DEF_STEREO_COUNT>
3

> <PUBCHEM_ATOM_UDEF_STEREO_COUNT>
1

> <PUBCHEM_BOND_DEF_STEREO_COUNT>
0

> <PUBCHEM_BOND_UDEF_STEREO_COUNT>
0

> <PUBCHEM_ISOTOPIC_ATOM_COUNT>
0

> <PUBCHEM_COMPONENT_COUNT>
1

> <PUBCHEM_CACTVS_TAUTO_COUNT>
8

> <PUBCHEM_CONFORMER_ID>
000A268E00000001

> <PUBCHEM_MMFF94_ENERGY>
122.9636

> <PUBCHEM_FEATURE_SELFOVERLAP>
66.499

> <PUBCHEM_SHAPE_FINGERPRINT>
10006869 2 18131346415078566736
10688039 33 18334295336147590852
10721379 63 17750818699195172244
11456790 92 18339938048029426713
117089 54 17838341783646898382
12107183 9 18341901775311246355
12166972 35 18260272957817124637
12422481 6 17274544209300351652
12516196 113 18411699876590256674
12788726 201 18339377262153985284
13004483 165 18341324509883843018
13140716 1 18340204068869923004
13782708 43 17968095356713460403
13785724 45 18270691882957912326
14028597 1 17823122459584305226
14068700 675 18260832553780739886
14341114 176 18409451397028695979
14466204 15 18412547600561213065
14790565 3 17543073837054717684
14849402 71 18265622163622872289
14866123 147 17690840065048678018
14955137 171 18411139142829319607
15042514 8 18196371425312865736
15131766 46 15552160499258391650
15238133 3 18411430509527111493
15347590 135 18262783122227336722
15475509 84 18341619200428015833
15911013 46 18047467017942703975
15927050 60 17765153161372538502
16992752 21 18339936918305639582
17868525 174 18341049726519180409
17980427 23 17417823824664037497
17980427 26 17838889687579814852
18608769 82 18410006633890883578
19301679 30 18196656190071540502
20832881 197 18407761447461554235
21133410 127 17608921325427501021
21267235 1 18410013192227011782
21987483 16 17764316429331467995
22889206 1 17842264050464474088
23559900 14 18338791325635926451
24771293 8 17986094431106333800
24893992 56 18411141325985859809
3004659 81 18186239520294569794
3178227 256 18337966657655875563
345986 75 18189037725515168146
3680242 22 18341626931679781161
4015057 19 18339352093746363915
4073 2 18041284386486259266
4144715 1 18261398909643422179
437815 12 18408601444501871927
4409770 3 18045774590384764661
44880168 125 17275103886842589782
463206 1 18335980982300329542
5104073 3 17981870971058773674
5265222 85 17255971589835045716
6086070 43 18268408249342157191
79837 15 17551231762334635424

> <PUBCHEM_SHAPE_MULTIPOLES>
660.4
14.49
4.88
1.11
11.94
5.04
0.24
-12.92
-3.9
-2.96
-1.15
0.32
0.61
0.19

> <PUBCHEM_SHAPE_SELFOVERLAP>
1480.547

> <PUBCHEM_SHAPE_VOLUME>
348.5

> <PUBCHEM_COORDINATE_TYPE>
2
5
10

$$$$
