833994
  -OEChem-01171812033D

 42 44  0     0  0  0  0  0  0999 V2000
    3.1607    0.2154   -0.4494 O   0  0  0  0  0  0  0  0  0  0  0  0
   -8.6968   -0.4743    0.1121 O   0  0  0  0  0  0  0  0  0  0  0  0
   -3.1458   -0.1782   -0.0450 N   0  0  0  0  0  0  0  0  0  0  0  0
   -2.3932    1.0423    0.0990 C   0  0  0  0  0  0  0  0  0  0  0  0
   -0.9254    0.8239   -0.0458 C   0  0  0  0  0  0  0  0  0  0  0  0
   -0.3272    0.9165   -1.3024 C   0  0  0  0  0  0  0  0  0  0  0  0
   -0.1506    0.5269    1.0755 C   0  0  0  0  0  0  0  0  0  0  0  0
    1.8209    0.4150   -0.3166 C   0  0  0  0  0  0  0  0  0  0  0  0
   -4.5093   -0.2506   -0.0066 C   0  0  0  0  0  0  0  0  0  0  0  0
    1.0459    0.7120   -1.4378 C   0  0  0  0  0  0  0  0  0  0  0  0
    1.2227    0.3225    0.9402 C   0  0  0  0  0  0  0  0  0  0  0  0
    3.8934   -0.0846    0.7377 C   0  0  0  0  0  0  0  0  0  0  0  0
    5.3453   -0.2376    0.3914 C   0  0  0  0  0  0  0  0  0  0  0  0
   -5.3086    0.9044    0.1834 C   0  0  0  0  0  0  0  0  0  0  0  0
   -5.1909   -1.4849   -0.1542 C   0  0  0  0  0  0  0  0  0  0  0  0
    5.8409   -1.4880    0.0391 C   0  0  0  0  0  0  0  0  0  0  0  0
    6.1821    0.8724    0.4257 C   0  0  0  0  0  0  0  0  0  0  0  0
   -6.7010    0.8301    0.2236 C   0  0  0  0  0  0  0  0  0  0  0  0
   -6.5832   -1.5594   -0.1141 C   0  0  0  0  0  0  0  0  0  0  0  0
   -7.3384   -0.4019    0.0746 C   0  0  0  0  0  0  0  0  0  0  0  0
    7.1906   -1.6304   -0.2829 C   0  0  0  0  0  0  0  0  0  0  0  0
    7.5318    0.7299    0.1034 C   0  0  0  0  0  0  0  0  0  0  0  0
    8.0360   -0.5215   -0.2508 C   0  0  0  0  0  0  0  0  0  0  0  0
   -2.5923    1.4965    1.0787 H   0  0  0  0  0  0  0  0  0  0  0  0
   -2.7124    1.7780   -0.6513 H   0  0  0  0  0  0  0  0  0  0  0  0
   -2.6348   -1.0448   -0.1767 H   0  0  0  0  0  0  0  0  0  0  0  0
   -0.9199    1.1451   -2.1842 H   0  0  0  0  0  0  0  0  0  0  0  0
   -0.6062    0.4496    2.0593 H   0  0  0  0  0  0  0  0  0  0  0  0
    1.5065    0.7848   -2.4193 H   0  0  0  0  0  0  0  0  0  0  0  0
    1.7601    0.0927    1.8535 H   0  0  0  0  0  0  0  0  0  0  0  0
    3.5386   -1.0215    1.1875 H   0  0  0  0  0  0  0  0  0  0  0  0
    3.7982    0.7263    1.4721 H   0  0  0  0  0  0  0  0  0  0  0  0
   -4.8565    1.8858    0.3060 H   0  0  0  0  0  0  0  0  0  0  0  0
   -4.6202   -2.3998   -0.3025 H   0  0  0  0  0  0  0  0  0  0  0  0
    5.1912   -2.3583    0.0082 H   0  0  0  0  0  0  0  0  0  0  0  0
    5.8000    1.8525    0.6977 H   0  0  0  0  0  0  0  0  0  0  0  0
   -7.2783    1.7389    0.3715 H   0  0  0  0  0  0  0  0  0  0  0  0
   -7.0740   -2.5218   -0.2310 H   0  0  0  0  0  0  0  0  0  0  0  0
    7.5832   -2.6046   -0.5594 H   0  0  0  0  0  0  0  0  0  0  0  0
    8.1901    1.5935    0.1276 H   0  0  0  0  0  0  0  0  0  0  0  0
    9.0868   -0.6323   -0.5020 H   0  0  0  0  0  0  0  0  0  0  0  0
   -9.0564    0.4190    0.2497 H   0  0  0  0  0  0  0  0  0  0  0  0
  1  8  1  0  0  0  0
  1 12  1  0  0  0  0
  2 20  1  0  0  0  0
  2 42  1  0  0  0  0
  3  4  1  0  0  0  0
  3  9  1  0  0  0  0
  3 26  1  0  0  0  0
  4  5  1  0  0  0  0
  4 24  1  0  0  0  0
  4 25  1  0  0  0  0
  5  6  2  0  0  0  0
  5  7  1  0  0  0  0
  6 10  1  0  0  0  0
  6 27  1  0  0  0  0
  7 11  2  0  0  0  0
  7 28  1  0  0  0  0
  8 10  2  0  0  0  0
  8 11  1  0  0  0  0
  9 14  2  0  0  0  0
  9 15  1  0  0  0  0
 10 29  1  0  0  0  0
 11 30  1  0  0  0  0
 12 13  1  0  0  0  0
 12 31  1  0  0  0  0
 12 32  1  0  0  0  0
 13 16  2  0  0  0  0
 13 17  1  0  0  0  0
 14 18  1  0  0  0  0
 14 33  1  0  0  0  0
 15 19  2  0  0  0  0
 15 34  1  0  0  0  0
 16 21  1  0  0  0  0
 16 35  1  0  0  0  0
 17 22  2  0  0  0  0
 17 36  1  0  0  0  0
 18 20  2  0  0  0  0
 18 37  1  0  0  0  0
 19 20  1  0  0  0  0
 19 38  1  0  0  0  0
 21 23  2  0  0  0  0
 21 39  1  0  0  0  0
 22 23  1  0  0  0  0
 22 40  1  0  0  0  0
 23 41  1  0  0  0  0
M  END
> <PUBCHEM_COMPOUND_CID>
833994

> <PUBCHEM_CONFORMER_RMSD>
0.8

> <PUBCHEM_CONFORMER_DIVERSEORDER>
1
59
79
77
51
67
5
45
75
4
68
57
23
34
19
69
104
42
87
10
111
101
78
62
117
89
90
18
114
66
116
76
52
71
15
80
16
61
56
36
99
109
86
46
48
103
107
98
28
106
102
115
64
38
31
60
27
29
43
21
3
105
110
55
65
2
24
47
32
72
49
100
30
113
17
91
112
7
40
25
11
9
6
41
92
83
97
94
85
88
20
82
93
96
35
26
37
70
81
63
53
54
8
44
13
58
39
84
108
50
95
33
14
74
73
22
12

> <PUBCHEM_MMFF94_PARTIAL_CHARGES>
38
1 -0.36
10 -0.15
11 -0.15
12 0.42
13 -0.14
14 -0.15
15 -0.15
16 -0.15
17 -0.15
18 -0.15
19 -0.15
2 -0.53
20 0.08
21 -0.15
22 -0.15
23 -0.15
26 0.4
27 0.15
28 0.15
29 0.15
3 -0.87
30 0.15
33 0.15
34 0.15
35 0.15
36 0.15
37 0.15
38 0.15
39 0.15
4 0.51
40 0.15
41 0.15
42 0.45
5 -0.14
6 -0.15
7 -0.15
8 0.08
9 0.1

> <PUBCHEM_EFFECTIVE_ROTOR_COUNT>
6

> <PUBCHEM_PHARMACOPHORE_FEATURES>
7
1 1 acceptor
1 2 donor
1 3 cation
1 3 donor
6 13 16 17 21 22 23 rings
6 5 6 7 8 10 11 rings
6 9 14 15 18 19 20 rings

> <PUBCHEM_HEAVY_ATOM_COUNT>
23

> <PUBCHEM_ATOM_DEF_STEREO_COUNT>
0

> <PUBCHEM_ATOM_UDEF_STEREO_COUNT>
0

> <PUBCHEM_BOND_DEF_STEREO_COUNT>
0

> <PUBCHEM_BOND_UDEF_STEREO_COUNT>
0

> <PUBCHEM_ISOTOPIC_ATOM_COUNT>
0

> <PUBCHEM_COMPONENT_COUNT>
1

> <PUBCHEM_CACTVS_TAUTO_COUNT>
2

> <PUBCHEM_CONFORMER_ID>
000CB9CA00000001

> <PUBCHEM_MMFF94_ENERGY>
78.3153

> <PUBCHEM_FEATURE_SELFOVERLAP>
35.522

> <PUBCHEM_SHAPE_FINGERPRINT>
10 15 16845570932992119712
10050765 1 18051976917890367450
10299344 5 18413389834646619290
106641 1 16845569833585967514
10670039 82 12179832910586344463
11135609 127 12036027815176188454
11315181 36 18343022199335499969
11524674 6 16630522951405699863
11638347 137 17846783991967294247
11719270 70 17632298969166582438
12516196 113 18259983773580066708
13533116 47 16443615815118226880
13540713 4 15408951118809834448
13668630 136 17894912940625847099
13685833 64 18335138691667295476
13885169 127 18411981330503399145
13968360 50 13768199485266292152
14123256 10 16008746905278647738
14150022 121 16415489212241809433
14178184 131 17986671674564262679
14251764 18 18131631192520598623
14251764 46 18410575088958052714
14344974 52 8214136336545346259
15183329 4 15213019340745632900
15198563 99 16009021735761884335
15301273 46 16845581898133427308
15419008 91 18262779835607469212
15690457 1 18412542128541042223
15716309 27 18131631192441431831
15849732 13 18187082866560000942
18006028 8 18411699885137863305
18335252 114 10809343368989485290
18335252 98 18412825781603878162
18681886 176 18040992977492357041
20281389 69 10592045752051903754
20554085 129 12324240611868580156
20735858 18 15698281105299067500
21095086 128 18413109438434739166
21150785 3 14056720149382261556
21267235 1 17749112201720320293
21315763 28 18413388752599983153
21792961 116 17274822394580331952
22224240 67 18408038524845349890
23035841 295 18260828193993315091
232437 2 18272088314934636551
23559900 14 18337386153332403817
23576562 1 14274321248667150831
246663 6 18341896289931354626
249057 3 16732988656348734859
3009799 131 15140679189726406740
3178227 256 16559031605934859266
33532 11 18411980226844704934
335352 9 16443069417087769379
34797466 226 18259705606239727588
4325135 7 18408886239757230318
5104073 3 15768951047070125731
5283156 175 18408325488484303109
5385378 56 13758082870526664108
5937810 71 12180107767451436399
59682541 35 16200426996410789578
5969126 39 17023177211006612533
59755656 520 12679455374576466629
67123 10 18411701002446278904

> <PUBCHEM_SHAPE_MULTIPOLES>
456.61
27.09
1.36
0.93
2.53
0.44
-0.12
8.67
1.11
0.02
-0.09
-0.33
-0.18
0.07

> <PUBCHEM_SHAPE_SELFOVERLAP>
984.705

> <PUBCHEM_SHAPE_VOLUME>
250.7

> <PUBCHEM_COORDINATE_TYPE>
2
5
10

$$$$
