849362
  -OEChem-01171811473D

 32 33  0     0  0  0  0  0  0999 V2000
   -0.4011    2.6384   -0.0056 O   0  0  0  0  0  0  0  0  0  0  0  0
    0.7444   -0.5902   -0.0665 N   0  0  0  0  0  0  0  0  0  0  0  0
   -0.3218    0.2758   -0.0302 N   0  0  0  0  0  0  0  0  0  0  0  0
    3.2498   -0.5599    0.0199 C   0  0  0  0  0  0  0  0  0  0  0  0
    1.9114    0.1270   -0.0336 C   0  0  0  0  0  0  0  0  0  0  0  0
    4.3321    0.5192    0.0907 C   0  0  0  0  0  0  0  0  0  0  0  0
    3.4230   -1.4068   -1.2431 C   0  0  0  0  0  0  0  0  0  0  0  0
    3.3012   -1.4490    1.2647 C   0  0  0  0  0  0  0  0  0  0  0  0
    1.6794    1.4459   -0.0228 C   0  0  0  0  0  0  0  0  0  0  0  0
    0.1930    1.5731   -0.0150 C   0  0  0  0  0  0  0  0  0  0  0  0
   -1.6570   -0.0731   -0.0119 C   0  0  0  0  0  0  0  0  0  0  0  0
   -2.6512    0.9153    0.0255 C   0  0  0  0  0  0  0  0  0  0  0  0
   -2.0414   -1.4218   -0.0301 C   0  0  0  0  0  0  0  0  0  0  0  0
   -4.0006    0.5626    0.0441 C   0  0  0  0  0  0  0  0  0  0  0  0
   -3.3908   -1.7744   -0.0116 C   0  0  0  0  0  0  0  0  0  0  0  0
   -4.3705   -0.7822    0.0255 C   0  0  0  0  0  0  0  0  0  0  0  0
    4.2452    1.1417    0.9896 H   0  0  0  0  0  0  0  0  0  0  0  0
    5.3256    0.0552    0.1311 H   0  0  0  0  0  0  0  0  0  0  0  0
    4.3321    1.1716   -0.7909 H   0  0  0  0  0  0  0  0  0  0  0  0
    3.3454   -0.7964   -2.1508 H   0  0  0  0  0  0  0  0  0  0  0  0
    2.6706   -2.2012   -1.3124 H   0  0  0  0  0  0  0  0  0  0  0  0
    4.4068   -1.8901   -1.2558 H   0  0  0  0  0  0  0  0  0  0  0  0
    2.5746   -2.2684    1.2221 H   0  0  0  0  0  0  0  0  0  0  0  0
    3.1038   -0.8754    2.1783 H   0  0  0  0  0  0  0  0  0  0  0  0
    4.2918   -1.9061    1.3736 H   0  0  0  0  0  0  0  0  0  0  0  0
    0.6843   -1.5432    0.2625 H   0  0  0  0  0  0  0  0  0  0  0  0
    2.3521    2.2841    0.0098 H   0  0  0  0  0  0  0  0  0  0  0  0
   -2.4540    1.9779    0.0438 H   0  0  0  0  0  0  0  0  0  0  0  0
   -1.3095   -2.2240   -0.0632 H   0  0  0  0  0  0  0  0  0  0  0  0
   -4.7647    1.3341    0.0734 H   0  0  0  0  0  0  0  0  0  0  0  0
   -3.6793   -2.8214   -0.0272 H   0  0  0  0  0  0  0  0  0  0  0  0
   -5.4212   -1.0568    0.0397 H   0  0  0  0  0  0  0  0  0  0  0  0
  1 10  2  0  0  0  0
  2  3  1  0  0  0  0
  2  5  1  0  0  0  0
  2 26  1  0  0  0  0
  3 10  1  0  0  0  0
  3 11  1  0  0  0  0
  4  5  1  0  0  0  0
  4  6  1  0  0  0  0
  4  7  1  0  0  0  0
  4  8  1  0  0  0  0
  5  9  2  0  0  0  0
  6 17  1  0  0  0  0
  6 18  1  0  0  0  0
  6 19  1  0  0  0  0
  7 20  1  0  0  0  0
  7 21  1  0  0  0  0
  7 22  1  0  0  0  0
  8 23  1  0  0  0  0
  8 24  1  0  0  0  0
  8 25  1  0  0  0  0
  9 10  1  0  0  0  0
  9 27  1  0  0  0  0
 11 12  2  0  0  0  0
 11 13  1  0  0  0  0
 12 14  1  0  0  0  0
 12 28  1  0  0  0  0
 13 15  2  0  0  0  0
 13 29  1  0  0  0  0
 14 16  2  0  0  0  0
 14 30  1  0  0  0  0
 15 16  1  0  0  0  0
 15 31  1  0  0  0  0
 16 32  1  0  0  0  0
M  END
> <PUBCHEM_COMPOUND_CID>
849362

> <PUBCHEM_CONFORMER_RMSD>
0.6

> <PUBCHEM_CONFORMER_DIVERSEORDER>
1
2

> <PUBCHEM_MMFF94_PARTIAL_CHARGES>
20
1 -0.57
10 0.62
11 0.12
12 -0.15
13 -0.15
14 -0.15
15 -0.15
16 -0.15
2 -0.52
26 0.4
27 0.15
28 0.15
29 0.15
3 -0.16
30 0.15
31 0.15
32 0.15
4 0.14
5 -0.04
9 -0.14

> <PUBCHEM_EFFECTIVE_ROTOR_COUNT>
2

> <PUBCHEM_PHARMACOPHORE_FEATURES>
5
1 1 acceptor
1 2 donor
4 4 6 7 8 hydrophobe
5 2 3 5 9 10 rings
6 11 12 13 14 15 16 rings

> <PUBCHEM_HEAVY_ATOM_COUNT>
16

> <PUBCHEM_ATOM_DEF_STEREO_COUNT>
0

> <PUBCHEM_ATOM_UDEF_STEREO_COUNT>
0

> <PUBCHEM_BOND_DEF_STEREO_COUNT>
0

> <PUBCHEM_BOND_UDEF_STEREO_COUNT>
0

> <PUBCHEM_ISOTOPIC_ATOM_COUNT>
0

> <PUBCHEM_COMPONENT_COUNT>
1

> <PUBCHEM_CACTVS_TAUTO_COUNT>
3

> <PUBCHEM_CONFORMER_ID>
000CF5D200000001

> <PUBCHEM_MMFF94_ENERGY>
58.9285

> <PUBCHEM_FEATURE_SELFOVERLAP>
25.371

> <PUBCHEM_SHAPE_FINGERPRINT>
10130415 120 18410292514617556897
10618630 7 18411139112917107214
11132069 177 18412823568788417995
11543360 7 15719403866283068759
11578080 2 17532346748042149436
116883 192 18270126699315431508
11806522 49 18337389460525344846
12032990 46 18412550907227075503
12553582 1 18408322159568261075
13296908 3 18412545409610979278
13675066 3 17918272047787889043
14115302 16 17822584875006080663
14144814 61 18410292501711594979
14252887 29 18272658960773113658
15196674 1 18410856551060430471
15342816 4 18334295374881333302
15375358 24 18342174475058159510
15375462 189 18113614560464716123
15442244 35 18411420618096083241
15536298 74 18342175621729999080
15848700 24 18343016683684680356
16752209 62 18117828907135389217
16945 1 18266740181958446884
17804303 29 18411141346584931181
1813 80 17894641335151472389
18186145 218 17967531280950599543
18522853 276 18341895212200466537
19107657 162 18201721738739602126
19141452 34 18202285814449254215
19591789 44 16541319242009944841
200 152 17917704730480468959
20281475 54 18411140190964395944
20510252 161 18201156529543900984
20645477 70 18339642347013456359
20871998 22 18343025467188154196
21267235 1 18410302431612809595
21296965 67 18411981364383057057
21501925 9 18411974797488571504
221490 88 18118973735010539275
22485316 2 18334290967949111578
2255824 54 18041563649738557868
23402539 116 18201430360195950533
23463225 33 18409729568916807359
23557571 272 18342462496076732372
23559900 14 18270400473879893590
2748010 2 18339072791363390893
314173 41 18335990851606908051
34934 24 18411130372716636542
4921388 177 15502385568681353595
5104073 3 18411981355755868851
5902787 121 18408599292427838146
7364860 26 18126004007821264304
81228 2 18266473004949178224
83771 10 18333729126123723796
8809292 202 18261396693234620827
9709674 26 18339366382374661479

> <PUBCHEM_SHAPE_MULTIPOLES>
313.44
8.45
2.01
0.81
1.01
0.54
-0.01
-2.93
-0.12
0.16
0
-0.69
-0.3
-0.01

> <PUBCHEM_SHAPE_SELFOVERLAP>
667.974

> <PUBCHEM_SHAPE_VOLUME>
176.1

> <PUBCHEM_COORDINATE_TYPE>
2
5
10

$$$$
