2801279
  -OEChem-01171812033D

 37 39  0     1  0  0  0  0  0999 V2000
   -0.0710    1.3778    0.0911 O   0  0  0  0  0  0  0  0  0  0  0  0
    4.8383    0.2085   -0.2666 O   0  0  0  0  0  0  0  0  0  0  0  0
   -5.1782   -0.6058   -0.1382 O   0  0  0  0  0  0  0  0  0  0  0  0
    2.0229    0.1613    0.1495 N   0  0  0  0  0  0  0  0  0  0  0  0
   -0.2070   -1.0499    0.1021 C   0  0  0  0  0  0  0  0  0  0  0  0
    0.6420    0.1830   -0.3281 C   0  0  1  0  0  0  0  0  0  0  0  0
   -1.5505   -0.3954   -0.0007 C   0  0  0  0  0  0  0  0  0  0  0  0
    0.0216   -1.4882    1.5591 C   0  0  0  0  0  0  0  0  0  0  0  0
   -0.0042   -2.2354   -0.8424 C   0  0  0  0  0  0  0  0  0  0  0  0
   -1.3875    0.9862    0.0334 C   0  0  0  0  0  0  0  0  0  0  0  0
    2.7409   -1.0051   -0.3829 C   0  0  0  0  0  0  0  0  0  0  0  0
    2.7239    1.3976   -0.2243 C   0  0  0  0  0  0  0  0  0  0  0  0
    4.1818   -0.9995    0.1195 C   0  0  0  0  0  0  0  0  0  0  0  0
    4.1656    1.3466    0.2734 C   0  0  0  0  0  0  0  0  0  0  0  0
   -2.8177   -0.9506   -0.0590 C   0  0  0  0  0  0  0  0  0  0  0  0
   -2.4611    1.8551    0.0294 C   0  0  0  0  0  0  0  0  0  0  0  0
   -3.9185   -0.0895   -0.0812 C   0  0  0  0  0  0  0  0  0  0  0  0
   -3.7412    1.3034   -0.0341 C   0  0  0  0  0  0  0  0  0  0  0  0
    0.6599    0.2442   -1.4297 H   0  0  0  0  0  0  0  0  0  0  0  0
    1.0036   -1.9429    1.7163 H   0  0  0  0  0  0  0  0  0  0  0  0
   -0.0641   -0.6447    2.2549 H   0  0  0  0  0  0  0  0  0  0  0  0
   -0.7261   -2.2311    1.8630 H   0  0  0  0  0  0  0  0  0  0  0  0
   -0.8893   -2.8838   -0.8392 H   0  0  0  0  0  0  0  0  0  0  0  0
    0.1303   -1.9146   -1.8816 H   0  0  0  0  0  0  0  0  0  0  0  0
    0.8164   -2.9023   -0.5767 H   0  0  0  0  0  0  0  0  0  0  0  0
    2.7286   -1.0120   -1.4797 H   0  0  0  0  0  0  0  0  0  0  0  0
    2.3482   -1.9421   -0.0048 H   0  0  0  0  0  0  0  0  0  0  0  0
    2.2410    2.2739    0.2222 H   0  0  0  0  0  0  0  0  0  0  0  0
    2.7199    1.5236   -1.3149 H   0  0  0  0  0  0  0  0  0  0  0  0
    4.2322   -1.1095    1.2100 H   0  0  0  0  0  0  0  0  0  0  0  0
    4.7355   -1.8342   -0.3226 H   0  0  0  0  0  0  0  0  0  0  0  0
    4.7058    2.2396   -0.0570 H   0  0  0  0  0  0  0  0  0  0  0  0
    4.2148    1.3154    1.3687 H   0  0  0  0  0  0  0  0  0  0  0  0
   -2.9537   -2.0270   -0.0694 H   0  0  0  0  0  0  0  0  0  0  0  0
   -2.3202    2.9294    0.0661 H   0  0  0  0  0  0  0  0  0  0  0  0
   -4.6068    1.9611   -0.0455 H   0  0  0  0  0  0  0  0  0  0  0  0
   -5.1201   -1.5764   -0.1633 H   0  0  0  0  0  0  0  0  0  0  0  0
  1  6  1  0  0  0  0
  1 10  1  0  0  0  0
  2 13  1  0  0  0  0
  2 14  1  0  0  0  0
  3 17  1  0  0  0  0
  3 37  1  0  0  0  0
  4  6  1  0  0  0  0
  4 11  1  0  0  0  0
  4 12  1  0  0  0  0
  5  6  1  0  0  0  0
  5  7  1  0  0  0  0
  5  8  1  0  0  0  0
  5  9  1  0  0  0  0
  6 19  1  0  0  0  0
  7 10  2  0  0  0  0
  7 15  1  0  0  0  0
  8 20  1  0  0  0  0
  8 21  1  0  0  0  0
  8 22  1  0  0  0  0
  9 23  1  0  0  0  0
  9 24  1  0  0  0  0
  9 25  1  0  0  0  0
 10 16  1  0  0  0  0
 11 13  1  0  0  0  0
 11 26  1  0  0  0  0
 11 27  1  0  0  0  0
 12 14  1  0  0  0  0
 12 28  1  0  0  0  0
 12 29  1  0  0  0  0
 13 30  1  0  0  0  0
 13 31  1  0  0  0  0
 14 32  1  0  0  0  0
 14 33  1  0  0  0  0
 15 17  2  0  0  0  0
 15 34  1  0  0  0  0
 16 18  2  0  0  0  0
 16 35  1  0  0  0  0
 17 18  1  0  0  0  0
 18 36  1  0  0  0  0
M  END
> <PUBCHEM_COMPOUND_CID>
2801279

> <PUBCHEM_CONFORMER_RMSD>
0.6

> <PUBCHEM_CONFORMER_DIVERSEORDER>
1
5
2
3
4

> <PUBCHEM_MMFF94_PARTIAL_CHARGES>
20
1 -0.36
10 0.08
11 0.27
12 0.27
13 0.28
14 0.28
15 -0.15
16 -0.15
17 0.08
18 -0.15
2 -0.56
3 -0.53
34 0.15
35 0.15
36 0.15
37 0.45
4 -0.81
5 0.14
6 0.55
7 -0.14

> <PUBCHEM_EFFECTIVE_ROTOR_COUNT>
2.8

> <PUBCHEM_PHARMACOPHORE_FEATURES>
8
1 1 acceptor
1 2 acceptor
1 3 donor
1 4 cation
3 5 8 9 hydrophobe
5 1 5 6 7 10 rings
6 2 4 11 12 13 14 rings
6 7 10 15 16 17 18 rings

> <PUBCHEM_HEAVY_ATOM_COUNT>
18

> <PUBCHEM_ATOM_DEF_STEREO_COUNT>
0

> <PUBCHEM_ATOM_UDEF_STEREO_COUNT>
1

> <PUBCHEM_BOND_DEF_STEREO_COUNT>
0

> <PUBCHEM_BOND_UDEF_STEREO_COUNT>
0

> <PUBCHEM_ISOTOPIC_ATOM_COUNT>
0

> <PUBCHEM_COMPONENT_COUNT>
1

> <PUBCHEM_CACTVS_TAUTO_COUNT>
3

> <PUBCHEM_CONFORMER_ID>
002ABE7F00000001

> <PUBCHEM_MMFF94_ENERGY>
58.4243

> <PUBCHEM_FEATURE_SELFOVERLAP>
40.698

> <PUBCHEM_SHAPE_FINGERPRINT>
10062212 137 18340478980820204559
10608611 8 18411698751266432244
10922049 32 18410013229979357962
11132069 177 18408602556624198861
11806522 49 18409165545690989039
12403259 226 18410286978452685260
12403259 415 18411414007798822100
12592029 89 18271811185542111630
13380535 76 18409733958368349390
13675066 3 18261115192055277712
13862211 1 18412258458894117487
14787075 74 18338234972293322817
14943859 89 18409166623189820603
15042514 8 18267306623995086687
15196674 1 18411138008857440885
15536298 74 18413107243162878532
16945 1 18262250992099244339
17862501 102 18410006602855246402
18186145 218 18187080629092841180
200 152 17918274246684589512
20510252 161 18272653424249227985
20645477 56 18270958063608790312
20645477 70 18271810077767376438
21267235 1 18410864252000316638
21524375 3 18407760334917090858
23402539 116 18343293786379383037
23463225 33 18408886200648811532
23559900 14 18342175540890322966
265663 24 18408038498511134498
351380 180 18409446985875515992
3545911 37 18411983585434894124
366044 4 18411136956611656266
4214541 1 18411419479539359636
43471831 8 18188486874173649210
474 4 17531814692036186788
474229 33 18412825811141492511
4990 188 18273219664284319238
5104073 3 18410856525332923081
6138700 20 18193279586094985958
633830 44 18260265226612189198
69090 78 18342454863413334638
7364860 26 18124033425296742959
7495541 125 17060049410769153027
77779 3 18411983546384543084
9709674 26 18411707590625749038

> <PUBCHEM_SHAPE_MULTIPOLES>
347.84
8.7
1.95
0.81
1.54
0.07
-0.18
-1.5
0.4
0.02
0.05
0.07
0.31
0.02

> <PUBCHEM_SHAPE_SELFOVERLAP>
748.613

> <PUBCHEM_SHAPE_VOLUME>
191.9

> <PUBCHEM_COORDINATE_TYPE>
2
5
10

$$$$
