16195560
  -OEChem-01171811523D

 54 58  0     0  0  0  0  0  0999 V2000
   -0.5837   -0.5678   -1.8295 O   0  0  0  0  0  0  0  0  0  0  0  0
   -2.8459   -3.0955    0.8571 O   0  0  0  0  0  0  0  0  0  0  0  0
   -4.0939    1.0266   -0.2560 O   0  0  0  0  0  0  0  0  0  0  0  0
    2.1003    0.0620   -0.7260 N   0  0  0  0  0  0  0  0  0  0  0  0
   -0.4209   -2.6416   -0.7905 N   0  0  0  0  0  0  0  0  0  0  0  0
    0.2853   -3.5461   -0.0079 N   0  0  0  0  0  0  0  0  0  0  0  0
   -3.7040   -1.7573   -0.8383 N   0  0  0  0  0  0  0  0  0  0  0  0
    1.3477   -1.0708   -0.5947 C   0  0  0  0  0  0  0  0  0  0  0  0
    3.2888   -0.0872   -0.0404 C   0  0  0  0  0  0  0  0  0  0  0  0
    2.0479   -1.9588    0.1775 C   0  0  0  0  0  0  0  0  0  0  0  0
    3.2798   -1.3604    0.5412 C   0  0  0  0  0  0  0  0  0  0  0  0
    1.7234    1.2461   -1.4694 C   0  0  0  0  0  0  0  0  0  0  0  0
    0.0500   -1.3605   -1.1355 C   0  0  0  0  0  0  0  0  0  0  0  0
    0.9837    2.2275   -0.6010 C   0  0  0  0  0  0  0  0  0  0  0  0
    4.3608    0.8005    0.1071 C   0  0  0  0  0  0  0  0  0  0  0  0
    4.3927   -1.7647    1.3050 C   0  0  0  0  0  0  0  0  0  0  0  0
    1.4558   -3.2308    0.4553 C   0  0  0  0  0  0  0  0  0  0  0  0
    0.5328    3.4329   -1.1238 C   0  0  0  0  0  0  0  0  0  0  0  0
    5.4528    0.3765    0.8695 C   0  0  0  0  0  0  0  0  0  0  0  0
    5.4704   -0.8855    1.4601 C   0  0  0  0  0  0  0  0  0  0  0  0
   -1.7279   -3.0428   -1.2839 C   0  0  0  0  0  0  0  0  0  0  0  0
    0.7625    1.9025    0.7316 C   0  0  0  0  0  0  0  0  0  0  0  0
   -0.1507    4.3279   -0.3007 C   0  0  0  0  0  0  0  0  0  0  0  0
    0.7645    3.7956   -2.5540 C   0  0  0  0  0  0  0  0  0  0  0  0
    0.0789    2.7975    1.5546 C   0  0  0  0  0  0  0  0  0  0  0  0
   -2.7919   -2.6434   -0.2839 C   0  0  0  0  0  0  0  0  0  0  0  0
   -0.3776    4.0102    1.0385 C   0  0  0  0  0  0  0  0  0  0  0  0
   -4.8522   -1.2496   -0.1221 C   0  0  0  0  0  0  0  0  0  0  0  0
   -4.4898    0.0334    0.5618 C   0  0  0  0  0  0  0  0  0  0  0  0
   -4.4813    0.3996    1.8671 C   0  0  0  0  0  0  0  0  0  0  0  0
   -4.0403    1.7444    1.8733 C   0  0  0  0  0  0  0  0  0  0  0  0
   -3.8180    2.0794    0.5579 C   0  0  0  0  0  0  0  0  0  0  0  0
    2.6404    1.7017   -1.8589 H   0  0  0  0  0  0  0  0  0  0  0  0
    1.1309    0.9446   -2.3368 H   0  0  0  0  0  0  0  0  0  0  0  0
    4.3591    1.7876   -0.3423 H   0  0  0  0  0  0  0  0  0  0  0  0
    4.4214   -2.7452    1.7716 H   0  0  0  0  0  0  0  0  0  0  0  0
    2.0099   -3.9529    1.0752 H   0  0  0  0  0  0  0  0  0  0  0  0
    6.3007    1.0433    1.0043 H   0  0  0  0  0  0  0  0  0  0  0  0
   -1.7505   -4.1323   -1.3987 H   0  0  0  0  0  0  0  0  0  0  0  0
   -1.9060   -2.6035   -2.2707 H   0  0  0  0  0  0  0  0  0  0  0  0
    6.3309   -1.1922    2.0488 H   0  0  0  0  0  0  0  0  0  0  0  0
    1.0801    0.9854    1.2112 H   0  0  0  0  0  0  0  0  0  0  0  0
   -0.5139    5.2768   -0.6864 H   0  0  0  0  0  0  0  0  0  0  0  0
    0.2831    3.0705   -3.2180 H   0  0  0  0  0  0  0  0  0  0  0  0
    0.3491    4.7802   -2.7953 H   0  0  0  0  0  0  0  0  0  0  0  0
    1.8364    3.8352   -2.7732 H   0  0  0  0  0  0  0  0  0  0  0  0
   -0.1000    2.5507    2.5971 H   0  0  0  0  0  0  0  0  0  0  0  0
   -0.9111    4.7063    1.6792 H   0  0  0  0  0  0  0  0  0  0  0  0
   -3.5671   -1.4250   -1.7882 H   0  0  0  0  0  0  0  0  0  0  0  0
   -5.6526   -1.0778   -0.8486 H   0  0  0  0  0  0  0  0  0  0  0  0
   -5.1911   -1.9938    0.6058 H   0  0  0  0  0  0  0  0  0  0  0  0
   -4.7525   -0.2077    2.7186 H   0  0  0  0  0  0  0  0  0  0  0  0
   -3.9007    2.3889    2.7290 H   0  0  0  0  0  0  0  0  0  0  0  0
   -3.4809    2.9776    0.0615 H   0  0  0  0  0  0  0  0  0  0  0  0
  1 13  2  0  0  0  0
  2 26  2  0  0  0  0
  3 29  1  0  0  0  0
  3 32  1  0  0  0  0
  4  8  1  0  0  0  0
  4  9  1  0  0  0  0
  4 12  1  0  0  0  0
  5  6  1  0  0  0  0
  5 13  1  0  0  0  0
  5 21  1  0  0  0  0
  6 17  2  0  0  0  0
  7 26  1  0  0  0  0
  7 28  1  0  0  0  0
  7 49  1  0  0  0  0
  8 10  2  0  0  0  0
  8 13  1  0  0  0  0
  9 11  1  0  0  0  0
  9 15  2  0  0  0  0
 10 11  1  0  0  0  0
 10 17  1  0  0  0  0
 11 16  2  0  0  0  0
 12 14  1  0  0  0  0
 12 33  1  0  0  0  0
 12 34  1  0  0  0  0
 14 18  1  0  0  0  0
 14 22  2  0  0  0  0
 15 19  1  0  0  0  0
 15 35  1  0  0  0  0
 16 20  1  0  0  0  0
 16 36  1  0  0  0  0
 17 37  1  0  0  0  0
 18 23  2  0  0  0  0
 18 24  1  0  0  0  0
 19 20  2  0  0  0  0
 19 38  1  0  0  0  0
 20 41  1  0  0  0  0
 21 26  1  0  0  0  0
 21 39  1  0  0  0  0
 21 40  1  0  0  0  0
 22 25  1  0  0  0  0
 22 42  1  0  0  0  0
 23 27  1  0  0  0  0
 23 43  1  0  0  0  0
 24 44  1  0  0  0  0
 24 45  1  0  0  0  0
 24 46  1  0  0  0  0
 25 27  2  0  0  0  0
 25 47  1  0  0  0  0
 27 48  1  0  0  0  0
 28 29  1  0  0  0  0
 28 50  1  0  0  0  0
 28 51  1  0  0  0  0
 29 30  2  0  0  0  0
 30 31  1  0  0  0  0
 30 52  1  0  0  0  0
 31 32  2  0  0  0  0
 31 53  1  0  0  0  0
 32 54  1  0  0  0  0
M  END
> <PUBCHEM_COMPOUND_CID>
16195560

> <PUBCHEM_CONFORMER_RMSD>
1

> <PUBCHEM_CONFORMER_DIVERSEORDER>
1
23
281
15
145
187
150
86
151
52
207
233
80
226
244
189
91
270
49
129
273
139
42
224
73
87
275
84
115
223
64
192
130
185
194
180
200
117
81
217
20
190
264
238
106
100
9
271
126
249
112
208
280
268
29
70
140
74
51
17
60
154
211
104
188
69
125
276
48
99
204
152
199
119
179
227
123
219
262
160
79
98
92
156
197
78
132
66
277
47
218
232
36
75
38
67
278
116
174
272
209
175
149
142
56
184
25
59
13
248
274
251
96
260
72
246
202
18
206
279
203
122
62
195
196
8
258
34
191
50
137
186
65
136
164
161
133
35
234
95
212
169
83
138
266
108
46
157
128
63
205
245
144
77
32
231
102
229
43
120
176
44
5
282
121
263
93
148
167
193
110
257
220
40
216
163
88
215
94
22
162
103
14
45
33
168
241
159
228
172
89
210
19
114
230
41
11
158
235
76
71
31
236
90
269
147
21
97
177
213
261
113
181
101
54
6
237
198
165
259
221
61
4
118
2
256
173
3
134
166
201
153
182
222
135
242
107
30
26
155
178
82
7
124
131
105
243
37
250
55
111
247
39
53
239
170
225
253
127
141
252
27
10
58
28
68
171
146
254
143
16
240
85
267
12
24
57
255
183
265
109
214

> <PUBCHEM_MMFF94_PARTIAL_CHARGES>
44
1 -0.57
10 -0.09
12 0.4
13 0.71
14 -0.14
15 -0.15
16 -0.15
17 0.48
18 -0.14
19 -0.15
2 -0.57
20 -0.15
21 0.36
22 -0.15
23 -0.15
24 0.14
25 -0.15
26 0.57
27 -0.15
28 0.48
29 -0.04
3 -0.28
30 -0.15
31 -0.15
32 -0.01
35 0.15
36 0.15
37 0.06
38 0.15
4 0.05
41 0.15
42 0.15
43 0.15
47 0.15
48 0.15
49 0.37
5 -0.3
52 0.15
53 0.15
54 0.15
6 -0.51
7 -0.73
8 -0.24
9 -0.15

> <PUBCHEM_EFFECTIVE_ROTOR_COUNT>
7

> <PUBCHEM_PHARMACOPHORE_FEATURES>
11
1 1 acceptor
1 2 acceptor
1 3 acceptor
1 4 cation
1 6 acceptor
1 7 donor
5 3 29 30 31 32 rings
5 4 8 9 10 11 rings
6 14 18 22 23 25 27 rings
6 5 6 8 10 13 17 rings
6 9 11 15 16 19 20 rings

> <PUBCHEM_HEAVY_ATOM_COUNT>
32

> <PUBCHEM_ATOM_DEF_STEREO_COUNT>
0

> <PUBCHEM_ATOM_UDEF_STEREO_COUNT>
0

> <PUBCHEM_BOND_DEF_STEREO_COUNT>
0

> <PUBCHEM_BOND_UDEF_STEREO_COUNT>
0

> <PUBCHEM_ISOTOPIC_ATOM_COUNT>
0

> <PUBCHEM_COMPONENT_COUNT>
1

> <PUBCHEM_CACTVS_TAUTO_COUNT>
2

> <PUBCHEM_CONFORMER_ID>
00F71FE800000001

> <PUBCHEM_MMFF94_ENERGY>
74.6545

> <PUBCHEM_FEATURE_SELFOVERLAP>
56.011

> <PUBCHEM_SHAPE_FINGERPRINT>
10190108 129 17976847314477602938
10439779 11 18342454863624480867
10675989 125 16968286021689485749
10815517 723 18339648828588623790
1100329 8 18268429207854172292
11513181 2 17560522772806523191
12107698 1 18266739267779772923
12422481 6 18196082258007465322
12633257 1 18340502131321430681
12788726 201 18410293636432085790
12978246 48 18340778130151626579
13122387 1 18197227949350123121
13140716 1 18410564103017343454
13773456 30 17328288157162027256
13965767 371 17840886078778764003
14068700 675 17843093013612053719
144659 178 17908417309615505816
14466204 15 18411696616615042643
14725015 67 17253164025805421801
14790565 3 18264494056355794132
14840074 17 18339090293466087016
15297060 5 17486807153614105720
15475509 84 17974019640800806658
16993438 75 17752184116511821997
17809404 112 15482408503472620641
17980427 23 18059854004265738887
18336668 15 18409164450021167501
20739085 24 18333731338511903470
20764821 26 18125733524256169081
21033648 29 17203604908540124706
2132832 1 17841972671224418375
21796203 349 17973763312962907744
22113638 7 18411706482523920281
3493558 16 17770767220161985976
392239 28 18130500856023621288
4403749 210 18265880368915458816
463206 1 18339089275838399985
469060 322 18261951856417777908
474144 1 18189075220458602397
5047190 48 18195813963863451057
6371009 1 18342454894206216423
653340 110 18053100614416158272

> <PUBCHEM_SHAPE_MULTIPOLES>
621.01
9.56
5.66
1.75
0.48
2.7
0.24
-3.07
-5.32
1.67
1.15
0.25
1.07
-1.92

> <PUBCHEM_SHAPE_SELFOVERLAP>
1381.862

> <PUBCHEM_SHAPE_VOLUME>
332.5

> <PUBCHEM_COORDINATE_TYPE>
2
5
10

$$$$
