367783
  -OEChem-01171811593D

 35 37  0     0  0  0  0  0  0999 V2000
   -5.5484   -0.2415    0.2871 S   0  0  0  0  0  0  0  0  0  0  0  0
    4.5529   -2.2837    0.2526 O   0  0  0  0  0  0  0  0  0  0  0  0
    2.1886   -3.3345   -0.3751 O   0  0  0  0  0  0  0  0  0  0  0  0
   -6.2763   -0.0044   -0.9517 O   0  0  0  0  0  0  0  0  0  0  0  0
   -5.6516   -1.5338    0.9505 O   0  0  0  0  0  0  0  0  0  0  0  0
    0.2013    0.9436   -0.6586 N   0  0  0  0  0  0  0  0  0  0  0  0
   -5.9531    0.9835    1.4074 N   0  0  0  0  0  0  0  0  0  0  0  0
    2.5954    0.7450   -0.0797 C   0  0  0  0  0  0  0  0  0  0  0  0
    1.2825    0.1308   -0.4317 C   0  0  0  0  0  0  0  0  0  0  0  0
    3.7258   -0.0597    0.1577 C   0  0  0  0  0  0  0  0  0  0  0  0
   -1.1482    0.6650   -0.4373 C   0  0  0  0  0  0  0  0  0  0  0  0
    1.1638   -1.2052   -0.5254 C   0  0  0  0  0  0  0  0  0  0  0  0
    2.7716    2.1370    0.0327 C   0  0  0  0  0  0  0  0  0  0  0  0
   -3.8602    0.1062    0.0094 C   0  0  0  0  0  0  0  0  0  0  0  0
    3.6163   -1.5247    0.0599 C   0  0  0  0  0  0  0  0  0  0  0  0
   -2.1381    1.2566   -1.2350 C   0  0  0  0  0  0  0  0  0  0  0  0
   -1.5358   -0.2107    0.5873 C   0  0  0  0  0  0  0  0  0  0  0  0
    4.9710    0.4939    0.4894 C   0  0  0  0  0  0  0  0  0  0  0  0
    2.2910   -2.1205   -0.2926 C   0  0  0  0  0  0  0  0  0  0  0  0
   -3.4868    0.9789   -1.0128 C   0  0  0  0  0  0  0  0  0  0  0  0
   -2.8845   -0.4887    0.8095 C   0  0  0  0  0  0  0  0  0  0  0  0
    4.0125    2.6935    0.3644 C   0  0  0  0  0  0  0  0  0  0  0  0
    5.1106    1.8733    0.5920 C   0  0  0  0  0  0  0  0  0  0  0  0
    0.3945    1.8350   -1.1013 H   0  0  0  0  0  0  0  0  0  0  0  0
    0.2386   -1.6929   -0.8159 H   0  0  0  0  0  0  0  0  0  0  0  0
    1.9464    2.8267   -0.1259 H   0  0  0  0  0  0  0  0  0  0  0  0
   -1.8623    1.9397   -2.0350 H   0  0  0  0  0  0  0  0  0  0  0  0
   -0.8094   -0.6633    1.2572 H   0  0  0  0  0  0  0  0  0  0  0  0
    5.8383   -0.1350    0.6708 H   0  0  0  0  0  0  0  0  0  0  0  0
   -4.2298    1.4584   -1.6438 H   0  0  0  0  0  0  0  0  0  0  0  0
   -3.1537   -1.1599    1.6203 H   0  0  0  0  0  0  0  0  0  0  0  0
    4.1154    3.7720    0.4455 H   0  0  0  0  0  0  0  0  0  0  0  0
    6.0720    2.3071    0.8493 H   0  0  0  0  0  0  0  0  0  0  0  0
   -6.1283    0.7014    2.3796 H   0  0  0  0  0  0  0  0  0  0  0  0
   -6.5573    1.7474    1.0809 H   0  0  0  0  0  0  0  0  0  0  0  0
  1  4  2  0  0  0  0
  1  5  2  0  0  0  0
  1  7  1  0  0  0  0
  1 14  1  0  0  0  0
  2 15  2  0  0  0  0
  3 19  2  0  0  0  0
  6  9  1  0  0  0  0
  6 11  1  0  0  0  0
  6 24  1  0  0  0  0
  7 34  1  0  0  0  0
  7 35  1  0  0  0  0
  8  9  1  0  0  0  0
  8 10  1  0  0  0  0
  8 13  2  0  0  0  0
  9 12  2  0  0  0  0
 10 15  1  0  0  0  0
 10 18  2  0  0  0  0
 11 16  2  0  0  0  0
 11 17  1  0  0  0  0
 12 19  1  0  0  0  0
 12 25  1  0  0  0  0
 13 22  1  0  0  0  0
 13 26  1  0  0  0  0
 14 20  2  0  0  0  0
 14 21  1  0  0  0  0
 15 19  1  0  0  0  0
 16 20  1  0  0  0  0
 16 27  1  0  0  0  0
 17 21  2  0  0  0  0
 17 28  1  0  0  0  0
 18 23  1  0  0  0  0
 18 29  1  0  0  0  0
 20 30  1  0  0  0  0
 21 31  1  0  0  0  0
 22 23  2  0  0  0  0
 22 32  1  0  0  0  0
 23 33  1  0  0  0  0
M  END
> <PUBCHEM_COMPOUND_CID>
367783

> <PUBCHEM_CONFORMER_RMSD>
0.6

> <PUBCHEM_CONFORMER_DIVERSEORDER>
2
20
14
15
17
3
18
8
10
19
13
11
5
16
4
1
6
9
7
12

> <PUBCHEM_MMFF94_PARTIAL_CHARGES>
35
1 1.45
10 0.09
11 0.1
12 -0.14
13 -0.15
14 -0.01
15 0.48
16 -0.15
17 -0.15
18 -0.15
19 0.56
2 -0.57
20 -0.15
21 -0.15
22 -0.15
23 -0.15
24 0.4
25 0.15
26 0.15
27 0.15
28 0.15
29 0.15
3 -0.57
30 0.15
31 0.15
32 0.15
33 0.15
34 0.42
35 0.42
4 -0.65
5 -0.65
6 -0.6
7 -0.98
8 0.03
9 0.07

> <PUBCHEM_EFFECTIVE_ROTOR_COUNT>
3

> <PUBCHEM_PHARMACOPHORE_FEATURES>
10
1 2 acceptor
1 3 acceptor
1 4 acceptor
1 5 acceptor
1 6 cation
1 6 donor
1 7 donor
6 11 14 16 17 20 21 rings
6 8 10 13 18 22 23 rings
6 8 9 10 12 15 19 rings

> <PUBCHEM_HEAVY_ATOM_COUNT>
23

> <PUBCHEM_ATOM_DEF_STEREO_COUNT>
0

> <PUBCHEM_ATOM_UDEF_STEREO_COUNT>
0

> <PUBCHEM_BOND_DEF_STEREO_COUNT>
0

> <PUBCHEM_BOND_UDEF_STEREO_COUNT>
0

> <PUBCHEM_ISOTOPIC_ATOM_COUNT>
0

> <PUBCHEM_COMPONENT_COUNT>
1

> <PUBCHEM_CACTVS_TAUTO_COUNT>
3

> <PUBCHEM_CONFORMER_ID>
00059CA700000002

> <PUBCHEM_MMFF94_ENERGY>
60.1953

> <PUBCHEM_FEATURE_SELFOVERLAP>
50.793

> <PUBCHEM_SHAPE_FINGERPRINT>
10 15 18188198927625612056
10165383 225 18338237193440813516
10366900 7 18188224108417156562
10411042 1 18052256199189212558
10595046 47 18273494581368240553
10670039 82 14835860464155463552
10835480 77 18336255778808253429
10912923 1 17775004588015276257
114674 6 18188215290765448010
12107183 9 17623864426586128465
12236239 1 17346599677123888741
12403259 415 18187080624650414941
12507560 40 18334572417151016861
12596602 18 17704077308836479363
12616971 3 17846489318597884894
12730499 353 18410295843607503912
13009979 54 17272576023795161250
13073987 5 18341341037482227865
13402501 40 18259703402003437986
13533116 47 18342739598106517384
13631057 29 17771895302202722255
13785724 45 17554059744521629494
13955234 65 18413102853991379450
14341114 176 18410859849637784640
14341114 328 17632581556629239511
146900 427 18202281433039157000
15475509 35 16951108592525724522
15961568 22 17095528439284981332
16126227 98 17979074113719772224
17349148 13 15068343406351193521
17844677 252 18340772533593234701
1813 80 16950567692312077005
19377110 9 17917708015829730809
200 152 18272927211598183077
20157964 124 18412542111424119271
20511986 3 17988349408916028387
20645477 70 18409443657602896262
21033650 10 15937254352716900220
21065198 48 18130510756049741233
21065201 7 17023459750892391261
21197605 99 18193280912512062283
21267235 1 18341051814353119718
21623969 137 18408886264951988723
21859007 373 17459453473938331373
22122407 14 17703242792543969929
22182313 1 17895465943424247597
22224240 67 18341604975801760440
23402539 116 17603577574002409677
23557571 272 17458339711097474565
23559900 14 17967543362651515806
23845131 108 18194393614485044618
239999 70 18113337505447046674
3178227 256 18410009936746712088
335352 9 18412825811927041020
33824 294 18409446986223805538
3421961 26 18338233757076183722
3545911 37 18408885161525468036
3633792 109 18338224991701839821
4073 2 18187089498411505787
42630746 31 18343018904699697972
4340502 62 18342176712941589194
5104073 3 18335698282814308841
542803 24 17275106145689099829
5758199 1 18200310048052512264
59755656 215 18407761439235382582
621550 34 18334570244076919740
8272917 22 18343304756179517956
9709674 26 18259706700570138651
9995097 60 18335699412722984173

> <PUBCHEM_SHAPE_MULTIPOLES>
443.74
14.17
2.56
0.99
15.24
1.09
0.01
-1.53
3.32
-4.17
-0.03
1.05
-0.17
0.91

> <PUBCHEM_SHAPE_SELFOVERLAP>
964.305

> <PUBCHEM_SHAPE_VOLUME>
241.3

> <PUBCHEM_COORDINATE_TYPE>
2
5
10

$$$$
