2903208
  -OEChem-01171811583D

 43 45  0     0  0  0  0  0  0999 V2000
    2.8908   -2.3431   -0.6782 O   0  0  0  0  0  0  0  0  0  0  0  0
    0.8447    2.2866    1.0300 O   0  0  0  0  0  0  0  0  0  0  0  0
   -2.0507   -3.8887   -0.5519 O   0  0  0  0  0  0  0  0  0  0  0  0
   -5.5340    1.2559    0.2861 O   0  0  0  0  0  0  0  0  0  0  0  0
    0.2599   -2.3015   -0.0969 N   0  0  0  0  0  0  0  0  0  0  0  0
   -0.8671    0.1951    0.8288 N   0  0  0  0  0  0  0  0  0  0  0  0
    0.9804   -1.1455    0.0606 C   0  0  0  0  0  0  0  0  0  0  0  0
    0.4457    0.0092    0.4923 C   0  0  0  0  0  0  0  0  0  0  0  0
    3.2756   -0.0910   -0.1482 C   0  0  0  0  0  0  0  0  0  0  0  0
    2.7393    1.1148    0.2972 C   0  0  0  0  0  0  0  0  0  0  0  0
    2.4196   -1.2803   -0.2877 C   0  0  0  0  0  0  0  0  0  0  0  0
    1.3086    1.2209    0.6366 C   0  0  0  0  0  0  0  0  0  0  0  0
   -0.4635   -2.9283    0.9737 C   0  0  0  0  0  0  0  0  0  0  0  0
    4.6367   -0.1767   -0.4670 C   0  0  0  0  0  0  0  0  0  0  0  0
    3.5647    2.2393    0.4254 C   0  0  0  0  0  0  0  0  0  0  0  0
   -1.9045    0.5839    0.0443 C   0  0  0  0  0  0  0  0  0  0  0  0
    5.4556    0.9452   -0.3382 C   0  0  0  0  0  0  0  0  0  0  0  0
    4.9204    2.1515    0.1075 C   0  0  0  0  0  0  0  0  0  0  0  0
   -1.1229   -4.2042    0.4785 C   0  0  0  0  0  0  0  0  0  0  0  0
   -3.2219    0.7292    0.5600 C   0  0  0  0  0  0  0  0  0  0  0  0
   -1.7339    0.8683   -1.3384 C   0  0  0  0  0  0  0  0  0  0  0  0
   -4.2878    1.1287   -0.2463 C   0  0  0  0  0  0  0  0  0  0  0  0
   -2.7997    1.2678   -2.1447 C   0  0  0  0  0  0  0  0  0  0  0  0
   -4.0765    1.3981   -1.5986 C   0  0  0  0  0  0  0  0  0  0  0  0
   -5.6794    0.9648    1.6753 C   0  0  0  0  0  0  0  0  0  0  0  0
    0.6682   -2.9473   -0.7693 H   0  0  0  0  0  0  0  0  0  0  0  0
   -1.0234    0.2677    1.8296 H   0  0  0  0  0  0  0  0  0  0  0  0
   -1.2463   -2.2671    1.3571 H   0  0  0  0  0  0  0  0  0  0  0  0
    0.2157   -3.1663    1.8003 H   0  0  0  0  0  0  0  0  0  0  0  0
    5.0777   -1.1063   -0.8166 H   0  0  0  0  0  0  0  0  0  0  0  0
    3.1720    3.1920    0.7706 H   0  0  0  0  0  0  0  0  0  0  0  0
    6.5110    0.8780   -0.5855 H   0  0  0  0  0  0  0  0  0  0  0  0
    5.5587    3.0246    0.2074 H   0  0  0  0  0  0  0  0  0  0  0  0
   -1.6634   -4.6938    1.2946 H   0  0  0  0  0  0  0  0  0  0  0  0
   -0.3820   -4.9032    0.0761 H   0  0  0  0  0  0  0  0  0  0  0  0
   -3.3381    0.5073    1.6175 H   0  0  0  0  0  0  0  0  0  0  0  0
   -0.7540    0.7799   -1.8034 H   0  0  0  0  0  0  0  0  0  0  0  0
   -2.6357    1.4777   -3.1976 H   0  0  0  0  0  0  0  0  0  0  0  0
   -4.9028    1.7097   -2.2317 H   0  0  0  0  0  0  0  0  0  0  0  0
   -2.4548   -4.7257   -0.8377 H   0  0  0  0  0  0  0  0  0  0  0  0
   -5.4486   -0.0835    1.8937 H   0  0  0  0  0  0  0  0  0  0  0  0
   -6.7336    1.1180    1.9283 H   0  0  0  0  0  0  0  0  0  0  0  0
   -5.0993    1.6570    2.2950 H   0  0  0  0  0  0  0  0  0  0  0  0
  1 11  2  0  0  0  0
  2 12  2  0  0  0  0
  3 19  1  0  0  0  0
  3 40  1  0  0  0  0
  4 22  1  0  0  0  0
  4 25  1  0  0  0  0
  5  7  1  0  0  0  0
  5 13  1  0  0  0  0
  5 26  1  0  0  0  0
  6  8  1  0  0  0  0
  6 16  1  0  0  0  0
  6 27  1  0  0  0  0
  7  8  2  0  0  0  0
  7 11  1  0  0  0  0
  8 12  1  0  0  0  0
  9 10  1  0  0  0  0
  9 11  1  0  0  0  0
  9 14  2  0  0  0  0
 10 12  1  0  0  0  0
 10 15  2  0  0  0  0
 13 19  1  0  0  0  0
 13 28  1  0  0  0  0
 13 29  1  0  0  0  0
 14 17  1  0  0  0  0
 14 30  1  0  0  0  0
 15 18  1  0  0  0  0
 15 31  1  0  0  0  0
 16 20  2  0  0  0  0
 16 21  1  0  0  0  0
 17 18  2  0  0  0  0
 17 32  1  0  0  0  0
 18 33  1  0  0  0  0
 19 34  1  0  0  0  0
 19 35  1  0  0  0  0
 20 22  1  0  0  0  0
 20 36  1  0  0  0  0
 21 23  2  0  0  0  0
 21 37  1  0  0  0  0
 22 24  2  0  0  0  0
 23 24  1  0  0  0  0
 23 38  1  0  0  0  0
 24 39  1  0  0  0  0
 25 41  1  0  0  0  0
 25 42  1  0  0  0  0
 25 43  1  0  0  0  0
M  END
> <PUBCHEM_COMPOUND_CID>
2903208

> <PUBCHEM_CONFORMER_RMSD>
0.8

> <PUBCHEM_CONFORMER_DIVERSEORDER>
3
21
76
60
74
57
2
9
20
25
90
48
44
79
83
18
77
8
95
87
15
50
16
80
49
34
26
55
52
41
11
40
59
23
27
71
69
62
29
24
70
89
75
64
67
33
30
13
51
78
82
12
88
35
46
45
92
47
14
39
58
1
81
94
7
72
10
63
28
43
73
93
42
65
32
6
86
19
22
53
36
61
5
31
66
54
17
56
37
85
4
68
84
91
38

> <PUBCHEM_MMFF94_PARTIAL_CHARGES>
36
1 -0.57
10 0.09
11 0.47
12 0.47
13 0.37
14 -0.15
15 -0.15
16 0.1
17 -0.15
18 -0.15
19 0.28
2 -0.57
20 -0.15
21 -0.15
22 0.08
23 -0.15
24 -0.15
25 0.28
26 0.4
27 0.4
3 -0.68
30 0.15
31 0.15
32 0.15
33 0.15
36 0.15
37 0.15
38 0.15
39 0.15
4 -0.36
40 0.4
5 -0.87
6 -0.6
7 0.11
8 0.11
9 0.09

> <PUBCHEM_EFFECTIVE_ROTOR_COUNT>
6

> <PUBCHEM_PHARMACOPHORE_FEATURES>
12
1 1 acceptor
1 2 acceptor
1 3 acceptor
1 3 donor
1 4 acceptor
1 5 cation
1 5 donor
1 6 cation
1 6 donor
6 16 20 21 22 23 24 rings
6 7 8 9 10 11 12 rings
6 9 10 14 15 17 18 rings

> <PUBCHEM_HEAVY_ATOM_COUNT>
25

> <PUBCHEM_ATOM_DEF_STEREO_COUNT>
0

> <PUBCHEM_ATOM_UDEF_STEREO_COUNT>
0

> <PUBCHEM_BOND_DEF_STEREO_COUNT>
0

> <PUBCHEM_BOND_UDEF_STEREO_COUNT>
0

> <PUBCHEM_ISOTOPIC_ATOM_COUNT>
0

> <PUBCHEM_COMPONENT_COUNT>
1

> <PUBCHEM_CACTVS_TAUTO_COUNT>
17

> <PUBCHEM_CONFORMER_ID>
002C4CA800000003

> <PUBCHEM_MMFF94_ENERGY>
100.9371

> <PUBCHEM_FEATURE_SELFOVERLAP>
60.924

> <PUBCHEM_SHAPE_FINGERPRINT>
10165383 225 18335145284189257661
10411042 1 17691975856350040982
10688039 33 17757272956672367818
1100329 8 18336820880498390850
11796584 16 14046021892828803116
12156800 1 18048910625138121199
12166972 35 11314611834769377341
12236239 1 17346881122109895817
12403259 415 18113902606741415413
12730499 353 18335426737675015296
12788726 201 17829314032434633986
12969540 114 18334284362294938804
13540713 4 18128264591828948336
13583140 156 16299208224835668556
14790565 3 18269282270175222017
17357779 13 17835790168680600590
21033648 144 18339632464805917900
21033648 29 18335124393521701012
21236236 1 18267866262254084830
21641784 216 17682971250901236318
22224240 67 18408046217442916153
23227448 37 18263081175123610044
23558518 356 17828201326651038800
238 59 17901636329860262631
25 1 18341324539874793388
335352 9 18412550895196592734
350125 39 17907019826426152608
3729539 64 18120665634667368478
4340502 62 18410581677443159529
469060 322 17023176189205614535
5104073 3 18265602373025269064
59755656 520 18410294717888306902
621550 34 18042970878962592221
633830 44 18200314308179599677
6442390 28 18333733524508156891
6669772 16 18337954493918570478
7399639 24 18041559131728641117
81228 2 17755853465886058459

> <PUBCHEM_SHAPE_MULTIPOLES>
481.05
10.89
3.74
1.3
1.81
5.61
-0.32
-8.02
0.3
0.68
0.19
1.69
-0.51
0.83

> <PUBCHEM_SHAPE_SELFOVERLAP>
1045.644

> <PUBCHEM_SHAPE_VOLUME>
260.7

> <PUBCHEM_COORDINATE_TYPE>
2
5
10

$$$$
