2111014
  -OEChem-01171811523D

 46 48  0     0  0  0  0  0  0999 V2000
    4.6083    0.9874   -0.5978 S   0  0  0  0  0  0  0  0  0  0  0  0
    1.3715    0.9047    1.4297 O   0  0  0  0  0  0  0  0  0  0  0  0
    4.2760    3.5503   -1.0772 O   0  0  0  0  0  0  0  0  0  0  0  0
   -1.7271    3.4296    0.6819 O   0  0  0  0  0  0  0  0  0  0  0  0
   -8.1753   -2.3007    0.0519 O   0  5  0  0  0  0  0  0  0  0  0  0
   -8.0327   -0.2165    0.7266 O   0  0  0  0  0  0  0  0  0  0  0  0
    2.6685    2.4512    0.2329 N   0  0  0  0  0  0  0  0  0  0  0  0
   -0.0793    2.6863   -0.7811 N   0  0  0  0  0  0  0  0  0  0  0  0
    6.4445   -3.1752    0.8670 N   0  0  0  0  0  0  0  0  0  0  0  0
   -7.5087   -1.2594    0.2660 N   0  3  0  0  0  0  0  0  0  0  0  0
    1.8250    3.6125    0.4556 C   0  0  0  0  0  0  0  0  0  0  0  0
    0.8123    3.8079   -0.6603 C   0  0  0  0  0  0  0  0  0  0  0  0
    2.3463    1.2023    0.7531 C   0  0  0  0  0  0  0  0  0  0  0  0
    3.3947    0.2318    0.3552 C   0  0  0  0  0  0  0  0  0  0  0  0
    3.8223    2.5594   -0.5237 C   0  0  0  0  0  0  0  0  0  0  0  0
    3.3744   -1.0555    0.7044 C   0  0  0  0  0  0  0  0  0  0  0  0
   -1.2831    2.5905   -0.0948 C   0  0  0  0  0  0  0  0  0  0  0  0
    4.3851   -2.0659    0.3404 C   0  0  0  0  0  0  0  0  0  0  0  0
   -2.0063    1.3246   -0.4066 C   0  0  0  0  0  0  0  0  0  0  0  0
   -4.0008   -0.1341   -0.0792 C   0  0  0  0  0  0  0  0  0  0  0  0
   -3.1951    1.0760    0.1621 C   0  0  0  0  0  0  0  0  0  0  0  0
    4.2353   -2.8149   -0.8073 C   0  0  0  0  0  0  0  0  0  0  0  0
   -5.3561   -0.1158    0.2074 C   0  0  0  0  0  0  0  0  0  0  0  0
    5.4822   -2.2666    1.1425 C   0  0  0  0  0  0  0  0  0  0  0  0
   -3.3864   -1.2665   -0.5885 C   0  0  0  0  0  0  0  0  0  0  0  0
   -6.1180   -1.2614   -0.0217 C   0  0  0  0  0  0  0  0  0  0  0  0
   -4.1484   -2.4122   -0.8175 C   0  0  0  0  0  0  0  0  0  0  0  0
   -5.5142   -2.4096   -0.5340 C   0  0  0  0  0  0  0  0  0  0  0  0
    5.2048   -3.7599   -1.1245 C   0  0  0  0  0  0  0  0  0  0  0  0
    6.2804   -3.9000   -0.2623 C   0  0  0  0  0  0  0  0  0  0  0  0
    1.3080    3.4919    1.4147 H   0  0  0  0  0  0  0  0  0  0  0  0
    2.4612    4.5021    0.5246 H   0  0  0  0  0  0  0  0  0  0  0  0
    0.2255    4.7136   -0.4734 H   0  0  0  0  0  0  0  0  0  0  0  0
    1.3156    3.9233   -1.6262 H   0  0  0  0  0  0  0  0  0  0  0  0
    0.2070    1.9321   -1.3987 H   0  0  0  0  0  0  0  0  0  0  0  0
    2.5599   -1.4457    1.3109 H   0  0  0  0  0  0  0  0  0  0  0  0
   -1.5383    0.6525   -1.1163 H   0  0  0  0  0  0  0  0  0  0  0  0
   -3.6341    1.7967    0.8482 H   0  0  0  0  0  0  0  0  0  0  0  0
    3.3804   -2.6833   -1.4646 H   0  0  0  0  0  0  0  0  0  0  0  0
   -5.8081    0.7902    0.6048 H   0  0  0  0  0  0  0  0  0  0  0  0
    5.6416   -1.7013    2.0553 H   0  0  0  0  0  0  0  0  0  0  0  0
   -2.3238   -1.3220   -0.8026 H   0  0  0  0  0  0  0  0  0  0  0  0
   -3.6774   -3.3081   -1.2116 H   0  0  0  0  0  0  0  0  0  0  0  0
   -6.0758   -3.3207   -0.7240 H   0  0  0  0  0  0  0  0  0  0  0  0
    5.1212   -4.3674   -2.0183 H   0  0  0  0  0  0  0  0  0  0  0  0
    7.0637   -4.6231   -0.4647 H   0  0  0  0  0  0  0  0  0  0  0  0
  1 14  1  0  0  0  0
  1 15  1  0  0  0  0
  2 13  2  0  0  0  0
  3 15  2  0  0  0  0
  4 17  2  0  0  0  0
  5 10  1  0  0  0  0
  6 10  2  0  0  0  0
  7 11  1  0  0  0  0
  7 13  1  0  0  0  0
  7 15  1  0  0  0  0
  8 12  1  0  0  0  0
  8 17  1  0  0  0  0
  8 35  1  0  0  0  0
  9 24  1  0  0  0  0
  9 30  2  0  0  0  0
 10 26  1  0  0  0  0
 11 12  1  0  0  0  0
 11 31  1  0  0  0  0
 11 32  1  0  0  0  0
 12 33  1  0  0  0  0
 12 34  1  0  0  0  0
 13 14  1  0  0  0  0
 14 16  2  0  0  0  0
 16 18  1  0  0  0  0
 16 36  1  0  0  0  0
 17 19  1  0  0  0  0
 18 22  1  0  0  0  0
 18 24  2  0  0  0  0
 19 21  2  0  0  0  0
 19 37  1  0  0  0  0
 20 21  1  0  0  0  0
 20 23  2  0  0  0  0
 20 25  1  0  0  0  0
 21 38  1  0  0  0  0
 22 29  2  0  0  0  0
 22 39  1  0  0  0  0
 23 26  1  0  0  0  0
 23 40  1  0  0  0  0
 24 41  1  0  0  0  0
 25 27  2  0  0  0  0
 25 42  1  0  0  0  0
 26 28  2  0  0  0  0
 27 28  1  0  0  0  0
 27 43  1  0  0  0  0
 28 44  1  0  0  0  0
 29 30  1  0  0  0  0
 29 45  1  0  0  0  0
 30 46  1  0  0  0  0
M  CHG  2   5  -1  10   1
M  END
> <PUBCHEM_COMPOUND_CID>
2111014

> <PUBCHEM_CONFORMER_RMSD>
1

> <PUBCHEM_CONFORMER_DIVERSEORDER>
4
31
106
40
27
158
144
18
5
107
22
70
62
109
33
122
51
170
146
101
164
28
46
105
124
130
60
25
63
37
30
38
169
17
112
171
152
84
167
95
82
41
113
123
114
7
134
160
163
137
73
15
11
53
14
78
133
81
45
118
143
69
141
128
56
55
65
150
24
52
74
86
23
97
151
110
77
89
166
93
66
142
34
72
8
161
39
117
83
48
104
127
71
125
96
91
64
173
88
100
13
3
108
75
119
19
50
57
129
1
67
61
6
26
87
20
32
99
120
43
36
154
58
98
135
16
44
126
68
94
121
136
147
153
157
162
132
168
111
172
165
139
79
10
103
102
92
42
35
49
116
76
29
138
155
156
148
9
90
159
149
85
140
115
54
47
131
80
21
145
12
2
59

> <PUBCHEM_MMFF94_PARTIAL_CHARGES>
42
1 -0.24
10 0.91
11 0.3
12 0.3
13 0.62
14 0.12
15 0.77
16 -0.18
17 0.62
18 0.03
19 -0.14
2 -0.57
20 0.03
21 -0.18
22 -0.15
23 -0.15
24 0.16
25 -0.15
26 0.13
27 -0.15
28 -0.15
29 -0.15
3 -0.57
30 0.16
35 0.37
36 0.15
37 0.15
38 0.15
39 0.15
4 -0.57
40 0.15
41 0.15
42 0.15
43 0.15
44 0.15
45 0.15
46 0.15
5 -0.52
6 -0.52
7 -0.42
8 -0.73
9 -0.62

> <PUBCHEM_EFFECTIVE_ROTOR_COUNT>
8.4

> <PUBCHEM_PHARMACOPHORE_FEATURES>
10
1 2 acceptor
1 4 acceptor
1 5 acceptor
1 5 anion
1 6 acceptor
1 8 donor
1 9 acceptor
5 1 7 13 14 15 rings
6 20 23 25 26 27 28 rings
6 9 18 22 24 29 30 rings

> <PUBCHEM_HEAVY_ATOM_COUNT>
30

> <PUBCHEM_ATOM_DEF_STEREO_COUNT>
0

> <PUBCHEM_ATOM_UDEF_STEREO_COUNT>
0

> <PUBCHEM_BOND_DEF_STEREO_COUNT>
2

> <PUBCHEM_BOND_UDEF_STEREO_COUNT>
0

> <PUBCHEM_ISOTOPIC_ATOM_COUNT>
0

> <PUBCHEM_COMPONENT_COUNT>
1

> <PUBCHEM_CACTVS_TAUTO_COUNT>
2

> <PUBCHEM_CONFORMER_ID>
0020362600000004

> <PUBCHEM_MMFF94_ENERGY>
68.497

> <PUBCHEM_FEATURE_SELFOVERLAP>
50.83

> <PUBCHEM_SHAPE_FINGERPRINT>
10050765 1 18409448042522854300
10319688 140 18337392738028880260
11014199 57 18267021653263020200
11059845 2 17629497293665398137
11135609 12 18338785746225417616
11135926 11 18194388112394665780
11607047 403 18268133418901997576
117089 54 18339931411124090998
11756154 67 18266743480514325589
11828532 37 18114754827528599339
12107183 9 18270126687000696873
12655387 17 18267881488831164365
13533116 47 18338797918162870873
13690498 29 17969787375874356740
13785724 45 18411423895224585149
13989917 61 18337674247202325195
14040222 275 18265353766542230622
14117953 113 18196927778285860445
14347332 77 18337671919017989192
14429380 30 18335420119721613194
14904385 45 18259987063578056043
15400415 2 17546161265732197869
15467298 65 17766551727247695503
15803439 3 16957076960400438044
16120349 21 18269278967951708081
17492 89 18411135810045500228
17909252 39 18412824716135907048
19303781 99 18264752312571062654
20165401 70 18341047536555845119
20775530 9 18267851822679245010
23379529 103 18268711602565801180
255183 451 18410016503240024212
3680242 22 18340496655333054319
4073 2 17903921402870160961
439807 62 18335422348429604119
4435113 14 17823989037702957699
44426701 97 18338222822664806344
513202 73 18335707101125926705
56633871 153 18272643541830140775
70251023 43 18334856087188260416
7970288 3 18411697703225502543
9555976 147 17418104243543322195

> <PUBCHEM_SHAPE_MULTIPOLES>
571.96
20.48
5.97
1.01
28.61
1.5
-0.03
-25.07
-1.28
-8.51
1.15
-0.86
-0.1
-0.9

> <PUBCHEM_SHAPE_SELFOVERLAP>
1217.97

> <PUBCHEM_SHAPE_VOLUME>
319.3

> <PUBCHEM_COORDINATE_TYPE>
2
5
10

$$$$
