2995393
  -OEChem-01171812063D

 43 46  0     0  0  0  0  0  0999 V2000
   -0.3590   -1.4125   -0.0378 O   0  0  0  0  0  0  0  0  0  0  0  0
   -3.4022   -0.7886    0.3542 O   0  0  0  0  0  0  0  0  0  0  0  0
    0.9946   -2.8586    1.1351 O   0  0  0  0  0  0  0  0  0  0  0  0
    5.4966   -0.5090    0.7202 N   0  0  0  0  0  0  0  0  0  0  0  0
    4.9543    1.7692   -0.7749 N   0  0  0  0  0  0  0  0  0  0  0  0
   -3.1672   -1.8270   -1.6134 N   0  0  0  0  0  0  0  0  0  0  0  0
   -4.2947   -1.0301   -1.6829 N   0  0  0  0  0  0  0  0  0  0  0  0
    4.2492   -0.2529    0.2885 C   0  0  0  0  0  0  0  0  0  0  0  0
    3.9746    0.9007   -0.4685 C   0  0  0  0  0  0  0  0  0  0  0  0
    1.9083   -0.8881    0.1514 C   0  0  0  0  0  0  0  0  0  0  0  0
    3.2097   -1.1308    0.5870 C   0  0  0  0  0  0  0  0  0  0  0  0
    6.4625    0.3720    0.4032 C   0  0  0  0  0  0  0  0  0  0  0  0
    6.1951    1.4949   -0.3337 C   0  0  0  0  0  0  0  0  0  0  0  0
    2.6705    1.1338   -0.8990 C   0  0  0  0  0  0  0  0  0  0  0  0
    1.6375    0.2491   -0.5947 C   0  0  0  0  0  0  0  0  0  0  0  0
    0.8417   -1.8215    0.4757 C   0  0  0  0  0  0  0  0  0  0  0  0
    7.8353    0.0663    0.8943 C   0  0  0  0  0  0  0  0  0  0  0  0
    7.2629    2.4722   -0.6864 C   0  0  0  0  0  0  0  0  0  0  0  0
   -1.4911   -2.2510    0.2164 C   0  0  0  0  0  0  0  0  0  0  0  0
   -5.3640    0.4887   -0.0181 C   0  0  0  0  0  0  0  0  0  0  0  0
   -2.7050   -1.6413   -0.4211 C   0  0  0  0  0  0  0  0  0  0  0  0
   -4.3929   -0.4433   -0.5130 C   0  0  0  0  0  0  0  0  0  0  0  0
   -5.2619    0.9888    1.2846 C   0  0  0  0  0  0  0  0  0  0  0  0
   -6.4223    0.9059   -0.8329 C   0  0  0  0  0  0  0  0  0  0  0  0
   -6.2065    1.8947    1.7669 C   0  0  0  0  0  0  0  0  0  0  0  0
   -7.3669    1.8119   -0.3505 C   0  0  0  0  0  0  0  0  0  0  0  0
   -7.2589    2.3063    0.9494 C   0  0  0  0  0  0  0  0  0  0  0  0
    3.4303   -2.0217    1.1732 H   0  0  0  0  0  0  0  0  0  0  0  0
    2.4447    2.0224   -1.4853 H   0  0  0  0  0  0  0  0  0  0  0  0
    0.6439    0.4900   -0.9610 H   0  0  0  0  0  0  0  0  0  0  0  0
    8.1947    0.8576    1.5595 H   0  0  0  0  0  0  0  0  0  0  0  0
    7.8458   -0.8708    1.4616 H   0  0  0  0  0  0  0  0  0  0  0  0
    8.5305   -0.0484    0.0568 H   0  0  0  0  0  0  0  0  0  0  0  0
    7.7097    2.9014    0.2159 H   0  0  0  0  0  0  0  0  0  0  0  0
    8.0434    1.9945   -1.2869 H   0  0  0  0  0  0  0  0  0  0  0  0
    6.8535    3.2994   -1.2765 H   0  0  0  0  0  0  0  0  0  0  0  0
   -1.6434   -2.3483    1.2972 H   0  0  0  0  0  0  0  0  0  0  0  0
   -1.3151   -3.2426   -0.2153 H   0  0  0  0  0  0  0  0  0  0  0  0
   -4.4564    0.6923    1.9521 H   0  0  0  0  0  0  0  0  0  0  0  0
   -6.5272    0.5341   -1.8496 H   0  0  0  0  0  0  0  0  0  0  0  0
   -6.1230    2.2799    2.7789 H   0  0  0  0  0  0  0  0  0  0  0  0
   -8.1866    2.1327   -0.9868 H   0  0  0  0  0  0  0  0  0  0  0  0
   -7.9944    3.0117    1.3249 H   0  0  0  0  0  0  0  0  0  0  0  0
  1 16  1  0  0  0  0
  1 19  1  0  0  0  0
  2 21  1  0  0  0  0
  2 22  1  0  0  0  0
  3 16  2  0  0  0  0
  4  8  2  0  0  0  0
  4 12  1  0  0  0  0
  5  9  2  0  0  0  0
  5 13  1  0  0  0  0
  6  7  1  0  0  0  0
  6 21  2  0  0  0  0
  7 22  2  0  0  0  0
  8  9  1  0  0  0  0
  8 11  1  0  0  0  0
  9 14  1  0  0  0  0
 10 11  2  0  0  0  0
 10 15  1  0  0  0  0
 10 16  1  0  0  0  0
 11 28  1  0  0  0  0
 12 13  2  0  0  0  0
 12 17  1  0  0  0  0
 13 18  1  0  0  0  0
 14 15  2  0  0  0  0
 14 29  1  0  0  0  0
 15 30  1  0  0  0  0
 17 31  1  0  0  0  0
 17 32  1  0  0  0  0
 17 33  1  0  0  0  0
 18 34  1  0  0  0  0
 18 35  1  0  0  0  0
 18 36  1  0  0  0  0
 19 21  1  0  0  0  0
 19 37  1  0  0  0  0
 19 38  1  0  0  0  0
 20 22  1  0  0  0  0
 20 23  2  0  0  0  0
 20 24  1  0  0  0  0
 23 25  1  0  0  0  0
 23 39  1  0  0  0  0
 24 26  2  0  0  0  0
 24 40  1  0  0  0  0
 25 27  2  0  0  0  0
 25 41  1  0  0  0  0
 26 27  1  0  0  0  0
 26 42  1  0  0  0  0
 27 43  1  0  0  0  0
M  END
> <PUBCHEM_COMPOUND_CID>
2995393

> <PUBCHEM_CONFORMER_RMSD>
0.8

> <PUBCHEM_CONFORMER_DIVERSEORDER>
1
148
76
20
110
135
4
23
92
149
115
27
84
5
132
133
12
19
123
67
9
119
93
25
70
112
137
88
86
131
100
122
34
3
134
52
85
102
13
124
108
83
72
146
18
36
145
65
69
111
109
94
138
91
127
38
104
22
17
51
139
63
136
29
74
118
82
126
16
106
103
144
21
58
114
77
60
2
101
14
81
35
7
90
89
6
95
24
75
49
125
31
41
142
66
62
47
26
120
130
61
40
105
42
37
8
113
129
64
98
39
117
80
43
116
97
96
50
128
147
32
33
141
87
71
59
15
53
28
140
79
107
44
56
45
10
55
30
54
121
73
78
48
11
143
46
57
99
68

> <PUBCHEM_MMFF94_PARTIAL_CHARGES>
35
1 -0.43
10 0.09
11 -0.15
12 0.17
13 0.17
14 -0.15
15 -0.15
16 0.63
17 0.14
18 0.14
19 0.46
2 -0.28
20 0.05
21 0.3
22 0.43
23 -0.15
24 -0.15
25 -0.15
26 -0.15
27 -0.15
28 0.15
29 0.15
3 -0.57
30 0.15
39 0.15
4 -0.62
40 0.15
41 0.15
42 0.15
43 0.15
5 -0.62
6 -0.34
7 -0.34
8 0.31
9 0.31

> <PUBCHEM_EFFECTIVE_ROTOR_COUNT>
5

> <PUBCHEM_PHARMACOPHORE_FEATURES>
7
1 3 acceptor
1 4 acceptor
1 5 acceptor
5 2 6 7 21 22 rings
6 20 23 24 25 26 27 rings
6 4 5 8 9 12 13 rings
6 8 9 10 11 14 15 rings

> <PUBCHEM_HEAVY_ATOM_COUNT>
27

> <PUBCHEM_ATOM_DEF_STEREO_COUNT>
0

> <PUBCHEM_ATOM_UDEF_STEREO_COUNT>
0

> <PUBCHEM_BOND_DEF_STEREO_COUNT>
0

> <PUBCHEM_BOND_UDEF_STEREO_COUNT>
0

> <PUBCHEM_ISOTOPIC_ATOM_COUNT>
0

> <PUBCHEM_COMPONENT_COUNT>
1

> <PUBCHEM_CACTVS_TAUTO_COUNT>
1

> <PUBCHEM_CONFORMER_ID>
002DB4C100000001

> <PUBCHEM_MMFF94_ENERGY>
69.4174

> <PUBCHEM_FEATURE_SELFOVERLAP>
35.565

> <PUBCHEM_SHAPE_FINGERPRINT>
10 15 17385726893715087565
10391435 84 11815597693309603724
10429389 143 16917061196932626304
10906281 52 18261402199831093726
11211813 128 8790891775050190556
11475781 23 18060429023346378420
11963148 33 9439140723288608392
12895837 130 18271528697195231845
13668630 136 11959722768785367821
13782708 43 11169903996682454812
13947920 75 17489588944229463993
14150022 121 18264502831528219219
14394314 77 18410578366789324289
14671636 106 11242261753194854464
15183329 4 18410569604390447348
15439362 3 18272374118321276982
1577012 14 18410008849154855686
20526848 3 18411702071587044113
20621476 66 18410576188469680486
20691028 202 18335702805383443340
21298829 104 18411699880768906541
21315759 148 14056988409034837338
21424621 283 18411982489896493650
21756936 100 18413107282245514763
21774942 28 17775291512868194736
23559900 14 11671195545853344815
25025965 108 11095346048964053228
270888 7 18411702067540009599
2838139 119 18272649099095412511
3178227 256 16950281798257045504
3633792 109 18059862745178729310
397830 11 13479420521373242190
406291 66 8214133041704634833
437795 51 15936684870862027170
44555599 121 18411138073667559500
445580 204 18202565060142610041
44880568 143 15051738577110643401
5104073 3 17677606639649560882
5385378 56 18186799137068806026
54039377 194 9151163269497557809
5470011 282 12463562989301855953
57724786 102 17604154843039485052
5911458 16 18412830170464849689
5969126 39 12247689257139790282
6328613 192 18411982502855456080

> <PUBCHEM_SHAPE_MULTIPOLES>
518.12
24.3
2.65
1.25
1.16
0.28
0.03
-19.81
2.61
1.03
0.17
1.34
-0.09
-3.01

> <PUBCHEM_SHAPE_SELFOVERLAP>
1149.455

> <PUBCHEM_SHAPE_VOLUME>
277.9

> <PUBCHEM_COORDINATE_TYPE>
2
5
10

$$$$
