2395730
  -OEChem-01171811453D

 49 51  0     1  0  0  0  0  0999 V2000
   -0.8110   -2.1190   -1.5071 O   0  0  0  0  0  0  0  0  0  0  0  0
   -3.2064   -2.1981    0.8192 O   0  0  0  0  0  0  0  0  0  0  0  0
   -5.2506    1.9196    0.2847 O   0  0  0  0  0  0  0  0  0  0  0  0
    1.4651   -1.7210    0.0229 N   0  0  3  0  0  0  0  0  0  0  0  0
   -3.1148    1.5911   -0.5658 N   0  0  0  0  0  0  0  0  0  0  0  0
   -4.2664   -0.1485    0.5712 N   0  0  0  0  0  0  0  0  0  0  0  0
   -0.8934    1.2695   -1.4510 N   0  0  0  0  0  0  0  0  0  0  0  0
    0.1760   -1.4067    0.5861 C   0  0  0  0  0  0  0  0  0  0  0  0
    2.3181   -0.7176   -0.4612 C   0  0  0  0  0  0  0  0  0  0  0  0
    1.8755   -3.1253   -0.0519 C   0  0  0  0  0  0  0  0  0  0  0  0
    2.7995    0.3197    0.3664 C   0  0  0  0  0  0  0  0  0  0  0  0
   -2.0182   -0.5051   -0.3131 C   0  0  0  0  0  0  0  0  0  0  0  0
   -0.8664   -1.4167   -0.5041 C   0  0  0  0  0  0  0  0  0  0  0  0
    3.6579    1.3070   -0.1733 C   0  0  0  0  0  0  0  0  0  0  0  0
   -1.9917    0.7675   -0.7780 C   0  0  0  0  0  0  0  0  0  0  0  0
    2.6938   -0.7612   -1.8107 C   0  0  0  0  0  0  0  0  0  0  0  0
   -3.2097   -1.0372    0.4097 C   0  0  0  0  0  0  0  0  0  0  0  0
    2.6439   -3.5121    1.1971 C   0  0  0  0  0  0  0  0  0  0  0  0
    2.4399    0.3890    1.7222 C   0  0  0  0  0  0  0  0  0  0  0  0
    4.0179    1.2376   -1.5290 C   0  0  0  0  0  0  0  0  0  0  0  0
   -4.2779    1.1778    0.1065 C   0  0  0  0  0  0  0  0  0  0  0  0
    3.5382    0.2096   -2.3413 C   0  0  0  0  0  0  0  0  0  0  0  0
    4.1314    2.3346    0.6588 C   0  0  0  0  0  0  0  0  0  0  0  0
   -3.0813    2.9687   -1.0715 C   0  0  0  0  0  0  0  0  0  0  0  0
    2.9194    1.4172    2.5342 C   0  0  0  0  0  0  0  0  0  0  0  0
   -5.4523   -0.6287    1.2756 C   0  0  0  0  0  0  0  0  0  0  0  0
    3.7635    2.3882    2.0034 C   0  0  0  0  0  0  0  0  0  0  0  0
   -0.1177   -2.1485    1.3381 H   0  0  0  0  0  0  0  0  0  0  0  0
    0.1332   -0.4253    1.0646 H   0  0  0  0  0  0  0  0  0  0  0  0
    0.9930   -3.7701   -0.1413 H   0  0  0  0  0  0  0  0  0  0  0  0
    2.4895   -3.3248   -0.9372 H   0  0  0  0  0  0  0  0  0  0  0  0
    2.3209   -1.5430   -2.4682 H   0  0  0  0  0  0  0  0  0  0  0  0
    2.9281   -4.5682    1.1566 H   0  0  0  0  0  0  0  0  0  0  0  0
    3.5586   -2.9188    1.2994 H   0  0  0  0  0  0  0  0  0  0  0  0
    2.0420   -3.3565    2.0986 H   0  0  0  0  0  0  0  0  0  0  0  0
    1.8505   -0.3742    2.2196 H   0  0  0  0  0  0  0  0  0  0  0  0
    4.6759    1.9863   -1.9653 H   0  0  0  0  0  0  0  0  0  0  0  0
    3.8212    0.1699   -3.3891 H   0  0  0  0  0  0  0  0  0  0  0  0
    4.7931    3.1035    0.2656 H   0  0  0  0  0  0  0  0  0  0  0  0
   -2.2550    3.5078   -0.5970 H   0  0  0  0  0  0  0  0  0  0  0  0
   -4.0051    3.5102   -0.8504 H   0  0  0  0  0  0  0  0  0  0  0  0
   -2.9550    2.9517   -2.1587 H   0  0  0  0  0  0  0  0  0  0  0  0
    2.6481    1.4503    3.5854 H   0  0  0  0  0  0  0  0  0  0  0  0
   -5.3620   -1.6686    1.5979 H   0  0  0  0  0  0  0  0  0  0  0  0
   -6.3172   -0.5305    0.6116 H   0  0  0  0  0  0  0  0  0  0  0  0
   -5.6200    0.0072    2.1509 H   0  0  0  0  0  0  0  0  0  0  0  0
    4.1399    3.1859    2.6371 H   0  0  0  0  0  0  0  0  0  0  0  0
   -0.0843    0.6843   -1.6146 H   0  0  0  0  0  0  0  0  0  0  0  0
   -0.8866    2.2215   -1.7892 H   0  0  0  0  0  0  0  0  0  0  0  0
  1 13  2  0  0  0  0
  2 17  2  0  0  0  0
  3 21  2  0  0  0  0
  4  8  1  0  0  0  0
  4  9  1  0  0  0  0
  4 10  1  0  0  0  0
  5 15  1  0  0  0  0
  5 21  1  0  0  0  0
  5 24  1  0  0  0  0
  6 17  1  0  0  0  0
  6 21  1  0  0  0  0
  6 26  1  0  0  0  0
  7 15  1  0  0  0  0
  7 48  1  0  0  0  0
  7 49  1  0  0  0  0
  8 13  1  0  0  0  0
  8 28  1  0  0  0  0
  8 29  1  0  0  0  0
  9 11  1  0  0  0  0
  9 16  2  0  0  0  0
 10 18  1  0  0  0  0
 10 30  1  0  0  0  0
 10 31  1  0  0  0  0
 11 14  1  0  0  0  0
 11 19  2  0  0  0  0
 12 13  1  0  0  0  0
 12 15  2  0  0  0  0
 12 17  1  0  0  0  0
 14 20  1  0  0  0  0
 14 23  2  0  0  0  0
 16 22  1  0  0  0  0
 16 32  1  0  0  0  0
 18 33  1  0  0  0  0
 18 34  1  0  0  0  0
 18 35  1  0  0  0  0
 19 25  1  0  0  0  0
 19 36  1  0  0  0  0
 20 22  2  0  0  0  0
 20 37  1  0  0  0  0
 22 38  1  0  0  0  0
 23 27  1  0  0  0  0
 23 39  1  0  0  0  0
 24 40  1  0  0  0  0
 24 41  1  0  0  0  0
 24 42  1  0  0  0  0
 25 27  2  0  0  0  0
 25 43  1  0  0  0  0
 26 44  1  0  0  0  0
 26 45  1  0  0  0  0
 26 46  1  0  0  0  0
 27 47  1  0  0  0  0
M  END
> <PUBCHEM_COMPOUND_CID>
2395730

> <PUBCHEM_CONFORMER_RMSD>
0.8

> <PUBCHEM_CONFORMER_DIVERSEORDER>
1
42
123
62
56
150
28
23
89
78
115
91
97
139
84
109
117
93
48
111
151
38
114
135
156
55
105
87
116
51
119
67
82
74
138
12
145
104
153
107
101
26
148
79
21
131
39
75
113
41
130
60
99
66
68
129
76
18
140
103
161
58
125
95
77
142
69
154
57
124
34
63
102
70
128
64
50
159
22
143
13
20
108
126
92
160
73
144
54
6
24
71
2
147
37
46
40
85
88
152
33
17
134
112
72
110
149
94
36
98
44
16
29
133
127
43
136
47
32
96
118
30
157
61
35
122
53
45
4
121
120
137
158
65
83
52
49
31
90
100
19
86
25
106
132
27
15
80
146
5
155
141
8
81
14
162
59
9
11
7
3
10

> <PUBCHEM_MMFF94_PARTIAL_CHARGES>
33
1 -0.57
10 0.37
12 0.03
13 0.49
15 0.21
16 -0.15
17 0.62
19 -0.15
2 -0.57
20 -0.15
21 0.69
22 -0.15
23 -0.15
24 0.3
25 -0.15
26 0.3
27 -0.15
3 -0.57
32 0.15
36 0.15
37 0.15
38 0.15
39 0.15
4 -0.84
43 0.15
47 0.15
48 0.4
49 0.4
5 -0.47
6 -0.42
7 -0.9
8 0.43
9 0.1

> <PUBCHEM_EFFECTIVE_ROTOR_COUNT>
5

> <PUBCHEM_PHARMACOPHORE_FEATURES>
10
1 1 acceptor
1 12 anion
1 2 acceptor
1 3 acceptor
1 4 cation
1 7 cation
1 7 donor
6 11 14 19 23 25 27 rings
6 5 6 12 15 17 21 rings
6 9 11 14 16 20 22 rings

> <PUBCHEM_HEAVY_ATOM_COUNT>
27

> <PUBCHEM_ATOM_DEF_STEREO_COUNT>
0

> <PUBCHEM_ATOM_UDEF_STEREO_COUNT>
0

> <PUBCHEM_BOND_DEF_STEREO_COUNT>
0

> <PUBCHEM_BOND_UDEF_STEREO_COUNT>
0

> <PUBCHEM_ISOTOPIC_ATOM_COUNT>
0

> <PUBCHEM_COMPONENT_COUNT>
1

> <PUBCHEM_CACTVS_TAUTO_COUNT>
7

> <PUBCHEM_CONFORMER_ID>
00248E5200000001

> <PUBCHEM_MMFF94_ENERGY>
101.1179

> <PUBCHEM_FEATURE_SELFOVERLAP>
50.772

> <PUBCHEM_SHAPE_FINGERPRINT>
10165383 225 18269291178100170540
10369192 42 17342092951140726600
10498660 4 18411703188067914765
10670039 82 18187376432159846084
11582403 64 16769251731344426730
11595378 159 17603581941551983669
11720765 8 17417261914419716660
12633257 1 16226321616326084176
12788726 201 15160968864109622116
13134695 92 17838315412214410270
13224815 77 18260545623789342517
13878862 14 18119230789204326869
13965767 371 18041263431677821244
14081887 123 18334855035095144281
14178342 30 18189893287005769842
14341114 328 17095806632473620752
15238133 3 17698729107921508737
17868525 174 17829041018258451554
20600515 1 16540124652949990010
21033648 29 18201440298328468737
21792934 111 18114741526567881321
21864079 5 17560516201538143305
23536364 44 17556045514551033116
23559900 14 17896600579310796547
350125 39 18261398780399023918
3797600 57 16807025452973642762
469060 322 18047753986229513843
5104073 3 18261965029435520155
5252454 2 18272647986799239600
574716 61 15482669117229042537
633830 44 17060343989949306107
6442390 28 18338523061483142170
7808743 9 18193279826322640572

> <PUBCHEM_SHAPE_MULTIPOLES>
518.12
10.35
3.42
1.99
9.62
1.31
0.12
-5.31
2.01
-1.17
0.63
-2.36
-0.62
1.53

> <PUBCHEM_SHAPE_SELFOVERLAP>
1118.198

> <PUBCHEM_SHAPE_VOLUME>
283.7

> <PUBCHEM_COORDINATE_TYPE>
2
5
10

$$$$
