651193
  -OEChem-01171811373D

 41 43  0     1  0  0  0  0  0999 V2000
   -1.9358    2.6459    1.1724 F   0  0  0  0  0  0  0  0  0  0  0  0
    4.3969    0.2417    0.9199 O   0  0  0  0  0  0  0  0  0  0  0  0
    0.6726    0.2683   -1.4660 O   0  0  0  0  0  0  0  0  0  0  0  0
    2.3971   -1.0327   -0.6838 N   0  0  0  0  0  0  0  0  0  0  0  0
   -1.4944    0.0951    0.1496 N   0  0  0  0  0  0  0  0  0  0  0  0
   -2.0209   -2.1175    0.8187 N   0  0  0  0  0  0  0  0  0  0  0  0
    3.8655    0.8535   -0.2676 C   0  0  1  0  0  0  0  0  0  0  0  0
    4.9568    1.7677   -0.7972 C   0  0  0  0  0  0  0  0  0  0  0  0
    5.6050    2.2340    0.4822 C   0  0  0  0  0  0  0  0  0  0  0  0
    5.5551    0.9824    1.3326 C   0  0  0  0  0  0  0  0  0  0  0  0
    3.4422   -0.2179   -1.2536 C   0  0  0  0  0  0  0  0  0  0  0  0
    1.0461   -0.7223   -0.8351 C   0  0  0  0  0  0  0  0  0  0  0  0
    0.0999   -1.6667   -0.2246 C   0  0  0  0  0  0  0  0  0  0  0  0
   -1.1313   -1.2712    0.2529 C   0  0  0  0  0  0  0  0  0  0  0  0
    0.4578   -3.0000   -0.1254 C   0  0  0  0  0  0  0  0  0  0  0  0
   -2.7344    0.7369    0.0064 C   0  0  0  0  0  0  0  0  0  0  0  0
   -0.4307   -3.9010    0.4510 C   0  0  0  0  0  0  0  0  0  0  0  0
   -1.6462   -3.4137    0.9034 C   0  0  0  0  0  0  0  0  0  0  0  0
   -2.9310    2.0191    0.5292 C   0  0  0  0  0  0  0  0  0  0  0  0
   -3.7833    0.0975   -0.6618 C   0  0  0  0  0  0  0  0  0  0  0  0
   -4.1641    2.6551    0.3849 C   0  0  0  0  0  0  0  0  0  0  0  0
   -5.0163    0.7336   -0.8058 C   0  0  0  0  0  0  0  0  0  0  0  0
   -5.2067    2.0123   -0.2824 C   0  0  0  0  0  0  0  0  0  0  0  0
    2.9997    1.4512    0.0454 H   0  0  0  0  0  0  0  0  0  0  0  0
    4.5666    2.5850   -1.4099 H   0  0  0  0  0  0  0  0  0  0  0  0
    5.6848    1.2062   -1.3952 H   0  0  0  0  0  0  0  0  0  0  0  0
    6.6193    2.6185    0.3477 H   0  0  0  0  0  0  0  0  0  0  0  0
    4.9970    3.0228    0.9409 H   0  0  0  0  0  0  0  0  0  0  0  0
    6.4325    0.3505    1.1594 H   0  0  0  0  0  0  0  0  0  0  0  0
    5.4897    1.2035    2.4016 H   0  0  0  0  0  0  0  0  0  0  0  0
    4.2744   -0.8952   -1.4739 H   0  0  0  0  0  0  0  0  0  0  0  0
    3.0942    0.2278   -2.1912 H   0  0  0  0  0  0  0  0  0  0  0  0
    2.6879   -1.8176   -0.1102 H   0  0  0  0  0  0  0  0  0  0  0  0
    1.3958   -3.3894   -0.5088 H   0  0  0  0  0  0  0  0  0  0  0  0
   -0.7363    0.7273    0.3926 H   0  0  0  0  0  0  0  0  0  0  0  0
   -0.1834   -4.9530    0.5364 H   0  0  0  0  0  0  0  0  0  0  0  0
   -2.3753   -4.0759    1.3588 H   0  0  0  0  0  0  0  0  0  0  0  0
   -3.6570   -0.8933   -1.0904 H   0  0  0  0  0  0  0  0  0  0  0  0
   -4.3121    3.6508    0.7923 H   0  0  0  0  0  0  0  0  0  0  0  0
   -5.8273    0.2346   -1.3282 H   0  0  0  0  0  0  0  0  0  0  0  0
   -6.1665    2.5079   -0.3953 H   0  0  0  0  0  0  0  0  0  0  0  0
  1 19  1  0  0  0  0
  2  7  1  0  0  0  0
  2 10  1  0  0  0  0
  3 12  2  0  0  0  0
  4 11  1  0  0  0  0
  4 12  1  0  0  0  0
  4 33  1  0  0  0  0
  5 14  1  0  0  0  0
  5 16  1  0  0  0  0
  5 35  1  0  0  0  0
  6 14  1  0  0  0  0
  6 18  2  0  0  0  0
  7  8  1  0  0  0  0
  7 11  1  0  0  0  0
  7 24  1  0  0  0  0
  8  9  1  0  0  0  0
  8 25  1  0  0  0  0
  8 26  1  0  0  0  0
  9 10  1  0  0  0  0
  9 27  1  0  0  0  0
  9 28  1  0  0  0  0
 10 29  1  0  0  0  0
 10 30  1  0  0  0  0
 11 31  1  0  0  0  0
 11 32  1  0  0  0  0
 12 13  1  0  0  0  0
 13 14  2  0  0  0  0
 13 15  1  0  0  0  0
 15 17  2  0  0  0  0
 15 34  1  0  0  0  0
 16 19  1  0  0  0  0
 16 20  2  0  0  0  0
 17 18  1  0  0  0  0
 17 36  1  0  0  0  0
 18 37  1  0  0  0  0
 19 21  2  0  0  0  0
 20 22  1  0  0  0  0
 20 38  1  0  0  0  0
 21 23  1  0  0  0  0
 21 39  1  0  0  0  0
 22 23  2  0  0  0  0
 22 40  1  0  0  0  0
 23 41  1  0  0  0  0
M  END
> <PUBCHEM_COMPOUND_CID>
651193

> <PUBCHEM_CONFORMER_RMSD>
0.8

> <PUBCHEM_CONFORMER_DIVERSEORDER>
1
273
139
239
459
335
162
250
149
356
270
253
29
431
154
126
241
43
314
48
437
86
147
388
468
76
203
106
392
114
137
390
71
170
355
19
413
244
134
249
33
376
161
358
67
78
91
54
377
327
207
30
248
148
158
393
49
453
143
257
236
79
185
102
280
182
27
405
165
350
104
429
40
328
276
450
461
415
6
73
226
213
45
291
28
359
64
247
389
24
434
240
142
46
174
433
87
254
457
375
4
352
160
208
184
175
436
267
107
41
116
204
406
12
290
205
214
229
422
47
171
135
112
153
122
385
266
303
22
462
304
466
11
396
401
341
230
36
195
220
191
8
423
128
321
326
72
287
111
233
243
26
62
271
295
383
198
409
222
261
268
259
31
458
296
176
400
95
237
152
120
387
68
199
65
286
308
50
371
209
428
58
113
397
115
318
129
411
223
99
272
438
69
418
336
101
269
367
13
281
364
18
440
193
260
252
306
172
298
37
279
340
394
395
42
74
201
178
441
82
312
442
140
118
323
163
330
297
141
94
319
391
299
256
25
89
452
125
322
52
368
32
284
310
196
35
445
255
39
339
251
444
228
265
351
373
117
378
93
34
451
221
302
473
179
246
97
320
238
138
446
362
132
187
343
44
324
258
399
416
183
80
369
386
325
245
417
57
374
66
289
402
63
186
219
412
92
382
136
144
156
206
455
347
353
460
100
366
282
96
190
472
14
293
61
360
344
443
108
372
164
157
414
55
331
467
212
215
84
275
470
192
188
435
88
316
145
464
404
98
338
151
180
194
167
469
454
274
426
463
348
177
119
77
315
419
235
169
403
264
232
300
105
121
216
123
292
410
384
421
420
349
75
424
130
200
53
103
83
408
109
333
224
305
133
334
127
9
56
155
70
313
242
407
439
448
337
277
425
168
2
471
23
262
381
51
234
309
173
294
211
16
329
110
131
159
357
20
283
218
317
217
307
398
150
3
380
7
81
146
354
225
17
189
288
5
15
85
379
427
227
10
370
231
38
278
301
365
432
21
430
263
285
202
332
447
197
166
311
361
59
90
346
449
456
60
181
342
124
345
465
210
363

> <PUBCHEM_MMFF94_PARTIAL_CHARGES>
30
1 -0.19
10 0.28
11 0.3
12 0.54
13 0.09
14 0.41
15 -0.15
16 0.1
17 -0.15
18 0.16
19 0.19
2 -0.56
20 -0.15
21 -0.15
22 -0.15
23 -0.15
3 -0.57
33 0.37
34 0.15
35 0.4
36 0.15
37 0.15
38 0.15
39 0.15
4 -0.73
40 0.15
41 0.15
5 -0.6
6 -0.62
7 0.28

> <PUBCHEM_EFFECTIVE_ROTOR_COUNT>
7

> <PUBCHEM_PHARMACOPHORE_FEATURES>
9
1 2 acceptor
1 3 acceptor
1 4 donor
1 5 cation
1 5 donor
1 6 acceptor
5 2 7 8 9 10 rings
6 16 19 20 21 22 23 rings
6 6 13 14 15 17 18 rings

> <PUBCHEM_HEAVY_ATOM_COUNT>
23

> <PUBCHEM_ATOM_DEF_STEREO_COUNT>
0

> <PUBCHEM_ATOM_UDEF_STEREO_COUNT>
1

> <PUBCHEM_BOND_DEF_STEREO_COUNT>
0

> <PUBCHEM_BOND_UDEF_STEREO_COUNT>
0

> <PUBCHEM_ISOTOPIC_ATOM_COUNT>
0

> <PUBCHEM_COMPONENT_COUNT>
1

> <PUBCHEM_CACTVS_TAUTO_COUNT>
5

> <PUBCHEM_CONFORMER_ID>
0009EFB900000001

> <PUBCHEM_MMFF94_ENERGY>
69.6883

> <PUBCHEM_FEATURE_SELFOVERLAP>
45.671

> <PUBCHEM_SHAPE_FINGERPRINT>
10411042 1 17545041962499502467
10692045 39 18266168445093172010
11370993 70 18409450262793040629
12107183 9 18261661590223047402
12596602 18 17603866745175938928
12788726 201 17682415976144608138
13140716 1 17685791515222435491
13402501 40 18059848489575944304
13955234 65 17902801764999294979
13965767 371 17896036542561383316
14178342 30 18187932841168524046
14251751 18 8862675573212278964
14251764 38 18201162036071665400
14468879 13 18060424637810339702
14739800 52 18270381850875298936
14767858 380 18269257085092932575
14787075 74 18201432571666491709
14848178 96 18341055112197101372
14849402 71 18121788227211782210
173720 79 17968090941191420995
19784866 34 18338798910342338709
20554085 129 18268690784601004425
20642791 105 18115588300386447943
212916 134 18409722959136205674
21401589 2 18341903999571562409
22950370 63 9511454545883132893
23522609 53 17532102743214658340
23559900 14 18340502097078010326
2838139 119 17988634190759509908
3117164 225 18334850607406336450
341906 21 18337958986617255836
469060 322 18191330310886695027
474 4 18336830771353561021
5104073 3 18188779336261921539
53917941 68 18336253618260186775
59755656 520 18335414664996953518
6328613 192 18335433370281037340
633830 44 18199186200432629559
6371380 46 18337958879607525118
67856867 119 18121775037398643699
7808743 9 18337111284685293944
84936 182 18125443007845792395
9981440 41 18407761426229571107

> <PUBCHEM_SHAPE_MULTIPOLES>
439.37
12.06
4.14
1.14
9.53
3.36
0.03
-13.36
-0.72
-2.51
-1.29
0.68
-0.12
0.52

> <PUBCHEM_SHAPE_SELFOVERLAP>
942.037

> <PUBCHEM_SHAPE_VOLUME>
242.7

> <PUBCHEM_COORDINATE_TYPE>
2
5
10

$$$$
