1073577
  -OEChem-01171811443D

 56 59  0     0  0  0  0  0  0999 V2000
    4.3743   -0.0358    0.6448 O   0  0  0  0  0  0  0  0  0  0  0  0
    2.7654   -0.7908   -1.4979 O   0  0  0  0  0  0  0  0  0  0  0  0
   -4.1273    1.7476    0.7449 O   0  0  0  0  0  0  0  0  0  0  0  0
   -7.0380   -0.1012   -0.5215 O   0  0  0  0  0  0  0  0  0  0  0  0
    2.2104    1.7950    1.2614 N   0  0  0  0  0  0  0  0  0  0  0  0
   -4.2355   -0.4649    1.3903 N   0  0  0  0  0  0  0  0  0  0  0  0
   -0.9039   -1.6658    1.6438 N   0  0  0  0  0  0  0  0  0  0  0  0
    2.1972    2.2097   -0.0514 C   0  0  0  0  0  0  0  0  0  0  0  0
    0.8625    2.2313   -0.4619 C   0  0  0  0  0  0  0  0  0  0  0  0
    3.3926    1.6305    2.0795 C   0  0  0  0  0  0  0  0  0  0  0  0
    0.0769    1.8155    0.6493 C   0  0  0  0  0  0  0  0  0  0  0  0
    0.9339    1.5544    1.6935 C   0  0  0  0  0  0  0  0  0  0  0  0
    3.9773    0.2277    1.9842 C   0  0  0  0  0  0  0  0  0  0  0  0
    3.2537    2.5638   -0.8980 C   0  0  0  0  0  0  0  0  0  0  0  0
    0.5653    2.6253   -1.7818 C   0  0  0  0  0  0  0  0  0  0  0  0
   -1.3271    1.6796    0.7181 C   0  0  0  0  0  0  0  0  0  0  0  0
    2.9347    2.9511   -2.2026 C   0  0  0  0  0  0  0  0  0  0  0  0
    1.6119    2.9820   -2.6399 C   0  0  0  0  0  0  0  0  0  0  0  0
   -2.0590    0.5674    1.0282 C   0  0  0  0  0  0  0  0  0  0  0  0
    4.3265   -1.3416    0.2319 C   0  0  0  0  0  0  0  0  0  0  0  0
   -3.5624    0.6940    1.0352 C   0  0  0  0  0  0  0  0  0  0  0  0
    3.5186   -1.7168   -0.8418 C   0  0  0  0  0  0  0  0  0  0  0  0
    5.0941   -2.2992    0.8950 C   0  0  0  0  0  0  0  0  0  0  0  0
   -5.6782   -0.5199    1.4461 C   0  0  0  0  0  0  0  0  0  0  0  0
    3.4786   -3.0494   -1.2521 C   0  0  0  0  0  0  0  0  0  0  0  0
   -1.4186   -0.6634    1.3660 C   0  0  0  0  0  0  0  0  0  0  0  0
   -6.2146   -0.9700    0.1214 C   0  0  0  0  0  0  0  0  0  0  0  0
    5.0541   -3.6318    0.4845 C   0  0  0  0  0  0  0  0  0  0  0  0
    4.2464   -4.0068   -0.5890 C   0  0  0  0  0  0  0  0  0  0  0  0
   -6.0506   -2.1177   -0.6189 C   0  0  0  0  0  0  0  0  0  0  0  0
   -6.8228   -1.9428   -1.7920 C   0  0  0  0  0  0  0  0  0  0  0  0
   -7.4037   -0.7005   -1.6849 C   0  0  0  0  0  0  0  0  0  0  0  0
    1.9672   -1.2565   -2.5844 C   0  0  0  0  0  0  0  0  0  0  0  0
    4.1258    2.3812    1.7658 H   0  0  0  0  0  0  0  0  0  0  0  0
    3.1164    1.8573    3.1156 H   0  0  0  0  0  0  0  0  0  0  0  0
    0.7462    1.2212    2.7065 H   0  0  0  0  0  0  0  0  0  0  0  0
    4.8564    0.1548    2.6342 H   0  0  0  0  0  0  0  0  0  0  0  0
    3.2330   -0.5055    2.3224 H   0  0  0  0  0  0  0  0  0  0  0  0
    4.2873    2.5447   -0.5702 H   0  0  0  0  0  0  0  0  0  0  0  0
   -0.4601    2.6541   -2.1391 H   0  0  0  0  0  0  0  0  0  0  0  0
   -1.8706    2.5800    0.4350 H   0  0  0  0  0  0  0  0  0  0  0  0
    3.7319    3.2317   -2.8861 H   0  0  0  0  0  0  0  0  0  0  0  0
    1.3887    3.2858   -3.6592 H   0  0  0  0  0  0  0  0  0  0  0  0
    5.7342   -2.0206    1.7276 H   0  0  0  0  0  0  0  0  0  0  0  0
   -3.7305   -1.3174    1.6093 H   0  0  0  0  0  0  0  0  0  0  0  0
   -5.9538   -1.2395    2.2234 H   0  0  0  0  0  0  0  0  0  0  0  0
   -6.0810    0.4603    1.7215 H   0  0  0  0  0  0  0  0  0  0  0  0
    2.8752   -3.4130   -2.0766 H   0  0  0  0  0  0  0  0  0  0  0  0
    5.6532   -4.3770    0.9995 H   0  0  0  0  0  0  0  0  0  0  0  0
    4.2164   -5.0447   -0.9079 H   0  0  0  0  0  0  0  0  0  0  0  0
   -5.4502   -2.9747   -0.3490 H   0  0  0  0  0  0  0  0  0  0  0  0
   -6.9412   -2.6352   -2.6127 H   0  0  0  0  0  0  0  0  0  0  0  0
   -8.0670   -0.1284   -2.3170 H   0  0  0  0  0  0  0  0  0  0  0  0
    1.4362   -0.3896   -2.9902 H   0  0  0  0  0  0  0  0  0  0  0  0
    1.2042   -1.9668   -2.2482 H   0  0  0  0  0  0  0  0  0  0  0  0
    2.5841   -1.6587   -3.3951 H   0  0  0  0  0  0  0  0  0  0  0  0
  1 13  1  0  0  0  0
  1 20  1  0  0  0  0
  2 22  1  0  0  0  0
  2 33  1  0  0  0  0
  3 21  2  0  0  0  0
  4 27  1  0  0  0  0
  4 32  1  0  0  0  0
  5  8  1  0  0  0  0
  5 10  1  0  0  0  0
  5 12  1  0  0  0  0
  6 21  1  0  0  0  0
  6 24  1  0  0  0  0
  6 45  1  0  0  0  0
  7 26  3  0  0  0  0
  8  9  1  0  0  0  0
  8 14  2  0  0  0  0
  9 11  1  0  0  0  0
  9 15  2  0  0  0  0
 10 13  1  0  0  0  0
 10 34  1  0  0  0  0
 10 35  1  0  0  0  0
 11 12  2  0  0  0  0
 11 16  1  0  0  0  0
 12 36  1  0  0  0  0
 13 37  1  0  0  0  0
 13 38  1  0  0  0  0
 14 17  1  0  0  0  0
 14 39  1  0  0  0  0
 15 18  1  0  0  0  0
 15 40  1  0  0  0  0
 16 19  2  0  0  0  0
 16 41  1  0  0  0  0
 17 18  2  0  0  0  0
 17 42  1  0  0  0  0
 18 43  1  0  0  0  0
 19 21  1  0  0  0  0
 19 26  1  0  0  0  0
 20 22  1  0  0  0  0
 20 23  2  0  0  0  0
 22 25  2  0  0  0  0
 23 28  1  0  0  0  0
 23 44  1  0  0  0  0
 24 27  1  0  0  0  0
 24 46  1  0  0  0  0
 24 47  1  0  0  0  0
 25 29  1  0  0  0  0
 25 48  1  0  0  0  0
 27 30  2  0  0  0  0
 28 29  2  0  0  0  0
 28 49  1  0  0  0  0
 29 50  1  0  0  0  0
 30 31  1  0  0  0  0
 30 51  1  0  0  0  0
 31 32  2  0  0  0  0
 31 52  1  0  0  0  0
 32 53  1  0  0  0  0
 33 54  1  0  0  0  0
 33 55  1  0  0  0  0
 33 56  1  0  0  0  0
M  END
> <PUBCHEM_COMPOUND_CID>
1073577

> <PUBCHEM_CONFORMER_RMSD>
1.4

> <PUBCHEM_CONFORMER_DIVERSEORDER>
1
59
97
114
8
44
86
123
102
36
46
61
76
113
30
121
9
41
96
111
103
33
107
124
5
79
91
25
118
38
70
106
98
63
56
53
92
120
31
104
14
109
66
29
105
87
90
108
126
6
16
68
100
34
75
69
26
17
83
67
115
112
60
40
12
77
37
55
48
50
58
24
71
82
42
116
35
122
72
23
43
74
78
99
95
20
117
28
32
110
19
51
125
93
94
84
21
3
62
88
119
2
85
81
101
7
18
65
22
54
49
27
52
80
11
39
89
15
73
13
57
64
47
4
45
10

> <PUBCHEM_MMFF94_PARTIAL_CHARGES>
46
1 -0.36
10 0.26
11 -0.05
12 -0.3
13 0.28
14 -0.15
15 -0.15
16 -0.1
17 -0.15
18 -0.15
19 0.08
2 -0.36
20 0.08
21 0.62
22 0.08
23 -0.15
24 0.48
25 -0.15
26 0.49
27 -0.04
28 -0.15
29 -0.15
3 -0.57
30 -0.15
31 -0.15
32 -0.01
33 0.28
36 0.15
39 0.15
4 -0.28
40 0.15
41 0.15
42 0.15
43 0.15
44 0.15
45 0.37
48 0.15
49 0.15
5 0.05
50 0.15
51 0.15
52 0.15
53 0.15
6 -0.73
7 -0.56
8 -0.15

> <PUBCHEM_EFFECTIVE_ROTOR_COUNT>
10

> <PUBCHEM_PHARMACOPHORE_FEATURES>
11
1 1 acceptor
1 2 acceptor
1 3 acceptor
1 4 acceptor
1 5 cation
1 6 donor
1 7 acceptor
5 4 27 30 31 32 rings
5 5 8 9 11 12 rings
6 20 22 23 25 28 29 rings
6 8 9 14 15 17 18 rings

> <PUBCHEM_HEAVY_ATOM_COUNT>
33

> <PUBCHEM_ATOM_DEF_STEREO_COUNT>
0

> <PUBCHEM_ATOM_UDEF_STEREO_COUNT>
0

> <PUBCHEM_BOND_DEF_STEREO_COUNT>
1

> <PUBCHEM_BOND_UDEF_STEREO_COUNT>
0

> <PUBCHEM_ISOTOPIC_ATOM_COUNT>
0

> <PUBCHEM_COMPONENT_COUNT>
1

> <PUBCHEM_CACTVS_TAUTO_COUNT>
2

> <PUBCHEM_CONFORMER_ID>
001061A900000001

> <PUBCHEM_MMFF94_ENERGY>
78.787

> <PUBCHEM_FEATURE_SELFOVERLAP>
55.919

> <PUBCHEM_SHAPE_FINGERPRINT>
10554248 39 18260269685716897501
10674148 151 11242261740795853082
11135609 149 18260819384904732261
12147406 95 17822010917257364476
12373685 5 16630520710340118609
131258 38 18059849593392829406
14143925 63 18199194996700829294
14415361 349 18340217345078468454
146900 427 10087651407338848409
15119646 104 18131073753706563235
16989378 47 18261971677322434606
17857418 61 17988926691333578547
19315092 285 17775286049374012218
19438510 23 8934702397571254582
20775438 99 18260833751824077386
21304303 282 16969987554667133740
23559900 14 18189351197728922363
25222932 49 17203041992967215469
376196 1 16593383844921806164
437795 51 8574426582445076207
50009960 94 18194663909366933370
513532 50 17168428280239955988
57035037 87 14562816603854260076
57527573 199 15970449060253158672

> <PUBCHEM_SHAPE_MULTIPOLES>
640.7
16.23
4.48
2.47
35.33
1.49
-0.84
14.31
-2.65
-7.3
-2.07
-0.61
-0.92
-1.4

> <PUBCHEM_SHAPE_SELFOVERLAP>
1393.225

> <PUBCHEM_SHAPE_VOLUME>
348.9

> <PUBCHEM_COORDINATE_TYPE>
2
5
10

$$$$
