9583316
  -OEChem-01171811563D

 41 44  0     1  0  0  0  0  0999 V2000
    3.2487   -3.4082   -0.0778 S   0  0  0  0  0  0  0  0  0  0  0  0
   -3.5787    2.3493   -0.0769 O   0  0  0  0  0  0  0  0  0  0  0  0
   -5.7848    1.3852    0.0269 O   0  0  0  0  0  0  0  0  0  0  0  0
    2.3587   -0.8274   -0.1468 N   0  0  0  0  0  0  0  0  0  0  0  0
    0.7535   -2.5301   -0.0349 N   0  0  0  0  0  0  0  0  0  0  0  0
   -0.2108   -1.5786   -0.0404 N   0  0  0  0  0  0  0  0  0  0  0  0
    3.6002    1.1681   -0.9129 C   0  0  2  0  0  0  0  0  0  0  0  0
    4.4224    1.6736    1.0941 C   0  0  1  0  0  0  0  0  0  0  0  0
    3.2375    2.1122    0.2362 C   0  0  0  0  0  0  0  0  0  0  0  0
    3.6560   -0.2048   -0.2085 C   0  0  1  0  0  0  0  0  0  0  0  0
    4.1985    0.1526    1.1890 C   0  0  0  0  0  0  0  0  0  0  0  0
    5.0392    1.6114   -1.2309 C   0  0  0  0  0  0  0  0  0  0  0  0
    5.6100    1.9473    0.1553 C   0  0  0  0  0  0  0  0  0  0  0  0
    2.0922   -2.1909   -0.0885 C   0  0  0  0  0  0  0  0  0  0  0  0
   -1.4141   -2.0497    0.0137 C   0  0  0  0  0  0  0  0  0  0  0  0
   -2.5953   -1.1688    0.0181 C   0  0  0  0  0  0  0  0  0  0  0  0
   -3.5469    0.9895   -0.0302 C   0  0  0  0  0  0  0  0  0  0  0  0
   -2.4116    0.2055   -0.0375 C   0  0  0  0  0  0  0  0  0  0  0  0
   -4.8067    0.4390    0.0292 C   0  0  0  0  0  0  0  0  0  0  0  0
   -3.8674   -1.7425    0.0787 C   0  0  0  0  0  0  0  0  0  0  0  0
   -5.0007   -0.9258    0.0847 C   0  0  0  0  0  0  0  0  0  0  0  0
   -4.9998    2.5930   -0.0409 C   0  0  0  0  0  0  0  0  0  0  0  0
    2.9311    1.2072   -1.7756 H   0  0  0  0  0  0  0  0  0  0  0  0
    4.5103    2.1639    2.0655 H   0  0  0  0  0  0  0  0  0  0  0  0
    3.2779    3.1696   -0.0465 H   0  0  0  0  0  0  0  0  0  0  0  0
    2.2676    1.8947    0.6949 H   0  0  0  0  0  0  0  0  0  0  0  0
    4.3494   -0.8679   -0.7355 H   0  0  0  0  0  0  0  0  0  0  0  0
    5.1263   -0.3837    1.4143 H   0  0  0  0  0  0  0  0  0  0  0  0
    3.4725   -0.0785    1.9775 H   0  0  0  0  0  0  0  0  0  0  0  0
    5.0392    2.5060   -1.8640 H   0  0  0  0  0  0  0  0  0  0  0  0
    5.6197    0.8352   -1.7394 H   0  0  0  0  0  0  0  0  0  0  0  0
    6.4867    1.3384    0.3979 H   0  0  0  0  0  0  0  0  0  0  0  0
    5.9042    3.0021    0.1953 H   0  0  0  0  0  0  0  0  0  0  0  0
    1.5512   -0.2131   -0.0984 H   0  0  0  0  0  0  0  0  0  0  0  0
    0.4648   -3.5024    0.0101 H   0  0  0  0  0  0  0  0  0  0  0  0
   -1.6116   -3.1371    0.0596 H   0  0  0  0  0  0  0  0  0  0  0  0
   -1.4324    0.6686   -0.0845 H   0  0  0  0  0  0  0  0  0  0  0  0
   -3.9929   -2.8212    0.1219 H   0  0  0  0  0  0  0  0  0  0  0  0
   -5.9949   -1.3554    0.1317 H   0  0  0  0  0  0  0  0  0  0  0  0
   -5.2280    3.2096    0.8361 H   0  0  0  0  0  0  0  0  0  0  0  0
   -5.2839    3.1461   -0.9435 H   0  0  0  0  0  0  0  0  0  0  0  0
  1 14  2  0  0  0  0
  2 17  1  0  0  0  0
  2 22  1  0  0  0  0
  3 19  1  0  0  0  0
  3 22  1  0  0  0  0
  4 10  1  0  0  0  0
  4 14  1  0  0  0  0
  4 34  1  0  0  0  0
  5  6  1  0  0  0  0
  5 14  1  0  0  0  0
  5 35  1  0  0  0  0
  6 15  2  0  0  0  0
  7  9  1  0  0  0  0
  7 10  1  0  0  0  0
  7 12  1  0  0  0  0
  7 23  1  0  0  0  0
  8  9  1  0  0  0  0
  8 11  1  0  0  0  0
  8 13  1  0  0  0  0
  8 24  1  0  0  0  0
  9 25  1  0  0  0  0
  9 26  1  0  0  0  0
 10 11  1  0  0  0  0
 10 27  1  0  0  0  0
 11 28  1  0  0  0  0
 11 29  1  0  0  0  0
 12 13  1  0  0  0  0
 12 30  1  0  0  0  0
 12 31  1  0  0  0  0
 13 32  1  0  0  0  0
 13 33  1  0  0  0  0
 15 16  1  0  0  0  0
 15 36  1  0  0  0  0
 16 18  2  0  0  0  0
 16 20  1  0  0  0  0
 17 18  1  0  0  0  0
 17 19  2  0  0  0  0
 18 37  1  0  0  0  0
 19 21  1  0  0  0  0
 20 21  2  0  0  0  0
 20 38  1  0  0  0  0
 21 39  1  0  0  0  0
 22 40  1  0  0  0  0
 22 41  1  0  0  0  0
M  END
> <PUBCHEM_COMPOUND_CID>
9583316

> <PUBCHEM_CONFORMER_RMSD>
0.8

> <PUBCHEM_CONFORMER_DIVERSEORDER>
1
37
113
136
233
164
179
140
49
128
240
141
24
213
131
172
203
154
207
48
159
201
12
165
214
138
151
187
120
170
114
227
52
215
137
161
200
147
199
205
68
58
156
132
66
107
226
189
145
178
87
228
57
14
134
196
171
204
110
139
36
102
82
71
148
163
135
127
169
9
221
19
29
79
231
223
126
81
83
192
100
2
166
162
142
183
157
76
103
218
143
95
144
97
149
42
96
101
69
239
124
133
219
230
206
150
119
25
55
62
23
99
60
198
90
175
186
61
153
93
86
232
174
117
177
106
104
130
22
122
167
234
118
168
51
64
8
38
222
185
112
78
80
41
98
56
212
39
146
105
193
91
152
211
31
43
116
202
235
47
10
238
32
67
184
195
11
155
74
125
229
13
50
176
4
17
237
129
236
27
16
123
53
188
216
181
15
115
40
30
194
180
18
73
224
35
88
72
220
45
85
191
111
77
84
46
44
210
173
33
6
209
59
63
65
208
92
28
160
26
34
108
7
89
70
94
197
75
190
21
182
54
121
217
158
20
3
225
109
5

> <PUBCHEM_MMFF94_PARTIAL_CHARGES>
22
1 -0.38
10 0.3
14 0.5
15 0.3
16 0.09
17 0.08
18 -0.15
19 0.08
2 -0.36
20 -0.15
21 -0.15
22 0.56
3 -0.36
34 0.37
35 0.37
36 0.06
37 0.15
38 0.15
39 0.15
4 -0.73
5 -0.37
6 -0.51

> <PUBCHEM_EFFECTIVE_ROTOR_COUNT>
6.6

> <PUBCHEM_PHARMACOPHORE_FEATURES>
9
1 1 acceptor
1 2 acceptor
1 3 acceptor
1 4 donor
1 5 donor
1 6 acceptor
5 2 3 17 19 22 rings
6 16 17 18 19 20 21 rings
7 7 8 9 10 11 12 13 rings

> <PUBCHEM_HEAVY_ATOM_COUNT>
22

> <PUBCHEM_ATOM_DEF_STEREO_COUNT>
0

> <PUBCHEM_ATOM_UDEF_STEREO_COUNT>
3

> <PUBCHEM_BOND_DEF_STEREO_COUNT>
1

> <PUBCHEM_BOND_UDEF_STEREO_COUNT>
0

> <PUBCHEM_ISOTOPIC_ATOM_COUNT>
0

> <PUBCHEM_COMPONENT_COUNT>
1

> <PUBCHEM_CACTVS_TAUTO_COUNT>
3

> <PUBCHEM_CONFORMER_ID>
00923AD400000001

> <PUBCHEM_MMFF94_ENERGY>
62.8832

> <PUBCHEM_FEATURE_SELFOVERLAP>
45.87

> <PUBCHEM_SHAPE_FINGERPRINT>
10498660 4 18272375290909801040
10670039 82 18334585667742329900
11720765 8 17702396065985691662
12107183 9 18261940861686798202
12555020 224 9511188404810159299
12596602 18 16950842621500198017
12633257 1 16371006360062431118
12769317 202 18273208716502352608
12788726 201 16957337587389900970
12925494 130 18194681463341357217
12978246 48 18335986483630754589
13402501 40 18341331179662533760
13785724 45 17976814290991613674
13878862 14 18118101607483151093
14251764 38 18268433438523715553
14251764 75 18270410399359872057
14341114 328 17386000732419125202
14468879 13 18334020514006572499
14848178 96 18410573955091961320
14849402 71 18113617842611436714
15196674 1 18410575071926058487
17810953 82 18410292467536440312
17844677 252 18339931407250941443
17868525 174 18046900481654095778
20238998 120 17982732975190125870
20567600 9 18338248089408216750
20715895 44 18122899829193478521
21065198 57 18337954472311826059
21315764 268 18190175685980022479
21623110 236 18341055121340911249
23227448 37 18271241733145016815
23559900 14 18198902504884752779
245318 6 17316215910394219444
2838139 119 18271519905455075614
3298306 158 18272647978098515728
34797466 226 17917717868717031263
350125 39 18336547115076964982
3680242 22 18335700503438767576
38570 142 16879932970064585372
474 4 18040437719508845006
5104073 3 18261679177708144067
633830 44 18336540517596397703
67856867 119 18338792325693932594
7064713 232 18334012817398739108
7288768 16 18040715904535611915
7808743 9 18266738172319817474
7970288 3 9294473601886894320
960060 61 12391513113578653890
9981440 41 18334577987855943211

> <PUBCHEM_SHAPE_MULTIPOLES>
429.92
14.98
3.64
0.85
5.44
1.44
0.02
-9.87
0.17
-1.28
-0.09
-1.09
-0.25
0.1

> <PUBCHEM_SHAPE_SELFOVERLAP>
926.663

> <PUBCHEM_SHAPE_VOLUME>
242.8

> <PUBCHEM_COORDINATE_TYPE>
2
5
10

$$$$
