2960025
  -OEChem-01171811393D

 32 33  0     1  0  0  0  0  0999 V2000
    2.3131   -1.3432   -0.4239 O   0  0  0  0  0  0  0  0  0  0  0  0
   -2.8865    2.1383   -0.2029 O   0  0  0  0  0  0  0  0  0  0  0  0
   -4.5192    0.3296    0.7139 O   0  0  0  0  0  0  0  0  0  0  0  0
   -4.1666   -1.7246   -0.2276 O   0  0  0  0  0  0  0  0  0  0  0  0
   -0.6630    1.5348   -0.2401 N   0  0  0  0  0  0  0  0  0  0  0  0
    2.6836   -0.1100    0.2035 C   0  0  1  0  0  0  0  0  0  0  0  0
    4.1302    0.1924   -0.1606 C   0  0  0  0  0  0  0  0  0  0  0  0
    1.7446    1.0024   -0.2828 C   0  0  0  0  0  0  0  0  0  0  0  0
    0.3129    0.5663   -0.1846 C   0  0  0  0  0  0  0  0  0  0  0  0
   -0.0175   -0.7274   -0.0362 C   0  0  0  0  0  0  0  0  0  0  0  0
    1.0263   -1.8070    0.0106 C   0  0  0  0  0  0  0  0  0  0  0  0
    4.5751    1.5225    0.4478 C   0  0  0  0  0  0  0  0  0  0  0  0
    5.0518   -0.9380    0.2975 C   0  0  0  0  0  0  0  0  0  0  0  0
   -1.4126   -1.0979    0.0732 C   0  0  0  0  0  0  0  0  0  0  0  0
   -2.3834   -0.1727    0.0219 C   0  0  0  0  0  0  0  0  0  0  0  0
   -2.0201    1.2686   -0.1500 C   0  0  0  0  0  0  0  0  0  0  0  0
   -3.7688   -0.6342    0.1404 C   0  0  0  0  0  0  0  0  0  0  0  0
    2.5962   -0.2307    1.2929 H   0  0  0  0  0  0  0  0  0  0  0  0
    4.2272    0.2577   -1.2524 H   0  0  0  0  0  0  0  0  0  0  0  0
    1.9523    1.2524   -1.3309 H   0  0  0  0  0  0  0  0  0  0  0  0
    1.8904    1.9068    0.3184 H   0  0  0  0  0  0  0  0  0  0  0  0
    1.1218   -2.2068    1.0269 H   0  0  0  0  0  0  0  0  0  0  0  0
    0.7525   -2.6348   -0.6522 H   0  0  0  0  0  0  0  0  0  0  0  0
    4.3953    1.5491    1.5279 H   0  0  0  0  0  0  0  0  0  0  0  0
    5.6471    1.6807    0.2849 H   0  0  0  0  0  0  0  0  0  0  0  0
    4.0601    2.3720   -0.0106 H   0  0  0  0  0  0  0  0  0  0  0  0
    4.9926   -1.0841    1.3815 H   0  0  0  0  0  0  0  0  0  0  0  0
    6.0942   -0.7140    0.0456 H   0  0  0  0  0  0  0  0  0  0  0  0
    4.7968   -1.8858   -0.1876 H   0  0  0  0  0  0  0  0  0  0  0  0
   -0.3661    2.4996   -0.3546 H   0  0  0  0  0  0  0  0  0  0  0  0
   -1.6354   -2.1530    0.2034 H   0  0  0  0  0  0  0  0  0  0  0  0
   -5.4568    0.0582    0.8110 H   0  0  0  0  0  0  0  0  0  0  0  0
  1  6  1  0  0  0  0
  1 11  1  0  0  0  0
  2 16  2  0  0  0  0
  3 17  1  0  0  0  0
  3 32  1  0  0  0  0
  4 17  2  0  0  0  0
  5  9  1  0  0  0  0
  5 16  1  0  0  0  0
  5 30  1  0  0  0  0
  6  7  1  0  0  0  0
  6  8  1  0  0  0  0
  6 18  1  0  0  0  0
  7 12  1  0  0  0  0
  7 13  1  0  0  0  0
  7 19  1  0  0  0  0
  8  9  1  0  0  0  0
  8 20  1  0  0  0  0
  8 21  1  0  0  0  0
  9 10  2  0  0  0  0
 10 11  1  0  0  0  0
 10 14  1  0  0  0  0
 11 22  1  0  0  0  0
 11 23  1  0  0  0  0
 12 24  1  0  0  0  0
 12 25  1  0  0  0  0
 12 26  1  0  0  0  0
 13 27  1  0  0  0  0
 13 28  1  0  0  0  0
 13 29  1  0  0  0  0
 14 15  2  0  0  0  0
 14 31  1  0  0  0  0
 15 16  1  0  0  0  0
 15 17  1  0  0  0  0
M  END
> <PUBCHEM_COMPOUND_CID>
2960025

> <PUBCHEM_CONFORMER_RMSD>
0.6

> <PUBCHEM_CONFORMER_DIVERSEORDER>
1
4
3
5
2

> <PUBCHEM_MMFF94_PARTIAL_CHARGES>
17
1 -0.56
10 -0.14
11 0.42
14 -0.15
15 0.03
16 0.62
17 0.71
2 -0.57
3 -0.65
30 0.37
31 0.15
32 0.5
4 -0.57
5 -0.54
6 0.28
8 0.14
9 -0.03

> <PUBCHEM_EFFECTIVE_ROTOR_COUNT>
2.8

> <PUBCHEM_PHARMACOPHORE_FEATURES>
10
1 1 acceptor
1 15 anion
1 2 acceptor
1 3 acceptor
1 4 acceptor
1 5 donor
3 3 4 17 anion
3 7 12 13 hydrophobe
6 1 6 8 9 10 11 rings
6 5 9 10 14 15 16 rings

> <PUBCHEM_HEAVY_ATOM_COUNT>
17

> <PUBCHEM_ATOM_DEF_STEREO_COUNT>
0

> <PUBCHEM_ATOM_UDEF_STEREO_COUNT>
1

> <PUBCHEM_BOND_DEF_STEREO_COUNT>
0

> <PUBCHEM_BOND_UDEF_STEREO_COUNT>
0

> <PUBCHEM_ISOTOPIC_ATOM_COUNT>
0

> <PUBCHEM_COMPONENT_COUNT>
1

> <PUBCHEM_CACTVS_TAUTO_COUNT>
3

> <PUBCHEM_CONFORMER_ID>
002D2A9900000001

> <PUBCHEM_MMFF94_ENERGY>
40.4302

> <PUBCHEM_FEATURE_SELFOVERLAP>
51.168

> <PUBCHEM_SHAPE_FINGERPRINT>
10608611 8 18411134693469885420
11132069 177 18410014334102184789
11401426 45 18408882958238659871
11806522 49 18336545014094119671
12403259 226 18337383856179014788
12403259 415 18412258429035159080
13081056 2 18413671318556058384
13140716 1 18120382218074685379
13214271 11 18412821361338868861
13288520 33 18410857633824790334
13862211 1 18409443717310919402
14787075 74 18270115841648461696
14943859 89 11743840269940260622
15042514 8 18264774435731313387
15196674 1 18410291406774476724
15209294 21 18059870428241927433
15219456 202 18270402676607272758
15536298 74 18341898454869191462
16945 1 18262251000646961463
17802600 8 18411134753340789280
17862501 102 18334853922429686778
18186145 218 18060143133106318240
18522853 276 18409730668412740713
200 152 18272080626415435503
20510252 161 18342740693397375313
21267235 1 18409175398235553426
21501502 16 18263640667211632771
22854114 59 18343021116381080080
23402539 116 18408597085099595127
23463225 33 18333449837744237868
23557571 272 18272098162207826820
23559900 14 18125717890570358710
26918003 58 17748831838934346347
2748010 2 18265055730413596279
34934 24 18336822010073996751
42 15 18408323285218697794
4214541 1 18410292471773482756
43471831 8 18260261906861406634
474 4 16951698085214095340
474229 33 18338795718939252558
4990 188 18131079199487659550
5104073 3 18410572864534337384
69090 78 18272649082126903814
7364860 26 18124031226795850278
77779 3 18411700967780468472
8809292 202 18114467867519338219
9709674 26 18410018723416901694

> <PUBCHEM_SHAPE_MULTIPOLES>
321.39
9.39
1.88
0.66
2.91
0.2
0.02
-0.22
1.27
-0.35
-0.08
0.04
0.02
0.11

> <PUBCHEM_SHAPE_SELFOVERLAP>
680.893

> <PUBCHEM_SHAPE_VOLUME>
179.5

> <PUBCHEM_COORDINATE_TYPE>
2
5
10

$$$$
