1929813
  -OEChem-01171811453D

 59 62  0     0  0  0  0  0  0999 V2000
   -2.3327    1.3992    0.9980 S   0  0  0  0  0  0  0  0  0  0  0  0
    0.1847   -2.9726   -0.7778 O   0  0  0  0  0  0  0  0  0  0  0  0
   -2.6742    2.8047    1.1042 O   0  0  0  0  0  0  0  0  0  0  0  0
   -1.6992    0.7105    2.1067 O   0  0  0  0  0  0  0  0  0  0  0  0
   -1.7006   -1.6777   -0.9340 O   0  0  0  0  0  0  0  0  0  0  0  0
    1.0226    1.4355    0.0603 N   0  0  0  0  0  0  0  0  0  0  0  0
   -1.4238    1.1399   -0.4458 N   0  0  0  0  0  0  0  0  0  0  0  0
    3.3794    1.0351    0.4413 N   0  0  0  0  0  0  0  0  0  0  0  0
    2.6493   -1.6664   -0.1129 N   0  0  0  0  0  0  0  0  0  0  0  0
    0.9950    2.8652    0.2759 C   0  0  0  0  0  0  0  0  0  0  0  0
   -0.0636    0.6599   -0.2644 C   0  0  0  0  0  0  0  0  0  0  0  0
    2.1326    0.6416    0.1462 C   0  0  0  0  0  0  0  0  0  0  0  0
    0.3605   -0.6476   -0.3868 C   0  0  0  0  0  0  0  0  0  0  0  0
    1.2423    3.6456   -1.0142 C   0  0  0  0  0  0  0  0  0  0  0  0
    1.7497   -0.6578   -0.1266 C   0  0  0  0  0  0  0  0  0  0  0  0
    1.2199    5.1523   -0.7610 C   0  0  0  0  0  0  0  0  0  0  0  0
    4.2699    0.0325    0.4540 C   0  0  0  0  0  0  0  0  0  0  0  0
    3.9081   -1.3083    0.1795 C   0  0  0  0  0  0  0  0  0  0  0  0
   -0.4797   -1.7639   -0.7171 C   0  0  0  0  0  0  0  0  0  0  0  0
    1.5049    5.9353   -2.0326 C   0  0  0  0  0  0  0  0  0  0  0  0
   -3.8191    0.5134    0.6277 C   0  0  0  0  0  0  0  0  0  0  0  0
    5.5986    0.3230    0.7486 C   0  0  0  0  0  0  0  0  0  0  0  0
    4.8925   -2.2912    0.2133 C   0  0  0  0  0  0  0  0  0  0  0  0
   -3.9087   -0.8247    0.9665 C   0  0  0  0  0  0  0  0  0  0  0  0
   -4.8619    1.1771    0.0070 C   0  0  0  0  0  0  0  0  0  0  0  0
    6.5739   -0.6723    0.7785 C   0  0  0  0  0  0  0  0  0  0  0  0
    6.2193   -1.9848    0.5100 C   0  0  0  0  0  0  0  0  0  0  0  0
   -5.0806   -1.5227    0.6747 C   0  0  0  0  0  0  0  0  0  0  0  0
   -6.0339    0.4793   -0.2847 C   0  0  0  0  0  0  0  0  0  0  0  0
   -6.1431   -0.8707    0.0491 C   0  0  0  0  0  0  0  0  0  0  0  0
   -0.5945   -4.1294   -1.1026 C   0  0  0  0  0  0  0  0  0  0  0  0
   -7.3967   -1.6164   -0.2615 C   0  0  0  0  0  0  0  0  0  0  0  0
    0.3090   -5.3439   -1.1192 C   0  0  0  0  0  0  0  0  0  0  0  0
    1.7607    3.1044    1.0234 H   0  0  0  0  0  0  0  0  0  0  0  0
    0.0326    3.1357    0.7183 H   0  0  0  0  0  0  0  0  0  0  0  0
    2.2113    3.3576   -1.4411 H   0  0  0  0  0  0  0  0  0  0  0  0
    0.4815    3.3857   -1.7606 H   0  0  0  0  0  0  0  0  0  0  0  0
   -1.4549    1.9402   -1.0923 H   0  0  0  0  0  0  0  0  0  0  0  0
    0.2411    5.4484   -0.3661 H   0  0  0  0  0  0  0  0  0  0  0  0
    1.9684    5.4141   -0.0041 H   0  0  0  0  0  0  0  0  0  0  0  0
    0.7566    5.7195   -2.8019 H   0  0  0  0  0  0  0  0  0  0  0  0
    2.4924    5.6862   -2.4339 H   0  0  0  0  0  0  0  0  0  0  0  0
    1.4824    7.0104   -1.8288 H   0  0  0  0  0  0  0  0  0  0  0  0
    5.8951    1.3484    0.9623 H   0  0  0  0  0  0  0  0  0  0  0  0
    4.6316   -3.3274    0.0047 H   0  0  0  0  0  0  0  0  0  0  0  0
   -3.0938   -1.3503    1.4544 H   0  0  0  0  0  0  0  0  0  0  0  0
   -4.7925    2.2251   -0.2675 H   0  0  0  0  0  0  0  0  0  0  0  0
    7.6039   -0.4196    1.0110 H   0  0  0  0  0  0  0  0  0  0  0  0
    6.9689   -2.7698    0.5301 H   0  0  0  0  0  0  0  0  0  0  0  0
   -5.1529   -2.5745    0.9381 H   0  0  0  0  0  0  0  0  0  0  0  0
   -6.8537    0.9973   -0.7753 H   0  0  0  0  0  0  0  0  0  0  0  0
   -1.3802   -4.2608   -0.3506 H   0  0  0  0  0  0  0  0  0  0  0  0
   -1.0527   -3.9936   -2.0883 H   0  0  0  0  0  0  0  0  0  0  0  0
   -7.3309   -2.0625   -1.2589 H   0  0  0  0  0  0  0  0  0  0  0  0
   -7.5736   -2.4136    0.4686 H   0  0  0  0  0  0  0  0  0  0  0  0
   -8.2686   -0.9543   -0.2298 H   0  0  0  0  0  0  0  0  0  0  0  0
   -0.2552   -6.2479   -1.3645 H   0  0  0  0  0  0  0  0  0  0  0  0
    1.1114   -5.2170   -1.8535 H   0  0  0  0  0  0  0  0  0  0  0  0
    0.7892   -5.4799   -0.1445 H   0  0  0  0  0  0  0  0  0  0  0  0
  1  3  2  0  0  0  0
  1  4  2  0  0  0  0
  1  7  1  0  0  0  0
  1 21  1  0  0  0  0
  2 19  1  0  0  0  0
  2 31  1  0  0  0  0
  5 19  2  0  0  0  0
  6 10  1  0  0  0  0
  6 11  1  0  0  0  0
  6 12  1  0  0  0  0
  7 11  1  0  0  0  0
  7 38  1  0  0  0  0
  8 12  2  0  0  0  0
  8 17  1  0  0  0  0
  9 15  2  0  0  0  0
  9 18  1  0  0  0  0
 10 14  1  0  0  0  0
 10 34  1  0  0  0  0
 10 35  1  0  0  0  0
 11 13  2  0  0  0  0
 12 15  1  0  0  0  0
 13 15  1  0  0  0  0
 13 19  1  0  0  0  0
 14 16  1  0  0  0  0
 14 36  1  0  0  0  0
 14 37  1  0  0  0  0
 16 20  1  0  0  0  0
 16 39  1  0  0  0  0
 16 40  1  0  0  0  0
 17 18  1  0  0  0  0
 17 22  2  0  0  0  0
 18 23  2  0  0  0  0
 20 41  1  0  0  0  0
 20 42  1  0  0  0  0
 20 43  1  0  0  0  0
 21 24  2  0  0  0  0
 21 25  1  0  0  0  0
 22 26  1  0  0  0  0
 22 44  1  0  0  0  0
 23 27  1  0  0  0  0
 23 45  1  0  0  0  0
 24 28  1  0  0  0  0
 24 46  1  0  0  0  0
 25 29  2  0  0  0  0
 25 47  1  0  0  0  0
 26 27  2  0  0  0  0
 26 48  1  0  0  0  0
 27 49  1  0  0  0  0
 28 30  2  0  0  0  0
 28 50  1  0  0  0  0
 29 30  1  0  0  0  0
 29 51  1  0  0  0  0
 30 32  1  0  0  0  0
 31 33  1  0  0  0  0
 31 52  1  0  0  0  0
 31 53  1  0  0  0  0
 32 54  1  0  0  0  0
 32 55  1  0  0  0  0
 32 56  1  0  0  0  0
 33 57  1  0  0  0  0
 33 58  1  0  0  0  0
 33 59  1  0  0  0  0
M  END
> <PUBCHEM_COMPOUND_CID>
1929813

> <PUBCHEM_CONFORMER_RMSD>
1

> <PUBCHEM_CONFORMER_DIVERSEORDER>
1
73
41
18
38
15
65
67
63
46
2
19
27
25
21
16
31
69
68
47
11
55
49
54
14
28
35
56
22
72
52
30
44
24
58
5
45
66
33
9
13
61
43
7
59
39
51
29
26
50
64
3
53
62
37
42
6
34
40
4
57
48
70
20
32
36
10
17
71
12
23
8
60

> <PUBCHEM_MMFF94_PARTIAL_CHARGES>
38
1 1.45
10 0.26
11 -0.01
12 0.11
13 -0.09
15 0.26
17 0.31
18 0.31
19 0.81
2 -0.43
21 -0.01
22 -0.15
23 -0.15
24 -0.15
25 -0.15
26 -0.15
27 -0.15
28 -0.15
29 -0.15
3 -0.65
30 -0.14
31 0.28
32 0.14
38 0.42
4 -0.65
44 0.15
45 0.15
46 0.15
47 0.15
48 0.15
49 0.15
5 -0.57
50 0.15
51 0.15
6 0.05
7 -0.7
8 -0.57
9 -0.57

> <PUBCHEM_EFFECTIVE_ROTOR_COUNT>
9

> <PUBCHEM_PHARMACOPHORE_FEATURES>
11
1 20 hydrophobe
1 3 acceptor
1 4 acceptor
1 5 acceptor
1 7 donor
1 9 acceptor
3 6 8 12 cation
5 6 11 12 13 15 rings
6 17 18 22 23 26 27 rings
6 21 24 25 28 29 30 rings
6 8 9 12 15 17 18 rings

> <PUBCHEM_HEAVY_ATOM_COUNT>
33

> <PUBCHEM_ATOM_DEF_STEREO_COUNT>
0

> <PUBCHEM_ATOM_UDEF_STEREO_COUNT>
0

> <PUBCHEM_BOND_DEF_STEREO_COUNT>
0

> <PUBCHEM_BOND_UDEF_STEREO_COUNT>
0

> <PUBCHEM_ISOTOPIC_ATOM_COUNT>
0

> <PUBCHEM_COMPONENT_COUNT>
1

> <PUBCHEM_CACTVS_TAUTO_COUNT>
4

> <PUBCHEM_CONFORMER_ID>
001D725500000001

> <PUBCHEM_MMFF94_ENERGY>
57.7841

> <PUBCHEM_FEATURE_SELFOVERLAP>
56.012

> <PUBCHEM_SHAPE_FINGERPRINT>
10 15 18342446072401023696
10940486 97 18269552913739784254
1100329 8 18270678812950209811
11135926 11 18271240518318014527
11445158 3 18335420213894091125
11719270 70 18342734088017566887
12166972 35 18413388761105561025
12516196 113 18334011666516120168
13140716 1 17981883361147599034
13617811 41 18338251370995677798
14068700 675 18343018887367335465
14117953 113 18411700946601349989
14466204 15 18411419471281643579
14790565 3 18342178830613732202
14866123 147 18272079530788370742
14955137 171 18335140899402123308
15131766 46 16735250455331375180
15183329 4 12757149065328682723
15849732 13 18412542115555816094
15927050 60 17907020934490882844
18681886 176 18410849988540391265
20028762 73 18131631192758781407
20739085 24 18411706460959315636
21033648 29 18129647608967055712
21267235 1 18341896264831619674
21583282 1 17678750157011306748
23559900 14 18409724089198512193
23569917 315 18201725015921995142
25019877 29 17561080306774451326
3178227 256 18411708703312396755
3380486 145 17974868180826422961
350125 39 18343580737581807730
392239 28 17561089098619881467
6376802 90 18045498617824915525

> <PUBCHEM_SHAPE_MULTIPOLES>
639.57
14.29
6.25
1.22
7.5
5.16
0.05
-7.68
-3.88
-3.62
4.67
0.11
0.54
-1.45

> <PUBCHEM_SHAPE_SELFOVERLAP>
1373.36

> <PUBCHEM_SHAPE_VOLUME>
356.7

> <PUBCHEM_COORDINATE_TYPE>
2
5
10

$$$$
