604063
  -OEChem-01171811543D

 44 46  0     1  0  0  0  0  0999 V2000
    1.8697   -1.0383   -1.6117 O   0  0  0  0  0  0  0  0  0  0  0  0
    2.9995    0.4087   -0.1144 N   0  0  0  0  0  0  0  0  0  0  0  0
    2.7772    1.6418    0.4551 N   0  0  0  0  0  0  0  0  0  0  0  0
   -1.4187    0.8854   -1.2565 N   0  0  0  0  0  0  0  0  0  0  0  0
   -6.3161   -0.9012    0.7856 N   0  0  0  0  0  0  0  0  0  0  0  0
    0.9675    1.1224   -0.9373 C   0  0  1  0  0  0  0  0  0  0  0  0
    1.6399    2.0690    0.0073 C   0  0  0  0  0  0  0  0  0  0  0  0
    1.9699   -0.0024   -0.9752 C   0  0  0  0  0  0  0  0  0  0  0  0
   -0.3889    0.6908   -0.4996 C   0  0  0  0  0  0  0  0  0  0  0  0
    4.1554   -0.2884    0.1988 C   0  0  0  0  0  0  0  0  0  0  0  0
    1.0460    3.3848    0.3766 C   0  0  0  0  0  0  0  0  0  0  0  0
   -2.6478    0.4375   -0.7435 C   0  0  0  0  0  0  0  0  0  0  0  0
    4.3961   -1.5473   -0.3637 C   0  0  0  0  0  0  0  0  0  0  0  0
    5.0946    0.2593    1.0804 C   0  0  0  0  0  0  0  0  0  0  0  0
   -5.0823   -0.4509    0.2714 C   0  0  0  0  0  0  0  0  0  0  0  0
   -3.4292    1.2940    0.0259 C   0  0  0  0  0  0  0  0  0  0  0  0
   -3.0748   -0.8600   -1.0093 C   0  0  0  0  0  0  0  0  0  0  0  0
   -4.6492    0.8488    0.5347 C   0  0  0  0  0  0  0  0  0  0  0  0
   -4.2949   -1.3054   -0.5006 C   0  0  0  0  0  0  0  0  0  0  0  0
    5.5597   -2.2490   -0.0488 C   0  0  0  0  0  0  0  0  0  0  0  0
    6.2583   -0.4424    1.3952 C   0  0  0  0  0  0  0  0  0  0  0  0
    6.4908   -1.6967    0.8304 C   0  0  0  0  0  0  0  0  0  0  0  0
   -6.8283   -0.3713    2.0336 C   0  0  0  0  0  0  0  0  0  0  0  0
   -7.0944   -1.8894    0.0655 C   0  0  0  0  0  0  0  0  0  0  0  0
    0.9238    1.5881   -1.9276 H   0  0  0  0  0  0  0  0  0  0  0  0
   -0.4691    0.2029    0.4902 H   0  0  0  0  0  0  0  0  0  0  0  0
    0.1138    3.2249    0.9242 H   0  0  0  0  0  0  0  0  0  0  0  0
    0.8357    3.9556   -0.5314 H   0  0  0  0  0  0  0  0  0  0  0  0
    1.7377    3.9515    1.0054 H   0  0  0  0  0  0  0  0  0  0  0  0
    3.7252   -2.0419   -1.0524 H   0  0  0  0  0  0  0  0  0  0  0  0
    4.9512    1.2332    1.5411 H   0  0  0  0  0  0  0  0  0  0  0  0
   -3.1004    2.3090    0.2330 H   0  0  0  0  0  0  0  0  0  0  0  0
   -2.4665   -1.5326   -1.6081 H   0  0  0  0  0  0  0  0  0  0  0  0
   -5.2435    1.5431    1.1219 H   0  0  0  0  0  0  0  0  0  0  0  0
   -4.5974   -2.3266   -0.7141 H   0  0  0  0  0  0  0  0  0  0  0  0
    5.7421   -3.2256   -0.4879 H   0  0  0  0  0  0  0  0  0  0  0  0
    6.9839   -0.0128    2.0798 H   0  0  0  0  0  0  0  0  0  0  0  0
    7.3969   -2.2429    1.0756 H   0  0  0  0  0  0  0  0  0  0  0  0
   -7.5875   -1.0351    2.4622 H   0  0  0  0  0  0  0  0  0  0  0  0
   -7.2961    0.6064    1.8772 H   0  0  0  0  0  0  0  0  0  0  0  0
   -6.0356   -0.2743    2.7841 H   0  0  0  0  0  0  0  0  0  0  0  0
   -8.1397   -1.8858    0.3945 H   0  0  0  0  0  0  0  0  0  0  0  0
   -6.6988   -2.8958    0.2381 H   0  0  0  0  0  0  0  0  0  0  0  0
   -7.1026   -1.6866   -1.0114 H   0  0  0  0  0  0  0  0  0  0  0  0
  1  8  2  0  0  0  0
  2  3  1  0  0  0  0
  2  8  1  0  0  0  0
  2 10  1  0  0  0  0
  3  7  2  0  0  0  0
  4  9  2  0  0  0  0
  4 12  1  0  0  0  0
  5 15  1  0  0  0  0
  5 23  1  0  0  0  0
  5 24  1  0  0  0  0
  6  7  1  0  0  0  0
  6  8  1  0  0  0  0
  6  9  1  0  0  0  0
  6 25  1  0  0  0  0
  7 11  1  0  0  0  0
  9 26  1  0  0  0  0
 10 13  2  0  0  0  0
 10 14  1  0  0  0  0
 11 27  1  0  0  0  0
 11 28  1  0  0  0  0
 11 29  1  0  0  0  0
 12 16  2  0  0  0  0
 12 17  1  0  0  0  0
 13 20  1  0  0  0  0
 13 30  1  0  0  0  0
 14 21  2  0  0  0  0
 14 31  1  0  0  0  0
 15 18  2  0  0  0  0
 15 19  1  0  0  0  0
 16 18  1  0  0  0  0
 16 32  1  0  0  0  0
 17 19  2  0  0  0  0
 17 33  1  0  0  0  0
 18 34  1  0  0  0  0
 19 35  1  0  0  0  0
 20 22  2  0  0  0  0
 20 36  1  0  0  0  0
 21 22  1  0  0  0  0
 21 37  1  0  0  0  0
 22 38  1  0  0  0  0
 23 39  1  0  0  0  0
 23 40  1  0  0  0  0
 23 41  1  0  0  0  0
 24 42  1  0  0  0  0
 24 43  1  0  0  0  0
 24 44  1  0  0  0  0
M  END
> <PUBCHEM_COMPOUND_CID>
604063

> <PUBCHEM_CONFORMER_RMSD>
0.8

> <PUBCHEM_CONFORMER_DIVERSEORDER>
1
3
8
4
7
6
5
2

> <PUBCHEM_MMFF94_PARTIAL_CHARGES>
34
1 -0.57
10 0.12
11 0.06
12 0.18
13 -0.15
14 -0.15
15 0.1
16 -0.15
17 -0.15
18 -0.15
19 -0.15
2 -0.11
20 -0.15
21 -0.15
22 -0.15
23 0.37
24 0.37
26 0.06
3 -0.51
30 0.15
31 0.15
32 0.15
33 0.15
34 0.15
35 0.15
36 0.15
37 0.15
38 0.15
4 -0.63
5 -0.84
6 0.18
7 0.33
8 0.57
9 0.33

> <PUBCHEM_EFFECTIVE_ROTOR_COUNT>
4.4

> <PUBCHEM_PHARMACOPHORE_FEATURES>
7
1 1 acceptor
1 3 acceptor
1 4 acceptor
1 5 cation
5 2 3 6 7 8 rings
6 10 13 14 20 21 22 rings
6 12 15 16 17 18 19 rings

> <PUBCHEM_HEAVY_ATOM_COUNT>
24

> <PUBCHEM_ATOM_DEF_STEREO_COUNT>
0

> <PUBCHEM_ATOM_UDEF_STEREO_COUNT>
1

> <PUBCHEM_BOND_DEF_STEREO_COUNT>
0

> <PUBCHEM_BOND_UDEF_STEREO_COUNT>
0

> <PUBCHEM_ISOTOPIC_ATOM_COUNT>
0

> <PUBCHEM_COMPONENT_COUNT>
1

> <PUBCHEM_CACTVS_TAUTO_COUNT>
4

> <PUBCHEM_CONFORMER_ID>
0009379F00000001

> <PUBCHEM_MMFF94_ENERGY>
84.8292

> <PUBCHEM_FEATURE_SELFOVERLAP>
35.522

> <PUBCHEM_SHAPE_FINGERPRINT>
10 15 16917067780531973427
10693767 8 13118544235596910608
11545043 162 17967525762398036149
11646440 116 18410295796157330690
11796584 16 17750222626247981356
12107183 9 18270126699838080385
12516196 113 18410008832523469816
12596602 18 18130786741646616066
12633257 1 18272654592770099631
13533116 47 18336266859575625569
13668630 136 16153710938175333083
13673619 4 17967251996650043557
13685833 64 18260829297747208074
13782708 43 18040716982919997395
14123256 34 18114186315132735906
14251764 18 18341332270562601734
14341114 176 18202283597876604236
14528608 73 8214140759311770860
14849402 71 18200311168696442792
15183329 4 11602816883045257478
15188451 53 18408038533545917799
15348495 7 17846771948989688114
15475509 35 17822838824249269162
15475509 84 17632297839617077424
15510800 12 17822298933838967466
15961568 22 11743844659592640139
16988056 13 11963688737076230918
17980427 23 16200136733788949980
1813 80 17968098586555065836
190975 80 18408600383792552034
1979834 28 17489877016191513238
20028762 73 18411417332135476127
20105231 36 18060139805108687862
2026 5 16443614689367732618
20567600 247 16660639635689007314
20612939 158 8934734309168279468
21049683 271 18260833739540828620
21150785 3 15647061464859248302
21267235 1 18342737365994991942
21298829 104 10447936079089122339
21521239 73 13767924594780128000
21637258 2 17095517371179956388
21792934 111 18272652351578211145
23522609 53 17971787460413716149
23559900 14 16588595339376528429
2838139 119 11167934754219599218
312425 54 18131913775704899315
3383291 50 18186521025115019611
3472631 163 13110958734455831265
351380 3 17894346657593083770
3663271 9 17917991723873177971
3737641 26 18194679268359633826
465052 167 18411980239887349454
5104073 3 17987240109100015715
543368 44 10231758882101794603
559249 180 18187362104739386895
5718773 13 18261954150289133603
59682541 35 18409157836773351984
59682541 52 13406788917899101610
6327066 14 9655277251714522994
8863177 126 18041568047700998147
999808 66 17967541168461427955

> <PUBCHEM_SHAPE_MULTIPOLES>
468.12
19.13
2.41
1.31
9.79
1.16
-0.22
-13.69
-9.25
-1.42
-0.12
0.51
-0.16
0.1

> <PUBCHEM_SHAPE_SELFOVERLAP>
1006.214

> <PUBCHEM_SHAPE_VOLUME>
259.7

> <PUBCHEM_COORDINATE_TYPE>
2
5
10

$$$$
