254722
  -OEChem-01171811573D

 30 31  0     0  0  0  0  0  0999 V2000
   -1.1574   -1.2382    0.0016 O   0  0  0  0  0  0  0  0  0  0  0  0
    6.2656    1.0434   -0.0015 O   0  0  0  0  0  0  0  0  0  0  0  0
   -0.2366    0.8862   -0.0017 O   0  0  0  0  0  0  0  0  0  0  0  0
    1.1190   -1.0229    0.0008 N   0  0  0  0  0  0  0  0  0  0  0  0
   -6.2107    1.0835   -0.0007 N   0  0  0  0  0  0  0  0  0  0  0  0
    2.4308   -0.4968   -0.0003 C   0  0  0  0  0  0  0  0  0  0  0  0
   -2.3944   -0.6709    0.0008 C   0  0  0  0  0  0  0  0  0  0  0  0
    3.5111   -1.3646    0.0010 C   0  0  0  0  0  0  0  0  0  0  0  0
    2.6108    0.8774   -0.0013 C   0  0  0  0  0  0  0  0  0  0  0  0
   -4.9289    0.4950   -0.0005 C   0  0  0  0  0  0  0  0  0  0  0  0
   -3.0289   -0.3821   -1.2075 C   0  0  0  0  0  0  0  0  0  0  0  0
   -3.0274   -0.3768    1.2086 C   0  0  0  0  0  0  0  0  0  0  0  0
   -4.2960    0.2010   -1.2080 C   0  0  0  0  0  0  0  0  0  0  0  0
   -4.2946    0.2061    1.2079 C   0  0  0  0  0  0  0  0  0  0  0  0
    4.8055   -0.8447    0.0015 C   0  0  0  0  0  0  0  0  0  0  0  0
    3.9053    1.3973   -0.0010 C   0  0  0  0  0  0  0  0  0  0  0  0
    5.0027    0.5361    0.0004 C   0  0  0  0  0  0  0  0  0  0  0  0
   -0.0760   -0.3290   -0.0001 C   0  0  0  0  0  0  0  0  0  0  0  0
    3.3687   -2.4417    0.0020 H   0  0  0  0  0  0  0  0  0  0  0  0
    1.8131    1.6058   -0.0023 H   0  0  0  0  0  0  0  0  0  0  0  0
    1.0485   -2.0376    0.0022 H   0  0  0  0  0  0  0  0  0  0  0  0
   -2.5413   -0.6088   -2.1518 H   0  0  0  0  0  0  0  0  0  0  0  0
   -2.5389   -0.5994    2.1533 H   0  0  0  0  0  0  0  0  0  0  0  0
   -4.7799    0.4211   -2.1562 H   0  0  0  0  0  0  0  0  0  0  0  0
   -4.7775    0.4304    2.1556 H   0  0  0  0  0  0  0  0  0  0  0  0
    5.6520   -1.5263    0.0022 H   0  0  0  0  0  0  0  0  0  0  0  0
    4.0539    2.4738   -0.0022 H   0  0  0  0  0  0  0  0  0  0  0  0
   -6.6706    1.2945   -0.8763 H   0  0  0  0  0  0  0  0  0  0  0  0
   -6.6693    1.2982    0.8748 H   0  0  0  0  0  0  0  0  0  0  0  0
    6.9010    0.3069   -0.0006 H   0  0  0  0  0  0  0  0  0  0  0  0
  1  7  1  0  0  0  0
  1 18  1  0  0  0  0
  2 17  1  0  0  0  0
  2 30  1  0  0  0  0
  3 18  2  0  0  0  0
  4  6  1  0  0  0  0
  4 18  1  0  0  0  0
  4 21  1  0  0  0  0
  5 10  1  0  0  0  0
  5 28  1  0  0  0  0
  5 29  1  0  0  0  0
  6  8  2  0  0  0  0
  6  9  1  0  0  0  0
  7 11  2  0  0  0  0
  7 12  1  0  0  0  0
  8 15  1  0  0  0  0
  8 19  1  0  0  0  0
  9 16  2  0  0  0  0
  9 20  1  0  0  0  0
 10 13  2  0  0  0  0
 10 14  1  0  0  0  0
 11 13  1  0  0  0  0
 11 22  1  0  0  0  0
 12 14  2  0  0  0  0
 12 23  1  0  0  0  0
 13 24  1  0  0  0  0
 14 25  1  0  0  0  0
 15 17  2  0  0  0  0
 15 26  1  0  0  0  0
 16 17  1  0  0  0  0
 16 27  1  0  0  0  0
M  END
> <PUBCHEM_COMPOUND_CID>
254722

> <PUBCHEM_CONFORMER_RMSD>
0.6

> <PUBCHEM_CONFORMER_DIVERSEORDER>
1
17
6
20
18
19
12
5
8
4
7
3
2
13
14
9
11
10
22
21
16
15

> <PUBCHEM_MMFF94_PARTIAL_CHARGES>
30
1 -0.23
10 0.1
11 -0.15
12 -0.15
13 -0.15
14 -0.15
15 -0.15
16 -0.15
17 0.08
18 0.78
19 0.15
2 -0.53
20 0.15
21 0.37
22 0.15
23 0.15
24 0.15
25 0.15
26 0.15
27 0.15
28 0.4
29 0.4
3 -0.57
30 0.45
4 -0.55
5 -0.9
6 0.12
7 0.08
8 -0.15
9 -0.15

> <PUBCHEM_EFFECTIVE_ROTOR_COUNT>
4

> <PUBCHEM_PHARMACOPHORE_FEATURES>
7
1 2 donor
1 3 acceptor
1 4 donor
1 5 cation
1 5 donor
6 6 8 9 15 16 17 rings
6 7 10 11 12 13 14 rings

> <PUBCHEM_HEAVY_ATOM_COUNT>
18

> <PUBCHEM_ATOM_DEF_STEREO_COUNT>
0

> <PUBCHEM_ATOM_UDEF_STEREO_COUNT>
0

> <PUBCHEM_BOND_DEF_STEREO_COUNT>
0

> <PUBCHEM_BOND_UDEF_STEREO_COUNT>
0

> <PUBCHEM_ISOTOPIC_ATOM_COUNT>
0

> <PUBCHEM_COMPONENT_COUNT>
1

> <PUBCHEM_CACTVS_TAUTO_COUNT>
4

> <PUBCHEM_CONFORMER_ID>
0003E30200000001

> <PUBCHEM_MMFF94_ENERGY>
66.9229

> <PUBCHEM_FEATURE_SELFOVERLAP>
35.522

> <PUBCHEM_SHAPE_FINGERPRINT>
10014705 185 18408882962407221495
10912923 1 17918272039029539234
11089746 13 17704069620971646008
11315181 36 16343703261235221691
11471102 20 18412543219810622014
117890 112 18412825776512559760
12107183 9 17268367019557577258
12236239 1 17917991672243821407
12596602 18 13840266996219967900
13167372 99 18270120102266965233
13288520 33 9799689303687320641
13533116 47 17489307430419095710
13675066 3 17821452373660676851
14123238 8 10665228146458360838
14251718 22 14476960103478237520
14528608 73 17561078142195095248
15048467 5 18341894095182019304
17834072 33 17704067425726262911
17844677 252 16443068296180615372
17870717 6 14405187283379204213
19489759 90 15195568991917471187
200 152 17989203750292592137
20281389 69 18259982660745719597
20645477 56 17894344497192853063
20645477 70 18339077095316669694
21033648 29 18041544906264466661
21150785 3 17132109178039407813
22224240 67 17603872183426987627
2297311 6 16081375107286597199
23402539 116 17632574954810870525
23402655 69 18272086132605849822
23557571 272 16588307116547370503
23559900 14 14907884007771938923
26918003 58 18113339721386362520
29717793 49 17346322579335778188
300161 21 17989201555944209458
34797466 226 14764344985158125904
3545911 37 18335140907859955114
5104073 3 18335414725200355586
542803 24 17775004582981941075
5924683 9 17605000380614449843
602551 16 15936701461750686698
7495541 125 13334747846426099830
8272917 22 18271808978166240310

> <PUBCHEM_SHAPE_MULTIPOLES>
342.86
14.57
1.26
0.94
1.44
0.02
0
4.31
-0.01
1.03
0
-1.28
-0.03
0

> <PUBCHEM_SHAPE_SELFOVERLAP>
737.776

> <PUBCHEM_SHAPE_VOLUME>
186.9

> <PUBCHEM_COORDINATE_TYPE>
2
5
10

$$$$
