775593
  -OEChem-01171812073D

 36 38  0     0  0  0  0  0  0999 V2000
    0.7368   -0.2364   -1.3453 O   0  0  0  0  0  0  0  0  0  0  0  0
    2.2657   -1.0242    2.1263 O   0  0  0  0  0  0  0  0  0  0  0  0
    3.6353    1.1942   -1.6887 O   0  0  0  0  0  0  0  0  0  0  0  0
   -0.8869    0.7738    0.0268 N   0  0  0  0  0  0  0  0  0  0  0  0
    2.6568    0.3317    0.2560 N   0  0  0  0  0  0  0  0  0  0  0  0
   -1.2283    2.0665    0.6493 C   0  0  0  0  0  0  0  0  0  0  0  0
   -2.5652    2.6009    0.1667 C   0  0  0  0  0  0  0  0  0  0  0  0
   -3.6629    1.6243    0.5381 C   0  0  0  0  0  0  0  0  0  0  0  0
   -1.9693   -0.1805   -0.1080 C   0  0  0  0  0  0  0  0  0  0  0  0
   -3.3056    0.2196    0.1276 C   0  0  0  0  0  0  0  0  0  0  0  0
    1.5321    1.2014    0.3463 C   0  0  0  0  0  0  0  0  0  0  0  0
    0.4236    0.5001   -0.4075 C   0  0  0  0  0  0  0  0  0  0  0  0
    4.1879   -1.3942    0.7234 C   0  0  0  0  0  0  0  0  0  0  0  0
    4.6410   -0.6632   -0.5294 C   0  0  0  0  0  0  0  0  0  0  0  0
    2.9257   -0.7007    1.1484 C   0  0  0  0  0  0  0  0  0  0  0  0
    3.6103    0.4049   -0.7544 C   0  0  0  0  0  0  0  0  0  0  0  0
   -1.7421   -1.5299   -0.4326 C   0  0  0  0  0  0  0  0  0  0  0  0
   -4.3555   -0.7115    0.0228 C   0  0  0  0  0  0  0  0  0  0  0  0
   -2.7963   -2.4428   -0.5448 C   0  0  0  0  0  0  0  0  0  0  0  0
   -4.1030   -2.0341   -0.3210 C   0  0  0  0  0  0  0  0  0  0  0  0
   -0.4541    2.8034    0.4127 H   0  0  0  0  0  0  0  0  0  0  0  0
   -1.2256    1.9211    1.7365 H   0  0  0  0  0  0  0  0  0  0  0  0
   -2.5367    2.7378   -0.9220 H   0  0  0  0  0  0  0  0  0  0  0  0
   -2.7685    3.5800    0.6139 H   0  0  0  0  0  0  0  0  0  0  0  0
   -4.5958    1.9377    0.0544 H   0  0  0  0  0  0  0  0  0  0  0  0
   -3.8266    1.6386    1.6227 H   0  0  0  0  0  0  0  0  0  0  0  0
    1.2628    1.3402    1.3970 H   0  0  0  0  0  0  0  0  0  0  0  0
    1.7450    2.1610   -0.1332 H   0  0  0  0  0  0  0  0  0  0  0  0
    4.9349   -1.3229    1.5194 H   0  0  0  0  0  0  0  0  0  0  0  0
    3.9782   -2.4476    0.5162 H   0  0  0  0  0  0  0  0  0  0  0  0
    4.6725   -1.3339   -1.3930 H   0  0  0  0  0  0  0  0  0  0  0  0
    5.6241   -0.2043   -0.3903 H   0  0  0  0  0  0  0  0  0  0  0  0
   -0.7394   -1.9190   -0.5814 H   0  0  0  0  0  0  0  0  0  0  0  0
   -5.3810   -0.4026    0.2128 H   0  0  0  0  0  0  0  0  0  0  0  0
   -2.5878   -3.4787   -0.7973 H   0  0  0  0  0  0  0  0  0  0  0  0
   -4.9204   -2.7440   -0.4016 H   0  0  0  0  0  0  0  0  0  0  0  0
  1 12  2  0  0  0  0
  2 15  2  0  0  0  0
  3 16  2  0  0  0  0
  4  6  1  0  0  0  0
  4  9  1  0  0  0  0
  4 12  1  0  0  0  0
  5 11  1  0  0  0  0
  5 15  1  0  0  0  0
  5 16  1  0  0  0  0
  6  7  1  0  0  0  0
  6 21  1  0  0  0  0
  6 22  1  0  0  0  0
  7  8  1  0  0  0  0
  7 23  1  0  0  0  0
  7 24  1  0  0  0  0
  8 10  1  0  0  0  0
  8 25  1  0  0  0  0
  8 26  1  0  0  0  0
  9 10  1  0  0  0  0
  9 17  2  0  0  0  0
 10 18  2  0  0  0  0
 11 12  1  0  0  0  0
 11 27  1  0  0  0  0
 11 28  1  0  0  0  0
 13 14  1  0  0  0  0
 13 15  1  0  0  0  0
 13 29  1  0  0  0  0
 13 30  1  0  0  0  0
 14 16  1  0  0  0  0
 14 31  1  0  0  0  0
 14 32  1  0  0  0  0
 17 19  1  0  0  0  0
 17 33  1  0  0  0  0
 18 20  1  0  0  0  0
 18 34  1  0  0  0  0
 19 20  2  0  0  0  0
 19 35  1  0  0  0  0
 20 36  1  0  0  0  0
M  END
> <PUBCHEM_COMPOUND_CID>
775593

> <PUBCHEM_CONFORMER_RMSD>
0.6

> <PUBCHEM_CONFORMER_DIVERSEORDER>
1
16
15
7
3
5
8
4
10
9
11
6
14
12
13
2

> <PUBCHEM_MMFF94_PARTIAL_CHARGES>
23
1 -0.57
10 -0.14
11 0.36
12 0.57
13 0.06
14 0.06
15 0.57
16 0.57
17 -0.15
18 -0.15
19 -0.15
2 -0.57
20 -0.15
3 -0.57
33 0.15
34 0.15
35 0.15
36 0.15
4 -0.48
5 -0.42
6 0.3
8 0.14
9 0.12

> <PUBCHEM_EFFECTIVE_ROTOR_COUNT>
4.4

> <PUBCHEM_PHARMACOPHORE_FEATURES>
6
1 1 acceptor
1 2 acceptor
1 3 acceptor
5 5 13 14 15 16 rings
6 4 6 7 8 9 10 rings
6 9 10 17 18 19 20 rings

> <PUBCHEM_HEAVY_ATOM_COUNT>
20

> <PUBCHEM_ATOM_DEF_STEREO_COUNT>
0

> <PUBCHEM_ATOM_UDEF_STEREO_COUNT>
0

> <PUBCHEM_BOND_DEF_STEREO_COUNT>
0

> <PUBCHEM_BOND_UDEF_STEREO_COUNT>
0

> <PUBCHEM_ISOTOPIC_ATOM_COUNT>
0

> <PUBCHEM_COMPONENT_COUNT>
1

> <PUBCHEM_CACTVS_TAUTO_COUNT>
3

> <PUBCHEM_CONFORMER_ID>
000BD5A900000001

> <PUBCHEM_MMFF94_ENERGY>
50.2098

> <PUBCHEM_FEATURE_SELFOVERLAP>
30.471

> <PUBCHEM_SHAPE_FINGERPRINT>
10366900 7 17275100587684868825
10616163 171 18411983546231958590
11046707 91 18411980278046130715
11578080 2 17897977292043483996
12107183 9 17831577578999165192
12236239 1 18114184124625379877
12346177 29 18130493172326745109
12553582 1 18268706280943422991
12633257 1 18060429001592006065
12670545 47 17203604908544736421
12670546 56 18408038519943844492
12714826 92 18059857276782878889
12788726 201 18410580595591410289
13167823 11 18261114058241985762
13538477 17 18410289173354695992
13583140 156 17560221553880709714
13675066 3 17632571639502189374
13760787 19 18333736788371877052
13862211 1 18271240625713503735
14420673 8 17981046310830081094
15042514 8 18412268342056535547
15375462 189 18260546749007574595
15669948 3 18411419518441725341
16752209 62 18340756075214902067
17349148 13 18201430385733522517
17804303 29 18273215317888373689
1813 80 17459196187953719758
18186145 218 13190610603524457988
18222031 100 17845086445415239591
18915474 69 18334576871359007286
19422 9 18333733507327865398
200 152 17676486146573760736
20281475 54 18334852801485381442
20291156 8 18337105765129650507
20600515 1 18059299751490015640
20645477 70 15574704769024157042
21033648 29 16343410726844415738
21267235 1 18411427236651242319
22646028 28 18334290976650095354
23366157 5 18048314745755109177
23402539 116 18202556285962079485
23557571 272 17846511313653161981
23559900 14 18201719552770137820
23598291 2 18114187423345126804
23598294 1 18412824685775327273
2838139 119 13469307076604731579
312423 11 18261120685439905100
4214541 1 18412827962672044916
474 4 17459764807411931364
5104073 3 18272652359039011472
559249 180 18263359192229712338
573450 72 18410291389325432827
602551 16 18273210894088026042
6034566 193 15651592719701716188
603831 33 18259986006641034324
633830 44 16443067162167005724
67856867 119 18263080063033515820
7097593 13 18118673323433499410
77492 1 18113618975648832953
7970288 3 18197494232638274367
9709674 26 18130231462510306807

> <PUBCHEM_SHAPE_MULTIPOLES>
384.02
9.45
2.41
1.18
4.04
0.2
0.16
-2.8
-0.24
-2.79
0.05
1.35
-0.11
-1.27

> <PUBCHEM_SHAPE_SELFOVERLAP>
827.247

> <PUBCHEM_SHAPE_VOLUME>
211.7

> <PUBCHEM_COORDINATE_TYPE>
2
5
10

$$$$
