1405137
  -OEChem-01171811413D

 43 47  0     0  0  0  0  0  0999 V2000
    2.4703   -3.6215   -0.2999 O   0  0  0  0  0  0  0  0  0  0  0  0
   -2.3700   -2.5179    0.0616 O   0  0  0  0  0  0  0  0  0  0  0  0
   -1.1854    2.5260    1.0314 O   0  0  0  0  0  0  0  0  0  0  0  0
    0.2452   -1.9785    0.1642 N   0  0  0  0  0  0  0  0  0  0  0  0
    1.0593    0.7915    0.8019 N   0  0  0  0  0  0  0  0  0  0  0  0
    1.6376    0.8361    2.0197 N   0  0  0  0  0  0  0  0  0  0  0  0
    2.8791    1.2832    1.8657 N   0  0  0  0  0  0  0  0  0  0  0  0
   -0.6148   -0.9304    0.3126 C   0  0  0  0  0  0  0  0  0  0  0  0
    0.3555   -2.7311   -1.0854 C   0  0  0  0  0  0  0  0  0  0  0  0
    0.9821   -2.5532    1.2899 C   0  0  0  0  0  0  0  0  0  0  0  0
   -0.2787    0.3612    0.5544 C   0  0  0  0  0  0  0  0  0  0  0  0
    1.8270   -2.9731   -1.3999 C   0  0  0  0  0  0  0  0  0  0  0  0
    2.4262   -2.8038    0.8721 C   0  0  0  0  0  0  0  0  0  0  0  0
   -2.0418   -1.3358    0.0991 C   0  0  0  0  0  0  0  0  0  0  0  0
   -3.0500   -0.2906   -0.1021 C   0  0  0  0  0  0  0  0  0  0  0  0
   -2.7220    1.0380    0.1217 C   0  0  0  0  0  0  0  0  0  0  0  0
   -1.3772    1.3969    0.5892 C   0  0  0  0  0  0  0  0  0  0  0  0
    1.9261    1.2139   -0.1721 C   0  0  0  0  0  0  0  0  0  0  0  0
   -4.3436   -0.6349   -0.5137 C   0  0  0  0  0  0  0  0  0  0  0  0
   -3.6872    2.0364   -0.0642 C   0  0  0  0  0  0  0  0  0  0  0  0
    3.0817    1.5225    0.5322 C   0  0  0  0  0  0  0  0  0  0  0  0
   -5.3029    0.3599   -0.7029 C   0  0  0  0  0  0  0  0  0  0  0  0
    1.8063    1.3481   -1.5537 C   0  0  0  0  0  0  0  0  0  0  0  0
   -4.9747    1.6948   -0.4790 C   0  0  0  0  0  0  0  0  0  0  0  0
    4.2053    1.9975   -0.1600 C   0  0  0  0  0  0  0  0  0  0  0  0
    2.9342    1.8229   -2.2325 C   0  0  0  0  0  0  0  0  0  0  0  0
    4.1123    2.1420   -1.5504 C   0  0  0  0  0  0  0  0  0  0  0  0
   -0.1112   -2.1960   -1.9209 H   0  0  0  0  0  0  0  0  0  0  0  0
   -0.1584   -3.6925   -0.9673 H   0  0  0  0  0  0  0  0  0  0  0  0
    0.5061   -3.5031    1.5625 H   0  0  0  0  0  0  0  0  0  0  0  0
    0.9529   -1.9085    2.1747 H   0  0  0  0  0  0  0  0  0  0  0  0
    1.9216   -3.6232   -2.2753 H   0  0  0  0  0  0  0  0  0  0  0  0
    2.3494   -2.0349   -1.6225 H   0  0  0  0  0  0  0  0  0  0  0  0
    2.9595   -1.8659    0.6785 H   0  0  0  0  0  0  0  0  0  0  0  0
    2.9597   -3.3313    1.6688 H   0  0  0  0  0  0  0  0  0  0  0  0
   -4.6217   -1.6696   -0.6954 H   0  0  0  0  0  0  0  0  0  0  0  0
   -3.4558    3.0843    0.1071 H   0  0  0  0  0  0  0  0  0  0  0  0
    0.8943    1.1002   -2.0844 H   0  0  0  0  0  0  0  0  0  0  0  0
   -6.3055    0.0933   -1.0243 H   0  0  0  0  0  0  0  0  0  0  0  0
   -5.7214    2.4698   -0.6250 H   0  0  0  0  0  0  0  0  0  0  0  0
    5.1237    2.2475    0.3610 H   0  0  0  0  0  0  0  0  0  0  0  0
    2.8929    1.9452   -3.3121 H   0  0  0  0  0  0  0  0  0  0  0  0
    4.9710    2.5083   -2.1075 H   0  0  0  0  0  0  0  0  0  0  0  0
  1 12  1  0  0  0  0
  1 13  1  0  0  0  0
  2 14  2  0  0  0  0
  3 17  2  0  0  0  0
  4  8  1  0  0  0  0
  4  9  1  0  0  0  0
  4 10  1  0  0  0  0
  5  6  1  0  0  0  0
  5 11  1  0  0  0  0
  5 18  1  0  0  0  0
  6  7  2  0  0  0  0
  7 21  1  0  0  0  0
  8 11  2  0  0  0  0
  8 14  1  0  0  0  0
  9 12  1  0  0  0  0
  9 28  1  0  0  0  0
  9 29  1  0  0  0  0
 10 13  1  0  0  0  0
 10 30  1  0  0  0  0
 10 31  1  0  0  0  0
 11 17  1  0  0  0  0
 12 32  1  0  0  0  0
 12 33  1  0  0  0  0
 13 34  1  0  0  0  0
 13 35  1  0  0  0  0
 14 15  1  0  0  0  0
 15 16  1  0  0  0  0
 15 19  2  0  0  0  0
 16 17  1  0  0  0  0
 16 20  2  0  0  0  0
 18 21  1  0  0  0  0
 18 23  2  0  0  0  0
 19 22  1  0  0  0  0
 19 36  1  0  0  0  0
 20 24  1  0  0  0  0
 20 37  1  0  0  0  0
 21 25  2  0  0  0  0
 22 24  2  0  0  0  0
 22 39  1  0  0  0  0
 23 26  1  0  0  0  0
 23 38  1  0  0  0  0
 24 40  1  0  0  0  0
 25 27  1  0  0  0  0
 25 41  1  0  0  0  0
 26 27  2  0  0  0  0
 26 42  1  0  0  0  0
 27 43  1  0  0  0  0
M  END
> <PUBCHEM_COMPOUND_CID>
1405137

> <PUBCHEM_CONFORMER_RMSD>
0.8

> <PUBCHEM_CONFORMER_DIVERSEORDER>
1
3
2
4
5
6

> <PUBCHEM_MMFF94_PARTIAL_CHARGES>
35
1 -0.56
10 0.37
11 -0.02
12 0.28
13 0.28
14 0.47
15 0.09
16 0.09
17 0.47
18 -0.15
19 -0.15
2 -0.57
20 -0.15
21 0.23
22 -0.15
23 -0.15
24 -0.15
25 -0.15
26 -0.15
27 -0.15
3 -0.57
36 0.15
37 0.15
38 0.15
39 0.15
4 -0.84
40 0.15
41 0.15
42 0.15
43 0.15
5 0.6
6 -0.42
7 -0.23
8 0.11
9 0.37

> <PUBCHEM_EFFECTIVE_ROTOR_COUNT>
3.2

> <PUBCHEM_PHARMACOPHORE_FEATURES>
9
1 1 acceptor
1 2 acceptor
1 3 acceptor
1 4 cation
5 5 6 7 18 21 rings
6 1 4 9 10 12 13 rings
6 15 16 19 20 22 24 rings
6 18 21 23 25 26 27 rings
6 8 11 14 15 16 17 rings

> <PUBCHEM_HEAVY_ATOM_COUNT>
27

> <PUBCHEM_ATOM_DEF_STEREO_COUNT>
0

> <PUBCHEM_ATOM_UDEF_STEREO_COUNT>
0

> <PUBCHEM_BOND_DEF_STEREO_COUNT>
0

> <PUBCHEM_BOND_UDEF_STEREO_COUNT>
0

> <PUBCHEM_ISOTOPIC_ATOM_COUNT>
0

> <PUBCHEM_COMPONENT_COUNT>
1

> <PUBCHEM_CACTVS_TAUTO_COUNT>
1

> <PUBCHEM_CONFORMER_ID>
001570D100000001

> <PUBCHEM_MMFF94_ENERGY>
101.4901

> <PUBCHEM_FEATURE_SELFOVERLAP>
45.799

> <PUBCHEM_SHAPE_FINGERPRINT>
1100329 8 17552362073051493873
11370993 70 18338807826626023436
11582403 64 15981398834386848906
11640471 11 17604714524354228940
11963148 33 18191859248968965819
12156800 1 15839828998781858790
12236239 1 17750224962721272624
12422481 6 18046594886430649546
12788726 201 17394740917731247926
13140716 1 18268712698014492619
133893 2 18191886538525259672
14181834 199 18266462005590446610
15163728 17 17823158850150919004
15439362 3 18260833657397658388
15463212 79 17901105540590408716
16752209 62 18121215643261158754
1813 80 17904764379821353010
18681886 176 18263640835254018632
20554085 129 18129926975542046504
20567600 347 18412545448344968774
20600515 1 17478326436014650422
20642791 178 18122917429673850481
20691752 17 17604150303438173227
20715895 44 17680965433088309661
20905425 154 18343306963355248039
21756936 100 16373563910472890444
22393880 68 18060137673728118959
23366157 5 18187925010973430827
23419403 2 17762586557308897358
23558518 356 18194688055888751385
23559900 14 18198614441749450275
25147074 1 18128822945940880145
3298306 158 18341613758324033071
350125 39 18123190100358332265
4280585 95 17978794502463183366
460360 51 18127140684370401545
469060 322 17973746932642715459
474 4 18040432196328290179
5081480 168 18117273649357574383
513532 50 16988832882674937691
5265222 85 18051701233658797700
57527295 17 17201669716872949228
59755656 215 18411698760119734342
6669772 16 17488731398458949168
7364860 26 18200585891561849539
81228 2 16975331159254538338
9981440 41 18262521519009256138

> <PUBCHEM_SHAPE_MULTIPOLES>
518.12
8.42
3.98
1.56
7.18
3.35
-0.1
-5.39
-2.37
-3.04
-0.56
-1.68
-0.38
-0.62

> <PUBCHEM_SHAPE_SELFOVERLAP>
1162.609

> <PUBCHEM_SHAPE_VOLUME>
273.3

> <PUBCHEM_COORDINATE_TYPE>
2
5
10

$$$$
