5767865
  -OEChem-01171811593D

 33 35  0     0  0  0  0  0  0999 V2000
   -0.4144   -2.6859   -0.0005 O   0  0  0  0  0  0  0  0  0  0  0  0
    6.4851    1.0433   -0.0001 O   0  0  0  0  0  0  0  0  0  0  0  0
    1.2031   -0.6966   -0.0005 N   0  0  0  0  0  0  0  0  0  0  0  0
   -2.3951    0.4688    0.0001 C   0  0  0  0  0  0  0  0  0  0  0  0
   -1.1978   -0.4074    0.0000 C   0  0  0  0  0  0  0  0  0  0  0  0
   -3.6665   -0.1392    0.0002 C   0  0  0  0  0  0  0  0  0  0  0  0
   -1.3564   -1.9000    0.0002 C   0  0  0  0  0  0  0  0  0  0  0  0
   -2.3285    1.8727    0.0000 C   0  0  0  0  0  0  0  0  0  0  0  0
   -3.8007   -1.5985    0.0003 C   0  0  0  0  0  0  0  0  0  0  0  0
    0.0696    0.0391   -0.0004 C   0  0  0  0  0  0  0  0  0  0  0  0
   -4.8283    0.6492    0.0001 C   0  0  0  0  0  0  0  0  0  0  0  0
   -2.7449   -2.4173    0.0002 C   0  0  0  0  0  0  0  0  0  0  0  0
   -3.4903    2.6492    0.0000 C   0  0  0  0  0  0  0  0  0  0  0  0
    2.5407   -0.2564   -0.0007 C   0  0  0  0  0  0  0  0  0  0  0  0
   -4.7387    2.0387    0.0000 C   0  0  0  0  0  0  0  0  0  0  0  0
    3.5831   -1.1848    0.0000 C   0  0  0  0  0  0  0  0  0  0  0  0
    2.8273    1.1099   -0.0007 C   0  0  0  0  0  0  0  0  0  0  0  0
    4.9080   -0.7483    0.0008 C   0  0  0  0  0  0  0  0  0  0  0  0
    4.1521    1.5464    0.0001 C   0  0  0  0  0  0  0  0  0  0  0  0
    5.1926    0.6173    0.0008 C   0  0  0  0  0  0  0  0  0  0  0  0
   -1.3814    2.4039    0.0000 H   0  0  0  0  0  0  0  0  0  0  0  0
   -4.8019   -2.0189    0.0003 H   0  0  0  0  0  0  0  0  0  0  0  0
    0.2427    1.1036   -0.0005 H   0  0  0  0  0  0  0  0  0  0  0  0
   -5.8134    0.1881    0.0001 H   0  0  0  0  0  0  0  0  0  0  0  0
   -2.8774   -3.4938    0.0002 H   0  0  0  0  0  0  0  0  0  0  0  0
    1.0991   -1.7042   -0.0009 H   0  0  0  0  0  0  0  0  0  0  0  0
   -3.4164    3.7330   -0.0002 H   0  0  0  0  0  0  0  0  0  0  0  0
   -5.6411    2.6427   -0.0001 H   0  0  0  0  0  0  0  0  0  0  0  0
    3.3759   -2.2520    0.0000 H   0  0  0  0  0  0  0  0  0  0  0  0
    2.0656    1.8812   -0.0012 H   0  0  0  0  0  0  0  0  0  0  0  0
    5.7094   -1.4823    0.0011 H   0  0  0  0  0  0  0  0  0  0  0  0
    4.3685    2.6114   -0.0002 H   0  0  0  0  0  0  0  0  0  0  0  0
    7.0724    0.2679    0.0002 H   0  0  0  0  0  0  0  0  0  0  0  0
  1  7  2  0  0  0  0
  2 20  1  0  0  0  0
  2 33  1  0  0  0  0
  3 10  1  0  0  0  0
  3 14  1  0  0  0  0
  3 26  1  0  0  0  0
  4  5  1  0  0  0  0
  4  6  1  0  0  0  0
  4  8  2  0  0  0  0
  5  7  1  0  0  0  0
  5 10  2  0  0  0  0
  6  9  1  0  0  0  0
  6 11  2  0  0  0  0
  7 12  1  0  0  0  0
  8 13  1  0  0  0  0
  8 21  1  0  0  0  0
  9 12  2  0  0  0  0
  9 22  1  0  0  0  0
 10 23  1  0  0  0  0
 11 15  1  0  0  0  0
 11 24  1  0  0  0  0
 12 25  1  0  0  0  0
 13 15  2  0  0  0  0
 13 27  1  0  0  0  0
 14 16  2  0  0  0  0
 14 17  1  0  0  0  0
 15 28  1  0  0  0  0
 16 18  1  0  0  0  0
 16 29  1  0  0  0  0
 17 19  2  0  0  0  0
 17 30  1  0  0  0  0
 18 20  2  0  0  0  0
 18 31  1  0  0  0  0
 19 20  1  0  0  0  0
 19 32  1  0  0  0  0
M  END
> <PUBCHEM_COMPOUND_CID>
5767865

> <PUBCHEM_CONFORMER_RMSD>
0.6

> <PUBCHEM_CONFORMER_DIVERSEORDER>
1
2

> <PUBCHEM_MMFF94_PARTIAL_CHARGES>
33
1 -0.57
10 -0.05
11 -0.15
12 -0.14
13 -0.15
14 0.1
15 -0.15
16 -0.15
17 -0.15
18 -0.15
19 -0.15
2 -0.53
20 0.08
21 0.15
22 0.15
23 0.15
24 0.15
25 0.15
26 0.4
27 0.15
28 0.15
29 0.15
3 -0.6
30 0.15
31 0.15
32 0.15
33 0.45
4 0.03
5 -0.01
6 0.03
7 0.54
8 -0.15
9 -0.18

> <PUBCHEM_EFFECTIVE_ROTOR_COUNT>
2

> <PUBCHEM_PHARMACOPHORE_FEATURES>
7
1 1 acceptor
1 2 donor
1 3 cation
1 3 donor
6 14 16 17 18 19 20 rings
6 4 5 6 7 9 12 rings
6 4 6 8 11 13 15 rings

> <PUBCHEM_HEAVY_ATOM_COUNT>
20

> <PUBCHEM_ATOM_DEF_STEREO_COUNT>
0

> <PUBCHEM_ATOM_UDEF_STEREO_COUNT>
0

> <PUBCHEM_BOND_DEF_STEREO_COUNT>
1

> <PUBCHEM_BOND_UDEF_STEREO_COUNT>
0

> <PUBCHEM_ISOTOPIC_ATOM_COUNT>
0

> <PUBCHEM_COMPONENT_COUNT>
1

> <PUBCHEM_CACTVS_TAUTO_COUNT>
6

> <PUBCHEM_CONFORMER_ID>
005802B900000001

> <PUBCHEM_MMFF94_ENERGY>
68.8934

> <PUBCHEM_FEATURE_SELFOVERLAP>
35.541

> <PUBCHEM_SHAPE_FINGERPRINT>
10319926 262 18340472436028550522
10411042 1 17906172111841865191
10493431 412 18340495444242448049
10595046 47 18335701710725328390
11315181 36 18040996301860003164
11405975 8 18408037399421487218
11595378 159 17458611290527712832
12107183 9 17975125440671504418
12173636 292 18410852178968547743
12236239 1 17894347778442190162
12390115 104 18200046036217472937
12596602 18 17240766206751199792
13073987 5 18334855030853334082
13167823 11 18335417980669559682
14251764 75 17695918726638348249
14341114 176 18410580565389729140
14508225 48 18054492876227526039
14790565 3 18197223546898797713
15042514 8 18192717958864865379
15196674 1 18410856555677261574
17834072 32 18338800009548212785
17844677 252 18338242669011964584
1813 80 16588310458232016750
20510252 161 18341898515146400891
20645477 56 18410575080436891297
20645477 70 16916798331949118830
21033648 29 17774707754146007384
21065198 48 18261105279809140722
21065198 57 18411136965665697570
21236236 1 18413388757089888847
21267235 1 18336835306649511235
21421861 104 17750502993819605498
23227448 37 18412825789571372925
23402539 116 18341607135658445165
23402655 69 18410573998743202350
23557571 272 18271533081971712628
23559900 14 18200876158959341038
245318 6 16665725105013267068
3004659 81 18336830789298717422
335352 9 18338517418275819838
350125 39 18411421743525052033
3545911 37 18412827984405331216
4073 2 18114187471354794578
4214541 1 18410575089253588228
441001 317 18411698798516197864
445580 37 18337966670567099124
5104073 3 18335417967858271186
559249 180 18410289177918922610
6327066 14 18262230003027235613
77779 3 18410575102291418958
9709674 26 18413395340863836398
9981440 41 18334860498299476323

> <PUBCHEM_SHAPE_MULTIPOLES>
394.87
12.82
2.68
0.6
13.72
0.32
0
-5.32
0
-2.78
0
-0.03
-0.01
0

> <PUBCHEM_SHAPE_SELFOVERLAP>
870.558

> <PUBCHEM_SHAPE_VOLUME>
210.3

> <PUBCHEM_COORDINATE_TYPE>
2
5
10

$$$$
