818820
  -OEChem-01171811523D

 37 38  0     0  0  0  0  0  0999 V2000
   -1.8645    2.5963   -0.2070 O   0  0  0  0  0  0  0  0  0  0  0  0
   -1.1233   -2.1036   -0.3005 O   0  0  0  0  0  0  0  0  0  0  0  0
    0.9359   -0.4571   -0.1212 N   0  0  0  0  0  0  0  0  0  0  0  0
    6.4836    0.3130    0.2038 N   0  0  0  0  0  0  0  0  0  0  0  0
   -4.2031   -0.1893    0.2196 C   0  0  0  0  0  0  0  0  0  0  0  0
   -3.7693    1.1660   -0.3652 C   0  0  0  0  0  0  0  0  0  0  0  0
   -3.3770   -1.3245   -0.4094 C   0  0  0  0  0  0  0  0  0  0  0  0
   -4.0645   -0.1947    1.7550 C   0  0  0  0  0  0  0  0  0  0  0  0
   -5.6890   -0.4174   -0.1220 C   0  0  0  0  0  0  0  0  0  0  0  0
   -2.2861    1.4413   -0.2414 C   0  0  0  0  0  0  0  0  0  0  0  0
   -1.8801   -1.1341   -0.2909 C   0  0  0  0  0  0  0  0  0  0  0  0
   -1.3694    0.2654   -0.2261 C   0  0  0  0  0  0  0  0  0  0  0  0
   -0.0479    0.4721   -0.1476 C   0  0  0  0  0  0  0  0  0  0  0  0
    2.3268   -0.2640   -0.0389 C   0  0  0  0  0  0  0  0  0  0  0  0
    3.1876   -1.3639   -0.0237 C   0  0  0  0  0  0  0  0  0  0  0  0
    2.8526    1.0282    0.0271 C   0  0  0  0  0  0  0  0  0  0  0  0
    4.5670   -1.1724    0.0573 C   0  0  0  0  0  0  0  0  0  0  0  0
    4.2319    1.2197    0.1080 C   0  0  0  0  0  0  0  0  0  0  0  0
    5.0890    0.1193    0.1231 C   0  0  0  0  0  0  0  0  0  0  0  0
   -4.3053    1.9773    0.1431 H   0  0  0  0  0  0  0  0  0  0  0  0
   -4.0158    1.2235   -1.4329 H   0  0  0  0  0  0  0  0  0  0  0  0
   -3.6017   -1.4193   -1.4793 H   0  0  0  0  0  0  0  0  0  0  0  0
   -3.6333   -2.2781    0.0690 H   0  0  0  0  0  0  0  0  0  0  0  0
   -3.0319   -0.0386    2.0821 H   0  0  0  0  0  0  0  0  0  0  0  0
   -4.6737    0.5967    2.2063 H   0  0  0  0  0  0  0  0  0  0  0  0
   -4.3998   -1.1497    2.1755 H   0  0  0  0  0  0  0  0  0  0  0  0
   -6.3188    0.3720    0.3037 H   0  0  0  0  0  0  0  0  0  0  0  0
   -5.8516   -0.4235   -1.2058 H   0  0  0  0  0  0  0  0  0  0  0  0
   -6.0432   -1.3766    0.2722 H   0  0  0  0  0  0  0  0  0  0  0  0
    0.3009    1.4949   -0.0990 H   0  0  0  0  0  0  0  0  0  0  0  0
    0.6451   -1.4274   -0.1646 H   0  0  0  0  0  0  0  0  0  0  0  0
    2.7945   -2.3762   -0.0747 H   0  0  0  0  0  0  0  0  0  0  0  0
    2.2404    1.9228    0.0194 H   0  0  0  0  0  0  0  0  0  0  0  0
    5.2245   -2.0380    0.0680 H   0  0  0  0  0  0  0  0  0  0  0  0
    4.6275    2.2310    0.1586 H   0  0  0  0  0  0  0  0  0  0  0  0
    7.1055   -0.4844    0.2165 H   0  0  0  0  0  0  0  0  0  0  0  0
    6.8626    1.2493    0.2533 H   0  0  0  0  0  0  0  0  0  0  0  0
  1 10  2  0  0  0  0
  2 11  2  0  0  0  0
  3 13  1  0  0  0  0
  3 14  1  0  0  0  0
  3 31  1  0  0  0  0
  4 19  1  0  0  0  0
  4 36  1  0  0  0  0
  4 37  1  0  0  0  0
  5  6  1  0  0  0  0
  5  7  1  0  0  0  0
  5  8  1  0  0  0  0
  5  9  1  0  0  0  0
  6 10  1  0  0  0  0
  6 20  1  0  0  0  0
  6 21  1  0  0  0  0
  7 11  1  0  0  0  0
  7 22  1  0  0  0  0
  7 23  1  0  0  0  0
  8 24  1  0  0  0  0
  8 25  1  0  0  0  0
  8 26  1  0  0  0  0
  9 27  1  0  0  0  0
  9 28  1  0  0  0  0
  9 29  1  0  0  0  0
 10 12  1  0  0  0  0
 11 12  1  0  0  0  0
 12 13  2  0  0  0  0
 13 30  1  0  0  0  0
 14 15  2  0  0  0  0
 14 16  1  0  0  0  0
 15 17  1  0  0  0  0
 15 32  1  0  0  0  0
 16 18  2  0  0  0  0
 16 33  1  0  0  0  0
 17 19  2  0  0  0  0
 17 34  1  0  0  0  0
 18 19  1  0  0  0  0
 18 35  1  0  0  0  0
M  END
> <PUBCHEM_COMPOUND_CID>
818820

> <PUBCHEM_CONFORMER_RMSD>
0.6

> <PUBCHEM_CONFORMER_DIVERSEORDER>
1
3
5
2
4

> <PUBCHEM_MMFF94_PARTIAL_CHARGES>
24
1 -0.57
10 0.49
11 0.49
12 0.03
13 -0.05
14 0.1
15 -0.15
16 -0.15
17 -0.15
18 -0.15
19 0.1
2 -0.57
3 -0.6
30 0.15
31 0.4
32 0.15
33 0.15
34 0.15
35 0.15
36 0.4
37 0.4
4 -0.9
6 0.06
7 0.06

> <PUBCHEM_EFFECTIVE_ROTOR_COUNT>
2.6

> <PUBCHEM_PHARMACOPHORE_FEATURES>
10
1 1 acceptor
1 12 anion
1 2 acceptor
1 3 cation
1 3 donor
1 4 cation
1 4 donor
3 5 8 9 hydrophobe
6 14 15 16 17 18 19 rings
6 5 6 7 10 11 12 rings

> <PUBCHEM_HEAVY_ATOM_COUNT>
19

> <PUBCHEM_ATOM_DEF_STEREO_COUNT>
0

> <PUBCHEM_ATOM_UDEF_STEREO_COUNT>
0

> <PUBCHEM_BOND_DEF_STEREO_COUNT>
0

> <PUBCHEM_BOND_UDEF_STEREO_COUNT>
0

> <PUBCHEM_ISOTOPIC_ATOM_COUNT>
0

> <PUBCHEM_COMPONENT_COUNT>
1

> <PUBCHEM_CACTVS_TAUTO_COUNT>
8

> <PUBCHEM_CONFORMER_ID>
000C7E8400000001

> <PUBCHEM_MMFF94_ENERGY>
67.1309

> <PUBCHEM_FEATURE_SELFOVERLAP>
50.743

> <PUBCHEM_SHAPE_FINGERPRINT>
10 15 18335693993049334920
10968037 39 18334294288307017103
11315181 36 17022627489341289904
11595378 159 17822836616288425536
12107183 9 17615964418355231960
12236239 1 17821445755100028652
12390115 104 18057901159861717569
12596602 18 16877946078868725880
12916748 109 18409169892166250446
13073987 5 18336261237642478112
13167823 11 18334572413293801818
13288520 33 18412824703271668447
13533116 47 17274825705963447342
13675066 3 18186242835375994759
1420 363 18040722467160652794
14341114 176 18410578370898577412
15042514 8 18337675346993306799
15196674 1 18410572842700725996
17844677 252 18411424981835668444
1813 80 16950287274055524878
19489759 90 17022618672284991357
200 152 18202842149646318953
20510252 161 18270963449265657961
20645477 56 18412259541114735980
20645477 70 17131841911373838054
21033648 29 18337656564510510257
21236236 1 18340767045063016645
21267235 1 18409173215975149934
21652331 79 18410009940055404316
2297311 6 18342748403032359692
23198884 109 16487259871666167762
23402539 116 18341324561428576175
23557571 272 18272376351962148700
23559900 14 18341323478875608960
26918003 58 17675926521040921875
300161 21 18271800237928430278
3545911 37 18413670214823238436
4214541 1 18410854330894881756
474 4 17458632284718025228
474229 33 18412544318969114431
5104073 3 18337388219686082952
542803 24 16917068858674168706
59755656 215 18411986832641420238
59755656 520 14620791600316626372
69090 78 18413949490202083431
77779 3 18410855451949670932
9709674 26 18412267220485249518

> <PUBCHEM_SHAPE_MULTIPOLES>
369.31
13.25
1.77
0.81
9.39
0.32
0.29
-0.33
1.5
-0.5
-0.22
-0.78
-0.04
0.13

> <PUBCHEM_SHAPE_SELFOVERLAP>
781.163

> <PUBCHEM_SHAPE_VOLUME>
205.3

> <PUBCHEM_COORDINATE_TYPE>
2
5
10

$$$$
