5760334
  -OEChem-01171811493D

 48 51  0     0  0  0  0  0  0999 V2000
   -2.2814   -1.2204    1.4717 O   0  0  0  0  0  0  0  0  0  0  0  0
    2.5930   -0.0343   -0.2005 N   0  0  0  0  0  0  0  0  0  0  0  0
   -3.2892   -0.0254   -0.3261 N   0  0  0  0  0  0  0  0  0  0  0  0
    1.3332   -0.2247   -0.7404 N   0  0  0  0  0  0  0  0  0  0  0  0
   -2.8544    0.6320   -1.4748 N   0  0  0  0  0  0  0  0  0  0  0  0
   -1.0540   -0.2273   -0.3546 C   0  0  0  0  0  0  0  0  0  0  0  0
   -1.5548    0.5221   -1.5068 C   0  0  0  0  0  0  0  0  0  0  0  0
   -2.2490   -0.5901    0.4325 C   0  0  0  0  0  0  0  0  0  0  0  0
    0.2044   -0.5350   -0.0498 C   0  0  0  0  0  0  0  0  0  0  0  0
    3.4433   -1.1863   -0.0731 C   0  0  0  0  0  0  0  0  0  0  0  0
    2.9858    1.3103    0.1258 C   0  0  0  0  0  0  0  0  0  0  0  0
   -4.6244   -0.1145    0.0356 C   0  0  0  0  0  0  0  0  0  0  0  0
   -0.6873    1.0891   -2.5776 C   0  0  0  0  0  0  0  0  0  0  0  0
    4.4192   -1.1942    0.9048 C   0  0  0  0  0  0  0  0  0  0  0  0
    4.3114    1.6726   -0.0124 C   0  0  0  0  0  0  0  0  0  0  0  0
    3.2601   -2.2533   -0.9313 C   0  0  0  0  0  0  0  0  0  0  0  0
    2.0259    2.1999    0.5667 C   0  0  0  0  0  0  0  0  0  0  0  0
   -5.0885   -1.2192    0.7585 C   0  0  0  0  0  0  0  0  0  0  0  0
   -5.5210    0.9000   -0.3177 C   0  0  0  0  0  0  0  0  0  0  0  0
    5.2438   -2.3123    1.0293 C   0  0  0  0  0  0  0  0  0  0  0  0
    4.6923    2.9768    0.3031 C   0  0  0  0  0  0  0  0  0  0  0  0
    4.0846   -3.3714   -0.8068 C   0  0  0  0  0  0  0  0  0  0  0  0
    2.4067    3.5043    0.8821 C   0  0  0  0  0  0  0  0  0  0  0  0
   -6.4320   -1.3082    1.1234 C   0  0  0  0  0  0  0  0  0  0  0  0
   -6.8644    0.8111    0.0471 C   0  0  0  0  0  0  0  0  0  0  0  0
    5.0765   -3.4009    0.1735 C   0  0  0  0  0  0  0  0  0  0  0  0
    3.7400    3.8926    0.7503 C   0  0  0  0  0  0  0  0  0  0  0  0
   -7.3198   -0.2931    0.7676 C   0  0  0  0  0  0  0  0  0  0  0  0
    0.4224   -1.0465    0.8832 H   0  0  0  0  0  0  0  0  0  0  0  0
    1.2445    0.0745   -1.7013 H   0  0  0  0  0  0  0  0  0  0  0  0
   -0.2102    0.2853   -3.1437 H   0  0  0  0  0  0  0  0  0  0  0  0
    0.0544    1.7702   -2.1539 H   0  0  0  0  0  0  0  0  0  0  0  0
   -1.3055    1.6648   -3.2740 H   0  0  0  0  0  0  0  0  0  0  0  0
    4.5463   -0.3899    1.6223 H   0  0  0  0  0  0  0  0  0  0  0  0
    5.0711    1.0051   -0.4062 H   0  0  0  0  0  0  0  0  0  0  0  0
    2.5065   -2.2541   -1.7131 H   0  0  0  0  0  0  0  0  0  0  0  0
    0.9834    1.9344    0.6972 H   0  0  0  0  0  0  0  0  0  0  0  0
   -4.4462   -2.0543    1.0197 H   0  0  0  0  0  0  0  0  0  0  0  0
   -5.1890    1.7736   -0.8733 H   0  0  0  0  0  0  0  0  0  0  0  0
    6.0085   -2.3407    1.8001 H   0  0  0  0  0  0  0  0  0  0  0  0
    5.7282    3.2831    0.1895 H   0  0  0  0  0  0  0  0  0  0  0  0
    3.9564   -4.2182   -1.4747 H   0  0  0  0  0  0  0  0  0  0  0  0
    1.6661    4.2170    1.2330 H   0  0  0  0  0  0  0  0  0  0  0  0
   -6.7893   -2.1725    1.6756 H   0  0  0  0  0  0  0  0  0  0  0  0
   -7.5558    1.6020   -0.2287 H   0  0  0  0  0  0  0  0  0  0  0  0
    5.7171   -4.2725    0.2717 H   0  0  0  0  0  0  0  0  0  0  0  0
    4.0362    4.9087    0.9940 H   0  0  0  0  0  0  0  0  0  0  0  0
   -8.3662   -0.3633    1.0498 H   0  0  0  0  0  0  0  0  0  0  0  0
  1  8  2  0  0  0  0
  2  4  1  0  0  0  0
  2 10  1  0  0  0  0
  2 11  1  0  0  0  0
  3  5  1  0  0  0  0
  3  8  1  0  0  0  0
  3 12  1  0  0  0  0
  4  9  1  0  0  0  0
  4 30  1  0  0  0  0
  5  7  2  0  0  0  0
  6  7  1  0  0  0  0
  6  8  1  0  0  0  0
  6  9  2  0  0  0  0
  7 13  1  0  0  0  0
  9 29  1  0  0  0  0
 10 14  2  0  0  0  0
 10 16  1  0  0  0  0
 11 15  2  0  0  0  0
 11 17  1  0  0  0  0
 12 18  2  0  0  0  0
 12 19  1  0  0  0  0
 13 31  1  0  0  0  0
 13 32  1  0  0  0  0
 13 33  1  0  0  0  0
 14 20  1  0  0  0  0
 14 34  1  0  0  0  0
 15 21  1  0  0  0  0
 15 35  1  0  0  0  0
 16 22  2  0  0  0  0
 16 36  1  0  0  0  0
 17 23  2  0  0  0  0
 17 37  1  0  0  0  0
 18 24  1  0  0  0  0
 18 38  1  0  0  0  0
 19 25  2  0  0  0  0
 19 39  1  0  0  0  0
 20 26  2  0  0  0  0
 20 40  1  0  0  0  0
 21 27  2  0  0  0  0
 21 41  1  0  0  0  0
 22 26  1  0  0  0  0
 22 42  1  0  0  0  0
 23 27  1  0  0  0  0
 23 43  1  0  0  0  0
 24 28  2  0  0  0  0
 24 44  1  0  0  0  0
 25 28  1  0  0  0  0
 25 45  1  0  0  0  0
 26 46  1  0  0  0  0
 27 47  1  0  0  0  0
 28 48  1  0  0  0  0
M  END
> <PUBCHEM_COMPOUND_CID>
5760334

> <PUBCHEM_CONFORMER_RMSD>
0.8

> <PUBCHEM_CONFORMER_DIVERSEORDER>
5
20
13
21
9
18
15
14
3
11
6
10
16
19
7
8
2
12
17
1
4

> <PUBCHEM_MMFF94_PARTIAL_CHARGES>
45
1 -0.57
10 0.1
11 0.1
12 0.12
13 0.06
14 -0.15
15 -0.15
16 -0.15
17 -0.15
18 -0.15
19 -0.15
2 -0.2
20 -0.15
21 -0.15
22 -0.15
23 -0.15
24 -0.15
25 -0.15
26 -0.15
27 -0.15
28 -0.15
29 0.15
3 -0.11
30 0.4
34 0.15
35 0.15
36 0.15
37 0.15
38 0.15
39 0.15
4 -0.5
40 0.15
41 0.15
42 0.15
43 0.15
44 0.15
45 0.15
46 0.15
47 0.15
48 0.15
5 -0.51
6 0.03
7 0.37
8 0.62
9 -0.05

> <PUBCHEM_EFFECTIVE_ROTOR_COUNT>
5.2

> <PUBCHEM_PHARMACOPHORE_FEATURES>
7
1 1 acceptor
1 4 donor
1 5 acceptor
5 3 5 6 7 8 rings
6 10 14 16 20 22 26 rings
6 11 15 17 21 23 27 rings
6 12 18 19 24 25 28 rings

> <PUBCHEM_HEAVY_ATOM_COUNT>
28

> <PUBCHEM_ATOM_DEF_STEREO_COUNT>
0

> <PUBCHEM_ATOM_UDEF_STEREO_COUNT>
0

> <PUBCHEM_BOND_DEF_STEREO_COUNT>
1

> <PUBCHEM_BOND_UDEF_STEREO_COUNT>
0

> <PUBCHEM_ISOTOPIC_ATOM_COUNT>
0

> <PUBCHEM_COMPONENT_COUNT>
1

> <PUBCHEM_CACTVS_TAUTO_COUNT>
4

> <PUBCHEM_CONFORMER_ID>
0057E54E00000005

> <PUBCHEM_MMFF94_ENERGY>
112.0952

> <PUBCHEM_FEATURE_SELFOVERLAP>
35.523

> <PUBCHEM_SHAPE_FINGERPRINT>
10162869 55 18130208437781242775
10165383 225 18189905386846430580
10411042 1 18196937657122545598
11135926 11 18268133422695947180
12107183 9 18055926389838996177
12342043 65 18114743728883992366
12616971 3 18131625686594207959
12730499 353 18338523053019431416
13533116 47 18410296912748334147
13540713 4 18041824139131151236
13540713 5 17773296023648956822
13673619 4 18042127574612944190
13782708 43 18114461171908072427
13785724 45 17985841323903647862
13878862 14 18268127860386154085
13955234 65 18412539942692403874
14347424 109 18413108342743318689
14565420 104 18197493150638247056
15250474 111 17916289705733420911
15348495 7 18408888451723670123
15475509 35 17241032224736653058
15840311 113 18408327666924596949
17844677 252 18341056233520922513
1813 80 17845379839158441790
18785283 64 18410570717245841492
19301679 30 17909829839235351926
1979834 28 18188771781182813228
20505436 4 17702665621937850900
21049683 271 18334303046478687156
21130935 74 18336836368477241643
2132832 1 17916874512685182136
21344244 78 18059848429540516552
21814621 53 18260838098942482321
21859007 373 17750217142007476141
21927370 108 18125434221324198514
22033318 11 17701000772222812857
22122407 14 17988095486144525217
2303208 19 17894634738714714379
23081809 10 17632576063824906439
23522609 53 17243893089103451661
23559900 14 17967538977758918855
23569943 247 17750794338436666131
249057 25 17703792497134494489
3004659 81 15430043158034718551
3411729 13 18335982077700905008
3472631 163 14117500065692396234
397830 11 18335143150455447659
4073 2 18115875272536189083
4144715 1 18335710433983495361
437815 12 18337115544707289226
46194498 28 17967532363994508676
5104073 3 18409458003162846227
5385378 56 18341044225046031896
563151 74 18200028581037716192
5912855 24 17985538090680859111
6697151 62 18123162650699636582
68570916 9 18201718496909718663
8863177 126 18260551116989827547

> <PUBCHEM_SHAPE_MULTIPOLES>
550.43
17.01
3.97
1.37
26.27
1.39
0.65
-4.55
-5.16
-10.44
-0.83
0.52
0.09
1.74

> <PUBCHEM_SHAPE_SELFOVERLAP>
1207.041

> <PUBCHEM_SHAPE_VOLUME>
295.5

> <PUBCHEM_COORDINATE_TYPE>
2
5
10

$$$$
