662466
  -OEChem-01171812173D

 48 51  0     0  0  0  0  0  0999 V2000
    5.6744    0.4960    0.1254 S   0  0  0  0  0  0  0  0  0  0  0  0
    2.3327    1.9435   -1.3055 O   0  0  0  0  0  0  0  0  0  0  0  0
   -1.8118    1.8049   -0.4700 N   0  0  0  0  0  0  0  0  0  0  0  0
   -3.0079   -0.2614   -0.0707 N   0  0  0  0  0  0  0  0  0  0  0  0
   -0.4401   -1.4223   -0.5143 N   0  0  0  0  0  0  0  0  0  0  0  0
   -0.1622    3.4407   -0.9297 N   0  0  0  0  0  0  0  0  0  0  0  0
    2.2224   -0.3534   -1.1404 N   0  0  0  0  0  0  0  0  0  0  0  0
   -2.9171    2.7265   -0.3110 C   0  0  0  0  0  0  0  0  0  0  0  0
   -3.1096    3.2248    1.1324 C   0  0  0  0  0  0  0  0  0  0  0  0
   -1.9044    0.4459   -0.3504 C   0  0  0  0  0  0  0  0  0  0  0  0
   -0.5134    2.1453   -0.7619 C   0  0  0  0  0  0  0  0  0  0  0  0
   -0.6488   -0.0881   -0.5695 C   0  0  0  0  0  0  0  0  0  0  0  0
    0.2322    0.9861   -0.8297 C   0  0  0  0  0  0  0  0  0  0  0  0
   -3.4892    2.0509    2.0373 C   0  0  0  0  0  0  0  0  0  0  0  0
   -1.8551    3.9121    1.6757 C   0  0  0  0  0  0  0  0  0  0  0  0
    1.6379    0.9238   -1.1142 C   0  0  0  0  0  0  0  0  0  0  0  0
   -2.7980   -1.5847   -0.0163 C   0  0  0  0  0  0  0  0  0  0  0  0
   -1.5241   -2.1614   -0.2368 C   0  0  0  0  0  0  0  0  0  0  0  0
   -3.8739   -2.4207    0.2671 C   0  0  0  0  0  0  0  0  0  0  0  0
   -1.3897   -3.5445   -0.1629 C   0  0  0  0  0  0  0  0  0  0  0  0
    3.6292   -0.5791   -1.3831 C   0  0  0  0  0  0  0  0  0  0  0  0
   -3.7239   -3.8045    0.3382 C   0  0  0  0  0  0  0  0  0  0  0  0
   -2.4767   -4.3687    0.1220 C   0  0  0  0  0  0  0  0  0  0  0  0
    4.4187   -0.6287   -0.1070 C   0  0  0  0  0  0  0  0  0  0  0  0
    4.2621   -1.4900    0.9389 C   0  0  0  0  0  0  0  0  0  0  0  0
    5.2037   -1.2240    1.9746 C   0  0  0  0  0  0  0  0  0  0  0  0
    6.0325   -0.1692    1.6621 C   0  0  0  0  0  0  0  0  0  0  0  0
   -3.8251    2.2185   -0.6598 H   0  0  0  0  0  0  0  0  0  0  0  0
   -2.7741    3.5693   -0.9956 H   0  0  0  0  0  0  0  0  0  0  0  0
   -3.9358    3.9462    1.1357 H   0  0  0  0  0  0  0  0  0  0  0  0
   -3.7819    2.4246    3.0254 H   0  0  0  0  0  0  0  0  0  0  0  0
   -4.3457    1.4992    1.6367 H   0  0  0  0  0  0  0  0  0  0  0  0
   -2.6587    1.3569    2.1978 H   0  0  0  0  0  0  0  0  0  0  0  0
   -2.0584    4.3115    2.6765 H   0  0  0  0  0  0  0  0  0  0  0  0
   -1.0060    3.2304    1.7783 H   0  0  0  0  0  0  0  0  0  0  0  0
   -1.5688    4.7632    1.0515 H   0  0  0  0  0  0  0  0  0  0  0  0
   -0.8167    4.2140   -0.9052 H   0  0  0  0  0  0  0  0  0  0  0  0
    0.7969    3.7044   -1.1344 H   0  0  0  0  0  0  0  0  0  0  0  0
    1.6475   -1.1713   -0.9630 H   0  0  0  0  0  0  0  0  0  0  0  0
   -4.8607   -1.9947    0.4396 H   0  0  0  0  0  0  0  0  0  0  0  0
   -0.4171   -4.0044   -0.3296 H   0  0  0  0  0  0  0  0  0  0  0  0
    4.0004    0.1907   -2.0689 H   0  0  0  0  0  0  0  0  0  0  0  0
    3.7138   -1.5433   -1.8974 H   0  0  0  0  0  0  0  0  0  0  0  0
   -4.5792   -4.4349    0.5612 H   0  0  0  0  0  0  0  0  0  0  0  0
   -2.3459   -5.4452    0.1742 H   0  0  0  0  0  0  0  0  0  0  0  0
    3.5178   -2.2752    0.9760 H   0  0  0  0  0  0  0  0  0  0  0  0
    5.2699   -1.7783    2.9017 H   0  0  0  0  0  0  0  0  0  0  0  0
    6.8313    0.2427    2.2626 H   0  0  0  0  0  0  0  0  0  0  0  0
  1 24  1  0  0  0  0
  1 27  1  0  0  0  0
  2 16  2  0  0  0  0
  3  8  1  0  0  0  0
  3 10  1  0  0  0  0
  3 11  1  0  0  0  0
  4 10  2  0  0  0  0
  4 17  1  0  0  0  0
  5 12  2  0  0  0  0
  5 18  1  0  0  0  0
  6 11  1  0  0  0  0
  6 37  1  0  0  0  0
  6 38  1  0  0  0  0
  7 16  1  0  0  0  0
  7 21  1  0  0  0  0
  7 39  1  0  0  0  0
  8  9  1  0  0  0  0
  8 28  1  0  0  0  0
  8 29  1  0  0  0  0
  9 14  1  0  0  0  0
  9 15  1  0  0  0  0
  9 30  1  0  0  0  0
 10 12  1  0  0  0  0
 11 13  2  0  0  0  0
 12 13  1  0  0  0  0
 13 16  1  0  0  0  0
 14 31  1  0  0  0  0
 14 32  1  0  0  0  0
 14 33  1  0  0  0  0
 15 34  1  0  0  0  0
 15 35  1  0  0  0  0
 15 36  1  0  0  0  0
 17 18  1  0  0  0  0
 17 19  2  0  0  0  0
 18 20  2  0  0  0  0
 19 22  1  0  0  0  0
 19 40  1  0  0  0  0
 20 23  1  0  0  0  0
 20 41  1  0  0  0  0
 21 24  1  0  0  0  0
 21 42  1  0  0  0  0
 21 43  1  0  0  0  0
 22 23  2  0  0  0  0
 22 44  1  0  0  0  0
 23 45  1  0  0  0  0
 24 25  2  0  0  0  0
 25 26  1  0  0  0  0
 25 46  1  0  0  0  0
 26 27  2  0  0  0  0
 26 47  1  0  0  0  0
 27 48  1  0  0  0  0
M  END
> <PUBCHEM_COMPOUND_CID>
662466

> <PUBCHEM_CONFORMER_RMSD>
0.8

> <PUBCHEM_CONFORMER_DIVERSEORDER>
1
17
33
50
39
13
36
4
10
19
49
37
8
25
43
2
30
14
21
51
31
48
38
26
16
15
5
22
11
46
24
6
35
45
44
29
3
41
7
52
9
18
32
42
12
34
47
20
23
40
28
27

> <PUBCHEM_MMFF94_PARTIAL_CHARGES>
34
1 -0.08
10 0.11
11 -0.07
12 0.26
13 -0.09
16 0.72
17 0.31
18 0.31
19 -0.15
2 -0.57
20 -0.15
21 0.48
22 -0.15
23 -0.15
24 -0.14
25 -0.15
26 -0.15
27 -0.11
3 0.05
37 0.4
38 0.4
39 0.37
4 -0.57
40 0.15
41 0.15
44 0.15
45 0.15
46 0.15
47 0.15
48 0.15
5 -0.57
6 -0.88
7 -0.73
8 0.26

> <PUBCHEM_EFFECTIVE_ROTOR_COUNT>
6

> <PUBCHEM_PHARMACOPHORE_FEATURES>
11
1 2 acceptor
1 5 acceptor
1 6 cation
1 6 donor
1 7 donor
3 3 4 10 cation
3 9 14 15 hydrophobe
5 1 24 25 26 27 rings
5 3 10 11 12 13 rings
6 17 18 19 20 22 23 rings
6 4 5 10 12 17 18 rings

> <PUBCHEM_HEAVY_ATOM_COUNT>
27

> <PUBCHEM_ATOM_DEF_STEREO_COUNT>
0

> <PUBCHEM_ATOM_UDEF_STEREO_COUNT>
0

> <PUBCHEM_BOND_DEF_STEREO_COUNT>
0

> <PUBCHEM_BOND_UDEF_STEREO_COUNT>
0

> <PUBCHEM_ISOTOPIC_ATOM_COUNT>
0

> <PUBCHEM_COMPONENT_COUNT>
1

> <PUBCHEM_CACTVS_TAUTO_COUNT>
7

> <PUBCHEM_CONFORMER_ID>
000A1BC200000001

> <PUBCHEM_MMFF94_ENERGY>
53.4942

> <PUBCHEM_FEATURE_SELFOVERLAP>
55.993

> <PUBCHEM_SHAPE_FINGERPRINT>
10074138 170 18410848828872854051
10319926 262 18342166723581395042
1100329 8 18268165291600709513
11049842 53 18050314504145070838
11456790 92 18191318272547915579
11552529 35 18339630209926455778
12422481 6 17681843907869674336
12523318 42 18410844465381195042
12549972 3 17200820829492519070
12553582 1 18265345069360031214
12633257 1 18268419158443576912
12788726 201 18265067992445291686
13004483 165 18196376038017960575
13140716 1 18195816382235915975
13540713 5 18115604754274336244
14178342 30 18410857633930714254
14565420 104 17482285816268312505
14705955 166 17989480814607072194
14790565 3 17402086325187354532
14844126 61 18335133206825669675
14866123 147 18267038162679547287
14950920 106 18267281198357621360
15042514 8 18335985293876996855
15537594 2 17604436168262026042
15842332 3 17969243250978690012
15950262 2 15337171684671721345
16120349 306 18117549643877017074
16728300 4 17749956531855068171
16994733 274 15912197587317953313
19319366 153 17035579985625022846
19591789 44 17545629767654571079
20554085 129 17982993575945140561
20642791 105 18408321078106907989
21033648 29 18053953844277653968
23366157 5 17466512621502327303
23559900 14 18120930869733701765
25147074 1 18042421260408550484
376196 1 17198830623004563333
3886686 26 18339353064234718056
463206 1 17757553323806199746
5104073 3 18050299347089613635
58807428 26 18122353371634625997
6004065 56 17984689272167962335
613672 6 18269557302506044159
653340 110 18341615897492585558
6679774 75 17464566124928659411
6697151 62 17837482322051638967
79837 15 18268156353093050859

> <PUBCHEM_SHAPE_MULTIPOLES>
528.72
10.63
5.42
1.54
19.06
1.01
-0.6
3.43
-5.24
-9.27
-1.25
1.1
-0.9
-1.71

> <PUBCHEM_SHAPE_SELFOVERLAP>
1152.319

> <PUBCHEM_SHAPE_VOLUME>
291.6

> <PUBCHEM_COORDINATE_TYPE>
2
5
10

$$$$
