49789798
  -OEChem-01171812173D

 57 60  0     0  0  0  0  0  0999 V2000
    5.4092   -0.4679    1.7666 O   0  0  0  0  0  0  0  0  0  0  0  0
   -6.1319   -2.6262    1.3986 O   0  0  0  0  0  0  0  0  0  0  0  0
   -0.4491   -1.5394    0.0080 N   0  0  0  0  0  0  0  0  0  0  0  0
   -1.2012   -3.6379    0.1697 N   0  0  0  0  0  0  0  0  0  0  0  0
   -2.2990    2.0367   -2.0217 N   0  0  0  0  0  0  0  0  0  0  0  0
   -3.8600   -2.5074    0.8391 N   0  0  0  0  0  0  0  0  0  0  0  0
    4.5688    1.5306    0.8931 N   0  0  0  0  0  0  0  0  0  0  0  0
    0.6172   -2.3574   -0.2663 C   0  0  0  0  0  0  0  0  0  0  0  0
   -1.5370   -2.3665    0.2673 C   0  0  0  0  0  0  0  0  0  0  0  0
   -1.6704    0.4674    0.3340 C   0  0  0  0  0  0  0  0  0  0  0  0
   -0.5064   -0.1484    0.0376 C   0  0  0  0  0  0  0  0  0  0  0  0
   -1.7235    1.9418    0.3544 C   0  0  0  0  0  0  0  0  0  0  0  0
   -2.7725   -1.7257    0.5795 C   0  0  0  0  0  0  0  0  0  0  0  0
   -2.8377   -0.3793    0.6112 C   0  0  0  0  0  0  0  0  0  0  0  0
    1.9488   -1.9027   -0.5907 C   0  0  0  0  0  0  0  0  0  0  0  0
   -2.0279    2.6773   -0.7911 C   0  0  0  0  0  0  0  0  0  0  0  0
    0.1296   -3.6379   -0.1599 C   0  0  0  0  0  0  0  0  0  0  0  0
   -1.4597    2.5998    1.5559 C   0  0  0  0  0  0  0  0  0  0  0  0
    2.6611   -1.1218    0.3196 C   0  0  0  0  0  0  0  0  0  0  0  0
    2.5233   -2.2456   -1.8148 C   0  0  0  0  0  0  0  0  0  0  0  0
   -2.0685    4.0705   -0.7354 C   0  0  0  0  0  0  0  0  0  0  0  0
    3.9478   -0.6839    0.0060 C   0  0  0  0  0  0  0  0  0  0  0  0
   -1.5006    3.9930    1.6118 C   0  0  0  0  0  0  0  0  0  0  0  0
   -1.8047    4.7283    0.4662 C   0  0  0  0  0  0  0  0  0  0  0  0
    3.8099   -1.8073   -2.1286 C   0  0  0  0  0  0  0  0  0  0  0  0
    4.5223   -1.0267   -1.2181 C   0  0  0  0  0  0  0  0  0  0  0  0
   -1.4743    2.3029   -3.1814 C   0  0  0  0  0  0  0  0  0  0  0  0
   -3.3995    1.1023   -2.1323 C   0  0  0  0  0  0  0  0  0  0  0  0
    4.6909    0.1303    0.9546 C   0  0  0  0  0  0  0  0  0  0  0  0
   -5.1049   -2.0060    1.1521 C   0  0  0  0  0  0  0  0  0  0  0  0
    5.2923    2.4127    1.7982 C   0  0  0  0  0  0  0  0  0  0  0  0
    3.7077    2.1945   -0.0834 C   0  0  0  0  0  0  0  0  0  0  0  0
    0.3957    0.4062   -0.1937 H   0  0  0  0  0  0  0  0  0  0  0  0
   -3.7213    0.1973    0.8497 H   0  0  0  0  0  0  0  0  0  0  0  0
    0.6661   -4.5655   -0.3024 H   0  0  0  0  0  0  0  0  0  0  0  0
   -1.2208    2.0426    2.4588 H   0  0  0  0  0  0  0  0  0  0  0  0
    2.2261   -0.8575    1.2816 H   0  0  0  0  0  0  0  0  0  0  0  0
    1.9824   -2.8511   -2.5382 H   0  0  0  0  0  0  0  0  0  0  0  0
   -2.3103    4.6597   -1.6162 H   0  0  0  0  0  0  0  0  0  0  0  0
   -3.7454   -3.5166    0.7999 H   0  0  0  0  0  0  0  0  0  0  0  0
   -1.2956    4.5053    2.5473 H   0  0  0  0  0  0  0  0  0  0  0  0
   -1.8378    5.8130    0.5102 H   0  0  0  0  0  0  0  0  0  0  0  0
    4.2569   -2.0733   -3.0820 H   0  0  0  0  0  0  0  0  0  0  0  0
    5.5239   -0.6904   -1.4732 H   0  0  0  0  0  0  0  0  0  0  0  0
   -3.0402    0.0694   -2.1480 H   0  0  0  0  0  0  0  0  0  0  0  0
   -4.1417    1.2327   -1.3379 H   0  0  0  0  0  0  0  0  0  0  0  0
   -3.9316    1.2690   -3.0765 H   0  0  0  0  0  0  0  0  0  0  0  0
   -1.6172    1.5376   -3.9521 H   0  0  0  0  0  0  0  0  0  0  0  0
   -0.4115    2.3031   -2.9150 H   0  0  0  0  0  0  0  0  0  0  0  0
   -1.7261    3.2727   -3.6223 H   0  0  0  0  0  0  0  0  0  0  0  0
   -5.1777   -0.9164    1.1797 H   0  0  0  0  0  0  0  0  0  0  0  0
    4.3272    2.8587   -0.6938 H   0  0  0  0  0  0  0  0  0  0  0  0
    3.1766    1.5125   -0.7467 H   0  0  0  0  0  0  0  0  0  0  0  0
    2.9688    2.7923    0.4594 H   0  0  0  0  0  0  0  0  0  0  0  0
    4.5704    3.0063    2.3662 H   0  0  0  0  0  0  0  0  0  0  0  0
    5.9107    1.8397    2.4937 H   0  0  0  0  0  0  0  0  0  0  0  0
    5.9341    3.0745    1.2098 H   0  0  0  0  0  0  0  0  0  0  0  0
  1 29  2  0  0  0  0
  2 30  2  0  0  0  0
  3  8  1  0  0  0  0
  3  9  1  0  0  0  0
  3 11  1  0  0  0  0
  4  9  2  0  0  0  0
  4 17  1  0  0  0  0
  5 16  1  0  0  0  0
  5 27  1  0  0  0  0
  5 28  1  0  0  0  0
  6 13  1  0  0  0  0
  6 30  1  0  0  0  0
  6 40  1  0  0  0  0
  7 29  1  0  0  0  0
  7 31  1  0  0  0  0
  7 32  1  0  0  0  0
  8 15  1  0  0  0  0
  8 17  2  0  0  0  0
  9 13  1  0  0  0  0
 10 11  2  0  0  0  0
 10 12  1  0  0  0  0
 10 14  1  0  0  0  0
 11 33  1  0  0  0  0
 12 16  1  0  0  0  0
 12 18  2  0  0  0  0
 13 14  2  0  0  0  0
 14 34  1  0  0  0  0
 15 19  2  0  0  0  0
 15 20  1  0  0  0  0
 16 21  2  0  0  0  0
 17 35  1  0  0  0  0
 18 23  1  0  0  0  0
 18 36  1  0  0  0  0
 19 22  1  0  0  0  0
 19 37  1  0  0  0  0
 20 25  2  0  0  0  0
 20 38  1  0  0  0  0
 21 24  1  0  0  0  0
 21 39  1  0  0  0  0
 22 26  2  0  0  0  0
 22 29  1  0  0  0  0
 23 24  2  0  0  0  0
 23 41  1  0  0  0  0
 24 42  1  0  0  0  0
 25 26  1  0  0  0  0
 25 43  1  0  0  0  0
 26 44  1  0  0  0  0
 27 48  1  0  0  0  0
 27 49  1  0  0  0  0
 27 50  1  0  0  0  0
 28 45  1  0  0  0  0
 28 46  1  0  0  0  0
 28 47  1  0  0  0  0
 30 51  1  0  0  0  0
 31 55  1  0  0  0  0
 31 56  1  0  0  0  0
 31 57  1  0  0  0  0
 32 52  1  0  0  0  0
 32 53  1  0  0  0  0
 32 54  1  0  0  0  0
M  END
> <PUBCHEM_COMPOUND_CID>
49789798

> <PUBCHEM_CONFORMER_RMSD>
1

> <PUBCHEM_CONFORMER_DIVERSEORDER>
9
37
41
21
28
39
22
20
12
24
26
10
17
36
35
42
29
31
25
18
33
30
38
23
16
40
15
11
32
27
19
1
13
7
34
14
6
5
8
2
4
3

> <PUBCHEM_MMFF94_PARTIAL_CHARGES>
45
1 -0.57
10 -0.03
11 -0.18
12 0.03
13 0.15
14 -0.15
15 0.05
16 0.1
17 0.08
18 -0.15
19 -0.15
2 -0.57
20 -0.15
21 -0.15
22 0.09
23 -0.15
24 -0.15
25 -0.15
26 -0.15
27 0.37
28 0.37
29 0.54
3 0.33
30 0.57
31 0.3
32 0.3
33 0.15
34 0.15
35 0.15
36 0.15
37 0.15
38 0.15
39 0.15
4 -0.57
40 0.37
41 0.15
42 0.15
43 0.15
44 0.15
5 -0.84
51 0.06
6 -0.54
7 -0.66
8 -0.2
9 0.14

> <PUBCHEM_EFFECTIVE_ROTOR_COUNT>
7

> <PUBCHEM_PHARMACOPHORE_FEATURES>
9
1 1 acceptor
1 2 acceptor
1 5 cation
1 6 donor
3 3 4 9 cation
5 3 4 8 9 17 rings
6 12 16 18 21 23 24 rings
6 15 19 20 22 25 26 rings
6 3 9 10 11 13 14 rings

> <PUBCHEM_HEAVY_ATOM_COUNT>
32

> <PUBCHEM_ATOM_DEF_STEREO_COUNT>
0

> <PUBCHEM_ATOM_UDEF_STEREO_COUNT>
0

> <PUBCHEM_BOND_DEF_STEREO_COUNT>
0

> <PUBCHEM_BOND_UDEF_STEREO_COUNT>
0

> <PUBCHEM_ISOTOPIC_ATOM_COUNT>
0

> <PUBCHEM_COMPONENT_COUNT>
1

> <PUBCHEM_CACTVS_TAUTO_COUNT>
2

> <PUBCHEM_CONFORMER_ID>
02F7BB6600000009

> <PUBCHEM_MMFF94_ENERGY>
125.32

> <PUBCHEM_FEATURE_SELFOVERLAP>
45.786

> <PUBCHEM_SHAPE_FINGERPRINT>
10165383 225 17543383482314909430
10439779 11 18050277069236277754
10670039 82 18189641400712792438
11595378 159 17968097560073686206
12160290 23 18188223038622439087
12788726 201 18189068610577630842
14251764 38 18199173024085089400
14932701 244 18128515120738363789
14955137 171 18122367889257784747
15131766 46 16343408609678766266
15840311 113 17629795373265171971
15961568 22 18124319560935013772
17974551 9 14857212748360684672
17980427 23 17842846791869937287
22907989 373 18334585602985218679
22956985 138 16889768263987726770
23845131 108 17760377587284186649
24771293 8 18129387171267564403
283562 15 18263097547586999531
3886686 26 17610319572756165018
469060 322 17968395467510563547
508706 21 18268430136100189564
5252454 2 17757010916538125166
5265222 85 16602971664247618461
6004065 56 18126847325472838035
7399639 24 18273218612144510214
7808743 9 18046371664058366620
9981440 41 18194944263061182923

> <PUBCHEM_SHAPE_MULTIPOLES>
621.9
10.28
5.97
2.09
7.92
3.11
-1.4
-1.38
3.39
-5.17
1.02
-0.17
1.15
3.93

> <PUBCHEM_SHAPE_SELFOVERLAP>
1361.915

> <PUBCHEM_SHAPE_VOLUME>
339

> <PUBCHEM_COORDINATE_TYPE>
2
5
10

$$$$
