2488340
  -OEChem-01171811463D

 31 32  0     0  0  0  0  0  0999 V2000
   -2.4882    3.1921    0.7999 S   0  0  0  0  0  0  0  0  0  0  0  0
    4.0952   -1.3051    0.5002 O   0  0  0  0  0  0  0  0  0  0  0  0
   -0.2896    1.9848   -0.3410 N   0  0  0  0  0  0  0  0  0  0  0  0
   -1.8974    0.6274    0.8348 N   0  0  0  0  0  0  0  0  0  0  0  0
   -1.5185   -3.0260    0.6234 N   0  0  0  0  0  0  0  0  0  0  0  0
    0.8138    1.1576   -0.1292 C   0  0  0  0  0  0  0  0  0  0  0  0
   -1.5168    1.8734    0.3757 C   0  0  0  0  0  0  0  0  0  0  0  0
    1.0447    0.6128    1.1339 C   0  0  0  0  0  0  0  0  0  0  0  0
    1.6858    0.8752   -1.1807 C   0  0  0  0  0  0  0  0  0  0  0  0
   -0.1691    3.1605   -1.2552 C   0  0  0  0  0  0  0  0  0  0  0  0
    2.1479   -0.2143    1.3455 C   0  0  0  0  0  0  0  0  0  0  0  0
    2.7888    0.0480   -0.9690 C   0  0  0  0  0  0  0  0  0  0  0  0
   -1.7147   -0.6627    0.2772 C   0  0  0  0  0  0  0  0  0  0  0  0
    3.0198   -0.4968    0.2941 C   0  0  0  0  0  0  0  0  0  0  0  0
   -1.5607   -0.8129   -1.0837 C   0  0  0  0  0  0  0  0  0  0  0  0
   -1.6894   -1.7688    1.0903 C   0  0  0  0  0  0  0  0  0  0  0  0
   -1.3826   -2.0908   -1.6020 C   0  0  0  0  0  0  0  0  0  0  0  0
   -1.3690   -3.1546   -0.7142 C   0  0  0  0  0  0  0  0  0  0  0  0
    0.4162    0.8463    1.9887 H   0  0  0  0  0  0  0  0  0  0  0  0
    1.5240    1.2381   -2.1902 H   0  0  0  0  0  0  0  0  0  0  0  0
    0.5335    2.9945   -2.0718 H   0  0  0  0  0  0  0  0  0  0  0  0
    0.1728    4.0178   -0.6660 H   0  0  0  0  0  0  0  0  0  0  0  0
   -1.1386    3.3892   -1.7084 H   0  0  0  0  0  0  0  0  0  0  0  0
   -2.4344    0.6322    1.6994 H   0  0  0  0  0  0  0  0  0  0  0  0
    2.3222   -0.6251    2.3364 H   0  0  0  0  0  0  0  0  0  0  0  0
    3.4592   -0.1771   -1.7941 H   0  0  0  0  0  0  0  0  0  0  0  0
   -1.5991    0.0281   -1.7691 H   0  0  0  0  0  0  0  0  0  0  0  0
   -1.8049   -1.6944    2.1667 H   0  0  0  0  0  0  0  0  0  0  0  0
   -1.2635   -2.2498   -2.6676 H   0  0  0  0  0  0  0  0  0  0  0  0
   -1.2346   -4.1714   -1.0679 H   0  0  0  0  0  0  0  0  0  0  0  0
    4.0995   -1.5928    1.4293 H   0  0  0  0  0  0  0  0  0  0  0  0
  1  7  2  0  0  0  0
  2 14  1  0  0  0  0
  2 31  1  0  0  0  0
  3  6  1  0  0  0  0
  3  7  1  0  0  0  0
  3 10  1  0  0  0  0
  4  7  1  0  0  0  0
  4 13  1  0  0  0  0
  4 24  1  0  0  0  0
  5 16  1  0  0  0  0
  5 18  2  0  0  0  0
  6  8  2  0  0  0  0
  6  9  1  0  0  0  0
  8 11  1  0  0  0  0
  8 19  1  0  0  0  0
  9 12  2  0  0  0  0
  9 20  1  0  0  0  0
 10 21  1  0  0  0  0
 10 22  1  0  0  0  0
 10 23  1  0  0  0  0
 11 14  2  0  0  0  0
 11 25  1  0  0  0  0
 12 14  1  0  0  0  0
 12 26  1  0  0  0  0
 13 15  1  0  0  0  0
 13 16  2  0  0  0  0
 15 17  2  0  0  0  0
 15 27  1  0  0  0  0
 16 28  1  0  0  0  0
 17 18  1  0  0  0  0
 17 29  1  0  0  0  0
 18 30  1  0  0  0  0
M  END
> <PUBCHEM_COMPOUND_CID>
2488340

> <PUBCHEM_CONFORMER_RMSD>
0.6

> <PUBCHEM_CONFORMER_DIVERSEORDER>
1
42
7
3
21
74
12
56
44
40
4
28
17
67
2
30
66
9
73
27
70
54
48
5
64
43
41
38
46
58
52
39
69
32
63
71
37
72
15
79
20
80
57
53
61
77
19
55
6
51
47
16
59
81
36
76
65
78
26
60
31
45
35
33
23
25
10
13
75
8
68
24
34
14
62
22
18
49
29
50
11

> <PUBCHEM_MMFF94_PARTIAL_CHARGES>
28
1 -0.38
10 0.3
11 -0.15
12 -0.15
13 0.12
14 0.08
15 -0.15
16 0.16
17 -0.15
18 0.16
19 0.15
2 -0.53
20 0.15
24 0.37
25 0.15
26 0.15
27 0.15
28 0.15
29 0.15
3 -0.48
30 0.15
31 0.45
4 -0.55
5 -0.62
6 0.12
7 0.5
8 -0.15
9 -0.15

> <PUBCHEM_EFFECTIVE_ROTOR_COUNT>
4

> <PUBCHEM_PHARMACOPHORE_FEATURES>
6
1 1 acceptor
1 2 donor
1 4 donor
1 5 acceptor
6 5 13 15 16 17 18 rings
6 6 8 9 11 12 14 rings

> <PUBCHEM_HEAVY_ATOM_COUNT>
18

> <PUBCHEM_ATOM_DEF_STEREO_COUNT>
0

> <PUBCHEM_ATOM_UDEF_STEREO_COUNT>
0

> <PUBCHEM_BOND_DEF_STEREO_COUNT>
0

> <PUBCHEM_BOND_UDEF_STEREO_COUNT>
0

> <PUBCHEM_ISOTOPIC_ATOM_COUNT>
0

> <PUBCHEM_COMPONENT_COUNT>
1

> <PUBCHEM_CACTVS_TAUTO_COUNT>
4

> <PUBCHEM_CONFORMER_ID>
0025F81400000001

> <PUBCHEM_MMFF94_ENERGY>
85.8552

> <PUBCHEM_FEATURE_SELFOVERLAP>
30.446

> <PUBCHEM_SHAPE_FINGERPRINT>
11321824 6 18409164385495937551
12035759 4 17621845757697405941
12553582 1 18122634009108875914
12592029 89 17543642932546429840
14817 1 12665772970122497540
15001771 113 18119530079098303473
15309172 13 18050007696813138873
15906896 17 18411142407299435035
16752209 62 18410002209509799921
16945 1 18273219698380430145
18981168 100 8789511946931339259
20645476 183 18117018614220499484
20645477 70 16756620734680134455
21452121 199 17907003324966323850
21524375 3 18124874547665757377
21731516 1 18124883618394171342
22182313 1 16744542015360018357
23419403 2 16694926905248193433
23559900 14 18057597665431653778
23728640 28 18339919303705930594
257057 1 18054774350407397791
2748010 2 17981071646709356111
34934 24 17979935017974500281
465052 167 17898039952143596817
5845 1 18055335088468687257
6338986 31 18125709342952248575
81228 2 18338496612873833241
90525 40 17827075108843035748

> <PUBCHEM_SHAPE_MULTIPOLES>
353.47
4.35
4
1.45
4.34
0.85
0.18
-0.38
-0.96
-3.84
0.69
0.04
0.09
-0.69

> <PUBCHEM_SHAPE_SELFOVERLAP>
742.751

> <PUBCHEM_SHAPE_VOLUME>
201.1

> <PUBCHEM_COORDINATE_TYPE>
2
5
10

$$$$
