3784685
  -OEChem-01171811433D

 41 43  0     0  0  0  0  0  0999 V2000
   -6.5760   -2.0991   -0.3784 Cl  0  0  0  0  0  0  0  0  0  0  0  0
   -4.9487   -0.9681    1.8255 F   0  0  0  0  0  0  0  0  0  0  0  0
   -1.1592    0.1257   -0.8176 O   0  0  0  0  0  0  0  0  0  0  0  0
    2.2013   -2.0173    2.0706 O   0  0  0  0  0  0  0  0  0  0  0  0
    1.9809    1.6736   -0.8838 O   0  0  0  0  0  0  0  0  0  0  0  0
    5.5580   -1.3014   -1.0750 O   0  0  0  0  0  0  0  0  0  0  0  0
    3.8880   -1.6751    0.4946 N   0  0  0  0  0  0  0  0  0  0  0  0
    3.7570    0.1716   -1.0228 N   0  0  0  0  0  0  0  0  0  0  0  0
    2.0164   -0.1519    0.6260 C   0  0  0  0  0  0  0  0  0  0  0  0
    2.6864   -1.3666    1.1466 C   0  0  0  0  0  0  0  0  0  0  0  0
    2.5556    0.6603   -0.4886 C   0  0  0  0  0  0  0  0  0  0  0  0
    0.0664    1.4056    0.8046 C   0  0  0  0  0  0  0  0  0  0  0  0
    0.8621    0.2319    1.1926 C   0  0  0  0  0  0  0  0  0  0  0  0
    4.4796   -0.9594   -0.5768 C   0  0  0  0  0  0  0  0  0  0  0  0
   -0.9068    1.3043   -0.1798 C   0  0  0  0  0  0  0  0  0  0  0  0
    4.6235   -2.8509    0.9537 C   0  0  0  0  0  0  0  0  0  0  0  0
    4.3185    0.9051   -2.1547 C   0  0  0  0  0  0  0  0  0  0  0  0
    0.3121    2.6127    1.4447 C   0  0  0  0  0  0  0  0  0  0  0  0
   -1.6487    2.4320   -0.5312 C   0  0  0  0  0  0  0  0  0  0  0  0
   -0.4299    3.7404    1.0934 C   0  0  0  0  0  0  0  0  0  0  0  0
   -1.4103    3.6500    0.1054 C   0  0  0  0  0  0  0  0  0  0  0  0
   -2.4350   -0.3995   -0.7125 C   0  0  0  0  0  0  0  0  0  0  0  0
   -3.0566   -0.4201    0.5235 C   0  0  0  0  0  0  0  0  0  0  0  0
   -3.0585   -0.8900   -1.8462 C   0  0  0  0  0  0  0  0  0  0  0  0
   -4.3433   -0.9482    0.6293 C   0  0  0  0  0  0  0  0  0  0  0  0
   -4.3452   -1.4182   -1.7405 C   0  0  0  0  0  0  0  0  0  0  0  0
   -4.9876   -1.4472   -0.5027 C   0  0  0  0  0  0  0  0  0  0  0  0
    0.4238   -0.3299    2.0145 H   0  0  0  0  0  0  0  0  0  0  0  0
    4.7524   -3.5380    0.1110 H   0  0  0  0  0  0  0  0  0  0  0  0
    4.1146   -3.3730    1.7674 H   0  0  0  0  0  0  0  0  0  0  0  0
    5.6147   -2.5342    1.2942 H   0  0  0  0  0  0  0  0  0  0  0  0
    3.5971    1.5903   -2.6067 H   0  0  0  0  0  0  0  0  0  0  0  0
    4.6644    0.1992   -2.9164 H   0  0  0  0  0  0  0  0  0  0  0  0
    5.1809    1.4754   -1.7951 H   0  0  0  0  0  0  0  0  0  0  0  0
    1.0729    2.6981    2.2164 H   0  0  0  0  0  0  0  0  0  0  0  0
   -2.4086    2.3835   -1.3068 H   0  0  0  0  0  0  0  0  0  0  0  0
   -0.2438    4.6890    1.5885 H   0  0  0  0  0  0  0  0  0  0  0  0
   -1.9862    4.5287   -0.1699 H   0  0  0  0  0  0  0  0  0  0  0  0
   -2.5713   -0.0545    1.4232 H   0  0  0  0  0  0  0  0  0  0  0  0
   -2.5598   -0.8673   -2.8105 H   0  0  0  0  0  0  0  0  0  0  0  0
   -4.8349   -1.8031   -2.6314 H   0  0  0  0  0  0  0  0  0  0  0  0
  1 27  1  0  0  0  0
  2 25  1  0  0  0  0
  3 15  1  0  0  0  0
  3 22  1  0  0  0  0
  4 10  2  0  0  0  0
  5 11  2  0  0  0  0
  6 14  2  0  0  0  0
  7 10  1  0  0  0  0
  7 14  1  0  0  0  0
  7 16  1  0  0  0  0
  8 11  1  0  0  0  0
  8 14  1  0  0  0  0
  8 17  1  0  0  0  0
  9 10  1  0  0  0  0
  9 11  1  0  0  0  0
  9 13  2  0  0  0  0
 12 13  1  0  0  0  0
 12 15  1  0  0  0  0
 12 18  2  0  0  0  0
 13 28  1  0  0  0  0
 15 19  2  0  0  0  0
 16 29  1  0  0  0  0
 16 30  1  0  0  0  0
 16 31  1  0  0  0  0
 17 32  1  0  0  0  0
 17 33  1  0  0  0  0
 17 34  1  0  0  0  0
 18 20  1  0  0  0  0
 18 35  1  0  0  0  0
 19 21  1  0  0  0  0
 19 36  1  0  0  0  0
 20 21  2  0  0  0  0
 20 37  1  0  0  0  0
 21 38  1  0  0  0  0
 22 23  2  0  0  0  0
 22 24  1  0  0  0  0
 23 25  1  0  0  0  0
 23 39  1  0  0  0  0
 24 26  2  0  0  0  0
 24 40  1  0  0  0  0
 25 27  2  0  0  0  0
 26 27  1  0  0  0  0
 26 41  1  0  0  0  0
M  END
> <PUBCHEM_COMPOUND_CID>
3784685

> <PUBCHEM_CONFORMER_RMSD>
0.8

> <PUBCHEM_CONFORMER_DIVERSEORDER>
1
10
6
16
8
3
2
9
14
11
7
4
5
15
18
13
12
17

> <PUBCHEM_MMFF94_PARTIAL_CHARGES>
35
1 -0.18
10 0.62
11 0.62
12 0.03
13 -0.18
14 0.69
15 0.08
16 0.3
17 0.3
18 -0.15
19 -0.15
2 -0.19
20 -0.15
21 -0.15
22 0.08
23 -0.15
24 -0.15
25 0.19
26 -0.15
27 0.18
28 0.15
3 -0.17
35 0.15
36 0.15
37 0.15
38 0.15
39 0.15
4 -0.57
40 0.15
41 0.15
5 -0.57
6 -0.57
7 -0.42
8 -0.42
9 0.03

> <PUBCHEM_EFFECTIVE_ROTOR_COUNT>
3.4

> <PUBCHEM_PHARMACOPHORE_FEATURES>
8
1 3 acceptor
1 4 acceptor
1 5 acceptor
1 6 acceptor
1 9 anion
6 12 15 18 19 20 21 rings
6 22 23 24 25 26 27 rings
6 7 8 9 10 11 14 rings

> <PUBCHEM_HEAVY_ATOM_COUNT>
27

> <PUBCHEM_ATOM_DEF_STEREO_COUNT>
0

> <PUBCHEM_ATOM_UDEF_STEREO_COUNT>
0

> <PUBCHEM_BOND_DEF_STEREO_COUNT>
0

> <PUBCHEM_BOND_UDEF_STEREO_COUNT>
0

> <PUBCHEM_ISOTOPIC_ATOM_COUNT>
0

> <PUBCHEM_COMPONENT_COUNT>
1

> <PUBCHEM_CACTVS_TAUTO_COUNT>
1

> <PUBCHEM_CONFORMER_ID>
0039BFED00000001

> <PUBCHEM_MMFF94_ENERGY>
83.6149

> <PUBCHEM_FEATURE_SELFOVERLAP>
40.598

> <PUBCHEM_SHAPE_FINGERPRINT>
10319926 262 15482401936536567167
10622 236 18044361735022935778
10764073 3 14473909929453168793
10928967 22 18271516567976265543
11578080 2 18119218750253415860
11991303 11 17972876956968821205
12128747 34 14835582253470019639
12403259 327 14333133021877150087
12553582 1 18342448262143637151
12714826 92 18131065974629493441
12760667 363 18409729530420747003
12788726 201 18411705343972296016
13009979 54 18265610975512186506
13103583 49 18201173121730370923
13533116 47 18124028195039309419
13583140 156 12966834771777633735
13631057 29 18410575055299908340
13911987 19 17680169639750935028
14251764 30 18411984689062550439
14739800 52 15768080444720416737
15537594 2 18338519745778945991
16752209 62 18269259184472142127
17349148 13 17822290142240755128
17492 89 18268713805889883494
17909252 39 18410572881878152402
1813 80 18202004360620208885
18222031 100 17988354966529889247
19319366 153 18188485899780724518
19784866 140 18334862722564416719
20775438 99 17618193536468862511
21591331 117 18412834590101747923
22950370 63 18411985779994364295
235170 7 16443059500140639063
23559900 14 17532650346975097887
23598288 3 18266464191792435145
23622692 88 10303824155219539924
238 59 16732989725937879980
3004659 81 18041271106362580754
312423 11 18261681367940588462
345986 75 18273217495373548089
34797466 226 16443344325592689719
46194498 28 16878786153139379791
463206 1 18339073895086232999
465052 167 18200880690044304631
474 4 8357994285385326365
57527585 21 15720826509896640870
59025328 239 17337820167503414917
633830 44 11386910144317380817
70251023 43 18341618122364214072
7164475 11 18338238155080418836
7970288 3 18342455950046141079

> <PUBCHEM_SHAPE_MULTIPOLES>
516.8
11.98
3.61
1.76
5.55
3.32
0.16
-12.89
2.67
0.02
-1.11
-0.62
-0.33
-1.47

> <PUBCHEM_SHAPE_SELFOVERLAP>
1123.617

> <PUBCHEM_SHAPE_VOLUME>
283.7

> <PUBCHEM_COORDINATE_TYPE>
2
5
10

$$$$
