1428004
  -OEChem-01171812003D

 55 56  0     0  0  0  0  0  0999 V2000
   -1.3293    3.5841    0.9894 S   0  0  0  0  0  0  0  0  0  0  0  0
    3.1252    2.5428   -1.0873 O   0  0  0  0  0  0  0  0  0  0  0  0
   -0.1478   -1.4731    0.8055 O   0  0  0  0  0  0  0  0  0  0  0  0
    4.4659   -2.1303    0.4435 O   0  0  0  0  0  0  0  0  0  0  0  0
    4.2524    0.0704   -0.3464 N   0  0  0  0  0  0  0  0  0  0  0  0
   -1.2572    0.9963    0.0612 N   0  0  0  0  0  0  0  0  0  0  0  0
   -3.3618    2.0354    0.4146 N   0  0  0  0  0  0  0  0  0  0  0  0
    2.8615    0.3116   -0.2456 C   0  0  0  0  0  0  0  0  0  0  0  0
    0.1157    0.7584   -0.0369 C   0  0  0  0  0  0  0  0  0  0  0  0
    2.3249    1.5437   -0.6193 C   0  0  0  0  0  0  0  0  0  0  0  0
    6.4299   -0.9319   -0.2780 C   0  0  0  0  0  0  0  0  0  0  0  0
    0.6521   -0.4737    0.3368 C   0  0  0  0  0  0  0  0  0  0  0  0
    2.0251   -0.6971    0.2325 C   0  0  0  0  0  0  0  0  0  0  0  0
    0.9520    1.7671   -0.5149 C   0  0  0  0  0  0  0  0  0  0  0  0
    7.2570   -2.1706    0.0584 C   0  0  0  0  0  0  0  0  0  0  0  0
    4.9375   -1.0959   -0.0169 C   0  0  0  0  0  0  0  0  0  0  0  0
   -5.9034   -1.1887   -0.5045 C   0  0  0  0  0  0  0  0  0  0  0  0
   -4.2180    0.9492    0.1046 C   0  0  0  0  0  0  0  0  0  0  0  0
   -6.8053   -2.3311   -0.8296 C   0  0  0  0  0  0  0  0  0  0  0  0
   -4.9881   -0.7302   -1.4519 C   0  0  0  0  0  0  0  0  0  0  0  0
   -5.9759   -0.5781    0.7476 C   0  0  0  0  0  0  0  0  0  0  0  0
   -4.1454    0.3388   -1.1474 C   0  0  0  0  0  0  0  0  0  0  0  0
   -5.1332    0.4908    1.0523 C   0  0  0  0  0  0  0  0  0  0  0  0
   -1.9790    2.1376    0.4184 C   0  0  0  0  0  0  0  0  0  0  0  0
    8.7415   -1.9732   -0.2145 C   0  0  0  0  0  0  0  0  0  0  0  0
   -6.1912   -3.6790   -0.4606 C   0  0  0  0  0  0  0  0  0  0  0  0
    3.6638    3.4458   -0.1242 C   0  0  0  0  0  0  0  0  0  0  0  0
   -0.3689   -1.5189    2.2133 C   0  0  0  0  0  0  0  0  0  0  0  0
    6.7857   -0.0804    0.3152 H   0  0  0  0  0  0  0  0  0  0  0  0
    6.5623   -0.6786   -1.3371 H   0  0  0  0  0  0  0  0  0  0  0  0
    2.3675   -1.6757    0.5369 H   0  0  0  0  0  0  0  0  0  0  0  0
    0.5645    2.7119   -0.8822 H   0  0  0  0  0  0  0  0  0  0  0  0
    6.8952   -3.0253   -0.5256 H   0  0  0  0  0  0  0  0  0  0  0  0
    7.1181   -2.4313    1.1145 H   0  0  0  0  0  0  0  0  0  0  0  0
    4.7979    0.8486   -0.7105 H   0  0  0  0  0  0  0  0  0  0  0  0
   -1.8030    0.1389    0.1012 H   0  0  0  0  0  0  0  0  0  0  0  0
   -7.7630   -2.2125   -0.3075 H   0  0  0  0  0  0  0  0  0  0  0  0
   -7.0489   -2.3230   -1.8993 H   0  0  0  0  0  0  0  0  0  0  0  0
   -4.9218   -1.1973   -2.4309 H   0  0  0  0  0  0  0  0  0  0  0  0
   -6.6833   -0.9273    1.4951 H   0  0  0  0  0  0  0  0  0  0  0  0
   -3.4431    0.6895   -1.8993 H   0  0  0  0  0  0  0  0  0  0  0  0
   -5.1973    0.9579    2.0317 H   0  0  0  0  0  0  0  0  0  0  0  0
   -3.8107    2.7561    0.9768 H   0  0  0  0  0  0  0  0  0  0  0  0
    8.9180   -1.7488   -1.2712 H   0  0  0  0  0  0  0  0  0  0  0  0
    9.2979   -2.8810    0.0388 H   0  0  0  0  0  0  0  0  0  0  0  0
    9.1425   -1.1491    0.3840 H   0  0  0  0  0  0  0  0  0  0  0  0
   -5.2535   -3.8481   -1.0008 H   0  0  0  0  0  0  0  0  0  0  0  0
   -6.8810   -4.4903   -0.7137 H   0  0  0  0  0  0  0  0  0  0  0  0
   -5.9770   -3.7363    0.6120 H   0  0  0  0  0  0  0  0  0  0  0  0
    4.3111    4.1562   -0.6454 H   0  0  0  0  0  0  0  0  0  0  0  0
    4.2605    2.9112    0.6216 H   0  0  0  0  0  0  0  0  0  0  0  0
    2.8597    4.0019    0.3683 H   0  0  0  0  0  0  0  0  0  0  0  0
    0.5747   -1.6810    2.7440 H   0  0  0  0  0  0  0  0  0  0  0  0
   -0.8420   -0.5955    2.5621 H   0  0  0  0  0  0  0  0  0  0  0  0
   -1.0386   -2.3562    2.4275 H   0  0  0  0  0  0  0  0  0  0  0  0
  1 24  2  0  0  0  0
  2 10  1  0  0  0  0
  2 27  1  0  0  0  0
  3 12  1  0  0  0  0
  3 28  1  0  0  0  0
  4 16  2  0  0  0  0
  5  8  1  0  0  0  0
  5 16  1  0  0  0  0
  5 35  1  0  0  0  0
  6  9  1  0  0  0  0
  6 24  1  0  0  0  0
  6 36  1  0  0  0  0
  7 18  1  0  0  0  0
  7 24  1  0  0  0  0
  7 43  1  0  0  0  0
  8 10  1  0  0  0  0
  8 13  2  0  0  0  0
  9 12  2  0  0  0  0
  9 14  1  0  0  0  0
 10 14  2  0  0  0  0
 11 15  1  0  0  0  0
 11 16  1  0  0  0  0
 11 29  1  0  0  0  0
 11 30  1  0  0  0  0
 12 13  1  0  0  0  0
 13 31  1  0  0  0  0
 14 32  1  0  0  0  0
 15 25  1  0  0  0  0
 15 33  1  0  0  0  0
 15 34  1  0  0  0  0
 17 19  1  0  0  0  0
 17 20  2  0  0  0  0
 17 21  1  0  0  0  0
 18 22  2  0  0  0  0
 18 23  1  0  0  0  0
 19 26  1  0  0  0  0
 19 37  1  0  0  0  0
 19 38  1  0  0  0  0
 20 22  1  0  0  0  0
 20 39  1  0  0  0  0
 21 23  2  0  0  0  0
 21 40  1  0  0  0  0
 22 41  1  0  0  0  0
 23 42  1  0  0  0  0
 25 44  1  0  0  0  0
 25 45  1  0  0  0  0
 25 46  1  0  0  0  0
 26 47  1  0  0  0  0
 26 48  1  0  0  0  0
 26 49  1  0  0  0  0
 27 50  1  0  0  0  0
 27 51  1  0  0  0  0
 27 52  1  0  0  0  0
 28 53  1  0  0  0  0
 28 54  1  0  0  0  0
 28 55  1  0  0  0  0
M  END
> <PUBCHEM_COMPOUND_CID>
1428004

> <PUBCHEM_CONFORMER_RMSD>
1

> <PUBCHEM_CONFORMER_DIVERSEORDER>
1
46
25
29
21
20
3
42
36
45
35
17
40
16
19
15
14
10
31
5
34
37
44
23
4
27
7
24
18
30
38
12
6
13
43
9
41
8
32
39
33
22
26
28
11
2

> <PUBCHEM_MMFF94_PARTIAL_CHARGES>
34
1 -0.38
10 0.08
11 0.06
12 0.08
13 -0.15
14 -0.15
16 0.57
17 -0.14
18 0.12
19 0.14
2 -0.36
20 -0.15
21 -0.15
22 -0.15
23 -0.15
24 0.5
27 0.28
28 0.28
3 -0.36
31 0.15
32 0.15
35 0.37
36 0.37
39 0.15
4 -0.57
40 0.15
41 0.15
42 0.15
43 0.37
5 -0.55
6 -0.55
7 -0.55
8 0.12
9 0.12

> <PUBCHEM_EFFECTIVE_ROTOR_COUNT>
11

> <PUBCHEM_PHARMACOPHORE_FEATURES>
11
1 1 acceptor
1 2 acceptor
1 25 hydrophobe
1 26 hydrophobe
1 3 acceptor
1 4 acceptor
1 5 donor
1 6 donor
1 7 donor
6 17 18 20 21 22 23 rings
6 8 9 10 12 13 14 rings

> <PUBCHEM_HEAVY_ATOM_COUNT>
28

> <PUBCHEM_ATOM_DEF_STEREO_COUNT>
0

> <PUBCHEM_ATOM_UDEF_STEREO_COUNT>
0

> <PUBCHEM_BOND_DEF_STEREO_COUNT>
0

> <PUBCHEM_BOND_UDEF_STEREO_COUNT>
0

> <PUBCHEM_ISOTOPIC_ATOM_COUNT>
0

> <PUBCHEM_COMPONENT_COUNT>
1

> <PUBCHEM_CACTVS_TAUTO_COUNT>
6

> <PUBCHEM_CONFORMER_ID>
0015CA2400000001

> <PUBCHEM_MMFF94_ENERGY>
120.4004

> <PUBCHEM_FEATURE_SELFOVERLAP>
55.858

> <PUBCHEM_SHAPE_FINGERPRINT>
11135609 99 18412261778882849262
12166972 35 18113901593393124805
12403260 363 18410581656338289880
12633257 1 14261352518445594471
12645989 146 18409172116664099254
13533116 47 18410857698418676336
13862211 1 18261675874941134954
14068700 675 18411420587994570872
14784336 7 18335413531204520576
14787075 74 18336830913473084441
14931854 50 18041546045354186783
15064986 266 17967257512279432461
15183329 4 18113615681689115618
15461852 350 18343309133294888470
17349148 13 18334018267691105993
18681886 176 18411130325545869216
20028762 73 18413388730782586734
20775438 99 17476898617551511743
21130935 74 18127125266076670690
21267235 1 18408327670243208961
21709351 56 18187081711562328293
22393880 68 17895462658032858573
23522609 53 18123224317899218404
23559900 14 18260835955332035096
23569943 247 18050285865467262170
3383291 50 18334296457508861906
484989 97 18041851721490292731
5104073 3 17846221094197091505
54039377 194 18413108372555285247
7495541 125 17489584593106047689
7970288 3 18342172302422217735

> <PUBCHEM_SHAPE_MULTIPOLES>
547.53
20.12
3.89
1.17
14.36
1.34
0.3
-20.81
-3.46
-0.42
0.11
-1.02
-0.14
-1.83

> <PUBCHEM_SHAPE_SELFOVERLAP>
1122.707

> <PUBCHEM_SHAPE_VOLUME>
317.1

> <PUBCHEM_COORDINATE_TYPE>
2
5
10

$$$$
