773112
  -OEChem-01171811493D

 31 33  0     0  0  0  0  0  0999 V2000
   -3.7449   -0.2252   -0.8505 O   0  0  0  0  0  0  0  0  0  0  0  0
   -0.8383   -1.3025    0.2615 O   0  0  0  0  0  0  0  0  0  0  0  0
    0.0762    3.3400   -0.2048 O   0  0  0  0  0  0  0  0  0  0  0  0
    4.2209   -2.7216    0.1439 O   0  0  0  0  0  0  0  0  0  0  0  0
    5.7890   -1.1056   -0.0793 O   0  0  0  0  0  0  0  0  0  0  0  0
    1.1733   -0.0019    0.0458 C   0  0  0  0  0  0  0  0  0  0  0  0
    1.4423    1.3640   -0.0917 C   0  0  0  0  0  0  0  0  0  0  0  0
   -0.8762    1.1179    0.0434 C   0  0  0  0  0  0  0  0  0  0  0  0
   -0.2754   -0.2369    0.1378 C   0  0  0  0  0  0  0  0  0  0  0  0
    0.1926    2.1387   -0.1018 C   0  0  0  0  0  0  0  0  0  0  0  0
    2.1868   -0.9399    0.0815 C   0  0  0  0  0  0  0  0  0  0  0  0
    2.7345    1.8407   -0.1981 C   0  0  0  0  0  0  0  0  0  0  0  0
   -2.1817    1.3790    0.0837 C   0  0  0  0  0  0  0  0  0  0  0  0
    3.4996   -0.4724   -0.0247 C   0  0  0  0  0  0  0  0  0  0  0  0
   -3.2106    0.3876    0.2242 C   0  0  0  0  0  0  0  0  0  0  0  0
    3.7707    0.9033   -0.1631 C   0  0  0  0  0  0  0  0  0  0  0  0
   -3.7621   -0.0509    1.3903 C   0  0  0  0  0  0  0  0  0  0  0  0
   -4.6731   -1.0887   -0.3617 C   0  0  0  0  0  0  0  0  0  0  0  0
   -4.7219   -1.0193    1.0112 C   0  0  0  0  0  0  0  0  0  0  0  0
    4.6036   -1.4194    0.0073 C   0  0  0  0  0  0  0  0  0  0  0  0
   -5.4054   -1.8869   -1.3550 C   0  0  0  0  0  0  0  0  0  0  0  0
    1.9427   -1.9909    0.1890 H   0  0  0  0  0  0  0  0  0  0  0  0
    2.9470    2.8983   -0.3049 H   0  0  0  0  0  0  0  0  0  0  0  0
   -2.5222    2.4086    0.0074 H   0  0  0  0  0  0  0  0  0  0  0  0
    4.7946    1.2611   -0.2455 H   0  0  0  0  0  0  0  0  0  0  0  0
   -3.5189    0.2711    2.3932 H   0  0  0  0  0  0  0  0  0  0  0  0
   -5.3674   -1.5937    1.6602 H   0  0  0  0  0  0  0  0  0  0  0  0
   -6.1285   -2.5518   -0.8725 H   0  0  0  0  0  0  0  0  0  0  0  0
   -5.9513   -1.2358   -2.0447 H   0  0  0  0  0  0  0  0  0  0  0  0
   -4.7141   -2.5036   -1.9377 H   0  0  0  0  0  0  0  0  0  0  0  0
    4.9921   -3.3278    0.1611 H   0  0  0  0  0  0  0  0  0  0  0  0
  1 15  1  0  0  0  0
  1 18  1  0  0  0  0
  2  9  2  0  0  0  0
  3 10  2  0  0  0  0
  4 20  1  0  0  0  0
  4 31  1  0  0  0  0
  5 20  2  0  0  0  0
  6  7  2  0  0  0  0
  6  9  1  0  0  0  0
  6 11  1  0  0  0  0
  7 10  1  0  0  0  0
  7 12  1  0  0  0  0
  8  9  1  0  0  0  0
  8 10  1  0  0  0  0
  8 13  2  0  0  0  0
 11 14  2  0  0  0  0
 11 22  1  0  0  0  0
 12 16  2  0  0  0  0
 12 23  1  0  0  0  0
 13 15  1  0  0  0  0
 13 24  1  0  0  0  0
 14 16  1  0  0  0  0
 14 20  1  0  0  0  0
 15 17  2  0  0  0  0
 16 25  1  0  0  0  0
 17 19  1  0  0  0  0
 17 26  1  0  0  0  0
 18 19  2  0  0  0  0
 18 21  1  0  0  0  0
 19 27  1  0  0  0  0
 21 28  1  0  0  0  0
 21 29  1  0  0  0  0
 21 30  1  0  0  0  0
M  END
> <PUBCHEM_COMPOUND_CID>
773112

> <PUBCHEM_CONFORMER_RMSD>
0.6

> <PUBCHEM_CONFORMER_DIVERSEORDER>
1
3
2
4

> <PUBCHEM_MMFF94_PARTIAL_CHARGES>
28
1 -0.28
10 0.47
11 -0.15
12 -0.15
13 -0.11
14 0.09
15 0.09
16 -0.15
17 -0.15
18 -0.04
19 -0.15
2 -0.57
20 0.63
21 0.18
22 0.15
23 0.15
24 0.15
25 0.15
26 0.15
27 0.15
3 -0.57
31 0.5
4 -0.65
5 -0.57
6 0.09
7 0.09
8 0.03
9 0.47

> <PUBCHEM_EFFECTIVE_ROTOR_COUNT>
2

> <PUBCHEM_PHARMACOPHORE_FEATURES>
10
1 1 acceptor
1 2 acceptor
1 3 acceptor
1 4 acceptor
1 5 acceptor
1 8 anion
3 4 5 20 anion
5 1 15 17 18 19 rings
5 6 7 8 9 10 rings
6 6 7 11 12 14 16 rings

> <PUBCHEM_HEAVY_ATOM_COUNT>
21

> <PUBCHEM_ATOM_DEF_STEREO_COUNT>
0

> <PUBCHEM_ATOM_UDEF_STEREO_COUNT>
0

> <PUBCHEM_BOND_DEF_STEREO_COUNT>
1

> <PUBCHEM_BOND_UDEF_STEREO_COUNT>
0

> <PUBCHEM_ISOTOPIC_ATOM_COUNT>
0

> <PUBCHEM_COMPONENT_COUNT>
1

> <PUBCHEM_CACTVS_TAUTO_COUNT>
1

> <PUBCHEM_CONFORMER_ID>
000BCBF800000001

> <PUBCHEM_MMFF94_ENERGY>
59.9681

> <PUBCHEM_FEATURE_SELFOVERLAP>
50.896

> <PUBCHEM_SHAPE_FINGERPRINT>
10622 236 17771885372154334487
11089746 13 12179851627953391630
11543360 7 15285652017956315689
12032990 46 18335706026598015048
12236239 1 18059860610389553059
12403259 226 18338792321805043080
12596602 18 17203890768973629498
12839892 36 17418093221855303295
13288520 33 18411421669961767311
13544653 18 18335144193415211965
13675066 3 12895357702741396089
13760787 5 18334301993462651693
13862211 1 18409444774294757034
14251764 75 10878552162886789338
14576447 43 18341330101514459620
14767858 380 18188788218607444764
15188451 53 16845281787889699175
15196674 1 18409731754965834457
15352361 1 18409449176166321195
15788980 27 18408041805910044637
15848700 24 18407758149058500436
17349148 13 18131078159662682731
17357779 13 17895461622919483773
17492 89 18194119608615002694
17857418 61 18413668010909384343
17862501 102 18131635603689271385
1813 80 18342471325975579341
18222031 100 18411128147617719707
193927 3 18410866438143912550
19591789 44 18409167692716097370
200 152 18342737460004068521
20028762 73 18130784589953312743
20645477 70 18261387888108292302
21267235 1 18410022022109670298
221357 26 18261101990011638373
221490 88 18189625019232361915
22393880 68 17968361425784638567
22950370 63 18411706469274813556
23402539 116 18341328907545115221
23522609 53 18053418532396545352
23559900 14 17895194449582312744
2871803 45 18113330921035335033
296302 2 9151177545419729841
3004659 81 18040715857701771782
314194 84 18339647840339820915
3286 77 17704067417210318185
335352 9 18409450246420598565
34797466 226 16009323113970178943
4259306 186 18333449841670037503
46194498 28 17386562608683607229
465052 167 18342183283962386726
5104073 3 18340486664933552864
602551 16 15553881221448213085
76465 3 18342172280456218493
7970288 3 18412541011644427663
9709674 26 18261397796893269497
9981440 41 17043439311968266257

> <PUBCHEM_SHAPE_MULTIPOLES>
402.82
11.53
2.54
0.89
2.13
0.77
-0.03
-8.63
0.81
-1.56
0.29
1.25
-0.21
-0.77

> <PUBCHEM_SHAPE_SELFOVERLAP>
903.738

> <PUBCHEM_SHAPE_VOLUME>
215.9

> <PUBCHEM_COORDINATE_TYPE>
2
5
10

$$$$
