3236823
  -OEChem-01171811383D

 36 37  0     1  0  0  0  0  0999 V2000
   -2.5399   -0.6456    1.9064 F   0  0  0  0  0  0  0  0  0  0  0  0
   -1.4758   -2.3262    1.0117 F   0  0  0  0  0  0  0  0  0  0  0  0
   -3.5610   -1.9569    0.4981 F   0  0  0  0  0  0  0  0  0  0  0  0
   -1.7687   -1.3033   -1.5435 O   0  0  0  0  0  0  0  0  0  0  0  0
    0.8195   -1.6122   -0.7698 O   0  0  0  0  0  0  0  0  0  0  0  0
   -4.0245    0.5615    0.1010 O   0  0  0  0  0  0  0  0  0  0  0  0
   -2.8608    1.3404   -1.7252 O   0  0  0  0  0  0  0  0  0  0  0  0
    1.6728    0.4373    0.0313 N   0  0  0  0  0  0  0  0  0  0  0  0
    1.0388    1.5912    0.4177 N   0  0  0  0  0  0  0  0  0  0  0  0
   -1.9381   -0.4762   -0.3956 C   0  0  2  0  0  0  0  0  0  0  0  0
   -0.6332    0.2020   -0.1298 C   0  0  0  0  0  0  0  0  0  0  0  0
   -0.3199    1.4197    0.3406 C   0  0  0  0  0  0  0  0  0  0  0  0
    0.6874   -0.4771   -0.3419 C   0  0  0  0  0  0  0  0  0  0  0  0
   -2.3808   -1.3518    0.7658 C   0  0  0  0  0  0  0  0  0  0  0  0
   -2.9683    0.5865   -0.7647 C   0  0  0  0  0  0  0  0  0  0  0  0
    3.0358    0.2208    0.0149 C   0  0  0  0  0  0  0  0  0  0  0  0
   -1.2340    2.5077    0.7791 C   0  0  0  0  0  0  0  0  0  0  0  0
    3.5563   -1.0120   -0.4050 C   0  0  0  0  0  0  0  0  0  0  0  0
    3.9228    1.2301    0.4171 C   0  0  0  0  0  0  0  0  0  0  0  0
    4.9338   -1.2310   -0.4220 C   0  0  0  0  0  0  0  0  0  0  0  0
    5.3002    1.0111    0.3998 C   0  0  0  0  0  0  0  0  0  0  0  0
    5.8057   -0.2195   -0.0197 C   0  0  0  0  0  0  0  0  0  0  0  0
   -5.0683    1.5034   -0.1661 C   0  0  0  0  0  0  0  0  0  0  0  0
    1.4527    2.2472    1.0660 H   0  0  0  0  0  0  0  0  0  0  0  0
   -1.4843    3.1653   -0.0586 H   0  0  0  0  0  0  0  0  0  0  0  0
   -0.7561    3.1214    1.5514 H   0  0  0  0  0  0  0  0  0  0  0  0
   -2.1530    2.1216    1.2268 H   0  0  0  0  0  0  0  0  0  0  0  0
   -2.5889   -1.8108   -1.6707 H   0  0  0  0  0  0  0  0  0  0  0  0
    2.9557   -1.8496   -0.7305 H   0  0  0  0  0  0  0  0  0  0  0  0
    3.5692    2.2033    0.7462 H   0  0  0  0  0  0  0  0  0  0  0  0
    5.3290   -2.1888   -0.7480 H   0  0  0  0  0  0  0  0  0  0  0  0
    5.9798    1.7988    0.7119 H   0  0  0  0  0  0  0  0  0  0  0  0
    6.8783   -0.3898   -0.0332 H   0  0  0  0  0  0  0  0  0  0  0  0
   -5.5108    1.3093   -1.1477 H   0  0  0  0  0  0  0  0  0  0  0  0
   -4.6799    2.5249   -0.1114 H   0  0  0  0  0  0  0  0  0  0  0  0
   -5.8405    1.3804    0.5978 H   0  0  0  0  0  0  0  0  0  0  0  0
  1 14  1  0  0  0  0
  2 14  1  0  0  0  0
  3 14  1  0  0  0  0
  4 10  1  0  0  0  0
  4 28  1  0  0  0  0
  5 13  2  0  0  0  0
  6 15  1  0  0  0  0
  6 23  1  0  0  0  0
  7 15  2  0  0  0  0
  8  9  1  0  0  0  0
  8 13  1  0  0  0  0
  8 16  1  0  0  0  0
  9 12  1  0  0  0  0
  9 24  1  0  0  0  0
 10 11  1  0  0  0  0
 10 14  1  0  0  0  0
 10 15  1  0  0  0  0
 11 12  2  0  0  0  0
 11 13  1  0  0  0  0
 12 17  1  0  0  0  0
 16 18  2  0  0  0  0
 16 19  1  0  0  0  0
 17 25  1  0  0  0  0
 17 26  1  0  0  0  0
 17 27  1  0  0  0  0
 18 20  1  0  0  0  0
 18 29  1  0  0  0  0
 19 21  2  0  0  0  0
 19 30  1  0  0  0  0
 20 22  2  0  0  0  0
 20 31  1  0  0  0  0
 21 22  1  0  0  0  0
 21 32  1  0  0  0  0
 22 33  1  0  0  0  0
 23 34  1  0  0  0  0
 23 35  1  0  0  0  0
 23 36  1  0  0  0  0
M  END
> <PUBCHEM_COMPOUND_CID>
3236823

> <PUBCHEM_CONFORMER_RMSD>
0.8

> <PUBCHEM_CONFORMER_DIVERSEORDER>
1
20
17
5
19
16
8
18
9
13
12
3
7
6
15
11
4
10
14
2

> <PUBCHEM_MMFF94_PARTIAL_CHARGES>
30
1 -0.34
10 0.48
11 -0.12
12 -0.04
13 0.62
14 1.02
15 0.66
16 0.12
17 0.14
18 -0.15
19 -0.15
2 -0.34
20 -0.15
21 -0.15
22 -0.15
23 0.28
24 0.4
28 0.4
29 0.15
3 -0.34
30 0.15
31 0.15
32 0.15
33 0.15
4 -0.68
5 -0.57
6 -0.43
7 -0.57
8 -0.16
9 -0.52

> <PUBCHEM_EFFECTIVE_ROTOR_COUNT>
5

> <PUBCHEM_PHARMACOPHORE_FEATURES>
7
1 4 acceptor
1 4 donor
1 5 acceptor
1 7 acceptor
1 9 donor
5 8 9 11 12 13 rings
6 16 18 19 20 21 22 rings

> <PUBCHEM_HEAVY_ATOM_COUNT>
23

> <PUBCHEM_ATOM_DEF_STEREO_COUNT>
0

> <PUBCHEM_ATOM_UDEF_STEREO_COUNT>
1

> <PUBCHEM_BOND_DEF_STEREO_COUNT>
0

> <PUBCHEM_BOND_UDEF_STEREO_COUNT>
0

> <PUBCHEM_ISOTOPIC_ATOM_COUNT>
0

> <PUBCHEM_COMPONENT_COUNT>
1

> <PUBCHEM_CACTVS_TAUTO_COUNT>
3

> <PUBCHEM_CONFORMER_ID>
003163D700000001

> <PUBCHEM_MMFF94_ENERGY>
63.3955

> <PUBCHEM_FEATURE_SELFOVERLAP>
35.53

> <PUBCHEM_SHAPE_FINGERPRINT>
10906281 52 18201174160484935873
11405975 8 18259982687005958512
12236239 1 16558747901479764349
12788726 201 18198336269402429688
13140716 1 18270402814078180097
13214271 11 18341895216363578079
13224815 77 18271814540290715398
13533116 47 18263921030277454906
13675066 3 18410854404114813748
14115302 16 18187092753574677285
14386348 63 18411985758461421098
15196674 1 18341893017551208558
15309172 13 17846502564683525750
15375358 24 18412544301667640030
15788980 27 18113620097241802744
17844677 252 18260554454733051284
18186145 218 17530955917451195212
18927931 339 18201445761879842476
200 152 17346311592282121836
20645477 56 17967246481685149709
20645477 70 18131348571288968614
21033648 29 18200863076325167720
21267235 1 18272376335177541574
21279426 13 18267305322276396820
21339142 51 18408037437627981572
22224240 67 18114186290444600665
23175994 123 18343022202696978633
23402539 116 17988352706960646029
23493267 7 18260539005065553784
23559900 14 18410290303447747776
26918003 58 18409165511389285936
335352 9 18342457006633781116
34934 24 18412821365486162234
3545911 37 18335421245002693836
4214541 1 18334575754656882772
4340502 62 17894919464886540921
4921388 177 16805329924064824098
5104073 3 18411978083623752952
5283173 99 18336541625323238229
542803 24 16950284014354662164
59755656 215 18340492145522630286
59755656 520 18261104142001256719
633830 44 18187921815971079310
70251023 43 17838037562216633679
8809292 202 18408042922337810539
9709674 26 18129105520239165126

> <PUBCHEM_SHAPE_MULTIPOLES>
418.07
10.71
2.11
1.09
9.27
0.04
0
0.96
-0.28
-1.07
0.36
-1
-0.19
0.98

> <PUBCHEM_SHAPE_SELFOVERLAP>
905.906

> <PUBCHEM_SHAPE_VOLUME>
229.4

> <PUBCHEM_COORDINATE_TYPE>
2
5
10

$$$$
