5767456
  -OEChem-01171812013D

 47 49  0     0  0  0  0  0  0999 V2000
    2.0792   -2.6680    0.6886 O   0  0  0  0  0  0  0  0  0  0  0  0
   -4.7652    0.2946    2.1358 O   0  0  0  0  0  0  0  0  0  0  0  0
   -6.0748   -0.1158   -0.2799 O   0  0  0  0  0  0  0  0  0  0  0  0
    5.7552    3.1066    0.2968 O   0  0  0  0  0  0  0  0  0  0  0  0
    7.8321    2.1995    0.1222 O   0  0  0  0  0  0  0  0  0  0  0  0
    2.4401   -0.4777   -0.1762 N   0  0  0  0  0  0  0  0  0  0  0  0
    1.6479    0.5903   -0.5914 N   0  0  0  0  0  0  0  0  0  0  0  0
    0.3113   -1.1347    0.0958 C   0  0  0  0  0  0  0  0  0  0  0  0
    0.4051    0.2242   -0.4377 C   0  0  0  0  0  0  0  0  0  0  0  0
    1.7046   -1.5908    0.2668 C   0  0  0  0  0  0  0  0  0  0  0  0
    3.8258   -0.4456   -0.1978 C   0  0  0  0  0  0  0  0  0  0  0  0
   -0.7813   -1.8400    0.3789 C   0  0  0  0  0  0  0  0  0  0  0  0
   -2.1757   -1.3852    0.2086 C   0  0  0  0  0  0  0  0  0  0  0  0
   -0.7716    1.0776   -0.7657 C   0  0  0  0  0  0  0  0  0  0  0  0
    4.5080    0.7645   -0.0289 C   0  0  0  0  0  0  0  0  0  0  0  0
   -2.8139   -0.7552    1.2626 C   0  0  0  0  0  0  0  0  0  0  0  0
    4.5562   -1.6241   -0.3880 C   0  0  0  0  0  0  0  0  0  0  0  0
   -2.8124   -1.5983   -1.0015 C   0  0  0  0  0  0  0  0  0  0  0  0
   -4.1309   -0.3247    1.1015 C   0  0  0  0  0  0  0  0  0  0  0  0
    5.9024    0.7957   -0.0501 C   0  0  0  0  0  0  0  0  0  0  0  0
   -4.7886   -0.5311   -0.1111 C   0  0  0  0  0  0  0  0  0  0  0  0
   -4.1293   -1.1678   -1.1625 C   0  0  0  0  0  0  0  0  0  0  0  0
    5.9505   -1.5928   -0.4092 C   0  0  0  0  0  0  0  0  0  0  0  0
    6.6236   -0.3828   -0.2403 C   0  0  0  0  0  0  0  0  0  0  0  0
    6.6049    2.0569    0.1247 C   0  0  0  0  0  0  0  0  0  0  0  0
   -6.3191    0.8319   -1.3175 C   0  0  0  0  0  0  0  0  0  0  0  0
   -4.6501    1.7143    2.2101 C   0  0  0  0  0  0  0  0  0  0  0  0
   -7.4878    1.6522   -0.9977 C   0  0  0  0  0  0  0  0  0  0  0  0
   -8.4463    2.3263   -0.7371 C   0  0  0  0  0  0  0  0  0  0  0  0
   -0.6873   -2.8485    0.7756 H   0  0  0  0  0  0  0  0  0  0  0  0
   -1.3725    1.2752    0.1226 H   0  0  0  0  0  0  0  0  0  0  0  0
   -1.3631    0.6347   -1.5677 H   0  0  0  0  0  0  0  0  0  0  0  0
   -0.4123    2.0463   -1.1304 H   0  0  0  0  0  0  0  0  0  0  0  0
    3.9290    1.6716    0.1261 H   0  0  0  0  0  0  0  0  0  0  0  0
   -2.3053   -0.5932    2.2099 H   0  0  0  0  0  0  0  0  0  0  0  0
    4.0779   -2.5816   -0.5682 H   0  0  0  0  0  0  0  0  0  0  0  0
   -2.3095   -2.0950   -1.8269 H   0  0  0  0  0  0  0  0  0  0  0  0
   -4.6311   -1.3435   -2.1101 H   0  0  0  0  0  0  0  0  0  0  0  0
    6.5123   -2.5088   -0.5676 H   0  0  0  0  0  0  0  0  0  0  0  0
    7.7103   -0.3795   -0.2626 H   0  0  0  0  0  0  0  0  0  0  0  0
   -5.4481    1.4851   -1.4565 H   0  0  0  0  0  0  0  0  0  0  0  0
   -6.4929    0.2893   -2.2535 H   0  0  0  0  0  0  0  0  0  0  0  0
   -5.0591    2.1842    1.3104 H   0  0  0  0  0  0  0  0  0  0  0  0
   -3.6036    2.0064    2.3430 H   0  0  0  0  0  0  0  0  0  0  0  0
   -5.2223    2.0596    3.0755 H   0  0  0  0  0  0  0  0  0  0  0  0
    6.2389    3.9522    0.4133 H   0  0  0  0  0  0  0  0  0  0  0  0
   -9.2965    2.9243   -0.5055 H   0  0  0  0  0  0  0  0  0  0  0  0
  1 10  2  0  0  0  0
  2 19  1  0  0  0  0
  2 27  1  0  0  0  0
  3 21  1  0  0  0  0
  3 26  1  0  0  0  0
  4 25  1  0  0  0  0
  4 46  1  0  0  0  0
  5 25  2  0  0  0  0
  6  7  1  0  0  0  0
  6 10  1  0  0  0  0
  6 11  1  0  0  0  0
  7  9  2  0  0  0  0
  8  9  1  0  0  0  0
  8 10  1  0  0  0  0
  8 12  2  0  0  0  0
  9 14  1  0  0  0  0
 11 15  1  0  0  0  0
 11 17  2  0  0  0  0
 12 13  1  0  0  0  0
 12 30  1  0  0  0  0
 13 16  2  0  0  0  0
 13 18  1  0  0  0  0
 14 31  1  0  0  0  0
 14 32  1  0  0  0  0
 14 33  1  0  0  0  0
 15 20  2  0  0  0  0
 15 34  1  0  0  0  0
 16 19  1  0  0  0  0
 16 35  1  0  0  0  0
 17 23  1  0  0  0  0
 17 36  1  0  0  0  0
 18 22  2  0  0  0  0
 18 37  1  0  0  0  0
 19 21  2  0  0  0  0
 20 24  1  0  0  0  0
 20 25  1  0  0  0  0
 21 22  1  0  0  0  0
 22 38  1  0  0  0  0
 23 24  2  0  0  0  0
 23 39  1  0  0  0  0
 24 40  1  0  0  0  0
 26 28  1  0  0  0  0
 26 41  1  0  0  0  0
 26 42  1  0  0  0  0
 27 43  1  0  0  0  0
 27 44  1  0  0  0  0
 27 45  1  0  0  0  0
 28 29  3  0  0  0  0
 29 47  1  0  0  0  0
M  END
> <PUBCHEM_COMPOUND_CID>
5767456

> <PUBCHEM_CONFORMER_RMSD>
0.8

> <PUBCHEM_CONFORMER_DIVERSEORDER>
3
31
42
30
36
51
55
58
21
8
12
43
33
52
39
48
49
26
2
41
18
10
40
20
25
56
45
29
35
54
34
5
50
37
19
47
32
4
59
28
44
16
13
24
14
22
11
38
46
6
53
60
57
1
27
23
17
9
7
15

> <PUBCHEM_MMFF94_PARTIAL_CHARGES>
39
1 -0.57
10 0.62
11 0.12
12 -0.18
13 0.03
14 0.06
15 -0.15
16 -0.15
17 -0.15
18 -0.15
19 0.08
2 -0.36
20 0.09
21 0.08
22 -0.15
23 -0.15
24 -0.15
25 0.63
26 0.48
27 0.28
28 -0.2
29 -0.18
3 -0.36
30 0.15
34 0.15
35 0.15
36 0.15
37 0.15
38 0.15
39 0.15
4 -0.65
40 0.15
46 0.5
47 0.18
5 -0.57
6 -0.11
7 -0.51
8 0.03
9 0.37

> <PUBCHEM_EFFECTIVE_ROTOR_COUNT>
6.2

> <PUBCHEM_PHARMACOPHORE_FEATURES>
11
1 1 acceptor
1 2 acceptor
1 29 hydrophobe
1 3 acceptor
1 4 acceptor
1 5 acceptor
1 7 acceptor
3 4 5 25 anion
5 6 7 8 9 10 rings
6 11 15 17 20 23 24 rings
6 13 16 18 19 21 22 rings

> <PUBCHEM_HEAVY_ATOM_COUNT>
29

> <PUBCHEM_ATOM_DEF_STEREO_COUNT>
0

> <PUBCHEM_ATOM_UDEF_STEREO_COUNT>
0

> <PUBCHEM_BOND_DEF_STEREO_COUNT>
1

> <PUBCHEM_BOND_UDEF_STEREO_COUNT>
0

> <PUBCHEM_ISOTOPIC_ATOM_COUNT>
0

> <PUBCHEM_COMPONENT_COUNT>
1

> <PUBCHEM_CACTVS_TAUTO_COUNT>
1

> <PUBCHEM_CONFORMER_ID>
0058012000000003

> <PUBCHEM_MMFF94_ENERGY>
119.8225

> <PUBCHEM_FEATURE_SELFOVERLAP>
55.887

> <PUBCHEM_SHAPE_FINGERPRINT>
10 15 16950566640197972348
10006869 2 18262225630570556082
10554248 39 17846502469940908198
10595046 47 18131634512720735614
10835480 77 18410291423548021100
10906281 52 18190195658010452508
11315181 36 17988927794987218859
12236239 1 18202003239322878487
125118 31 18186522120368128572
15064981 113 16917071014626848509
15183329 4 17775569736506922802
15276724 80 18338231557472783949
1577012 14 17704081680669977667
17093844 174 17748825241864455955
19489759 90 16486975081497151887
20511986 3 18271516576354605630
21033648 29 17603304855805061075
21130935 74 17894628153834297803
21298829 104 18337391548613219597
21585482 111 18337110198328379572
21792934 111 18336253567068426664
23081809 10 16988570078153665242
23559900 14 16987987410263864075
24771293 8 18115582798659943020
34797466 226 16343433907188950570
3633792 109 18129662981314169727
4073 2 18187085100064866242
4169191 19 18338803428674866612
4340502 62 15647044985322792138
4760202 170 18271515455658993132
504579 68 17346597495317497428
5104073 3 18261397793057862362
5385378 56 16878218654451939419
54039377 194 9079113375919078497
6328613 192 18272371979242037321
999808 66 10231747904133938949

> <PUBCHEM_SHAPE_MULTIPOLES>
557.5
22.89
2.58
1.29
1.55
0.97
-0.58
16.9
3.45
-2.01
-0.11
2.76
0.26
0.63

> <PUBCHEM_SHAPE_SELFOVERLAP>
1207.086

> <PUBCHEM_SHAPE_VOLUME>
304.2

> <PUBCHEM_COORDINATE_TYPE>
2
5
10

$$$$
