745096
  -OEChem-01171811483D

 28 30  0     0  0  0  0  0  0999 V2000
   -1.4534    0.7580   -0.4452 N   0  0  0  0  0  0  0  0  0  0  0  0
    0.2973    2.3843   -0.1065 N   0  0  0  0  0  0  0  0  0  0  0  0
    0.8042   -0.0266   -0.0759 C   0  0  0  0  0  0  0  0  0  0  0  0
   -0.5590   -0.3285   -0.3172 C   0  0  0  0  0  0  0  0  0  0  0  0
    1.7567   -1.0644    0.0632 C   0  0  0  0  0  0  0  0  0  0  0  0
    1.2183    1.3196    0.0271 C   0  0  0  0  0  0  0  0  0  0  0  0
   -0.9431   -1.6736   -0.4147 C   0  0  0  0  0  0  0  0  0  0  0  0
   -2.8657    0.5079   -0.6928 C   0  0  0  0  0  0  0  0  0  0  0  0
    1.3356   -2.3962   -0.0406 C   0  0  0  0  0  0  0  0  0  0  0  0
   -0.9322    2.0320   -0.3260 C   0  0  0  0  0  0  0  0  0  0  0  0
    3.0999   -0.7370    0.3021 C   0  0  0  0  0  0  0  0  0  0  0  0
    2.5636    1.6183    0.2656 C   0  0  0  0  0  0  0  0  0  0  0  0
   -0.0039   -2.6965   -0.2775 C   0  0  0  0  0  0  0  0  0  0  0  0
    3.4990    0.5952    0.4024 C   0  0  0  0  0  0  0  0  0  0  0  0
   -3.5737    0.3975    0.6192 C   0  0  0  0  0  0  0  0  0  0  0  0
   -4.2439   -0.6900    1.0168 C   0  0  0  0  0  0  0  0  0  0  0  0
   -1.9698   -1.9731   -0.5948 H   0  0  0  0  0  0  0  0  0  0  0  0
   -3.2968    1.3632   -1.2301 H   0  0  0  0  0  0  0  0  0  0  0  0
   -3.0445   -0.3454   -1.3557 H   0  0  0  0  0  0  0  0  0  0  0  0
    2.0468   -3.2130    0.0625 H   0  0  0  0  0  0  0  0  0  0  0  0
   -1.6947    2.8208   -0.4364 H   0  0  0  0  0  0  0  0  0  0  0  0
    3.8490   -1.5183    0.4125 H   0  0  0  0  0  0  0  0  0  0  0  0
    2.8897    2.6522    0.3462 H   0  0  0  0  0  0  0  0  0  0  0  0
   -0.3193   -3.7333   -0.3553 H   0  0  0  0  0  0  0  0  0  0  0  0
    4.5420    0.8357    0.5875 H   0  0  0  0  0  0  0  0  0  0  0  0
   -3.5493    1.2602    1.2806 H   0  0  0  0  0  0  0  0  0  0  0  0
   -4.7422   -0.7058    1.9800 H   0  0  0  0  0  0  0  0  0  0  0  0
   -4.3105   -1.5758    0.3953 H   0  0  0  0  0  0  0  0  0  0  0  0
  1  4  1  0  0  0  0
  1  8  1  0  0  0  0
  1 10  1  0  0  0  0
  2  6  1  0  0  0  0
  2 10  2  0  0  0  0
  3  4  1  0  0  0  0
  3  5  2  0  0  0  0
  3  6  1  0  0  0  0
  4  7  2  0  0  0  0
  5  9  1  0  0  0  0
  5 11  1  0  0  0  0
  6 12  2  0  0  0  0
  7 13  1  0  0  0  0
  7 17  1  0  0  0  0
  8 15  1  0  0  0  0
  8 18  1  0  0  0  0
  8 19  1  0  0  0  0
  9 13  2  0  0  0  0
  9 20  1  0  0  0  0
 10 21  1  0  0  0  0
 11 14  2  0  0  0  0
 11 22  1  0  0  0  0
 12 14  1  0  0  0  0
 12 23  1  0  0  0  0
 13 24  1  0  0  0  0
 14 25  1  0  0  0  0
 15 16  2  0  0  0  0
 15 26  1  0  0  0  0
 16 27  1  0  0  0  0
 16 28  1  0  0  0  0
M  END
> <PUBCHEM_COMPOUND_CID>
745096

> <PUBCHEM_CONFORMER_RMSD>
0.6

> <PUBCHEM_CONFORMER_DIVERSEORDER>
1
3
2

> <PUBCHEM_MMFF94_PARTIAL_CHARGES>
24
1 -0.52
10 0.44
11 -0.15
12 -0.15
13 -0.15
14 -0.15
15 -0.29
16 -0.3
17 0.15
2 -0.63
20 0.15
21 0.06
22 0.15
23 0.15
24 0.15
25 0.15
26 0.15
27 0.15
28 0.15
4 0.1
6 0.18
7 -0.15
8 0.51
9 -0.15

> <PUBCHEM_EFFECTIVE_ROTOR_COUNT>
2.2

> <PUBCHEM_PHARMACOPHORE_FEATURES>
5
1 16 hydrophobe
3 1 2 10 cation
6 1 2 3 4 6 10 rings
6 3 4 5 7 9 13 rings
6 3 5 6 11 12 14 rings

> <PUBCHEM_HEAVY_ATOM_COUNT>
16

> <PUBCHEM_ATOM_DEF_STEREO_COUNT>
0

> <PUBCHEM_ATOM_UDEF_STEREO_COUNT>
0

> <PUBCHEM_BOND_DEF_STEREO_COUNT>
0

> <PUBCHEM_BOND_UDEF_STEREO_COUNT>
0

> <PUBCHEM_ISOTOPIC_ATOM_COUNT>
0

> <PUBCHEM_COMPONENT_COUNT>
1

> <PUBCHEM_CACTVS_TAUTO_COUNT>
1

> <PUBCHEM_CONFORMER_ID>
000B5E8800000001

> <PUBCHEM_MMFF94_ENERGY>
50.0699

> <PUBCHEM_FEATURE_SELFOVERLAP>
25.456

> <PUBCHEM_SHAPE_FINGERPRINT>
10493431 412 18196936784363184200
10967382 1 18411131442084424014
10980938 120 18410575093321702275
11067466 332 18261691288930024502
11132069 177 18341319063490667722
11471102 20 18339353085355912077
11471102 22 18336558139788346651
12382932 28 18339636840770222874
12390115 104 17622734528186857792
13140716 1 18267015236238391370
13172582 1 18411416236828144336
13583140 156 16734920498083941584
14223421 5 18193276295458206645
14251717 144 18411976971084947183
14790565 3 18339094760280183924
15219456 202 18334575690438101661
15309172 13 18412543223620182227
16945 1 18339912732521550790
17844478 74 18114180813437963261
193761 8 17763458413968542276
19591789 44 18411422778364445358
20028762 73 17985832759960990503
20261772 1 18268156525066264179
20645477 70 18270387279666358271
20739085 24 18263946387358350849
21501502 16 18123182678385234732
23184049 59 18412547621540138353
2334 1 18122616421307060470
23419403 2 15592926807516729228
23463225 33 18407755945592480604
23493267 7 17604697859880996761
2748010 2 17907848514458604846
33824 294 18409448077171853107
528886 8 18340194272007101922
53812653 166 18342453785497687296
58807428 26 18267003098882677594
81228 2 17690258830907540778
8809292 202 17686906012212042443

> <PUBCHEM_SHAPE_MULTIPOLES>
319.31
5.64
2.67
0.79
3.49
0.66
0.06
-0.48
1.81
-0.75
-0.26
0.42
0.03
0.29

> <PUBCHEM_SHAPE_SELFOVERLAP>
707.132

> <PUBCHEM_SHAPE_VOLUME>
167.6

> <PUBCHEM_COORDINATE_TYPE>
2
5
10

$$$$
