4566503
  -OEChem-01171811553D

 30 31  0     0  0  0  0  0  0999 V2000
   -0.2878   -3.0733    0.2337 S   0  0  0  0  0  0  0  0  0  0  0  0
   -0.2350   -0.3328    0.0062 N   0  0  0  0  0  0  0  0  0  0  0  0
    1.8166   -1.5295    0.0139 N   0  0  0  0  0  0  0  0  0  0  0  0
   -5.6789    0.9602    0.0400 N   0  0  0  0  0  0  0  0  0  0  0  0
   -1.5926   -0.0112    0.0156 C   0  0  0  0  0  0  0  0  0  0  0  0
    2.7257   -0.4431   -0.0326 C   0  0  0  0  0  0  0  0  0  0  0  0
   -2.0389    1.1096    0.7157 C   0  0  0  0  0  0  0  0  0  0  0  0
   -2.5035   -0.8096   -0.6761 C   0  0  0  0  0  0  0  0  0  0  0  0
   -4.3067    0.6337    0.0324 C   0  0  0  0  0  0  0  0  0  0  0  0
   -3.3960    1.4322    0.7242 C   0  0  0  0  0  0  0  0  0  0  0  0
   -3.8606   -0.4871   -0.6678 C   0  0  0  0  0  0  0  0  0  0  0  0
    0.4304   -1.5617    0.0346 C   0  0  0  0  0  0  0  0  0  0  0  0
    3.9866   -0.5936    0.5175 C   0  0  0  0  0  0  0  0  0  0  0  0
    2.3313    0.7422   -0.6279 C   0  0  0  0  0  0  0  0  0  0  0  0
    4.8817    0.4753    0.4708 C   0  0  0  0  0  0  0  0  0  0  0  0
    3.2262    1.8111   -0.6747 C   0  0  0  0  0  0  0  0  0  0  0  0
    4.5014    1.6776   -0.1253 C   0  0  0  0  0  0  0  0  0  0  0  0
   -1.3410    1.7411    1.2600 H   0  0  0  0  0  0  0  0  0  0  0  0
   -2.1931   -1.6493   -1.2888 H   0  0  0  0  0  0  0  0  0  0  0  0
    0.3177    0.4269    0.3893 H   0  0  0  0  0  0  0  0  0  0  0  0
    2.2521   -2.4260    0.2215 H   0  0  0  0  0  0  0  0  0  0  0  0
   -3.7313    2.3082    1.2734 H   0  0  0  0  0  0  0  0  0  0  0  0
   -4.5590   -1.1082   -1.2230 H   0  0  0  0  0  0  0  0  0  0  0  0
    4.2920   -1.5259    0.9842 H   0  0  0  0  0  0  0  0  0  0  0  0
    1.4053    0.8708   -1.1757 H   0  0  0  0  0  0  0  0  0  0  0  0
    5.8750    0.3710    0.8973 H   0  0  0  0  0  0  0  0  0  0  0  0
    2.9409    2.7386   -1.1627 H   0  0  0  0  0  0  0  0  0  0  0  0
    5.2004    2.5077   -0.1676 H   0  0  0  0  0  0  0  0  0  0  0  0
   -6.3399    0.3807   -0.4602 H   0  0  0  0  0  0  0  0  0  0  0  0
   -6.0032    1.7719    0.5486 H   0  0  0  0  0  0  0  0  0  0  0  0
  1 12  2  0  0  0  0
  2  5  1  0  0  0  0
  2 12  1  0  0  0  0
  2 20  1  0  0  0  0
  3  6  1  0  0  0  0
  3 12  1  0  0  0  0
  3 21  1  0  0  0  0
  4  9  1  0  0  0  0
  4 29  1  0  0  0  0
  4 30  1  0  0  0  0
  5  7  2  0  0  0  0
  5  8  1  0  0  0  0
  6 13  2  0  0  0  0
  6 14  1  0  0  0  0
  7 10  1  0  0  0  0
  7 18  1  0  0  0  0
  8 11  2  0  0  0  0
  8 19  1  0  0  0  0
  9 10  2  0  0  0  0
  9 11  1  0  0  0  0
 10 22  1  0  0  0  0
 11 23  1  0  0  0  0
 13 15  1  0  0  0  0
 13 24  1  0  0  0  0
 14 16  2  0  0  0  0
 14 25  1  0  0  0  0
 15 17  2  0  0  0  0
 15 26  1  0  0  0  0
 16 17  1  0  0  0  0
 16 27  1  0  0  0  0
 17 28  1  0  0  0  0
M  END
> <PUBCHEM_COMPOUND_CID>
4566503

> <PUBCHEM_CONFORMER_RMSD>
0.6

> <PUBCHEM_CONFORMER_DIVERSEORDER>
1
8
6
3
2
7
5
4

> <PUBCHEM_MMFF94_PARTIAL_CHARGES>
30
1 -0.38
10 -0.15
11 -0.15
12 0.5
13 -0.15
14 -0.15
15 -0.15
16 -0.15
17 -0.15
18 0.15
19 0.15
2 -0.55
20 0.37
21 0.37
22 0.15
23 0.15
24 0.15
25 0.15
26 0.15
27 0.15
28 0.15
29 0.4
3 -0.55
30 0.4
4 -0.9
5 0.12
6 0.12
7 -0.15
8 -0.15
9 0.1

> <PUBCHEM_EFFECTIVE_ROTOR_COUNT>
4

> <PUBCHEM_PHARMACOPHORE_FEATURES>
7
1 1 acceptor
1 2 donor
1 3 donor
1 4 cation
1 4 donor
6 5 7 8 9 10 11 rings
6 6 13 14 15 16 17 rings

> <PUBCHEM_HEAVY_ATOM_COUNT>
17

> <PUBCHEM_ATOM_DEF_STEREO_COUNT>
0

> <PUBCHEM_ATOM_UDEF_STEREO_COUNT>
0

> <PUBCHEM_BOND_DEF_STEREO_COUNT>
0

> <PUBCHEM_BOND_UDEF_STEREO_COUNT>
0

> <PUBCHEM_ISOTOPIC_ATOM_COUNT>
0

> <PUBCHEM_COMPONENT_COUNT>
1

> <PUBCHEM_CACTVS_TAUTO_COUNT>
3

> <PUBCHEM_CONFORMER_ID>
0045ADE700000001

> <PUBCHEM_MMFF94_ENERGY>
82.9731

> <PUBCHEM_FEATURE_SELFOVERLAP>
35.556

> <PUBCHEM_SHAPE_FINGERPRINT>
10090160 65 18408599241326112779
12236239 1 18272366456320127127
122479 349 18335142037542206426
12633257 1 15575002796430513237
12788726 201 17903065978281442530
13583140 156 16950557830708430011
14767858 380 18270947051718812879
15196674 1 18410856589709841910
15342168 16 18260555553548191301
15885798 251 9295292737474256167
1741750 31 18339645645770015458
18186145 218 18410293575595902422
18222031 100 7997685359765289585
20300324 65 17917427661707635135
204376 136 18335140899122619851
21033648 29 16733529589909582644
21499 59 18409728456647190103
21524375 3 18412543215030591918
22620623 9 16486116461557741303
22950370 63 9511462242506647269
23184049 59 18040998449232888052
23402539 116 18272643580268172246
23402655 69 18272087227621887884
23559900 14 18272934908448973158
351380 180 18187081745721255440
3545911 37 18413110545665727086
4340502 62 17894640219335707651
474 4 18408325466766769619
474229 33 18337956791857715251
5104073 3 18115300211217663240
6328613 192 18334866065241573924
6333272 397 18408888433900229026
633830 44 18342460305010447927
7832392 63 18263644125446042700
94968 8 10087641494617457388
960060 61 11455885875597033688

> <PUBCHEM_SHAPE_MULTIPOLES>
338.76
10.84
2.32
0.81
1.51
1.5
-0.01
-6.01
0.3
-0.39
0.13
0.07
-0.09
-0.84

> <PUBCHEM_SHAPE_SELFOVERLAP>
710.115

> <PUBCHEM_SHAPE_VOLUME>
191.7

> <PUBCHEM_COORDINATE_TYPE>
2
5
10

$$$$
