2470726
  -OEChem-01171812133D

 44 45  0     0  0  0  0  0  0999 V2000
   -6.6396    0.0093   -0.0364 O   0  0  0  0  0  0  0  0  0  0  0  0
   -4.7429    1.1349    1.6539 O   0  0  0  0  0  0  0  0  0  0  0  0
    1.8495   -1.3101    1.2051 O   0  0  0  0  0  0  0  0  0  0  0  0
    8.4139    0.7169   -0.4676 O   0  0  0  0  0  0  0  0  0  0  0  0
    3.5128    0.6030    0.3187 O   0  0  0  0  0  0  0  0  0  0  0  0
    1.5309   -2.0639   -0.9554 O   0  0  0  0  0  0  0  0  0  0  0  0
    5.3927   -0.7973    0.5114 N   0  0  0  0  0  0  0  0  0  0  0  0
    7.7097   -0.3796    0.0150 N   0  0  0  0  0  0  0  0  0  0  0  0
   -9.1712    2.2451   -0.3917 N   0  0  0  0  0  0  0  0  0  0  0  0
   -2.6284   -0.9811   -0.4472 C   0  0  0  0  0  0  0  0  0  0  0  0
   -4.3692    0.2550    0.6836 C   0  0  0  0  0  0  0  0  0  0  0  0
   -5.3216   -0.3110   -0.1639 C   0  0  0  0  0  0  0  0  0  0  0  0
   -3.0226   -0.0802    0.5420 C   0  0  0  0  0  0  0  0  0  0  0  0
   -3.5808   -1.5473   -1.2946 C   0  0  0  0  0  0  0  0  0  0  0  0
   -4.9274   -1.2122   -1.1528 C   0  0  0  0  0  0  0  0  0  0  0  0
   -1.2243   -1.3303   -0.5951 C   0  0  0  0  0  0  0  0  0  0  0  0
    6.4373    0.0242    0.0709 C   0  0  0  0  0  0  0  0  0  0  0  0
    6.2796    1.3528   -0.3599 C   0  0  0  0  0  0  0  0  0  0  0  0
    7.5516    1.7421   -0.6870 C   0  0  0  0  0  0  0  0  0  0  0  0
    3.2405   -1.6392    1.1268 C   0  0  0  0  0  0  0  0  0  0  0  0
   -0.2769   -1.1739    0.3561 C   0  0  0  0  0  0  0  0  0  0  0  0
    4.0459   -0.4645    0.6028 C   0  0  0  0  0  0  0  0  0  0  0  0
    1.1217   -1.5789    0.0875 C   0  0  0  0  0  0  0  0  0  0  0  0
    8.1317    2.9885   -1.2020 C   0  0  0  0  0  0  0  0  0  0  0  0
   -7.2731    0.6081   -1.1652 C   0  0  0  0  0  0  0  0  0  0  0  0
   -3.7084    1.6686    2.4783 C   0  0  0  0  0  0  0  0  0  0  0  0
   -8.3315    1.5209   -0.7334 C   0  0  0  0  0  0  0  0  0  0  0  0
   -2.2608    0.3663    1.1680 H   0  0  0  0  0  0  0  0  0  0  0  0
   -3.2929   -2.2538   -2.0695 H   0  0  0  0  0  0  0  0  0  0  0  0
   -5.6590   -1.6675   -1.8149 H   0  0  0  0  0  0  0  0  0  0  0  0
   -0.9480   -1.7582   -1.5565 H   0  0  0  0  0  0  0  0  0  0  0  0
    5.3940    1.9650   -0.4345 H   0  0  0  0  0  0  0  0  0  0  0  0
    3.5772   -1.8638    2.1447 H   0  0  0  0  0  0  0  0  0  0  0  0
    3.4146   -2.5308    0.5133 H   0  0  0  0  0  0  0  0  0  0  0  0
    5.6862   -1.7311    0.7872 H   0  0  0  0  0  0  0  0  0  0  0  0
   -0.4894   -0.7808    1.3438 H   0  0  0  0  0  0  0  0  0  0  0  0
    8.8751    3.3844   -0.5033 H   0  0  0  0  0  0  0  0  0  0  0  0
    8.6222    2.8156   -2.1649 H   0  0  0  0  0  0  0  0  0  0  0  0
    7.3618    3.7528   -1.3465 H   0  0  0  0  0  0  0  0  0  0  0  0
   -6.5460    1.1641   -1.7708 H   0  0  0  0  0  0  0  0  0  0  0  0
   -7.6992   -0.1869   -1.7872 H   0  0  0  0  0  0  0  0  0  0  0  0
   -4.1867    2.3428    3.1966 H   0  0  0  0  0  0  0  0  0  0  0  0
   -3.0022    2.2740    1.8999 H   0  0  0  0  0  0  0  0  0  0  0  0
   -3.2116    0.8864    3.0626 H   0  0  0  0  0  0  0  0  0  0  0  0
  1 12  1  0  0  0  0
  1 25  1  0  0  0  0
  2 11  1  0  0  0  0
  2 26  1  0  0  0  0
  3 20  1  0  0  0  0
  3 23  1  0  0  0  0
  4  8  1  0  0  0  0
  4 19  1  0  0  0  0
  5 22  2  0  0  0  0
  6 23  2  0  0  0  0
  7 17  1  0  0  0  0
  7 22  1  0  0  0  0
  7 35  1  0  0  0  0
  8 17  2  0  0  0  0
  9 27  3  0  0  0  0
 10 13  2  0  0  0  0
 10 14  1  0  0  0  0
 10 16  1  0  0  0  0
 11 12  2  0  0  0  0
 11 13  1  0  0  0  0
 12 15  1  0  0  0  0
 13 28  1  0  0  0  0
 14 15  2  0  0  0  0
 14 29  1  0  0  0  0
 15 30  1  0  0  0  0
 16 21  2  0  0  0  0
 16 31  1  0  0  0  0
 17 18  1  0  0  0  0
 18 19  2  0  0  0  0
 18 32  1  0  0  0  0
 19 24  1  0  0  0  0
 20 22  1  0  0  0  0
 20 33  1  0  0  0  0
 20 34  1  0  0  0  0
 21 23  1  0  0  0  0
 21 36  1  0  0  0  0
 24 37  1  0  0  0  0
 24 38  1  0  0  0  0
 24 39  1  0  0  0  0
 25 27  1  0  0  0  0
 25 40  1  0  0  0  0
 25 41  1  0  0  0  0
 26 42  1  0  0  0  0
 26 43  1  0  0  0  0
 26 44  1  0  0  0  0
M  END
> <PUBCHEM_COMPOUND_CID>
2470726

> <PUBCHEM_CONFORMER_RMSD>
1

> <PUBCHEM_CONFORMER_DIVERSEORDER>
3
59
60
69
7
86
75
95
89
51
16
74
19
57
52
70
43
102
53
4
71
17
38
101
35
76
63
15
109
61
41
72
85
42
91
104
13
66
8
39
87
2
73
34
90
46
106
1
82
56
96
26
22
14
24
94
97
47
81
58
32
79
55
23
93
84
67
50
5
108
88
28
92
6
21
64
20
62
10
48
107
110
37
30
65
40
100
49
12
9
25
103
36
77
68
27
18
45
11
98
29
33
99
31
78
44
105
54
83
80

> <PUBCHEM_MMFF94_PARTIAL_CHARGES>
34
1 -0.36
10 0.03
11 0.08
12 0.08
13 -0.15
14 -0.15
15 -0.15
16 -0.18
17 0.35
18 -0.15
19 -0.04
2 -0.36
20 0.34
21 -0.14
22 0.57
23 0.71
24 0.18
25 0.48
26 0.28
27 0.36
28 0.15
29 0.15
3 -0.43
30 0.15
31 0.15
32 0.15
35 0.37
36 0.15
4 -0.02
5 -0.57
6 -0.57
7 -0.49
8 -0.41
9 -0.56

> <PUBCHEM_EFFECTIVE_ROTOR_COUNT>
10

> <PUBCHEM_PHARMACOPHORE_FEATURES>
8
1 1 acceptor
1 2 acceptor
1 5 acceptor
1 6 acceptor
1 7 donor
1 9 acceptor
5 4 8 17 18 19 rings
6 10 11 12 13 14 15 rings

> <PUBCHEM_HEAVY_ATOM_COUNT>
27

> <PUBCHEM_ATOM_DEF_STEREO_COUNT>
0

> <PUBCHEM_ATOM_UDEF_STEREO_COUNT>
0

> <PUBCHEM_BOND_DEF_STEREO_COUNT>
1

> <PUBCHEM_BOND_UDEF_STEREO_COUNT>
0

> <PUBCHEM_ISOTOPIC_ATOM_COUNT>
0

> <PUBCHEM_COMPONENT_COUNT>
1

> <PUBCHEM_CACTVS_TAUTO_COUNT>
3

> <PUBCHEM_CONFORMER_ID>
0025B34600000003

> <PUBCHEM_MMFF94_ENERGY>
72.7052

> <PUBCHEM_FEATURE_SELFOVERLAP>
40.603

> <PUBCHEM_SHAPE_FINGERPRINT>
10 15 15647052699078754446
106641 1 17821450179834676795
10670039 82 17704355446222648673
11315181 36 18342178878116861539
11386260 185 15841540916626405832
11973863 73 8646776608127138765
12539765 74 18408887334964270710
13383665 225 17202779098836848337
13668630 136 12967128319706933791
14428016 248 18342460314655482185
15064981 194 18129665330655830347
15183329 4 17775571953174115450
15461852 350 17989200482698433783
15690457 1 10375870779646957580
15706992 2 17895202094624028167
1577012 14 18409720781372067406
15840311 113 18114184138359562974
1768 124 9295021171831376076
17899979 19 18334859420331496421
2026 5 11887686064936170404
20505436 4 18334849520099803891
21033648 29 16660363692614505298
21095123 293 18334856095963265933
21344244 246 12607416476647151908
22224240 67 16515681169629685074
23576562 1 17059192908807871829
33532 11 10735878378492447332
3383291 50 11458429007981718633
3711267 37 18409457968381984629
397830 11 15647912559973590184
406291 66 11095347187715643220
4073 2 18333170574597583555
445580 37 17775290464626707258
504579 68 17774997981928320349
5104073 3 13696456364612505847
5364581 5 15069198912149334710
54039377 194 10447929477259605665
559249 180 8286207149912641691
5758199 1 17531242868105364346
5911458 16 18341058479757514096
59682541 35 16732706068827775683
6328613 192 18338802325173726384
6438161 24 10519983768414825118
9953998 17 15502375655395550457

> <PUBCHEM_SHAPE_MULTIPOLES>
505.49
29.58
2.33
1.41
15.45
1.01
0.59
23.81
-8.47
1.31
-0.41
-1.5
0.4
-2.75

> <PUBCHEM_SHAPE_SELFOVERLAP>
1058.75

> <PUBCHEM_SHAPE_VOLUME>
282.2

> <PUBCHEM_COORDINATE_TYPE>
2
5
10

$$$$
