4904405
  -OEChem-01171812093D

 46 48  0     0  0  0  0  0  0999 V2000
    0.8071   -0.6371    0.7494 S   0  0  0  0  0  0  0  0  0  0  0  0
   -6.3219    2.1890   -0.8261 O   0  0  0  0  0  0  0  0  0  0  0  0
   -7.7695    0.2719    0.5723 O   0  0  0  0  0  0  0  0  0  0  0  0
   -1.9299   -2.5976    0.5446 O   0  0  0  0  0  0  0  0  0  0  0  0
    3.4644   -0.0219    0.6571 N   0  0  0  0  0  0  0  0  0  0  0  0
    7.5745    1.1115    0.9176 N   0  0  0  0  0  0  0  0  0  0  0  0
   -2.3749   -0.5134   -0.4551 N   0  0  0  0  0  0  0  0  0  0  0  0
    6.2663    0.8810    1.1219 N   0  0  0  0  0  0  0  0  0  0  0  0
    4.0686   -0.7644   -1.3104 N   0  0  0  0  0  0  0  0  0  0  0  0
    2.7225   -1.0212   -1.1425 N   0  0  0  0  0  0  0  0  0  0  0  0
    3.5279    0.5751    1.9392 N   0  0  0  0  0  0  0  0  0  0  0  0
    4.4950   -0.1653   -0.2215 C   0  0  0  0  0  0  0  0  0  0  0  0
    5.8857    0.2769   -0.0065 C   0  0  0  0  0  0  0  0  0  0  0  0
    8.0283    0.6767   -0.2929 C   0  0  0  0  0  0  0  0  0  0  0  0
    6.9415    0.1226   -0.9242 C   0  0  0  0  0  0  0  0  0  0  0  0
   -3.7318   -0.3129   -0.1983 C   0  0  0  0  0  0  0  0  0  0  0  0
    2.4390   -0.5664    0.0155 C   0  0  0  0  0  0  0  0  0  0  0  0
   -0.1424   -1.4615   -0.5516 C   0  0  0  0  0  0  0  0  0  0  0  0
   -4.3617    0.8495   -0.6432 C   0  0  0  0  0  0  0  0  0  0  0  0
   -5.7179    1.0500   -0.3861 C   0  0  0  0  0  0  0  0  0  0  0  0
   -4.4583   -1.2747    0.5038 C   0  0  0  0  0  0  0  0  0  0  0  0
   -6.4442    0.0883    0.3160 C   0  0  0  0  0  0  0  0  0  0  0  0
   -1.5769   -1.6074   -0.0910 C   0  0  0  0  0  0  0  0  0  0  0  0
   -5.8145   -1.0741    0.7609 C   0  0  0  0  0  0  0  0  0  0  0  0
    9.4315    0.8355   -0.7077 C   0  0  0  0  0  0  0  0  0  0  0  0
   -6.3170    3.3082    0.0580 C   0  0  0  0  0  0  0  0  0  0  0  0
   -8.6916   -0.2184   -0.3990 C   0  0  0  0  0  0  0  0  0  0  0  0
    6.9244   -0.3264   -1.9073 H   0  0  0  0  0  0  0  0  0  0  0  0
    0.2645   -2.4589   -0.7473 H   0  0  0  0  0  0  0  0  0  0  0  0
   -0.0966   -0.8852   -1.4813 H   0  0  0  0  0  0  0  0  0  0  0  0
   -3.8015    1.6033   -1.1919 H   0  0  0  0  0  0  0  0  0  0  0  0
    8.0992    1.5724    1.6508 H   0  0  0  0  0  0  0  0  0  0  0  0
   -1.9174    0.2359   -0.9699 H   0  0  0  0  0  0  0  0  0  0  0  0
   -4.0429   -2.1992    0.8792 H   0  0  0  0  0  0  0  0  0  0  0  0
   -6.3754   -1.8268    1.3086 H   0  0  0  0  0  0  0  0  0  0  0  0
    9.5960    0.4242   -1.7089 H   0  0  0  0  0  0  0  0  0  0  0  0
   10.1018    0.3149   -0.0161 H   0  0  0  0  0  0  0  0  0  0  0  0
    9.7124    1.8934   -0.7287 H   0  0  0  0  0  0  0  0  0  0  0  0
    2.9000    1.3739    2.0205 H   0  0  0  0  0  0  0  0  0  0  0  0
    3.2577   -0.0740    2.6770 H   0  0  0  0  0  0  0  0  0  0  0  0
   -5.2908    3.6226    0.2728 H   0  0  0  0  0  0  0  0  0  0  0  0
   -6.8390    3.0663    0.9891 H   0  0  0  0  0  0  0  0  0  0  0  0
   -6.8404    4.1339   -0.4318 H   0  0  0  0  0  0  0  0  0  0  0  0
   -9.7043    0.0099   -0.0558 H   0  0  0  0  0  0  0  0  0  0  0  0
   -8.5308    0.2710   -1.3648 H   0  0  0  0  0  0  0  0  0  0  0  0
   -8.5945   -1.3034   -0.5064 H   0  0  0  0  0  0  0  0  0  0  0  0
  1 17  1  0  0  0  0
  1 18  1  0  0  0  0
  2 20  1  0  0  0  0
  2 26  1  0  0  0  0
  3 22  1  0  0  0  0
  3 27  1  0  0  0  0
  4 23  2  0  0  0  0
  5 11  1  0  0  0  0
  5 12  1  0  0  0  0
  5 17  1  0  0  0  0
  6  8  1  0  0  0  0
  6 14  1  0  0  0  0
  6 32  1  0  0  0  0
  7 16  1  0  0  0  0
  7 23  1  0  0  0  0
  7 33  1  0  0  0  0
  8 13  2  0  0  0  0
  9 10  1  0  0  0  0
  9 12  2  0  0  0  0
 10 17  2  0  0  0  0
 11 39  1  0  0  0  0
 11 40  1  0  0  0  0
 12 13  1  0  0  0  0
 13 15  1  0  0  0  0
 14 15  2  0  0  0  0
 14 25  1  0  0  0  0
 15 28  1  0  0  0  0
 16 19  2  0  0  0  0
 16 21  1  0  0  0  0
 18 23  1  0  0  0  0
 18 29  1  0  0  0  0
 18 30  1  0  0  0  0
 19 20  1  0  0  0  0
 19 31  1  0  0  0  0
 20 22  2  0  0  0  0
 21 24  2  0  0  0  0
 21 34  1  0  0  0  0
 22 24  1  0  0  0  0
 24 35  1  0  0  0  0
 25 36  1  0  0  0  0
 25 37  1  0  0  0  0
 25 38  1  0  0  0  0
 26 41  1  0  0  0  0
 26 42  1  0  0  0  0
 26 43  1  0  0  0  0
 27 44  1  0  0  0  0
 27 45  1  0  0  0  0
 27 46  1  0  0  0  0
M  END
> <PUBCHEM_COMPOUND_CID>
4904405

> <PUBCHEM_CONFORMER_RMSD>
1

> <PUBCHEM_CONFORMER_DIVERSEORDER>
1
6
176
120
55
211
220
161
39
110
225
125
40
89
41
99
169
223
33
208
177
152
143
25
182
205
151
57
31
183
72
117
132
123
43
138
195
209
128
137
51
3
192
180
142
215
98
74
165
210
16
7
153
122
109
206
29
207
157
21
135
67
46
126
150
201
202
172
64
56
23
44
214
198
52
227
76
147
81
197
163
160
111
42
229
104
93
100
199
22
45
83
85
188
224
53
219
193
59
134
187
164
13
127
4
32
78
175
141
178
107
133
60
105
196
2
145
226
87
88
38
62
203
139
18
148
20
101
30
167
96
73
140
75
37
129
181
190
166
80
86
221
118
131
213
184
116
15
27
92
124
154
185
95
34
217
77
149
82
70
8
63
106
11
94
14
61
48
119
173
49
103
54
108
121
47
170
228
171
189
159
115
194
144
200
186
19
97
17
113
79
130
158
174
71
218
222
155
9
84
114
50
28
10
204
90
102
136
68
91
12
35
162
146
58
156
24
26
212
66
168
112
191
216
65
36
69
5
179

> <PUBCHEM_MMFF94_PARTIAL_CHARGES>
35
1 -0.29
10 -0.34
11 -0.87
12 0.19
13 0.29
14 -0.33
15 -0.15
16 0.12
17 0.24
18 0.29
19 -0.15
2 -0.36
20 0.08
21 -0.15
22 0.08
23 0.57
24 -0.15
25 0.18
26 0.28
27 0.28
28 0.15
3 -0.36
31 0.15
32 0.27
33 0.37
34 0.15
35 0.15
39 0.36
4 -0.57
40 0.36
5 0.45
6 0.3
7 -0.55
8 -0.71
9 -0.34

> <PUBCHEM_EFFECTIVE_ROTOR_COUNT>
8

> <PUBCHEM_PHARMACOPHORE_FEATURES>
12
1 11 donor
1 2 acceptor
1 3 acceptor
1 4 acceptor
1 6 donor
1 7 donor
1 8 acceptor
3 5 10 17 cation
3 5 9 12 cation
5 5 9 10 12 17 rings
5 6 8 13 14 15 rings
6 16 19 20 21 22 24 rings

> <PUBCHEM_HEAVY_ATOM_COUNT>
27

> <PUBCHEM_ATOM_DEF_STEREO_COUNT>
0

> <PUBCHEM_ATOM_UDEF_STEREO_COUNT>
0

> <PUBCHEM_BOND_DEF_STEREO_COUNT>
0

> <PUBCHEM_BOND_UDEF_STEREO_COUNT>
0

> <PUBCHEM_ISOTOPIC_ATOM_COUNT>
0

> <PUBCHEM_COMPONENT_COUNT>
1

> <PUBCHEM_CACTVS_TAUTO_COUNT>
8

> <PUBCHEM_CONFORMER_ID>
004AD5D500000001

> <PUBCHEM_MMFF94_ENERGY>
74.5612

> <PUBCHEM_FEATURE_SELFOVERLAP>
63.526

> <PUBCHEM_SHAPE_FINGERPRINT>
10 15 18187364333057656995
10299344 5 16950280728483154066
10369192 42 18342454829617865495
106641 1 16298107605116658795
10670039 82 17417816110702184257
12643181 29 9223227447778164905
12664476 115 18343581841884755785
14150022 121 14129327473844882127
14251764 18 17312821588949385583
14251764 46 18334295383275933054
14428016 248 17458352970531708556
14556957 393 15338849697748962784
14849402 71 16443639016299574948
14933364 13 18409730668512896042
15183329 4 16128657440038417019
15461852 350 18130221657759411607
155225 1 18410575072822909233
15716309 27 13045943516572906779
1577012 14 18408877438784301970
16989713 51 17773029976802058655
18643901 69 10735879474205083883
20281389 69 18408884027200317347
21033648 29 18129366255050840570
21150785 3 15482673485136669623
21756936 100 18334573564540716015
21792934 111 17275099545516226754
21792961 116 17846505803631977762
22224240 67 15213300837155014842
23559900 14 16702012140982032042
246663 6 8646773295884498407
306946 40 17489295426882004176
3178227 256 13623530169579407094
3663271 9 17530961371732503667
4073 2 18040440996500905418
437795 83 17561086852363119593
5385378 56 17603579704412411690
54039377 194 13182735975305255887
5758199 1 17095241428131770410
58902169 19 14836398164007012680
5937810 71 17774729654285139241
59682541 35 12107788536705049382
636775 72 18409450246410646541
636775 8 14045734959776314773
999808 66 11674877792565706033

> <PUBCHEM_SHAPE_MULTIPOLES>
507.02
30.24
1.97
1.09
18.37
0.96
0.18
14.62
-1.65
-4.15
0.01
1.14
0.04
1.12

> <PUBCHEM_SHAPE_SELFOVERLAP>
1068.998

> <PUBCHEM_SHAPE_VOLUME>
289.4

> <PUBCHEM_COORDINATE_TYPE>
2
5
10

$$$$
