712559
  -OEChem-01171812013D

 46 47  0     0  0  0  0  0  0999 V2000
    5.6579   -0.9933   -1.6453 F   0  0  0  0  0  0  0  0  0  0  0  0
    6.4751   -0.5232    0.3080 F   0  0  0  0  0  0  0  0  0  0  0  0
    5.2801   -2.3195    0.0361 F   0  0  0  0  0  0  0  0  0  0  0  0
   -5.4443    1.0132   -0.4521 O   0  0  0  0  0  0  0  0  0  0  0  0
   -0.5354    1.6211    0.0690 N   0  0  0  0  0  0  0  0  0  0  0  0
   -3.1511    0.7097   -0.6627 N   0  0  0  0  0  0  0  0  0  0  0  0
   -0.8614    0.1878    0.1054 C   0  0  0  0  0  0  0  0  0  0  0  0
   -1.7228    2.4266    0.3895 C   0  0  0  0  0  0  0  0  0  0  0  0
   -1.9807   -0.1449   -0.8829 C   0  0  0  0  0  0  0  0  0  0  0  0
   -2.8541    2.1398   -0.5971 C   0  0  0  0  0  0  0  0  0  0  0  0
    0.5554    1.9233    0.9948 C   0  0  0  0  0  0  0  0  0  0  0  0
   -4.4751    0.2734   -0.6396 C   0  0  0  0  0  0  0  0  0  0  0  0
   -4.7028   -1.2014   -0.8557 C   0  0  0  0  0  0  0  0  0  0  0  0
   -4.6967   -1.9448    0.4793 C   0  0  0  0  0  0  0  0  0  0  0  0
    1.8081    1.1609    0.6537 C   0  0  0  0  0  0  0  0  0  0  0  0
   -5.8305   -1.4757    1.3946 C   0  0  0  0  0  0  0  0  0  0  0  0
   -4.8200   -3.4485    0.2295 C   0  0  0  0  0  0  0  0  0  0  0  0
    2.2270    1.0914   -0.6673 C   0  0  0  0  0  0  0  0  0  0  0  0
    2.5254    0.5377    1.6653 C   0  0  0  0  0  0  0  0  0  0  0  0
    3.3870    0.3843   -0.9835 C   0  0  0  0  0  0  0  0  0  0  0  0
    3.6854   -0.1694    1.3492 C   0  0  0  0  0  0  0  0  0  0  0  0
    4.1164   -0.2461    0.0247 C   0  0  0  0  0  0  0  0  0  0  0  0
    5.3568   -1.0022   -0.3128 C   0  0  0  0  0  0  0  0  0  0  0  0
   -1.1746   -0.1066    1.1166 H   0  0  0  0  0  0  0  0  0  0  0  0
   -0.0086   -0.4430   -0.1651 H   0  0  0  0  0  0  0  0  0  0  0  0
   -1.4784    3.4942    0.3343 H   0  0  0  0  0  0  0  0  0  0  0  0
   -2.0670    2.2184    1.4114 H   0  0  0  0  0  0  0  0  0  0  0  0
   -1.6481    0.0219   -1.9147 H   0  0  0  0  0  0  0  0  0  0  0  0
   -2.2135   -1.2051   -0.7798 H   0  0  0  0  0  0  0  0  0  0  0  0
   -3.7457    2.7083   -0.3138 H   0  0  0  0  0  0  0  0  0  0  0  0
   -2.5723    2.4580   -1.6085 H   0  0  0  0  0  0  0  0  0  0  0  0
    0.2500    1.7127    2.0286 H   0  0  0  0  0  0  0  0  0  0  0  0
    0.8027    2.9919    0.9472 H   0  0  0  0  0  0  0  0  0  0  0  0
   -3.9984   -1.6209   -1.5788 H   0  0  0  0  0  0  0  0  0  0  0  0
   -5.6856   -1.3081   -1.3356 H   0  0  0  0  0  0  0  0  0  0  0  0
   -3.7484   -1.7636    1.0004 H   0  0  0  0  0  0  0  0  0  0  0  0
   -5.8683   -2.0850    2.3044 H   0  0  0  0  0  0  0  0  0  0  0  0
   -6.8036   -1.5544    0.8983 H   0  0  0  0  0  0  0  0  0  0  0  0
   -5.6886   -0.4382    1.7119 H   0  0  0  0  0  0  0  0  0  0  0  0
   -3.9946   -3.8078   -0.3944 H   0  0  0  0  0  0  0  0  0  0  0  0
   -4.7893   -4.0039    1.1729 H   0  0  0  0  0  0  0  0  0  0  0  0
   -5.7600   -3.6930   -0.2769 H   0  0  0  0  0  0  0  0  0  0  0  0
    1.6818    1.5867   -1.4658 H   0  0  0  0  0  0  0  0  0  0  0  0
    2.2007    0.5907    2.7005 H   0  0  0  0  0  0  0  0  0  0  0  0
    3.7083    0.3383   -2.0204 H   0  0  0  0  0  0  0  0  0  0  0  0
    4.2470   -0.6571    2.1416 H   0  0  0  0  0  0  0  0  0  0  0  0
  1 23  1  0  0  0  0
  2 23  1  0  0  0  0
  3 23  1  0  0  0  0
  4 12  2  0  0  0  0
  5  7  1  0  0  0  0
  5  8  1  0  0  0  0
  5 11  1  0  0  0  0
  6  9  1  0  0  0  0
  6 10  1  0  0  0  0
  6 12  1  0  0  0  0
  7  9  1  0  0  0  0
  7 24  1  0  0  0  0
  7 25  1  0  0  0  0
  8 10  1  0  0  0  0
  8 26  1  0  0  0  0
  8 27  1  0  0  0  0
  9 28  1  0  0  0  0
  9 29  1  0  0  0  0
 10 30  1  0  0  0  0
 10 31  1  0  0  0  0
 11 15  1  0  0  0  0
 11 32  1  0  0  0  0
 11 33  1  0  0  0  0
 12 13  1  0  0  0  0
 13 14  1  0  0  0  0
 13 34  1  0  0  0  0
 13 35  1  0  0  0  0
 14 16  1  0  0  0  0
 14 17  1  0  0  0  0
 14 36  1  0  0  0  0
 15 18  2  0  0  0  0
 15 19  1  0  0  0  0
 16 37  1  0  0  0  0
 16 38  1  0  0  0  0
 16 39  1  0  0  0  0
 17 40  1  0  0  0  0
 17 41  1  0  0  0  0
 17 42  1  0  0  0  0
 18 20  1  0  0  0  0
 18 43  1  0  0  0  0
 19 21  2  0  0  0  0
 19 44  1  0  0  0  0
 20 22  2  0  0  0  0
 20 45  1  0  0  0  0
 21 22  1  0  0  0  0
 21 46  1  0  0  0  0
 22 23  1  0  0  0  0
M  END
> <PUBCHEM_COMPOUND_CID>
712559

> <PUBCHEM_CONFORMER_RMSD>
0.8

> <PUBCHEM_CONFORMER_DIVERSEORDER>
1
37
24
34
23
30
25
21
32
3
20
7
27
33
19
15
40
28
6
36
12
16
10
13
42
22
4
29
18
26
14
2
39
11
38
17
35
31
9
41
8
5

> <PUBCHEM_MMFF94_PARTIAL_CHARGES>
24
1 -0.34
10 0.3
11 0.41
12 0.57
13 0.06
15 -0.14
18 -0.15
19 -0.15
2 -0.34
20 -0.15
21 -0.15
22 -0.14
23 1.16
3 -0.34
4 -0.57
43 0.15
44 0.15
45 0.15
46 0.15
5 -0.81
6 -0.66
7 0.27
8 0.27
9 0.3

> <PUBCHEM_EFFECTIVE_ROTOR_COUNT>
7.2

> <PUBCHEM_PHARMACOPHORE_FEATURES>
5
1 4 acceptor
1 5 cation
3 14 16 17 hydrophobe
6 15 18 19 20 21 22 rings
6 5 6 7 8 9 10 rings

> <PUBCHEM_HEAVY_ATOM_COUNT>
23

> <PUBCHEM_ATOM_DEF_STEREO_COUNT>
0

> <PUBCHEM_ATOM_UDEF_STEREO_COUNT>
0

> <PUBCHEM_BOND_DEF_STEREO_COUNT>
0

> <PUBCHEM_BOND_UDEF_STEREO_COUNT>
0

> <PUBCHEM_ISOTOPIC_ATOM_COUNT>
0

> <PUBCHEM_COMPONENT_COUNT>
1

> <PUBCHEM_CACTVS_TAUTO_COUNT>
1

> <PUBCHEM_CONFORMER_ID>
000ADF6F00000001

> <PUBCHEM_MMFF94_ENERGY>
45.7687

> <PUBCHEM_FEATURE_SELFOVERLAP>
25.371

> <PUBCHEM_SHAPE_FINGERPRINT>
10498660 4 10809337811058587700
10928967 22 18189327034797576419
11545043 162 18272928315051467257
11796584 16 18336541638175861510
12236239 1 18113616742835811116
12422481 6 17275392022880897031
12633257 1 15841546414005175956
12643181 29 18336256873729079155
12760667 363 18343018904826324423
12969540 114 13551187797144353769
13103583 49 15339115770830673309
13402501 40 18343303673357850639
13955234 65 17915733383225682680
14123256 34 18411990173434860206
14211702 104 18269839710176251806
14251751 18 18410577309519831726
14251757 5 17895760719899466859
14251764 30 18338238271034187803
14420673 8 18412268337614362251
14950920 106 16271643515988774019
15238133 3 12967131652981266466
15537594 2 17822006485114456275
17138139 8 17822282547910674010
17780758 139 17917717915961437699
18927931 339 18412544310711119295
193927 3 18343866619163614188
20281389 69 9223226351986101932
20621476 21 18342745121535135006
21054139 6 17894625951227529466
21065201 7 18339345375758156328
21196832 93 18116443724638349050
21315763 191 18409175411194243429
21315764 119 18042118774361858213
21682296 61 17846782888556266895
21859007 373 9943269025047046112
22950370 63 18337397157629115121
23379529 103 18264772228233739075
23559900 14 18410001165632852069
25122255 55 18341056241578425510
2748736 6 8646492890376217774
2838139 119 7997965752605563314
3004659 81 18114176453813977653
3089732 80 18412826906073608523
312423 11 18410300236911395345
312425 83 14419508349248308739
3459 39 9078835130419768310
3472631 163 8934995975607673258
44062 13 18335696148758485013
465052 167 18270967954522678343
5104073 3 18131632279042252336
56616090 284 18186522111355888929
59682541 35 18130775790735317874
59755656 215 18340200783251512359
59755656 520 17983014449602607337
7062679 13 18411135865784999579
7495541 125 18131629006688563752
7918774 8 18343310287628214947
7970288 3 18410574006669161222
8863177 126 18270118036287403963
999808 66 18202569462457929054

> <PUBCHEM_SHAPE_MULTIPOLES>
435.68
15.58
2.7
1.27
4.09
0.93
-0.19
11.78
0.86
-3.05
-0.24
0.46
0.05
1.37

> <PUBCHEM_SHAPE_SELFOVERLAP>
900.359

> <PUBCHEM_SHAPE_VOLUME>
251.1

> <PUBCHEM_COORDINATE_TYPE>
2
5
10

$$$$
