721129
  -OEChem-01171811393D

 32 35  0     0  0  0  0  0  0999 V2000
    0.2357   -0.6067    0.0426 N   0  0  0  0  0  0  0  0  0  0  0  0
    0.7473    0.5571    0.4596 N   0  0  0  0  0  0  0  0  0  0  0  0
    1.0626   -1.5480   -0.4266 N   0  0  0  0  0  0  0  0  0  0  0  0
    5.5386    1.5686    0.3588 N   0  0  0  0  0  0  0  0  0  0  0  0
   -1.1327   -0.8344    0.0968 C   0  0  0  0  0  0  0  0  0  0  0  0
   -2.0664    0.2073   -0.0278 C   0  0  0  0  0  0  0  0  0  0  0  0
   -3.4484   -0.0910    0.0353 C   0  0  0  0  0  0  0  0  0  0  0  0
    2.0628    0.3850    0.2496 C   0  0  0  0  0  0  0  0  0  0  0  0
    2.2638   -0.9574   -0.3152 C   0  0  0  0  0  0  0  0  0  0  0  0
   -1.5554   -2.1512    0.2813 C   0  0  0  0  0  0  0  0  0  0  0  0
   -1.6590    1.5384   -0.2138 C   0  0  0  0  0  0  0  0  0  0  0  0
   -3.8560   -1.4221    0.2210 C   0  0  0  0  0  0  0  0  0  0  0  0
   -2.9145   -2.4446    0.3431 C   0  0  0  0  0  0  0  0  0  0  0  0
   -4.3822    0.9505   -0.0895 C   0  0  0  0  0  0  0  0  0  0  0  0
    3.1341    1.2648    0.4917 C   0  0  0  0  0  0  0  0  0  0  0  0
    3.5402   -1.4470   -0.6495 C   0  0  0  0  0  0  0  0  0  0  0  0
    4.3977    0.7499    0.1487 C   0  0  0  0  0  0  0  0  0  0  0  0
   -2.6005    2.5607   -0.3357 C   0  0  0  0  0  0  0  0  0  0  0  0
   -3.9596    2.2673   -0.2735 C   0  0  0  0  0  0  0  0  0  0  0  0
    4.5919   -0.5471   -0.3971 C   0  0  0  0  0  0  0  0  0  0  0  0
   -0.8544   -2.9747    0.3952 H   0  0  0  0  0  0  0  0  0  0  0  0
   -0.6513    1.8864   -0.3820 H   0  0  0  0  0  0  0  0  0  0  0  0
   -4.9131   -1.6744    0.2732 H   0  0  0  0  0  0  0  0  0  0  0  0
   -3.2435   -3.4692    0.4898 H   0  0  0  0  0  0  0  0  0  0  0  0
   -5.4496    0.7441   -0.0453 H   0  0  0  0  0  0  0  0  0  0  0  0
    2.9946    2.2553    0.9075 H   0  0  0  0  0  0  0  0  0  0  0  0
    3.7096   -2.4316   -1.0663 H   0  0  0  0  0  0  0  0  0  0  0  0
   -2.2752    3.5838   -0.5018 H   0  0  0  0  0  0  0  0  0  0  0  0
   -4.6922    3.0629   -0.3738 H   0  0  0  0  0  0  0  0  0  0  0  0
    5.6042   -0.8733   -0.6370 H   0  0  0  0  0  0  0  0  0  0  0  0
    6.4589    1.2228    0.1214 H   0  0  0  0  0  0  0  0  0  0  0  0
    5.4289    2.4962    0.7465 H   0  0  0  0  0  0  0  0  0  0  0  0
  1  2  1  0  0  0  0
  1  3  1  0  0  0  0
  1  5  1  0  0  0  0
  2  8  2  0  0  0  0
  3  9  2  0  0  0  0
  4 17  1  0  0  0  0
  4 31  1  0  0  0  0
  4 32  1  0  0  0  0
  5  6  1  0  0  0  0
  5 10  2  0  0  0  0
  6  7  1  0  0  0  0
  6 11  2  0  0  0  0
  7 12  1  0  0  0  0
  7 14  2  0  0  0  0
  8  9  1  0  0  0  0
  8 15  1  0  0  0  0
  9 16  1  0  0  0  0
 10 13  1  0  0  0  0
 10 21  1  0  0  0  0
 11 18  1  0  0  0  0
 11 22  1  0  0  0  0
 12 13  2  0  0  0  0
 12 23  1  0  0  0  0
 13 24  1  0  0  0  0
 14 19  1  0  0  0  0
 14 25  1  0  0  0  0
 15 17  2  0  0  0  0
 15 26  1  0  0  0  0
 16 20  2  0  0  0  0
 16 27  1  0  0  0  0
 17 20  1  0  0  0  0
 18 19  2  0  0  0  0
 18 28  1  0  0  0  0
 19 29  1  0  0  0  0
 20 30  1  0  0  0  0
M  END
> <PUBCHEM_COMPOUND_CID>
721129

> <PUBCHEM_CONFORMER_RMSD>
0.6

> <PUBCHEM_CONFORMER_DIVERSEORDER>
1
6
2
3
4
5

> <PUBCHEM_MMFF94_PARTIAL_CHARGES>
30
1 0.86
10 -0.15
11 -0.15
12 -0.15
13 -0.15
14 -0.15
15 -0.15
16 -0.15
17 0.1
18 -0.15
19 -0.15
2 -0.71
20 -0.15
21 0.15
22 0.15
23 0.15
24 0.15
25 0.15
26 0.15
27 0.15
28 0.15
29 0.15
3 -0.71
30 0.15
31 0.4
32 0.4
4 -0.9
5 -0.02
8 0.29
9 0.29

> <PUBCHEM_EFFECTIVE_ROTOR_COUNT>
1

> <PUBCHEM_PHARMACOPHORE_FEATURES>
8
1 2 acceptor
1 3 acceptor
1 4 cation
1 4 donor
5 1 2 3 8 9 rings
6 5 6 7 10 12 13 rings
6 6 7 11 14 18 19 rings
6 8 9 15 16 17 20 rings

> <PUBCHEM_HEAVY_ATOM_COUNT>
20

> <PUBCHEM_ATOM_DEF_STEREO_COUNT>
0

> <PUBCHEM_ATOM_UDEF_STEREO_COUNT>
0

> <PUBCHEM_BOND_DEF_STEREO_COUNT>
0

> <PUBCHEM_BOND_UDEF_STEREO_COUNT>
0

> <PUBCHEM_ISOTOPIC_ATOM_COUNT>
0

> <PUBCHEM_COMPONENT_COUNT>
1

> <PUBCHEM_CACTVS_TAUTO_COUNT>
2

> <PUBCHEM_CONFORMER_ID>
000B00E900000001

> <PUBCHEM_MMFF94_ENERGY>
89.7281

> <PUBCHEM_FEATURE_SELFOVERLAP>
40.801

> <PUBCHEM_SHAPE_FINGERPRINT>
10319926 262 18338219523907967474
10411042 1 17760649561519373331
10493431 412 18339651019338793817
10498660 4 18262232218813381773
10608611 8 18412543210487354000
10616163 171 18410576214287333871
10646746 165 18409449167998405862
11405975 8 18336546019559734666
11595378 159 17603856784956816656
12107183 9 17900527983479185338
12173636 292 18335981957167377997
12236239 1 17167860872094481275
12390115 104 18198638644222849569
12403259 415 18131067195112388344
12507560 40 18413109476546073942
12788726 201 16737232900139563794
13140716 1 18047192943356992609
14508225 48 18124019390208510591
14790565 3 17981051808398795769
15042514 8 18263089963080735363
15196674 1 18411700980549254366
15219456 202 18343022194196494006
15375358 24 18342739593927821902
15961568 22 18115310119782061996
18186145 218 18200601288982500394
200 152 17346595270729958167
20510252 161 18412546505291688347
20645477 56 18335988571232338629
20645477 70 17418100880140460662
21033648 29 17988630939674761944
21065198 57 18410575076511293070
21065201 7 18335420166802593210
21267235 1 18336556013832704595
23227448 37 18410854373712731717
23402539 116 18334849558489739023
23402655 69 18059853935245685436
23557571 272 18340214067131613111
23559900 14 18198623238180413902
23845131 108 17832441804494092137
245318 6 16593105656317641164
335352 9 18194683666120944894
350125 39 18339929336723043129
3545911 37 18412266125246976564
4028521 119 18335696109935039293
4214541 1 18410575072020900096
474 4 16879080817997728964
495365 180 17560784525535821146
5104073 3 18410576167269372386
633830 44 18055348033895828181
77779 3 18410857659494386694
9709674 26 18341898476064706590

> <PUBCHEM_SHAPE_MULTIPOLES>
391.67
10.28
2.6
0.7
7.95
0.1
-0.01
3.09
-0.07
-2.28
-0.03
0.15
-0.02
1.08

> <PUBCHEM_SHAPE_SELFOVERLAP>
888.555

> <PUBCHEM_SHAPE_VOLUME>
202.3

> <PUBCHEM_COORDINATE_TYPE>
2
5
10

$$$$
