6489033
  -OEChem-01171812073D

 54 56  0     0  0  0  0  0  0999 V2000
    0.1993   -3.7087   -0.7711 S   0  0  0  0  0  0  0  0  0  0  0  0
   -3.7273    3.5209    0.4659 O   0  0  0  0  0  0  0  0  0  0  0  0
    3.2963   -2.4039   -1.1174 O   0  0  0  0  0  0  0  0  0  0  0  0
   -3.5614    0.7335   -0.0857 N   0  0  0  0  0  0  0  0  0  0  0  0
   -2.0027   -2.1201   -0.5541 N   0  0  0  0  0  0  0  0  0  0  0  0
   -2.0938   -1.6922    1.5897 N   0  0  0  0  0  0  0  0  0  0  0  0
   -1.0011   -2.5023    1.3532 N   0  0  0  0  0  0  0  0  0  0  0  0
    2.0350   -1.0924    0.3687 N   0  0  0  0  0  0  0  0  0  0  0  0
   -4.7770    1.5045   -0.3811 C   0  0  0  0  0  0  0  0  0  0  0  0
   -2.8456    1.3365    1.0473 C   0  0  0  0  0  0  0  0  0  0  0  0
   -3.8877   -0.6639    0.1911 C   0  0  0  0  0  0  0  0  0  0  0  0
   -4.4125    2.9608   -0.6548 C   0  0  0  0  0  0  0  0  0  0  0  0
   -2.5273    2.7971    0.7407 C   0  0  0  0  0  0  0  0  0  0  0  0
   -2.6584   -1.4894    0.4393 C   0  0  0  0  0  0  0  0  0  0  0  0
   -0.9635   -2.7478    0.0631 C   0  0  0  0  0  0  0  0  0  0  0  0
   -2.3362   -2.1229   -1.9597 C   0  0  0  0  0  0  0  0  0  0  0  0
    2.5306    0.2137    0.1400 C   0  0  0  0  0  0  0  0  0  0  0  0
    1.9394    1.0064   -0.8322 C   0  0  0  0  0  0  0  0  0  0  0  0
    3.5992    0.6775    0.8925 C   0  0  0  0  0  0  0  0  0  0  0  0
    3.5027    2.7722   -0.3071 C   0  0  0  0  0  0  0  0  0  0  0  0
    1.6726   -3.4710    0.2653 C   0  0  0  0  0  0  0  0  0  0  0  0
    2.4285    2.2933   -1.0570 C   0  0  0  0  0  0  0  0  0  0  0  0
    4.0880    1.9644    0.6677 C   0  0  0  0  0  0  0  0  0  0  0  0
    2.4407   -2.2710   -0.2460 C   0  0  0  0  0  0  0  0  0  0  0  0
    0.7883    0.5213   -1.6531 C   0  0  0  0  0  0  0  0  0  0  0  0
    4.2479   -0.1644    1.9432 C   0  0  0  0  0  0  0  0  0  0  0  0
    4.0259    4.1476   -0.5482 C   0  0  0  0  0  0  0  0  0  0  0  0
   -5.2834    1.0938   -1.2620 H   0  0  0  0  0  0  0  0  0  0  0  0
   -5.4738    1.4562    0.4659 H   0  0  0  0  0  0  0  0  0  0  0  0
   -3.4532    1.2794    1.9599 H   0  0  0  0  0  0  0  0  0  0  0  0
   -1.8887    0.8408    1.2381 H   0  0  0  0  0  0  0  0  0  0  0  0
   -4.4614   -1.0943   -0.6388 H   0  0  0  0  0  0  0  0  0  0  0  0
   -4.5363   -0.7426    1.0747 H   0  0  0  0  0  0  0  0  0  0  0  0
   -5.3218    3.5486   -0.8165 H   0  0  0  0  0  0  0  0  0  0  0  0
   -3.7893    3.0603   -1.5520 H   0  0  0  0  0  0  0  0  0  0  0  0
   -1.8395    2.8916   -0.1088 H   0  0  0  0  0  0  0  0  0  0  0  0
   -2.0485    3.2645    1.6071 H   0  0  0  0  0  0  0  0  0  0  0  0
   -1.4354   -2.2584   -2.5617 H   0  0  0  0  0  0  0  0  0  0  0  0
   -3.0422   -2.9371   -2.1402 H   0  0  0  0  0  0  0  0  0  0  0  0
   -2.7801   -1.1637   -2.2355 H   0  0  0  0  0  0  0  0  0  0  0  0
    2.3145   -4.3525    0.1638 H   0  0  0  0  0  0  0  0  0  0  0  0
    1.4295   -3.3723    1.3273 H   0  0  0  0  0  0  0  0  0  0  0  0
    1.9771    2.9266   -1.8173 H   0  0  0  0  0  0  0  0  0  0  0  0
    4.9272    2.3415    1.2476 H   0  0  0  0  0  0  0  0  0  0  0  0
    1.3383   -1.1520    1.1078 H   0  0  0  0  0  0  0  0  0  0  0  0
   -0.0641    0.2850   -1.0084 H   0  0  0  0  0  0  0  0  0  0  0  0
    0.4511    1.2770   -2.3710 H   0  0  0  0  0  0  0  0  0  0  0  0
    1.0696   -0.3679   -2.2263 H   0  0  0  0  0  0  0  0  0  0  0  0
    5.0105    0.3921    2.4990 H   0  0  0  0  0  0  0  0  0  0  0  0
    3.5072   -0.5096    2.6723 H   0  0  0  0  0  0  0  0  0  0  0  0
    4.7390   -1.0307    1.4881 H   0  0  0  0  0  0  0  0  0  0  0  0
    4.4416    4.5791    0.3687 H   0  0  0  0  0  0  0  0  0  0  0  0
    3.2297    4.8201   -0.8853 H   0  0  0  0  0  0  0  0  0  0  0  0
    4.8104    4.1227   -1.3111 H   0  0  0  0  0  0  0  0  0  0  0  0
  1 15  1  0  0  0  0
  1 21  1  0  0  0  0
  2 12  1  0  0  0  0
  2 13  1  0  0  0  0
  3 24  2  0  0  0  0
  4  9  1  0  0  0  0
  4 10  1  0  0  0  0
  4 11  1  0  0  0  0
  5 14  1  0  0  0  0
  5 15  1  0  0  0  0
  5 16  1  0  0  0  0
  6  7  1  0  0  0  0
  6 14  2  0  0  0  0
  7 15  2  0  0  0  0
  8 17  1  0  0  0  0
  8 24  1  0  0  0  0
  8 45  1  0  0  0  0
  9 12  1  0  0  0  0
  9 28  1  0  0  0  0
  9 29  1  0  0  0  0
 10 13  1  0  0  0  0
 10 30  1  0  0  0  0
 10 31  1  0  0  0  0
 11 14  1  0  0  0  0
 11 32  1  0  0  0  0
 11 33  1  0  0  0  0
 12 34  1  0  0  0  0
 12 35  1  0  0  0  0
 13 36  1  0  0  0  0
 13 37  1  0  0  0  0
 16 38  1  0  0  0  0
 16 39  1  0  0  0  0
 16 40  1  0  0  0  0
 17 18  2  0  0  0  0
 17 19  1  0  0  0  0
 18 22  1  0  0  0  0
 18 25  1  0  0  0  0
 19 23  2  0  0  0  0
 19 26  1  0  0  0  0
 20 22  2  0  0  0  0
 20 23  1  0  0  0  0
 20 27  1  0  0  0  0
 21 24  1  0  0  0  0
 21 41  1  0  0  0  0
 21 42  1  0  0  0  0
 22 43  1  0  0  0  0
 23 44  1  0  0  0  0
 25 46  1  0  0  0  0
 25 47  1  0  0  0  0
 25 48  1  0  0  0  0
 26 49  1  0  0  0  0
 26 50  1  0  0  0  0
 26 51  1  0  0  0  0
 27 52  1  0  0  0  0
 27 53  1  0  0  0  0
 27 54  1  0  0  0  0
M  END
> <PUBCHEM_COMPOUND_CID>
6489033

> <PUBCHEM_CONFORMER_RMSD>
1.2

> <PUBCHEM_CONFORMER_DIVERSEORDER>
1
68
47
41
5
79
35
73
52
51
77
32
59
50
34
10
66
67
69
75
58
3
45
78
28
31
38
27
2
80
15
13
43
26
82
65
57
64
25
53
21
71
39
74
55
48
60
33
63
19
72
24
11
37
83
9
29
17
12
61
20
18
16
40
44
14
6
42
22
36
62
54
8
84
49
76
30
46
56
23
81
4
70
7

> <PUBCHEM_MMFF94_PARTIAL_CHARGES>
30
1 -0.29
10 0.27
11 0.45
12 0.28
13 0.28
14 0.01
15 0.24
16 0.26
17 0.12
18 -0.14
19 -0.14
2 -0.56
20 -0.14
21 0.29
22 -0.15
23 -0.15
24 0.57
25 0.14
26 0.14
27 0.14
3 -0.57
4 -0.81
43 0.15
44 0.15
45 0.37
5 0.05
6 -0.34
7 -0.34
8 -0.55
9 0.27

> <PUBCHEM_EFFECTIVE_ROTOR_COUNT>
8.2

> <PUBCHEM_PHARMACOPHORE_FEATURES>
9
1 2 acceptor
1 3 acceptor
1 4 cation
1 8 donor
3 5 6 14 cation
3 5 7 15 cation
5 5 6 7 14 15 rings
6 17 18 19 20 22 23 rings
6 2 4 9 10 12 13 rings

> <PUBCHEM_HEAVY_ATOM_COUNT>
27

> <PUBCHEM_ATOM_DEF_STEREO_COUNT>
0

> <PUBCHEM_ATOM_UDEF_STEREO_COUNT>
0

> <PUBCHEM_BOND_DEF_STEREO_COUNT>
0

> <PUBCHEM_BOND_UDEF_STEREO_COUNT>
0

> <PUBCHEM_ISOTOPIC_ATOM_COUNT>
0

> <PUBCHEM_COMPONENT_COUNT>
1

> <PUBCHEM_CACTVS_TAUTO_COUNT>
2

> <PUBCHEM_CONFORMER_ID>
006303C900000001

> <PUBCHEM_MMFF94_ENERGY>
77.6528

> <PUBCHEM_FEATURE_SELFOVERLAP>
48.226

> <PUBCHEM_SHAPE_FINGERPRINT>
10670039 82 18123199167139575044
10871710 139 18053947526606822351
11370993 70 18410288090848857769
11513181 2 18272654580065001022
12633257 1 18187351100574576440
12788726 201 18052250988338146351
12925494 130 17616819834593205169
12978246 48 18409449215053499617
13122387 1 18338522932597174129
14251764 38 18410293575769955961
14466204 15 18194119612556522946
14790565 3 18262807405819609044
15003188 8 18265597802283292648
20567600 299 17909829830048291945
20621476 13 18265895757123351361
20715895 44 18264195925496045761
21475661 188 18190177897735523555
21860390 5 17910959032774897559
21864079 5 18336830917361551382
22749437 52 18409731742360403649
23559900 14 18269274577867214960
5048184 11 18411422825429782917
550186 7 17622188053764524484
5939293 188 17905328429365510419
6036956 94 17612871908832998725
6443956 14 17616257983238008749
9981440 41 18337388352555801307

> <PUBCHEM_SHAPE_MULTIPOLES>
522.85
9.44
5.68
1.45
1.31
0.26
0.01
8.85
-1.02
-0.01
0.82
-0.28
-0.36
-0.67

> <PUBCHEM_SHAPE_SELFOVERLAP>
1082.225

> <PUBCHEM_SHAPE_VOLUME>
304

> <PUBCHEM_COORDINATE_TYPE>
2
5
10

$$$$
