893110
  -OEChem-01171811383D

 34 37  0     0  0  0  0  0  0999 V2000
    2.2654   -2.0245    0.0260 S   0  0  0  0  0  0  0  0  0  0  0  0
   -1.4620    2.1511    1.0820 O   0  0  0  0  0  0  0  0  0  0  0  0
    4.4856    1.1613    0.0294 O   0  0  0  0  0  0  0  0  0  0  0  0
   -0.3244   -2.6388   -0.0185 N   0  0  0  0  0  0  0  0  0  0  0  0
    1.6959    1.8053   -0.0584 N   0  0  0  0  0  0  0  0  0  0  0  0
    5.0319   -1.0656    0.0647 N   0  0  0  0  0  0  0  0  0  0  0  0
   -1.9591   -0.8318   -0.0719 C   0  0  0  0  0  0  0  0  0  0  0  0
   -3.4428   -0.6817   -0.1354 C   0  0  0  0  0  0  0  0  0  0  0  0
   -3.8979   -2.0750    0.3239 C   0  0  0  0  0  0  0  0  0  0  0  0
   -2.7941   -3.0560   -0.0951 C   0  0  0  0  0  0  0  0  0  0  0  0
   -1.5815   -2.1668   -0.0441 C   0  0  0  0  0  0  0  0  0  0  0  0
   -0.9871    0.1507   -0.0806 C   0  0  0  0  0  0  0  0  0  0  0  0
    0.3598   -0.2756   -0.0436 C   0  0  0  0  0  0  0  0  0  0  0  0
    0.6012   -1.6511   -0.0141 C   0  0  0  0  0  0  0  0  0  0  0  0
   -1.3086    1.5517   -0.1262 C   0  0  0  0  0  0  0  0  0  0  0  0
    1.5941    0.4524   -0.0338 C   0  0  0  0  0  0  0  0  0  0  0  0
    2.6974   -0.3712    0.0039 C   0  0  0  0  0  0  0  0  0  0  0  0
   -1.5034    2.4526   -1.1446 C   0  0  0  0  0  0  0  0  0  0  0  0
    4.0850   -0.0300    0.0262 C   0  0  0  0  0  0  0  0  0  0  0  0
   -1.7965    3.6894   -0.5222 C   0  0  0  0  0  0  0  0  0  0  0  0
   -1.7590    3.4535    0.8324 C   0  0  0  0  0  0  0  0  0  0  0  0
   -3.8236    0.0952    0.5334 H   0  0  0  0  0  0  0  0  0  0  0  0
   -3.7604   -0.4820   -1.1641 H   0  0  0  0  0  0  0  0  0  0  0  0
   -3.9870   -2.0812    1.4193 H   0  0  0  0  0  0  0  0  0  0  0  0
   -4.8771   -2.3496   -0.0805 H   0  0  0  0  0  0  0  0  0  0  0  0
   -2.9481   -3.4143   -1.1179 H   0  0  0  0  0  0  0  0  0  0  0  0
   -2.7168   -3.9023    0.5926 H   0  0  0  0  0  0  0  0  0  0  0  0
   -1.4430    2.2497   -2.2045 H   0  0  0  0  0  0  0  0  0  0  0  0
    2.5963    2.2765   -0.0608 H   0  0  0  0  0  0  0  0  0  0  0  0
    0.9109    2.4428   -0.0462 H   0  0  0  0  0  0  0  0  0  0  0  0
   -2.0080    4.6346   -1.0009 H   0  0  0  0  0  0  0  0  0  0  0  0
   -1.9124    4.0730    1.7038 H   0  0  0  0  0  0  0  0  0  0  0  0
    4.7608   -2.0437    0.0713 H   0  0  0  0  0  0  0  0  0  0  0  0
    6.0255   -0.8617    0.0877 H   0  0  0  0  0  0  0  0  0  0  0  0
  1 14  1  0  0  0  0
  1 17  1  0  0  0  0
  2 15  1  0  0  0  0
  2 21  1  0  0  0  0
  3 19  2  0  0  0  0
  4 11  1  0  0  0  0
  4 14  2  0  0  0  0
  5 16  1  0  0  0  0
  5 29  1  0  0  0  0
  5 30  1  0  0  0  0
  6 19  1  0  0  0  0
  6 33  1  0  0  0  0
  6 34  1  0  0  0  0
  7  8  1  0  0  0  0
  7 11  2  0  0  0  0
  7 12  1  0  0  0  0
  8  9  1  0  0  0  0
  8 22  1  0  0  0  0
  8 23  1  0  0  0  0
  9 10  1  0  0  0  0
  9 24  1  0  0  0  0
  9 25  1  0  0  0  0
 10 11  1  0  0  0  0
 10 26  1  0  0  0  0
 10 27  1  0  0  0  0
 12 13  2  0  0  0  0
 12 15  1  0  0  0  0
 13 14  1  0  0  0  0
 13 16  1  0  0  0  0
 15 18  2  0  0  0  0
 16 17  2  0  0  0  0
 17 19  1  0  0  0  0
 18 20  1  0  0  0  0
 18 28  1  0  0  0  0
 20 21  2  0  0  0  0
 20 31  1  0  0  0  0
 21 32  1  0  0  0  0
M  END
> <PUBCHEM_COMPOUND_CID>
893110

> <PUBCHEM_CONFORMER_RMSD>
0.6

> <PUBCHEM_CONFORMER_DIVERSEORDER>
2
4
3
1

> <PUBCHEM_MMFF94_PARTIAL_CHARGES>
26
1 -0.08
10 0.14
11 0.17
12 0.05
14 0.3
15 0.09
16 0.08
17 -0.05
18 -0.15
19 0.71
2 -0.28
20 -0.15
21 -0.01
28 0.15
29 0.4
3 -0.57
30 0.4
31 0.15
32 0.15
33 0.37
34 0.37
4 -0.57
5 -0.88
6 -0.8
7 -0.14
8 0.14

> <PUBCHEM_EFFECTIVE_ROTOR_COUNT>
2.6

> <PUBCHEM_PHARMACOPHORE_FEATURES>
10
1 2 acceptor
1 3 acceptor
1 4 acceptor
1 5 cation
1 5 donor
1 6 donor
5 1 13 14 16 17 rings
5 2 15 18 20 21 rings
5 7 8 9 10 11 rings
6 4 7 11 12 13 14 rings

> <PUBCHEM_HEAVY_ATOM_COUNT>
21

> <PUBCHEM_ATOM_DEF_STEREO_COUNT>
0

> <PUBCHEM_ATOM_UDEF_STEREO_COUNT>
0

> <PUBCHEM_BOND_DEF_STEREO_COUNT>
0

> <PUBCHEM_BOND_UDEF_STEREO_COUNT>
0

> <PUBCHEM_ISOTOPIC_ATOM_COUNT>
0

> <PUBCHEM_COMPONENT_COUNT>
1

> <PUBCHEM_CACTVS_TAUTO_COUNT>
5

> <PUBCHEM_CONFORMER_ID>
000DA0B600000002

> <PUBCHEM_MMFF94_ENERGY>
48.6075

> <PUBCHEM_FEATURE_SELFOVERLAP>
50.925

> <PUBCHEM_SHAPE_FINGERPRINT>
10162869 55 18271260400439274211
10319926 262 18197191730402756330
10411042 1 18194119839741519846
104564 63 18411981343087386735
10670039 82 18263378026780073108
10967382 1 17977947122125357999
1100329 8 17258221194460369704
12107183 9 17830162508157151650
12173636 292 18194681466923635541
12403259 226 18342452686197069138
12553582 1 18338227292617861155
12730499 353 17398958172248242557
12788726 201 18334007298249738850
12954195 1 18269569273185786150
13027679 85 18339357599693386343
13132413 78 18196095675574598397
13140716 1 18265901430669719619
13149001 5 17337336081132944471
138480 1 15888557820235944509
14178342 30 18336532821277974626
14223421 5 18412263913323046870
14955137 171 18121520187030001603
15042514 8 18409453596110084347
15196674 1 18338234976493656234
16945 1 18410575071852400375
19591789 44 18194401314707375687
20510252 161 18412824685622307424
20600515 1 18056776535480585595
20739085 24 18121243105646111563
21029758 11 18267579298688939143
21029758 27 18191030212446757767
21049683 271 17683533101543392047
21267235 1 18265623250054698707
21524375 3 17900266294947477121
22182313 1 17916593029604158166
22182937 141 18198064685819550360
22907989 373 18335696148278794956
2297311 6 18340782536693217782
2334 1 17978511167227010934
23366157 5 17179673170604486959
23402539 116 18271239525479261007
23557571 272 18412269449430409782
23558518 356 18189907421748331234
23559900 14 18341044194885710888
238 59 16599813312442700717
23845131 108 17834124048367652481
2748010 2 17906745699916822359
283562 15 18408881845378328962
3091708 16 9276272294488978001
335352 9 18410292501706463447
350125 39 18266465295376957955
352729 6 17981320088744491947
3886686 26 17687429435845729706
474 4 17404296300773339905
5104073 3 18411136982798328802
7364860 26 17547292667311668175
81228 2 18335715935224431227
84936 182 17263546726385497936
9709674 26 18270963427943984358

> <PUBCHEM_SHAPE_MULTIPOLES>
409.34
6.77
4.34
0.76
7.82
2.37
0
-2.02
0.24
-4.42
0.05
-0.3
0.39
0.03

> <PUBCHEM_SHAPE_SELFOVERLAP>
916.589

> <PUBCHEM_SHAPE_VOLUME>
221.4

> <PUBCHEM_COORDINATE_TYPE>
2
5
10

$$$$
