24982911
  -OEChem-01171812123D

 59 61  0     0  0  0  0  0  0999 V2000
   -4.7511   -0.2097   -1.7581 Cl  0  0  0  0  0  0  0  0  0  0  0  0
   -1.9269   -2.5598    1.7582 O   0  0  0  0  0  0  0  0  0  0  0  0
   -0.2999   -2.1097   -2.1412 O   0  0  0  0  0  0  0  0  0  0  0  0
    1.9934    1.7671   -2.9345 O   0  0  0  0  0  0  0  0  0  0  0  0
   -0.0620   -1.8519    0.5617 N   0  0  0  0  0  0  0  0  0  0  0  0
    1.6731    1.1136   -0.7143 N   0  0  0  0  0  0  0  0  0  0  0  0
    0.8540   -0.1613   -2.5215 N   0  0  0  0  0  0  0  0  0  0  0  0
    1.3011    0.3758    1.5676 N   0  0  0  0  0  0  0  0  0  0  0  0
    0.7228   -3.0198    0.9734 C   0  0  0  0  0  0  0  0  0  0  0  0
    0.5749   -4.1945   -0.0001 C   0  0  0  0  0  0  0  0  0  0  0  0
    0.4838   -0.8973   -0.2550 C   0  0  0  0  0  0  0  0  0  0  0  0
   -1.3875   -1.7297    1.0217 C   0  0  0  0  0  0  0  0  0  0  0  0
    1.1474    0.1878    0.2081 C   0  0  0  0  0  0  0  0  0  0  0  0
   -2.1497   -0.4829    0.5691 C   0  0  0  0  0  0  0  0  0  0  0  0
   -0.8900   -4.6247   -0.0836 C   0  0  0  0  0  0  0  0  0  0  0  0
    1.4453   -5.3833    0.4132 C   0  0  0  0  0  0  0  0  0  0  0  0
    0.3007   -1.1283   -1.7106 C   0  0  0  0  0  0  0  0  0  0  0  0
   -3.5867   -0.4000    1.0979 C   0  0  0  0  0  0  0  0  0  0  0  0
    2.3903    2.2857   -0.2083 C   0  0  0  0  0  0  0  0  0  0  0  0
    1.5440    0.9709   -2.1059 C   0  0  0  0  0  0  0  0  0  0  0  0
   -4.3082    0.8675    0.7057 C   0  0  0  0  0  0  0  0  0  0  0  0
    3.7803    1.9421    0.2434 C   0  0  0  0  0  0  0  0  0  0  0  0
   -4.8620    1.0316   -0.5640 C   0  0  0  0  0  0  0  0  0  0  0  0
   -4.4139    1.8888    1.6499 C   0  0  0  0  0  0  0  0  0  0  0  0
    4.1613    2.1735    1.5653 C   0  0  0  0  0  0  0  0  0  0  0  0
    4.6906    1.3907   -0.6584 C   0  0  0  0  0  0  0  0  0  0  0  0
   -5.5216    2.2170   -0.8893 C   0  0  0  0  0  0  0  0  0  0  0  0
   -5.0735    3.0741    1.3245 C   0  0  0  0  0  0  0  0  0  0  0  0
    5.4525    1.8541    1.9851 C   0  0  0  0  0  0  0  0  0  0  0  0
    5.9819    1.0712   -0.2384 C   0  0  0  0  0  0  0  0  0  0  0  0
   -5.6272    3.2382    0.0549 C   0  0  0  0  0  0  0  0  0  0  0  0
    6.3627    1.3029    1.0835 C   0  0  0  0  0  0  0  0  0  0  0  0
    0.4106   -3.3221    1.9807 H   0  0  0  0  0  0  0  0  0  0  0  0
    1.7764   -2.7218    1.0463 H   0  0  0  0  0  0  0  0  0  0  0  0
    0.9095   -3.8937   -0.9980 H   0  0  0  0  0  0  0  0  0  0  0  0
   -2.1587   -0.4591   -0.5245 H   0  0  0  0  0  0  0  0  0  0  0  0
   -1.6059    0.4015    0.9207 H   0  0  0  0  0  0  0  0  0  0  0  0
   -1.2884   -4.8964    0.8993 H   0  0  0  0  0  0  0  0  0  0  0  0
   -0.9825   -5.5121   -0.7211 H   0  0  0  0  0  0  0  0  0  0  0  0
   -1.5290   -3.8623   -0.5355 H   0  0  0  0  0  0  0  0  0  0  0  0
    1.1581   -5.7606    1.4005 H   0  0  0  0  0  0  0  0  0  0  0  0
    2.5003   -5.0929    0.4554 H   0  0  0  0  0  0  0  0  0  0  0  0
    1.3522   -6.2047   -0.3051 H   0  0  0  0  0  0  0  0  0  0  0  0
   -4.1642   -1.2760    0.7760 H   0  0  0  0  0  0  0  0  0  0  0  0
   -3.5670   -0.4798    2.1936 H   0  0  0  0  0  0  0  0  0  0  0  0
    1.7962    2.7662    0.5786 H   0  0  0  0  0  0  0  0  0  0  0  0
    2.4735    3.0453   -0.9958 H   0  0  0  0  0  0  0  0  0  0  0  0
    0.7469   -0.2877   -3.5240 H   0  0  0  0  0  0  0  0  0  0  0  0
    0.9066   -0.3034    2.2073 H   0  0  0  0  0  0  0  0  0  0  0  0
    1.6861    1.2306    1.9385 H   0  0  0  0  0  0  0  0  0  0  0  0
   -3.9854    1.7787    2.6426 H   0  0  0  0  0  0  0  0  0  0  0  0
    3.4684    2.6114    2.2785 H   0  0  0  0  0  0  0  0  0  0  0  0
    4.4177    1.2097   -1.6937 H   0  0  0  0  0  0  0  0  0  0  0  0
   -5.9585    2.3606   -1.8743 H   0  0  0  0  0  0  0  0  0  0  0  0
   -5.1551    3.8698    2.0593 H   0  0  0  0  0  0  0  0  0  0  0  0
    5.7500    2.0365    3.0136 H   0  0  0  0  0  0  0  0  0  0  0  0
    6.6914    0.6439   -0.9408 H   0  0  0  0  0  0  0  0  0  0  0  0
   -6.1404    4.1612   -0.1984 H   0  0  0  0  0  0  0  0  0  0  0  0
    7.3684    1.0551    1.4101 H   0  0  0  0  0  0  0  0  0  0  0  0
  1 23  1  0  0  0  0
  2 12  2  0  0  0  0
  3 17  2  0  0  0  0
  4 20  2  0  0  0  0
  5  9  1  0  0  0  0
  5 11  1  0  0  0  0
  5 12  1  0  0  0  0
  6 13  1  0  0  0  0
  6 19  1  0  0  0  0
  6 20  1  0  0  0  0
  7 17  1  0  0  0  0
  7 20  1  0  0  0  0
  7 48  1  0  0  0  0
  8 13  1  0  0  0  0
  8 49  1  0  0  0  0
  8 50  1  0  0  0  0
  9 10  1  0  0  0  0
  9 33  1  0  0  0  0
  9 34  1  0  0  0  0
 10 15  1  0  0  0  0
 10 16  1  0  0  0  0
 10 35  1  0  0  0  0
 11 13  2  0  0  0  0
 11 17  1  0  0  0  0
 12 14  1  0  0  0  0
 14 18  1  0  0  0  0
 14 36  1  0  0  0  0
 14 37  1  0  0  0  0
 15 38  1  0  0  0  0
 15 39  1  0  0  0  0
 15 40  1  0  0  0  0
 16 41  1  0  0  0  0
 16 42  1  0  0  0  0
 16 43  1  0  0  0  0
 18 21  1  0  0  0  0
 18 44  1  0  0  0  0
 18 45  1  0  0  0  0
 19 22  1  0  0  0  0
 19 46  1  0  0  0  0
 19 47  1  0  0  0  0
 21 23  1  0  0  0  0
 21 24  2  0  0  0  0
 22 25  2  0  0  0  0
 22 26  1  0  0  0  0
 23 27  2  0  0  0  0
 24 28  1  0  0  0  0
 24 51  1  0  0  0  0
 25 29  1  0  0  0  0
 25 52  1  0  0  0  0
 26 30  2  0  0  0  0
 26 53  1  0  0  0  0
 27 31  1  0  0  0  0
 27 54  1  0  0  0  0
 28 31  2  0  0  0  0
 28 55  1  0  0  0  0
 29 32  2  0  0  0  0
 29 56  1  0  0  0  0
 30 32  1  0  0  0  0
 30 57  1  0  0  0  0
 31 58  1  0  0  0  0
 32 59  1  0  0  0  0
M  END
> <PUBCHEM_COMPOUND_CID>
24982911

> <PUBCHEM_CONFORMER_RMSD>
1

> <PUBCHEM_CONFORMER_DIVERSEORDER>
1
192
204
176
119
24
184
153
319
53
42
73
320
322
179
127
292
51
114
102
296
95
61
55
289
271
243
379
370
228
230
338
58
48
333
238
288
369
138
305
315
310
164
372
79
72
348
298
36
77
378
365
162
328
9
257
172
29
362
148
87
384
259
304
210
387
205
339
349
270
183
199
344
380
329
84
374
264
313
147
185
323
22
85
294
359
194
373
306
318
283
337
225
334
246
131
368
190
229
43
316
150
237
295
141
235
356
219
174
291
151
91
159
277
287
254
263
389
249
59
111
332
71
47
117
206
175
236
312
282
345
104
297
106
248
136
214
253
171
7
209
256
166
124
82
105
122
167
163
93
285
276
300
266
195
126
188
382
120
109
88
191
30
16
173
327
110
169
216
40
125
160
286
244
314
273
92
278
107
290
75
341
250
189
311
139
227
261
20
2
242
363
357
353
63
335
293
45
325
98
217
94
350
386
340
200
112
62
134
64
132
19
324
321
326
299
31
152
89
309
123
302
158
360
252
196
232
50
146
90
26
201
193
21
251
358
351
203
211
129
100
168
156
275
255
54
303
108
385
86
260
52
60
215
11
137
140
317
101
180
65
121
6
116
113
262
12
220
355
265
34
280
279
207
284
240
69
367
343
381
222
226
80
135
221
130
182
187
143
375
66
307
8
258
155
281
144
49
346
245
361
354
231
170
383
331
336
76
70
142
99
25
301
234
3
239
267
186
154
364
149
274
35
14
212
5
376
330
247
4
202
371
103
233
224
67
347
213
178
81
23
37
33
208
133
223
388
342
10
269
377
57
181
118
38
241
198
56
268
13
366
32
115
41
165
17
74
18
15
218
83
78
28
44
97
308
157
197
46
145
39
272
68
96
27
161
128
352
177

> <PUBCHEM_MMFF94_PARTIAL_CHARGES>
41
1 -0.18
11 0.12
12 0.57
13 0.21
14 0.06
17 0.62
18 0.14
19 0.44
2 -0.57
20 0.69
21 -0.14
22 -0.14
23 0.18
24 -0.15
25 -0.15
26 -0.15
27 -0.15
28 -0.15
29 -0.15
3 -0.57
30 -0.15
31 -0.15
32 -0.15
4 -0.57
48 0.37
49 0.4
5 -0.47
50 0.4
51 0.15
52 0.15
53 0.15
54 0.15
55 0.15
56 0.15
57 0.15
58 0.15
59 0.15
6 -0.47
7 -0.49
8 -0.9
9 0.3

> <PUBCHEM_EFFECTIVE_ROTOR_COUNT>
9

> <PUBCHEM_PHARMACOPHORE_FEATURES>
10
1 2 acceptor
1 3 acceptor
1 4 acceptor
1 7 donor
1 8 cation
1 8 donor
3 10 15 16 hydrophobe
6 21 23 24 27 28 31 rings
6 22 25 26 29 30 32 rings
6 6 7 11 13 17 20 rings

> <PUBCHEM_HEAVY_ATOM_COUNT>
32

> <PUBCHEM_ATOM_DEF_STEREO_COUNT>
0

> <PUBCHEM_ATOM_UDEF_STEREO_COUNT>
0

> <PUBCHEM_BOND_DEF_STEREO_COUNT>
0

> <PUBCHEM_BOND_UDEF_STEREO_COUNT>
0

> <PUBCHEM_ISOTOPIC_ATOM_COUNT>
0

> <PUBCHEM_COMPONENT_COUNT>
1

> <PUBCHEM_CACTVS_TAUTO_COUNT>
8

> <PUBCHEM_CONFORMER_ID>
017D357F00000001

> <PUBCHEM_MMFF94_ENERGY>
108.2402

> <PUBCHEM_FEATURE_SELFOVERLAP>
50.746

> <PUBCHEM_SHAPE_FINGERPRINT>
10764073 3 17677882436315664850
10928967 22 10663814144995256045
11049842 53 18043841807882902230
11421498 54 11167675273470192508
11582403 64 17846214488125660326
11763715 3 17036708093118973370
12107183 9 18261385681318360320
12422481 6 17385999542602641748
12633257 1 17095243648471944517
12788726 201 17396160374125611870
13103583 49 15719395053089617353
13583140 156 17413876767099050290
14251764 30 12252176364351381944
14767858 380 13110963154162275984
14932701 244 17488749007856485329
14950920 106 15358278060187149937
15420108 30 18335410275197810282
15439362 3 18266175028987256091
17818456 19 17973446795574387826
17913733 40 18263070050799915965
17980427 26 18269543962284439935
21033648 29 18412265073191317256
21304303 282 18198891681983762319
22121540 332 17315624093712082183
22440779 20 13696132012592365854
2838139 119 18131345332203437384
376196 1 17989212559465714604
4015057 19 16271367547096619768
4366758 6 18263063518839993293
4938544 92 18125714845676020520
5171179 24 17830726561004388454
5385378 56 18337115544823184801
59444896 2 17771876429720674158
6371380 46 18341897394734702482
77296 10 17489307520639263718
9981440 41 18409733984628738467

> <PUBCHEM_SHAPE_MULTIPOLES>
622.88
13.03
5.54
2.17
0.48
8.87
-1.11
-17.9
3.16
0.32
1.42
-0.39
-0.57
0.06

> <PUBCHEM_SHAPE_SELFOVERLAP>
1314.896

> <PUBCHEM_SHAPE_VOLUME>
347.7

> <PUBCHEM_COORDINATE_TYPE>
2
5
10

$$$$
