1914089
  -OEChem-01171811423D

 50 54  0     0  0  0  0  0  0999 V2000
   -2.3142    2.5723    1.0301 O   0  0  0  0  0  0  0  0  0  0  0  0
    6.6878    2.0014   -0.4687 O   0  0  0  0  0  0  0  0  0  0  0  0
   -5.7108    2.3012   -0.2967 O   0  0  0  0  0  0  0  0  0  0  0  0
    1.3740    0.6448    0.2697 N   0  0  0  0  0  0  0  0  0  0  0  0
    1.5780   -1.7526    0.0040 N   0  0  0  0  0  0  0  0  0  0  0  0
   -1.2356   -1.6893    0.4701 N   0  0  0  0  0  0  0  0  0  0  0  0
    0.5663    2.8517    0.6130 N   0  0  0  0  0  0  0  0  0  0  0  0
   -3.1884    0.4392    0.9935 N   0  0  0  0  0  0  0  0  0  0  0  0
    0.8808   -0.6299    0.2267 C   0  0  0  0  0  0  0  0  0  0  0  0
   -0.4806   -0.5684    0.4549 C   0  0  0  0  0  0  0  0  0  0  0  0
   -0.8211    0.7907    0.6414 C   0  0  0  0  0  0  0  0  0  0  0  0
    0.3449    1.5190    0.5217 C   0  0  0  0  0  0  0  0  0  0  0  0
    2.7173    0.9875    0.0830 C   0  0  0  0  0  0  0  0  0  0  0  0
   -2.1182    1.3454    0.9064 C   0  0  0  0  0  0  0  0  0  0  0  0
    0.8266   -2.8632    0.0194 C   0  0  0  0  0  0  0  0  0  0  0  0
   -0.5696   -2.8324    0.2510 C   0  0  0  0  0  0  0  0  0  0  0  0
    3.5131    0.2029   -0.7383 C   0  0  0  0  0  0  0  0  0  0  0  0
    3.2302    2.1061    0.7227 C   0  0  0  0  0  0  0  0  0  0  0  0
    1.4443   -4.0908   -0.2003 C   0  0  0  0  0  0  0  0  0  0  0  0
   -1.2781   -4.0301    0.2514 C   0  0  0  0  0  0  0  0  0  0  0  0
   -4.5562    0.8443    1.2258 C   0  0  0  0  0  0  0  0  0  0  0  0
    4.8526    0.5447   -0.9240 C   0  0  0  0  0  0  0  0  0  0  0  0
    4.5697    2.4480    0.5369 C   0  0  0  0  0  0  0  0  0  0  0  0
    5.3810    1.6673   -0.2866 C   0  0  0  0  0  0  0  0  0  0  0  0
    0.7213   -5.2824   -0.1973 C   0  0  0  0  0  0  0  0  0  0  0  0
   -0.6454   -5.2519    0.0298 C   0  0  0  0  0  0  0  0  0  0  0  0
   -5.2468    1.0552   -0.0870 C   0  0  0  0  0  0  0  0  0  0  0  0
   -5.5025    0.2229   -1.1263 C   0  0  0  0  0  0  0  0  0  0  0  0
   -6.1894    1.0152   -2.0769 C   0  0  0  0  0  0  0  0  0  0  0  0
   -6.2909    2.2711   -1.5253 C   0  0  0  0  0  0  0  0  0  0  0  0
    7.4599    1.1602   -1.3243 C   0  0  0  0  0  0  0  0  0  0  0  0
    3.1419   -0.6383   -1.3129 H   0  0  0  0  0  0  0  0  0  0  0  0
    2.7010    2.6784    1.4766 H   0  0  0  0  0  0  0  0  0  0  0  0
    1.3376    3.3312    0.1633 H   0  0  0  0  0  0  0  0  0  0  0  0
   -0.1837    3.4773    0.8938 H   0  0  0  0  0  0  0  0  0  0  0  0
   -3.0155   -0.5538    0.8712 H   0  0  0  0  0  0  0  0  0  0  0  0
    2.5171   -4.1334   -0.3801 H   0  0  0  0  0  0  0  0  0  0  0  0
   -2.3523   -4.0246    0.4278 H   0  0  0  0  0  0  0  0  0  0  0  0
   -4.5751    1.7543    1.8343 H   0  0  0  0  0  0  0  0  0  0  0  0
   -5.0503    0.0427    1.7839 H   0  0  0  0  0  0  0  0  0  0  0  0
    5.4228   -0.0957   -1.5883 H   0  0  0  0  0  0  0  0  0  0  0  0
    4.9841    3.3069    1.0580 H   0  0  0  0  0  0  0  0  0  0  0  0
    1.2269   -6.2273   -0.3715 H   0  0  0  0  0  0  0  0  0  0  0  0
   -1.2207   -6.1726    0.0350 H   0  0  0  0  0  0  0  0  0  0  0  0
   -5.2375   -0.8213   -1.2089 H   0  0  0  0  0  0  0  0  0  0  0  0
   -6.5634    0.7093   -3.0432 H   0  0  0  0  0  0  0  0  0  0  0  0
   -6.7232    3.2025   -1.8609 H   0  0  0  0  0  0  0  0  0  0  0  0
    7.5380    0.1431   -0.9253 H   0  0  0  0  0  0  0  0  0  0  0  0
    8.4743    1.5714   -1.3521 H   0  0  0  0  0  0  0  0  0  0  0  0
    7.0808    1.1752   -2.3518 H   0  0  0  0  0  0  0  0  0  0  0  0
  1 14  2  0  0  0  0
  2 24  1  0  0  0  0
  2 31  1  0  0  0  0
  3 27  1  0  0  0  0
  3 30  1  0  0  0  0
  4  9  1  0  0  0  0
  4 12  1  0  0  0  0
  4 13  1  0  0  0  0
  5  9  2  0  0  0  0
  5 15  1  0  0  0  0
  6 10  2  0  0  0  0
  6 16  1  0  0  0  0
  7 12  1  0  0  0  0
  7 34  1  0  0  0  0
  7 35  1  0  0  0  0
  8 14  1  0  0  0  0
  8 21  1  0  0  0  0
  8 36  1  0  0  0  0
  9 10  1  0  0  0  0
 10 11  1  0  0  0  0
 11 12  2  0  0  0  0
 11 14  1  0  0  0  0
 13 17  2  0  0  0  0
 13 18  1  0  0  0  0
 15 16  1  0  0  0  0
 15 19  2  0  0  0  0
 16 20  2  0  0  0  0
 17 22  1  0  0  0  0
 17 32  1  0  0  0  0
 18 23  2  0  0  0  0
 18 33  1  0  0  0  0
 19 25  1  0  0  0  0
 19 37  1  0  0  0  0
 20 26  1  0  0  0  0
 20 38  1  0  0  0  0
 21 27  1  0  0  0  0
 21 39  1  0  0  0  0
 21 40  1  0  0  0  0
 22 24  2  0  0  0  0
 22 41  1  0  0  0  0
 23 24  1  0  0  0  0
 23 42  1  0  0  0  0
 25 26  2  0  0  0  0
 25 43  1  0  0  0  0
 26 44  1  0  0  0  0
 27 28  2  0  0  0  0
 28 29  1  0  0  0  0
 28 45  1  0  0  0  0
 29 30  2  0  0  0  0
 29 46  1  0  0  0  0
 30 47  1  0  0  0  0
 31 48  1  0  0  0  0
 31 49  1  0  0  0  0
 31 50  1  0  0  0  0
M  END
> <PUBCHEM_COMPOUND_CID>
1914089

> <PUBCHEM_CONFORMER_RMSD>
0.8

> <PUBCHEM_CONFORMER_DIVERSEORDER>
1
32
26
20
5
9
29
6
23
4
30
15
24
34
18
7
13
25
17
8
33
2
14
35
10
28
12
11
27
21
22
3
31
16
19

> <PUBCHEM_MMFF94_PARTIAL_CHARGES>
45
1 -0.57
10 0.26
11 -0.09
12 -0.07
13 -0.02
14 0.72
15 0.31
16 0.31
17 -0.15
18 -0.15
19 -0.15
2 -0.36
20 -0.15
21 0.48
22 -0.15
23 -0.15
24 0.08
25 -0.15
26 -0.15
27 -0.04
28 -0.15
29 -0.15
3 -0.28
30 -0.01
31 0.28
32 0.15
33 0.15
34 0.4
35 0.4
36 0.37
37 0.15
38 0.15
4 0.33
41 0.15
42 0.15
43 0.15
44 0.15
45 0.15
46 0.15
47 0.15
5 -0.57
6 -0.57
7 -0.88
8 -0.73
9 0.11

> <PUBCHEM_EFFECTIVE_ROTOR_COUNT>
6

> <PUBCHEM_PHARMACOPHORE_FEATURES>
13
1 1 acceptor
1 2 acceptor
1 3 acceptor
1 6 acceptor
1 7 cation
1 7 donor
1 8 donor
3 4 5 9 cation
5 3 27 28 29 30 rings
5 4 9 10 11 12 rings
6 13 17 18 22 23 24 rings
6 15 16 19 20 25 26 rings
6 5 6 9 10 15 16 rings

> <PUBCHEM_HEAVY_ATOM_COUNT>
31

> <PUBCHEM_ATOM_DEF_STEREO_COUNT>
0

> <PUBCHEM_ATOM_UDEF_STEREO_COUNT>
0

> <PUBCHEM_BOND_DEF_STEREO_COUNT>
0

> <PUBCHEM_BOND_UDEF_STEREO_COUNT>
0

> <PUBCHEM_ISOTOPIC_ATOM_COUNT>
0

> <PUBCHEM_COMPONENT_COUNT>
1

> <PUBCHEM_CACTVS_TAUTO_COUNT>
7

> <PUBCHEM_CONFORMER_ID>
001D34E900000001

> <PUBCHEM_MMFF94_ENERGY>
98.646

> <PUBCHEM_FEATURE_SELFOVERLAP>
66.146

> <PUBCHEM_SHAPE_FINGERPRINT>
102385 1 17761493590937915696
10411042 1 17402336971042522355
105312 117 18187364359096232911
10693767 8 17916300541682454302
10940486 97 18118696654133954756
11135609 187 18410852140124249449
11135926 11 18411420566893884473
11136131 41 18261384495343481954
11488393 25 18045211640182857987
11719270 70 18338786823787396987
11991303 11 18187932840893951206
12202916 173 17917713488150978972
12293681 160 18131349721986685217
12788726 201 17687462782050514370
13257819 101 17385713678369724149
13540713 4 17770218568614011664
13540713 5 17770505236074210553
138480 1 17618796760113645506
13911987 19 18409449189442197957
13968360 50 18336540530090318194
14190465 44 18199176481734853456
14790565 3 18411138047591079571
14866123 147 18197509621706049362
15131766 46 16735535233312873764
15439362 3 18264488374171921093
15705408 1 17907310853336024302
15927050 60 18341898514751573742
16993438 75 18190181368391320459
17138139 8 17702077327498278399
19301679 30 9510922369693024396
19319366 153 18342163441630126415
19427546 20 17976833300331541020
20028762 73 18129094529275793614
20554085 129 18201139010857272936
20721686 146 17312817147948317725
21796203 349 17332286037533867363
22393880 68 18201986756119137237
23516275 137 16628871442323611623
23559900 14 18122056508339025779
23569943 247 14114751188735956772
23576562 1 17897733299636567564
24771293 8 17912920579131761802
25025965 108 16265494776847815886
25223398 141 18116155656796616039
283562 15 18200886066953554048
3103668 31 18049155863787387359
340366 18 18116440421671537124
3882209 13 17108167028909074731
4015057 19 16916509284285929184
4017518 198 18411707586795012494
4058900 60 18335423426582251689
4409770 3 18193561288303894067
4516262 110 18339645526144557657
46194498 28 17972585599408687469
484989 97 18195811997348425099
504843 32 18187931732729371211
563151 97 18269000799530609801
57307002 29 18191897658897216172
59755656 520 18409444821301566156
6058803 2 17697600996681768689
6371009 1 18340199670865395898
6669772 16 18342183237018531054
6898599 12 18047199819621414876

> <PUBCHEM_SHAPE_MULTIPOLES>
595.45
14.39
6
1.2
0.4
12.18
0.37
-18.34
8.21
0.22
-0.15
-1.23
-0.71
0.73

> <PUBCHEM_SHAPE_SELFOVERLAP>
1346.65

> <PUBCHEM_SHAPE_VOLUME>
312.9

> <PUBCHEM_COORDINATE_TYPE>
2
5
10

$$$$
