651393
  -OEChem-01171811373D

 52 55  0     0  0  0  0  0  0999 V2000
    1.0199   -0.1068    2.9196 S   0  0  0  0  0  0  0  0  0  0  0  0
   -0.2981    4.0384   -1.4382 S   0  0  0  0  0  0  0  0  0  0  0  0
   -0.1216   -0.0230   -0.7563 O   0  0  0  0  0  0  0  0  0  0  0  0
   -1.5815    1.4447    2.1930 O   0  0  0  0  0  0  0  0  0  0  0  0
   -1.5882   -1.8227   -0.6717 N   0  0  0  0  0  0  0  0  0  0  0  0
    1.8474   -1.1668    0.5532 N   0  0  0  0  0  0  0  0  0  0  0  0
    3.2906    0.2441    1.4781 N   0  0  0  0  0  0  0  0  0  0  0  0
   -0.1437    2.6833    0.8000 N   0  0  0  0  0  0  0  0  0  0  0  0
   -2.2789    2.8208   -0.3085 N   0  0  0  0  0  0  0  0  0  0  0  0
   -4.3690   -2.5403   -0.2636 C   0  0  0  0  0  0  0  0  0  0  0  0
   -3.2342   -3.2220    0.5160 C   0  0  0  0  0  0  0  0  0  0  0  0
   -3.9500   -1.1218   -0.6781 C   0  0  0  0  0  0  0  0  0  0  0  0
   -1.9248   -3.1938   -0.2706 C   0  0  0  0  0  0  0  0  0  0  0  0
   -2.6278   -1.1375   -1.4415 C   0  0  0  0  0  0  0  0  0  0  0  0
   -5.6527   -2.5084    0.5623 C   0  0  0  0  0  0  0  0  0  0  0  0
   -0.3804   -1.1778   -0.4080 C   0  0  0  0  0  0  0  0  0  0  0  0
    0.6539   -1.9661    0.3554 C   0  0  0  0  0  0  0  0  0  0  0  0
    2.9123   -1.1211   -0.3071 C   0  0  0  0  0  0  0  0  0  0  0  0
    2.1184   -0.3368    1.6030 C   0  0  0  0  0  0  0  0  0  0  0  0
    3.8009   -0.2328    0.2925 C   0  0  0  0  0  0  0  0  0  0  0  0
    3.1688   -1.7596   -1.5209 C   0  0  0  0  0  0  0  0  0  0  0  0
    5.0227    0.0469   -0.3425 C   0  0  0  0  0  0  0  0  0  0  0  0
    4.3897   -1.4698   -2.1390 C   0  0  0  0  0  0  0  0  0  0  0  0
    5.3014   -0.5827   -1.5620 C   0  0  0  0  0  0  0  0  0  0  0  0
    0.7069    1.6784    2.8113 C   0  0  0  0  0  0  0  0  0  0  0  0
   -0.4822    1.9093    1.9032 C   0  0  0  0  0  0  0  0  0  0  0  0
   -1.0128    3.0904   -0.2156 C   0  0  0  0  0  0  0  0  0  0  0  0
   -1.8308    4.1178   -2.2036 C   0  0  0  0  0  0  0  0  0  0  0  0
   -2.7561    3.4156   -1.4602 C   0  0  0  0  0  0  0  0  0  0  0  0
   -4.5649   -3.1241   -1.1729 H   0  0  0  0  0  0  0  0  0  0  0  0
   -3.0873   -2.7103    1.4761 H   0  0  0  0  0  0  0  0  0  0  0  0
   -3.5029   -4.2606    0.7413 H   0  0  0  0  0  0  0  0  0  0  0  0
   -4.7272   -0.6652   -1.3019 H   0  0  0  0  0  0  0  0  0  0  0  0
   -3.8417   -0.4930    0.2153 H   0  0  0  0  0  0  0  0  0  0  0  0
   -1.1352   -3.6532    0.3260 H   0  0  0  0  0  0  0  0  0  0  0  0
   -2.0198   -3.7847   -1.1895 H   0  0  0  0  0  0  0  0  0  0  0  0
   -2.7391   -1.6734   -2.3915 H   0  0  0  0  0  0  0  0  0  0  0  0
   -2.3261   -0.1123   -1.6781 H   0  0  0  0  0  0  0  0  0  0  0  0
   -5.9647   -3.5224    0.8335 H   0  0  0  0  0  0  0  0  0  0  0  0
   -5.5182   -1.9368    1.4868 H   0  0  0  0  0  0  0  0  0  0  0  0
   -6.4676   -2.0471   -0.0054 H   0  0  0  0  0  0  0  0  0  0  0  0
    0.2685   -2.2770    1.3296 H   0  0  0  0  0  0  0  0  0  0  0  0
    0.9331   -2.8632   -0.2060 H   0  0  0  0  0  0  0  0  0  0  0  0
    2.4637   -2.4461   -1.9756 H   0  0  0  0  0  0  0  0  0  0  0  0
    5.7377    0.7346    0.0976 H   0  0  0  0  0  0  0  0  0  0  0  0
    4.6322   -1.9435   -3.0871 H   0  0  0  0  0  0  0  0  0  0  0  0
    6.2420   -0.3771   -2.0665 H   0  0  0  0  0  0  0  0  0  0  0  0
    0.4422    2.0510    3.8062 H   0  0  0  0  0  0  0  0  0  0  0  0
    1.6007    2.2190    2.4871 H   0  0  0  0  0  0  0  0  0  0  0  0
    0.8156    2.9998    0.6869 H   0  0  0  0  0  0  0  0  0  0  0  0
   -1.9775    4.6561   -3.1291 H   0  0  0  0  0  0  0  0  0  0  0  0
   -3.8009    3.3041   -1.7169 H   0  0  0  0  0  0  0  0  0  0  0  0
  1 19  1  0  0  0  0
  1 25  1  0  0  0  0
  2 27  1  0  0  0  0
  2 28  1  0  0  0  0
  3 16  2  0  0  0  0
  4 26  2  0  0  0  0
  5 13  1  0  0  0  0
  5 14  1  0  0  0  0
  5 16  1  0  0  0  0
  6 17  1  0  0  0  0
  6 18  1  0  0  0  0
  6 19  1  0  0  0  0
  7 19  2  0  0  0  0
  7 20  1  0  0  0  0
  8 26  1  0  0  0  0
  8 27  1  0  0  0  0
  8 50  1  0  0  0  0
  9 27  2  0  0  0  0
  9 29  1  0  0  0  0
 10 11  1  0  0  0  0
 10 12  1  0  0  0  0
 10 15  1  0  0  0  0
 10 30  1  0  0  0  0
 11 13  1  0  0  0  0
 11 31  1  0  0  0  0
 11 32  1  0  0  0  0
 12 14  1  0  0  0  0
 12 33  1  0  0  0  0
 12 34  1  0  0  0  0
 13 35  1  0  0  0  0
 13 36  1  0  0  0  0
 14 37  1  0  0  0  0
 14 38  1  0  0  0  0
 15 39  1  0  0  0  0
 15 40  1  0  0  0  0
 15 41  1  0  0  0  0
 16 17  1  0  0  0  0
 17 42  1  0  0  0  0
 17 43  1  0  0  0  0
 18 20  1  0  0  0  0
 18 21  2  0  0  0  0
 20 22  2  0  0  0  0
 21 23  1  0  0  0  0
 21 44  1  0  0  0  0
 22 24  1  0  0  0  0
 22 45  1  0  0  0  0
 23 24  2  0  0  0  0
 23 46  1  0  0  0  0
 24 47  1  0  0  0  0
 25 26  1  0  0  0  0
 25 48  1  0  0  0  0
 25 49  1  0  0  0  0
 28 29  2  0  0  0  0
 28 51  1  0  0  0  0
 29 52  1  0  0  0  0
M  END
> <PUBCHEM_COMPOUND_CID>
651393

> <PUBCHEM_CONFORMER_RMSD>
1.2

> <PUBCHEM_CONFORMER_DIVERSEORDER>
4
142
117
180
80
2
26
23
64
125
191
73
109
161
42
120
135
41
20
126
172
24
199
7
183
95
185
75
133
131
162
194
197
22
146
132
63
50
59
138
134
58
196
19
139
61
174
35
83
29
177
87
168
173
181
38
43
149
91
167
104
121
13
189
39
72
93
66
151
166
187
99
156
89
97
140
36
123
10
78
108
68
45
188
32
111
77
14
122
51
113
30
102
46
144
157
65
5
8
155
71
17
171
106
33
70
163
160
136
60
170
116
55
44
31
178
40
128
81
53
54
82
107
85
48
190
96
79
18
74
150
21
76
105
175
114
182
129
159
88
52
169
127
28
154
143
47
193
27
25
9
115
12
112
130
186
62
118
158
124
57
103
90
195
84
119
165
92
110
6
145
11
98
198
100
56
34
37
137
16
3
164
69
101
1
15
184
86
147
153
179
49
94
176
192
152
148
67
141

> <PUBCHEM_MMFF94_PARTIAL_CHARGES>
32
1 -0.29
13 0.3
14 0.3
16 0.57
17 0.32
18 -0.15
19 0.24
2 -0.08
20 0.23
21 -0.15
22 -0.15
23 -0.15
24 -0.15
25 0.29
26 0.57
27 0.44
28 -0.11
29 0.08
3 -0.57
4 -0.57
44 0.15
45 0.15
46 0.15
47 0.15
5 -0.66
50 0.37
51 0.15
52 0.15
6 0.05
7 -0.57
8 -0.49
9 -0.57

> <PUBCHEM_EFFECTIVE_ROTOR_COUNT>
9.2

> <PUBCHEM_PHARMACOPHORE_FEATURES>
8
1 3 acceptor
1 4 acceptor
1 8 donor
3 6 7 19 cation
5 2 9 27 28 29 rings
5 6 7 18 19 20 rings
6 18 20 21 22 23 24 rings
6 5 10 11 12 13 14 rings

> <PUBCHEM_HEAVY_ATOM_COUNT>
29

> <PUBCHEM_ATOM_DEF_STEREO_COUNT>
0

> <PUBCHEM_ATOM_UDEF_STEREO_COUNT>
0

> <PUBCHEM_BOND_DEF_STEREO_COUNT>
0

> <PUBCHEM_BOND_UDEF_STEREO_COUNT>
0

> <PUBCHEM_ISOTOPIC_ATOM_COUNT>
0

> <PUBCHEM_COMPONENT_COUNT>
1

> <PUBCHEM_CACTVS_TAUTO_COUNT>
3

> <PUBCHEM_CONFORMER_ID>
0009F08100000004

> <PUBCHEM_MMFF94_ENERGY>
46.4215

> <PUBCHEM_FEATURE_SELFOVERLAP>
40.704

> <PUBCHEM_SHAPE_FINGERPRINT>
10764073 3 14041856856587691098
11045515 52 18338523044034020423
11421498 54 17967525770660890939
11513181 2 17559109002721544279
11582403 64 16882452740428184541
11607047 403 15879866885483754131
12160290 23 18126826240945001983
12788726 201 18113612378790277427
13165053 103 16339776686955768390
14114211 68 17837212572018570421
15210252 30 18191590954649657130
17357779 13 18059282249302377875
17980427 26 15121515926204236970
1813 80 18339363088171389419
20600515 1 18120358011560221690
21033648 29 17917419978275634283
21285901 2 18201445800213366494
21452121 99 18051389808825014816
21641784 216 18265072347763449244
21756936 100 17024904510157655142
22182313 1 17631714024954325802
23559900 14 17979068611876916839
238 59 17329429441541029584
26353 1 18264491852451911217
469060 322 18335152976601960729
5081480 168 18266735981928649391
6287921 2 17406826762302335935
77296 10 18192692494314458834

> <PUBCHEM_SHAPE_MULTIPOLES>
567.86
8.97
5.27
2.54
2.46
5.73
1.54
-8.12
-3.73
-6.91
-2.52
1.39
1.37
1.82

> <PUBCHEM_SHAPE_SELFOVERLAP>
1189.35

> <PUBCHEM_SHAPE_VOLUME>
322.7

> <PUBCHEM_COORDINATE_TYPE>
2
5
10

$$$$
