5294155
  -OEChem-01171812143D

 41 43  0     1  0  0  0  0  0999 V2000
   -0.4107    2.6149    0.4080 O   0  0  0  0  0  0  0  0  0  0  0  0
   -4.7417    0.9020   -0.7932 O   0  0  0  0  0  0  0  0  0  0  0  0
   -3.1186    2.5523   -0.8339 O   0  0  0  0  0  0  0  0  0  0  0  0
    5.2035    0.5225   -1.5435 O   0  0  0  0  0  0  0  0  0  0  0  0
    5.8938    0.3490    0.6457 O   0  0  0  0  0  0  0  0  0  0  0  0
   -1.0079   -1.7861    0.2481 N   0  0  0  0  0  0  0  0  0  0  0  0
   -0.7343   -3.0635    0.5739 N   0  0  0  0  0  0  0  0  0  0  0  0
   -3.0219   -0.9334   -0.6573 N   0  0  0  0  0  0  0  0  0  0  0  0
   -2.5363   -3.2259   -0.5819 N   0  0  0  0  0  0  0  0  0  0  0  0
   -1.6260   -3.9180   -0.0154 N   0  0  0  0  0  0  0  0  0  0  0  0
   -0.5674   -0.6130    0.9549 C   0  0  2  0  0  0  0  0  0  0  0  0
   -1.4958    0.5376    0.5330 C   0  0  0  0  0  0  0  0  0  0  0  0
    0.8996   -0.3646    0.6488 C   0  0  0  0  0  0  0  0  0  0  0  0
   -2.2131   -1.9013   -0.3609 C   0  0  0  0  0  0  0  0  0  0  0  0
   -2.5942    0.3195   -0.2359 C   0  0  0  0  0  0  0  0  0  0  0  0
    1.8328   -0.3609    1.6829 C   0  0  0  0  0  0  0  0  0  0  0  0
    1.3060   -0.1424   -0.6649 C   0  0  0  0  0  0  0  0  0  0  0  0
   -1.1307    1.8659    1.0624 C   0  0  0  0  0  0  0  0  0  0  0  0
    3.1800   -0.1334    1.4019 C   0  0  0  0  0  0  0  0  0  0  0  0
    2.6534    0.0849   -0.9458 C   0  0  0  0  0  0  0  0  0  0  0  0
    3.5903    0.0894    0.0876 C   0  0  0  0  0  0  0  0  0  0  0  0
   -3.4935    1.4090   -0.6559 C   0  0  0  0  0  0  0  0  0  0  0  0
   -1.6764    2.2562    2.4073 C   0  0  0  0  0  0  0  0  0  0  0  0
    4.9948    0.3269   -0.2055 C   0  0  0  0  0  0  0  0  0  0  0  0
   -5.7370    1.8463   -1.2010 C   0  0  0  0  0  0  0  0  0  0  0  0
    6.5516    0.7657   -1.9593 C   0  0  0  0  0  0  0  0  0  0  0  0
   -0.7070   -0.7689    2.0332 H   0  0  0  0  0  0  0  0  0  0  0  0
    1.5269   -0.5329    2.7112 H   0  0  0  0  0  0  0  0  0  0  0  0
    0.5907   -0.1428   -1.4831 H   0  0  0  0  0  0  0  0  0  0  0  0
    0.1911   -3.3685    0.8437 H   0  0  0  0  0  0  0  0  0  0  0  0
    3.8935   -0.1338    2.2217 H   0  0  0  0  0  0  0  0  0  0  0  0
    2.9266    0.2537   -1.9836 H   0  0  0  0  0  0  0  0  0  0  0  0
   -0.8449    2.4496    3.0900 H   0  0  0  0  0  0  0  0  0  0  0  0
   -2.2933    1.4572    2.8283 H   0  0  0  0  0  0  0  0  0  0  0  0
   -2.2931    3.1522    2.2995 H   0  0  0  0  0  0  0  0  0  0  0  0
   -6.6933    1.3217   -1.2746 H   0  0  0  0  0  0  0  0  0  0  0  0
   -5.4871    2.2603   -2.1826 H   0  0  0  0  0  0  0  0  0  0  0  0
   -5.8303    2.6436   -0.4573 H   0  0  0  0  0  0  0  0  0  0  0  0
    7.1837   -0.0914   -1.7088 H   0  0  0  0  0  0  0  0  0  0  0  0
    6.9324    1.6773   -1.4894 H   0  0  0  0  0  0  0  0  0  0  0  0
    6.5543    0.9007   -3.0441 H   0  0  0  0  0  0  0  0  0  0  0  0
  1 18  2  0  0  0  0
  2 22  1  0  0  0  0
  2 25  1  0  0  0  0
  3 22  2  0  0  0  0
  4 24  1  0  0  0  0
  4 26  1  0  0  0  0
  5 24  2  0  0  0  0
  6  7  1  0  0  0  0
  6 11  1  0  0  0  0
  6 14  1  0  0  0  0
  7 10  1  0  0  0  0
  7 30  1  0  0  0  0
  8 14  2  0  0  0  0
  8 15  1  0  0  0  0
  9 10  2  0  0  0  0
  9 14  1  0  0  0  0
 11 12  1  0  0  0  0
 11 13  1  0  0  0  0
 11 27  1  0  0  0  0
 12 15  2  0  0  0  0
 12 18  1  0  0  0  0
 13 16  2  0  0  0  0
 13 17  1  0  0  0  0
 15 22  1  0  0  0  0
 16 19  1  0  0  0  0
 16 28  1  0  0  0  0
 17 20  2  0  0  0  0
 17 29  1  0  0  0  0
 18 23  1  0  0  0  0
 19 21  2  0  0  0  0
 19 31  1  0  0  0  0
 20 21  1  0  0  0  0
 20 32  1  0  0  0  0
 21 24  1  0  0  0  0
 23 33  1  0  0  0  0
 23 34  1  0  0  0  0
 23 35  1  0  0  0  0
 25 36  1  0  0  0  0
 25 37  1  0  0  0  0
 25 38  1  0  0  0  0
 26 39  1  0  0  0  0
 26 40  1  0  0  0  0
 26 41  1  0  0  0  0
M  END
> <PUBCHEM_COMPOUND_CID>
5294155

> <PUBCHEM_CONFORMER_RMSD>
0.8

> <PUBCHEM_CONFORMER_DIVERSEORDER>
3
23
9
20
24
25
18
22
15
8
21
16
27
7
26
13
11
4
17
19
6
14
12
1
10
2
5

> <PUBCHEM_MMFF94_PARTIAL_CHARGES>
31
1 -0.57
10 -0.06
11 0.65
12 -0.12
13 -0.14
14 0.71
15 0.19
16 -0.15
17 -0.15
18 0.49
19 -0.15
2 -0.43
20 -0.15
21 0.09
22 0.71
23 0.06
24 0.63
25 0.28
26 0.28
28 0.15
29 0.15
3 -0.57
30 0.37
31 0.15
32 0.15
4 -0.43
5 -0.57
6 -0.44
7 -0.29
8 -0.62
9 -0.21

> <PUBCHEM_EFFECTIVE_ROTOR_COUNT>
6.4

> <PUBCHEM_PHARMACOPHORE_FEATURES>
7
1 1 acceptor
1 3 acceptor
1 5 acceptor
4 6 8 9 14 cation
5 6 7 9 10 14 rings
6 13 16 17 19 20 21 rings
6 6 8 11 12 14 15 rings

> <PUBCHEM_HEAVY_ATOM_COUNT>
26

> <PUBCHEM_ATOM_DEF_STEREO_COUNT>
0

> <PUBCHEM_ATOM_UDEF_STEREO_COUNT>
1

> <PUBCHEM_BOND_DEF_STEREO_COUNT>
0

> <PUBCHEM_BOND_UDEF_STEREO_COUNT>
0

> <PUBCHEM_ISOTOPIC_ATOM_COUNT>
0

> <PUBCHEM_COMPONENT_COUNT>
1

> <PUBCHEM_CACTVS_TAUTO_COUNT>
9

> <PUBCHEM_CONFORMER_ID>
0050C84B00000003

> <PUBCHEM_MMFF94_ENERGY>
89.8972

> <PUBCHEM_FEATURE_SELFOVERLAP>
35.668

> <PUBCHEM_SHAPE_FINGERPRINT>
10 15 11242257385613788054
10366900 7 17560802108899724604
10498660 4 18413106173811155928
10759866 29 18114174181902956979
11578080 2 17102786345298414308
11640471 11 17967533437203484720
12236239 1 17821443556345824450
12293681 160 18130498631441480569
12616971 3 17240473720353645218
12788726 201 17917143893055196497
12895836 83 18260545619552826389
12895837 130 17822586013573659788
13149001 5 18127953382335036457
133893 2 17688316690078551067
13911987 19 18336824196086276421
14251757 5 18338803419536033006
14790565 3 18340204077698014065
15163728 17 18119253852682996421
15324884 4 17559097998915507674
15463212 79 18113891671807420778
16752209 62 18337095873836428875
17492 54 18260818273057062085
19784866 240 13973964307148395260
200 152 14333405649147345002
20511986 3 17677034811814388108
20600515 1 18053911139190496393
20642791 239 18408040736279423057
20871999 31 18340759429621439623
20905425 154 17764021772012460873
21756936 100 17386013900836366506
23402539 116 18342447153920476246
23419403 2 17201345515397872555
23557571 272 18128811022810700424
23559900 14 18273492378113315002
255183 451 17404303387702143359
2838139 119 17095794430651122029
3178227 256 18410579492497108161
3759504 43 18114178631911166003
394222 165 17753317691630282227
4058900 60 18117559514408130041
465052 167 10375001135096722533
484989 97 18264480875570836591
5104073 3 15502659364710738808
57527306 92 16588016893081195389
57724786 102 15502668134980580228
59755656 520 18128555802489041755
6034566 193 18264221213994920513

> <PUBCHEM_SHAPE_MULTIPOLES>
480.82
11.26
3.12
1.63
13.23
2.74
-0.33
-5.69
7
-4.6
-0.21
0.87
-0.85
-0.33

> <PUBCHEM_SHAPE_SELFOVERLAP>
1046.544

> <PUBCHEM_SHAPE_VOLUME>
261.9

> <PUBCHEM_COORDINATE_TYPE>
2
5
10

$$$$
