2334194
  -OEChem-01171811463D

 57 60  0     0  0  0  0  0  0999 V2000
   -2.2272   -1.7916    0.6726 S   0  0  0  0  0  0  0  0  0  0  0  0
   -3.3860    3.0648   -1.0400 O   0  0  0  0  0  0  0  0  0  0  0  0
    2.4676   -3.0701   -0.5180 O   0  0  0  0  0  0  0  0  0  0  0  0
   -1.5551   -1.3874    1.8926 O   0  0  0  0  0  0  0  0  0  0  0  0
   -2.4508   -3.1964    0.3868 O   0  0  0  0  0  0  0  0  0  0  0  0
    0.2160   -3.3622   -0.8360 O   0  0  0  0  0  0  0  0  0  0  0  0
    0.1388    0.8424   -0.1938 N   0  0  0  0  0  0  0  0  0  0  0  0
   -1.4629   -1.0362   -0.6776 N   0  0  0  0  0  0  0  0  0  0  0  0
    2.1396    2.1319    0.2462 N   0  0  0  0  0  0  0  0  0  0  0  0
    3.4075   -0.4122    0.0058 N   0  0  0  0  0  0  0  0  0  0  0  0
   -0.1418   -0.4808   -0.4329 C   0  0  0  0  0  0  0  0  0  0  0  0
   -0.8366    1.9089   -0.1464 C   0  0  0  0  0  0  0  0  0  0  0  0
    1.4855    0.9903   -0.0090 C   0  0  0  0  0  0  0  0  0  0  0  0
    1.0436   -1.1865   -0.3995 C   0  0  0  0  0  0  0  0  0  0  0  0
    2.0721   -0.2549   -0.1310 C   0  0  0  0  0  0  0  0  0  0  0  0
   -1.0875    2.5755   -1.4986 C   0  0  0  0  0  0  0  0  0  0  0  0
   -2.1599    3.6567   -1.4498 C   0  0  0  0  0  0  0  0  0  0  0  0
    3.4643    1.9731    0.3812 C   0  0  0  0  0  0  0  0  0  0  0  0
    4.0939    0.7108    0.2625 C   0  0  0  0  0  0  0  0  0  0  0  0
    1.1715   -2.6020   -0.6028 C   0  0  0  0  0  0  0  0  0  0  0  0
   -3.8126   -1.0061    0.6490 C   0  0  0  0  0  0  0  0  0  0  0  0
    4.2475    3.0920    0.6485 C   0  0  0  0  0  0  0  0  0  0  0  0
    5.4746    0.6304    0.4169 C   0  0  0  0  0  0  0  0  0  0  0  0
    5.6296    2.9960    0.8003 C   0  0  0  0  0  0  0  0  0  0  0  0
    6.2456    1.7601    0.6843 C   0  0  0  0  0  0  0  0  0  0  0  0
   -4.8579   -1.5667   -0.0852 C   0  0  0  0  0  0  0  0  0  0  0  0
   -4.0172    0.1739    1.3643 C   0  0  0  0  0  0  0  0  0  0  0  0
    2.6672   -4.4751   -0.7108 C   0  0  0  0  0  0  0  0  0  0  0  0
   -6.1076   -0.9472   -0.1043 C   0  0  0  0  0  0  0  0  0  0  0  0
   -5.2668    0.7932    1.3453 C   0  0  0  0  0  0  0  0  0  0  0  0
   -4.4262    4.0289   -0.9515 C   0  0  0  0  0  0  0  0  0  0  0  0
   -6.3120    0.2326    0.6109 C   0  0  0  0  0  0  0  0  0  0  0  0
    4.1430   -4.7859   -0.5800 C   0  0  0  0  0  0  0  0  0  0  0  0
   -1.7613    1.4923    0.2578 H   0  0  0  0  0  0  0  0  0  0  0  0
   -0.4865    2.6494    0.5826 H   0  0  0  0  0  0  0  0  0  0  0  0
   -0.1538    3.0097   -1.8757 H   0  0  0  0  0  0  0  0  0  0  0  0
   -1.3933    1.8054   -2.2184 H   0  0  0  0  0  0  0  0  0  0  0  0
   -1.4723   -1.6191   -1.5261 H   0  0  0  0  0  0  0  0  0  0  0  0
   -1.8701    4.4427   -0.7429 H   0  0  0  0  0  0  0  0  0  0  0  0
   -2.2802    4.1006   -2.4445 H   0  0  0  0  0  0  0  0  0  0  0  0
    3.7804    4.0708    0.7432 H   0  0  0  0  0  0  0  0  0  0  0  0
    5.9749   -0.3325    0.3287 H   0  0  0  0  0  0  0  0  0  0  0  0
    6.2183    3.8842    1.0083 H   0  0  0  0  0  0  0  0  0  0  0  0
    7.3214    1.6711    0.8004 H   0  0  0  0  0  0  0  0  0  0  0  0
   -4.7189   -2.4807   -0.6554 H   0  0  0  0  0  0  0  0  0  0  0  0
   -3.2194    0.6262    1.9460 H   0  0  0  0  0  0  0  0  0  0  0  0
    2.1022   -5.0295    0.0465 H   0  0  0  0  0  0  0  0  0  0  0  0
    2.3149   -4.7585   -1.7086 H   0  0  0  0  0  0  0  0  0  0  0  0
   -6.9209   -1.3823   -0.6776 H   0  0  0  0  0  0  0  0  0  0  0  0
   -5.4260    1.7124    1.9014 H   0  0  0  0  0  0  0  0  0  0  0  0
   -5.3436    3.5191   -0.6455 H   0  0  0  0  0  0  0  0  0  0  0  0
   -4.5969    4.5000   -1.9243 H   0  0  0  0  0  0  0  0  0  0  0  0
   -4.1820    4.7878   -0.2020 H   0  0  0  0  0  0  0  0  0  0  0  0
   -7.2846    0.7157    0.5952 H   0  0  0  0  0  0  0  0  0  0  0  0
    4.3321   -5.8536   -0.7220 H   0  0  0  0  0  0  0  0  0  0  0  0
    4.5131   -4.4890    0.4069 H   0  0  0  0  0  0  0  0  0  0  0  0
    4.7222   -4.2224   -1.3190 H   0  0  0  0  0  0  0  0  0  0  0  0
  1  4  2  0  0  0  0
  1  5  2  0  0  0  0
  1  8  1  0  0  0  0
  1 21  1  0  0  0  0
  2 17  1  0  0  0  0
  2 31  1  0  0  0  0
  3 20  1  0  0  0  0
  3 28  1  0  0  0  0
  6 20  2  0  0  0  0
  7 11  1  0  0  0  0
  7 12  1  0  0  0  0
  7 13  1  0  0  0  0
  8 11  1  0  0  0  0
  8 38  1  0  0  0  0
  9 13  2  0  0  0  0
  9 18  1  0  0  0  0
 10 15  2  0  0  0  0
 10 19  1  0  0  0  0
 11 14  2  0  0  0  0
 12 16  1  0  0  0  0
 12 34  1  0  0  0  0
 12 35  1  0  0  0  0
 13 15  1  0  0  0  0
 14 15  1  0  0  0  0
 14 20  1  0  0  0  0
 16 17  1  0  0  0  0
 16 36  1  0  0  0  0
 16 37  1  0  0  0  0
 17 39  1  0  0  0  0
 17 40  1  0  0  0  0
 18 19  1  0  0  0  0
 18 22  2  0  0  0  0
 19 23  2  0  0  0  0
 21 26  2  0  0  0  0
 21 27  1  0  0  0  0
 22 24  1  0  0  0  0
 22 41  1  0  0  0  0
 23 25  1  0  0  0  0
 23 42  1  0  0  0  0
 24 25  2  0  0  0  0
 24 43  1  0  0  0  0
 25 44  1  0  0  0  0
 26 29  1  0  0  0  0
 26 45  1  0  0  0  0
 27 30  2  0  0  0  0
 27 46  1  0  0  0  0
 28 33  1  0  0  0  0
 28 47  1  0  0  0  0
 28 48  1  0  0  0  0
 29 32  2  0  0  0  0
 29 49  1  0  0  0  0
 30 32  1  0  0  0  0
 30 50  1  0  0  0  0
 31 51  1  0  0  0  0
 31 52  1  0  0  0  0
 31 53  1  0  0  0  0
 32 54  1  0  0  0  0
 33 55  1  0  0  0  0
 33 56  1  0  0  0  0
 33 57  1  0  0  0  0
M  END
> <PUBCHEM_COMPOUND_CID>
2334194

> <PUBCHEM_CONFORMER_RMSD>
1

> <PUBCHEM_CONFORMER_DIVERSEORDER>
1
66
51
78
63
69
75
15
53
49
24
34
36
74
47
83
72
28
58
29
14
50
87
55
44
57
84
46
45
59
88
48
32
86
41
19
5
9
77
16
2
76
35
56
67
71
94
89
61
79
25
33
23
91
62
81
4
68
22
10
20
18
3
73
60
40
21
82
39
27
90
37
17
54
12
65
7
64
8
92
26
70
43
80
85
13
31
11
30
6
38
42
93
52

> <PUBCHEM_MMFF94_PARTIAL_CHARGES>
41
1 1.45
10 -0.57
11 -0.01
12 0.26
13 0.11
14 -0.09
15 0.26
17 0.28
18 0.31
19 0.31
2 -0.56
20 0.81
21 -0.01
22 -0.15
23 -0.15
24 -0.15
25 -0.15
26 -0.15
27 -0.15
28 0.28
29 -0.15
3 -0.43
30 -0.15
31 0.28
32 -0.15
38 0.42
4 -0.65
41 0.15
42 0.15
43 0.15
44 0.15
45 0.15
46 0.15
49 0.15
5 -0.65
50 0.15
54 0.15
6 -0.57
7 0.05
8 -0.7
9 -0.57

> <PUBCHEM_EFFECTIVE_ROTOR_COUNT>
10

> <PUBCHEM_PHARMACOPHORE_FEATURES>
11
1 10 acceptor
1 2 acceptor
1 4 acceptor
1 5 acceptor
1 6 acceptor
1 8 donor
3 7 9 13 cation
5 7 11 13 14 15 rings
6 18 19 22 23 24 25 rings
6 21 26 27 29 30 32 rings
6 9 10 13 15 18 19 rings

> <PUBCHEM_HEAVY_ATOM_COUNT>
33

> <PUBCHEM_ATOM_DEF_STEREO_COUNT>
0

> <PUBCHEM_ATOM_UDEF_STEREO_COUNT>
0

> <PUBCHEM_BOND_DEF_STEREO_COUNT>
0

> <PUBCHEM_BOND_UDEF_STEREO_COUNT>
0

> <PUBCHEM_ISOTOPIC_ATOM_COUNT>
0

> <PUBCHEM_COMPONENT_COUNT>
1

> <PUBCHEM_CACTVS_TAUTO_COUNT>
4

> <PUBCHEM_CONFORMER_ID>
00239DF200000001

> <PUBCHEM_MMFF94_ENERGY>
63.623

> <PUBCHEM_FEATURE_SELFOVERLAP>
56.015

> <PUBCHEM_SHAPE_FINGERPRINT>
10290309 65 18341325682932368504
10411042 1 17188963528837743374
10906281 52 18115887328298060569
11763715 3 15213300777574118508
12422481 6 18334294292512683912
13140716 1 18195810892945535904
13402501 40 18410009974705669929
13540713 4 18189896409784318597
13757389 114 17762915650778196172
140371 6 18115034112002676445
14466204 15 18341897453836025697
14790565 3 18196938988034685312
15361156 5 18115878575861619036
15420108 30 18201153359831987447
15775530 1 18192424182626331548
15815584 197 18194708031402408231
17913733 40 18272645740732038008
19315958 150 18339084779620187385
20642791 13 18260827082072006981
21033648 144 18412263943894493295
21033648 29 18128238164700874752
21703447 108 18262514780295758995
23559900 14 18342464694562554355
25223398 141 17100603553151626885
3411729 13 18343025501601373946
350125 39 18338799030654898096
5047190 48 18264494055754641268
5104073 3 18189314854560533808
5171179 24 18266461992568693543
5265222 85 18265904730191241588
552612 73 18263650576107263108
59755656 215 18341341037044481606
6004065 56 18192988451841457813
7226269 152 17822005467096859169

> <PUBCHEM_SHAPE_MULTIPOLES>
633.7
13.73
5.88
1.19
2.65
3.05
0.06
-5.64
4.02
-3.97
-2.31
0.87
-0.42
3.27

> <PUBCHEM_SHAPE_SELFOVERLAP>
1359.413

> <PUBCHEM_SHAPE_VOLUME>
353.2

> <PUBCHEM_COORDINATE_TYPE>
2
5
10

$$$$
