6009928
  -OEChem-01171811483D

 37 38  0     0  0  0  0  0  0999 V2000
    0.6551   -1.1730    0.5491 O   0  0  0  0  0  0  0  0  0  0  0  0
   -6.5474   -0.9938   -0.4765 O   0  0  0  0  0  0  0  0  0  0  0  0
   -3.8991   -1.3284   -0.8275 O   0  0  0  0  0  0  0  0  0  0  0  0
    2.2242    0.5155   -0.0577 N   0  0  0  0  0  0  0  0  0  0  0  0
    2.1825    1.8749   -0.3614 N   0  0  0  0  0  0  0  0  0  0  0  0
   -2.0414    0.0806    0.6400 N   0  0  0  0  0  0  0  0  0  0  0  0
   -3.3924    0.2359    0.8144 N   0  0  0  0  0  0  0  0  0  0  0  0
    0.0715    1.1286    0.1058 C   0  0  0  0  0  0  0  0  0  0  0  0
    0.9357    2.2471   -0.2697 C   0  0  0  0  0  0  0  0  0  0  0  0
    0.9669   -0.0378    0.2455 C   0  0  0  0  0  0  0  0  0  0  0  0
    3.3968   -0.2235   -0.0547 C   0  0  0  0  0  0  0  0  0  0  0  0
   -1.2464    1.1263    0.2908 C   0  0  0  0  0  0  0  0  0  0  0  0
    0.4501    3.6340   -0.5174 C   0  0  0  0  0  0  0  0  0  0  0  0
    3.3729   -1.5876   -0.3659 C   0  0  0  0  0  0  0  0  0  0  0  0
    4.6162    0.3871    0.2601 C   0  0  0  0  0  0  0  0  0  0  0  0
    4.5529   -2.3315   -0.3625 C   0  0  0  0  0  0  0  0  0  0  0  0
    5.7961   -0.3567    0.2631 C   0  0  0  0  0  0  0  0  0  0  0  0
    5.7645   -1.7161   -0.0482 C   0  0  0  0  0  0  0  0  0  0  0  0
   -4.2431   -0.5175    0.0286 C   0  0  0  0  0  0  0  0  0  0  0  0
   -5.6940   -0.2254    0.3445 C   0  0  0  0  0  0  0  0  0  0  0  0
   -7.9217   -0.7387   -0.2005 C   0  0  0  0  0  0  0  0  0  0  0  0
   -1.8068    2.0475    0.1580 H   0  0  0  0  0  0  0  0  0  0  0  0
   -0.2636    3.6331   -1.3456 H   0  0  0  0  0  0  0  0  0  0  0  0
    1.2898    4.2856   -0.7746 H   0  0  0  0  0  0  0  0  0  0  0  0
   -0.0359    4.0219    0.3818 H   0  0  0  0  0  0  0  0  0  0  0  0
    2.4627   -2.1006   -0.6598 H   0  0  0  0  0  0  0  0  0  0  0  0
    4.6657    1.4435    0.5126 H   0  0  0  0  0  0  0  0  0  0  0  0
   -1.6419   -0.8338    0.8136 H   0  0  0  0  0  0  0  0  0  0  0  0
    4.5304   -3.3877   -0.6147 H   0  0  0  0  0  0  0  0  0  0  0  0
    6.7396    0.1220    0.5090 H   0  0  0  0  0  0  0  0  0  0  0  0
    6.6836   -2.2948   -0.0478 H   0  0  0  0  0  0  0  0  0  0  0  0
   -3.6861    0.8886    1.5332 H   0  0  0  0  0  0  0  0  0  0  0  0
   -5.8775    0.8425    0.1777 H   0  0  0  0  0  0  0  0  0  0  0  0
   -5.8744   -0.4656    1.3989 H   0  0  0  0  0  0  0  0  0  0  0  0
   -8.1578   -0.9996    0.8357 H   0  0  0  0  0  0  0  0  0  0  0  0
   -8.5266   -1.3609   -0.8653 H   0  0  0  0  0  0  0  0  0  0  0  0
   -8.1605    0.3123   -0.3898 H   0  0  0  0  0  0  0  0  0  0  0  0
  1 10  2  0  0  0  0
  2 20  1  0  0  0  0
  2 21  1  0  0  0  0
  3 19  2  0  0  0  0
  4  5  1  0  0  0  0
  4 10  1  0  0  0  0
  4 11  1  0  0  0  0
  5  9  2  0  0  0  0
  6  7  1  0  0  0  0
  6 12  1  0  0  0  0
  6 28  1  0  0  0  0
  7 19  1  0  0  0  0
  7 32  1  0  0  0  0
  8  9  1  0  0  0  0
  8 10  1  0  0  0  0
  8 12  2  0  0  0  0
  9 13  1  0  0  0  0
 11 14  2  0  0  0  0
 11 15  1  0  0  0  0
 12 22  1  0  0  0  0
 13 23  1  0  0  0  0
 13 24  1  0  0  0  0
 13 25  1  0  0  0  0
 14 16  1  0  0  0  0
 14 26  1  0  0  0  0
 15 17  2  0  0  0  0
 15 27  1  0  0  0  0
 16 18  2  0  0  0  0
 16 29  1  0  0  0  0
 17 18  1  0  0  0  0
 17 30  1  0  0  0  0
 18 31  1  0  0  0  0
 19 20  1  0  0  0  0
 20 33  1  0  0  0  0
 20 34  1  0  0  0  0
 21 35  1  0  0  0  0
 21 36  1  0  0  0  0
 21 37  1  0  0  0  0
M  END
> <PUBCHEM_COMPOUND_CID>
6009928

> <PUBCHEM_CONFORMER_RMSD>
0.8

> <PUBCHEM_CONFORMER_DIVERSEORDER>
1
27
37
45
32
12
23
21
15
40
46
8
28
44
17
25
22
29
14
16
33
5
42
20
39
9
36
19
18
10
7
24
41
6
38
4
26
11
30
43
3
13
35
2
31
34

> <PUBCHEM_MMFF94_PARTIAL_CHARGES>
29
1 -0.57
10 0.62
11 0.12
12 -0.05
13 0.06
14 -0.15
15 -0.15
16 -0.15
17 -0.15
18 -0.15
19 0.57
2 -0.56
20 0.34
21 0.28
22 0.15
26 0.15
27 0.15
28 0.4
29 0.15
3 -0.57
30 0.15
31 0.15
32 0.37
4 -0.11
5 -0.51
6 -0.52
7 -0.41
8 0.03
9 0.37

> <PUBCHEM_EFFECTIVE_ROTOR_COUNT>
6.2

> <PUBCHEM_PHARMACOPHORE_FEATURES>
8
1 1 acceptor
1 2 acceptor
1 3 acceptor
1 5 acceptor
1 6 donor
1 7 donor
5 4 5 8 9 10 rings
6 11 14 15 16 17 18 rings

> <PUBCHEM_HEAVY_ATOM_COUNT>
21

> <PUBCHEM_ATOM_DEF_STEREO_COUNT>
0

> <PUBCHEM_ATOM_UDEF_STEREO_COUNT>
0

> <PUBCHEM_BOND_DEF_STEREO_COUNT>
1

> <PUBCHEM_BOND_UDEF_STEREO_COUNT>
0

> <PUBCHEM_ISOTOPIC_ATOM_COUNT>
0

> <PUBCHEM_COMPONENT_COUNT>
1

> <PUBCHEM_CACTVS_TAUTO_COUNT>
8

> <PUBCHEM_CONFORMER_ID>
005BB44800000001

> <PUBCHEM_MMFF94_ENERGY>
66.2742

> <PUBCHEM_FEATURE_SELFOVERLAP>
42.153

> <PUBCHEM_SHAPE_FINGERPRINT>
10 15 12463562984949080127
10411042 1 18337391539891214604
106641 1 17561357397032592282
10670039 82 15719379613246119511
10753850 27 18335698321342173339
12166972 35 18272932743664078697
12236239 1 18131072632361227569
12516196 113 18410854356332233280
12623949 98 17631463267542077198
13533116 47 18201438116184311185
13583140 156 15481535379233270570
13685833 64 18409731764072532443
13862211 1 18335421232001955426
14170010 4 18410854399461364873
14251764 18 17917713509251300819
15183329 4 18040710334658730801
1768 124 17775284958753616527
1813 80 18341626883944738468
18222031 100 18408603656299233904
19784866 240 18413112758090816657
20028762 73 18202565068327103551
20612939 158 18260553367847927389
20645477 70 18261111910742637009
21267235 1 18411706469280263699
21478907 32 18264488386624345264
221357 26 18187359931206672197
221490 88 18117850012467473555
22224240 67 11455886958356261277
23402539 116 18339641148838717896
23559900 14 18336542845721171961
283562 15 18189619341639193528
28498 318 18411134719977940263
2871803 45 18114464470627228058
29717793 49 18409169913556781989
3004659 81 18187082862259531171
3009799 131 17967249806242920648
3014063 24 18201718440326129175
351380 3 18413106147730375427
4325135 7 18410295822375228390
4340502 62 14692573208503997900
46194498 28 17603866745027947389
465052 167 18343025496899861359
5104073 3 18054501419122751642
559249 180 18343584006827334395
5718773 13 18192148205799467290
59755656 215 17821443543730357451
77188 2 18410576180265939748
9971528 1 18410289250337319721

> <PUBCHEM_SHAPE_MULTIPOLES>
394.64
16.71
2.6
0.73
25.94
2.19
0
-12.29
0.9
-2.07
0.64
0.18
-0.01
-0.2

> <PUBCHEM_SHAPE_SELFOVERLAP>
827.439

> <PUBCHEM_SHAPE_VOLUME>
222.4

> <PUBCHEM_COORDINATE_TYPE>
2
5
10

$$$$
