16189703
  -OEChem-01171811483D

 43 46  0     0  0  0  0  0  0999 V2000
   -1.1900   -1.9556    1.4963 O   0  0  0  0  0  0  0  0  0  0  0  0
    2.8839   -2.2805   -2.5001 O   0  0  0  0  0  0  0  0  0  0  0  0
    5.2434   -2.8357   -1.1016 O   0  0  0  0  0  0  0  0  0  0  0  0
   -2.1973   -0.1715    0.2962 N   0  0  0  0  0  0  0  0  0  0  0  0
   -1.6812    1.0297   -0.1207 N   0  0  0  0  0  0  0  0  0  0  0  0
   -0.3840    1.1498    0.3125 C   0  0  0  0  0  0  0  0  0  0  0  0
    0.0209    0.0471    0.9666 C   0  0  0  0  0  0  0  0  0  0  0  0
   -1.1851   -0.8515    0.9760 C   0  0  0  0  0  0  0  0  0  0  0  0
    0.3630    2.3838    0.0519 C   0  0  0  0  0  0  0  0  0  0  0  0
   -3.5192   -0.5594   -0.0135 C   0  0  0  0  0  0  0  0  0  0  0  0
    1.2729   -0.2964    1.5584 C   0  0  0  0  0  0  0  0  0  0  0  0
    2.2564   -0.9272    0.8958 C   0  0  0  0  0  0  0  0  0  0  0  0
    0.8436    3.1461    1.1168 C   0  0  0  0  0  0  0  0  0  0  0  0
    0.5935    2.7958   -1.2606 C   0  0  0  0  0  0  0  0  0  0  0  0
   -3.9891   -1.8120    0.3814 C   0  0  0  0  0  0  0  0  0  0  0  0
   -4.3555    0.3101   -0.7138 C   0  0  0  0  0  0  0  0  0  0  0  0
    2.0787   -1.2979   -0.4996 C   0  0  0  0  0  0  0  0  0  0  0  0
    3.5058   -1.2436    1.5685 C   0  0  0  0  0  0  0  0  0  0  0  0
    1.5543    4.3204    0.8690 C   0  0  0  0  0  0  0  0  0  0  0  0
    1.3042    3.9702   -1.5083 C   0  0  0  0  0  0  0  0  0  0  0  0
   -5.2950   -2.1953    0.0759 C   0  0  0  0  0  0  0  0  0  0  0  0
   -5.6615   -0.0731   -1.0193 C   0  0  0  0  0  0  0  0  0  0  0  0
    1.7846    4.7325   -0.4433 C   0  0  0  0  0  0  0  0  0  0  0  0
   -6.1311   -1.3259   -0.6244 C   0  0  0  0  0  0  0  0  0  0  0  0
    3.0484   -1.9274   -1.1784 C   0  0  0  0  0  0  0  0  0  0  0  0
    4.4966   -1.8715    0.9228 C   0  0  0  0  0  0  0  0  0  0  0  0
    4.3389   -2.2609   -0.5046 C   0  0  0  0  0  0  0  0  0  0  0  0
   -2.2574    1.8562   -0.2125 H   0  0  0  0  0  0  0  0  0  0  0  0
    1.3825   -0.0401    2.6095 H   0  0  0  0  0  0  0  0  0  0  0  0
    0.6695    2.8443    2.1468 H   0  0  0  0  0  0  0  0  0  0  0  0
    0.2292    2.2121   -2.1026 H   0  0  0  0  0  0  0  0  0  0  0  0
   -3.3790   -2.5227    0.9260 H   0  0  0  0  0  0  0  0  0  0  0  0
   -4.0346    1.2915   -1.0481 H   0  0  0  0  0  0  0  0  0  0  0  0
    1.1543   -1.0742   -1.0219 H   0  0  0  0  0  0  0  0  0  0  0  0
    3.6336   -0.9644    2.6099 H   0  0  0  0  0  0  0  0  0  0  0  0
    1.9273    4.9147    1.6981 H   0  0  0  0  0  0  0  0  0  0  0  0
    1.4845    4.2908   -2.5302 H   0  0  0  0  0  0  0  0  0  0  0  0
   -5.6614   -3.1706    0.3827 H   0  0  0  0  0  0  0  0  0  0  0  0
   -6.3128    0.6027   -1.5659 H   0  0  0  0  0  0  0  0  0  0  0  0
    2.3379    5.6468   -0.6362 H   0  0  0  0  0  0  0  0  0  0  0  0
   -7.1479   -1.6244   -0.8626 H   0  0  0  0  0  0  0  0  0  0  0  0
    5.4316   -2.1114    1.4156 H   0  0  0  0  0  0  0  0  0  0  0  0
    3.7028   -2.7205   -2.7870 H   0  0  0  0  0  0  0  0  0  0  0  0
  1  8  2  0  0  0  0
  2 25  1  0  0  0  0
  2 43  1  0  0  0  0
  3 27  2  0  0  0  0
  4  5  1  0  0  0  0
  4  8  1  0  0  0  0
  4 10  1  0  0  0  0
  5  6  1  0  0  0  0
  5 28  1  0  0  0  0
  6  7  2  0  0  0  0
  6  9  1  0  0  0  0
  7  8  1  0  0  0  0
  7 11  1  0  0  0  0
  9 13  2  0  0  0  0
  9 14  1  0  0  0  0
 10 15  2  0  0  0  0
 10 16  1  0  0  0  0
 11 12  2  0  0  0  0
 11 29  1  0  0  0  0
 12 17  1  0  0  0  0
 12 18  1  0  0  0  0
 13 19  1  0  0  0  0
 13 30  1  0  0  0  0
 14 20  2  0  0  0  0
 14 31  1  0  0  0  0
 15 21  1  0  0  0  0
 15 32  1  0  0  0  0
 16 22  2  0  0  0  0
 16 33  1  0  0  0  0
 17 25  2  0  0  0  0
 17 34  1  0  0  0  0
 18 26  2  0  0  0  0
 18 35  1  0  0  0  0
 19 23  2  0  0  0  0
 19 36  1  0  0  0  0
 20 23  1  0  0  0  0
 20 37  1  0  0  0  0
 21 24  2  0  0  0  0
 21 38  1  0  0  0  0
 22 24  1  0  0  0  0
 22 39  1  0  0  0  0
 23 40  1  0  0  0  0
 24 41  1  0  0  0  0
 25 27  1  0  0  0  0
 26 27  1  0  0  0  0
 26 42  1  0  0  0  0
M  END
> <PUBCHEM_COMPOUND_CID>
16189703

> <PUBCHEM_CONFORMER_RMSD>
0.6

> <PUBCHEM_CONFORMER_DIVERSEORDER>
1
11
5
14
4
8
3
20
15
6
19
16
2
7
9
10
13
17
18
12

> <PUBCHEM_MMFF94_PARTIAL_CHARGES>
42
1 -0.57
10 0.12
11 -0.15
13 -0.15
14 -0.15
15 -0.15
16 -0.15
17 -0.15
18 -0.15
19 -0.15
2 -0.53
20 -0.15
21 -0.15
22 -0.15
23 -0.15
24 -0.15
25 0.09
26 -0.14
27 0.54
28 0.4
29 0.15
3 -0.57
30 0.15
31 0.15
32 0.15
33 0.15
34 0.15
35 0.15
36 0.15
37 0.15
38 0.15
39 0.15
4 -0.16
40 0.15
41 0.15
42 0.15
43 0.45
5 -0.52
6 0.07
7 0.01
8 0.62
9 0.03

> <PUBCHEM_EFFECTIVE_ROTOR_COUNT>
3

> <PUBCHEM_PHARMACOPHORE_FEATURES>
8
1 1 acceptor
1 2 donor
1 3 acceptor
1 5 donor
5 4 5 6 7 8 rings
6 10 15 16 21 22 24 rings
6 12 17 18 25 26 27 rings
6 9 13 14 19 20 23 rings

> <PUBCHEM_HEAVY_ATOM_COUNT>
27

> <PUBCHEM_ATOM_DEF_STEREO_COUNT>
0

> <PUBCHEM_ATOM_UDEF_STEREO_COUNT>
0

> <PUBCHEM_BOND_DEF_STEREO_COUNT>
1

> <PUBCHEM_BOND_UDEF_STEREO_COUNT>
0

> <PUBCHEM_ISOTOPIC_ATOM_COUNT>
0

> <PUBCHEM_COMPONENT_COUNT>
1

> <PUBCHEM_CACTVS_TAUTO_COUNT>
9

> <PUBCHEM_CONFORMER_ID>
00F7090700000001

> <PUBCHEM_MMFF94_ENERGY>
98.2111

> <PUBCHEM_FEATURE_SELFOVERLAP>
40.598

> <PUBCHEM_SHAPE_FINGERPRINT>
10369192 42 17465380120442462005
10721379 63 18267317588761542317
11045515 52 18262523576377861108
11488393 25 18120671376489484434
11513181 2 18192421086456019533
12160290 23 17613171667200053928
12342043 65 17558828395830257214
12617007 42 18410851070829873595
12788726 201 17899416385481232650
13009979 54 18202291281953230545
13149001 5 18114187474879544107
133893 2 18192172561841123657
13540713 4 17823700970299301907
13590594 115 18263366902355996129
13681431 1 18410583906826949328
13757389 114 17766017011723280044
13782708 43 17701824280947828878
14347332 77 17975691697882255234
14508225 48 18338520733678932852
14739800 52 11386351665457193807
15439362 3 18118396474052462457
15475509 8 18196937678301508793
15664445 248 18410293588433519746
15775530 1 17607263231135959507
1813 80 18341613689757562947
1979834 28 18129365159407003576
20028762 73 16895970630871319347
20771845 65 18131351908040584385
20775438 99 17977089482019648255
21049683 118 11026377124489184548
21133665 82 17830458642090235100
212916 134 9222933864476218022
21304303 282 17036094058993215420
21344244 246 18266750262821645500
23557571 272 18197211443537467024
23559900 14 18338223956113528987
24893989 43 16825511365820761661
255183 313 17550124570746204353
3298306 158 17976265956209870332
340366 18 18342449383425910175
376196 1 17612017583802419073
38695281 34 17982167030836903520
4017518 198 17909555296673376476
4280585 95 18336259063856626954
44802255 64 16962408582346357340
46194498 28 18336540642450558215
5081480 168 18187910803590621565
5385378 56 18122069959965743169
59755656 215 18117272768931949925
60123966 16 18190999357871118141
6442390 28 17045711443999011296
6669772 16 17910121540291408684
7399639 24 18058148550494711130
81228 2 18121511154539315200
9841814 1 18187916309432603377

> <PUBCHEM_SHAPE_MULTIPOLES>
528.08
10.71
5.34
1.59
14.72
7.58
0.36
-11.24
2.91
-7.23
1.18
-1.42
-0.38
1.05

> <PUBCHEM_SHAPE_SELFOVERLAP>
1172.623

> <PUBCHEM_SHAPE_VOLUME>
280.5

> <PUBCHEM_COORDINATE_TYPE>
2
5
10

$$$$
