7196680
  -OEChem-01171811453D

 29 30  0     0  0  0  0  0  0999 V2000
   -0.3640    0.2942   -1.0082 S   0  0  0  0  0  0  0  0  0  0  0  0
    4.3650    1.4919    0.2545 O   0  0  0  0  0  0  0  0  0  0  0  0
    2.1730    0.9348   -0.3317 N   0  0  0  0  0  0  0  0  0  0  0  0
    1.5553   -1.3432   -0.3122 N   0  0  0  0  0  0  0  0  0  0  0  0
    2.8447   -1.6910    0.0895 N   0  0  0  0  0  0  0  0  0  0  0  0
    1.7648    2.2462   -0.5634 N   0  0  0  0  0  0  0  0  0  0  0  0
   -1.2569   -0.3823    0.4048 C   0  0  0  0  0  0  0  0  0  0  0  0
   -2.7442   -0.2020    0.2753 C   0  0  0  0  0  0  0  0  0  0  0  0
    1.2732   -0.0959   -0.5018 C   0  0  0  0  0  0  0  0  0  0  0  0
    3.4646    0.6893    0.0624 C   0  0  0  0  0  0  0  0  0  0  0  0
   -3.5022   -1.1865   -0.3451 C   0  0  0  0  0  0  0  0  0  0  0  0
   -3.3416    0.9465    0.7783 C   0  0  0  0  0  0  0  0  0  0  0  0
    3.7375   -0.7721    0.2675 C   0  0  0  0  0  0  0  0  0  0  0  0
   -4.8818   -1.0195   -0.4651 C   0  0  0  0  0  0  0  0  0  0  0  0
   -4.7213    1.1133    0.6584 C   0  0  0  0  0  0  0  0  0  0  0  0
   -5.4913    0.1303    0.0368 C   0  0  0  0  0  0  0  0  0  0  0  0
    5.1252   -1.1540    0.7000 C   0  0  0  0  0  0  0  0  0  0  0  0
   -0.9022    0.1016    1.3228 H   0  0  0  0  0  0  0  0  0  0  0  0
   -1.0298   -1.4495    0.5132 H   0  0  0  0  0  0  0  0  0  0  0  0
   -3.0380   -2.0858   -0.7405 H   0  0  0  0  0  0  0  0  0  0  0  0
   -2.7515    1.7190    1.2635 H   0  0  0  0  0  0  0  0  0  0  0  0
   -5.4815   -1.7847   -0.9494 H   0  0  0  0  0  0  0  0  0  0  0  0
   -5.1961    2.0087    1.0488 H   0  0  0  0  0  0  0  0  0  0  0  0
    5.8473   -0.8260   -0.0528 H   0  0  0  0  0  0  0  0  0  0  0  0
    5.2046   -2.2385    0.8165 H   0  0  0  0  0  0  0  0  0  0  0  0
    5.3549   -0.6783    1.6573 H   0  0  0  0  0  0  0  0  0  0  0  0
   -6.5655    0.2604   -0.0566 H   0  0  0  0  0  0  0  0  0  0  0  0
    1.9259    2.7691    0.2966 H   0  0  0  0  0  0  0  0  0  0  0  0
    2.3939    2.6400   -1.2622 H   0  0  0  0  0  0  0  0  0  0  0  0
  1  7  1  0  0  0  0
  1  9  1  0  0  0  0
  2 10  2  0  0  0  0
  3  6  1  0  0  0  0
  3  9  1  0  0  0  0
  3 10  1  0  0  0  0
  4  5  1  0  0  0  0
  4  9  2  0  0  0  0
  5 13  2  0  0  0  0
  6 28  1  0  0  0  0
  6 29  1  0  0  0  0
  7  8  1  0  0  0  0
  7 18  1  0  0  0  0
  7 19  1  0  0  0  0
  8 11  2  0  0  0  0
  8 12  1  0  0  0  0
 10 13  1  0  0  0  0
 11 14  1  0  0  0  0
 11 20  1  0  0  0  0
 12 15  2  0  0  0  0
 12 21  1  0  0  0  0
 13 17  1  0  0  0  0
 14 16  2  0  0  0  0
 14 22  1  0  0  0  0
 15 16  1  0  0  0  0
 15 23  1  0  0  0  0
 16 27  1  0  0  0  0
 17 24  1  0  0  0  0
 17 25  1  0  0  0  0
 17 26  1  0  0  0  0
M  END
> <PUBCHEM_COMPOUND_CID>
7196680

> <PUBCHEM_CONFORMER_RMSD>
0.6

> <PUBCHEM_CONFORMER_DIVERSEORDER>
1
11
15
14
4
12
3
6
9
10
8
5
13
2
7

> <PUBCHEM_MMFF94_PARTIAL_CHARGES>
24
1 -0.37
10 0.63
11 -0.15
12 -0.15
13 0.39
14 -0.15
15 -0.15
16 -0.15
17 0.06
2 -0.57
20 0.15
21 0.15
22 0.15
23 0.15
27 0.15
28 0.36
29 0.36
3 -0.11
4 -0.45
5 -0.45
6 -0.73
7 0.37
8 -0.14
9 0.65

> <PUBCHEM_EFFECTIVE_ROTOR_COUNT>
3

> <PUBCHEM_PHARMACOPHORE_FEATURES>
5
1 2 acceptor
1 5 acceptor
1 6 donor
6 3 4 5 9 10 13 rings
6 8 11 12 14 15 16 rings

> <PUBCHEM_HEAVY_ATOM_COUNT>
17

> <PUBCHEM_ATOM_DEF_STEREO_COUNT>
0

> <PUBCHEM_ATOM_UDEF_STEREO_COUNT>
0

> <PUBCHEM_BOND_DEF_STEREO_COUNT>
0

> <PUBCHEM_BOND_UDEF_STEREO_COUNT>
0

> <PUBCHEM_ISOTOPIC_ATOM_COUNT>
0

> <PUBCHEM_COMPONENT_COUNT>
1

> <PUBCHEM_CACTVS_TAUTO_COUNT>
1

> <PUBCHEM_CONFORMER_ID>
006DD00800000001

> <PUBCHEM_MMFF94_ENERGY>
49.2861

> <PUBCHEM_FEATURE_SELFOVERLAP>
25.371

> <PUBCHEM_SHAPE_FINGERPRINT>
10912923 1 18344149206700092707
10937287 8 17105391255975649508
12107183 9 17693663610681635715
12236239 1 18131068242419536102
12251169 10 18411700980385906167
12670546 56 18412822482462515345
128620 24 14405187253092841409
13167823 11 18413669123675127207
13675066 3 17822017501747897781
13911852 28 17973716983541322394
14341114 176 18411143545233653369
14386348 63 16588025705947455715
15196674 1 18411982468268487609
15527383 91 18408602539903083780
15788980 27 17632859715627486231
17834072 33 18342455958619374079
18186145 218 17312821597982243579
19050596 39 18343304768985304883
19489759 90 17775282742818873339
200 152 18343016718619392519
20279233 1 16805604785060930323
20645477 70 18408323263517501774
21065198 48 18342459240100852313
22646028 1 18342174475274190439
23175994 123 16153430554310096501
23402539 116 18272927216183203413
23557571 272 16629979749780502657
23559900 14 18412261757017232459
26918003 58 18334858316255148715
300161 21 18413665816644877989
314173 85 16805321093480298613
345986 75 18043512937778543568
34797466 226 16988570155441821501
351380 180 18408322198708198345
3545911 37 18342181072396659133
42 15 18334577927815343559
4214541 1 18411982443015641969
474 4 18261113036055749489
5104073 3 18411984680282225379
542803 24 17847064380686121617
573450 72 18272367564590656963
67856867 119 18341609386311452985
7495541 125 17631730590659159939
77779 3 18342178860456996083
9709674 26 18341342145115084103
9971528 1 18114181943104020044
9981440 41 17399235742867449489

> <PUBCHEM_SHAPE_MULTIPOLES>
327.91
12.5
1.66
0.85
3.25
0.33
0.03
-0.94
-2.21
-1.03
0.06
0.15
0.06
-0.92

> <PUBCHEM_SHAPE_SELFOVERLAP>
677.691

> <PUBCHEM_SHAPE_VOLUME>
188.7

> <PUBCHEM_COORDINATE_TYPE>
2
5
10

$$$$
