20935802
  -OEChem-01171812063D

 52 54  0     0  0  0  0  0  0999 V2000
   -0.5633    1.6506   -1.6436 S   0  0  0  0  0  0  0  0  0  0  0  0
    6.4361   -1.2106    0.8057 O   0  0  0  0  0  0  0  0  0  0  0  0
   -0.6866    0.5604   -2.6009 O   0  0  0  0  0  0  0  0  0  0  0  0
   -0.5507    3.0255   -2.1216 O   0  0  0  0  0  0  0  0  0  0  0  0
   -5.7105   -0.8093    1.1585 O   0  0  0  0  0  0  0  0  0  0  0  0
    0.8298    1.3890   -0.6902 N   0  0  0  0  0  0  0  0  0  0  0  0
   -6.5366   -1.8996    0.9139 N   0  0  0  0  0  0  0  0  0  0  0  0
   -1.8520    1.5104   -0.4679 C   0  0  0  0  0  0  0  0  0  0  0  0
   -1.9789    2.4264    0.5764 C   0  0  0  0  0  0  0  0  0  0  0  0
    0.9956    0.1205    0.0337 C   0  0  0  0  0  0  0  0  0  0  0  0
   -2.7610    0.4593   -0.5879 C   0  0  0  0  0  0  0  0  0  0  0  0
   -3.7973    0.3243    0.3360 C   0  0  0  0  0  0  0  0  0  0  0  0
    2.4419   -0.2333    0.2388 C   0  0  0  0  0  0  0  0  0  0  0  0
   -3.0151    2.2913    1.5004 C   0  0  0  0  0  0  0  0  0  0  0  0
   -3.9243    1.2404    1.3802 C   0  0  0  0  0  0  0  0  0  0  0  0
   -1.0233    3.5636    0.7339 C   0  0  0  0  0  0  0  0  0  0  0  0
   -4.7383   -0.7623    0.2123 C   0  0  0  0  0  0  0  0  0  0  0  0
    3.1154   -0.9963   -0.7152 C   0  0  0  0  0  0  0  0  0  0  0  0
    3.1107    0.2011    1.3833 C   0  0  0  0  0  0  0  0  0  0  0  0
    5.1264   -0.8904    0.6195 C   0  0  0  0  0  0  0  0  0  0  0  0
    7.3619   -0.7583   -0.1813 C   0  0  0  0  0  0  0  0  0  0  0  0
    4.4576   -1.3246   -0.5249 C   0  0  0  0  0  0  0  0  0  0  0  0
    4.4529   -0.1276    1.5737 C   0  0  0  0  0  0  0  0  0  0  0  0
   -4.8974   -1.8030   -0.6642 C   0  0  0  0  0  0  0  0  0  0  0  0
   -6.0311   -2.4776   -0.1795 C   0  0  0  0  0  0  0  0  0  0  0  0
    8.0341   -1.9608   -0.8259 C   0  0  0  0  0  0  0  0  0  0  0  0
    8.3719    0.1743    0.4698 C   0  0  0  0  0  0  0  0  0  0  0  0
   -6.6678   -3.6833   -0.7331 C   0  0  0  0  0  0  0  0  0  0  0  0
    0.4999    0.2049    1.0082 H   0  0  0  0  0  0  0  0  0  0  0  0
    0.4963   -0.6963   -0.5002 H   0  0  0  0  0  0  0  0  0  0  0  0
    1.3660    2.1947   -0.3470 H   0  0  0  0  0  0  0  0  0  0  0  0
   -2.6641   -0.2561   -1.3996 H   0  0  0  0  0  0  0  0  0  0  0  0
   -3.1297    2.9955    2.3204 H   0  0  0  0  0  0  0  0  0  0  0  0
   -4.7181    1.1682    2.1193 H   0  0  0  0  0  0  0  0  0  0  0  0
   -1.2824    4.1666    1.6133 H   0  0  0  0  0  0  0  0  0  0  0  0
   -1.0667    4.2517   -0.1135 H   0  0  0  0  0  0  0  0  0  0  0  0
   -0.0024    3.2215    0.9081 H   0  0  0  0  0  0  0  0  0  0  0  0
    2.6047   -1.3405   -1.6107 H   0  0  0  0  0  0  0  0  0  0  0  0
    2.5977    0.7979    2.1327 H   0  0  0  0  0  0  0  0  0  0  0  0
    6.8539   -0.1864   -0.9699 H   0  0  0  0  0  0  0  0  0  0  0  0
    4.9631   -1.9271   -1.2740 H   0  0  0  0  0  0  0  0  0  0  0  0
    4.9691    0.2143    2.4665 H   0  0  0  0  0  0  0  0  0  0  0  0
   -4.2919   -2.0460   -1.5252 H   0  0  0  0  0  0  0  0  0  0  0  0
    7.2942   -2.6174   -1.2948 H   0  0  0  0  0  0  0  0  0  0  0  0
    8.7559   -1.6517   -1.5882 H   0  0  0  0  0  0  0  0  0  0  0  0
    8.5560   -2.5640   -0.0748 H   0  0  0  0  0  0  0  0  0  0  0  0
    7.8636    1.0335    0.9206 H   0  0  0  0  0  0  0  0  0  0  0  0
    9.1019    0.5428   -0.2572 H   0  0  0  0  0  0  0  0  0  0  0  0
    8.9079   -0.3338    1.2790 H   0  0  0  0  0  0  0  0  0  0  0  0
   -6.6654   -4.4949    0.0020 H   0  0  0  0  0  0  0  0  0  0  0  0
   -7.7055   -3.4783   -1.0158 H   0  0  0  0  0  0  0  0  0  0  0  0
   -6.1415   -4.0381   -1.6253 H   0  0  0  0  0  0  0  0  0  0  0  0
  1  3  2  0  0  0  0
  1  4  2  0  0  0  0
  1  6  1  0  0  0  0
  1  8  1  0  0  0  0
  2 20  1  0  0  0  0
  2 21  1  0  0  0  0
  5  7  1  0  0  0  0
  5 17  1  0  0  0  0
  6 10  1  0  0  0  0
  6 31  1  0  0  0  0
  7 25  2  0  0  0  0
  8  9  2  0  0  0  0
  8 11  1  0  0  0  0
  9 14  1  0  0  0  0
  9 16  1  0  0  0  0
 10 13  1  0  0  0  0
 10 29  1  0  0  0  0
 10 30  1  0  0  0  0
 11 12  2  0  0  0  0
 11 32  1  0  0  0  0
 12 15  1  0  0  0  0
 12 17  1  0  0  0  0
 13 18  2  0  0  0  0
 13 19  1  0  0  0  0
 14 15  2  0  0  0  0
 14 33  1  0  0  0  0
 15 34  1  0  0  0  0
 16 35  1  0  0  0  0
 16 36  1  0  0  0  0
 16 37  1  0  0  0  0
 17 24  2  0  0  0  0
 18 22  1  0  0  0  0
 18 38  1  0  0  0  0
 19 23  2  0  0  0  0
 19 39  1  0  0  0  0
 20 22  2  0  0  0  0
 20 23  1  0  0  0  0
 21 26  1  0  0  0  0
 21 27  1  0  0  0  0
 21 40  1  0  0  0  0
 22 41  1  0  0  0  0
 23 42  1  0  0  0  0
 24 25  1  0  0  0  0
 24 43  1  0  0  0  0
 25 28  1  0  0  0  0
 26 44  1  0  0  0  0
 26 45  1  0  0  0  0
 26 46  1  0  0  0  0
 27 47  1  0  0  0  0
 27 48  1  0  0  0  0
 27 49  1  0  0  0  0
 28 50  1  0  0  0  0
 28 51  1  0  0  0  0
 28 52  1  0  0  0  0
M  END
> <PUBCHEM_COMPOUND_CID>
20935802

> <PUBCHEM_CONFORMER_RMSD>
0.8

> <PUBCHEM_CONFORMER_DIVERSEORDER>
2
107
193
197
86
183
192
158
144
186
122
121
163
189
45
128
109
104
47
147
59
161
27
136
172
73
191
167
11
42
194
145
99
168
82
61
190
173
176
108
202
110
25
49
53
101
157
69
210
103
180
9
71
35
129
126
207
40
174
120
79
141
179
138
203
102
94
97
78
66
178
36
92
159
96
3
196
51
164
115
154
84
105
130
149
133
37
41
113
10
75
114
175
112
124
18
90
93
143
21
64
29
20
76
50
200
184
195
204
16
88
188
135
119
63
206
187
77
134
62
165
68
98
155
1
148
142
13
26
111
137
52
30
125
56
91
74
39
58
32
127
4
28
6
15
19
48
139
106
181
44
67
38
87
169
116
43
151
199
34
46
85
201
57
160
131
23
80
8
171
14
185
89
17
12
22
132
7
166
81
117
5
177
153
150
123
152
205
33
182
31
209
162
60
208
118
146
70
65
140
24
198
55
83
170
72
156
100
95
54

> <PUBCHEM_MMFF94_PARTIAL_CHARGES>
35
1 1.45
10 0.5
11 -0.15
12 0.05
13 -0.14
14 -0.15
15 -0.15
16 0.14
17 0.09
18 -0.15
19 -0.15
2 -0.36
20 0.08
21 0.28
22 -0.15
23 -0.15
24 -0.15
25 0.11
28 0.18
3 -0.65
31 0.42
32 0.15
33 0.15
34 0.15
38 0.15
39 0.15
4 -0.65
41 0.15
42 0.15
43 0.15
5 -0.02
6 -0.91
7 -0.41
8 -0.01
9 -0.14

> <PUBCHEM_EFFECTIVE_ROTOR_COUNT>
7

> <PUBCHEM_PHARMACOPHORE_FEATURES>
9
1 2 acceptor
1 3 acceptor
1 4 acceptor
1 6 donor
1 7 acceptor
3 21 26 27 hydrophobe
5 5 7 17 24 25 rings
6 13 18 19 20 22 23 rings
6 8 9 11 12 14 15 rings

> <PUBCHEM_HEAVY_ATOM_COUNT>
28

> <PUBCHEM_ATOM_DEF_STEREO_COUNT>
0

> <PUBCHEM_ATOM_UDEF_STEREO_COUNT>
0

> <PUBCHEM_BOND_DEF_STEREO_COUNT>
0

> <PUBCHEM_BOND_UDEF_STEREO_COUNT>
0

> <PUBCHEM_ISOTOPIC_ATOM_COUNT>
0

> <PUBCHEM_COMPONENT_COUNT>
1

> <PUBCHEM_CACTVS_TAUTO_COUNT>
1

> <PUBCHEM_CONFORMER_ID>
013F747A00000002

> <PUBCHEM_MMFF94_ENERGY>
58.2076

> <PUBCHEM_FEATURE_SELFOVERLAP>
45.69

> <PUBCHEM_SHAPE_FINGERPRINT>
10577160 103 15140967296301389582
10674148 151 16153419542225011285
11135926 11 14779547838146772400
11200772 48 8430310251459662932
11475781 23 10953737781943146586
11497681 19 18409448128769411604
11823591 26 11312063132255948713
1200032 147 8646229072790276599
12166972 35 17968095378129748407
12895836 83 7997976769507712459
13631057 29 18334290951064700210
13782708 43 18339358549166638546
13914758 101 8358257038910888588
14068700 675 18410295843612889137
14257110 125 9799694796845094659
14556957 393 16298678183032459582
14705955 166 16988296287379661779
15183329 4 11891327660241860839
15350500 55 13038644916287721483
16992779 147 16342278380829758456
17686467 74 18260830449331498936
17780758 139 18272089371016452785
17980427 26 16541859098621418661
18608769 82 18202001032363835574
20028762 73 18411418440205337895
20105231 36 16630532834858456438
21095123 145 18409449173169254754
21223535 225 7997973448791890995
21298829 104 9583524209369856784
21315759 148 17917435264095271830
21424621 283 9799695900045145447
21756936 100 11167935866679491181
21774942 28 10953723500918768366
23389318 12 17821732771507977494
2838139 119 8718819886284863851
3633792 109 11819538317567572904
38570 142 10447661218176872157
4015057 19 15357993264588277245
444735 79 17988926690801400895
445580 204 9295293837091567431
474113 269 18058436755938603471
4760202 70 18263086685851448668
4938544 92 18268711610776707113
57527295 17 15936673910152978977
5969126 39 17312818256049587428
6691757 9 18200600177789374833
7288768 16 12607407710982552949
9896288 288 17988368053300404505
9953998 17 18060143107193934313
999808 66 17847059965544319214

> <PUBCHEM_SHAPE_MULTIPOLES>
546.64
21.31
3.44
1.61
27.85
0.37
-0.61
-21.4
3.89
-6.59
-0.44
-0.28
0.82
-0.21

> <PUBCHEM_SHAPE_SELFOVERLAP>
1151.792

> <PUBCHEM_SHAPE_VOLUME>
310.1

> <PUBCHEM_COORDINATE_TYPE>
2
5
10

$$$$
