691373
  -OEChem-01171811513D

 35 37  0     0  0  0  0  0  0999 V2000
    0.1912   -2.9242    0.2934 Cl  0  0  0  0  0  0  0  0  0  0  0  0
    5.2371   -0.7873   -0.4168 S   0  0  0  0  0  0  0  0  0  0  0  0
   -0.4389   -0.0487    0.8872 O   0  0  0  0  0  0  0  0  0  0  0  0
   -0.8279    0.3012   -1.3792 O   0  0  0  0  0  0  0  0  0  0  0  0
    4.0355    1.5303    0.2090 O   0  0  0  0  0  0  0  0  0  0  0  0
    6.2874    1.6182   -0.2452 O   0  0  0  0  0  0  0  0  0  0  0  0
   -2.5234    0.4906    0.1929 N   0  0  0  0  0  0  0  0  0  0  0  0
   -3.6003    0.8321   -0.7096 C   0  0  0  0  0  0  0  0  0  0  0  0
   -4.2812   -0.4273   -1.2559 C   0  0  0  0  0  0  0  0  0  0  0  0
   -4.6129    1.7618   -0.0326 C   0  0  0  0  0  0  0  0  0  0  0  0
   -5.1218   -1.1431   -0.1986 C   0  0  0  0  0  0  0  0  0  0  0  0
   -5.4528    1.0424    1.0229 C   0  0  0  0  0  0  0  0  0  0  0  0
   -6.1292   -0.2005    0.4528 C   0  0  0  0  0  0  0  0  0  0  0  0
   -1.2286    0.2532   -0.2200 C   0  0  0  0  0  0  0  0  0  0  0  0
    0.8976   -0.3060    0.5670 C   0  0  0  0  0  0  0  0  0  0  0  0
    1.7645    0.7673    0.5596 C   0  0  0  0  0  0  0  0  0  0  0  0
    3.0887    0.5065    0.2409 C   0  0  0  0  0  0  0  0  0  0  0  0
    1.2984   -1.5994    0.2741 C   0  0  0  0  0  0  0  0  0  0  0  0
    3.5209   -0.7812   -0.0578 C   0  0  0  0  0  0  0  0  0  0  0  0
    2.6358   -1.8469   -0.0454 C   0  0  0  0  0  0  0  0  0  0  0  0
    5.2598    0.9610   -0.1388 C   0  0  0  0  0  0  0  0  0  0  0  0
   -3.1538    1.3706   -1.5550 H   0  0  0  0  0  0  0  0  0  0  0  0
   -3.5363   -1.1239   -1.6590 H   0  0  0  0  0  0  0  0  0  0  0  0
   -4.9343   -0.1442   -2.0914 H   0  0  0  0  0  0  0  0  0  0  0  0
   -5.2846    2.1739   -0.7964 H   0  0  0  0  0  0  0  0  0  0  0  0
   -4.0985    2.6124    0.4306 H   0  0  0  0  0  0  0  0  0  0  0  0
   -4.4654   -1.5665    0.5714 H   0  0  0  0  0  0  0  0  0  0  0  0
   -5.6517   -1.9842   -0.6600 H   0  0  0  0  0  0  0  0  0  0  0  0
   -6.2157    1.7277    1.4098 H   0  0  0  0  0  0  0  0  0  0  0  0
   -4.8247    0.7600    1.8759 H   0  0  0  0  0  0  0  0  0  0  0  0
   -6.8782    0.1010   -0.2899 H   0  0  0  0  0  0  0  0  0  0  0  0
   -6.6655   -0.7274    1.2502 H   0  0  0  0  0  0  0  0  0  0  0  0
   -2.7290    0.3735    1.1804 H   0  0  0  0  0  0  0  0  0  0  0  0
    1.4312    1.7724    0.7927 H   0  0  0  0  0  0  0  0  0  0  0  0
    2.9784   -2.8509   -0.2791 H   0  0  0  0  0  0  0  0  0  0  0  0
  1 18  1  0  0  0  0
  2 19  1  0  0  0  0
  2 21  1  0  0  0  0
  3 14  1  0  0  0  0
  3 15  1  0  0  0  0
  4 14  2  0  0  0  0
  5 17  1  0  0  0  0
  5 21  1  0  0  0  0
  6 21  2  0  0  0  0
  7  8  1  0  0  0  0
  7 14  1  0  0  0  0
  7 33  1  0  0  0  0
  8  9  1  0  0  0  0
  8 10  1  0  0  0  0
  8 22  1  0  0  0  0
  9 11  1  0  0  0  0
  9 23  1  0  0  0  0
  9 24  1  0  0  0  0
 10 12  1  0  0  0  0
 10 25  1  0  0  0  0
 10 26  1  0  0  0  0
 11 13  1  0  0  0  0
 11 27  1  0  0  0  0
 11 28  1  0  0  0  0
 12 13  1  0  0  0  0
 12 29  1  0  0  0  0
 12 30  1  0  0  0  0
 13 31  1  0  0  0  0
 13 32  1  0  0  0  0
 15 16  1  0  0  0  0
 15 18  2  0  0  0  0
 16 17  2  0  0  0  0
 16 34  1  0  0  0  0
 17 19  1  0  0  0  0
 18 20  1  0  0  0  0
 19 20  2  0  0  0  0
 20 35  1  0  0  0  0
M  END
> <PUBCHEM_COMPOUND_CID>
691373

> <PUBCHEM_CONFORMER_RMSD>
0.8

> <PUBCHEM_CONFORMER_DIVERSEORDER>
2
40
41
28
23
17
21
61
50
11
46
35
42
62
8
7
33
25
22
13
57
48
53
19
58
9
43
52
14
55
10
18
49
60
16
34
1
59
51
56
45
12
15
29
54
6
26
44
37
4
39
24
20
30
36
5
47
31
38
27
3
32

> <PUBCHEM_MMFF94_PARTIAL_CHARGES>
19
1 -0.18
14 0.78
15 0.08
16 -0.15
17 0.08
18 0.18
19 0.1
2 -0.24
20 -0.15
21 0.86
3 -0.23
33 0.37
34 0.15
35 0.15
4 -0.57
5 -0.23
6 -0.57
7 -0.73
8 0.3

> <PUBCHEM_EFFECTIVE_ROTOR_COUNT>
5.2

> <PUBCHEM_PHARMACOPHORE_FEATURES>
5
1 4 acceptor
1 7 donor
5 2 5 17 19 21 rings
6 15 16 17 18 19 20 rings
6 8 9 10 11 12 13 rings

> <PUBCHEM_HEAVY_ATOM_COUNT>
21

> <PUBCHEM_ATOM_DEF_STEREO_COUNT>
0

> <PUBCHEM_ATOM_UDEF_STEREO_COUNT>
0

> <PUBCHEM_BOND_DEF_STEREO_COUNT>
0

> <PUBCHEM_BOND_UDEF_STEREO_COUNT>
0

> <PUBCHEM_ISOTOPIC_ATOM_COUNT>
0

> <PUBCHEM_COMPONENT_COUNT>
1

> <PUBCHEM_CACTVS_TAUTO_COUNT>
2

> <PUBCHEM_CONFORMER_ID>
000A8CAD00000002

> <PUBCHEM_MMFF94_ENERGY>
39.1522

> <PUBCHEM_FEATURE_SELFOVERLAP>
25.449

> <PUBCHEM_SHAPE_FINGERPRINT>
10595046 47 18413106147888208809
11089746 13 9151176441718610219
11287383 113 18408041809935986691
11315181 36 11674881091680864117
11545043 162 13686004441491353295
11578080 2 16628256974247991522
11796584 16 14189569741599675548
12107183 9 17478053757331065513
12236239 1 17918276432749129256
12730499 353 18335708221658729778
12760667 363 10879726368279402628
12788726 201 16988287465100013211
13167823 11 18343299232930917319
13631057 29 18270113656222836063
13760787 19 18059569170782812583
14251752 14 15051744057636630816
14251764 18 17703791423445170627
14341114 176 18412832361182747217
14341114 328 18272650121725052787
14528608 73 18411416215385002012
14933364 13 18341617005609731849
15183329 4 16343707620701126804
15788980 27 15195561304015837973
15885798 251 10303815388927629010
17349148 13 12540702479191930655
17834072 33 18343863307696115817
17834072 8 12391515278431938377
17844677 252 18411706448227790649
18006028 8 9871755689365034978
19489759 90 12251898196841659445
20645477 70 18341333288865898966
21521721 280 18411423937878625354
22224240 67 18114183051537761915
23402539 116 18343861112867769756
23402655 69 18272929427627240966
23536379 177 18131915944388615848
23557571 272 16733549299962792887
23559900 14 18337945801189099865
335352 9 18410015434516061830
3545911 37 18409450297205643488
4073 2 18260274061687315851
4325135 7 18335420188382593415
4340502 62 18410293610182519830
5104073 3 17969221140545039937
53794403 172 18117845627908017780
542803 24 17918273143157608249
59682541 35 17968664933853783985
59755656 520 18260824930013985438
6442390 28 18333732420364192074
77779 3 18340765949534515673
8272917 22 18199752448852608815

> <PUBCHEM_SHAPE_MULTIPOLES>
409.43
15.07
2.04
0.93
4.44
1.01
-0.12
-5.09
-0.49
-0.97
0.15
0.72
-0.03
-0.27

> <PUBCHEM_SHAPE_SELFOVERLAP>
854.229

> <PUBCHEM_SHAPE_VOLUME>
234.7

> <PUBCHEM_COORDINATE_TYPE>
2
5
10

$$$$
