705218
  -OEChem-01171812143D

 44 47  0     0  0  0  0  0  0999 V2000
    2.8872   -2.2787    0.4216 O   0  0  0  0  0  0  0  0  0  0  0  0
    1.3714   -3.9244   -0.1197 O   0  0  0  0  0  0  0  0  0  0  0  0
   -1.0214   -0.5041   -1.0321 N   0  0  0  0  0  0  0  0  0  0  0  0
   -0.2142    1.7615   -0.7574 N   0  0  0  0  0  0  0  0  0  0  0  0
    2.1520    0.4361    0.1272 N   0  0  0  0  0  0  0  0  0  0  0  0
   -1.2452   -2.8609   -1.0924 N   0  0  0  0  0  0  0  0  0  0  0  0
   -0.0807    0.4293   -0.6951 C   0  0  0  0  0  0  0  0  0  0  0  0
   -0.5039   -1.7604   -0.8300 C   0  0  0  0  0  0  0  0  0  0  0  0
    1.0517   -0.2400   -0.2717 C   0  0  0  0  0  0  0  0  0  0  0  0
   -2.3491   -0.2005   -1.5233 C   0  0  0  0  0  0  0  0  0  0  0  0
    0.7854   -1.6254   -0.3568 C   0  0  0  0  0  0  0  0  0  0  0  0
   -3.3363   -0.0727   -0.3948 C   0  0  0  0  0  0  0  0  0  0  0  0
    0.8789    2.4297   -0.3613 C   0  0  0  0  0  0  0  0  0  0  0  0
    2.0532    1.7725    0.0781 C   0  0  0  0  0  0  0  0  0  0  0  0
    1.6611   -2.7133   -0.0243 C   0  0  0  0  0  0  0  0  0  0  0  0
   -3.5437    1.1666    0.1956 C   0  0  0  0  0  0  0  0  0  0  0  0
   -4.0264   -1.1956    0.0411 C   0  0  0  0  0  0  0  0  0  0  0  0
    0.8559    3.8210   -0.3834 C   0  0  0  0  0  0  0  0  0  0  0  0
    3.1454    2.5390    0.4733 C   0  0  0  0  0  0  0  0  0  0  0  0
    1.9579    4.5755    0.0152 C   0  0  0  0  0  0  0  0  0  0  0  0
    3.1072    3.9318    0.4456 C   0  0  0  0  0  0  0  0  0  0  0  0
   -4.4587    1.2851    1.2417 C   0  0  0  0  0  0  0  0  0  0  0  0
   -4.9414   -1.0770    1.0872 C   0  0  0  0  0  0  0  0  0  0  0  0
   -5.1577    0.1634    1.6876 C   0  0  0  0  0  0  0  0  0  0  0  0
    3.8514   -3.2730    0.7844 C   0  0  0  0  0  0  0  0  0  0  0  0
    5.1197   -2.5856    1.2434 C   0  0  0  0  0  0  0  0  0  0  0  0
   -2.6575   -0.9614   -2.2482 H   0  0  0  0  0  0  0  0  0  0  0  0
   -2.2953    0.7345   -2.0954 H   0  0  0  0  0  0  0  0  0  0  0  0
   -2.1739   -2.8362   -1.4962 H   0  0  0  0  0  0  0  0  0  0  0  0
   -0.8767   -3.7941   -0.9351 H   0  0  0  0  0  0  0  0  0  0  0  0
   -3.0105    2.0493   -0.1448 H   0  0  0  0  0  0  0  0  0  0  0  0
   -3.8890   -2.1661   -0.4226 H   0  0  0  0  0  0  0  0  0  0  0  0
   -0.0387    4.3432   -0.7181 H   0  0  0  0  0  0  0  0  0  0  0  0
    4.0563    2.0498    0.8140 H   0  0  0  0  0  0  0  0  0  0  0  0
    1.9146    5.6600   -0.0115 H   0  0  0  0  0  0  0  0  0  0  0  0
    3.9727    4.5074    0.7591 H   0  0  0  0  0  0  0  0  0  0  0  0
   -4.6281    2.2512    1.7082 H   0  0  0  0  0  0  0  0  0  0  0  0
   -5.4889   -1.9495    1.4316 H   0  0  0  0  0  0  0  0  0  0  0  0
   -5.8712    0.2561    2.5012 H   0  0  0  0  0  0  0  0  0  0  0  0
    3.4483   -3.8906    1.5943 H   0  0  0  0  0  0  0  0  0  0  0  0
    4.0641   -3.9058   -0.0841 H   0  0  0  0  0  0  0  0  0  0  0  0
    5.8802   -3.3176    1.5291 H   0  0  0  0  0  0  0  0  0  0  0  0
    5.5219   -1.9489    0.4485 H   0  0  0  0  0  0  0  0  0  0  0  0
    4.9162   -1.9339    2.0996 H   0  0  0  0  0  0  0  0  0  0  0  0
  1 15  1  0  0  0  0
  1 25  1  0  0  0  0
  2 15  2  0  0  0  0
  3  7  1  0  0  0  0
  3  8  1  0  0  0  0
  3 10  1  0  0  0  0
  4  7  2  0  0  0  0
  4 13  1  0  0  0  0
  5  9  2  0  0  0  0
  5 14  1  0  0  0  0
  6  8  1  0  0  0  0
  6 29  1  0  0  0  0
  6 30  1  0  0  0  0
  7  9  1  0  0  0  0
  8 11  2  0  0  0  0
  9 11  1  0  0  0  0
 10 12  1  0  0  0  0
 10 27  1  0  0  0  0
 10 28  1  0  0  0  0
 11 15  1  0  0  0  0
 12 16  2  0  0  0  0
 12 17  1  0  0  0  0
 13 14  1  0  0  0  0
 13 18  2  0  0  0  0
 14 19  2  0  0  0  0
 16 22  1  0  0  0  0
 16 31  1  0  0  0  0
 17 23  2  0  0  0  0
 17 32  1  0  0  0  0
 18 20  1  0  0  0  0
 18 33  1  0  0  0  0
 19 21  1  0  0  0  0
 19 34  1  0  0  0  0
 20 21  2  0  0  0  0
 20 35  1  0  0  0  0
 21 36  1  0  0  0  0
 22 24  2  0  0  0  0
 22 37  1  0  0  0  0
 23 24  1  0  0  0  0
 23 38  1  0  0  0  0
 24 39  1  0  0  0  0
 25 26  1  0  0  0  0
 25 40  1  0  0  0  0
 25 41  1  0  0  0  0
 26 42  1  0  0  0  0
 26 43  1  0  0  0  0
 26 44  1  0  0  0  0
M  END
> <PUBCHEM_COMPOUND_CID>
705218

> <PUBCHEM_CONFORMER_RMSD>
0.8

> <PUBCHEM_CONFORMER_DIVERSEORDER>
1
8
12
19
13
23
11
21
18
22
15
20
6
7
4
25
14
9
24
16
10
17
3
2
5

> <PUBCHEM_MMFF94_PARTIAL_CHARGES>
36
1 -0.43
10 0.4
11 -0.09
12 -0.14
13 0.31
14 0.31
15 0.81
16 -0.15
17 -0.15
18 -0.15
19 -0.15
2 -0.57
20 -0.15
21 -0.15
22 -0.15
23 -0.15
24 -0.15
25 0.28
29 0.4
3 0.05
30 0.4
31 0.15
32 0.15
33 0.15
34 0.15
35 0.15
36 0.15
37 0.15
38 0.15
39 0.15
4 -0.57
5 -0.57
6 -0.88
7 0.11
8 -0.07
9 0.26

> <PUBCHEM_EFFECTIVE_ROTOR_COUNT>
5

> <PUBCHEM_PHARMACOPHORE_FEATURES>
9
1 2 acceptor
1 5 acceptor
1 6 cation
1 6 donor
3 3 4 7 cation
5 3 7 8 9 11 rings
6 12 16 17 22 23 24 rings
6 13 14 18 19 20 21 rings
6 4 5 7 9 13 14 rings

> <PUBCHEM_HEAVY_ATOM_COUNT>
26

> <PUBCHEM_ATOM_DEF_STEREO_COUNT>
0

> <PUBCHEM_ATOM_UDEF_STEREO_COUNT>
0

> <PUBCHEM_BOND_DEF_STEREO_COUNT>
0

> <PUBCHEM_BOND_UDEF_STEREO_COUNT>
0

> <PUBCHEM_ISOTOPIC_ATOM_COUNT>
0

> <PUBCHEM_COMPONENT_COUNT>
1

> <PUBCHEM_CACTVS_TAUTO_COUNT>
4

> <PUBCHEM_CONFORMER_ID>
000AC2C200000001

> <PUBCHEM_MMFF94_ENERGY>
62.5791

> <PUBCHEM_FEATURE_SELFOVERLAP>
45.844

> <PUBCHEM_SHAPE_FINGERPRINT>
10006869 2 17257077174413435887
10411042 1 18194951959785365550
1100329 8 18340206409816834390
11049842 53 16629979762670615087
12390115 104 17691983964720534957
12422481 6 18128804258194998290
12553582 1 18267864978138127998
12788726 201 17685790025084944738
13140716 1 18050003590961268036
13583140 156 16881286459603094565
138480 1 18338514140740687684
14020679 6 18113616828772321602
14363568 33 18408601466193161592
14739800 52 17416672734177892272
14787075 74 17968386628368297786
14790565 3 18264776639392479700
14849402 71 18338243755591094528
14955137 171 18339085874150720830
15042514 8 17689715260368622986
15475509 8 17844555248175941996
15842332 3 17916572276015949479
15927050 60 18123755515881191118
17980427 23 17701534009856398713
18785283 64 18409451418397966034
19591789 44 18410856551540777572
20642791 268 18131070372960873547
20739085 24 18340208501212667626
21033648 29 17414693398890089531
21041028 32 18193274096529961748
21756936 100 17700138991150956293
21796203 349 18192738698829057946
23558518 356 17908427209656820462
23559900 14 18408881816088641107
23845131 108 18120657096272084979
25147074 1 17988350581447739343
3091708 16 9287775389528709364
352729 6 17327725705619556198
394222 165 18130242548131900131
4409770 3 17467348920497182005
474 4 18268713994741648809
5104073 3 18339101336728721947
58807428 26 18122336045858165600
7097593 13 18339089203039960383
79837 15 17689713490710150672
9981440 41 18050007989439893793

> <PUBCHEM_SHAPE_MULTIPOLES>
503.41
8.94
5.76
1.19
7.63
2.11
-0.12
-2.2
-5.39
-9.26
-0.46
0.91
-0.28
-1.25

> <PUBCHEM_SHAPE_SELFOVERLAP>
1122.068

> <PUBCHEM_SHAPE_VOLUME>
267.5

> <PUBCHEM_COORDINATE_TYPE>
2
5
10

$$$$
