6226152
  -OEChem-01171812023D

 42 44  0     0  0  0  0  0  0999 V2000
    2.3027    1.4931   -0.9068 S   0  0  0  0  0  0  0  0  0  0  0  0
    0.9850    3.8840   -2.1702 S   0  0  0  0  0  0  0  0  0  0  0  0
    0.1742    1.5115    2.2603 O   0  0  0  0  0  0  0  0  0  0  0  0
   -3.2447    1.8842    1.5054 O   0  0  0  0  0  0  0  0  0  0  0  0
    3.5809   -1.1819   -0.5279 O   0  0  0  0  0  0  0  0  0  0  0  0
   -3.0768   -4.5115    0.5535 O   0  0  0  0  0  0  0  0  0  0  0  0
   -0.0036   -2.0028   -2.3631 O   0  0  0  0  0  0  0  0  0  0  0  0
   -1.0108    0.0099   -2.6812 O   0  0  0  0  0  0  0  0  0  0  0  0
    0.3641    2.7591    0.2742 N   0  0  0  0  0  0  0  0  0  0  0  0
   -2.0581    0.8822   -0.2559 N   0  0  0  0  0  0  0  0  0  0  0  0
   -0.6816    3.7078    0.5466 C   0  0  0  0  0  0  0  0  0  0  0  0
   -2.0163    3.2699   -0.0403 C   0  0  0  0  0  0  0  0  0  0  0  0
    0.6962    1.7308    1.1752 C   0  0  0  0  0  0  0  0  0  0  0  0
   -2.5228    1.9438    0.5158 C   0  0  0  0  0  0  0  0  0  0  0  0
    1.8034    0.9120    0.6277 C   0  0  0  0  0  0  0  0  0  0  0  0
    1.1196    2.7988   -0.9066 C   0  0  0  0  0  0  0  0  0  0  0  0
   -2.3081   -0.4975   -0.0646 C   0  0  0  0  0  0  0  0  0  0  0  0
    2.3267   -0.1353    1.2670 C   0  0  0  0  0  0  0  0  0  0  0  0
   -1.7656   -1.4346   -0.9297 C   0  0  0  0  0  0  0  0  0  0  0  0
   -3.1037   -0.8806    1.0040 C   0  0  0  0  0  0  0  0  0  0  0  0
    3.4260   -0.9868    0.7758 C   0  0  0  0  0  0  0  0  0  0  0  0
   -2.0252   -2.7892   -0.7214 C   0  0  0  0  0  0  0  0  0  0  0  0
   -3.3632   -2.2354    1.2124 C   0  0  0  0  0  0  0  0  0  0  0  0
   -2.8239   -3.1895    0.3498 C   0  0  0  0  0  0  0  0  0  0  0  0
    4.3254   -1.6093    1.5492 C   0  0  0  0  0  0  0  0  0  0  0  0
   -0.9245   -1.0502   -2.0564 C   0  0  0  0  0  0  0  0  0  0  0  0
    5.1597   -2.2872    0.6286 C   0  0  0  0  0  0  0  0  0  0  0  0
    4.6654   -1.9954   -0.6214 C   0  0  0  0  0  0  0  0  0  0  0  0
   -0.7869    3.7991    1.6345 H   0  0  0  0  0  0  0  0  0  0  0  0
   -0.4140    4.7001    0.1705 H   0  0  0  0  0  0  0  0  0  0  0  0
   -2.7767    4.0268    0.1887 H   0  0  0  0  0  0  0  0  0  0  0  0
   -1.9686    3.2110   -1.1338 H   0  0  0  0  0  0  0  0  0  0  0  0
   -1.4610    1.1149   -1.0448 H   0  0  0  0  0  0  0  0  0  0  0  0
    1.9569   -0.3882    2.2588 H   0  0  0  0  0  0  0  0  0  0  0  0
   -3.5588   -0.2125    1.7188 H   0  0  0  0  0  0  0  0  0  0  0  0
   -1.6249   -3.5471   -1.3907 H   0  0  0  0  0  0  0  0  0  0  0  0
   -3.9856   -2.5428    2.0485 H   0  0  0  0  0  0  0  0  0  0  0  0
    4.4067   -1.6031    2.6268 H   0  0  0  0  0  0  0  0  0  0  0  0
    6.0145   -2.9103    0.8485 H   0  0  0  0  0  0  0  0  0  0  0  0
    4.9562   -2.2732   -1.6241 H   0  0  0  0  0  0  0  0  0  0  0  0
   -2.6256   -5.0298   -0.1347 H   0  0  0  0  0  0  0  0  0  0  0  0
    0.5597   -1.7358   -3.1206 H   0  0  0  0  0  0  0  0  0  0  0  0
  1 15  1  0  0  0  0
  1 16  1  0  0  0  0
  2 16  2  0  0  0  0
  3 13  2  0  0  0  0
  4 14  2  0  0  0  0
  5 21  1  0  0  0  0
  5 28  1  0  0  0  0
  6 24  1  0  0  0  0
  6 41  1  0  0  0  0
  7 26  1  0  0  0  0
  7 42  1  0  0  0  0
  8 26  2  0  0  0  0
  9 11  1  0  0  0  0
  9 13  1  0  0  0  0
  9 16  1  0  0  0  0
 10 14  1  0  0  0  0
 10 17  1  0  0  0  0
 10 33  1  0  0  0  0
 11 12  1  0  0  0  0
 11 29  1  0  0  0  0
 11 30  1  0  0  0  0
 12 14  1  0  0  0  0
 12 31  1  0  0  0  0
 12 32  1  0  0  0  0
 13 15  1  0  0  0  0
 15 18  2  0  0  0  0
 17 19  2  0  0  0  0
 17 20  1  0  0  0  0
 18 21  1  0  0  0  0
 18 34  1  0  0  0  0
 19 22  1  0  0  0  0
 19 26  1  0  0  0  0
 20 23  2  0  0  0  0
 20 35  1  0  0  0  0
 21 25  2  0  0  0  0
 22 24  2  0  0  0  0
 22 36  1  0  0  0  0
 23 24  1  0  0  0  0
 23 37  1  0  0  0  0
 25 27  1  0  0  0  0
 25 38  1  0  0  0  0
 27 28  2  0  0  0  0
 27 39  1  0  0  0  0
 28 40  1  0  0  0  0
M  END
> <PUBCHEM_COMPOUND_CID>
6226152

> <PUBCHEM_CONFORMER_RMSD>
0.8

> <PUBCHEM_CONFORMER_DIVERSEORDER>
1
126
64
2
32
135
11
17
108
121
97
76
133
15
102
129
96
29
50
78
14
103
55
10
148
31
110
150
54
30
65
53
141
88
77
87
21
63
115
114
118
109
80
123
61
68
12
49
71
137
152
24
140
46
20
94
8
101
33
111
98
39
73
113
40
58
89
47
5
43
56
149
41
4
27
125
48
151
136
100
120
91
66
42
57
23
95
74
119
7
6
99
13
79
36
44
92
82
142
37
28
93
72
130
84
16
45
131
132
128
138
117
116
18
147
9
81
143
51
34
75
139
112
19
85
3
144
122
127
124
146
25
67
35
83
22
105
70
104
59
52
86
62
107
60
26
134
106
90
145
69
38

> <PUBCHEM_MMFF94_PARTIAL_CHARGES>
38
1 -0.24
10 -0.55
11 0.3
12 0.06
13 0.62
14 0.57
15 0.12
16 0.58
17 0.12
18 -0.11
19 0.09
2 -0.38
20 -0.15
21 0.09
22 -0.15
23 -0.15
24 0.08
25 -0.15
26 0.63
27 -0.15
28 -0.01
3 -0.57
33 0.37
34 0.15
35 0.15
36 0.15
37 0.15
38 0.15
39 0.15
4 -0.57
40 0.15
41 0.45
42 0.5
5 -0.28
6 -0.53
7 -0.65
8 -0.57
9 -0.42

> <PUBCHEM_EFFECTIVE_ROTOR_COUNT>
7.4

> <PUBCHEM_PHARMACOPHORE_FEATURES>
12
1 10 donor
1 2 acceptor
1 3 acceptor
1 4 acceptor
1 5 acceptor
1 6 donor
1 7 acceptor
1 8 acceptor
3 7 8 26 anion
5 1 9 13 15 16 rings
5 5 21 25 27 28 rings
6 17 19 20 22 23 24 rings

> <PUBCHEM_HEAVY_ATOM_COUNT>
28

> <PUBCHEM_ATOM_DEF_STEREO_COUNT>
0

> <PUBCHEM_ATOM_UDEF_STEREO_COUNT>
0

> <PUBCHEM_BOND_DEF_STEREO_COUNT>
1

> <PUBCHEM_BOND_UDEF_STEREO_COUNT>
0

> <PUBCHEM_ISOTOPIC_ATOM_COUNT>
0

> <PUBCHEM_COMPONENT_COUNT>
1

> <PUBCHEM_CACTVS_TAUTO_COUNT>
8

> <PUBCHEM_CONFORMER_ID>
005F00E800000001

> <PUBCHEM_MMFF94_ENERGY>
70.0096

> <PUBCHEM_FEATURE_SELFOVERLAP>
60.957

> <PUBCHEM_SHAPE_FINGERPRINT>
107951 10 17908139880475966143
11014199 57 18337390551626893066
11315621 246 18192443987512136126
11421498 54 17904777921842544964
11578080 2 17678728175853852351
11582403 64 8183523144503166243
12156800 1 17177770654563632179
12422481 6 17986133832613827907
12597179 24 16963784629321689564
12633257 1 18270700734875265275
13533116 47 17904202882232087915
13726171 33 17913245098223096776
14251757 5 18268999696050360406
14863182 85 17544188737186110368
16728300 4 17317325012826080227
19319366 153 17400649710330025660
19930381 70 17832704947627327531
20775530 9 18336541728581697674
238918 7 17771062696537233374
2818148 4 18265065797611177161
3298306 158 17116056003441930804
340366 18 18260835851962747445
35225 105 17767096749595139450
445580 42 18265315245259822522
484985 159 18116982291835746570
57091435 65 18053106404300591620
7097593 13 18195811988267957791

> <PUBCHEM_SHAPE_MULTIPOLES>
538.75
7.37
5.54
2.05
7.31
1.39
-0.88
-8.22
2.29
-2.48
-0.63
-0.03
0.37
-1.06

> <PUBCHEM_SHAPE_SELFOVERLAP>
1146.575

> <PUBCHEM_SHAPE_VOLUME>
301.4

> <PUBCHEM_COORDINATE_TYPE>
2
5
10

$$$$
