16745657
  -OEChem-01171811563D

 55 57  0     1  0  0  0  0  0999 V2000
    2.4064   -1.5555    0.8735 O   0  0  0  0  0  0  0  0  0  0  0  0
   -5.1883   -0.4033    2.2366 O   0  0  0  0  0  0  0  0  0  0  0  0
   -3.2460    3.3267   -0.1084 O   0  0  0  0  0  0  0  0  0  0  0  0
    0.5588   -0.0476    2.1355 O   0  0  0  0  0  0  0  0  0  0  0  0
    1.7158   -2.8430   -1.4272 O   0  0  0  0  0  0  0  0  0  0  0  0
    2.1511    0.1574   -0.6507 O   0  0  0  0  0  0  0  0  0  0  0  0
    6.7929    2.1591   -0.9377 O   0  0  0  0  0  0  0  0  0  0  0  0
    7.0255    0.5338    0.6827 O   0  0  0  0  0  0  0  0  0  0  0  0
   -3.2509    0.5408    0.3929 N   0  0  0  0  0  0  0  0  0  0  0  0
   -4.8674    0.1945   -1.4823 C   0  0  0  0  0  0  0  0  0  0  0  0
   -5.0014    0.0493   -2.9698 C   0  0  0  0  0  0  0  0  0  0  0  0
   -5.0087    1.4138   -2.3453 C   0  0  0  0  0  0  0  0  0  0  0  0
   -3.5498   -0.0881   -0.8491 C   0  0  0  0  0  0  0  0  0  0  0  0
   -2.6520   -0.9202   -1.4342 C   0  0  0  0  0  0  0  0  0  0  0  0
   -4.2033    1.4430    1.0459 C   0  0  0  0  0  0  0  0  0  0  0  0
   -1.3631   -1.1820   -0.7899 C   0  0  0  0  0  0  0  0  0  0  0  0
   -2.0143    0.2850    0.9997 C   0  0  0  0  0  0  0  0  0  0  0  0
   -1.0759   -0.5264    0.4816 C   0  0  0  0  0  0  0  0  0  0  0  0
    1.0476   -1.9223    0.7017 C   0  0  1  0  0  0  0  0  0  0  0  0
    0.2114   -0.7524    1.1903 C   0  0  0  0  0  0  0  0  0  0  0  0
   -4.5730    0.8681    2.4111 C   0  0  0  0  0  0  0  0  0  0  0  0
   -3.5717    2.8265    1.1834 C   0  0  0  0  0  0  0  0  0  0  0  0
   -0.4706   -1.9891   -1.3857 C   0  0  0  0  0  0  0  0  0  0  0  0
    0.8456   -2.2832   -0.7617 C   0  0  0  0  0  0  0  0  0  0  0  0
    0.7398   -3.1426    1.5707 C   0  0  0  0  0  0  0  0  0  0  0  0
    2.8386   -0.4859    0.1302 C   0  0  0  0  0  0  0  0  0  0  0  0
    4.2972   -0.2207    0.4353 C   0  0  0  0  0  0  0  0  0  0  0  0
    4.8820    0.9088   -0.4099 C   0  0  0  0  0  0  0  0  0  0  0  0
    6.3512    1.1464   -0.1337 C   0  0  0  0  0  0  0  0  0  0  0  0
    8.1724    2.5092   -0.7855 C   0  0  0  0  0  0  0  0  0  0  0  0
   -5.7259   -0.1338   -0.9047 H   0  0  0  0  0  0  0  0  0  0  0  0
   -4.1581   -0.1716   -3.6113 H   0  0  0  0  0  0  0  0  0  0  0  0
   -5.9424   -0.3302   -3.3531 H   0  0  0  0  0  0  0  0  0  0  0  0
   -5.9502    1.9485   -2.3105 H   0  0  0  0  0  0  0  0  0  0  0  0
   -4.1448    2.0450   -2.5150 H   0  0  0  0  0  0  0  0  0  0  0  0
   -2.8593   -1.4322   -2.3676 H   0  0  0  0  0  0  0  0  0  0  0  0
   -5.1247    1.5524    0.4672 H   0  0  0  0  0  0  0  0  0  0  0  0
   -1.8523    0.7933    1.9423 H   0  0  0  0  0  0  0  0  0  0  0  0
   -5.2972    1.5239    2.9072 H   0  0  0  0  0  0  0  0  0  0  0  0
   -3.7191    0.7513    3.0850 H   0  0  0  0  0  0  0  0  0  0  0  0
   -2.6656    2.8334    1.7967 H   0  0  0  0  0  0  0  0  0  0  0  0
   -4.2866    3.5193    1.6413 H   0  0  0  0  0  0  0  0  0  0  0  0
   -0.6621   -2.4528   -2.3485 H   0  0  0  0  0  0  0  0  0  0  0  0
   -0.3046   -3.4589    1.4749 H   0  0  0  0  0  0  0  0  0  0  0  0
    1.3790   -3.9892    1.2944 H   0  0  0  0  0  0  0  0  0  0  0  0
    0.9370   -2.9309    2.6280 H   0  0  0  0  0  0  0  0  0  0  0  0
   -5.4299   -0.7269    3.1212 H   0  0  0  0  0  0  0  0  0  0  0  0
   -2.8684    4.2142    0.0162 H   0  0  0  0  0  0  0  0  0  0  0  0
    4.8572   -1.1447    0.2494 H   0  0  0  0  0  0  0  0  0  0  0  0
    4.3840    0.0293    1.4989 H   0  0  0  0  0  0  0  0  0  0  0  0
    4.3397    1.8393   -0.2059 H   0  0  0  0  0  0  0  0  0  0  0  0
    4.7692    0.6677   -1.4734 H   0  0  0  0  0  0  0  0  0  0  0  0
    8.3947    3.3243   -1.4793 H   0  0  0  0  0  0  0  0  0  0  0  0
    8.8094    1.6546   -1.0321 H   0  0  0  0  0  0  0  0  0  0  0  0
    8.3651    2.8541    0.2349 H   0  0  0  0  0  0  0  0  0  0  0  0
  1 19  1  0  0  0  0
  1 26  1  0  0  0  0
  2 21  1  0  0  0  0
  2 47  1  0  0  0  0
  3 22  1  0  0  0  0
  3 48  1  0  0  0  0
  4 20  2  0  0  0  0
  5 24  2  0  0  0  0
  6 26  2  0  0  0  0
  7 29  1  0  0  0  0
  7 30  1  0  0  0  0
  8 29  2  0  0  0  0
  9 13  1  0  0  0  0
  9 15  1  0  0  0  0
  9 17  1  0  0  0  0
 10 11  1  0  0  0  0
 10 12  1  0  0  0  0
 10 13  1  0  0  0  0
 10 31  1  0  0  0  0
 11 12  1  0  0  0  0
 11 32  1  0  0  0  0
 11 33  1  0  0  0  0
 12 34  1  0  0  0  0
 12 35  1  0  0  0  0
 13 14  2  0  0  0  0
 14 16  1  0  0  0  0
 14 36  1  0  0  0  0
 15 21  1  0  0  0  0
 15 22  1  0  0  0  0
 15 37  1  0  0  0  0
 16 18  1  0  0  0  0
 16 23  2  0  0  0  0
 17 18  2  0  0  0  0
 17 38  1  0  0  0  0
 18 20  1  0  0  0  0
 19 20  1  0  0  0  0
 19 24  1  0  0  0  0
 19 25  1  0  0  0  0
 21 39  1  0  0  0  0
 21 40  1  0  0  0  0
 22 41  1  0  0  0  0
 22 42  1  0  0  0  0
 23 24  1  0  0  0  0
 23 43  1  0  0  0  0
 25 44  1  0  0  0  0
 25 45  1  0  0  0  0
 25 46  1  0  0  0  0
 26 27  1  0  0  0  0
 27 28  1  0  0  0  0
 27 49  1  0  0  0  0
 27 50  1  0  0  0  0
 28 29  1  0  0  0  0
 28 51  1  0  0  0  0
 28 52  1  0  0  0  0
 30 53  1  0  0  0  0
 30 54  1  0  0  0  0
 30 55  1  0  0  0  0
M  END
> <PUBCHEM_COMPOUND_CID>
16745657

> <PUBCHEM_CONFORMER_RMSD>
1

> <PUBCHEM_CONFORMER_DIVERSEORDER>
2
6
20
21
28
18
19
5
7
24
25
27
26
4
10
29
12
11
22
23
1
15
9
17
13
16
14
8
3

> <PUBCHEM_MMFF94_PARTIAL_CHARGES>
38
1 -0.43
10 -0.06
11 -0.2
12 -0.2
13 0.06
14 -0.15
15 0.37
17 -0.05
18 0.01
19 0.4
2 -0.68
20 0.49
21 0.28
22 0.28
23 -0.14
24 0.49
26 0.66
27 0.06
28 0.06
29 0.66
3 -0.68
30 0.28
31 0.1
32 0.1
33 0.1
34 0.1
35 0.1
36 0.15
38 0.15
4 -0.57
43 0.15
47 0.4
48 0.4
5 -0.57
6 -0.57
7 -0.43
8 -0.57
9 -0.57

> <PUBCHEM_EFFECTIVE_ROTOR_COUNT>
11

> <PUBCHEM_PHARMACOPHORE_FEATURES>
11
1 2 acceptor
1 2 donor
1 3 acceptor
1 3 donor
1 4 acceptor
1 5 acceptor
1 6 acceptor
1 8 acceptor
1 9 cation
6 16 18 19 20 23 24 rings
6 9 13 14 16 17 18 rings

> <PUBCHEM_HEAVY_ATOM_COUNT>
30

> <PUBCHEM_ATOM_DEF_STEREO_COUNT>
0

> <PUBCHEM_ATOM_UDEF_STEREO_COUNT>
1

> <PUBCHEM_BOND_DEF_STEREO_COUNT>
0

> <PUBCHEM_BOND_UDEF_STEREO_COUNT>
0

> <PUBCHEM_ISOTOPIC_ATOM_COUNT>
0

> <PUBCHEM_COMPONENT_COUNT>
1

> <PUBCHEM_CACTVS_TAUTO_COUNT>
1

> <PUBCHEM_CONFORMER_ID>
00FF84B900000002

> <PUBCHEM_MMFF94_ENERGY>
76.8307

> <PUBCHEM_FEATURE_SELFOVERLAP>
55.848

> <PUBCHEM_SHAPE_FINGERPRINT>
10 15 17168144568096856600
10319926 262 14996284687047625762
10369192 42 18341346564409000004
10670039 82 18060131042404251280
12403259 118 15864076476552364359
12596602 18 16226043405920657512
12954195 1 16486970713504615663
13103583 49 11746939763286136828
13540713 5 17488175981630856039
13583140 156 17749108838581806859
13690498 29 15913039946109969029
13782708 43 13758062026585886412
13911987 19 18340470219820099087
14713325 29 18198911481376918386
15183329 4 18201718466649658372
17492 54 18272921739387900222
21033648 29 16443066062739429714
21033650 10 16702306749552053962
21756936 100 18338524139841427418
22393880 68 16558739109797805962
22907989 373 17630022886140776149
23559900 14 16916500497705650042
249057 25 18199168638596653546
2838139 119 18343019991500847952
312425 54 13912592845594573432
392239 28 16298113081073620540
4098825 35 16343716408325209332
5104073 3 15647044924338870097
563151 74 16588572133140434632
57527293 21 17985840237983459547
633830 44 18123757448532221163
6608658 132 18272926111596561996
6712543 237 14201661066791950880

> <PUBCHEM_SHAPE_MULTIPOLES>
565.45
16.04
3.02
2.32
30.09
0.14
-0.21
16
-4.39
1.44
0.06
-4.37
0.01
-1.68

> <PUBCHEM_SHAPE_SELFOVERLAP>
1195.15

> <PUBCHEM_SHAPE_VOLUME>
315.2

> <PUBCHEM_COORDINATE_TYPE>
2
5
10

$$$$
