5110863
  -OEChem-01171812123D

 52 54  0     1  0  0  0  0  0999 V2000
   -3.3159    1.3731   -0.0985 O   0  0  0  0  0  0  0  0  0  0  0  0
    2.6439   -2.0944    1.6961 O   0  0  0  0  0  0  0  0  0  0  0  0
    3.3474   -1.8750   -0.5984 O   0  0  0  0  0  0  0  0  0  0  0  0
   -3.4524   -1.3858   -1.6227 O   0  0  0  0  0  0  0  0  0  0  0  0
    3.0053    1.6071    1.2974 O   0  0  0  0  0  0  0  0  0  0  0  0
    3.3137    1.4936   -1.4629 O   0  0  0  0  0  0  0  0  0  0  0  0
   -2.6296    0.9985    2.0716 O   0  0  0  0  0  0  0  0  0  0  0  0
   -2.8229   -1.6304    0.5976 N   0  0  0  0  0  0  0  0  0  0  0  0
   -0.6306   -2.5922    0.1173 C   0  0  0  0  0  0  0  0  0  0  0  0
   -2.0756   -2.8544    0.4289 C   0  0  0  0  0  0  0  0  0  0  0  0
   -4.1954    0.2636   -0.0210 C   0  0  2  0  0  0  0  0  0  0  0  0
    1.6100   -2.2365    0.8226 C   0  0  0  0  0  0  0  0  0  0  0  0
    0.2937   -2.4778    1.1585 C   0  0  0  0  0  0  0  0  0  0  0  0
    2.0118   -2.1112   -0.4876 C   0  0  0  0  0  0  0  0  0  0  0  0
   -0.2201   -2.4640   -1.2213 C   0  0  0  0  0  0  0  0  0  0  0  0
   -3.4557   -0.9928   -0.4581 C   0  0  0  0  0  0  0  0  0  0  0  0
    1.1193   -2.2199   -1.5342 C   0  0  0  0  0  0  0  0  0  0  0  0
   -1.7031    2.8419    0.7816 C   0  0  0  0  0  0  0  0  0  0  0  0
   -0.3657    2.4828    0.1874 C   0  0  0  0  0  0  0  0  0  0  0  0
   -5.3890    0.5390   -0.9215 C   0  0  0  0  0  0  0  0  0  0  0  0
    3.7416   -1.8662    0.7888 C   0  0  0  0  0  0  0  0  0  0  0  0
   -2.5802    1.6379    1.0295 C   0  0  0  0  0  0  0  0  0  0  0  0
    0.7173    2.2072    1.0220 C   0  0  0  0  0  0  0  0  0  0  0  0
   -0.2108    2.4259   -1.1978 C   0  0  0  0  0  0  0  0  0  0  0  0
    1.9552    1.8744    0.4718 C   0  0  0  0  0  0  0  0  0  0  0  0
    2.1101    1.8175   -0.9133 C   0  0  0  0  0  0  0  0  0  0  0  0
    1.0271    2.0934   -1.7480 C   0  0  0  0  0  0  0  0  0  0  0  0
    2.7632    1.6872    2.7006 C   0  0  0  0  0  0  0  0  0  0  0  0
    3.3874    1.4577   -2.8868 C   0  0  0  0  0  0  0  0  0  0  0  0
   -2.5337   -3.4583   -0.3634 H   0  0  0  0  0  0  0  0  0  0  0  0
   -2.1699   -3.4277    1.3583 H   0  0  0  0  0  0  0  0  0  0  0  0
   -4.5838    0.1288    0.9968 H   0  0  0  0  0  0  0  0  0  0  0  0
   -0.0073   -2.5714    2.1964 H   0  0  0  0  0  0  0  0  0  0  0  0
   -2.8642   -1.2235    1.5274 H   0  0  0  0  0  0  0  0  0  0  0  0
   -0.9406   -2.5563   -2.0299 H   0  0  0  0  0  0  0  0  0  0  0  0
    1.4400   -2.1190   -2.5648 H   0  0  0  0  0  0  0  0  0  0  0  0
   -1.5725    3.3681    1.7357 H   0  0  0  0  0  0  0  0  0  0  0  0
   -2.2352    3.5554    0.1397 H   0  0  0  0  0  0  0  0  0  0  0  0
   -6.0818   -0.3084   -0.9366 H   0  0  0  0  0  0  0  0  0  0  0  0
   -5.9287    1.4282   -0.5781 H   0  0  0  0  0  0  0  0  0  0  0  0
   -5.0717    0.7430   -1.9505 H   0  0  0  0  0  0  0  0  0  0  0  0
    4.4913   -2.6506    0.9438 H   0  0  0  0  0  0  0  0  0  0  0  0
    4.1974   -0.8974    1.0203 H   0  0  0  0  0  0  0  0  0  0  0  0
    0.5358    2.2641    2.0901 H   0  0  0  0  0  0  0  0  0  0  0  0
   -1.0485    2.6369   -1.8573 H   0  0  0  0  0  0  0  0  0  0  0  0
    1.0733    2.0672   -2.8312 H   0  0  0  0  0  0  0  0  0  0  0  0
    2.4923    2.7033    3.0069 H   0  0  0  0  0  0  0  0  0  0  0  0
    2.0291    0.9422    3.0262 H   0  0  0  0  0  0  0  0  0  0  0  0
    3.7050    1.4441    3.2037 H   0  0  0  0  0  0  0  0  0  0  0  0
    4.4147    1.1837   -3.1492 H   0  0  0  0  0  0  0  0  0  0  0  0
    3.1990    2.4432   -3.3260 H   0  0  0  0  0  0  0  0  0  0  0  0
    2.7357    0.6828   -3.3046 H   0  0  0  0  0  0  0  0  0  0  0  0
  1 11  1  0  0  0  0
  1 22  1  0  0  0  0
  2 12  1  0  0  0  0
  2 21  1  0  0  0  0
  3 14  1  0  0  0  0
  3 21  1  0  0  0  0
  4 16  2  0  0  0  0
  5 25  1  0  0  0  0
  5 28  1  0  0  0  0
  6 26  1  0  0  0  0
  6 29  1  0  0  0  0
  7 22  2  0  0  0  0
  8 10  1  0  0  0  0
  8 16  1  0  0  0  0
  8 34  1  0  0  0  0
  9 10  1  0  0  0  0
  9 13  2  0  0  0  0
  9 15  1  0  0  0  0
 10 30  1  0  0  0  0
 10 31  1  0  0  0  0
 11 16  1  0  0  0  0
 11 20  1  0  0  0  0
 11 32  1  0  0  0  0
 12 13  1  0  0  0  0
 12 14  2  0  0  0  0
 13 33  1  0  0  0  0
 14 17  1  0  0  0  0
 15 17  2  0  0  0  0
 15 35  1  0  0  0  0
 17 36  1  0  0  0  0
 18 19  1  0  0  0  0
 18 22  1  0  0  0  0
 18 37  1  0  0  0  0
 18 38  1  0  0  0  0
 19 23  2  0  0  0  0
 19 24  1  0  0  0  0
 20 39  1  0  0  0  0
 20 40  1  0  0  0  0
 20 41  1  0  0  0  0
 21 42  1  0  0  0  0
 21 43  1  0  0  0  0
 23 25  1  0  0  0  0
 23 44  1  0  0  0  0
 24 27  2  0  0  0  0
 24 45  1  0  0  0  0
 25 26  2  0  0  0  0
 26 27  1  0  0  0  0
 27 46  1  0  0  0  0
 28 47  1  0  0  0  0
 28 48  1  0  0  0  0
 28 49  1  0  0  0  0
 29 50  1  0  0  0  0
 29 51  1  0  0  0  0
 29 52  1  0  0  0  0
M  END
> <PUBCHEM_COMPOUND_CID>
5110863

> <PUBCHEM_CONFORMER_RMSD>
1.4

> <PUBCHEM_CONFORMER_DIVERSEORDER>
1
63
20
123
93
83
75
114
7
94
140
54
131
11
58
26
132
113
97
53
124
139
27
30
36
15
39
62
40
8
86
138
18
70
21
5
10
122
64
73
52
24
133
99
46
115
60
74
9
121
120
29
110
57
55
106
50
23
84
107
38
17
105
92
32
16
79
13
104
87
91
112
88
48
37
76
67
28
135
14
101
127
130
103
136
4
102
118
89
25
41
108
49
59
117
119
31
56
66
2
6
82
12
3
45
71
68
19
128
77
109
111
43
65
34
44
22
125
35
137
47
33
78
134
85
51
72
116
90
129
126
80
69
61
81
100
42
98
96
95

> <PUBCHEM_MMFF94_PARTIAL_CHARGES>
35
1 -0.43
10 0.44
11 0.34
12 0.08
13 -0.15
14 0.08
15 -0.15
16 0.57
17 -0.15
18 0.2
19 -0.14
2 -0.36
21 0.56
22 0.66
23 -0.15
24 -0.15
25 0.08
26 0.08
27 -0.15
28 0.28
29 0.28
3 -0.36
33 0.15
34 0.37
35 0.15
36 0.15
4 -0.57
44 0.15
45 0.15
46 0.15
5 -0.36
6 -0.36
7 -0.57
8 -0.73
9 -0.14

> <PUBCHEM_EFFECTIVE_ROTOR_COUNT>
10.6

> <PUBCHEM_PHARMACOPHORE_FEATURES>
10
1 2 acceptor
1 3 acceptor
1 4 acceptor
1 5 acceptor
1 6 acceptor
1 7 acceptor
1 8 donor
5 2 3 12 14 21 rings
6 19 23 24 25 26 27 rings
6 9 12 13 14 15 17 rings

> <PUBCHEM_HEAVY_ATOM_COUNT>
29

> <PUBCHEM_ATOM_DEF_STEREO_COUNT>
0

> <PUBCHEM_ATOM_UDEF_STEREO_COUNT>
1

> <PUBCHEM_BOND_DEF_STEREO_COUNT>
0

> <PUBCHEM_BOND_UDEF_STEREO_COUNT>
0

> <PUBCHEM_ISOTOPIC_ATOM_COUNT>
0

> <PUBCHEM_COMPONENT_COUNT>
1

> <PUBCHEM_CACTVS_TAUTO_COUNT>
2

> <PUBCHEM_CONFORMER_ID>
004DFC4F00000001

> <PUBCHEM_MMFF94_ENERGY>
80.4192

> <PUBCHEM_FEATURE_SELFOVERLAP>
50.909

> <PUBCHEM_SHAPE_FINGERPRINT>
11513181 2 17988913505278104534
11578080 2 14635165533333282652
12422481 6 18122872496232272994
128993 33 16025920534207547446
13122387 1 17762902061163826915
13140716 1 18411702050154503483
14117953 113 17253710473792949877
14931854 50 18337684112693874695
17093844 170 18410005572279613440
17492 54 18116169804360880190
17921350 177 16662019556930686253
18336668 15 18263360305148176200
20764821 26 18187097169202081955
20905425 154 18340217395778993663
3052486 1 18191872438580474524
3298306 158 18338230600559785197
338550 245 18336829672122112181
35225 105 17689165925176752439
392239 28 17984410842433256338
463206 1 18413100676490374193
484985 159 14815492282087229961
513532 50 17774438407513323335
6287921 2 17917987239948588435

> <PUBCHEM_SHAPE_MULTIPOLES>
550.74
7.27
4.5
2.17
5.82
0.94
-0.18
-0.31
-0.96
-1.26
0.26
-1.9
-0.95
-0.94

> <PUBCHEM_SHAPE_SELFOVERLAP>
1176.178

> <PUBCHEM_SHAPE_VOLUME>
305.6

> <PUBCHEM_COORDINATE_TYPE>
2
5
10

$$$$
