662288
  -OEChem-01171811373D

 52 55  0     1  0  0  0  0  0999 V2000
   -3.6108   -0.4647    0.8960 O   0  0  0  0  0  0  0  0  0  0  0  0
    2.3134   -3.0973   -0.1253 O   0  0  0  0  0  0  0  0  0  0  0  0
   -1.3103   -1.0594   -0.7743 N   0  0  0  0  0  0  0  0  0  0  0  0
   -1.5377    1.3428   -0.5801 N   0  0  0  0  0  0  0  0  0  0  0  0
   -0.5015   -3.2848   -0.8096 N   0  0  0  0  0  0  0  0  0  0  0  0
    1.2335    1.1980    0.0813 N   0  0  0  0  0  0  0  0  0  0  0  0
    3.1964   -1.0021    0.3299 N   0  0  0  0  0  0  0  0  0  0  0  0
   -3.5468   -1.6415    0.0725 C   0  0  1  0  0  0  0  0  0  0  0  0
   -4.9827   -1.9911   -0.2782 C   0  0  0  0  0  0  0  0  0  0  0  0
   -2.6754   -1.3750   -1.1395 C   0  0  0  0  0  0  0  0  0  0  0  0
   -5.7097   -1.5644    0.9723 C   0  0  0  0  0  0  0  0  0  0  0  0
   -4.9614   -0.3052    1.3552 C   0  0  0  0  0  0  0  0  0  0  0  0
   -0.8387    0.2004   -0.5284 C   0  0  0  0  0  0  0  0  0  0  0  0
   -0.2873   -1.9629   -0.6194 C   0  0  0  0  0  0  0  0  0  0  0  0
    0.8528   -1.2686   -0.2693 C   0  0  0  0  0  0  0  0  0  0  0  0
    0.5024    0.0995   -0.2117 C   0  0  0  0  0  0  0  0  0  0  0  0
    2.1361   -1.8611   -0.0183 C   0  0  0  0  0  0  0  0  0  0  0  0
    4.5481   -1.4428    0.5899 C   0  0  1  0  0  0  0  0  0  0  0  0
   -0.8101    2.4311   -0.2891 C   0  0  0  0  0  0  0  0  0  0  0  0
    0.5650    2.3597    0.0394 C   0  0  0  0  0  0  0  0  0  0  0  0
    5.5710   -0.3669    0.2033 C   0  0  0  0  0  0  0  0  0  0  0  0
    4.6910   -1.8232    2.0599 C   0  0  0  0  0  0  0  0  0  0  0  0
   -1.4318    3.6759   -0.3112 C   0  0  0  0  0  0  0  0  0  0  0  0
    1.2493    3.5361    0.3296 C   0  0  0  0  0  0  0  0  0  0  0  0
    5.4656    0.0461   -1.2592 C   0  0  0  0  0  0  0  0  0  0  0  0
   -0.7333    4.8458   -0.0188 C   0  0  0  0  0  0  0  0  0  0  0  0
    0.6129    4.7756    0.3032 C   0  0  0  0  0  0  0  0  0  0  0  0
   -3.1119   -2.4367    0.6916 H   0  0  0  0  0  0  0  0  0  0  0  0
   -5.1158   -3.0494   -0.5189 H   0  0  0  0  0  0  0  0  0  0  0  0
   -5.3359   -1.3971   -1.1299 H   0  0  0  0  0  0  0  0  0  0  0  0
   -3.0583   -0.5152   -1.7037 H   0  0  0  0  0  0  0  0  0  0  0  0
   -2.6730   -2.2225   -1.8323 H   0  0  0  0  0  0  0  0  0  0  0  0
   -6.7797   -1.3969    0.8247 H   0  0  0  0  0  0  0  0  0  0  0  0
   -5.5859   -2.3251    1.7523 H   0  0  0  0  0  0  0  0  0  0  0  0
   -5.3808    0.5732    0.8533 H   0  0  0  0  0  0  0  0  0  0  0  0
   -4.9651   -0.1259    2.4340 H   0  0  0  0  0  0  0  0  0  0  0  0
    4.7339   -2.3391   -0.0145 H   0  0  0  0  0  0  0  0  0  0  0  0
    0.2465   -3.9633   -0.7038 H   0  0  0  0  0  0  0  0  0  0  0  0
   -1.4069   -3.6806   -1.0389 H   0  0  0  0  0  0  0  0  0  0  0  0
    3.0015   -0.0133    0.4547 H   0  0  0  0  0  0  0  0  0  0  0  0
    6.5843   -0.7401    0.3945 H   0  0  0  0  0  0  0  0  0  0  0  0
    5.4344    0.5249    0.8279 H   0  0  0  0  0  0  0  0  0  0  0  0
    4.4875   -0.9672    2.7131 H   0  0  0  0  0  0  0  0  0  0  0  0
    3.9864   -2.6172    2.3303 H   0  0  0  0  0  0  0  0  0  0  0  0
    5.7025   -2.1837    2.2742 H   0  0  0  0  0  0  0  0  0  0  0  0
   -2.4887    3.7496   -0.5616 H   0  0  0  0  0  0  0  0  0  0  0  0
    2.3071    3.4992    0.5842 H   0  0  0  0  0  0  0  0  0  0  0  0
    4.5048    0.5231   -1.4758 H   0  0  0  0  0  0  0  0  0  0  0  0
    6.2552    0.7639   -1.5038 H   0  0  0  0  0  0  0  0  0  0  0  0
    5.5789   -0.8195   -1.9196 H   0  0  0  0  0  0  0  0  0  0  0  0
   -1.2415    5.8048   -0.0431 H   0  0  0  0  0  0  0  0  0  0  0  0
    1.1690    5.6792    0.5333 H   0  0  0  0  0  0  0  0  0  0  0  0
  1  8  1  0  0  0  0
  1 12  1  0  0  0  0
  2 17  2  0  0  0  0
  3 10  1  0  0  0  0
  3 13  1  0  0  0  0
  3 14  1  0  0  0  0
  4 13  2  0  0  0  0
  4 19  1  0  0  0  0
  5 14  1  0  0  0  0
  5 38  1  0  0  0  0
  5 39  1  0  0  0  0
  6 16  2  0  0  0  0
  6 20  1  0  0  0  0
  7 17  1  0  0  0  0
  7 18  1  0  0  0  0
  7 40  1  0  0  0  0
  8  9  1  0  0  0  0
  8 10  1  0  0  0  0
  8 28  1  0  0  0  0
  9 11  1  0  0  0  0
  9 29  1  0  0  0  0
  9 30  1  0  0  0  0
 10 31  1  0  0  0  0
 10 32  1  0  0  0  0
 11 12  1  0  0  0  0
 11 33  1  0  0  0  0
 11 34  1  0  0  0  0
 12 35  1  0  0  0  0
 12 36  1  0  0  0  0
 13 16  1  0  0  0  0
 14 15  2  0  0  0  0
 15 16  1  0  0  0  0
 15 17  1  0  0  0  0
 18 21  1  0  0  0  0
 18 22  1  0  0  0  0
 18 37  1  0  0  0  0
 19 20  1  0  0  0  0
 19 23  2  0  0  0  0
 20 24  2  0  0  0  0
 21 25  1  0  0  0  0
 21 41  1  0  0  0  0
 21 42  1  0  0  0  0
 22 43  1  0  0  0  0
 22 44  1  0  0  0  0
 22 45  1  0  0  0  0
 23 26  1  0  0  0  0
 23 46  1  0  0  0  0
 24 27  1  0  0  0  0
 24 47  1  0  0  0  0
 25 48  1  0  0  0  0
 25 49  1  0  0  0  0
 25 50  1  0  0  0  0
 26 27  2  0  0  0  0
 26 51  1  0  0  0  0
 27 52  1  0  0  0  0
M  END
> <PUBCHEM_COMPOUND_CID>
662288

> <PUBCHEM_CONFORMER_RMSD>
0.8

> <PUBCHEM_CONFORMER_DIVERSEORDER>
1
73
116
96
94
71
48
124
72
38
78
32
109
104
64
66
99
87
35
103
52
121
119
25
115
75
102
6
117
108
60
101
4
123
112
62
56
120
68
9
98
81
18
88
7
97
29
76
83
122
51
95
59
26
53
107
12
5
67
111
46
82
90
22
118
19
47
34
3
85
91
61
45
27
86
16
63
58
105
31
2
14
55
106
20
54
10
80
36
21
93
39
37
30
92
110
15
50
23
8
84
49
17
42
100
113
44
69
114
43
41
65
57
11
74
24
89
28
79
77
33
40
13
70

> <PUBCHEM_MMFF94_PARTIAL_CHARGES>
29
1 -0.56
10 0.26
12 0.28
13 0.11
14 -0.07
15 -0.09
16 0.26
17 0.72
18 0.3
19 0.31
2 -0.57
20 0.31
23 -0.15
24 -0.15
26 -0.15
27 -0.15
3 0.05
38 0.4
39 0.4
4 -0.57
40 0.37
46 0.15
47 0.15
5 -0.88
51 0.15
52 0.15
6 -0.57
7 -0.73
8 0.28

> <PUBCHEM_EFFECTIVE_ROTOR_COUNT>
7

> <PUBCHEM_PHARMACOPHORE_FEATURES>
12
1 1 acceptor
1 2 acceptor
1 25 hydrophobe
1 5 cation
1 5 donor
1 6 acceptor
1 7 donor
3 3 4 13 cation
5 1 8 9 11 12 rings
5 3 13 14 15 16 rings
6 19 20 23 24 26 27 rings
6 4 6 13 16 19 20 rings

> <PUBCHEM_HEAVY_ATOM_COUNT>
27

> <PUBCHEM_ATOM_DEF_STEREO_COUNT>
0

> <PUBCHEM_ATOM_UDEF_STEREO_COUNT>
2

> <PUBCHEM_BOND_DEF_STEREO_COUNT>
0

> <PUBCHEM_BOND_UDEF_STEREO_COUNT>
0

> <PUBCHEM_ISOTOPIC_ATOM_COUNT>
0

> <PUBCHEM_COMPONENT_COUNT>
1

> <PUBCHEM_CACTVS_TAUTO_COUNT>
7

> <PUBCHEM_CONFORMER_ID>
000A1B1000000001

> <PUBCHEM_MMFF94_ENERGY>
53.8791

> <PUBCHEM_FEATURE_SELFOVERLAP>
61.068

> <PUBCHEM_SHAPE_FINGERPRINT>
10006869 2 17977939095417161243
10074138 170 17686871970085009944
10162869 55 18273217513751195099
10411042 1 18411131450458509607
10670039 82 18337680711850026166
10675989 125 16605178877984944901
1100329 8 18267306628068287070
12107183 9 18340780290905344233
12553582 1 18340196470993830630
12788726 201 18261674783824685650
13140716 1 17978507538154063370
13540713 4 17841706306296303310
13590594 115 18411139147435348081
138480 1 14808818650032860077
13899415 154 18337403737202579486
13965767 371 17194357805982505027
14363568 33 18264772245107763401
14739800 52 16986027079710253905
14787075 74 18113623395471185914
14790565 3 18339937007603244556
14849402 71 18193850464203893377
14955137 171 18338527437938804846
15042514 8 18266175024486768016
15420108 30 17843398750426301046
15475509 8 17915489196869562462
15685185 35 17317630999883107308
15775530 1 17483405114356577863
15840311 113 17561086951299789507
15927050 60 17619636121472046628
17492 89 18191018998683384770
17980427 23 17918281931267143073
1813 80 18343592853600342278
18785283 64 18121220045750512083
19319366 153 17968092088538890186
19427546 62 17329712020245850773
19591789 44 18339365265667346948
20642791 268 18059590074462612259
20642791 35 18196941183037241340
20739085 24 18340771541112644721
21041028 32 18409165502377546589
21049683 271 18043539510498506509
21641784 216 18114477677540952748
21796203 349 18047787967625150987
23558518 356 17974290915588702906
23559900 14 18265611177513280339
23845131 108 17329992391552941177
24771293 8 18058441187816864080
3091708 16 9210391752554924173
352729 6 17765139575958626814
3886686 26 16326216911902716985
4409770 3 18045490929464541245
469060 322 18340498776577400936
474 4 17836087041763478249
5047190 48 18053395296712651049
5104073 3 18194387906716264330
563151 97 8718286666064118558
6004065 56 18337665412850067219
79837 15 17619062833179357792
9777508 108 17763745394940248400
9981440 41 17549791435976482578

> <PUBCHEM_SHAPE_MULTIPOLES>
519
10.21
5.69
1.13
1.14
9.1
0.31
-9.8
3.21
-0.07
0.08
0.33
-0.56
-0.57

> <PUBCHEM_SHAPE_SELFOVERLAP>
1130.266

> <PUBCHEM_SHAPE_VOLUME>
282.7

> <PUBCHEM_COORDINATE_TYPE>
2
5
10

$$$$
