2732963
  -OEChem-01171811573D

 35 37  0     0  0  0  0  0  0999 V2000
   -2.8747   -2.3200    1.2572 Cl  0  0  0  0  0  0  0  0  0  0  0  0
    1.1223    1.8499   -1.5131 O   0  0  0  0  0  0  0  0  0  0  0  0
    2.6770    2.4875    1.0070 O   0  0  0  0  0  0  0  0  0  0  0  0
    0.9741   -1.1609   -1.5155 O   0  0  0  0  0  0  0  0  0  0  0  0
   -1.3315    0.2811   -1.2341 O   0  0  0  0  0  0  0  0  0  0  0  0
    0.1603    0.9789    0.4045 N   0  0  0  0  0  0  0  0  0  0  0  0
    1.3306    1.0060   -0.4165 C   0  0  0  0  0  0  0  0  0  0  0  0
    3.5236    0.3635    0.3462 C   0  0  0  0  0  0  0  0  0  0  0  0
    3.0236   -0.7071   -0.3939 C   0  0  0  0  0  0  0  0  0  0  0  0
    2.5347    1.4440    0.3988 C   0  0  0  0  0  0  0  0  0  0  0  0
    1.6737   -0.3994   -0.8753 C   0  0  0  0  0  0  0  0  0  0  0  0
    4.7790    0.3248    0.9209 C   0  0  0  0  0  0  0  0  0  0  0  0
    3.7592   -1.8597   -0.5897 C   0  0  0  0  0  0  0  0  0  0  0  0
   -1.0982    0.6133   -0.0747 C   0  0  0  0  0  0  0  0  0  0  0  0
   -2.1570    0.6676    1.0097 C   0  0  0  0  0  0  0  0  0  0  0  0
    5.5378   -0.8333    0.7307 C   0  0  0  0  0  0  0  0  0  0  0  0
    5.0330   -1.9147   -0.0173 C   0  0  0  0  0  0  0  0  0  0  0  0
   -3.5178    0.2289    0.5375 C   0  0  0  0  0  0  0  0  0  0  0  0
   -3.9141   -1.1001    0.6161 C   0  0  0  0  0  0  0  0  0  0  0  0
   -4.3699    1.1958    0.0180 C   0  0  0  0  0  0  0  0  0  0  0  0
   -5.1825   -1.4686    0.1681 C   0  0  0  0  0  0  0  0  0  0  0  0
   -5.6385    0.8273   -0.4298 C   0  0  0  0  0  0  0  0  0  0  0  0
   -6.0447   -0.5050   -0.3548 C   0  0  0  0  0  0  0  0  0  0  0  0
    0.2466    1.2511    1.3801 H   0  0  0  0  0  0  0  0  0  0  0  0
    5.1699    1.1545    1.4987 H   0  0  0  0  0  0  0  0  0  0  0  0
    3.3730   -2.6947   -1.1630 H   0  0  0  0  0  0  0  0  0  0  0  0
   -2.2136    1.7059    1.3647 H   0  0  0  0  0  0  0  0  0  0  0  0
   -1.8229    0.0897    1.8784 H   0  0  0  0  0  0  0  0  0  0  0  0
    1.9287    1.8510   -2.0567 H   0  0  0  0  0  0  0  0  0  0  0  0
    6.5313   -0.9030    1.1662 H   0  0  0  0  0  0  0  0  0  0  0  0
    5.6438   -2.8041   -0.1488 H   0  0  0  0  0  0  0  0  0  0  0  0
   -4.0654    2.2366   -0.0491 H   0  0  0  0  0  0  0  0  0  0  0  0
   -5.5144   -2.5026    0.2195 H   0  0  0  0  0  0  0  0  0  0  0  0
   -6.3096    1.5775   -0.8378 H   0  0  0  0  0  0  0  0  0  0  0  0
   -7.0324   -0.7918   -0.7039 H   0  0  0  0  0  0  0  0  0  0  0  0
  1 19  1  0  0  0  0
  2  7  1  0  0  0  0
  2 29  1  0  0  0  0
  3 10  2  0  0  0  0
  4 11  2  0  0  0  0
  5 14  2  0  0  0  0
  6  7  1  0  0  0  0
  6 14  1  0  0  0  0
  6 24  1  0  0  0  0
  7 10  1  0  0  0  0
  7 11  1  0  0  0  0
  8  9  1  0  0  0  0
  8 10  1  0  0  0  0
  8 12  2  0  0  0  0
  9 11  1  0  0  0  0
  9 13  2  0  0  0  0
 12 16  1  0  0  0  0
 12 25  1  0  0  0  0
 13 17  1  0  0  0  0
 13 26  1  0  0  0  0
 14 15  1  0  0  0  0
 15 18  1  0  0  0  0
 15 27  1  0  0  0  0
 15 28  1  0  0  0  0
 16 17  2  0  0  0  0
 16 30  1  0  0  0  0
 17 31  1  0  0  0  0
 18 19  1  0  0  0  0
 18 20  2  0  0  0  0
 19 21  2  0  0  0  0
 20 22  1  0  0  0  0
 20 32  1  0  0  0  0
 21 23  1  0  0  0  0
 21 33  1  0  0  0  0
 22 23  2  0  0  0  0
 22 34  1  0  0  0  0
 23 35  1  0  0  0  0
M  END
> <PUBCHEM_COMPOUND_CID>
2732963

> <PUBCHEM_CONFORMER_RMSD>
0.8

> <PUBCHEM_CONFORMER_DIVERSEORDER>
1
13
45
26
47
16
28
10
22
46
49
42
4
39
30
40
9
48
8
32
41
3
15
27
7
2
37
18
35
29
12
36
14
20
23
6
34
19
31
11
5
44
17
24
43
21
38
25
33

> <PUBCHEM_MMFF94_PARTIAL_CHARGES>
33
1 -0.18
10 0.42
11 0.42
12 -0.15
13 -0.15
14 0.57
15 0.2
16 -0.15
17 -0.15
18 -0.14
19 0.18
2 -0.68
20 -0.15
21 -0.15
22 -0.15
23 -0.15
24 0.37
25 0.15
26 0.15
29 0.4
3 -0.57
30 0.15
31 0.15
32 0.15
33 0.15
34 0.15
35 0.15
4 -0.57
5 -0.57
6 -0.73
7 0.7
8 0.09
9 0.09

> <PUBCHEM_EFFECTIVE_ROTOR_COUNT>
4.2

> <PUBCHEM_PHARMACOPHORE_FEATURES>
9
1 2 acceptor
1 2 donor
1 3 acceptor
1 4 acceptor
1 5 acceptor
1 6 donor
5 7 8 9 10 11 rings
6 18 19 20 21 22 23 rings
6 8 9 12 13 16 17 rings

> <PUBCHEM_HEAVY_ATOM_COUNT>
23

> <PUBCHEM_ATOM_DEF_STEREO_COUNT>
0

> <PUBCHEM_ATOM_UDEF_STEREO_COUNT>
0

> <PUBCHEM_BOND_DEF_STEREO_COUNT>
0

> <PUBCHEM_BOND_UDEF_STEREO_COUNT>
0

> <PUBCHEM_ISOTOPIC_ATOM_COUNT>
0

> <PUBCHEM_COMPONENT_COUNT>
1

> <PUBCHEM_CACTVS_TAUTO_COUNT>
2

> <PUBCHEM_CONFORMER_ID>
0029B3A300000001

> <PUBCHEM_MMFF94_ENERGY>
63.1699

> <PUBCHEM_FEATURE_SELFOVERLAP>
45.81

> <PUBCHEM_SHAPE_FINGERPRINT>
10 15 18201424905819346848
10498660 4 11455620837592546931
10835480 77 18412818110244473633
11045977 3 18411700993365857482
11370993 70 18411139160494472563
11405975 8 18410582790383300873
11595378 159 13973694879739644355
11796584 16 17894632552028007954
12236239 1 16773791493926502981
12596602 18 15482669074279479847
12616971 3 17346596400612500821
12916748 109 11527944556319936786
13402501 40 18335140869000092898
13533116 47 18342739641393774515
13583140 156 18129100202837615425
13911852 28 18125439714018034462
14341114 176 18059858363541447530
14341114 328 15769773567519114682
14790565 3 17400644217505294652
14848160 23 18413386531959206499
15183329 4 17603862282984161451
15788980 27 18411702093077678827
1601671 61 8070025554008839430
16752209 62 16008738096337932837
17349148 13 18272657848408005161
17492 89 17679877174037101779
17857418 61 18410011026792952067
1813 80 17821449041314649404
18222031 100 18261682489101171804
19141452 34 18260831501260694083
19377110 9 16558758918677722179
19489759 90 18409728439968207961
19784866 140 13334733505551462126
200 152 17846497024375926889
20028762 73 17917709102035471326
20645477 70 18201722846672086695
21033648 29 16987418837754790201
21065201 7 17967810574664244185
21267235 1 18130790006861075014
21637258 2 17313095308011719050
21682296 61 17559688230612158158
21859007 373 17896580835530942261
22224240 67 18272359902764562146
23402539 116 18334852801833788181
23402655 69 11530483332889442920
23559900 14 18409444821576223385
23622692 88 17560797736739198628
26918003 58 18341892982964714401
3004659 81 17894917317329273590
351380 180 18342458144947716355
4015057 19 18271514412514060305
4073 2 18260832643437100275
4214541 1 18411138013796135889
44062 13 17822296833631393483
465052 167 18343585123170879718
5104073 3 18271815648429195345
5283173 99 18339638937384806449
542803 24 8430316835902886497
559249 180 18259701177859413595
59755656 215 17968650528522897135
633830 44 16371009662950401473
6442390 28 11312054348467956597
67856867 119 18130503136582826241
960060 61 17385732387147051238
9709674 26 18263650730926694883
9971528 1 17968095356196489325

> <PUBCHEM_SHAPE_MULTIPOLES>
446.74
13.97
2.11
1.15
6.63
0.27
-0.11
4.35
1.4
-0.6
0.26
-0.24
0.01
0.99

> <PUBCHEM_SHAPE_SELFOVERLAP>
978.61

> <PUBCHEM_SHAPE_VOLUME>
241.6

> <PUBCHEM_COORDINATE_TYPE>
2
5
10

$$$$
