2407446
  -OEChem-01171811463D

 33 35  0     0  0  0  0  0  0999 V2000
    5.4497   -2.5658    0.6999 Cl  0  0  0  0  0  0  0  0  0  0  0  0
   -0.1588    3.5715   -0.9186 S   0  0  0  0  0  0  0  0  0  0  0  0
   -0.2103    1.0017    0.0566 N   0  0  0  0  0  0  0  0  0  0  0  0
    1.8811    1.9990   -0.4435 N   0  0  0  0  0  0  0  0  0  0  0  0
   -3.4501   -2.8807   -0.6805 N   0  0  0  0  0  0  0  0  0  0  0  0
   -2.1868   -0.4399   -0.0694 C   0  0  0  0  0  0  0  0  0  0  0  0
   -1.5813    0.7879    0.2443 C   0  0  0  0  0  0  0  0  0  0  0  0
   -3.5724   -0.5954    0.1418 C   0  0  0  0  0  0  0  0  0  0  0  0
   -2.3382    1.8423    0.7582 C   0  0  0  0  0  0  0  0  0  0  0  0
   -4.3244    0.4724    0.6594 C   0  0  0  0  0  0  0  0  0  0  0  0
   -1.4554   -1.5158   -0.5856 C   0  0  0  0  0  0  0  0  0  0  0  0
   -3.7066    1.6849    0.9652 C   0  0  0  0  0  0  0  0  0  0  0  0
   -4.1391   -1.8298   -0.1814 C   0  0  0  0  0  0  0  0  0  0  0  0
    0.5025    2.1241   -0.3635 C   0  0  0  0  0  0  0  0  0  0  0  0
    2.7378    0.9037   -0.1688 C   0  0  0  0  0  0  0  0  0  0  0  0
   -2.1262   -2.6956   -0.8693 C   0  0  0  0  0  0  0  0  0  0  0  0
    3.9461    0.8075   -0.8363 C   0  0  0  0  0  0  0  0  0  0  0  0
    2.3453   -0.0439    0.7603 C   0  0  0  0  0  0  0  0  0  0  0  0
    4.7889   -0.2707   -0.5664 C   0  0  0  0  0  0  0  0  0  0  0  0
    3.1881   -1.1221    1.0305 C   0  0  0  0  0  0  0  0  0  0  0  0
    4.4100   -1.2354    0.3671 C   0  0  0  0  0  0  0  0  0  0  0  0
   -1.8949    2.7748    1.0907 H   0  0  0  0  0  0  0  0  0  0  0  0
   -5.3929    0.3650    0.8313 H   0  0  0  0  0  0  0  0  0  0  0  0
    0.2926    0.1438   -0.1113 H   0  0  0  0  0  0  0  0  0  0  0  0
   -0.3921   -1.4863   -0.7904 H   0  0  0  0  0  0  0  0  0  0  0  0
   -4.2905    2.4999    1.3830 H   0  0  0  0  0  0  0  0  0  0  0  0
   -5.2006   -2.0160   -0.0431 H   0  0  0  0  0  0  0  0  0  0  0  0
    2.3370    2.7712   -0.9254 H   0  0  0  0  0  0  0  0  0  0  0  0
   -1.5947   -3.5515   -1.2729 H   0  0  0  0  0  0  0  0  0  0  0  0
    4.2495    1.5532   -1.5658 H   0  0  0  0  0  0  0  0  0  0  0  0
    1.4755    0.0510    1.3997 H   0  0  0  0  0  0  0  0  0  0  0  0
    5.7377   -0.3463   -1.0912 H   0  0  0  0  0  0  0  0  0  0  0  0
    2.8928   -1.8524    1.7797 H   0  0  0  0  0  0  0  0  0  0  0  0
  1 21  1  0  0  0  0
  2 14  2  0  0  0  0
  3  7  1  0  0  0  0
  3 14  1  0  0  0  0
  3 24  1  0  0  0  0
  4 14  1  0  0  0  0
  4 15  1  0  0  0  0
  4 28  1  0  0  0  0
  5 13  2  0  0  0  0
  5 16  1  0  0  0  0
  6  7  1  0  0  0  0
  6  8  2  0  0  0  0
  6 11  1  0  0  0  0
  7  9  2  0  0  0  0
  8 10  1  0  0  0  0
  8 13  1  0  0  0  0
  9 12  1  0  0  0  0
  9 22  1  0  0  0  0
 10 12  2  0  0  0  0
 10 23  1  0  0  0  0
 11 16  2  0  0  0  0
 11 25  1  0  0  0  0
 12 26  1  0  0  0  0
 13 27  1  0  0  0  0
 15 17  2  0  0  0  0
 15 18  1  0  0  0  0
 16 29  1  0  0  0  0
 17 19  1  0  0  0  0
 17 30  1  0  0  0  0
 18 20  2  0  0  0  0
 18 31  1  0  0  0  0
 19 21  2  0  0  0  0
 19 32  1  0  0  0  0
 20 21  1  0  0  0  0
 20 33  1  0  0  0  0
M  END
> <PUBCHEM_COMPOUND_CID>
2407446

> <PUBCHEM_CONFORMER_RMSD>
0.6

> <PUBCHEM_CONFORMER_DIVERSEORDER>
1
12
2
8
5
6
13
11
3
9
4
7
10

> <PUBCHEM_MMFF94_PARTIAL_CHARGES>
31
1 -0.18
10 -0.15
11 -0.15
12 -0.15
13 0.16
14 0.5
15 0.12
16 0.16
17 -0.15
18 -0.15
19 -0.15
2 -0.38
20 -0.15
21 0.18
22 0.15
23 0.15
24 0.37
25 0.15
26 0.15
27 0.15
28 0.37
29 0.15
3 -0.55
30 0.15
31 0.15
32 0.15
33 0.15
4 -0.55
5 -0.62
7 0.12
9 -0.15

> <PUBCHEM_EFFECTIVE_ROTOR_COUNT>
4

> <PUBCHEM_PHARMACOPHORE_FEATURES>
7
1 2 acceptor
1 3 donor
1 4 donor
1 5 acceptor
6 15 17 18 19 20 21 rings
6 5 6 8 11 13 16 rings
6 6 7 8 9 10 12 rings

> <PUBCHEM_HEAVY_ATOM_COUNT>
21

> <PUBCHEM_ATOM_DEF_STEREO_COUNT>
0

> <PUBCHEM_ATOM_UDEF_STEREO_COUNT>
0

> <PUBCHEM_BOND_DEF_STEREO_COUNT>
0

> <PUBCHEM_BOND_UDEF_STEREO_COUNT>
0

> <PUBCHEM_ISOTOPIC_ATOM_COUNT>
0

> <PUBCHEM_COMPONENT_COUNT>
1

> <PUBCHEM_CACTVS_TAUTO_COUNT>
3

> <PUBCHEM_CONFORMER_ID>
0024BC1600000001

> <PUBCHEM_MMFF94_ENERGY>
90.2766

> <PUBCHEM_FEATURE_SELFOVERLAP>
35.584

> <PUBCHEM_SHAPE_FINGERPRINT>
10062212 137 18343021142383161239
10369192 42 17199078348840536560
10616163 171 18342744052046112782
10622 236 18269539697524781423
11578080 2 18265029462046584412
12107183 9 18267872670334741480
12174731 88 17611169469796508738
12553582 1 18334288764942222568
12596599 1 18129679525264183402
12633257 1 17989213607369455800
13167823 11 18409733975648153152
14117953 113 18195243317565538549
14420673 8 18198630921666169806
15099037 8 18268430324894069197
15196674 1 18411138047802192954
15420108 30 17910956838711253665
15442244 35 18339644546063130917
15537594 2 18261689116040471954
16110190 28 18341328912536668138
17349148 13 18131631223012631397
17492 89 18194120939558855979
17780758 139 18201147751078757674
17804303 29 18202566198097966353
17818456 19 18271818916768094385
19141452 34 18340488867761138497
20261772 1 18410581651842258584
20281475 54 18409728465442761964
20291156 8 18410291458076636028
21634736 98 18193839477155271660
2255824 54 17829047954741735700
22950370 63 18335145284547596340
235170 7 14634871929242392826
23559900 14 18131066090593935544
23598288 3 17607231070268008472
23598291 2 18264779928920307437
23728640 28 18273498979193504379
339767 52 18338221752278510042
397830 11 18127948881974357994
4409770 3 17972870367734608517
5104073 3 18272937149661792432
5385378 56 17696487187224259761
559249 180 18336262319409935603
56633871 153 18340771433828659235
6823239 73 17702126753981797724
7064713 232 18130225939240022546
7097593 13 18267586982153407565
7970288 3 18408037433534104682
9709674 26 18120375616504145035

> <PUBCHEM_SHAPE_MULTIPOLES>
422.95
10.7
3.61
1.01
8.39
0.49
0.03
-6.59
1.55
-1.25
-1
0.04
0.02
-2.05

> <PUBCHEM_SHAPE_SELFOVERLAP>
906.178

> <PUBCHEM_SHAPE_VOLUME>
236

> <PUBCHEM_COORDINATE_TYPE>
2
5
10

$$$$
