3370466
  -OEChem-01171812123D

 63 67  0     1  0  0  0  0  0999 V2000
   -4.5910   -1.3514   -0.4239 S   0  0  0  0  0  0  0  0  0  0  0  0
    2.7397    1.3455    1.7988 O   0  0  0  0  0  0  0  0  0  0  0  0
    2.1029    2.7238   -2.5507 O   0  0  0  0  0  0  0  0  0  0  0  0
   -5.4681   -1.9756    0.5547 O   0  0  0  0  0  0  0  0  0  0  0  0
   -4.9490   -1.3656   -1.8340 O   0  0  0  0  0  0  0  0  0  0  0  0
   -0.2171    0.8216   -0.3754 O   0  0  0  0  0  0  0  0  0  0  0  0
    3.7545    1.4356   -1.5257 N   0  0  0  0  0  0  0  0  0  0  0  0
    2.0875    2.2182   -0.2659 N   0  0  0  0  0  0  0  0  0  0  0  0
   -3.0127   -1.9963   -0.2475 N   0  0  0  0  0  0  0  0  0  0  0  0
   -1.4858    2.6454    0.3879 N   0  0  0  0  0  0  0  0  0  0  0  0
    4.0667    0.9478   -0.2078 C   0  0  2  0  0  0  0  0  0  0  0  0
    5.4315    1.4413    0.3041 C   0  0  0  0  0  0  0  0  0  0  0  0
    4.2033   -0.5400   -0.1032 C   0  0  0  0  0  0  0  0  0  0  0  0
    5.9605    0.3521    1.2538 C   0  0  0  0  0  0  0  0  0  0  0  0
    5.2882   -0.8736    0.7184 C   0  0  0  0  0  0  0  0  0  0  0  0
    2.8998    1.5109    0.5965 C   0  0  0  0  0  0  0  0  0  0  0  0
    2.5819    2.1939   -1.5565 C   0  0  0  0  0  0  0  0  0  0  0  0
    3.4108   -1.5286   -0.6670 C   0  0  0  0  0  0  0  0  0  0  0  0
    5.5988   -2.1952    0.9933 C   0  0  0  0  0  0  0  0  0  0  0  0
   -2.7034   -2.5648    1.0977 C   0  0  0  0  0  0  0  0  0  0  0  0
   -2.5640   -2.8935   -1.3531 C   0  0  0  0  0  0  0  0  0  0  0  0
    0.8753    2.9068    0.1301 C   0  0  0  0  0  0  0  0  0  0  0  0
   -1.1990   -2.7776    1.2297 C   0  0  0  0  0  0  0  0  0  0  0  0
   -1.0577   -3.1120   -1.2557 C   0  0  0  0  0  0  0  0  0  0  0  0
   -0.6641   -3.6668    0.1105 C   0  0  0  0  0  0  0  0  0  0  0  0
    3.7244   -2.8638   -0.4041 C   0  0  0  0  0  0  0  0  0  0  0  0
    4.8108   -3.1948    0.4198 C   0  0  0  0  0  0  0  0  0  0  0  0
   -4.3242    0.3092    0.0605 C   0  0  0  0  0  0  0  0  0  0  0  0
   -0.3219    1.9816    0.0095 C   0  0  0  0  0  0  0  0  0  0  0  0
   -5.3820    1.1208    0.4703 C   0  0  0  0  0  0  0  0  0  0  0  0
   -3.0255    0.8174    0.0324 C   0  0  0  0  0  0  0  0  0  0  0  0
   -2.8034    2.1298    0.4146 C   0  0  0  0  0  0  0  0  0  0  0  0
   -5.1410    2.4406    0.8522 C   0  0  0  0  0  0  0  0  0  0  0  0
   -3.8424    2.9488    0.8242 C   0  0  0  0  0  0  0  0  0  0  0  0
   -6.7843    0.6085    0.5116 C   0  0  0  0  0  0  0  0  0  0  0  0
    5.3838    2.4168    0.8009 H   0  0  0  0  0  0  0  0  0  0  0  0
    6.1333    1.5449   -0.5359 H   0  0  0  0  0  0  0  0  0  0  0  0
    7.0511    0.2827    1.2101 H   0  0  0  0  0  0  0  0  0  0  0  0
    5.6389    0.5372    2.2839 H   0  0  0  0  0  0  0  0  0  0  0  0
    4.3137    1.2420   -2.3508 H   0  0  0  0  0  0  0  0  0  0  0  0
    2.5619   -1.2798   -1.2952 H   0  0  0  0  0  0  0  0  0  0  0  0
    6.4306   -2.4532    1.6400 H   0  0  0  0  0  0  0  0  0  0  0  0
   -3.2358   -3.5136    1.2315 H   0  0  0  0  0  0  0  0  0  0  0  0
   -3.0285   -1.8702    1.8798 H   0  0  0  0  0  0  0  0  0  0  0  0
   -2.7716   -2.4325   -2.3238 H   0  0  0  0  0  0  0  0  0  0  0  0
   -3.0998   -3.8478   -1.2967 H   0  0  0  0  0  0  0  0  0  0  0  0
   -0.6871   -1.8076    1.1953 H   0  0  0  0  0  0  0  0  0  0  0  0
   -0.9716   -3.2285    2.2019 H   0  0  0  0  0  0  0  0  0  0  0  0
   -0.7300   -3.7995   -2.0432 H   0  0  0  0  0  0  0  0  0  0  0  0
   -0.5376   -2.1598   -1.4207 H   0  0  0  0  0  0  0  0  0  0  0  0
    0.4265   -3.7400    0.1826 H   0  0  0  0  0  0  0  0  0  0  0  0
   -1.0641   -4.6817    0.2242 H   0  0  0  0  0  0  0  0  0  0  0  0
    0.7229    3.7733   -0.5218 H   0  0  0  0  0  0  0  0  0  0  0  0
    0.9691    3.2337    1.1711 H   0  0  0  0  0  0  0  0  0  0  0  0
    3.1177   -3.6551   -0.8364 H   0  0  0  0  0  0  0  0  0  0  0  0
    5.0357   -4.2393    0.6179 H   0  0  0  0  0  0  0  0  0  0  0  0
   -2.2343    0.1862   -0.3296 H   0  0  0  0  0  0  0  0  0  0  0  0
   -1.3959    3.6156    0.6826 H   0  0  0  0  0  0  0  0  0  0  0  0
   -5.9532    3.0861    1.1761 H   0  0  0  0  0  0  0  0  0  0  0  0
   -3.6653    3.9778    1.1244 H   0  0  0  0  0  0  0  0  0  0  0  0
   -7.0491    0.0769   -0.4076 H   0  0  0  0  0  0  0  0  0  0  0  0
   -6.9338   -0.0407    1.3796 H   0  0  0  0  0  0  0  0  0  0  0  0
   -7.5026    1.4322    0.5990 H   0  0  0  0  0  0  0  0  0  0  0  0
  1  4  2  0  0  0  0
  1  5  2  0  0  0  0
  1  9  1  0  0  0  0
  1 28  1  0  0  0  0
  2 16  2  0  0  0  0
  3 17  2  0  0  0  0
  6 29  2  0  0  0  0
  7 11  1  0  0  0  0
  7 17  1  0  0  0  0
  7 40  1  0  0  0  0
  8 16  1  0  0  0  0
  8 17  1  0  0  0  0
  8 22  1  0  0  0  0
  9 20  1  0  0  0  0
  9 21  1  0  0  0  0
 10 29  1  0  0  0  0
 10 32  1  0  0  0  0
 10 58  1  0  0  0  0
 11 12  1  0  0  0  0
 11 13  1  0  0  0  0
 11 16  1  0  0  0  0
 12 14  1  0  0  0  0
 12 36  1  0  0  0  0
 12 37  1  0  0  0  0
 13 15  1  0  0  0  0
 13 18  2  0  0  0  0
 14 15  1  0  0  0  0
 14 38  1  0  0  0  0
 14 39  1  0  0  0  0
 15 19  2  0  0  0  0
 18 26  1  0  0  0  0
 18 41  1  0  0  0  0
 19 27  1  0  0  0  0
 19 42  1  0  0  0  0
 20 23  1  0  0  0  0
 20 43  1  0  0  0  0
 20 44  1  0  0  0  0
 21 24  1  0  0  0  0
 21 45  1  0  0  0  0
 21 46  1  0  0  0  0
 22 29  1  0  0  0  0
 22 53  1  0  0  0  0
 22 54  1  0  0  0  0
 23 25  1  0  0  0  0
 23 47  1  0  0  0  0
 23 48  1  0  0  0  0
 24 25  1  0  0  0  0
 24 49  1  0  0  0  0
 24 50  1  0  0  0  0
 25 51  1  0  0  0  0
 25 52  1  0  0  0  0
 26 27  2  0  0  0  0
 26 55  1  0  0  0  0
 27 56  1  0  0  0  0
 28 30  2  0  0  0  0
 28 31  1  0  0  0  0
 30 33  1  0  0  0  0
 30 35  1  0  0  0  0
 31 32  2  0  0  0  0
 31 57  1  0  0  0  0
 32 34  1  0  0  0  0
 33 34  2  0  0  0  0
 33 59  1  0  0  0  0
 34 60  1  0  0  0  0
 35 61  1  0  0  0  0
 35 62  1  0  0  0  0
 35 63  1  0  0  0  0
M  END
> <PUBCHEM_COMPOUND_CID>
3370466

> <PUBCHEM_CONFORMER_RMSD>
1

> <PUBCHEM_CONFORMER_DIVERSEORDER>
1
192
8
186
95
184
54
188
59
153
171
113
52
172
106
91
51
55
164
31
169
97
120
63
84
148
195
104
112
105
141
65
162
205
10
134
201
16
35
173
166
125
101
5
67
78
189
159
26
149
115
183
22
82
206
100
147
49
64
41
11
203
103
13
161
158
198
98
180
68
135
109
117
190
168
39
194
96
119
108
85
17
212
145
71
123
93
133
14
177
80
34
40
143
2
72
155
24
122
66
127
75
209
88
6
111
175
124
79
33
131
132
36
163
83
118
42
121
18
87
139
38
7
179
178
30
19
144
77
185
130
152
62
199
3
182
191
142
211
129
204
167
150
70
102
146
61
37
28
53
73
157
57
136
213
44
90
114
170
214
27
176
196
154
210
58
174
23
193
45
197
69
116
60
92
110
181
56
76
126
81
46
140
202
208
25
160
107
50
21
200
86
48
207
94
99
12
156
47
9
20
128
137
15
138
151
187
165
74
32
43
4
89
29

> <PUBCHEM_MMFF94_PARTIAL_CHARGES>
40
1 1.45
10 -0.55
11 0.5
13 -0.14
14 0.14
15 -0.14
16 0.57
17 0.69
18 -0.15
19 -0.15
2 -0.57
20 0.36
21 0.36
22 0.36
26 -0.15
27 -0.15
28 -0.01
29 0.57
3 -0.57
30 -0.14
31 -0.15
32 0.12
33 -0.15
34 -0.15
35 0.14
4 -0.65
40 0.37
41 0.15
42 0.15
5 -0.65
55 0.15
56 0.15
57 0.15
58 0.37
59 0.15
6 -0.57
60 0.15
7 -0.73
8 -0.42
9 -0.85

> <PUBCHEM_EFFECTIVE_ROTOR_COUNT>
8

> <PUBCHEM_PHARMACOPHORE_FEATURES>
12
1 10 donor
1 2 acceptor
1 3 acceptor
1 4 acceptor
1 5 acceptor
1 6 acceptor
1 7 donor
5 11 12 13 14 15 rings
5 7 8 11 16 17 rings
6 13 15 18 19 26 27 rings
6 28 30 31 32 33 34 rings
6 9 20 21 23 24 25 rings

> <PUBCHEM_HEAVY_ATOM_COUNT>
35

> <PUBCHEM_ATOM_DEF_STEREO_COUNT>
0

> <PUBCHEM_ATOM_UDEF_STEREO_COUNT>
1

> <PUBCHEM_BOND_DEF_STEREO_COUNT>
0

> <PUBCHEM_BOND_UDEF_STEREO_COUNT>
0

> <PUBCHEM_ISOTOPIC_ATOM_COUNT>
0

> <PUBCHEM_COMPONENT_COUNT>
1

> <PUBCHEM_CACTVS_TAUTO_COUNT>
4

> <PUBCHEM_CONFORMER_ID>
00336DE200000001

> <PUBCHEM_MMFF94_ENERGY>
84.5692

> <PUBCHEM_FEATURE_SELFOVERLAP>
61.012

> <PUBCHEM_SHAPE_FINGERPRINT>
10439779 11 18341322392644372850
10864689 126 17475803052217342118
10939801 23 18341612689462862032
11135926 11 18189615128292393028
11513181 2 18131634452295990166
11756154 67 18049730616321351126
12422481 6 18059290959575247326
13402501 40 18341050722513665130
14289585 56 17241039895026107877
14394314 77 18342177773888955553
144659 178 18410298016645295012
14725015 67 17903638480273284682
15001296 14 18334012795802245353
15250474 111 18339078301811641724
15274700 259 17027676245965085981
15320467 1 18267865175648665898
15439362 3 17399791602389508245
15799311 1 18339938072665450256
15968369 153 18272656774787773315
16112460 7 18271538489440975401
16628084 112 18336826494336404271
17627616 140 17970620780039967067
17818456 19 18413108368064534541
17857418 61 18412824689880779965
19958102 18 18334566963180763517
20764821 26 18338248101702528006
21133410 171 17121362641727309790
21133410 90 17203320130664537642
21703447 108 17626935723123741265
3383291 50 18338231695508329963
338550 245 18408326587710983916
3388396 114 17192051467956397308
3680242 22 18337681801790614947
373842 8 18410016511471808163
4073 2 18338799026248947136
4144715 1 18336274495648566499
437795 70 17982472403297175062
45266715 3 17695593606171196415
460360 51 18263384579781334155
463206 1 18409450301690625512
5085150 59 18271519815456019245
5309563 4 17400933388414546890
6437827 68 18411982433935259739

> <PUBCHEM_SHAPE_MULTIPOLES>
674.86
15.45
4.96
1.41
1.25
2.04
-0.51
0.8
3.31
0.62
-0.36
-0.51
-0.16
-1.96

> <PUBCHEM_SHAPE_SELFOVERLAP>
1458.229

> <PUBCHEM_SHAPE_VOLUME>
372.6

> <PUBCHEM_COORDINATE_TYPE>
2
5
10

$$$$
