689491
  -OEChem-01171811523D

 18 19  0     0  0  0  0  0  0999 V2000
   -3.3162   -1.8133   -0.0016 Br  0  0  0  0  0  0  0  0  0  0  0  0
   -0.8184    3.3252   -0.0001 Br  0  0  0  0  0  0  0  0  0  0  0  0
    2.1593    1.5260   -0.0001 S   0  0  0  0  0  0  0  0  0  0  0  0
    1.9308   -1.1489   -0.0001 O   0  0  0  0  0  0  0  0  0  0  0  0
   -3.0549    1.2331    0.0001 O   0  0  0  0  0  0  0  0  0  0  0  0
    4.0629   -0.2895   -0.0006 O   0  0  0  0  0  0  0  0  0  0  0  0
    0.6548   -0.5856    0.0002 C   0  0  0  0  0  0  0  0  0  0  0  0
   -0.4790   -1.3842    0.0002 C   0  0  0  0  0  0  0  0  0  0  0  0
    0.5623    0.8021    0.0003 C   0  0  0  0  0  0  0  0  0  0  0  0
   -1.7275   -0.7606    0.0003 C   0  0  0  0  0  0  0  0  0  0  0  0
   -0.6724    1.4304    0.0004 C   0  0  0  0  0  0  0  0  0  0  0  0
   -1.8236    0.6387    0.0004 C   0  0  0  0  0  0  0  0  0  0  0  0
   -0.3311   -2.8704    0.0011 C   0  0  0  0  0  0  0  0  0  0  0  0
    2.8529   -0.1030   -0.0002 C   0  0  0  0  0  0  0  0  0  0  0  0
   -0.7923   -3.3025   -0.8934 H   0  0  0  0  0  0  0  0  0  0  0  0
    0.7128   -3.1991    0.0018 H   0  0  0  0  0  0  0  0  0  0  0  0
   -0.7933   -3.3016    0.8955 H   0  0  0  0  0  0  0  0  0  0  0  0
   -3.7338    0.5365    0.0001 H   0  0  0  0  0  0  0  0  0  0  0  0
  1 10  1  0  0  0  0
  2 11  1  0  0  0  0
  3  9  1  0  0  0  0
  3 14  1  0  0  0  0
  4  7  1  0  0  0  0
  4 14  1  0  0  0  0
  5 12  1  0  0  0  0
  5 18  1  0  0  0  0
  6 14  2  0  0  0  0
  7  8  2  0  0  0  0
  7  9  1  0  0  0  0
  8 10  1  0  0  0  0
  8 13  1  0  0  0  0
  9 11  2  0  0  0  0
 10 12  2  0  0  0  0
 11 12  1  0  0  0  0
 13 15  1  0  0  0  0
 13 16  1  0  0  0  0
 13 17  1  0  0  0  0
M  END
> <PUBCHEM_COMPOUND_CID>
689491

> <PUBCHEM_CONFORMER_RMSD>
0.4

> <PUBCHEM_CONFORMER_DIVERSEORDER>
1

> <PUBCHEM_MMFF94_PARTIAL_CHARGES>
15
1 -0.11
10 0.11
11 0.11
12 0.08
13 0.14
14 0.86
18 0.45
2 -0.11
3 -0.24
4 -0.23
5 -0.53
6 -0.57
7 0.08
8 -0.14
9 0.1

> <PUBCHEM_EFFECTIVE_ROTOR_COUNT>
0

> <PUBCHEM_PHARMACOPHORE_FEATURES>
5
1 1 hydrophobe
1 2 hydrophobe
1 5 donor
5 3 4 7 9 14 rings
6 7 8 9 10 11 12 rings

> <PUBCHEM_HEAVY_ATOM_COUNT>
14

> <PUBCHEM_ATOM_DEF_STEREO_COUNT>
0

> <PUBCHEM_ATOM_UDEF_STEREO_COUNT>
0

> <PUBCHEM_BOND_DEF_STEREO_COUNT>
0

> <PUBCHEM_BOND_UDEF_STEREO_COUNT>
0

> <PUBCHEM_ISOTOPIC_ATOM_COUNT>
0

> <PUBCHEM_COMPONENT_COUNT>
1

> <PUBCHEM_CACTVS_TAUTO_COUNT>
6

> <PUBCHEM_CONFORMER_ID>
000A855300000001

> <PUBCHEM_MMFF94_ENERGY>
34.3842

> <PUBCHEM_FEATURE_SELFOVERLAP>
25.447

> <PUBCHEM_SHAPE_FINGERPRINT>
108231 29 18341612684772132689
10967382 1 18266458698417954501
11132069 177 18342454828953220144
12032990 46 18338520853648191571
13140716 1 18410856555608787673
13380535 76 18265893558184245015
14614273 12 18044934567410761749
15042514 8 18409167709890938770
16945 1 18194402195380931973
193761 8 17834395618558278119
20510252 161 18343021094832572664
20588541 1 18340489946072008905
20871998 184 18273215304671117183
21029758 11 18269268135542786909
21029758 27 18189344635192986597
21501502 16 18338802328672264572
221490 88 17471852979918655063
2334 1 18338797930789199309
23402539 116 18271516593576711999
23419403 2 15898331911871513723
23463225 33 18408604794222785470
23557571 272 18200043966196139164
23559900 14 18343302553478447484
241688 4 18410572911610288945
2748010 2 18411415146165056989
43471831 8 18334853866527202954
528886 8 18411131403260874385
7364860 26 17764028364623872833
81228 2 18339654402944217872

> <PUBCHEM_SHAPE_MULTIPOLES>
286.24
4.81
3.27
0.62
1.14
1.84
0
-1.88
0
-0.9
0
-0.04
0.03
0

> <PUBCHEM_SHAPE_SELFOVERLAP>
580.617

> <PUBCHEM_SHAPE_VOLUME>
174.1

> <PUBCHEM_COORDINATE_TYPE>
2
5
10

$$$$
