2472561
  -OEChem-01171812043D

 50 51  0     0  0  0  0  0  0999 V2000
    4.9992    3.0863   -1.2249 Cl  0  0  0  0  0  0  0  0  0  0  0  0
   -4.7763   -0.1183   -0.3086 O   0  0  0  0  0  0  0  0  0  0  0  0
    2.2061   -2.6610   -1.3972 O   0  0  0  0  0  0  0  0  0  0  0  0
    2.0586   -3.3304    1.2966 O   0  0  0  0  0  0  0  0  0  0  0  0
   -0.3030    0.5635    1.9651 O   0  0  0  0  0  0  0  0  0  0  0  0
   -2.7148   -0.1317   -1.3764 N   0  0  0  0  0  0  0  0  0  0  0  0
   -1.3277    2.3767    0.9436 N   0  0  0  0  0  0  0  0  0  0  0  0
   -3.7432    2.6455    0.5389 C   0  0  0  0  0  0  0  0  0  0  0  0
   -3.7137    1.9915   -0.8437 C   0  0  0  0  0  0  0  0  0  0  0  0
   -2.6430    2.1538    1.4771 C   0  0  0  0  0  0  0  0  0  0  0  0
   -2.5595   -1.5662   -1.4453 C   0  0  0  0  0  0  0  0  0  0  0  0
   -3.8242    0.4761   -0.8066 C   0  0  0  0  0  0  0  0  0  0  0  0
   -1.3309   -2.0337   -0.7200 C   0  0  0  0  0  0  0  0  0  0  0  0
   -0.1161   -2.1335   -1.3981 C   0  0  0  0  0  0  0  0  0  0  0  0
   -1.4046   -2.3695    0.6319 C   0  0  0  0  0  0  0  0  0  0  0  0
    1.0251   -2.5688   -0.7245 C   0  0  0  0  0  0  0  0  0  0  0  0
    0.9513   -2.9044    0.6275 C   0  0  0  0  0  0  0  0  0  0  0  0
   -0.2485    1.5503    1.2358 C   0  0  0  0  0  0  0  0  0  0  0  0
   -0.2635   -2.8049    1.3057 C   0  0  0  0  0  0  0  0  0  0  0  0
    1.0517    1.9313    0.6263 C   0  0  0  0  0  0  0  0  0  0  0  0
    1.0779    2.6514   -0.5681 C   0  0  0  0  0  0  0  0  0  0  0  0
    2.2464    1.5684    1.2482 C   0  0  0  0  0  0  0  0  0  0  0  0
    2.2985    3.0087   -1.1404 C   0  0  0  0  0  0  0  0  0  0  0  0
    3.4672    1.9257    0.6758 C   0  0  0  0  0  0  0  0  0  0  0  0
    3.4932    2.6459   -0.5185 C   0  0  0  0  0  0  0  0  0  0  0  0
    2.1960   -2.2991   -2.7767 C   0  0  0  0  0  0  0  0  0  0  0  0
    1.8979   -3.6536    2.6765 C   0  0  0  0  0  0  0  0  0  0  0  0
   -4.7140    2.4531    1.0118 H   0  0  0  0  0  0  0  0  0  0  0  0
   -3.6599    3.7320    0.4125 H   0  0  0  0  0  0  0  0  0  0  0  0
   -2.8134    2.3070   -1.3830 H   0  0  0  0  0  0  0  0  0  0  0  0
   -4.5637    2.3570   -1.4329 H   0  0  0  0  0  0  0  0  0  0  0  0
   -2.7731    1.0908    1.7074 H   0  0  0  0  0  0  0  0  0  0  0  0
   -2.7000    2.6984    2.4260 H   0  0  0  0  0  0  0  0  0  0  0  0
   -2.4993   -1.8323   -2.5070 H   0  0  0  0  0  0  0  0  0  0  0  0
   -3.4486   -2.0706   -1.0499 H   0  0  0  0  0  0  0  0  0  0  0  0
   -1.9762    0.4391   -1.7769 H   0  0  0  0  0  0  0  0  0  0  0  0
   -1.1788    3.2445    0.4392 H   0  0  0  0  0  0  0  0  0  0  0  0
   -0.1189   -1.8559   -2.4468 H   0  0  0  0  0  0  0  0  0  0  0  0
   -2.3455   -2.2922    1.1705 H   0  0  0  0  0  0  0  0  0  0  0  0
   -0.3952   -3.0465    2.3546 H   0  0  0  0  0  0  0  0  0  0  0  0
    0.1710    2.9261   -1.0988 H   0  0  0  0  0  0  0  0  0  0  0  0
    2.2467    1.0099    2.1806 H   0  0  0  0  0  0  0  0  0  0  0  0
    2.3042    3.5639   -2.0750 H   0  0  0  0  0  0  0  0  0  0  0  0
    4.3903    1.6366    1.1717 H   0  0  0  0  0  0  0  0  0  0  0  0
    3.2159   -2.4337   -3.1521 H   0  0  0  0  0  0  0  0  0  0  0  0
    1.9445   -1.2419   -2.9147 H   0  0  0  0  0  0  0  0  0  0  0  0
    1.5518   -2.9623   -3.3640 H   0  0  0  0  0  0  0  0  0  0  0  0
    1.6054   -2.7769    3.2645 H   0  0  0  0  0  0  0  0  0  0  0  0
    1.2135   -4.4973    2.8165 H   0  0  0  0  0  0  0  0  0  0  0  0
    2.8768   -3.9734    3.0487 H   0  0  0  0  0  0  0  0  0  0  0  0
  1 25  1  0  0  0  0
  2 12  2  0  0  0  0
  3 16  1  0  0  0  0
  3 26  1  0  0  0  0
  4 17  1  0  0  0  0
  4 27  1  0  0  0  0
  5 18  2  0  0  0  0
  6 11  1  0  0  0  0
  6 12  1  0  0  0  0
  6 36  1  0  0  0  0
  7 10  1  0  0  0  0
  7 18  1  0  0  0  0
  7 37  1  0  0  0  0
  8  9  1  0  0  0  0
  8 10  1  0  0  0  0
  8 28  1  0  0  0  0
  8 29  1  0  0  0  0
  9 12  1  0  0  0  0
  9 30  1  0  0  0  0
  9 31  1  0  0  0  0
 10 32  1  0  0  0  0
 10 33  1  0  0  0  0
 11 13  1  0  0  0  0
 11 34  1  0  0  0  0
 11 35  1  0  0  0  0
 13 14  2  0  0  0  0
 13 15  1  0  0  0  0
 14 16  1  0  0  0  0
 14 38  1  0  0  0  0
 15 19  2  0  0  0  0
 15 39  1  0  0  0  0
 16 17  2  0  0  0  0
 17 19  1  0  0  0  0
 18 20  1  0  0  0  0
 19 40  1  0  0  0  0
 20 21  2  0  0  0  0
 20 22  1  0  0  0  0
 21 23  1  0  0  0  0
 21 41  1  0  0  0  0
 22 24  2  0  0  0  0
 22 42  1  0  0  0  0
 23 25  2  0  0  0  0
 23 43  1  0  0  0  0
 24 25  1  0  0  0  0
 24 44  1  0  0  0  0
 26 45  1  0  0  0  0
 26 46  1  0  0  0  0
 26 47  1  0  0  0  0
 27 48  1  0  0  0  0
 27 49  1  0  0  0  0
 27 50  1  0  0  0  0
M  END
> <PUBCHEM_COMPOUND_CID>
2472561

> <PUBCHEM_CONFORMER_RMSD>
1.2

> <PUBCHEM_CONFORMER_DIVERSEORDER>
5
27
75
7
17
145
40
36
68
123
55
70
2
77
11
130
151
92
160
10
159
129
101
15
60
88
97
89
26
158
85
43
20
53
153
42
29
3
44
140
8
105
115
1
76
52
18
4
46
50
133
157
95
59
124
25
94
119
127
66
104
111
147
65
146
72
143
118
131
128
22
35
149
69
91
56
114
41
134
136
74
109
19
48
82
135
132
23
33
154
63
16
49
110
117
79
103
144
38
84
155
139
47
12
21
62
58
83
112
150
120
122
45
34
24
100
156
37
67
14
142
138
98
6
57
32
99
90
28
141
96
54
64
86
148
108
87
93
152
107
73
80
71
126
31
39
9
137
102
121
113
106
13
81
125
30
78
116
51
61

> <PUBCHEM_MMFF94_PARTIAL_CHARGES>
35
1 -0.18
10 0.3
11 0.44
12 0.57
13 -0.14
14 -0.15
15 -0.15
16 0.08
17 0.08
18 0.54
19 -0.15
2 -0.57
20 0.09
21 -0.15
22 -0.15
23 -0.15
24 -0.15
25 0.18
26 0.28
27 0.28
3 -0.36
36 0.37
37 0.37
38 0.15
39 0.15
4 -0.36
40 0.15
41 0.15
42 0.15
43 0.15
44 0.15
5 -0.57
6 -0.73
7 -0.73
9 0.06

> <PUBCHEM_EFFECTIVE_ROTOR_COUNT>
11

> <PUBCHEM_PHARMACOPHORE_FEATURES>
8
1 2 acceptor
1 3 acceptor
1 4 acceptor
1 5 acceptor
1 6 donor
1 7 donor
6 13 14 15 16 17 19 rings
6 20 21 22 23 24 25 rings

> <PUBCHEM_HEAVY_ATOM_COUNT>
27

> <PUBCHEM_ATOM_DEF_STEREO_COUNT>
0

> <PUBCHEM_ATOM_UDEF_STEREO_COUNT>
0

> <PUBCHEM_BOND_DEF_STEREO_COUNT>
0

> <PUBCHEM_BOND_UDEF_STEREO_COUNT>
0

> <PUBCHEM_ISOTOPIC_ATOM_COUNT>
0

> <PUBCHEM_COMPONENT_COUNT>
1

> <PUBCHEM_CACTVS_TAUTO_COUNT>
4

> <PUBCHEM_CONFORMER_ID>
0025BA7100000005

> <PUBCHEM_MMFF94_ENERGY>
73.0586

> <PUBCHEM_FEATURE_SELFOVERLAP>
40.602

> <PUBCHEM_SHAPE_FINGERPRINT>
10032420 55 17319911175527351578
107951 10 18117278275280145742
11513181 2 17130124421832842063
12156800 1 16373008617780954123
12422481 6 17765389259677318058
12553582 1 17477209332264133689
12712778 12 17762871644596405744
12788726 201 17978225294552033456
133893 2 18337669690320521945
13941206 138 18188771776934603778
14251740 79 18198633322246601860
14251757 5 17760657258026479540
14713325 29 18047198728187453163
14955137 171 17195761882183409753
15210252 30 17767129696210074655
15463212 79 18191857031921380272
16752209 62 18053093205908587848
17492 54 17979376165097717068
20600515 1 17554303853387963275
20905425 154 18201707488423054199
23419403 2 17977427989787305179
3027735 51 18057901322711239284
4409770 3 17910405209895940196
469060 322 17618771471567473163
5085150 59 18130506418734009724
5282940 2 18410848833120270225
5283178 26 17260769845402587779
57527306 92 16108185439698938005

> <PUBCHEM_SHAPE_MULTIPOLES>
524.08
7.08
5.95
2.22
2.87
3.78
-0.06
-8.07
2.79
0.85
-1.33
0.64
1.86
-0.88

> <PUBCHEM_SHAPE_SELFOVERLAP>
1083.129

> <PUBCHEM_SHAPE_VOLUME>
300.5

> <PUBCHEM_COORDINATE_TYPE>
2
5
10

$$$$
