3844407
  -OEChem-01171811533D

 21 21  0     0  0  0  0  0  0999 V2000
    2.8082   -0.4069    0.0861 S   0  0  0  0  0  0  0  0  0  0  0  0
   -2.8536    1.2531   -0.0352 O   0  0  0  0  0  0  0  0  0  0  0  0
    3.2509   -0.5378   -1.4823 O   0  0  0  0  0  0  0  0  0  0  0  0
    3.5837    0.6851    0.6562 O   0  0  0  0  0  0  0  0  0  0  0  0
    2.8496   -1.7345    0.6792 O   0  0  0  0  0  0  0  0  0  0  0  0
   -1.8909   -2.6939    0.0095 O   0  5  0  0  0  0  0  0  0  0  0  0
   -3.4296   -1.1286   -0.0301 O   0  0  0  0  0  0  0  0  0  0  0  0
   -2.2284   -1.4866   -0.0048 N   0  3  0  0  0  0  0  0  0  0  0  0
   -0.8542    3.2050   -0.0088 N   0  0  0  0  0  0  0  0  0  0  0  0
    1.1326    0.0826    0.0502 C   0  0  0  0  0  0  0  0  0  0  0  0
    0.1242   -0.8811    0.0370 C   0  0  0  0  0  0  0  0  0  0  0  0
    0.8024    1.4378    0.0349 C   0  0  0  0  0  0  0  0  0  0  0  0
   -1.2144   -0.4894    0.0085 C   0  0  0  0  0  0  0  0  0  0  0  0
   -0.5360    1.8294    0.0064 C   0  0  0  0  0  0  0  0  0  0  0  0
   -1.5444    0.8658   -0.0068 C   0  0  0  0  0  0  0  0  0  0  0  0
    0.3975   -1.9331    0.0399 H   0  0  0  0  0  0  0  0  0  0  0  0
    1.5815    2.1961    0.0376 H   0  0  0  0  0  0  0  0  0  0  0  0
   -1.8224    3.4965   -0.0300 H   0  0  0  0  0  0  0  0  0  0  0  0
   -0.1170    3.8972    0.0002 H   0  0  0  0  0  0  0  0  0  0  0  0
   -3.4137    0.5803    0.3818 H   0  0  0  0  0  0  0  0  0  0  0  0
    3.1983    0.2952   -2.0074 H   0  0  0  0  0  0  0  0  0  0  0  0
  1  3  1  0  0  0  0
  1  4  2  0  0  0  0
  1  5  2  0  0  0  0
  1 10  1  0  0  0  0
  2 15  1  0  0  0  0
  2 20  1  0  0  0  0
  3 21  1  0  0  0  0
  6  8  1  0  0  0  0
  7  8  2  0  0  0  0
  8 13  1  0  0  0  0
  9 14  1  0  0  0  0
  9 18  1  0  0  0  0
  9 19  1  0  0  0  0
 10 11  1  0  0  0  0
 10 12  2  0  0  0  0
 11 13  2  0  0  0  0
 11 16  1  0  0  0  0
 12 14  1  0  0  0  0
 12 17  1  0  0  0  0
 13 15  1  0  0  0  0
 14 15  2  0  0  0  0
M  CHG  2   6  -1   8   1
M  END
> <PUBCHEM_COMPOUND_CID>
3844407

> <PUBCHEM_CONFORMER_RMSD>
0.6

> <PUBCHEM_CONFORMER_DIVERSEORDER>
2
1

> <PUBCHEM_MMFF94_PARTIAL_CHARGES>
21
1 1.49
10 -0.01
11 -0.15
12 -0.15
13 0.13
14 0.1
15 0.08
16 0.15
17 0.15
18 0.4
19 0.4
2 -0.53
20 0.45
21 0.5
3 -0.68
4 -0.65
5 -0.65
6 -0.52
7 -0.52
8 0.91
9 -0.9

> <PUBCHEM_EFFECTIVE_ROTOR_COUNT>
2

> <PUBCHEM_PHARMACOPHORE_FEATURES>
11
1 2 donor
1 3 acceptor
1 4 acceptor
1 5 acceptor
1 6 acceptor
1 6 anion
1 7 acceptor
1 9 cation
1 9 donor
4 1 3 4 5 anion
6 10 11 12 13 14 15 rings

> <PUBCHEM_HEAVY_ATOM_COUNT>
15

> <PUBCHEM_ATOM_DEF_STEREO_COUNT>
0

> <PUBCHEM_ATOM_UDEF_STEREO_COUNT>
0

> <PUBCHEM_BOND_DEF_STEREO_COUNT>
0

> <PUBCHEM_BOND_UDEF_STEREO_COUNT>
0

> <PUBCHEM_ISOTOPIC_ATOM_COUNT>
0

> <PUBCHEM_COMPONENT_COUNT>
1

> <PUBCHEM_CACTVS_TAUTO_COUNT>
7

> <PUBCHEM_CONFORMER_ID>
003AA93700000002

> <PUBCHEM_MMFF94_ENERGY>
48.2006

> <PUBCHEM_FEATURE_SELFOVERLAP>
55.963

> <PUBCHEM_SHAPE_FINGERPRINT>
10967382 1 18338232798770728691
12553582 1 18337675333538634251
12716758 59 18196657293787438430
12932764 1 18337401435231717906
13538477 17 18188769440430274602
14252887 29 18129111184937336698
15669948 3 18337112267831598886
16945 1 18338799992183701248
193761 8 18122342647323093753
19868273 325 18410296933991178917
20510252 161 18127969711252381761
20645476 183 17968959482172814838
20645477 70 17691401232691275231
20871998 184 18273211988993183959
20871998 22 18269844262197461526
21524375 3 17539974970346596961
22213442 358 18195243536324000905
22802520 49 18058459698835895902
2334 1 18266740366615699313
23402539 116 18198325291703053261
23463225 33 18409166618857838947
23552423 10 18189057658205083148
23557571 272 18343306985330977956
23559900 14 18341892945011505230
2748010 2 18340198708465972365
34934 24 18339068406096286523
5902787 121 18046055223178314722
7364860 26 17837492216901323457
81228 2 18409738330550078976

> <PUBCHEM_SHAPE_MULTIPOLES>
267.36
5.12
2.63
0.74
2.22
0.7
-0.15
-1.76
-0.09
-1.69
0.11
0.57
-0.07
0.04

> <PUBCHEM_SHAPE_SELFOVERLAP>
555.327

> <PUBCHEM_SHAPE_VOLUME>
153.4

> <PUBCHEM_COORDINATE_TYPE>
2
5
10

$$$$
