16292894
  -OEChem-01171812043D

 34 36  0     1  0  0  0  0  0999 V2000
    5.1349   -2.4218   -0.3666 Cl  0  0  0  0  0  0  0  0  0  0  0  0
    0.9407    2.1148    0.2553 S   0  0  0  0  0  0  0  0  0  0  0  0
   -4.4857    0.6581    0.1018 S   0  0  0  0  0  0  0  0  0  0  0  0
    1.2679    2.9288    1.4103 O   0  0  0  0  0  0  0  0  0  0  0  0
    0.8394    2.7199   -1.0589 O   0  0  0  0  0  0  0  0  0  0  0  0
   -0.4802    1.2427    0.5598 N   0  0  0  0  0  0  0  0  0  0  0  0
    3.3406   -0.7645   -1.2352 N   0  0  0  0  0  0  0  0  0  0  0  0
   -1.2927    0.7887   -0.5487 C   0  0  2  0  0  0  0  0  0  0  0  0
   -2.2703    1.8791   -0.9969 C   0  0  0  0  0  0  0  0  0  0  0  0
   -1.9400   -0.5383   -0.2214 C   0  0  0  0  0  0  0  0  0  0  0  0
   -3.3983    2.1051   -0.0036 C   0  0  0  0  0  0  0  0  0  0  0  0
   -3.3027   -0.6840    0.0917 C   0  0  0  0  0  0  0  0  0  0  0  0
   -1.1166   -1.6826   -0.2114 C   0  0  0  0  0  0  0  0  0  0  0  0
   -3.8087   -1.9610    0.3929 C   0  0  0  0  0  0  0  0  0  0  0  0
    2.1451    0.8261    0.1378 C   0  0  0  0  0  0  0  0  0  0  0  0
   -1.6300   -2.9420    0.0935 C   0  0  0  0  0  0  0  0  0  0  0  0
   -2.9779   -3.0810    0.3957 C   0  0  0  0  0  0  0  0  0  0  0  0
    2.8345    0.3850    1.2619 C   0  0  0  0  0  0  0  0  0  0  0  0
    2.4325    0.2242   -1.0766 C   0  0  0  0  0  0  0  0  0  0  0  0
    3.7766   -0.6302    1.1389 C   0  0  0  0  0  0  0  0  0  0  0  0
    3.9908   -1.1671   -0.1204 C   0  0  0  0  0  0  0  0  0  0  0  0
   -0.6426    0.5965   -1.4133 H   0  0  0  0  0  0  0  0  0  0  0  0
   -1.7428    2.8292   -1.1395 H   0  0  0  0  0  0  0  0  0  0  0  0
   -2.6911    1.6173   -1.9774 H   0  0  0  0  0  0  0  0  0  0  0  0
   -4.0072    2.9576   -0.3216 H   0  0  0  0  0  0  0  0  0  0  0  0
   -3.0117    2.3370    0.9939 H   0  0  0  0  0  0  0  0  0  0  0  0
   -0.9357    1.3330    1.4761 H   0  0  0  0  0  0  0  0  0  0  0  0
   -0.0580   -1.5962   -0.4452 H   0  0  0  0  0  0  0  0  0  0  0  0
   -4.8616   -2.1012    0.6310 H   0  0  0  0  0  0  0  0  0  0  0  0
   -0.9777   -3.8100    0.0941 H   0  0  0  0  0  0  0  0  0  0  0  0
   -3.3854   -4.0593    0.6325 H   0  0  0  0  0  0  0  0  0  0  0  0
    2.6470    0.8159    2.2411 H   0  0  0  0  0  0  0  0  0  0  0  0
    1.9292    0.5154   -1.9928 H   0  0  0  0  0  0  0  0  0  0  0  0
    4.3188   -0.9820    2.0102 H   0  0  0  0  0  0  0  0  0  0  0  0
  1 21  1  0  0  0  0
  2  4  2  0  0  0  0
  2  5  2  0  0  0  0
  2  6  1  0  0  0  0
  2 15  1  0  0  0  0
  3 11  1  0  0  0  0
  3 12  1  0  0  0  0
  6  8  1  0  0  0  0
  6 27  1  0  0  0  0
  7 19  1  0  0  0  0
  7 21  2  0  0  0  0
  8  9  1  0  0  0  0
  8 10  1  0  0  0  0
  8 22  1  0  0  0  0
  9 11  1  0  0  0  0
  9 23  1  0  0  0  0
  9 24  1  0  0  0  0
 10 12  1  0  0  0  0
 10 13  2  0  0  0  0
 11 25  1  0  0  0  0
 11 26  1  0  0  0  0
 12 14  2  0  0  0  0
 13 16  1  0  0  0  0
 13 28  1  0  0  0  0
 14 17  1  0  0  0  0
 14 29  1  0  0  0  0
 15 18  1  0  0  0  0
 15 19  2  0  0  0  0
 16 17  2  0  0  0  0
 16 30  1  0  0  0  0
 17 31  1  0  0  0  0
 18 20  2  0  0  0  0
 18 32  1  0  0  0  0
 19 33  1  0  0  0  0
 20 21  1  0  0  0  0
 20 34  1  0  0  0  0
M  END
> <PUBCHEM_COMPOUND_CID>
16292894

> <PUBCHEM_CONFORMER_RMSD>
0.6

> <PUBCHEM_CONFORMER_DIVERSEORDER>
1
19
12
14
23
15
26
11
7
17
20
18
3
13
9
25
24
4
21
8
6
10
22
5
16
2

> <PUBCHEM_MMFF94_PARTIAL_CHARGES>
28
1 -0.18
10 -0.14
11 0.23
12 0.1
13 -0.15
14 -0.15
15 -0.01
16 -0.15
17 -0.15
18 -0.15
19 0.16
2 1.45
20 -0.15
21 0.49
27 0.42
28 0.15
29 0.15
3 -0.33
30 0.15
31 0.15
32 0.15
33 0.15
34 0.15
4 -0.65
5 -0.65
6 -0.91
7 -0.62
8 0.5

> <PUBCHEM_EFFECTIVE_ROTOR_COUNT>
3.8

> <PUBCHEM_PHARMACOPHORE_FEATURES>
7
1 4 acceptor
1 5 acceptor
1 6 donor
1 7 acceptor
6 10 12 13 14 16 17 rings
6 3 8 9 10 11 12 rings
6 7 15 18 19 20 21 rings

> <PUBCHEM_HEAVY_ATOM_COUNT>
21

> <PUBCHEM_ATOM_DEF_STEREO_COUNT>
0

> <PUBCHEM_ATOM_UDEF_STEREO_COUNT>
1

> <PUBCHEM_BOND_DEF_STEREO_COUNT>
0

> <PUBCHEM_BOND_UDEF_STEREO_COUNT>
0

> <PUBCHEM_ISOTOPIC_ATOM_COUNT>
0

> <PUBCHEM_COMPONENT_COUNT>
1

> <PUBCHEM_CACTVS_TAUTO_COUNT>
1

> <PUBCHEM_CONFORMER_ID>
00F89C1E00000001

> <PUBCHEM_MMFF94_ENERGY>
38.0008

> <PUBCHEM_FEATURE_SELFOVERLAP>
35.554

> <PUBCHEM_SHAPE_FINGERPRINT>
10616163 171 18049727617837299823
10693767 8 17841129346418422375
12506688 2 18341617082871352208
12553582 1 18263363749179522319
12633257 1 18271258170153384289
13140716 1 18338799047834039979
13402501 40 18127975213564501814
13533116 47 18198902711760088007
14115302 16 18335424521793968812
14223421 5 18125156293035672521
14251757 5 18337402547601873894
14866123 147 17623862222898685586
15042514 8 18334863848764116435
15422964 175 17831858319647458391
16752209 62 18261941990903967443
17492 89 18265335199430303963
17804303 29 18410577296961723981
17859628 97 18262520265227198899
1813 80 17168981352264319109
19591789 44 18264488382566735315
20291156 8 18334857229718216810
20600515 1 18269000799709704724
21403212 168 18057050099834809177
21521239 73 18128231555046451647
23184049 29 18265046014970758085
23559900 14 18411417353646534412
3004659 81 18260834748667667070
3084891 72 18124308311957041437
314173 41 18410013230316675792
335352 9 18410013204747423423
5309563 4 17183633624320683275
5385378 56 17691414006214241889
6138700 20 18196089932844971831
6823239 73 18343305903152148264
9709674 26 18269829964356620279
9981440 41 16622591203593956505

> <PUBCHEM_SHAPE_MULTIPOLES>
420.04
9.09
3.64
1.08
4.65
0.63
-0.05
4.79
-0.1
-1.43
-0.23
0.78
-0.36
0.96

> <PUBCHEM_SHAPE_SELFOVERLAP>
865.646

> <PUBCHEM_SHAPE_VOLUME>
241.8

> <PUBCHEM_COORDINATE_TYPE>
2
5
10

$$$$
