20884881
  -OEChem-01171812083D

 67 70  0     0  0  0  0  0  0999 V2000
    2.5032    2.0206   -1.6475 O   0  0  0  0  0  0  0  0  0  0  0  0
   -0.2681    2.8001    1.4964 O   0  0  0  0  0  0  0  0  0  0  0  0
   -6.3362   -2.2931    1.1056 O   0  0  0  0  0  0  0  0  0  0  0  0
    3.5058   -0.1651    1.0524 N   0  0  0  0  0  0  0  0  0  0  0  0
    3.6134   -2.9060    0.1391 N   0  0  0  0  0  0  0  0  0  0  0  0
    2.9858    3.2602    0.2584 N   0  0  0  0  0  0  0  0  0  0  0  0
   -2.3067    0.9735   -0.8167 N   0  0  0  0  0  0  0  0  0  0  0  0
   -0.2083    2.7282   -0.8184 N   0  0  0  0  0  0  0  0  0  0  0  0
   -0.7089    2.2470   -2.0014 N   0  0  0  0  0  0  0  0  0  0  0  0
    4.5633   -1.0777    1.5039 C   0  0  0  0  0  0  0  0  0  0  0  0
    2.2818   -0.9135    0.7415 C   0  0  0  0  0  0  0  0  0  0  0  0
    4.8374   -2.1582    0.4521 C   0  0  0  0  0  0  0  0  0  0  0  0
    2.5557   -1.9930   -0.3113 C   0  0  0  0  0  0  0  0  0  0  0  0
    3.2441    0.8637    2.0571 C   0  0  0  0  0  0  0  0  0  0  0  0
    3.8757   -3.9332   -0.8671 C   0  0  0  0  0  0  0  0  0  0  0  0
    4.2739    1.9887    1.9426 C   0  0  0  0  0  0  0  0  0  0  0  0
    2.8034   -5.0182   -0.8084 C   0  0  0  0  0  0  0  0  0  0  0  0
    4.2597    2.6514    0.5680 C   0  0  0  0  0  0  0  0  0  0  0  0
    3.0655   -6.1118   -1.8324 C   0  0  0  0  0  0  0  0  0  0  0  0
   -1.8174    1.4453    0.3801 C   0  0  0  0  0  0  0  0  0  0  0  0
   -3.3654    0.1023   -0.5604 C   0  0  0  0  0  0  0  0  0  0  0  0
    2.2103    2.8904   -0.8309 C   0  0  0  0  0  0  0  0  0  0  0  0
    0.9065    3.6587   -0.8703 C   0  0  0  0  0  0  0  0  0  0  0  0
   -3.5202    0.0458    0.8351 C   0  0  0  0  0  0  0  0  0  0  0  0
   -2.5422    0.8929    1.4079 C   0  0  0  0  0  0  0  0  0  0  0  0
   -1.7037    1.4151   -1.9981 C   0  0  0  0  0  0  0  0  0  0  0  0
   -0.7142    2.3706    0.4339 C   0  0  0  0  0  0  0  0  0  0  0  0
   -4.2149   -0.6509   -1.3934 C   0  0  0  0  0  0  0  0  0  0  0  0
   -4.5277   -0.7668    1.3973 C   0  0  0  0  0  0  0  0  0  0  0  0
   -2.2395    0.8985   -3.2938 C   0  0  0  0  0  0  0  0  0  0  0  0
   -5.3638   -1.5090    0.5637 C   0  0  0  0  0  0  0  0  0  0  0  0
   -5.2072   -1.4498   -0.8135 C   0  0  0  0  0  0  0  0  0  0  0  0
   -6.4411   -2.3067    2.5282 C   0  0  0  0  0  0  0  0  0  0  0  0
    5.4991   -0.5333    1.6712 H   0  0  0  0  0  0  0  0  0  0  0  0
    4.2904   -1.5560    2.4546 H   0  0  0  0  0  0  0  0  0  0  0  0
    1.8645   -1.3745    1.6472 H   0  0  0  0  0  0  0  0  0  0  0  0
    1.5206   -0.2329    0.3405 H   0  0  0  0  0  0  0  0  0  0  0  0
    5.2554   -1.6968   -0.4530 H   0  0  0  0  0  0  0  0  0  0  0  0
    5.5978   -2.8391    0.8537 H   0  0  0  0  0  0  0  0  0  0  0  0
    1.6165   -2.5308   -0.4775 H   0  0  0  0  0  0  0  0  0  0  0  0
    2.8285   -1.5140   -1.2617 H   0  0  0  0  0  0  0  0  0  0  0  0
    3.2457    0.4499    3.0737 H   0  0  0  0  0  0  0  0  0  0  0  0
    2.2473    1.2996    1.9140 H   0  0  0  0  0  0  0  0  0  0  0  0
    3.9524   -3.5057   -1.8751 H   0  0  0  0  0  0  0  0  0  0  0  0
    4.8387   -4.4191   -0.6603 H   0  0  0  0  0  0  0  0  0  0  0  0
    4.0438    2.7420    2.7071 H   0  0  0  0  0  0  0  0  0  0  0  0
    5.2838    1.6259    2.1628 H   0  0  0  0  0  0  0  0  0  0  0  0
    2.7757   -5.4658    0.1927 H   0  0  0  0  0  0  0  0  0  0  0  0
    1.8078   -4.6074   -1.0053 H   0  0  0  0  0  0  0  0  0  0  0  0
    4.5476    1.9473   -0.2194 H   0  0  0  0  0  0  0  0  0  0  0  0
    4.9969    3.4620    0.5572 H   0  0  0  0  0  0  0  0  0  0  0  0
    2.2891   -6.8811   -1.7727 H   0  0  0  0  0  0  0  0  0  0  0  0
    4.0330   -6.5924   -1.6552 H   0  0  0  0  0  0  0  0  0  0  0  0
    3.0638   -5.7058   -2.8490 H   0  0  0  0  0  0  0  0  0  0  0  0
    2.6744    4.0137    0.8638 H   0  0  0  0  0  0  0  0  0  0  0  0
    0.8289    4.3789   -0.0496 H   0  0  0  0  0  0  0  0  0  0  0  0
    0.8632    4.2195   -1.8106 H   0  0  0  0  0  0  0  0  0  0  0  0
   -2.3851    1.0789    2.4621 H   0  0  0  0  0  0  0  0  0  0  0  0
   -4.1334   -0.6389   -2.4727 H   0  0  0  0  0  0  0  0  0  0  0  0
   -4.5980   -0.7691    2.4788 H   0  0  0  0  0  0  0  0  0  0  0  0
   -3.2835    1.1955   -3.4195 H   0  0  0  0  0  0  0  0  0  0  0  0
   -1.6718    1.3282   -4.1260 H   0  0  0  0  0  0  0  0  0  0  0  0
   -2.1284   -0.1874   -3.3457 H   0  0  0  0  0  0  0  0  0  0  0  0
   -5.8614   -2.0302   -1.4600 H   0  0  0  0  0  0  0  0  0  0  0  0
   -7.2645   -2.9814    2.7848 H   0  0  0  0  0  0  0  0  0  0  0  0
   -6.7036   -1.3191    2.9223 H   0  0  0  0  0  0  0  0  0  0  0  0
   -5.5378   -2.7142    2.9950 H   0  0  0  0  0  0  0  0  0  0  0  0
  1 22  2  0  0  0  0
  2 27  2  0  0  0  0
  3 31  1  0  0  0  0
  3 33  1  0  0  0  0
  4 10  1  0  0  0  0
  4 11  1  0  0  0  0
  4 14  1  0  0  0  0
  5 12  1  0  0  0  0
  5 13  1  0  0  0  0
  5 15  1  0  0  0  0
  6 18  1  0  0  0  0
  6 22  1  0  0  0  0
  6 55  1  0  0  0  0
  7 20  1  0  0  0  0
  7 21  1  0  0  0  0
  7 26  1  0  0  0  0
  8  9  1  0  0  0  0
  8 23  1  0  0  0  0
  8 27  1  0  0  0  0
  9 26  2  0  0  0  0
 10 12  1  0  0  0  0
 10 34  1  0  0  0  0
 10 35  1  0  0  0  0
 11 13  1  0  0  0  0
 11 36  1  0  0  0  0
 11 37  1  0  0  0  0
 12 38  1  0  0  0  0
 12 39  1  0  0  0  0
 13 40  1  0  0  0  0
 13 41  1  0  0  0  0
 14 16  1  0  0  0  0
 14 42  1  0  0  0  0
 14 43  1  0  0  0  0
 15 17  1  0  0  0  0
 15 44  1  0  0  0  0
 15 45  1  0  0  0  0
 16 18  1  0  0  0  0
 16 46  1  0  0  0  0
 16 47  1  0  0  0  0
 17 19  1  0  0  0  0
 17 48  1  0  0  0  0
 17 49  1  0  0  0  0
 18 50  1  0  0  0  0
 18 51  1  0  0  0  0
 19 52  1  0  0  0  0
 19 53  1  0  0  0  0
 19 54  1  0  0  0  0
 20 25  2  0  0  0  0
 20 27  1  0  0  0  0
 21 24  2  0  0  0  0
 21 28  1  0  0  0  0
 22 23  1  0  0  0  0
 23 56  1  0  0  0  0
 23 57  1  0  0  0  0
 24 25  1  0  0  0  0
 24 29  1  0  0  0  0
 25 58  1  0  0  0  0
 26 30  1  0  0  0  0
 28 32  2  0  0  0  0
 28 59  1  0  0  0  0
 29 31  2  0  0  0  0
 29 60  1  0  0  0  0
 30 61  1  0  0  0  0
 30 62  1  0  0  0  0
 30 63  1  0  0  0  0
 31 32  1  0  0  0  0
 32 64  1  0  0  0  0
 33 65  1  0  0  0  0
 33 66  1  0  0  0  0
 33 67  1  0  0  0  0
M  END
> <PUBCHEM_COMPOUND_CID>
20884881

> <PUBCHEM_CONFORMER_RMSD>
1.2

> <PUBCHEM_CONFORMER_DIVERSEORDER>
3
49
24
87
13
83
42
86
76
101
22
55
94
15
27
70
40
46
65
74
37
58
8
47
38
85
104
26
56
57
6
16
90
97
31
77
93
96
29
41
44
99
84
75
89
78
14
64
1
51
67
63
17
102
50
5
32
12
62
71
4
53
54
91
19
2
48
92
45
39
20
79
103
69
72
88
35
100
34
81
61
68
60
18
82
80
21
98
59
25
7
52
28
33
66
9
43
10
36
11
73
30
95
23

> <PUBCHEM_MMFF94_PARTIAL_CHARGES>
34
1 -0.57
10 0.27
11 0.27
12 0.27
13 0.27
14 0.27
15 0.27
18 0.3
2 -0.57
20 -0.24
21 -0.15
22 0.57
23 0.36
25 -0.15
26 0.4
27 0.71
28 -0.15
29 -0.15
3 -0.36
30 0.06
31 0.08
32 -0.15
33 0.28
4 -0.81
5 -0.81
55 0.37
58 0.15
59 0.15
6 -0.73
60 0.15
64 0.15
7 0.29
8 -0.3
9 -0.51

> <PUBCHEM_EFFECTIVE_ROTOR_COUNT>
11.2

> <PUBCHEM_PHARMACOPHORE_FEATURES>
12
1 1 acceptor
1 19 hydrophobe
1 2 acceptor
1 3 acceptor
1 4 cation
1 5 cation
1 6 donor
3 7 9 26 cation
5 7 20 21 24 25 rings
6 21 24 28 29 31 32 rings
6 4 5 10 11 12 13 rings
6 7 8 9 20 26 27 rings

> <PUBCHEM_HEAVY_ATOM_COUNT>
33

> <PUBCHEM_ATOM_DEF_STEREO_COUNT>
0

> <PUBCHEM_ATOM_UDEF_STEREO_COUNT>
0

> <PUBCHEM_BOND_DEF_STEREO_COUNT>
0

> <PUBCHEM_BOND_UDEF_STEREO_COUNT>
0

> <PUBCHEM_ISOTOPIC_ATOM_COUNT>
0

> <PUBCHEM_COMPONENT_COUNT>
1

> <PUBCHEM_CACTVS_TAUTO_COUNT>
2

> <PUBCHEM_CONFORMER_ID>
013EAD9100000003

> <PUBCHEM_MMFF94_ENERGY>
76.9728

> <PUBCHEM_FEATURE_SELFOVERLAP>
61.084

> <PUBCHEM_SHAPE_FINGERPRINT>
10928967 22 17773582837834479782
12623949 98 18042696177022823635
12633257 1 15625925560774297633
14251757 5 16899901887414823238
14863182 85 18339922735875306312
15297060 5 17914334830199043986
15444296 7 17823976956714503316
17809404 112 17752467786248001102
1979834 28 18337387274535074480
20775530 9 18266741268901781498
21049683 118 13542469731067286965
21133410 38 17986385818256277007
21344244 181 18196112130127651036
21365058 27 18198064888310741180
23428019 142 16322314088553953294
3737641 26 18057040204171805198
3886686 26 17838913533565315665
404807 14 17767395787020431463
4435113 14 18113337518263493731
4461854 278 18267866262887256994
49967989 163 16899908489001935246
613672 6 18192132837540766734
6287921 2 18342735200492542322
86090 222 18265349459148305982

> <PUBCHEM_SHAPE_MULTIPOLES>
631.63
13.04
6.49
2.43
11.54
7.77
-0.64
12
6.45
-10.04
-2.88
1.59
-0.16
3.94

> <PUBCHEM_SHAPE_SELFOVERLAP>
1331.42

> <PUBCHEM_SHAPE_VOLUME>
356.5

> <PUBCHEM_COORDINATE_TYPE>
2
5
10

$$$$
