16745641
  -OEChem-01171811563D

 55 58  0     1  0  0  0  0  0999 V2000
    6.7821   -1.1144    0.6250 S   0  0  0  0  0  0  0  0  0  0  0  0
   -3.3747   -1.1054   -0.8002 O   0  0  0  0  0  0  0  0  0  0  0  0
   -2.7745    0.1254    1.0604 O   0  0  0  0  0  0  0  0  0  0  0  0
   -1.5965    0.6125   -1.9271 O   0  0  0  0  0  0  0  0  0  0  0  0
   -2.4350   -2.9581    0.9593 O   0  0  0  0  0  0  0  0  0  0  0  0
    2.1827    3.2786   -0.5471 O   0  0  0  0  0  0  0  0  0  0  0  0
    2.5004    0.4603   -0.8798 N   0  0  0  0  0  0  0  0  0  0  0  0
   -5.0576    0.1173    0.2971 C   0  0  0  0  0  0  0  0  0  0  0  0
   -5.2878    1.4094   -0.4948 C   0  0  0  0  0  0  0  0  0  0  0  0
   -5.4984    0.4106    1.7320 C   0  0  0  0  0  0  0  0  0  0  0  0
   -5.9484    2.3814    0.4770 C   0  0  0  0  0  0  0  0  0  0  0  0
   -5.4635    1.9281    1.8422 C   0  0  0  0  0  0  0  0  0  0  0  0
   -3.6097   -0.2661    0.2565 C   0  0  0  0  0  0  0  0  0  0  0  0
   -2.0381   -1.5469   -0.9572 C   0  0  1  0  0  0  0  0  0  0  0  0
   -1.1715   -0.3443   -1.2833 C   0  0  0  0  0  0  0  0  0  0  0  0
    0.2358   -0.4016   -0.8077 C   0  0  0  0  0  0  0  0  0  0  0  0
   -1.6326   -2.2994    0.2991 C   0  0  0  0  0  0  0  0  0  0  0  0
    0.6599   -1.3933    0.1748 C   0  0  0  0  0  0  0  0  0  0  0  0
   -2.0071   -2.5125   -2.1413 C   0  0  0  0  0  0  0  0  0  0  0  0
   -0.2043   -2.2712    0.7087 C   0  0  0  0  0  0  0  0  0  0  0  0
    1.1572    0.4572   -1.2772 C   0  0  0  0  0  0  0  0  0  0  0  0
    2.9343   -0.4999    0.0791 C   0  0  0  0  0  0  0  0  0  0  0  0
    2.0619   -1.4006    0.6004 C   0  0  0  0  0  0  0  0  0  0  0  0
    3.4308    1.4370   -1.4525 C   0  0  0  0  0  0  0  0  0  0  0  0
    4.2934   -0.5297    0.5099 C   0  0  0  0  0  0  0  0  0  0  0  0
    3.4738    2.6840   -0.5857 C   0  0  0  0  0  0  0  0  0  0  0  0
    4.8077    0.1987    1.6135 C   0  0  0  0  0  0  0  0  0  0  0  0
    5.2499   -1.2847   -0.1204 C   0  0  0  0  0  0  0  0  0  0  0  0
    6.1548   -0.0278    1.7903 C   0  0  0  0  0  0  0  0  0  0  0  0
    2.1749    4.4555    0.2491 C   0  0  0  0  0  0  0  0  0  0  0  0
   -5.6524   -0.7145   -0.0984 H   0  0  0  0  0  0  0  0  0  0  0  0
   -5.9301    1.2356   -1.3648 H   0  0  0  0  0  0  0  0  0  0  0  0
   -4.3468    1.8321   -0.8672 H   0  0  0  0  0  0  0  0  0  0  0  0
   -4.8864   -0.0700    2.5017 H   0  0  0  0  0  0  0  0  0  0  0  0
   -6.5305    0.0647    1.8714 H   0  0  0  0  0  0  0  0  0  0  0  0
   -7.0392    2.2873    0.4149 H   0  0  0  0  0  0  0  0  0  0  0  0
   -5.6865    3.4220    0.2647 H   0  0  0  0  0  0  0  0  0  0  0  0
   -6.0971    2.2997    2.6525 H   0  0  0  0  0  0  0  0  0  0  0  0
   -4.4394    2.2767    2.0187 H   0  0  0  0  0  0  0  0  0  0  0  0
   -0.9994   -2.9002   -2.3266 H   0  0  0  0  0  0  0  0  0  0  0  0
   -2.3555   -2.0214   -3.0574 H   0  0  0  0  0  0  0  0  0  0  0  0
   -2.6730   -3.3664   -1.9692 H   0  0  0  0  0  0  0  0  0  0  0  0
    0.0947   -2.9893    1.4661 H   0  0  0  0  0  0  0  0  0  0  0  0
    0.9199    1.2178   -2.0131 H   0  0  0  0  0  0  0  0  0  0  0  0
    2.3776   -2.1372    1.3347 H   0  0  0  0  0  0  0  0  0  0  0  0
    4.4370    1.0249   -1.5813 H   0  0  0  0  0  0  0  0  0  0  0  0
    3.0958    1.7110   -2.4617 H   0  0  0  0  0  0  0  0  0  0  0  0
    3.7951    2.4571    0.4338 H   0  0  0  0  0  0  0  0  0  0  0  0
    4.1853    3.3966   -1.0193 H   0  0  0  0  0  0  0  0  0  0  0  0
    4.2321    0.8525    2.2569 H   0  0  0  0  0  0  0  0  0  0  0  0
    5.1380   -1.9301   -0.9813 H   0  0  0  0  0  0  0  0  0  0  0  0
    6.8003    0.3917    2.5490 H   0  0  0  0  0  0  0  0  0  0  0  0
    2.4452    4.2208    1.2832 H   0  0  0  0  0  0  0  0  0  0  0  0
    2.8625    5.2015   -0.1610 H   0  0  0  0  0  0  0  0  0  0  0  0
    1.1635    4.8705    0.2392 H   0  0  0  0  0  0  0  0  0  0  0  0
  1 28  1  0  0  0  0
  1 29  1  0  0  0  0
  2 13  1  0  0  0  0
  2 14  1  0  0  0  0
  3 13  2  0  0  0  0
  4 15  2  0  0  0  0
  5 17  2  0  0  0  0
  6 26  1  0  0  0  0
  6 30  1  0  0  0  0
  7 21  1  0  0  0  0
  7 22  1  0  0  0  0
  7 24  1  0  0  0  0
  8  9  1  0  0  0  0
  8 10  1  0  0  0  0
  8 13  1  0  0  0  0
  8 31  1  0  0  0  0
  9 11  1  0  0  0  0
  9 32  1  0  0  0  0
  9 33  1  0  0  0  0
 10 12  1  0  0  0  0
 10 34  1  0  0  0  0
 10 35  1  0  0  0  0
 11 12  1  0  0  0  0
 11 36  1  0  0  0  0
 11 37  1  0  0  0  0
 12 38  1  0  0  0  0
 12 39  1  0  0  0  0
 14 15  1  0  0  0  0
 14 17  1  0  0  0  0
 14 19  1  0  0  0  0
 15 16  1  0  0  0  0
 16 18  1  0  0  0  0
 16 21  2  0  0  0  0
 17 20  1  0  0  0  0
 18 20  2  0  0  0  0
 18 23  1  0  0  0  0
 19 40  1  0  0  0  0
 19 41  1  0  0  0  0
 19 42  1  0  0  0  0
 20 43  1  0  0  0  0
 21 44  1  0  0  0  0
 22 23  2  0  0  0  0
 22 25  1  0  0  0  0
 23 45  1  0  0  0  0
 24 26  1  0  0  0  0
 24 46  1  0  0  0  0
 24 47  1  0  0  0  0
 25 27  1  0  0  0  0
 25 28  2  0  0  0  0
 26 48  1  0  0  0  0
 26 49  1  0  0  0  0
 27 29  2  0  0  0  0
 27 50  1  0  0  0  0
 28 51  1  0  0  0  0
 29 52  1  0  0  0  0
 30 53  1  0  0  0  0
 30 54  1  0  0  0  0
 30 55  1  0  0  0  0
M  END
> <PUBCHEM_COMPOUND_CID>
16745641

> <PUBCHEM_CONFORMER_RMSD>
1

> <PUBCHEM_CONFORMER_DIVERSEORDER>
7
45
35
51
15
19
23
43
11
39
46
52
21
36
40
27
2
31
13
47
53
24
41
48
34
49
37
29
20
38
33
42
32
25
9
30
50
22
5
16
6
12
28
18
1
17
8
26
10
3
44
4
14

> <PUBCHEM_MMFF94_PARTIAL_CHARGES>
30
1 -0.08
13 0.66
14 0.4
15 0.49
16 0.01
17 0.49
2 -0.43
20 -0.14
21 -0.05
22 0.15
23 -0.15
24 0.37
25 -0.05
26 0.28
27 -0.15
28 -0.11
29 -0.11
3 -0.57
30 0.28
4 -0.57
43 0.15
44 0.15
45 0.15
5 -0.57
50 0.15
51 0.15
52 0.15
6 -0.56
7 -0.57
8 0.06

> <PUBCHEM_EFFECTIVE_ROTOR_COUNT>
8.4

> <PUBCHEM_PHARMACOPHORE_FEATURES>
9
1 3 acceptor
1 4 acceptor
1 5 acceptor
1 6 acceptor
1 7 cation
5 1 25 27 28 29 rings
5 8 9 10 11 12 rings
6 14 15 16 17 18 20 rings
6 7 16 18 21 22 23 rings

> <PUBCHEM_HEAVY_ATOM_COUNT>
30

> <PUBCHEM_ATOM_DEF_STEREO_COUNT>
0

> <PUBCHEM_ATOM_UDEF_STEREO_COUNT>
1

> <PUBCHEM_BOND_DEF_STEREO_COUNT>
0

> <PUBCHEM_BOND_UDEF_STEREO_COUNT>
0

> <PUBCHEM_ISOTOPIC_ATOM_COUNT>
0

> <PUBCHEM_COMPONENT_COUNT>
1

> <PUBCHEM_CACTVS_TAUTO_COUNT>
1

> <PUBCHEM_CONFORMER_ID>
00FF84A900000007

> <PUBCHEM_MMFF94_ENERGY>
75.7801

> <PUBCHEM_FEATURE_SELFOVERLAP>
45.697

> <PUBCHEM_SHAPE_FINGERPRINT>
10006869 2 17977653226219155035
10042902 136 12324828837440255297
105312 117 17132397207505503599
10906281 52 18261399988028528622
10928967 22 12468918779503653697
1100329 8 18409166623295523528
11405975 8 18261392307951692130
11646440 116 18336259047225370944
11796584 16 12251901495386955979
12107183 9 18408884023301002154
12403259 118 18341614845420335155
12422481 6 18040714731966848207
12633257 1 18260826020776922950
13140716 1 18041277793874573986
13540713 5 17751372891346623735
13631057 29 8286195050319641454
13690498 29 11455591151675363385
13782708 43 12973880391023056656
14020679 6 17822014224229084842
14117953 113 18268996388693966925
14251764 30 13118295771464029689
14466204 15 18264486200375592089
14739800 52 17913486024186719464
14767858 380 11383823883623435826
14849402 71 18261679297957055060
14950920 106 17676213493802897993
14955137 171 18334297526976199746
15238133 3 18342182158875990792
15295992 7 18114749338195469058
15475509 8 18268162980755388854
16112460 7 18335422395911894264
17980427 23 18201429324866141740
21285901 2 13254805598502049490
21403212 168 18261670368809067663
22122407 14 18337123272055348145
23516275 137 13191460431519278744
23522609 53 17532115880669641332
23559900 14 17631756909817706846
23569943 247 18120922920373113026
24771293 8 18269540806765326216
249057 25 18342733070209960319
25223398 141 16558167415829073431
2838139 119 17274816918296336065
3117164 225 18334858350361627592
350125 39 18040999522996038772
3680242 22 18408325484252944904
392239 28 17385734569232959705
4144715 1 18336553832015815938
5104073 3 17968939828687318122
57724786 102 17895480340350055732
7226269 152 18273213071372623393
999808 66 16226044445101932450

> <PUBCHEM_SHAPE_MULTIPOLES>
586.91
14.87
3.52
1.72
0.56
3.12
-0.07
4.64
7.51
0
-0.28
-0.43
-0.05
-1.85

> <PUBCHEM_SHAPE_SELFOVERLAP>
1260.764

> <PUBCHEM_SHAPE_VOLUME>
327.2

> <PUBCHEM_COORDINATE_TYPE>
2
5
10

$$$$
