5407052
  -OEChem-01171812013D

 35 37  0     0  0  0  0  0  0999 V2000
   -6.1776    1.4663    0.0006 O   0  0  0  0  0  0  0  0  0  0  0  0
   -0.8790   -1.9114   -0.0006 N   0  0  0  0  0  0  0  0  0  0  0  0
    0.5362   -3.8362   -0.0008 N   0  0  0  0  0  0  0  0  0  0  0  0
    3.8979   -2.5083    0.0018 N   0  0  0  0  0  0  0  0  0  0  0  0
    1.2522   -0.1621    0.0012 C   0  0  0  0  0  0  0  0  0  0  0  0
   -1.1621   -0.5595    0.0001 C   0  0  0  0  0  0  0  0  0  0  0  0
   -0.0060    0.3316    0.0010 C   0  0  0  0  0  0  0  0  0  0  0  0
    1.4662   -1.6223    0.0005 C   0  0  0  0  0  0  0  0  0  0  0  0
    2.3297    0.8231    0.0009 C   0  0  0  0  0  0  0  0  0  0  0  0
   -2.4070   -0.0568   -0.0001 C   0  0  0  0  0  0  0  0  0  0  0  0
    0.3982   -2.4684   -0.0004 C   0  0  0  0  0  0  0  0  0  0  0  0
    2.8410    1.2909    1.2082 C   0  0  0  0  0  0  0  0  0  0  0  0
    2.8407    1.2874   -1.2077 C   0  0  0  0  0  0  0  0  0  0  0  0
   -3.5568   -0.9475   -0.0011 C   0  0  0  0  0  0  0  0  0  0  0  0
   -2.6156    1.3827    0.0001 C   0  0  0  0  0  0  0  0  0  0  0  0
    3.8718    2.2306    1.2067 C   0  0  0  0  0  0  0  0  0  0  0  0
    3.8715    2.2271   -1.2092 C   0  0  0  0  0  0  0  0  0  0  0  0
   -4.8052   -0.4622   -0.0009 C   0  0  0  0  0  0  0  0  0  0  0  0
   -3.8509    1.9005    0.0003 C   0  0  0  0  0  0  0  0  0  0  0  0
    4.3871    2.6987   -0.0020 C   0  0  0  0  0  0  0  0  0  0  0  0
   -5.0405    1.0070    0.0003 C   0  0  0  0  0  0  0  0  0  0  0  0
    2.8079   -2.1111    0.0011 C   0  0  0  0  0  0  0  0  0  0  0  0
   -0.1011    1.4082    0.0014 H   0  0  0  0  0  0  0  0  0  0  0  0
   -1.6318   -2.5853   -0.0009 H   0  0  0  0  0  0  0  0  0  0  0  0
    2.4508    0.9348    2.1585 H   0  0  0  0  0  0  0  0  0  0  0  0
    2.4503    0.9287   -2.1569 H   0  0  0  0  0  0  0  0  0  0  0  0
   -3.4512   -2.0249   -0.0021 H   0  0  0  0  0  0  0  0  0  0  0  0
   -1.8236    2.1162   -0.0002 H   0  0  0  0  0  0  0  0  0  0  0  0
    4.2736    2.5975    2.1466 H   0  0  0  0  0  0  0  0  0  0  0  0
    4.2731    2.5913   -2.1503 H   0  0  0  0  0  0  0  0  0  0  0  0
   -5.6697   -1.1160   -0.0015 H   0  0  0  0  0  0  0  0  0  0  0  0
   -4.0201    2.9712    0.0004 H   0  0  0  0  0  0  0  0  0  0  0  0
    1.4506   -4.2689    0.0000 H   0  0  0  0  0  0  0  0  0  0  0  0
   -0.2975   -4.4101   -0.0006 H   0  0  0  0  0  0  0  0  0  0  0  0
    5.1899    3.4302   -0.0032 H   0  0  0  0  0  0  0  0  0  0  0  0
  1 21  2  0  0  0  0
  2  6  1  0  0  0  0
  2 11  1  0  0  0  0
  2 24  1  0  0  0  0
  3 11  1  0  0  0  0
  3 33  1  0  0  0  0
  3 34  1  0  0  0  0
  4 22  3  0  0  0  0
  5  7  2  0  0  0  0
  5  8  1  0  0  0  0
  5  9  1  0  0  0  0
  6  7  1  0  0  0  0
  6 10  2  0  0  0  0
  7 23  1  0  0  0  0
  8 11  2  0  0  0  0
  8 22  1  0  0  0  0
  9 12  2  0  0  0  0
  9 13  1  0  0  0  0
 10 14  1  0  0  0  0
 10 15  1  0  0  0  0
 12 16  1  0  0  0  0
 12 25  1  0  0  0  0
 13 17  2  0  0  0  0
 13 26  1  0  0  0  0
 14 18  2  0  0  0  0
 14 27  1  0  0  0  0
 15 19  2  0  0  0  0
 15 28  1  0  0  0  0
 16 20  2  0  0  0  0
 16 29  1  0  0  0  0
 17 20  1  0  0  0  0
 17 30  1  0  0  0  0
 18 21  1  0  0  0  0
 18 31  1  0  0  0  0
 19 21  1  0  0  0  0
 19 32  1  0  0  0  0
 20 35  1  0  0  0  0
M  END
> <PUBCHEM_COMPOUND_CID>
5407052

> <PUBCHEM_CONFORMER_RMSD>
0.6

> <PUBCHEM_CONFORMER_DIVERSEORDER>
1

> <PUBCHEM_MMFF94_PARTIAL_CHARGES>
34
1 -0.57
11 0.2
12 -0.15
13 -0.15
14 -0.15
15 -0.15
16 -0.15
17 -0.15
18 -0.14
19 -0.14
2 -0.6
20 -0.15
21 0.54
22 0.49
23 0.15
24 0.4
25 0.15
26 0.15
27 0.15
28 0.15
29 0.15
3 -0.9
30 0.15
31 0.15
32 0.15
33 0.4
34 0.4
35 0.15
4 -0.56
5 -0.03
6 0.1
7 -0.15
8 0.06
9 0.03

> <PUBCHEM_EFFECTIVE_ROTOR_COUNT>
1.2

> <PUBCHEM_PHARMACOPHORE_FEATURES>
9
1 1 acceptor
1 2 cation
1 2 donor
1 3 cation
1 3 donor
1 4 acceptor
6 10 14 15 18 19 21 rings
6 2 5 6 7 8 11 rings
6 9 12 13 16 17 20 rings

> <PUBCHEM_HEAVY_ATOM_COUNT>
22

> <PUBCHEM_ATOM_DEF_STEREO_COUNT>
0

> <PUBCHEM_ATOM_UDEF_STEREO_COUNT>
0

> <PUBCHEM_BOND_DEF_STEREO_COUNT>
0

> <PUBCHEM_BOND_UDEF_STEREO_COUNT>
0

> <PUBCHEM_ISOTOPIC_ATOM_COUNT>
0

> <PUBCHEM_COMPONENT_COUNT>
1

> <PUBCHEM_CACTVS_TAUTO_COUNT>
9

> <PUBCHEM_CONFORMER_ID>
0052814C00000001

> <PUBCHEM_MMFF94_ENERGY>
79.1524

> <PUBCHEM_FEATURE_SELFOVERLAP>
45.736

> <PUBCHEM_SHAPE_FINGERPRINT>
10411042 1 17618222801990914727
10498660 4 18341615940484495561
11405975 8 18337112263752870755
11582403 64 16628243741611631152
11725454 13 16915077755091547112
12173636 292 18267019638258148926
12390115 104 18269853062796545209
12633257 1 16081645694400094280
12730499 353 18411429422820842009
12788726 201 17131280048020989905
13140716 1 18408317778733612122
138480 1 18122343480388415650
13878862 14 18119228598855661829
13955234 65 18337676287401046187
13965767 371 18115570686731095108
14170010 4 18340483370809251882
14178342 30 18048868886867100466
14790565 3 18193001632406077597
14848178 96 18411700989129159233
15196674 1 18410575081111949095
15238133 3 16915946167377058753
15342168 16 18261674865186373749
15536298 74 18411700959069201663
18681886 176 18271237210502652242
18785283 64 18334293133018960010
20612939 158 18411140191038281477
20739085 24 18187367597185167060
21267235 1 18267311937312379635
21452121 103 18410849958570461496
21709351 56 18266732498541646671
21859007 373 17388517338552800429
22149856 69 18263385663415957161
22182313 1 18120961604583689690
22393880 68 18343309175268453191
2255824 54 18336829680358475946
23366157 5 18187364264206473875
23558518 356 18189611825225483402
23559900 14 18268423538872245459
3178227 256 18265064547665574250
350125 39 18409167675847243700
469060 322 17975995468049517539
474 4 18260831501128747305
495365 180 18412539894804367058
5104073 3 18408327666517941723
5265222 85 17906184202728230660
5895379 119 16843337687474336952
59755656 215 18411141325315966164
633830 44 18343018878708517407
6442390 28 18339081600230298374
6443956 14 18125441904461489062
67856867 119 18410849928584993451
7364860 26 18341329994483239794
7808743 9 18049161369750675232
84936 182 18272089374820985272
9981440 41 18335138751855237419
9999458 23 18334859359721620886

> <PUBCHEM_SHAPE_MULTIPOLES>
431.94
10.71
3.58
0.88
10.6
2.4
0
-8.04
0
-3.28
0
-0.95
-0.46
0

> <PUBCHEM_SHAPE_SELFOVERLAP>
953.353

> <PUBCHEM_SHAPE_VOLUME>
229.2

> <PUBCHEM_COORDINATE_TYPE>
2
5
10

$$$$
