644894
  -OEChem-01171812143D

 47 50  0     0  0  0  0  0  0999 V2000
   -1.5533   -1.5926   -1.9329 S   0  0  0  0  0  0  0  0  0  0  0  0
    3.9715   -1.5591    0.8415 S   0  0  0  0  0  0  0  0  0  0  0  0
    1.1538   -2.4132    1.7736 O   0  0  0  0  0  0  0  0  0  0  0  0
   -1.5478    2.4195   -0.9935 O   0  0  0  0  0  0  0  0  0  0  0  0
   -1.9556    3.5370    0.9772 O   0  0  0  0  0  0  0  0  0  0  0  0
   -1.4944   -1.6934    0.6564 N   0  0  0  0  0  0  0  0  0  0  0  0
    0.5625   -2.1873   -0.4999 N   0  0  0  0  0  0  0  0  0  0  0  0
    3.0873    0.7105   -0.4851 N   0  0  0  0  0  0  0  0  0  0  0  0
    3.3380    1.4542   -1.5716 N   0  0  0  0  0  0  0  0  0  0  0  0
    4.7553   -0.2638   -1.4704 N   0  0  0  0  0  0  0  0  0  0  0  0
    4.3594    0.8536   -2.1702 N   0  0  0  0  0  0  0  0  0  0  0  0
   -5.2557   -0.3141   -0.6938 C   0  0  0  0  0  0  0  0  0  0  0  0
   -5.2355   -1.0935    0.6333 C   0  0  0  0  0  0  0  0  0  0  0  0
   -4.2867   -0.9103   -1.7315 C   0  0  0  0  0  0  0  0  0  0  0  0
   -3.8403   -1.0876    1.2834 C   0  0  0  0  0  0  0  0  0  0  0  0
   -2.9865   -1.2459   -1.0842 C   0  0  0  0  0  0  0  0  0  0  0  0
   -2.7753   -1.3522    0.2764 C   0  0  0  0  0  0  0  0  0  0  0  0
   -0.7624   -1.8476   -0.4269 C   0  0  0  0  0  0  0  0  0  0  0  0
    1.4286   -2.4457    0.5770 C   0  0  0  0  0  0  0  0  0  0  0  0
    2.8365   -2.7723    0.1264 C   0  0  0  0  0  0  0  0  0  0  0  0
    2.0626    1.0506    0.3921 C   0  0  0  0  0  0  0  0  0  0  0  0
    3.9552   -0.3330   -0.4315 C   0  0  0  0  0  0  0  0  0  0  0  0
    0.9301    1.7132   -0.0811 C   0  0  0  0  0  0  0  0  0  0  0  0
   -0.0971    2.0541    0.7989 C   0  0  0  0  0  0  0  0  0  0  0  0
    2.1678    0.7288    1.7452 C   0  0  0  0  0  0  0  0  0  0  0  0
    0.0083    1.7323    2.1520 C   0  0  0  0  0  0  0  0  0  0  0  0
    1.1407    1.0696    2.6253 C   0  0  0  0  0  0  0  0  0  0  0  0
   -1.2773    2.7472    0.3070 C   0  0  0  0  0  0  0  0  0  0  0  0
   -2.6896    3.0409   -1.5933 C   0  0  0  0  0  0  0  0  0  0  0  0
   -4.9817    0.7299   -0.4951 H   0  0  0  0  0  0  0  0  0  0  0  0
   -6.2707   -0.3043   -1.1066 H   0  0  0  0  0  0  0  0  0  0  0  0
   -5.9644   -0.6649    1.3302 H   0  0  0  0  0  0  0  0  0  0  0  0
   -5.5453   -2.1290    0.4419 H   0  0  0  0  0  0  0  0  0  0  0  0
   -4.7232   -1.8244   -2.1518 H   0  0  0  0  0  0  0  0  0  0  0  0
   -4.1480   -0.1988   -2.5532 H   0  0  0  0  0  0  0  0  0  0  0  0
   -3.8024   -1.8340    2.0842 H   0  0  0  0  0  0  0  0  0  0  0  0
   -3.6543   -0.1069    1.7376 H   0  0  0  0  0  0  0  0  0  0  0  0
    0.9338   -2.2483   -1.4442 H   0  0  0  0  0  0  0  0  0  0  0  0
    2.9313   -2.8065   -0.9629 H   0  0  0  0  0  0  0  0  0  0  0  0
    3.0870   -3.7660    0.5114 H   0  0  0  0  0  0  0  0  0  0  0  0
    0.8479    1.9659   -1.1358 H   0  0  0  0  0  0  0  0  0  0  0  0
    3.0658    0.3439    2.2097 H   0  0  0  0  0  0  0  0  0  0  0  0
   -0.7815    1.9932    2.8517 H   0  0  0  0  0  0  0  0  0  0  0  0
    1.2345    0.8457    3.6840 H   0  0  0  0  0  0  0  0  0  0  0  0
   -3.5876    2.8419   -1.0012 H   0  0  0  0  0  0  0  0  0  0  0  0
   -2.5206    4.1173   -1.6888 H   0  0  0  0  0  0  0  0  0  0  0  0
   -2.8249    2.6133   -2.5902 H   0  0  0  0  0  0  0  0  0  0  0  0
  1 16  1  0  0  0  0
  1 18  1  0  0  0  0
  2 20  1  0  0  0  0
  2 22  1  0  0  0  0
  3 19  2  0  0  0  0
  4 28  1  0  0  0  0
  4 29  1  0  0  0  0
  5 28  2  0  0  0  0
  6 17  1  0  0  0  0
  6 18  2  0  0  0  0
  7 18  1  0  0  0  0
  7 19  1  0  0  0  0
  7 38  1  0  0  0  0
  8  9  1  0  0  0  0
  8 21  1  0  0  0  0
  8 22  1  0  0  0  0
  9 11  2  0  0  0  0
 10 11  1  0  0  0  0
 10 22  2  0  0  0  0
 12 13  1  0  0  0  0
 12 14  1  0  0  0  0
 12 30  1  0  0  0  0
 12 31  1  0  0  0  0
 13 15  1  0  0  0  0
 13 32  1  0  0  0  0
 13 33  1  0  0  0  0
 14 16  1  0  0  0  0
 14 34  1  0  0  0  0
 14 35  1  0  0  0  0
 15 17  1  0  0  0  0
 15 36  1  0  0  0  0
 15 37  1  0  0  0  0
 16 17  2  0  0  0  0
 19 20  1  0  0  0  0
 20 39  1  0  0  0  0
 20 40  1  0  0  0  0
 21 23  1  0  0  0  0
 21 25  2  0  0  0  0
 23 24  2  0  0  0  0
 23 41  1  0  0  0  0
 24 26  1  0  0  0  0
 24 28  1  0  0  0  0
 25 27  1  0  0  0  0
 25 42  1  0  0  0  0
 26 27  2  0  0  0  0
 26 43  1  0  0  0  0
 27 44  1  0  0  0  0
 29 45  1  0  0  0  0
 29 46  1  0  0  0  0
 29 47  1  0  0  0  0
M  END
> <PUBCHEM_COMPOUND_CID>
644894

> <PUBCHEM_CONFORMER_RMSD>
1.4

> <PUBCHEM_CONFORMER_DIVERSEORDER>
1
32
18
72
113
7
109
29
105
23
108
5
97
11
104
94
75
31
59
88
35
79
71
89
114
48
92
2
10
90
12
102
81
20
96
17
30
115
119
61
43
116
62
103
66
83
121
54
13
106
99
78
33
84
74
38
67
70
39
45
95
76
14
34
93
19
49
26
122
77
118
53
16
8
57
63
25
50
51
64
69
87
73
9
86
55
36
27
47
6
100
58
56
91
60
112
37
42
107
65
21
80
15
68
123
22
4
98
117
85
41
44
111
120
28
82
110
52
101
3
24
40
46

> <PUBCHEM_MMFF94_PARTIAL_CHARGES>
31
1 -0.08
10 -0.34
14 0.18
15 0.18
16 -0.14
17 0.05
18 0.44
19 0.57
2 -0.29
20 0.29
21 -0.02
22 0.24
23 -0.15
24 0.09
25 -0.15
26 -0.15
27 -0.15
28 0.63
29 0.28
3 -0.57
38 0.37
4 -0.43
41 0.15
42 0.15
43 0.15
44 0.15
5 -0.57
6 -0.57
7 -0.49
8 0.59
9 -0.42

> <PUBCHEM_EFFECTIVE_ROTOR_COUNT>
8.8

> <PUBCHEM_PHARMACOPHORE_FEATURES>
8
1 3 acceptor
1 5 acceptor
1 7 donor
3 8 10 22 cation
5 1 6 16 17 18 rings
5 8 9 10 11 22 rings
6 12 13 14 15 16 17 rings
6 21 23 24 25 26 27 rings

> <PUBCHEM_HEAVY_ATOM_COUNT>
29

> <PUBCHEM_ATOM_DEF_STEREO_COUNT>
0

> <PUBCHEM_ATOM_UDEF_STEREO_COUNT>
0

> <PUBCHEM_BOND_DEF_STEREO_COUNT>
0

> <PUBCHEM_BOND_UDEF_STEREO_COUNT>
0

> <PUBCHEM_ISOTOPIC_ATOM_COUNT>
0

> <PUBCHEM_COMPONENT_COUNT>
1

> <PUBCHEM_CACTVS_TAUTO_COUNT>
3

> <PUBCHEM_CONFORMER_ID>
0009D71E00000001

> <PUBCHEM_MMFF94_ENERGY>
67.3788

> <PUBCHEM_FEATURE_SELFOVERLAP>
40.665

> <PUBCHEM_SHAPE_FINGERPRINT>
104564 63 18342743978988976962
12422481 6 18054252954821702857
12553582 1 18341050808381135227
12596599 1 17489021690370951199
12788726 201 18341628026633015476
13726171 33 18040435490806590597
13947920 24 18042412494253880604
14363568 33 18046358693231258681
15210252 30 18188205536810030452
15968369 153 17987499452321766065
16752209 62 18342742892800191910
20691752 17 18194669587001792578
20764821 26 18127947789949941797
20905425 154 18271241617001337103
23559900 14 16734648802853681443
2818148 4 18271248205650045883
3027735 51 18199485297681579070
3052486 1 18264191548644543088
338550 245 18263078808370055645
484985 159 13894380419112261644
513532 50 17559376145060299031
57527573 199 17978769523096362016

> <PUBCHEM_SHAPE_MULTIPOLES>
557.01
8.99
3.74
2.14
3.01
1.72
-0.08
-3.1
2.96
0.79
-0.25
-0.66
0.58
-0.27

> <PUBCHEM_SHAPE_SELFOVERLAP>
1174.339

> <PUBCHEM_SHAPE_VOLUME>
315.4

> <PUBCHEM_COORDINATE_TYPE>
2
5
10

$$$$
