5033563
  -OEChem-01171811553D

 37 39  0     1  0  0  0  0  0999 V2000
   -5.1773    0.0911   -1.4080 Cl  0  0  0  0  0  0  0  0  0  0  0  0
   -2.2723    4.1374    0.6903 Cl  0  0  0  0  0  0  0  0  0  0  0  0
   -0.6499   -1.1094    2.2946 O   0  0  0  0  0  0  0  0  0  0  0  0
   -1.3287   -3.3412    0.3958 O   0  0  0  0  0  0  0  0  0  0  0  0
   -2.7802   -1.6109   -0.2551 N   0  0  0  0  0  0  0  0  0  0  0  0
    2.5513   -0.5535   -0.3800 N   0  0  0  0  0  0  0  0  0  0  0  0
    1.9185   -0.5556   -1.5655 N   0  0  0  0  0  0  0  0  0  0  0  0
    2.1857   -0.7237    1.9556 N   0  0  0  0  0  0  0  0  0  0  0  0
    7.0557    1.2995   -0.2009 N   0  0  0  0  0  0  0  0  0  0  0  0
   -0.8131   -0.9847    0.9024 C   0  0  2  0  0  0  0  0  0  0  0  0
    0.4511   -0.8098    0.1681 C   0  0  0  0  0  0  0  0  0  0  0  0
   -1.6634    0.2096    0.5509 C   0  0  0  0  0  0  0  0  0  0  0  0
   -1.6319   -2.1595    0.3308 C   0  0  0  0  0  0  0  0  0  0  0  0
   -2.8036   -0.2255   -0.1266 C   0  0  0  0  0  0  0  0  0  0  0  0
    1.7182   -0.7027    0.6897 C   0  0  0  0  0  0  0  0  0  0  0  0
    0.6366   -0.7123   -1.2247 C   0  0  0  0  0  0  0  0  0  0  0  0
   -1.4849    1.5557    0.8214 C   0  0  0  0  0  0  0  0  0  0  0  0
   -3.7823    0.6401   -0.5722 C   0  0  0  0  0  0  0  0  0  0  0  0
    3.9876   -0.3938   -0.3538 C   0  0  0  0  0  0  0  0  0  0  0  0
   -0.3927   -0.7641   -2.2781 C   0  0  0  0  0  0  0  0  0  0  0  0
   -2.4622    2.4532    0.3795 C   0  0  0  0  0  0  0  0  0  0  0  0
   -3.5996    1.9993   -0.3128 C   0  0  0  0  0  0  0  0  0  0  0  0
    4.4367    1.0655   -0.2705 C   0  0  0  0  0  0  0  0  0  0  0  0
    5.9006    1.1954   -0.2310 C   0  0  0  0  0  0  0  0  0  0  0  0
   -3.5108   -2.1438   -0.7119 H   0  0  0  0  0  0  0  0  0  0  0  0
   -0.6076    1.8985    1.3609 H   0  0  0  0  0  0  0  0  0  0  0  0
   -0.2074   -1.9576    2.4707 H   0  0  0  0  0  0  0  0  0  0  0  0
    4.3897   -0.9822    0.4787 H   0  0  0  0  0  0  0  0  0  0  0  0
    4.3824   -0.8589   -1.2669 H   0  0  0  0  0  0  0  0  0  0  0  0
   -1.0581    0.1011   -2.2378 H   0  0  0  0  0  0  0  0  0  0  0  0
    0.0726   -0.7414   -3.2714 H   0  0  0  0  0  0  0  0  0  0  0  0
   -0.9718   -1.6892   -2.2411 H   0  0  0  0  0  0  0  0  0  0  0  0
   -4.3469    2.7173   -0.6460 H   0  0  0  0  0  0  0  0  0  0  0  0
    3.1667   -0.6117    2.1888 H   0  0  0  0  0  0  0  0  0  0  0  0
    1.5656   -0.8198    2.7534 H   0  0  0  0  0  0  0  0  0  0  0  0
    4.0080    1.5344    0.6235 H   0  0  0  0  0  0  0  0  0  0  0  0
    4.0442    1.6229   -1.1296 H   0  0  0  0  0  0  0  0  0  0  0  0
  1 18  1  0  0  0  0
  2 21  1  0  0  0  0
  3 10  1  0  0  0  0
  3 27  1  0  0  0  0
  4 13  2  0  0  0  0
  5 13  1  0  0  0  0
  5 14  1  0  0  0  0
  5 25  1  0  0  0  0
  6  7  1  0  0  0  0
  6 15  1  0  0  0  0
  6 19  1  0  0  0  0
  7 16  2  0  0  0  0
  8 15  1  0  0  0  0
  8 34  1  0  0  0  0
  8 35  1  0  0  0  0
  9 24  3  0  0  0  0
 10 11  1  0  0  0  0
 10 12  1  0  0  0  0
 10 13  1  0  0  0  0
 11 15  2  0  0  0  0
 11 16  1  0  0  0  0
 12 14  2  0  0  0  0
 12 17  1  0  0  0  0
 14 18  1  0  0  0  0
 16 20  1  0  0  0  0
 17 21  2  0  0  0  0
 17 26  1  0  0  0  0
 18 22  2  0  0  0  0
 19 23  1  0  0  0  0
 19 28  1  0  0  0  0
 19 29  1  0  0  0  0
 20 30  1  0  0  0  0
 20 31  1  0  0  0  0
 20 32  1  0  0  0  0
 21 22  1  0  0  0  0
 22 33  1  0  0  0  0
 23 24  1  0  0  0  0
 23 36  1  0  0  0  0
 23 37  1  0  0  0  0
M  END
> <PUBCHEM_COMPOUND_CID>
5033563

> <PUBCHEM_CONFORMER_RMSD>
0.6

> <PUBCHEM_CONFORMER_DIVERSEORDER>
21
32
8
2
18
31
37
1
34
14
24
11
38
35
25
23
10
27
15
4
26
17
7
5
20
36
12
6
19
16
28
9
3
13
30
33
22
29

> <PUBCHEM_MMFF94_PARTIAL_CHARGES>
30
1 -0.18
10 0.67
11 -0.18
12 -0.14
13 0.57
14 0.12
15 -0.07
16 0.11
17 -0.15
18 0.18
19 0.26
2 -0.18
20 0.18
21 0.18
22 -0.15
23 0.2
24 0.36
25 0.37
26 0.15
27 0.4
3 -0.68
33 0.15
34 0.4
35 0.4
4 -0.57
5 -0.55
6 0.31
7 -0.71
8 -0.88
9 -0.56

> <PUBCHEM_EFFECTIVE_ROTOR_COUNT>
3.4

> <PUBCHEM_PHARMACOPHORE_FEATURES>
11
1 3 acceptor
1 3 donor
1 4 acceptor
1 5 donor
1 7 acceptor
1 8 cation
1 8 donor
1 9 acceptor
5 5 10 12 13 14 rings
5 6 7 11 15 16 rings
6 12 14 17 18 21 22 rings

> <PUBCHEM_HEAVY_ATOM_COUNT>
24

> <PUBCHEM_ATOM_DEF_STEREO_COUNT>
0

> <PUBCHEM_ATOM_UDEF_STEREO_COUNT>
1

> <PUBCHEM_BOND_DEF_STEREO_COUNT>
0

> <PUBCHEM_BOND_UDEF_STEREO_COUNT>
0

> <PUBCHEM_ISOTOPIC_ATOM_COUNT>
0

> <PUBCHEM_COMPONENT_COUNT>
1

> <PUBCHEM_CACTVS_TAUTO_COUNT>
6

> <PUBCHEM_CONFORMER_ID>
004CCE5B00000015

> <PUBCHEM_MMFF94_ENERGY>
46.0481

> <PUBCHEM_FEATURE_SELFOVERLAP>
55.913

> <PUBCHEM_SHAPE_FINGERPRINT>
10291535 26 18410579512985643776
10948715 1 18267869376205399951
11315181 36 17895475959804796596
11640471 11 17822298950464142271
11961588 58 18411690002465334692
12107183 9 17974846173787960410
12236239 1 17822002099784483171
12403260 363 18195234525530314171
12788726 201 18341886377510917049
13583140 156 18131073783718813958
13911987 19 18336532868670353589
13965767 371 17463985548513467845
14142880 1 17894349981966102519
14178342 30 16805900579548550074
14251751 18 9007055769223082236
14251764 75 17695076500198832305
14739800 52 18338780283401928000
15163728 17 18199194983656852928
15209294 21 17894347783291045356
15537594 2 11384118527107721460
16945 1 18341327808598126355
17492 54 18339909460052305669
200 152 15195565684513357726
20600515 1 17768001931354875515
21033648 29 15937258776738930053
22956985 138 16606607779017296842
23227448 37 18337675320753699500
23402539 116 18413384324562274999
23419403 2 16603453194199449439
23557571 272 18339648961189264878
23559900 14 18056760928023723286
2838139 119 18341892983492832612
3472631 163 18123751946452755389
3633792 109 17823678803361131191
465052 167 11382965230263451901
474 4 17749113313784592628
7808743 9 18341051800550859480
9981440 41 18408610249084790850

> <PUBCHEM_SHAPE_MULTIPOLES>
461
10.18
3.05
1.55
17.16
2.14
-0.01
6.42
-3.09
-2.84
0.83
-0.2
-0.58
-0.44

> <PUBCHEM_SHAPE_SELFOVERLAP>
993.727

> <PUBCHEM_SHAPE_VOLUME>
256

> <PUBCHEM_COORDINATE_TYPE>
2
5
10

$$$$
