804205
  -OEChem-01171811473D

 32 34  0     0  0  0  0  0  0999 V2000
    2.9107    2.4745   -1.1088 S   0  0  0  0  0  0  0  0  0  0  0  0
   -4.1888   -1.8035   -0.7470 S   0  0  0  0  0  0  0  0  0  0  0  0
    2.1404    0.1333   -0.1937 N   0  0  0  0  0  0  0  0  0  0  0  0
    0.5762    1.8878   -0.0134 N   0  0  0  0  0  0  0  0  0  0  0  0
   -2.6645   -1.4850   -1.3239 N   0  0  0  0  0  0  0  0  0  0  0  0
   -4.3268   -0.6386    0.4284 N   0  0  0  0  0  0  0  0  0  0  0  0
    3.6626   -2.0944    0.7929 C   0  0  0  0  0  0  0  0  0  0  0  0
    2.7739   -1.2611    1.7147 C   0  0  0  0  0  0  0  0  0  0  0  0
    4.1392   -1.2635   -0.3971 C   0  0  0  0  0  0  0  0  0  0  0  0
    1.6206   -0.6218    0.9448 C   0  0  0  0  0  0  0  0  0  0  0  0
    2.9644   -0.6242   -1.1338 C   0  0  0  0  0  0  0  0  0  0  0  0
    1.8020    1.4244   -0.4140 C   0  0  0  0  0  0  0  0  0  0  0  0
   -0.6770    1.2374    0.0946 C   0  0  0  0  0  0  0  0  0  0  0  0
   -0.9292    0.1673   -0.7673 C   0  0  0  0  0  0  0  0  0  0  0  0
   -1.5804    1.7133    1.0620 C   0  0  0  0  0  0  0  0  0  0  0  0
   -2.1963   -0.4452   -0.6149 C   0  0  0  0  0  0  0  0  0  0  0  0
   -3.1763    0.0538    0.4182 C   0  0  0  0  0  0  0  0  0  0  0  0
   -2.8507    1.1455    1.2583 C   0  0  0  0  0  0  0  0  0  0  0  0
    4.5253   -2.4744    1.3510 H   0  0  0  0  0  0  0  0  0  0  0  0
    3.1022   -2.9654    0.4319 H   0  0  0  0  0  0  0  0  0  0  0  0
    2.3803   -1.8900    2.5209 H   0  0  0  0  0  0  0  0  0  0  0  0
    3.3803   -0.4754    2.1830 H   0  0  0  0  0  0  0  0  0  0  0  0
    4.8196   -0.4801   -0.0409 H   0  0  0  0  0  0  0  0  0  0  0  0
    4.7080   -1.8977   -1.0861 H   0  0  0  0  0  0  0  0  0  0  0  0
    0.9470   -1.3993    0.5686 H   0  0  0  0  0  0  0  0  0  0  0  0
    1.0717    0.0204    1.6389 H   0  0  0  0  0  0  0  0  0  0  0  0
    3.3178   -0.0348   -1.9830 H   0  0  0  0  0  0  0  0  0  0  0  0
    2.3223   -1.4081   -1.5557 H   0  0  0  0  0  0  0  0  0  0  0  0
    0.5532    2.8747    0.2349 H   0  0  0  0  0  0  0  0  0  0  0  0
   -0.2339   -0.1727   -1.5250 H   0  0  0  0  0  0  0  0  0  0  0  0
   -1.2972    2.5548    1.6937 H   0  0  0  0  0  0  0  0  0  0  0  0
   -3.5328    1.5262    2.0096 H   0  0  0  0  0  0  0  0  0  0  0  0
  1 12  2  0  0  0  0
  2  5  1  0  0  0  0
  2  6  1  0  0  0  0
  3 10  1  0  0  0  0
  3 11  1  0  0  0  0
  3 12  1  0  0  0  0
  4 12  1  0  0  0  0
  4 13  1  0  0  0  0
  4 29  1  0  0  0  0
  5 16  2  0  0  0  0
  6 17  2  0  0  0  0
  7  8  1  0  0  0  0
  7  9  1  0  0  0  0
  7 19  1  0  0  0  0
  7 20  1  0  0  0  0
  8 10  1  0  0  0  0
  8 21  1  0  0  0  0
  8 22  1  0  0  0  0
  9 11  1  0  0  0  0
  9 23  1  0  0  0  0
  9 24  1  0  0  0  0
 10 25  1  0  0  0  0
 10 26  1  0  0  0  0
 11 27  1  0  0  0  0
 11 28  1  0  0  0  0
 13 14  2  0  0  0  0
 13 15  1  0  0  0  0
 14 16  1  0  0  0  0
 14 30  1  0  0  0  0
 15 18  2  0  0  0  0
 15 31  1  0  0  0  0
 16 17  1  0  0  0  0
 17 18  1  0  0  0  0
 18 32  1  0  0  0  0
M  END
> <PUBCHEM_COMPOUND_CID>
804205

> <PUBCHEM_CONFORMER_RMSD>
0.6

> <PUBCHEM_CONFORMER_DIVERSEORDER>
1
8
16
32
41
66
45
43
75
11
35
71
3
33
19
44
65
14
56
77
62
39
7
42
25
21
47
72
40
46
38
79
34
12
70
5
51
69
68
64
55
36
27
26
76
4
18
58
67
74
53
54
73
63
48
59
78
2
30
61
52
49
50
20
22
28
9
57
13
29
31
60
37
17
23
15
24
6
10

> <PUBCHEM_MMFF94_PARTIAL_CHARGES>
19
1 -0.38
10 0.3
11 0.3
12 0.5
13 0.12
14 -0.15
15 -0.15
16 0.29
17 0.29
18 -0.15
2 0.44
29 0.37
3 -0.66
30 0.15
31 0.15
32 0.15
4 -0.55
5 -0.51
6 -0.51

> <PUBCHEM_EFFECTIVE_ROTOR_COUNT>
4.2

> <PUBCHEM_PHARMACOPHORE_FEATURES>
7
1 1 acceptor
1 4 donor
1 5 acceptor
1 6 acceptor
5 2 5 6 16 17 rings
6 13 14 15 16 17 18 rings
6 3 7 8 9 10 11 rings

> <PUBCHEM_HEAVY_ATOM_COUNT>
18

> <PUBCHEM_ATOM_DEF_STEREO_COUNT>
0

> <PUBCHEM_ATOM_UDEF_STEREO_COUNT>
0

> <PUBCHEM_BOND_DEF_STEREO_COUNT>
0

> <PUBCHEM_BOND_UDEF_STEREO_COUNT>
0

> <PUBCHEM_ISOTOPIC_ATOM_COUNT>
0

> <PUBCHEM_COMPONENT_COUNT>
1

> <PUBCHEM_CACTVS_TAUTO_COUNT>
3

> <PUBCHEM_CONFORMER_ID>
000C456D00000001

> <PUBCHEM_MMFF94_ENERGY>
62.6606

> <PUBCHEM_FEATURE_SELFOVERLAP>
35.635

> <PUBCHEM_SHAPE_FINGERPRINT>
10062212 137 18343021090938408155
11578080 2 18266718269036212176
12346177 29 18059563634422398517
12553582 1 18188492359199995610
12596599 1 18342465793973253674
12670545 47 15267346244903016565
12788726 201 18059591221144969113
13009979 54 18201449034339018768
13083527 12 18116409571206019992
14178342 30 18057321687000056394
15099037 8 18412263943255916633
15375462 189 18269559497560534865
15653759 3 16702016444269898986
16752209 62 18131066001042713061
17804303 29 17775290417323998968
1813 80 18190470372218366806
18186145 218 15213010527773454253
19422 9 18341622524457857029
200 152 17603868853883236810
20291156 8 18411134718928251458
20361792 2 18187360978835716364
20442098 301 18273496753888508310
20645477 70 18260541272982411383
20671657 53 18113611257829842468
21634736 98 18408889563824676958
21713013 43 16009328529618224707
21731516 1 18262513698079330056
22112679 90 18343308045665991944
2255824 54 18261119603561807756
22646028 28 18411981355866845579
232386 152 18060415807099031336
23402539 116 18116432540801745914
23503958 8 17988644034492178242
23559900 14 17346329192900202668
23596394 208 17095518504666337094
23598291 2 18337403668288177404
312423 11 18411429426831030877
339767 52 18338785732876590746
474 4 18044665428071001980
5104073 3 18272660069032698513
603831 33 18340493386193438461
7970288 3 18335980865914440586

> <PUBCHEM_SHAPE_MULTIPOLES>
358.21
8.3
2.46
1.39
2.24
0.58
-0.19
-4.48
0.55
-1.5
0.14
-0.16
-0.17
-2.08

> <PUBCHEM_SHAPE_SELFOVERLAP>
739.245

> <PUBCHEM_SHAPE_VOLUME>
206.8

> <PUBCHEM_COORDINATE_TYPE>
2
5
10

$$$$
