5342416
  -OEChem-01171812063D

 38 40  0     0  0  0  0  0  0999 V2000
    7.7521    2.2135    0.5589 Br  0  0  0  0  0  0  0  0  0  0  0  0
    1.3184   -0.0073    0.3770 O   0  0  0  0  0  0  0  0  0  0  0  0
   -5.4998    1.1929   -0.1308 O   0  0  0  0  0  0  0  0  0  0  0  0
    4.5594   -0.1881   -2.9453 O   0  5  0  0  0  0  0  0  0  0  0  0
    2.7960   -1.0031   -1.9230 O   0  0  0  0  0  0  0  0  0  0  0  0
   -4.5663   -2.1712    0.3459 O   0  0  0  0  0  0  0  0  0  0  0  0
    3.8867   -0.3868   -1.9073 N   0  3  0  0  0  0  0  0  0  0  0  0
   -3.2951   -0.2710    0.1500 N   0  0  0  0  0  0  0  0  0  0  0  0
   -2.1503   -0.9773    0.3155 N   0  0  0  0  0  0  0  0  0  0  0  0
    3.6752   -0.0837    0.5241 C   0  0  0  0  0  0  0  0  0  0  0  0
    2.4116   -0.7875    0.5509 C   0  0  0  0  0  0  0  0  0  0  0  0
    4.3796    0.1049   -0.6651 C   0  0  0  0  0  0  0  0  0  0  0  0
    2.0645   -2.1000    0.7177 C   0  0  0  0  0  0  0  0  0  0  0  0
    4.1859    0.4126    1.7234 C   0  0  0  0  0  0  0  0  0  0  0  0
    0.2458   -0.8395    0.4339 C   0  0  0  0  0  0  0  0  0  0  0  0
    0.6518   -2.1372    0.6419 C   0  0  0  0  0  0  0  0  0  0  0  0
    5.5948    0.7896   -0.6548 C   0  0  0  0  0  0  0  0  0  0  0  0
    5.4009    1.0974    1.7337 C   0  0  0  0  0  0  0  0  0  0  0  0
    6.1056    1.2859    0.5446 C   0  0  0  0  0  0  0  0  0  0  0  0
   -5.7078   -0.1198    0.0192 C   0  0  0  0  0  0  0  0  0  0  0  0
   -6.7417    1.7303   -0.2536 C   0  0  0  0  0  0  0  0  0  0  0  0
   -1.0485   -0.2687    0.2784 C   0  0  0  0  0  0  0  0  0  0  0  0
   -7.0059   -0.4702    0.0016 C   0  0  0  0  0  0  0  0  0  0  0  0
   -7.7023    0.7486   -0.1787 C   0  0  0  0  0  0  0  0  0  0  0  0
   -4.5059   -0.9517    0.1769 C   0  0  0  0  0  0  0  0  0  0  0  0
   -6.8048    3.1874   -0.4350 C   0  0  0  0  0  0  0  0  0  0  0  0
    2.7352   -2.9329    0.8746 H   0  0  0  0  0  0  0  0  0  0  0  0
    3.6498    0.2755    2.6596 H   0  0  0  0  0  0  0  0  0  0  0  0
    0.0151   -3.0062    0.7289 H   0  0  0  0  0  0  0  0  0  0  0  0
    6.1634    0.9500   -1.5682 H   0  0  0  0  0  0  0  0  0  0  0  0
    5.7849    1.4780    2.6766 H   0  0  0  0  0  0  0  0  0  0  0  0
   -1.0933    0.8247    0.1205 H   0  0  0  0  0  0  0  0  0  0  0  0
   -7.4289   -1.4592    0.1023 H   0  0  0  0  0  0  0  0  0  0  0  0
   -8.7715    0.8907   -0.2457 H   0  0  0  0  0  0  0  0  0  0  0  0
   -6.2706    3.4852   -1.3425 H   0  0  0  0  0  0  0  0  0  0  0  0
   -7.8404    3.5304   -0.5231 H   0  0  0  0  0  0  0  0  0  0  0  0
   -6.3490    3.7010    0.4171 H   0  0  0  0  0  0  0  0  0  0  0  0
   -3.2284    0.7336    0.0184 H   0  0  0  0  0  0  0  0  0  0  0  0
  1 19  1  0  0  0  0
  2 11  1  0  0  0  0
  2 15  1  0  0  0  0
  3 20  1  0  0  0  0
  3 21  1  0  0  0  0
  4  7  1  0  0  0  0
  5  7  2  0  0  0  0
  6 25  2  0  0  0  0
  7 12  1  0  0  0  0
  8  9  1  0  0  0  0
  8 25  1  0  0  0  0
  8 38  1  0  0  0  0
  9 22  2  0  0  0  0
 10 11  1  0  0  0  0
 10 12  2  0  0  0  0
 10 14  1  0  0  0  0
 11 13  2  0  0  0  0
 12 17  1  0  0  0  0
 13 16  1  0  0  0  0
 13 27  1  0  0  0  0
 14 18  2  0  0  0  0
 14 28  1  0  0  0  0
 15 16  2  0  0  0  0
 15 22  1  0  0  0  0
 16 29  1  0  0  0  0
 17 19  2  0  0  0  0
 17 30  1  0  0  0  0
 18 19  1  0  0  0  0
 18 31  1  0  0  0  0
 20 23  2  0  0  0  0
 20 25  1  0  0  0  0
 21 24  2  0  0  0  0
 21 26  1  0  0  0  0
 22 32  1  0  0  0  0
 23 24  1  0  0  0  0
 23 33  1  0  0  0  0
 24 34  1  0  0  0  0
 26 35  1  0  0  0  0
 26 36  1  0  0  0  0
 26 37  1  0  0  0  0
M  CHG  2   4  -1   7   1
M  END
> <PUBCHEM_COMPOUND_CID>
5342416

> <PUBCHEM_CONFORMER_RMSD>
0.8

> <PUBCHEM_CONFORMER_DIVERSEORDER>
1
12
13
7
14
4
15
6
16
9
5
8
11
10
3
2

> <PUBCHEM_MMFF94_PARTIAL_CHARGES>
35
1 -0.11
10 0.05
11 0.09
12 0.13
13 -0.15
14 -0.15
15 0.05
16 -0.15
17 -0.15
18 -0.15
19 0.11
2 -0.28
20 0.05
21 -0.04
22 0.47
23 -0.15
24 -0.15
25 0.71
26 0.18
27 0.15
28 0.15
29 0.15
3 -0.28
30 0.15
31 0.15
32 0.06
33 0.15
34 0.15
38 0.37
4 -0.52
5 -0.52
6 -0.57
7 0.91
8 -0.37
9 -0.51

> <PUBCHEM_EFFECTIVE_ROTOR_COUNT>
6

> <PUBCHEM_PHARMACOPHORE_FEATURES>
12
1 1 hydrophobe
1 2 acceptor
1 3 acceptor
1 4 acceptor
1 4 anion
1 5 acceptor
1 6 acceptor
1 8 donor
1 9 acceptor
5 2 11 13 15 16 rings
5 3 20 21 23 24 rings
6 10 12 14 17 18 19 rings

> <PUBCHEM_HEAVY_ATOM_COUNT>
26

> <PUBCHEM_ATOM_DEF_STEREO_COUNT>
0

> <PUBCHEM_ATOM_UDEF_STEREO_COUNT>
0

> <PUBCHEM_BOND_DEF_STEREO_COUNT>
1

> <PUBCHEM_BOND_UDEF_STEREO_COUNT>
0

> <PUBCHEM_ISOTOPIC_ATOM_COUNT>
0

> <PUBCHEM_COMPONENT_COUNT>
1

> <PUBCHEM_CACTVS_TAUTO_COUNT>
2

> <PUBCHEM_CONFORMER_ID>
005184D000000001

> <PUBCHEM_MMFF94_ENERGY>
55.5943

> <PUBCHEM_FEATURE_SELFOVERLAP>
60.989

> <PUBCHEM_SHAPE_FINGERPRINT>
10 15 18113052740794309145
10162869 55 16371282346250779355
10554248 39 18118948223496028375
10693767 8 14332593085303318492
10740516 88 11603635972623792384
10906281 52 17458921378528764899
11409948 41 15697457550987217036
11475781 23 18413110537033646541
11991303 11 16271631378553530349
12616971 3 16225765233509903543
13533116 47 13912319066861199272
13627175 4 12175615196983233237
13668630 136 11312058755293981537
13685833 64 8646773304716935362
14294032 229 18187354445937206703
14556957 393 16271939245977843393
15183329 4 15913331290705202295
15348495 7 13407088019521879953
15840311 113 17458625662390281148
16989713 51 17629473362070935103
18222031 100 10952053363840525554
18335252 114 16917068893614675944
19377110 9 17095519574471850977
20281389 69 18261671494174817521
20721686 124 18060701694036375670
21150785 3 16988841696591368367
21424621 283 18334292071977363763
21521239 73 14332864716262225052
21792934 111 13334731328868609567
22061861 79 16773801368372665407
221357 26 16917351433030834040
22149856 69 18041855995858062089
23081809 10 18186795873220500643
23559900 14 15984811680009849979
23569914 152 16909479793333292845
24771293 8 18334573581108604004
300161 21 18408036304458281051
3178227 256 13551184494778765944
3472631 163 18338518668258703300
34797466 226 17846781823525345475
4073 2 18113900472628518763
4340502 62 15574709197077553546
44249763 50 17987782120840007363
465052 167 8646771114457623146
5385378 56 17749663018096134842
5758199 1 17967529090485721419
57634706 306 16127230378032101688
5937810 71 17918000451801229073
59682541 52 16630530617927259270
636775 72 18335979856744526705

> <PUBCHEM_SHAPE_MULTIPOLES>
496.72
24.26
2.3
1.48
24.93
0.9
1
18.02
0.23
2.02
-0.24
-3.48
-0.11
1.54

> <PUBCHEM_SHAPE_SELFOVERLAP>
1075.123

> <PUBCHEM_SHAPE_VOLUME>
279

> <PUBCHEM_COORDINATE_TYPE>
2
5
10

$$$$
