16738607
  -OEChem-01171811573D

 34 36  0     0  0  0  0  0  0999 V2000
   -1.3195   -2.0969   -0.7824 S   0  0  0  0  0  0  0  0  0  0  0  0
   -3.2051    3.0698    1.3508 F   0  0  0  0  0  0  0  0  0  0  0  0
    1.1578   -3.1059    0.9396 O   0  0  0  0  0  0  0  0  0  0  0  0
   -2.1280   -2.3894   -1.9513 O   0  0  0  0  0  0  0  0  0  0  0  0
   -1.2758   -3.0405    0.3180 O   0  0  0  0  0  0  0  0  0  0  0  0
    0.2751   -1.7111   -1.2955 N   0  0  0  0  0  0  0  0  0  0  0  0
    1.1654   -1.0856   -0.3586 C   0  0  0  0  0  0  0  0  0  0  0  0
    1.6085    0.2335   -0.5485 C   0  0  0  0  0  0  0  0  0  0  0  0
    2.4876    0.8111    0.3983 C   0  0  0  0  0  0  0  0  0  0  0  0
    1.5832   -1.8248    0.7486 C   0  0  0  0  0  0  0  0  0  0  0  0
   -1.8851   -0.5466   -0.1426 C   0  0  0  0  0  0  0  0  0  0  0  0
    2.8976    0.0528    1.5071 C   0  0  0  0  0  0  0  0  0  0  0  0
    1.1985    0.9920   -1.6570 C   0  0  0  0  0  0  0  0  0  0  0  0
    2.4475   -1.2565    1.6798 C   0  0  0  0  0  0  0  0  0  0  0  0
    2.9307    2.1302    0.2087 C   0  0  0  0  0  0  0  0  0  0  0  0
    1.6488    2.3011   -1.8297 C   0  0  0  0  0  0  0  0  0  0  0  0
   -2.5311    0.3607   -0.9823 C   0  0  0  0  0  0  0  0  0  0  0  0
   -1.6849   -0.2321    1.2015 C   0  0  0  0  0  0  0  0  0  0  0  0
    2.5133    2.8692   -0.8986 C   0  0  0  0  0  0  0  0  0  0  0  0
   -2.9772    1.5824   -0.4780 C   0  0  0  0  0  0  0  0  0  0  0  0
   -2.1306    0.9897    1.7058 C   0  0  0  0  0  0  0  0  0  0  0  0
   -2.7768    1.8969    0.8662 C   0  0  0  0  0  0  0  0  0  0  0  0
    0.4044   -1.4677   -2.2846 H   0  0  0  0  0  0  0  0  0  0  0  0
    3.5726    0.4769    2.2476 H   0  0  0  0  0  0  0  0  0  0  0  0
    0.5192    0.5996   -2.4087 H   0  0  0  0  0  0  0  0  0  0  0  0
    2.7806   -1.8203    2.5472 H   0  0  0  0  0  0  0  0  0  0  0  0
    3.6064    2.5945    0.9240 H   0  0  0  0  0  0  0  0  0  0  0  0
    1.3226    2.8780   -2.6902 H   0  0  0  0  0  0  0  0  0  0  0  0
   -2.6901    0.1403   -2.0339 H   0  0  0  0  0  0  0  0  0  0  0  0
   -1.1873   -0.9235    1.8752 H   0  0  0  0  0  0  0  0  0  0  0  0
    2.8629    3.8887   -1.0332 H   0  0  0  0  0  0  0  0  0  0  0  0
   -3.4783    2.2899   -1.1319 H   0  0  0  0  0  0  0  0  0  0  0  0
   -1.9749    1.2348    2.7522 H   0  0  0  0  0  0  0  0  0  0  0  0
    1.5482   -3.4524    1.7602 H   0  0  0  0  0  0  0  0  0  0  0  0
  1  4  2  0  0  0  0
  1  5  2  0  0  0  0
  1  6  1  0  0  0  0
  1 11  1  0  0  0  0
  2 22  1  0  0  0  0
  3 10  1  0  0  0  0
  3 34  1  0  0  0  0
  6  7  1  0  0  0  0
  6 23  1  0  0  0  0
  7  8  1  0  0  0  0
  7 10  2  0  0  0  0
  8  9  1  0  0  0  0
  8 13  2  0  0  0  0
  9 12  1  0  0  0  0
  9 15  2  0  0  0  0
 10 14  1  0  0  0  0
 11 17  2  0  0  0  0
 11 18  1  0  0  0  0
 12 14  2  0  0  0  0
 12 24  1  0  0  0  0
 13 16  1  0  0  0  0
 13 25  1  0  0  0  0
 14 26  1  0  0  0  0
 15 19  1  0  0  0  0
 15 27  1  0  0  0  0
 16 19  2  0  0  0  0
 16 28  1  0  0  0  0
 17 20  1  0  0  0  0
 17 29  1  0  0  0  0
 18 21  2  0  0  0  0
 18 30  1  0  0  0  0
 19 31  1  0  0  0  0
 20 22  2  0  0  0  0
 20 32  1  0  0  0  0
 21 22  1  0  0  0  0
 21 33  1  0  0  0  0
M  END
> <PUBCHEM_COMPOUND_CID>
16738607

> <PUBCHEM_CONFORMER_RMSD>
0.6

> <PUBCHEM_CONFORMER_DIVERSEORDER>
1
12
18
16
9
17
7
2
6
10
14
13
15
19
5
11
4
3
8

> <PUBCHEM_MMFF94_PARTIAL_CHARGES>
32
1 1.45
10 0.08
11 -0.01
12 -0.15
13 -0.15
14 -0.15
15 -0.15
16 -0.15
17 -0.15
18 -0.15
19 -0.15
2 -0.19
20 -0.15
21 -0.15
22 0.19
23 0.42
24 0.15
25 0.15
26 0.15
27 0.15
28 0.15
29 0.15
3 -0.53
30 0.15
31 0.15
32 0.15
33 0.15
34 0.45
4 -0.65
5 -0.65
6 -0.76
7 0.2

> <PUBCHEM_EFFECTIVE_ROTOR_COUNT>
3

> <PUBCHEM_PHARMACOPHORE_FEATURES>
7
1 3 donor
1 4 acceptor
1 5 acceptor
1 6 donor
6 11 17 18 20 21 22 rings
6 7 8 9 10 12 14 rings
6 8 9 13 15 16 19 rings

> <PUBCHEM_HEAVY_ATOM_COUNT>
22

> <PUBCHEM_ATOM_DEF_STEREO_COUNT>
0

> <PUBCHEM_ATOM_UDEF_STEREO_COUNT>
0

> <PUBCHEM_BOND_DEF_STEREO_COUNT>
0

> <PUBCHEM_BOND_UDEF_STEREO_COUNT>
0

> <PUBCHEM_ISOTOPIC_ATOM_COUNT>
0

> <PUBCHEM_COMPONENT_COUNT>
1

> <PUBCHEM_CACTVS_TAUTO_COUNT>
3

> <PUBCHEM_CONFORMER_ID>
00FF692F00000001

> <PUBCHEM_MMFF94_ENERGY>
57.6654

> <PUBCHEM_FEATURE_SELFOVERLAP>
35.57

> <PUBCHEM_SHAPE_FINGERPRINT>
10165383 225 16911491083198992833
11244481 83 17245877742009295329
11578080 2 16467204994402838863
11640471 11 18413385440773912065
12633257 1 17313394387215597897
12788726 201 18198623427168894397
128993 33 18194712390683034441
13009979 54 18122880265696787602
13134695 92 17828200991358687854
13583140 156 17895474705458140003
13965767 371 17621866600735778475
14251751 93 18266199381531218532
14251757 17 17697644036269318052
14713325 29 16745139527172850684
14787075 74 16819676618083092998
14790565 3 18186519921909485628
15420108 30 17480278099181703215
16945 1 18263634091911991194
17492 54 14327998328229858025
18981168 100 17987540193600287927
192875 21 17975668873997886254
20510252 161 17614283694404351430
20715895 44 18192690278016570357
21330990 113 17337319563237388574
21731516 1 8142083152294216401
23419403 2 15752312944966124919
23557571 272 17416405591517571262
2748010 2 17255653337041783854
350125 39 18266480821673592678
3797600 57 17976294461839002217
474 4 18196089937540826729
484985 159 14641597396924215618
539174 4 18188196710831298956
568465 68 16154264988555688042
57527585 21 15338269220229763401
5845 1 9964197193557610803
6992083 37 18265315232089856458
81228 2 17400107629591020764

> <PUBCHEM_SHAPE_MULTIPOLES>
426.74
5.14
3.7
1.85
0.35
0.35
-0.06
-3.06
0.92
0.51
0
0.15
-0.16
-2.26

> <PUBCHEM_SHAPE_SELFOVERLAP>
930.45

> <PUBCHEM_SHAPE_VOLUME>
235

> <PUBCHEM_COORDINATE_TYPE>
2
5
10

$$$$
