1326684
  -OEChem-01171812023D

 41 43  0     0  0  0  0  0  0999 V2000
    5.7083    2.2568    0.3299 Br  0  0  0  0  0  0  0  0  0  0  0  0
   -4.8117   -2.2569   -0.0211 Cl  0  0  0  0  0  0  0  0  0  0  0  0
   -1.1365    0.7091   -2.5989 S   0  0  0  0  0  0  0  0  0  0  0  0
   -3.7857    1.8158   -1.7010 S   0  0  0  0  0  0  0  0  0  0  0  0
    1.7907   -2.3064   -0.2613 O   0  0  0  0  0  0  0  0  0  0  0  0
    0.5595    0.9616    0.8100 O   0  0  0  0  0  0  0  0  0  0  0  0
   -1.3163    4.0077    0.2334 O   0  0  0  0  0  0  0  0  0  0  0  0
   -2.4757    4.0352    2.1835 O   0  0  0  0  0  0  0  0  0  0  0  0
   -1.5331    1.4268   -0.1552 N   0  0  0  0  0  0  0  0  0  0  0  0
    2.5079   -0.0955   -0.8703 C   0  0  0  0  0  0  0  0  0  0  0  0
    0.1700    0.5340   -1.5017 C   0  0  0  0  0  0  0  0  0  0  0  0
    2.6629   -1.2650   -0.1433 C   0  0  0  0  0  0  0  0  0  0  0  0
    1.3782    0.0571   -1.8058 C   0  0  0  0  0  0  0  0  0  0  0  0
   -0.2085    0.9873   -0.1426 C   0  0  0  0  0  0  0  0  0  0  0  0
   -2.1791    1.9302    1.0540 C   0  0  0  0  0  0  0  0  0  0  0  0
    1.0993   -2.7079    0.9191 C   0  0  0  0  0  0  0  0  0  0  0  0
    3.4018    0.9563   -0.7412 C   0  0  0  0  0  0  0  0  0  0  0  0
   -2.2116    1.3652   -1.3667 C   0  0  0  0  0  0  0  0  0  0  0  0
   -0.3783   -2.5943    0.6840 C   0  0  0  0  0  0  0  0  0  0  0  0
    3.7391   -1.3866    0.7355 C   0  0  0  0  0  0  0  0  0  0  0  0
    4.4782    0.8347    0.1377 C   0  0  0  0  0  0  0  0  0  0  0  0
    4.6468   -0.3367    0.8761 C   0  0  0  0  0  0  0  0  0  0  0  0
   -1.2254   -2.3127    1.7499 C   0  0  0  0  0  0  0  0  0  0  0  0
   -0.8872   -2.7725   -0.5976 C   0  0  0  0  0  0  0  0  0  0  0  0
   -2.0167    3.4181    1.2301 C   0  0  0  0  0  0  0  0  0  0  0  0
   -2.5991   -2.2080    1.5314 C   0  0  0  0  0  0  0  0  0  0  0  0
   -2.2609   -2.6678   -0.8163 C   0  0  0  0  0  0  0  0  0  0  0  0
   -3.1169   -2.3856    0.2484 C   0  0  0  0  0  0  0  0  0  0  0  0
    1.6010   -0.2614   -2.8224 H   0  0  0  0  0  0  0  0  0  0  0  0
   -1.7060    1.4503    1.9178 H   0  0  0  0  0  0  0  0  0  0  0  0
   -3.2445    1.6873    1.0576 H   0  0  0  0  0  0  0  0  0  0  0  0
    1.3853   -2.1020    1.7885 H   0  0  0  0  0  0  0  0  0  0  0  0
    1.3549   -3.7526    1.1281 H   0  0  0  0  0  0  0  0  0  0  0  0
    3.2676    1.8686   -1.3182 H   0  0  0  0  0  0  0  0  0  0  0  0
    3.8891   -2.2969    1.3100 H   0  0  0  0  0  0  0  0  0  0  0  0
    5.4811   -0.4484    1.5638 H   0  0  0  0  0  0  0  0  0  0  0  0
   -0.8334   -2.1730    2.7536 H   0  0  0  0  0  0  0  0  0  0  0  0
   -0.2457   -3.0080   -1.4420 H   0  0  0  0  0  0  0  0  0  0  0  0
   -3.2541   -1.9865    2.3702 H   0  0  0  0  0  0  0  0  0  0  0  0
   -2.6506   -2.8107   -1.8209 H   0  0  0  0  0  0  0  0  0  0  0  0
   -1.2249    4.9746    0.3707 H   0  0  0  0  0  0  0  0  0  0  0  0
  1 21  1  0  0  0  0
  2 28  1  0  0  0  0
  3 11  1  0  0  0  0
  3 18  1  0  0  0  0
  4 18  2  0  0  0  0
  5 12  1  0  0  0  0
  5 16  1  0  0  0  0
  6 14  2  0  0  0  0
  7 25  1  0  0  0  0
  7 41  1  0  0  0  0
  8 25  2  0  0  0  0
  9 14  1  0  0  0  0
  9 15  1  0  0  0  0
  9 18  1  0  0  0  0
 10 12  2  0  0  0  0
 10 13  1  0  0  0  0
 10 17  1  0  0  0  0
 11 13  2  0  0  0  0
 11 14  1  0  0  0  0
 12 20  1  0  0  0  0
 13 29  1  0  0  0  0
 15 25  1  0  0  0  0
 15 30  1  0  0  0  0
 15 31  1  0  0  0  0
 16 19  1  0  0  0  0
 16 32  1  0  0  0  0
 16 33  1  0  0  0  0
 17 21  2  0  0  0  0
 17 34  1  0  0  0  0
 19 23  2  0  0  0  0
 19 24  1  0  0  0  0
 20 22  2  0  0  0  0
 20 35  1  0  0  0  0
 21 22  1  0  0  0  0
 22 36  1  0  0  0  0
 23 26  1  0  0  0  0
 23 37  1  0  0  0  0
 24 27  2  0  0  0  0
 24 38  1  0  0  0  0
 26 28  2  0  0  0  0
 26 39  1  0  0  0  0
 27 28  1  0  0  0  0
 27 40  1  0  0  0  0
M  END
> <PUBCHEM_COMPOUND_CID>
1326684

> <PUBCHEM_CONFORMER_RMSD>
0.8

> <PUBCHEM_CONFORMER_DIVERSEORDER>
1
70
37
74
4
73
52
28
57
33
21
72
98
2
104
13
99
96
101
58
106
20
64
44
78
27
10
81
97
38
32
95
65
71
92
36
100
103
42
93
5
24
55
102
59
6
45
56
80
43
29
105
68
91
60
85
15
30
17
9
89
18
75
7
26
66
54
82
90
69
76
46
62
84
40
11
83
94
88
19
41
61
34
22
48
31
51
25
14
35
67
49
3
63
16
8
87
23
79
86
12
77
47
39
50
53

> <PUBCHEM_MMFF94_PARTIAL_CHARGES>
37
1 -0.11
10 0.03
11 0.12
12 0.08
13 -0.18
14 0.62
15 0.36
16 0.42
17 -0.15
18 0.58
19 -0.14
2 -0.18
20 -0.15
21 0.11
22 -0.15
23 -0.15
24 -0.15
25 0.66
26 -0.15
27 -0.15
28 0.18
29 0.15
3 -0.24
34 0.15
35 0.15
36 0.15
37 0.15
38 0.15
39 0.15
4 -0.38
40 0.15
41 0.5
5 -0.36
6 -0.57
7 -0.65
8 -0.57
9 -0.42

> <PUBCHEM_EFFECTIVE_ROTOR_COUNT>
6.4

> <PUBCHEM_PHARMACOPHORE_FEATURES>
10
1 1 hydrophobe
1 4 acceptor
1 5 acceptor
1 6 acceptor
1 7 acceptor
1 8 acceptor
3 7 8 25 anion
5 3 9 11 14 18 rings
6 10 12 17 20 21 22 rings
6 19 23 24 26 27 28 rings

> <PUBCHEM_HEAVY_ATOM_COUNT>
28

> <PUBCHEM_ATOM_DEF_STEREO_COUNT>
0

> <PUBCHEM_ATOM_UDEF_STEREO_COUNT>
0

> <PUBCHEM_BOND_DEF_STEREO_COUNT>
1

> <PUBCHEM_BOND_UDEF_STEREO_COUNT>
0

> <PUBCHEM_ISOTOPIC_ATOM_COUNT>
0

> <PUBCHEM_COMPONENT_COUNT>
1

> <PUBCHEM_CACTVS_TAUTO_COUNT>
1

> <PUBCHEM_CONFORMER_ID>
00143E5C00000001

> <PUBCHEM_MMFF94_ENERGY>
70.989

> <PUBCHEM_FEATURE_SELFOVERLAP>
50.807

> <PUBCHEM_SHAPE_FINGERPRINT>
10064457 181 17977959985620909978
104564 63 18261119611687992950
1100329 8 17610039188426664619
11370993 70 18116986702476281860
11646440 116 18193009333371805203
12160290 23 18189919598180673127
12422481 6 18043554762507571491
12788726 201 18194140713461361620
13140716 1 18115010919448407078
14081887 123 18341613745671103370
14178342 30 18337115575130477116
14787075 74 18340749495245981317
14955137 171 16899916185112667875
17138139 8 18051653795343847183
20600515 1 17974019632278975814
20764821 26 18269262633378659248
21756936 100 18273216426697148980
23419403 2 17629748218243585465
238 59 17103654680432627559
350125 39 17899695958568633596
35225 105 18265870549886178309
392239 28 18196089074299918672
4340502 62 18263358093298333733
469060 322 16950281819041266351
5104073 3 17969478538594452616
5171179 24 17767949189103310637
6004065 56 17981600786844377055
81228 2 18187661218371731382

> <PUBCHEM_SHAPE_MULTIPOLES>
563.28
8.58
4.77
1.92
9.41
2.46
-0.28
0.56
0.87
-4.35
2.38
-1.31
1.1
-0.09

> <PUBCHEM_SHAPE_SELFOVERLAP>
1170.845

> <PUBCHEM_SHAPE_VOLUME>
329.3

> <PUBCHEM_COORDINATE_TYPE>
2
5
10

$$$$
