1294797
  -OEChem-01171812093D

 51 53  0     0  0  0  0  0  0999 V2000
    5.1325   -2.5627    1.4009 S   0  0  0  0  0  0  0  0  0  0  0  0
   -9.4745    0.2640   -0.3566 F   0  0  0  0  0  0  0  0  0  0  0  0
   -0.6440    0.4711   -0.0951 O   0  0  0  0  0  0  0  0  0  0  0  0
    1.0239    1.5896    1.8264 O   0  0  0  0  0  0  0  0  0  0  0  0
   -3.0861    1.3540   -0.3832 O   0  0  0  0  0  0  0  0  0  0  0  0
    5.5581   -0.6334   -0.3484 N   0  0  0  0  0  0  0  0  0  0  0  0
   -4.0581   -0.7413    0.0600 N   0  0  0  0  0  0  0  0  0  0  0  0
    7.4855    1.3578   -1.1160 C   0  0  0  0  0  0  0  0  0  0  0  0
    7.8374    0.2579   -0.1137 C   0  0  0  0  0  0  0  0  0  0  0  0
    5.9898    1.6738   -1.0793 C   0  0  0  0  0  0  0  0  0  0  0  0
    6.9739   -0.9819   -0.3268 C   0  0  0  0  0  0  0  0  0  0  0  0
    5.1534    0.4135   -1.2793 C   0  0  0  0  0  0  0  0  0  0  0  0
    4.6516   -1.2992    0.4092 C   0  0  0  0  0  0  0  0  0  0  0  0
    3.2521   -0.8284    0.2782 C   0  0  0  0  0  0  0  0  0  0  0  0
    2.7985    0.1665    1.1218 C   0  0  0  0  0  0  0  0  0  0  0  0
    2.4413   -1.3991   -0.6832 C   0  0  0  0  0  0  0  0  0  0  0  0
    1.4812    0.6088    0.9990 C   0  0  0  0  0  0  0  0  0  0  0  0
    1.1240   -0.9570   -0.8058 C   0  0  0  0  0  0  0  0  0  0  0  0
    0.6439    0.0470    0.0352 C   0  0  0  0  0  0  0  0  0  0  0  0
   -1.6692   -0.5024    0.0934 C   0  0  0  0  0  0  0  0  0  0  0  0
   -3.0148    0.1608   -0.1053 C   0  0  0  0  0  0  0  0  0  0  0  0
    1.1793    2.9363    1.3832 C   0  0  0  0  0  0  0  0  0  0  0  0
   -5.4452   -0.4835   -0.0488 C   0  0  0  0  0  0  0  0  0  0  0  0
   -6.3440   -1.5182    0.1519 C   0  0  0  0  0  0  0  0  0  0  0  0
   -5.8753    0.7979   -0.3511 C   0  0  0  0  0  0  0  0  0  0  0  0
   -7.7116   -1.2643    0.0467 C   0  0  0  0  0  0  0  0  0  0  0  0
   -7.2428    1.0518   -0.4561 C   0  0  0  0  0  0  0  0  0  0  0  0
   -8.1610    0.0206   -0.2574 C   0  0  0  0  0  0  0  0  0  0  0  0
    7.7681    1.0374   -2.1263 H   0  0  0  0  0  0  0  0  0  0  0  0
    8.0615    2.2624   -0.8917 H   0  0  0  0  0  0  0  0  0  0  0  0
    8.8972   -0.0036   -0.2081 H   0  0  0  0  0  0  0  0  0  0  0  0
    7.6852    0.6377    0.9044 H   0  0  0  0  0  0  0  0  0  0  0  0
    5.7414    2.1259   -0.1109 H   0  0  0  0  0  0  0  0  0  0  0  0
    5.7474    2.4101   -1.8535 H   0  0  0  0  0  0  0  0  0  0  0  0
    7.2796   -1.7199    0.4141 H   0  0  0  0  0  0  0  0  0  0  0  0
    7.2012   -1.4205   -1.3072 H   0  0  0  0  0  0  0  0  0  0  0  0
    5.3246    0.0163   -2.2881 H   0  0  0  0  0  0  0  0  0  0  0  0
    4.1034    0.7010   -1.2408 H   0  0  0  0  0  0  0  0  0  0  0  0
    3.4506    0.6057    1.8720 H   0  0  0  0  0  0  0  0  0  0  0  0
    2.8092   -2.1771   -1.3457 H   0  0  0  0  0  0  0  0  0  0  0  0
    0.4936   -1.3943   -1.5748 H   0  0  0  0  0  0  0  0  0  0  0  0
   -1.5810   -1.3154   -0.6356 H   0  0  0  0  0  0  0  0  0  0  0  0
   -1.6161   -0.9046    1.1117 H   0  0  0  0  0  0  0  0  0  0  0  0
    0.7684    3.5990    2.1496 H   0  0  0  0  0  0  0  0  0  0  0  0
    2.2388    3.1747    1.2451 H   0  0  0  0  0  0  0  0  0  0  0  0
    0.6324    3.0998    0.4493 H   0  0  0  0  0  0  0  0  0  0  0  0
   -3.8125   -1.7026    0.2870 H   0  0  0  0  0  0  0  0  0  0  0  0
   -6.0047   -2.5225    0.3896 H   0  0  0  0  0  0  0  0  0  0  0  0
   -5.2283    1.6464   -0.5176 H   0  0  0  0  0  0  0  0  0  0  0  0
   -8.4267   -2.0667    0.2019 H   0  0  0  0  0  0  0  0  0  0  0  0
   -7.5946    2.0519   -0.6921 H   0  0  0  0  0  0  0  0  0  0  0  0
  1 13  2  0  0  0  0
  2 28  1  0  0  0  0
  3 19  1  0  0  0  0
  3 20  1  0  0  0  0
  4 17  1  0  0  0  0
  4 22  1  0  0  0  0
  5 21  2  0  0  0  0
  6 11  1  0  0  0  0
  6 12  1  0  0  0  0
  6 13  1  0  0  0  0
  7 21  1  0  0  0  0
  7 23  1  0  0  0  0
  7 47  1  0  0  0  0
  8  9  1  0  0  0  0
  8 10  1  0  0  0  0
  8 29  1  0  0  0  0
  8 30  1  0  0  0  0
  9 11  1  0  0  0  0
  9 31  1  0  0  0  0
  9 32  1  0  0  0  0
 10 12  1  0  0  0  0
 10 33  1  0  0  0  0
 10 34  1  0  0  0  0
 11 35  1  0  0  0  0
 11 36  1  0  0  0  0
 12 37  1  0  0  0  0
 12 38  1  0  0  0  0
 13 14  1  0  0  0  0
 14 15  2  0  0  0  0
 14 16  1  0  0  0  0
 15 17  1  0  0  0  0
 15 39  1  0  0  0  0
 16 18  2  0  0  0  0
 16 40  1  0  0  0  0
 17 19  2  0  0  0  0
 18 19  1  0  0  0  0
 18 41  1  0  0  0  0
 20 21  1  0  0  0  0
 20 42  1  0  0  0  0
 20 43  1  0  0  0  0
 22 44  1  0  0  0  0
 22 45  1  0  0  0  0
 22 46  1  0  0  0  0
 23 24  2  0  0  0  0
 23 25  1  0  0  0  0
 24 26  1  0  0  0  0
 24 48  1  0  0  0  0
 25 27  2  0  0  0  0
 25 49  1  0  0  0  0
 26 28  2  0  0  0  0
 26 50  1  0  0  0  0
 27 28  1  0  0  0  0
 27 51  1  0  0  0  0
M  END
> <PUBCHEM_COMPOUND_CID>
1294797

> <PUBCHEM_CONFORMER_RMSD>
1

> <PUBCHEM_CONFORMER_DIVERSEORDER>
3
42
8
41
122
108
95
105
2
64
36
80
68
18
21
73
55
85
109
28
22
32
123
84
31
14
15
116
86
19
121
107
104
61
46
24
60
115
110
10
72
91
75
23
11
113
39
98
13
117
62
49
70
79
89
66
50
83
112
16
101
81
57
25
92
9
63
65
59
47
96
106
88
26
45
111
7
40
4
43
54
30
27
67
78
12
74
120
94
56
35
82
93
76
29
38
77
87
119
20
17
114
44
6
33
1
51
37
58
90
52
69
100
34
118
53
48
5
103
97
102
99
71

> <PUBCHEM_MMFF94_PARTIAL_CHARGES>
33
1 -0.38
11 0.3
12 0.3
13 0.35
14 0.09
15 -0.15
16 -0.15
17 0.08
18 -0.15
19 0.08
2 -0.19
20 0.34
21 0.57
22 0.28
23 0.12
24 -0.15
25 -0.15
26 -0.15
27 -0.15
28 0.19
3 -0.36
39 0.15
4 -0.36
40 0.15
41 0.15
47 0.37
48 0.15
49 0.15
5 -0.57
50 0.15
51 0.15
6 -0.66
7 -0.55

> <PUBCHEM_EFFECTIVE_ROTOR_COUNT>
9.2

> <PUBCHEM_PHARMACOPHORE_FEATURES>
8
1 1 acceptor
1 3 acceptor
1 4 acceptor
1 5 acceptor
1 7 donor
6 14 15 16 17 18 19 rings
6 23 24 25 26 27 28 rings
6 6 8 9 10 11 12 rings

> <PUBCHEM_HEAVY_ATOM_COUNT>
28

> <PUBCHEM_ATOM_DEF_STEREO_COUNT>
0

> <PUBCHEM_ATOM_UDEF_STEREO_COUNT>
0

> <PUBCHEM_BOND_DEF_STEREO_COUNT>
0

> <PUBCHEM_BOND_UDEF_STEREO_COUNT>
0

> <PUBCHEM_ISOTOPIC_ATOM_COUNT>
0

> <PUBCHEM_COMPONENT_COUNT>
1

> <PUBCHEM_CACTVS_TAUTO_COUNT>
2

> <PUBCHEM_CONFORMER_ID>
0013C1CD00000003

> <PUBCHEM_MMFF94_ENERGY>
104.9148

> <PUBCHEM_FEATURE_SELFOVERLAP>
40.613

> <PUBCHEM_SHAPE_FINGERPRINT>
10050765 1 17842830298873188887
10299344 5 18408886230924832479
10319688 140 15768948844100090062
10595046 47 18260267413072270076
10673678 19 18263656224216461412
11135609 127 18042127721106361668
11315181 36 18409169910068806281
11524674 6 17203323430144108063
11719270 70 18201436947879970791
13383668 254 16516266062977801221
13617811 41 17203615882919796984
13899415 154 17775287170893238968
14170010 4 17846775234576301232
14251764 18 18343586235324575905
14251764 46 18408323284881328182
15183329 4 18272654532767099587
15301273 46 16559032679434109538
15361156 5 18338234968520698983
15439362 3 17981604076942716208
15461852 350 17989200474467006991
15510794 2 17240488014036773707
15840311 113 18041002864934022684
15849732 13 16415479358821875397
16120349 18 18187081779975395188
18608769 82 18410012165523989319
20157964 124 17894633652367602438
20554085 129 13984659287244155608
20771845 171 18200887201489058550
21049683 271 18412266172487037256
21150785 3 18260550030446984477
21267235 1 17775568628162553136
21781055 127 15625402215489474075
21792934 111 18130779058878512264
21792961 116 18272087137406534110
22149856 69 17702954625596540434
22224240 67 16443065010514867866
23516275 137 18264787475263107155
23522609 53 18267892538912001049
23559900 14 18114742741785162993
23576562 1 18057601169233346189
23622692 88 16917347043647954077
249057 3 17274819186313342263
335352 9 18131066052671894183
34797466 226 17385442116087880974
4073 2 17603874454352175914
4093350 32 15285346306917355176
4098825 35 18114178601466586773
4149490 64 17530965774591479898
4325135 7 18259987080693900134
439807 62 18408322168168524305
5758199 1 16081087082616401585
67123 10 18186803591424145127
9663363 56 17632292367965014576

> <PUBCHEM_SHAPE_MULTIPOLES>
545.23
27.28
2.04
1.17
36.49
0.24
-0.32
-1.05
6.59
-2.26
-0.68
-1.6
0.35
-0.97

> <PUBCHEM_SHAPE_SELFOVERLAP>
1148.151

> <PUBCHEM_SHAPE_VOLUME>
310.6

> <PUBCHEM_COORDINATE_TYPE>
2
5
10

$$$$
