742286
  -OEChem-01171811493D

 32 33  0     0  0  0  0  0  0999 V2000
   -5.3912   -0.4071    1.0382 F   0  0  0  0  0  0  0  0  0  0  0  0
   -4.4023    1.5189    1.2361 F   0  0  0  0  0  0  0  0  0  0  0  0
   -5.2072    0.9039   -0.6940 F   0  0  0  0  0  0  0  0  0  0  0  0
    4.4746    0.4969    1.2884 O   0  0  0  0  0  0  0  0  0  0  0  0
    0.7416    0.7104    0.7786 O   0  0  0  0  0  0  0  0  0  0  0  0
   -1.3302   -0.3476   -0.7341 N   0  0  0  0  0  0  0  0  0  0  0  0
   -2.3207    0.5370   -0.5834 N   0  0  0  0  0  0  0  0  0  0  0  0
    2.0683    1.0518   -1.0974 N   0  0  0  0  0  0  0  0  0  0  0  0
   -0.1034    0.0817   -1.3984 C   0  0  0  0  0  0  0  0  0  0  0  0
   -1.5862   -1.5815   -0.2363 C   0  0  0  0  0  0  0  0  0  0  0  0
   -2.8536   -1.5062    0.2878 C   0  0  0  0  0  0  0  0  0  0  0  0
   -3.2562   -0.1791    0.0457 C   0  0  0  0  0  0  0  0  0  0  0  0
    0.9211    0.6406   -0.4343 C   0  0  0  0  0  0  0  0  0  0  0  0
    3.2066    1.6219   -0.4147 C   0  0  0  0  0  0  0  0  0  0  0  0
   -0.6287   -2.7008   -0.2997 C   0  0  0  0  0  0  0  0  0  0  0  0
    4.2122    0.5707   -0.0267 C   0  0  0  0  0  0  0  0  0  0  0  0
   -4.5399    0.4482    0.4029 C   0  0  0  0  0  0  0  0  0  0  0  0
    4.9113   -0.3251   -0.7573 C   0  0  0  0  0  0  0  0  0  0  0  0
    5.6928   -1.0359    0.1845 C   0  0  0  0  0  0  0  0  0  0  0  0
    5.3911   -0.4986    1.4142 C   0  0  0  0  0  0  0  0  0  0  0  0
    0.3156   -0.7722   -1.9396 H   0  0  0  0  0  0  0  0  0  0  0  0
   -0.3766    0.8504   -2.1307 H   0  0  0  0  0  0  0  0  0  0  0  0
   -3.4044   -2.2985    0.7742 H   0  0  0  0  0  0  0  0  0  0  0  0
    2.8616    2.1700    0.4690 H   0  0  0  0  0  0  0  0  0  0  0  0
    3.6739    2.3381   -1.0985 H   0  0  0  0  0  0  0  0  0  0  0  0
   -0.4622   -3.0138   -1.3354 H   0  0  0  0  0  0  0  0  0  0  0  0
    0.3343   -2.4238    0.1412 H   0  0  0  0  0  0  0  0  0  0  0  0
   -1.0060   -3.5685    0.2519 H   0  0  0  0  0  0  0  0  0  0  0  0
    2.1284    0.9354   -2.1050 H   0  0  0  0  0  0  0  0  0  0  0  0
    4.8806   -0.4676   -1.8279 H   0  0  0  0  0  0  0  0  0  0  0  0
    6.3888   -1.8395   -0.0086 H   0  0  0  0  0  0  0  0  0  0  0  0
    5.7246   -0.7022    2.4213 H   0  0  0  0  0  0  0  0  0  0  0  0
  1 17  1  0  0  0  0
  2 17  1  0  0  0  0
  3 17  1  0  0  0  0
  4 16  1  0  0  0  0
  4 20  1  0  0  0  0
  5 13  2  0  0  0  0
  6  7  1  0  0  0  0
  6  9  1  0  0  0  0
  6 10  1  0  0  0  0
  7 12  2  0  0  0  0
  8 13  1  0  0  0  0
  8 14  1  0  0  0  0
  8 29  1  0  0  0  0
  9 13  1  0  0  0  0
  9 21  1  0  0  0  0
  9 22  1  0  0  0  0
 10 11  2  0  0  0  0
 10 15  1  0  0  0  0
 11 12  1  0  0  0  0
 11 23  1  0  0  0  0
 12 17  1  0  0  0  0
 14 16  1  0  0  0  0
 14 24  1  0  0  0  0
 14 25  1  0  0  0  0
 15 26  1  0  0  0  0
 15 27  1  0  0  0  0
 15 28  1  0  0  0  0
 16 18  2  0  0  0  0
 18 19  1  0  0  0  0
 18 30  1  0  0  0  0
 19 20  2  0  0  0  0
 19 31  1  0  0  0  0
 20 32  1  0  0  0  0
M  END
> <PUBCHEM_COMPOUND_CID>
742286

> <PUBCHEM_CONFORMER_RMSD>
0.8

> <PUBCHEM_CONFORMER_DIVERSEORDER>
5
65
19
69
64
22
99
87
66
3
52
88
50
38
100
91
82
54
89
7
71
33
55
12
101
48
75
28
40
103
81
15
59
92
70
10
14
94
115
57
76
111
6
104
113
114
37
4
16
120
110
98
13
108
63
36
73
68
102
47
77
32
61
43
118
29
8
21
56
30
35
46
78
11
107
27
112
62
2
1
109
105
116
58
53
83
86
51
9
74
60
93
25
24
84
34
23
49
117
85
39
90
45
97
20
119
42
72
41
67
80
44
106
96
79
17
95
26
31
18

> <PUBCHEM_MMFF94_PARTIAL_CHARGES>
25
1 -0.34
10 -0.33
11 -0.15
12 0.11
13 0.57
14 0.48
15 0.18
16 -0.04
17 1.2
18 -0.15
19 -0.15
2 -0.34
20 -0.01
23 0.15
29 0.37
3 -0.34
30 0.15
31 0.15
32 0.15
4 -0.28
5 -0.57
6 0.31
7 -0.71
8 -0.73
9 0.32

> <PUBCHEM_EFFECTIVE_ROTOR_COUNT>
6

> <PUBCHEM_PHARMACOPHORE_FEATURES>
6
1 4 acceptor
1 5 acceptor
1 7 acceptor
1 8 donor
5 4 16 18 19 20 rings
5 6 7 10 11 12 rings

> <PUBCHEM_HEAVY_ATOM_COUNT>
20

> <PUBCHEM_ATOM_DEF_STEREO_COUNT>
0

> <PUBCHEM_ATOM_UDEF_STEREO_COUNT>
0

> <PUBCHEM_BOND_DEF_STEREO_COUNT>
0

> <PUBCHEM_BOND_UDEF_STEREO_COUNT>
0

> <PUBCHEM_ISOTOPIC_ATOM_COUNT>
0

> <PUBCHEM_COMPONENT_COUNT>
1

> <PUBCHEM_CACTVS_TAUTO_COUNT>
2

> <PUBCHEM_CONFORMER_ID>
000B538E00000005

> <PUBCHEM_MMFF94_ENERGY>
12.7448

> <PUBCHEM_FEATURE_SELFOVERLAP>
30.447

> <PUBCHEM_SHAPE_FINGERPRINT>
10042902 136 13119153446437056433
10090160 65 11887957648713467524
10498660 4 9655309133183102934
10692045 39 17917158178190587374
11089746 13 16702297945380247628
11128504 68 12107789601503607954
11405975 8 18339079401581797032
11543360 7 8502384329787846812
12236239 1 17894633664398052893
12592029 89 18187367601691351746
12596602 18 18114185271587792577
12633257 1 18408601483251445550
12670546 177 11818995175828812024
13551218 46 18114177506318666978
13583140 156 16486685982726631406
13675066 3 17988925600121670262
13740256 8 9799394643203618821
14251758 9 18411421696032264510
14251764 18 18410292557804457326
14251764 30 15357698591276896082
14251764 38 16128661855386007472
14420673 8 18261957345555125194
14466204 15 18202004283115982873
14528608 73 10087920779113296402
14617045 38 18260834765889961422
14951699 99 17845084242303317200
15375358 24 17131838685230633124
15537594 2 17676201369389964890
15885798 251 18334573543055070436
17844677 252 16588025714484805812
17959699 21 13110694825689789099
1813 80 16805608057915642350
18222031 100 12468639482037717103
19141452 34 18408599297081742038
19489759 90 17703790314631516777
19784866 9 18411984641553782970
212916 134 18060134344996796522
21403212 168 18335693897974153563
21618674 57 18131069342142011264
22950370 63 16588025714616375180
23035841 295 12829488138480221265
23352939 185 10953458522494632911
23402539 116 18201996638458992949
23503953 91 18339916121609449840
235170 7 12396566417770513826
23559900 14 18059030453150978996
238078 22 8286195046504683349
2838139 119 17418089867950263289
328317 168 12823297909711789876
34797466 226 10881688975107482698
351380 180 16630526232670776192
351380 3 17458059361818595018
4325135 7 8935000369380231602
465052 167 17675930893576332306
5104073 3 18336548338525407840
5312625 73 10737297856847256270
532947 4 18200320896449189182
5385378 56 18197788712991442467
573450 72 18340484572872833878
5924683 9 17844518005903283735
7226269 152 17917714582434229016
8509985 295 18201439198853750968
88748 71 16734650985202866570
9981440 41 18271254828990932467

> <PUBCHEM_SHAPE_MULTIPOLES>
363.09
13.5
1.75
1.17
3.81
0.88
-0.13
-0.75
-4.29
-0.5
0.11
0.42
-0.14
-0.52

> <PUBCHEM_SHAPE_SELFOVERLAP>
770.878

> <PUBCHEM_SHAPE_VOLUME>
206.1

> <PUBCHEM_COORDINATE_TYPE>
2
5
10

$$$$
