3540651
  -OEChem-01171811453D

 60 64  0     1  0  0  0  0  0999 V2000
   -2.4836   -1.8084   -0.3858 O   0  0  0  0  0  0  0  0  0  0  0  0
    2.8603    0.0314   -1.6502 O   0  0  0  0  0  0  0  0  0  0  0  0
    4.7897    0.2161    0.3101 O   0  0  0  0  0  0  0  0  0  0  0  0
    4.2054   -0.5725    2.8988 O   0  0  0  0  0  0  0  0  0  0  0  0
   -2.8284    0.4989    0.0917 N   0  0  0  0  0  0  0  0  0  0  0  0
   -2.1684    1.6745    0.0480 N   0  0  0  0  0  0  0  0  0  0  0  0
   -2.0664   -4.0133   -0.9843 N   0  0  0  0  0  0  0  0  0  0  0  0
    1.3386   -4.1684   -2.2003 N   0  0  0  0  0  0  0  0  0  0  0  0
    0.2458   -0.9521   -1.1063 C   0  0  1  0  0  0  0  0  0  0  0  0
   -0.8295   -0.0496   -0.6202 C   0  0  0  0  0  0  0  0  0  0  0  0
   -2.0663   -0.5508   -0.3109 C   0  0  0  0  0  0  0  0  0  0  0  0
    1.3058   -0.8453   -0.0587 C   0  0  0  0  0  0  0  0  0  0  0  0
   -0.9509    1.3338   -0.3953 C   0  0  0  0  0  0  0  0  0  0  0  0
   -0.2829   -2.3926   -1.2320 C   0  0  0  0  0  0  0  0  0  0  0  0
   -1.5557   -2.7472   -0.8856 C   0  0  0  0  0  0  0  0  0  0  0  0
    2.5723   -0.3547   -0.3742 C   0  0  0  0  0  0  0  0  0  0  0  0
    0.0558    2.3444   -0.5951 C   0  0  0  0  0  0  0  0  0  0  0  0
    1.0149   -1.2421    1.2460 C   0  0  0  0  0  0  0  0  0  0  0  0
   -4.1577    0.4523    0.5073 C   0  0  0  0  0  0  0  0  0  0  0  0
    3.5496   -0.2609    0.6168 C   0  0  0  0  0  0  0  0  0  0  0  0
    1.9921   -1.1483    2.2367 C   0  0  0  0  0  0  0  0  0  0  0  0
    3.2594   -0.6576    1.9222 C   0  0  0  0  0  0  0  0  0  0  0  0
    0.6129   -3.3738   -1.7669 C   0  0  0  0  0  0  0  0  0  0  0  0
    0.1620    2.9824   -1.8285 C   0  0  0  0  0  0  0  0  0  0  0  0
    0.9181    2.6789    0.4461 C   0  0  0  0  0  0  0  0  0  0  0  0
   -4.6434   -0.6925    1.1275 C   0  0  0  0  0  0  0  0  0  0  0  0
   -4.9813    1.5521    0.2999 C   0  0  0  0  0  0  0  0  0  0  0  0
    1.1370    3.9609   -2.0221 C   0  0  0  0  0  0  0  0  0  0  0  0
    1.8931    3.6575    0.2524 C   0  0  0  0  0  0  0  0  0  0  0  0
   -5.9731   -0.7383    1.5463 C   0  0  0  0  0  0  0  0  0  0  0  0
   -6.3110    1.5063    0.7189 C   0  0  0  0  0  0  0  0  0  0  0  0
    2.0025    4.2985   -0.9817 C   0  0  0  0  0  0  0  0  0  0  0  0
    3.9239   -0.6527   -2.3081 C   0  0  0  0  0  0  0  0  0  0  0  0
   -6.8068    0.3611    1.3422 C   0  0  0  0  0  0  0  0  0  0  0  0
    5.2237    1.3831    1.0044 C   0  0  0  0  0  0  0  0  0  0  0  0
    5.0426   -1.7111    3.0910 C   0  0  0  0  0  0  0  0  0  0  0  0
    0.5741   -0.6110   -2.0952 H   0  0  0  0  0  0  0  0  0  0  0  0
    0.0419   -1.6347    1.5276 H   0  0  0  0  0  0  0  0  0  0  0  0
    1.7596   -1.4598    3.2515 H   0  0  0  0  0  0  0  0  0  0  0  0
   -0.5046    2.7296   -2.6495 H   0  0  0  0  0  0  0  0  0  0  0  0
    0.8443    2.1914    1.4152 H   0  0  0  0  0  0  0  0  0  0  0  0
   -1.5010   -4.7781   -1.3289 H   0  0  0  0  0  0  0  0  0  0  0  0
   -3.0249   -4.1755   -0.7024 H   0  0  0  0  0  0  0  0  0  0  0  0
   -4.0245   -1.5531    1.3581 H   0  0  0  0  0  0  0  0  0  0  0  0
   -4.6269    2.4543   -0.1916 H   0  0  0  0  0  0  0  0  0  0  0  0
    1.2227    4.4596   -2.9831 H   0  0  0  0  0  0  0  0  0  0  0  0
    2.5663    3.9213    1.0626 H   0  0  0  0  0  0  0  0  0  0  0  0
   -6.3567   -1.6251    2.0426 H   0  0  0  0  0  0  0  0  0  0  0  0
   -6.9611    2.3615    0.5586 H   0  0  0  0  0  0  0  0  0  0  0  0
    2.7619    5.0601   -1.1324 H   0  0  0  0  0  0  0  0  0  0  0  0
    4.8488   -0.0752   -2.2248 H   0  0  0  0  0  0  0  0  0  0  0  0
    3.6682   -0.7298   -3.3690 H   0  0  0  0  0  0  0  0  0  0  0  0
    4.0696   -1.6663   -1.9185 H   0  0  0  0  0  0  0  0  0  0  0  0
   -7.8414    0.3264    1.6705 H   0  0  0  0  0  0  0  0  0  0  0  0
    5.8897    1.1004    1.8244 H   0  0  0  0  0  0  0  0  0  0  0  0
    4.3874    1.9792    1.3847 H   0  0  0  0  0  0  0  0  0  0  0  0
    5.7920    2.0010    0.3030 H   0  0  0  0  0  0  0  0  0  0  0  0
    5.6029   -1.9369    2.1783 H   0  0  0  0  0  0  0  0  0  0  0  0
    4.4461   -2.5786    3.3905 H   0  0  0  0  0  0  0  0  0  0  0  0
    5.7533   -1.4824    3.8898 H   0  0  0  0  0  0  0  0  0  0  0  0
  1 11  1  0  0  0  0
  1 15  1  0  0  0  0
  2 16  1  0  0  0  0
  2 33  1  0  0  0  0
  3 20  1  0  0  0  0
  3 35  1  0  0  0  0
  4 22  1  0  0  0  0
  4 36  1  0  0  0  0
  5  6  1  0  0  0  0
  5 11  1  0  0  0  0
  5 19  1  0  0  0  0
  6 13  2  0  0  0  0
  7 15  1  0  0  0  0
  7 42  1  0  0  0  0
  7 43  1  0  0  0  0
  8 23  3  0  0  0  0
  9 10  1  0  0  0  0
  9 12  1  0  0  0  0
  9 14  1  0  0  0  0
  9 37  1  0  0  0  0
 10 11  2  0  0  0  0
 10 13  1  0  0  0  0
 12 16  2  0  0  0  0
 12 18  1  0  0  0  0
 13 17  1  0  0  0  0
 14 15  2  0  0  0  0
 14 23  1  0  0  0  0
 16 20  1  0  0  0  0
 17 24  2  0  0  0  0
 17 25  1  0  0  0  0
 18 21  2  0  0  0  0
 18 38  1  0  0  0  0
 19 26  2  0  0  0  0
 19 27  1  0  0  0  0
 20 22  2  0  0  0  0
 21 22  1  0  0  0  0
 21 39  1  0  0  0  0
 24 28  1  0  0  0  0
 24 40  1  0  0  0  0
 25 29  2  0  0  0  0
 25 41  1  0  0  0  0
 26 30  1  0  0  0  0
 26 44  1  0  0  0  0
 27 31  2  0  0  0  0
 27 45  1  0  0  0  0
 28 32  2  0  0  0  0
 28 46  1  0  0  0  0
 29 32  1  0  0  0  0
 29 47  1  0  0  0  0
 30 34  2  0  0  0  0
 30 48  1  0  0  0  0
 31 34  1  0  0  0  0
 31 49  1  0  0  0  0
 32 50  1  0  0  0  0
 33 51  1  0  0  0  0
 33 52  1  0  0  0  0
 33 53  1  0  0  0  0
 34 54  1  0  0  0  0
 35 55  1  0  0  0  0
 35 56  1  0  0  0  0
 35 57  1  0  0  0  0
 36 58  1  0  0  0  0
 36 59  1  0  0  0  0
 36 60  1  0  0  0  0
M  END
> <PUBCHEM_COMPOUND_CID>
3540651

> <PUBCHEM_CONFORMER_RMSD>
1

> <PUBCHEM_CONFORMER_DIVERSEORDER>
1
4
2
3
5
6

> <PUBCHEM_MMFF94_PARTIAL_CHARGES>
50
1 -0.14
10 -0.18
11 -0.09
12 -0.14
13 0.23
14 -0.07
15 0.18
16 0.08
17 0.05
18 -0.15
19 -0.02
2 -0.36
20 0.08
21 -0.15
22 0.08
23 0.49
24 -0.15
25 -0.15
26 -0.15
27 -0.15
28 -0.15
29 -0.15
3 -0.36
30 -0.15
31 -0.15
32 -0.15
33 0.28
34 -0.15
35 0.28
36 0.28
38 0.15
39 0.15
4 -0.36
40 0.15
41 0.15
42 0.4
43 0.4
44 0.15
45 0.15
46 0.15
47 0.15
48 0.15
49 0.15
5 0.59
50 0.15
54 0.15
6 -0.71
7 -0.9
8 -0.56
9 0.46

> <PUBCHEM_EFFECTIVE_ROTOR_COUNT>
6.4

> <PUBCHEM_PHARMACOPHORE_FEATURES>
13
1 1 acceptor
1 2 acceptor
1 3 acceptor
1 4 acceptor
1 6 acceptor
1 7 cation
1 7 donor
1 8 acceptor
5 5 6 10 11 13 rings
6 1 9 10 11 14 15 rings
6 12 16 18 20 21 22 rings
6 17 24 25 28 29 32 rings
6 19 26 27 30 31 34 rings

> <PUBCHEM_HEAVY_ATOM_COUNT>
36

> <PUBCHEM_ATOM_DEF_STEREO_COUNT>
0

> <PUBCHEM_ATOM_UDEF_STEREO_COUNT>
1

> <PUBCHEM_BOND_DEF_STEREO_COUNT>
0

> <PUBCHEM_BOND_UDEF_STEREO_COUNT>
0

> <PUBCHEM_ISOTOPIC_ATOM_COUNT>
0

> <PUBCHEM_COMPONENT_COUNT>
1

> <PUBCHEM_CACTVS_TAUTO_COUNT>
2

> <PUBCHEM_CONFORMER_ID>
003606AB00000001

> <PUBCHEM_MMFF94_ENERGY>
142.0283

> <PUBCHEM_FEATURE_SELFOVERLAP>
66.084

> <PUBCHEM_SHAPE_FINGERPRINT>
10165383 225 17989489598010448258
10169797 241 17608126279535066435
10305334 12 17268045257973065600
1100329 8 18339929328185706589
11297750 10 17549547305967419807
11578080 2 16915948555088685194
12107698 1 18187081776477175457
12422481 6 18339069389796681051
12633257 1 17986932172576600032
131258 38 17313095402005368586
13140716 1 18267309914076490407
133893 2 17828461884931542980
13540713 5 18123747823288575047
13583140 156 17676754449402674455
14020679 6 17895197761212997667
14725015 67 17833834872076937555
14747281 78 15912502323035308776
14955137 171 18339938046932368301
15297060 5 17917720153375680632
15324884 4 17981886342150100695
15420108 30 18196653114536937581
15775530 1 17259611548541425365
15927050 60 17827934141120504400
1601671 61 18339091393204275597
18365409 1 17631430415732648375
18681886 176 18340785800514947869
19319366 153 17749398117508390940
1979834 28 18272092652139319371
20642791 35 18336560416185038292
20739085 24 17982476818559581399
21033648 29 17917143889071413553
22149856 69 17773901812840766195
22182313 1 18123187905745601767
23558518 356 17758401055485856205
23559900 14 17845949471458437919
25147074 1 18124593339314460567
3411729 13 18265060308564734888
484985 159 14713640732066554210
5104073 3 18189918534073535985
57527293 21 18199164314044121562
57527306 92 17968676964215319220
9896288 288 17613134301369226904
9981440 41 16969652791793129264

> <PUBCHEM_SHAPE_MULTIPOLES>
697.46
11.28
4.8
2.42
14.55
1.83
-0.67
0.62
-8.8
-2.13
3.4
-3.17
-1.48
-1.39

> <PUBCHEM_SHAPE_SELFOVERLAP>
1555.622

> <PUBCHEM_SHAPE_VOLUME>
369.8

> <PUBCHEM_COORDINATE_TYPE>
2
5
10

$$$$
