5293704
  -OEChem-01171811503D

 37 39  0     1  0  0  0  0  0999 V2000
   -3.5098    1.7625   -0.9532 S   0  0  0  0  0  0  0  0  0  0  0  0
    4.7844   -1.0354   -0.1616 O   0  0  0  0  0  0  0  0  0  0  0  0
    5.3780    0.8868    0.9571 O   0  0  0  0  0  0  0  0  0  0  0  0
   -4.2261    0.3514   -0.5760 N   0  0  0  0  0  0  0  0  0  0  0  0
   -5.4328    0.1007   -0.0752 N   0  0  0  0  0  0  0  0  0  0  0  0
   -0.9086    1.6336   -0.2027 N   0  0  0  0  0  0  0  0  0  0  0  0
   -2.0958   -0.5586   -0.2539 N   0  0  0  0  0  0  0  0  0  0  0  0
   -1.8900    0.8048   -0.8648 C   0  0  1  0  0  0  0  0  0  0  0  0
   -3.3870   -0.6410   -0.1321 C   0  0  0  0  0  0  0  0  0  0  0  0
   -5.4234   -1.1519    0.5292 C   0  0  0  0  0  0  0  0  0  0  0  0
   -4.1872   -1.7059    0.5374 C   0  0  0  0  0  0  0  0  0  0  0  0
    0.4223    1.2795   -0.0569 C   0  0  0  0  0  0  0  0  0  0  0  0
   -6.6728   -1.7545    1.0588 C   0  0  0  0  0  0  0  0  0  0  0  0
    1.3300    2.1335    0.5980 C   0  0  0  0  0  0  0  0  0  0  0  0
    0.9040    0.0558   -0.5592 C   0  0  0  0  0  0  0  0  0  0  0  0
    3.1278    0.5600    0.2399 C   0  0  0  0  0  0  0  0  0  0  0  0
    2.6705    1.7770    0.7449 C   0  0  0  0  0  0  0  0  0  0  0  0
    2.2446   -0.3007   -0.4122 C   0  0  0  0  0  0  0  0  0  0  0  0
    4.5253    0.1879    0.3937 C   0  0  0  0  0  0  0  0  0  0  0  0
    6.1305   -1.5143   -0.0729 C   0  0  0  0  0  0  0  0  0  0  0  0
    6.2162   -2.8712   -0.7384 C   0  0  0  0  0  0  0  0  0  0  0  0
   -1.5938    0.6549   -1.9108 H   0  0  0  0  0  0  0  0  0  0  0  0
   -6.2854    0.5284   -0.4093 H   0  0  0  0  0  0  0  0  0  0  0  0
   -3.8387   -2.6416    0.9318 H   0  0  0  0  0  0  0  0  0  0  0  0
   -1.2134    2.5226    0.1763 H   0  0  0  0  0  0  0  0  0  0  0  0
   -7.0998   -1.1218    1.8434 H   0  0  0  0  0  0  0  0  0  0  0  0
   -6.4904   -2.7455    1.4869 H   0  0  0  0  0  0  0  0  0  0  0  0
   -7.4141   -1.8635    0.2607 H   0  0  0  0  0  0  0  0  0  0  0  0
    0.9900    3.0863    0.9979 H   0  0  0  0  0  0  0  0  0  0  0  0
    0.2672   -0.6409   -1.0952 H   0  0  0  0  0  0  0  0  0  0  0  0
    3.3418    2.4619    1.2563 H   0  0  0  0  0  0  0  0  0  0  0  0
    2.5577   -1.2554   -0.8255 H   0  0  0  0  0  0  0  0  0  0  0  0
    6.8009   -0.8099   -0.5773 H   0  0  0  0  0  0  0  0  0  0  0  0
    6.4177   -1.5984    0.9810 H   0  0  0  0  0  0  0  0  0  0  0  0
    7.2341   -3.2678   -0.6887 H   0  0  0  0  0  0  0  0  0  0  0  0
    5.5360   -3.5807   -0.2557 H   0  0  0  0  0  0  0  0  0  0  0  0
    5.9130   -2.8050   -1.7885 H   0  0  0  0  0  0  0  0  0  0  0  0
  1  4  1  0  0  0  0
  1  8  1  0  0  0  0
  2 19  1  0  0  0  0
  2 20  1  0  0  0  0
  3 19  2  0  0  0  0
  4  5  1  0  0  0  0
  4  9  1  0  0  0  0
  5 10  1  0  0  0  0
  5 23  1  0  0  0  0
  6  8  1  0  0  0  0
  6 12  1  0  0  0  0
  6 25  1  0  0  0  0
  7  8  1  0  0  0  0
  7  9  2  0  0  0  0
  8 22  1  0  0  0  0
  9 11  1  0  0  0  0
 10 11  2  0  0  0  0
 10 13  1  0  0  0  0
 11 24  1  0  0  0  0
 12 14  2  0  0  0  0
 12 15  1  0  0  0  0
 13 26  1  0  0  0  0
 13 27  1  0  0  0  0
 13 28  1  0  0  0  0
 14 17  1  0  0  0  0
 14 29  1  0  0  0  0
 15 18  2  0  0  0  0
 15 30  1  0  0  0  0
 16 17  2  0  0  0  0
 16 18  1  0  0  0  0
 16 19  1  0  0  0  0
 17 31  1  0  0  0  0
 18 32  1  0  0  0  0
 20 21  1  0  0  0  0
 20 33  1  0  0  0  0
 20 34  1  0  0  0  0
 21 35  1  0  0  0  0
 21 36  1  0  0  0  0
 21 37  1  0  0  0  0
M  END
> <PUBCHEM_COMPOUND_CID>
5293704

> <PUBCHEM_CONFORMER_RMSD>
0.8

> <PUBCHEM_CONFORMER_DIVERSEORDER>
1
21
5
18
8
54
51
47
17
44
29
43
41
38
27
28
25
42
22
53
4
46
20
12
16
26
50
56
15
52
57
13
48
55
10
14
7
33
3
45
19
34
2
37
40
35
9
31
49
11
36
30
24
32
6
39
23

> <PUBCHEM_MMFF94_PARTIAL_CHARGES>
27
1 -0.2
10 -0.04
11 -0.14
12 0.1
13 0.14
14 -0.15
15 -0.15
16 0.09
17 -0.15
18 -0.15
19 0.63
2 -0.43
20 0.28
23 0.4
24 0.15
25 0.4
29 0.15
3 -0.57
30 0.15
31 0.15
32 0.15
4 -0.08
5 -0.5
6 -0.87
7 -0.7
8 0.85
9 0.49

> <PUBCHEM_EFFECTIVE_ROTOR_COUNT>
5.6

> <PUBCHEM_PHARMACOPHORE_FEATURES>
8
1 3 acceptor
1 5 donor
1 6 cation
1 6 donor
3 4 7 9 cation
5 1 4 7 8 9 rings
5 4 5 9 10 11 rings
6 12 14 15 16 17 18 rings

> <PUBCHEM_HEAVY_ATOM_COUNT>
21

> <PUBCHEM_ATOM_DEF_STEREO_COUNT>
0

> <PUBCHEM_ATOM_UDEF_STEREO_COUNT>
1

> <PUBCHEM_BOND_DEF_STEREO_COUNT>
0

> <PUBCHEM_BOND_UDEF_STEREO_COUNT>
0

> <PUBCHEM_ISOTOPIC_ATOM_COUNT>
0

> <PUBCHEM_COMPONENT_COUNT>
1

> <PUBCHEM_CACTVS_TAUTO_COUNT>
6

> <PUBCHEM_CONFORMER_ID>
0050C68800000001

> <PUBCHEM_MMFF94_ENERGY>
80.9848

> <PUBCHEM_FEATURE_SELFOVERLAP>
40.885

> <PUBCHEM_SHAPE_FINGERPRINT>
11128504 68 15574713612151004348
11545043 162 18333725819347338317
11796584 16 18187917323282222466
12236239 1 15051736412626622581
12596602 18 16415195736514614291
12616971 3 16702017603816428469
13073987 5 18272933812968588328
13288520 33 18260547814523493213
13402501 40 18408605863659768355
13533116 47 18060137657054632282
13551218 46 18342457058110247343
13673619 4 18333453140073136548
13685833 64 18410014346665476362
13757389 114 15957819000197588668
13955234 65 18129092502357386736
14123256 34 18335146387990662387
14341114 176 18413389860268756000
14420673 8 18409735028179352435
14455015 7 18412262830996387660
14528608 73 10737282450466963672
15475509 84 17418382371907105672
17844677 252 18334017189717936500
1813 80 17240477035208996980
18335252 98 18408889551509311854
193927 3 17822297919914824873
19784866 240 18408891719507966876
20281389 69 11671788165065878071
20621476 21 18187655725245937571
21095086 4 18336276677449553314
21130935 74 18273496801371038755
21150785 3 17095531699502261454
21267235 1 18408327687201480079
21279426 13 18337667504081642542
21623969 137 18130788945476788350
21682296 61 18343304729993444143
220451 1 17704069642367250796
22765269 38 8862939464080923206
2297311 6 17967814951209512493
2303208 19 18409450267367621854
23402539 116 15574704777503633357
23522609 53 18120971422852873125
23559900 14 18335131029609760941
239999 70 18408319987290476050
25122255 55 18336836320451788178
26918003 58 18272368707057362377
2838139 119 9295300416812276826
300161 21 11600010937966415021
3004659 81 18040154011660492630
3089732 80 18410296891464116182
314194 84 18060127748417322228
33382 64 18411702067476901314
34797466 226 17386012805836159620
4214541 1 18335135380480145141
465052 167 18343867702096629894
5104073 3 18130783413690689400
5718773 13 18339077207218083847
59755656 215 18113332003494291971
6327066 14 8357960162160621898
8863177 126 18410013281593071978

> <PUBCHEM_SHAPE_MULTIPOLES>
404.36
16.85
2.43
0.94
1.41
0.59
-0.01
13.12
-2.08
1.44
-0.02
-0.2
-0.06
2.63

> <PUBCHEM_SHAPE_SELFOVERLAP>
851.077

> <PUBCHEM_SHAPE_VOLUME>
230.7

> <PUBCHEM_COORDINATE_TYPE>
2
5
10

$$$$
