1910302
  -OEChem-01171812153D

 47 50  0     0  0  0  0  0  0999 V2000
   -2.4857   -2.2746    0.4961 O   0  0  0  0  0  0  0  0  0  0  0  0
    0.4620    0.7679    0.3355 N   0  0  0  0  0  0  0  0  0  0  0  0
   -1.7439   -0.1026   -0.0365 N   0  0  0  0  0  0  0  0  0  0  0  0
    2.8591    1.0505    0.5203 N   0  0  0  0  0  0  0  0  0  0  0  0
    2.8926   -1.6596   -0.3695 N   0  0  0  0  0  0  0  0  0  0  0  0
   -0.5086   -3.6487   -1.1559 N   0  0  0  0  0  0  0  0  0  0  0  0
    0.0533    2.0915    0.7553 C   0  0  0  0  0  0  0  0  0  0  0  0
   -0.0575    3.0590   -0.4220 C   0  0  0  0  0  0  0  0  0  0  0  0
    1.7573    0.3392    0.2441 C   0  0  0  0  0  0  0  0  0  0  0  0
   -0.3790   -0.2534   -0.0335 C   0  0  0  0  0  0  0  0  0  0  0  0
    1.7426   -0.9732   -0.1882 C   0  0  0  0  0  0  0  0  0  0  0  0
    0.3916   -1.3493   -0.3645 C   0  0  0  0  0  0  0  0  0  0  0  0
   -0.4788    4.4514    0.0453 C   0  0  0  0  0  0  0  0  0  0  0  0
    3.9987    0.3672    0.3394 C   0  0  0  0  0  0  0  0  0  0  0  0
    4.0159   -0.9778   -0.1017 C   0  0  0  0  0  0  0  0  0  0  0  0
   -0.5526    5.4301   -1.1157 C   0  0  0  0  0  0  0  0  0  0  0  0
   -2.6966   -1.0983    0.2224 C   0  0  0  0  0  0  0  0  0  0  0  0
    5.2083    1.0056    0.5959 C   0  0  0  0  0  0  0  0  0  0  0  0
    5.2413   -1.6170   -0.2642 C   0  0  0  0  0  0  0  0  0  0  0  0
   -0.1031   -2.6128   -0.7993 C   0  0  0  0  0  0  0  0  0  0  0  0
   -4.1127   -0.6463    0.1820 C   0  0  0  0  0  0  0  0  0  0  0  0
    6.4281    0.3526    0.4282 C   0  0  0  0  0  0  0  0  0  0  0  0
    6.4446   -0.9643   -0.0033 C   0  0  0  0  0  0  0  0  0  0  0  0
   -5.0487   -1.3253    0.9330 C   0  0  0  0  0  0  0  0  0  0  0  0
   -4.4425    0.4369   -0.6046 C   0  0  0  0  0  0  0  0  0  0  0  0
   -6.3769   -0.9014    0.8954 C   0  0  0  0  0  0  0  0  0  0  0  0
   -5.7709    0.8609   -0.6421 C   0  0  0  0  0  0  0  0  0  0  0  0
   -6.7381    0.1918    0.1079 C   0  0  0  0  0  0  0  0  0  0  0  0
   -0.8918    2.0130    1.3030 H   0  0  0  0  0  0  0  0  0  0  0  0
    0.7955    2.4538    1.4771 H   0  0  0  0  0  0  0  0  0  0  0  0
   -0.7838    2.6798   -1.1517 H   0  0  0  0  0  0  0  0  0  0  0  0
    0.9064    3.1207   -0.9428 H   0  0  0  0  0  0  0  0  0  0  0  0
   -1.4577    4.3985    0.5359 H   0  0  0  0  0  0  0  0  0  0  0  0
    0.2360    4.8280    0.7862 H   0  0  0  0  0  0  0  0  0  0  0  0
   -2.0662    0.8602   -0.0175 H   0  0  0  0  0  0  0  0  0  0  0  0
   -0.8571    6.4190   -0.7591 H   0  0  0  0  0  0  0  0  0  0  0  0
    0.4207    5.5308   -1.6066 H   0  0  0  0  0  0  0  0  0  0  0  0
   -1.2815    5.0986   -1.8621 H   0  0  0  0  0  0  0  0  0  0  0  0
    5.2143    2.0398    0.9359 H   0  0  0  0  0  0  0  0  0  0  0  0
    5.2729   -2.6512   -0.6027 H   0  0  0  0  0  0  0  0  0  0  0  0
    7.3583    0.8730    0.6350 H   0  0  0  0  0  0  0  0  0  0  0  0
    7.3878   -1.4849   -0.1379 H   0  0  0  0  0  0  0  0  0  0  0  0
   -4.7846   -2.1742    1.5565 H   0  0  0  0  0  0  0  0  0  0  0  0
   -3.7266    0.9624   -1.2282 H   0  0  0  0  0  0  0  0  0  0  0  0
   -7.1300   -1.4216    1.4801 H   0  0  0  0  0  0  0  0  0  0  0  0
   -6.0541    1.7072   -1.2612 H   0  0  0  0  0  0  0  0  0  0  0  0
   -7.7725    0.5210    0.0776 H   0  0  0  0  0  0  0  0  0  0  0  0
  1 17  2  0  0  0  0
  2  7  1  0  0  0  0
  2  9  1  0  0  0  0
  2 10  1  0  0  0  0
  3 10  1  0  0  0  0
  3 17  1  0  0  0  0
  3 35  1  0  0  0  0
  4  9  2  0  0  0  0
  4 14  1  0  0  0  0
  5 11  2  0  0  0  0
  5 15  1  0  0  0  0
  6 20  3  0  0  0  0
  7  8  1  0  0  0  0
  7 29  1  0  0  0  0
  7 30  1  0  0  0  0
  8 13  1  0  0  0  0
  8 31  1  0  0  0  0
  8 32  1  0  0  0  0
  9 11  1  0  0  0  0
 10 12  2  0  0  0  0
 11 12  1  0  0  0  0
 12 20  1  0  0  0  0
 13 16  1  0  0  0  0
 13 33  1  0  0  0  0
 13 34  1  0  0  0  0
 14 15  1  0  0  0  0
 14 18  2  0  0  0  0
 15 19  2  0  0  0  0
 16 36  1  0  0  0  0
 16 37  1  0  0  0  0
 16 38  1  0  0  0  0
 17 21  1  0  0  0  0
 18 22  1  0  0  0  0
 18 39  1  0  0  0  0
 19 23  1  0  0  0  0
 19 40  1  0  0  0  0
 21 24  2  0  0  0  0
 21 25  1  0  0  0  0
 22 23  2  0  0  0  0
 22 41  1  0  0  0  0
 23 42  1  0  0  0  0
 24 26  1  0  0  0  0
 24 43  1  0  0  0  0
 25 27  2  0  0  0  0
 25 44  1  0  0  0  0
 26 28  2  0  0  0  0
 26 45  1  0  0  0  0
 27 28  1  0  0  0  0
 27 46  1  0  0  0  0
 28 47  1  0  0  0  0
M  END
> <PUBCHEM_COMPOUND_CID>
1910302

> <PUBCHEM_CONFORMER_RMSD>
0.8

> <PUBCHEM_CONFORMER_DIVERSEORDER>
1
2
12
9
8
6
10
3
13
5
11
7
4

> <PUBCHEM_MMFF94_PARTIAL_CHARGES>
35
1 -0.57
10 -0.09
11 0.26
12 0.02
14 0.31
15 0.31
17 0.54
18 -0.15
19 -0.15
2 0.05
20 0.54
21 0.09
22 -0.15
23 -0.15
24 -0.15
25 -0.15
26 -0.15
27 -0.15
28 -0.15
3 -0.49
35 0.37
39 0.15
4 -0.57
40 0.15
41 0.15
42 0.15
43 0.15
44 0.15
45 0.15
46 0.15
47 0.15
5 -0.57
6 -0.56
7 0.26
9 0.11

> <PUBCHEM_EFFECTIVE_ROTOR_COUNT>
6

> <PUBCHEM_PHARMACOPHORE_FEATURES>
10
1 1 acceptor
1 16 hydrophobe
1 3 donor
1 5 acceptor
1 6 acceptor
3 2 4 9 cation
5 2 9 10 11 12 rings
6 14 15 18 19 22 23 rings
6 21 24 25 26 27 28 rings
6 4 5 9 11 14 15 rings

> <PUBCHEM_HEAVY_ATOM_COUNT>
28

> <PUBCHEM_ATOM_DEF_STEREO_COUNT>
0

> <PUBCHEM_ATOM_UDEF_STEREO_COUNT>
0

> <PUBCHEM_BOND_DEF_STEREO_COUNT>
0

> <PUBCHEM_BOND_UDEF_STEREO_COUNT>
0

> <PUBCHEM_ISOTOPIC_ATOM_COUNT>
0

> <PUBCHEM_COMPONENT_COUNT>
1

> <PUBCHEM_CACTVS_TAUTO_COUNT>
4

> <PUBCHEM_CONFORMER_ID>
001D261E00000001

> <PUBCHEM_MMFF94_ENERGY>
71.4905

> <PUBCHEM_FEATURE_SELFOVERLAP>
50.92

> <PUBCHEM_SHAPE_FINGERPRINT>
10006869 2 18264475205100961426
102385 1 17763467209966716423
10688039 33 18335703823438281536
10906281 52 18268731475089426803
10940486 97 18127972116407356087
11421498 54 14129325270568492733
11646440 116 18336274487405784777
12058002 1 17388569053779075150
12166972 35 17749395879118702437
12516196 113 18408886247930401059
12788726 201 18187921725518511736
13140716 1 18127402574480800002
13383665 225 18192173554864903140
13402501 40 18411135827404249743
13533116 47 16917073218462327670
13540713 4 17913206465318706470
13617811 41 18337971029758094206
14028597 1 17531794780446315040
140371 6 18336841826462438665
14790565 3 18342742909764056128
14955137 171 18335988669958668045
15131766 46 13900468617338787834
15198563 99 18336548192434152044
15849732 13 18342458166195777711
15927050 60 17691972978457936052
1601671 61 18411699919613353961
16087824 20 18410294671150653389
17980427 23 17560816424221310961
18681886 176 18341043120985995435
20238998 120 18411981360162722553
20642791 178 17687745352202278008
21033648 29 17988067989541817379
21236236 1 18272370811269850569
21267235 1 18343025450805331054
21285901 2 18130517335897148758
21641784 216 18263944175708793332
21709351 56 18339917225711730215
21792934 111 18342163437456095194
23402539 116 18130499807866964902
23559900 14 18338230583464494001
23845131 108 17544475254365249089
24771293 8 18128524067625038200
283562 15 18268712710092519720
3004659 81 18040999548918517482
3178227 256 18338812203498612275
335352 9 18343864433584495030
34934 24 18411131463654842690
350125 39 18342739577365248184
4073 2 18114185297621645818
5104073 3 18199744757436406074
59755656 215 18410576145905675326
6086070 43 18044066121556614207

> <PUBCHEM_SHAPE_MULTIPOLES>
545.45
15.12
4.4
0.89
2.69
7.31
0.04
-5.01
-2.53
1.01
1.67
0.37
0.02
1.18

> <PUBCHEM_SHAPE_SELFOVERLAP>
1205.882

> <PUBCHEM_SHAPE_VOLUME>
288.6

> <PUBCHEM_COORDINATE_TYPE>
2
5
10

$$$$
