300631
  -OEChem-01171811553D

 36 37  0     0  0  0  0  0  0999 V2000
    1.4268    0.1377   -0.5564 N   0  0  0  0  0  0  0  0  0  0  0  0
   -1.4247    0.1390    0.5555 N   0  0  0  0  0  0  0  0  0  0  0  0
    6.9498    0.4331    0.3125 N   0  0  0  0  0  0  0  0  0  0  0  0
   -6.9480    0.4330   -0.3119 N   0  0  0  0  0  0  0  0  0  0  0  0
    1.1339   -1.5778    1.1367 N   0  0  0  0  0  0  0  0  0  0  0  0
   -1.1388   -1.5802   -1.1345 N   0  0  0  0  0  0  0  0  0  0  0  0
    2.8064    0.2108   -0.3397 C   0  0  0  0  0  0  0  0  0  0  0  0
   -2.8105    0.2121    0.3382 C   0  0  0  0  0  0  0  0  0  0  0  0
    5.5584    0.3584    0.0935 C   0  0  0  0  0  0  0  0  0  0  0  0
   -5.5566    0.3586   -0.0933 C   0  0  0  0  0  0  0  0  0  0  0  0
    3.6715   -0.6071   -1.0662 C   0  0  0  0  0  0  0  0  0  0  0  0
   -3.6693   -0.6042    1.0681 C   0  0  0  0  0  0  0  0  0  0  0  0
    3.3171    1.1026    0.6036 C   0  0  0  0  0  0  0  0  0  0  0  0
   -3.3154    1.1012   -0.6061 C   0  0  0  0  0  0  0  0  0  0  0  0
    5.0475   -0.5334   -0.8497 C   0  0  0  0  0  0  0  0  0  0  0  0
   -5.0454   -0.5309    0.8519 C   0  0  0  0  0  0  0  0  0  0  0  0
    4.6932    1.1765    0.8202 C   0  0  0  0  0  0  0  0  0  0  0  0
   -4.6915    1.1747   -0.8224 C   0  0  0  0  0  0  0  0  0  0  0  0
    0.7368   -0.7020    0.1572 C   0  0  0  0  0  0  0  0  0  0  0  0
   -0.7413   -0.7022   -0.1572 C   0  0  0  0  0  0  0  0  0  0  0  0
    3.2830   -1.3048   -1.8036 H   0  0  0  0  0  0  0  0  0  0  0  0
   -3.2794   -1.2996    1.8067 H   0  0  0  0  0  0  0  0  0  0  0  0
    2.6510    1.7444    1.1743 H   0  0  0  0  0  0  0  0  0  0  0  0
   -2.6486    1.7408   -1.1781 H   0  0  0  0  0  0  0  0  0  0  0  0
    5.7113   -1.1761   -1.4223 H   0  0  0  0  0  0  0  0  0  0  0  0
   -5.7091   -1.1721    1.4264 H   0  0  0  0  0  0  0  0  0  0  0  0
    5.0789    1.8755    1.5579 H   0  0  0  0  0  0  0  0  0  0  0  0
   -5.0774    1.8719   -1.5617 H   0  0  0  0  0  0  0  0  0  0  0  0
    7.3206    1.0793    0.9965 H   0  0  0  0  0  0  0  0  0  0  0  0
    7.5775   -0.1600   -0.2137 H   0  0  0  0  0  0  0  0  0  0  0  0
   -7.3190    1.0772   -0.9976 H   0  0  0  0  0  0  0  0  0  0  0  0
   -7.5756   -0.1589    0.2158 H   0  0  0  0  0  0  0  0  0  0  0  0
    2.1040   -1.6559    1.4220 H   0  0  0  0  0  0  0  0  0  0  0  0
    0.4691   -2.1796    1.6118 H   0  0  0  0  0  0  0  0  0  0  0  0
   -0.4742   -2.1833   -1.6082 H   0  0  0  0  0  0  0  0  0  0  0  0
   -2.1089   -1.6586   -1.4195 H   0  0  0  0  0  0  0  0  0  0  0  0
  1  7  1  0  0  0  0
  1 19  2  0  0  0  0
  2  8  1  0  0  0  0
  2 20  2  0  0  0  0
  3  9  1  0  0  0  0
  3 29  1  0  0  0  0
  3 30  1  0  0  0  0
  4 10  1  0  0  0  0
  4 31  1  0  0  0  0
  4 32  1  0  0  0  0
  5 19  1  0  0  0  0
  5 33  1  0  0  0  0
  5 34  1  0  0  0  0
  6 20  1  0  0  0  0
  6 35  1  0  0  0  0
  6 36  1  0  0  0  0
  7 11  2  0  0  0  0
  7 13  1  0  0  0  0
  8 12  2  0  0  0  0
  8 14  1  0  0  0  0
  9 15  2  0  0  0  0
  9 17  1  0  0  0  0
 10 16  2  0  0  0  0
 10 18  1  0  0  0  0
 11 15  1  0  0  0  0
 11 21  1  0  0  0  0
 12 16  1  0  0  0  0
 12 22  1  0  0  0  0
 13 17  2  0  0  0  0
 13 23  1  0  0  0  0
 14 18  2  0  0  0  0
 14 24  1  0  0  0  0
 15 25  1  0  0  0  0
 16 26  1  0  0  0  0
 17 27  1  0  0  0  0
 18 28  1  0  0  0  0
 19 20  1  0  0  0  0
M  END
> <PUBCHEM_COMPOUND_CID>
300631

> <PUBCHEM_CONFORMER_RMSD>
0.6

> <PUBCHEM_CONFORMER_DIVERSEORDER>
1
2
3
4

> <PUBCHEM_MMFF94_PARTIAL_CHARGES>
36
1 -0.63
10 0.1
11 -0.15
12 -0.15
13 -0.15
14 -0.15
15 -0.15
16 -0.15
17 -0.15
18 -0.15
19 0.5
2 -0.63
20 0.5
21 0.15
22 0.15
23 0.15
24 0.15
25 0.15
26 0.15
27 0.15
28 0.15
29 0.4
3 -0.9
30 0.4
31 0.4
32 0.4
33 0.4
34 0.4
35 0.4
36 0.4
4 -0.9
5 -0.85
6 -0.85
7 0.18
8 0.18
9 0.1

> <PUBCHEM_EFFECTIVE_ROTOR_COUNT>
3

> <PUBCHEM_PHARMACOPHORE_FEATURES>
10
1 3 cation
1 3 donor
1 4 cation
1 4 donor
1 5 donor
1 6 donor
3 1 5 19 cation
3 2 6 20 cation
6 7 9 11 13 15 17 rings
6 8 10 12 14 16 18 rings

> <PUBCHEM_HEAVY_ATOM_COUNT>
20

> <PUBCHEM_ATOM_DEF_STEREO_COUNT>
0

> <PUBCHEM_ATOM_UDEF_STEREO_COUNT>
0

> <PUBCHEM_BOND_DEF_STEREO_COUNT>
0

> <PUBCHEM_BOND_UDEF_STEREO_COUNT>
0

> <PUBCHEM_ISOTOPIC_ATOM_COUNT>
0

> <PUBCHEM_COMPONENT_COUNT>
1

> <PUBCHEM_CACTVS_TAUTO_COUNT>
3

> <PUBCHEM_CONFORMER_ID>
0004965700000001

> <PUBCHEM_MMFF94_ENERGY>
78.5984

> <PUBCHEM_FEATURE_SELFOVERLAP>
50.811

> <PUBCHEM_SHAPE_FINGERPRINT>
10 15 18336539513111737624
10595046 47 15985387780572466864
11089746 13 18411131454800514316
11128504 68 16702299061739565321
11287383 113 17989489644848841566
11315181 36 16370731452285998693
11646440 116 18412271644085221817
12107183 9 15216639894997394388
12596602 18 16805328837691695000
12633257 1 15647057079053813768
12916748 109 18201443558018462672
13288520 33 12175901057041729385
13533116 47 18188484671214103290
13675066 3 18335707169386116494
14123256 10 15769774662735775053
14251764 18 15936414463493459942
15183329 4 17203894054517621572
17834072 8 18273218595180321292
18006028 8 11891332054236264287
19489759 90 17749108894278958857
19784866 240 10231756721057927003
200 152 14979960267937857270
20157964 124 17847063285712158268
20281389 69 18407755946030668304
20645477 56 18343299292675142902
20645477 70 17560811983351668950
21033648 29 18270949194106068665
21150785 3 17704347788828638015
221357 26 17917711279641496384
22224240 67 16370724854878550880
23198884 109 15698002941995239215
23402539 116 16702025253184558585
23536379 177 15769781234035627497
23559900 14 17749679467446396459
2916195 48 18410570725725207688
29717793 49 15267351725835265204
300161 21 17846775230951175102
3004659 81 12751233714256503922
351380 180 18407760347844515561
3545911 37 18409450280025813195
4325135 7 15698283304312020224
465052 167 14345799348827134370
5104073 3 17750236903220609289
5385378 56 17968942968387695291
542803 24 16226051097752773479
59755656 215 18187930538907661254
59755656 520 18040428919195079082
7495541 125 15338830993061054938

> <PUBCHEM_SHAPE_MULTIPOLES>
381.7
16.81
1.23
1.06
0.04
0.09
0
-4.23
0
0
0
0
0.14
1.14

> <PUBCHEM_SHAPE_SELFOVERLAP>
816.977

> <PUBCHEM_SHAPE_VOLUME>
205.9

> <PUBCHEM_COORDINATE_TYPE>
2
5
10

$$$$
