2977922
  -OEChem-01171812103D

 34 36  0     0  0  0  0  0  0999 V2000
    0.9094    3.7513   -0.7016 S   0  0  0  0  0  0  0  0  0  0  0  0
    2.0940   -1.7503   -0.8050 O   0  0  0  0  0  0  0  0  0  0  0  0
   -1.8993    2.9351    0.3730 O   0  0  0  0  0  0  0  0  0  0  0  0
   -1.4826    0.9218   -0.7719 N   0  0  0  0  0  0  0  0  0  0  0  0
    2.7379    1.1800    1.3454 N   0  0  0  0  0  0  0  0  0  0  0  0
    1.6124    1.1141   -0.5266 N   0  0  0  0  0  0  0  0  0  0  0  0
    2.3476    2.4526    1.1766 N   0  0  0  0  0  0  0  0  0  0  0  0
   -0.9215   -2.2142   -2.4804 N   0  0  0  0  0  0  0  0  0  0  0  0
   -2.2034   -0.0246   -0.0360 C   0  0  0  0  0  0  0  0  0  0  0  0
    2.2968    0.3910    0.3291 C   0  0  0  0  0  0  0  0  0  0  0  0
    2.5515   -0.9938    0.2325 C   0  0  0  0  0  0  0  0  0  0  0  0
   -0.4952    2.9931   -1.5538 C   0  0  0  0  0  0  0  0  0  0  0  0
   -1.3678    2.2963   -0.5318 C   0  0  0  0  0  0  0  0  0  0  0  0
   -2.2219   -1.3698   -0.4047 C   0  0  0  0  0  0  0  0  0  0  0  0
    1.6893    2.3247    0.0488 C   0  0  0  0  0  0  0  0  0  0  0  0
   -2.9144    0.4006    1.0865 C   0  0  0  0  0  0  0  0  0  0  0  0
    3.2655   -1.7819    1.1128 C   0  0  0  0  0  0  0  0  0  0  0  0
   -2.9511   -2.2896    0.3490 C   0  0  0  0  0  0  0  0  0  0  0  0
   -3.6434   -0.5192    1.8401 C   0  0  0  0  0  0  0  0  0  0  0  0
   -3.6618   -1.8643    1.4714 C   0  0  0  0  0  0  0  0  0  0  0  0
    3.2427   -3.0941    0.5831 C   0  0  0  0  0  0  0  0  0  0  0  0
    2.5182   -3.0222   -0.5839 C   0  0  0  0  0  0  0  0  0  0  0  0
   -1.5030   -1.8366   -1.5523 C   0  0  0  0  0  0  0  0  0  0  0  0
   -0.1376    2.3141   -2.3329 H   0  0  0  0  0  0  0  0  0  0  0  0
   -1.0906    3.7725   -2.0392 H   0  0  0  0  0  0  0  0  0  0  0  0
   -0.9776    0.5603   -1.5766 H   0  0  0  0  0  0  0  0  0  0  0  0
   -2.9547    1.4183    1.4452 H   0  0  0  0  0  0  0  0  0  0  0  0
    3.2891    0.9395    2.1610 H   0  0  0  0  0  0  0  0  0  0  0  0
    3.7478   -1.4634    2.0266 H   0  0  0  0  0  0  0  0  0  0  0  0
   -2.9762   -3.3419    0.0757 H   0  0  0  0  0  0  0  0  0  0  0  0
   -4.1970   -0.1897    2.7147 H   0  0  0  0  0  0  0  0  0  0  0  0
    3.6974   -3.9812    0.9996 H   0  0  0  0  0  0  0  0  0  0  0  0
   -4.2295   -2.5803    2.0584 H   0  0  0  0  0  0  0  0  0  0  0  0
    2.2293   -3.7473   -1.3307 H   0  0  0  0  0  0  0  0  0  0  0  0
  1 12  1  0  0  0  0
  1 15  1  0  0  0  0
  2 11  1  0  0  0  0
  2 22  1  0  0  0  0
  3 13  2  0  0  0  0
  4  9  1  0  0  0  0
  4 13  1  0  0  0  0
  4 26  1  0  0  0  0
  5  7  1  0  0  0  0
  5 10  1  0  0  0  0
  5 28  1  0  0  0  0
  6 10  2  0  0  0  0
  6 15  1  0  0  0  0
  7 15  2  0  0  0  0
  8 23  3  0  0  0  0
  9 14  1  0  0  0  0
  9 16  2  0  0  0  0
 10 11  1  0  0  0  0
 11 17  2  0  0  0  0
 12 13  1  0  0  0  0
 12 24  1  0  0  0  0
 12 25  1  0  0  0  0
 14 18  2  0  0  0  0
 14 23  1  0  0  0  0
 16 19  1  0  0  0  0
 16 27  1  0  0  0  0
 17 21  1  0  0  0  0
 17 29  1  0  0  0  0
 18 20  1  0  0  0  0
 18 30  1  0  0  0  0
 19 20  2  0  0  0  0
 19 31  1  0  0  0  0
 20 33  1  0  0  0  0
 21 22  2  0  0  0  0
 21 32  1  0  0  0  0
 22 34  1  0  0  0  0
M  END
> <PUBCHEM_COMPOUND_CID>
2977922

> <PUBCHEM_CONFORMER_RMSD>
1

> <PUBCHEM_CONFORMER_DIVERSEORDER>
3
34
29
151
43
73
5
92
193
64
111
175
7
120
70
133
181
78
150
145
77
159
12
56
154
33
180
113
23
71
20
27
156
97
59
39
187
134
118
69
148
107
62
72
163
173
96
171
83
158
75
42
50
98
106
1
131
30
48
94
123
15
2
146
45
178
141
153
57
147
170
47
100
116
157
182
143
174
40
121
139
26
117
68
21
137
144
138
166
90
58
14
168
36
66
53
51
161
172
136
91
46
102
31
81
52
19
38
79
86
60
61
108
176
104
55
9
84
6
167
189
119
80
109
89
10
186
32
13
82
179
8
127
49
132
140
93
87
41
11
63
22
95
149
195
67
44
192
105
152
185
142
25
190
85
126
101
114
169
112
191
99
188
4
88
18
17
196
128
177
129
35
165
183
16
160
74
184
76
110
164
124
155
65
24
125
115
135
54
103
130
122
28
162
194
37

> <PUBCHEM_MMFF94_PARTIAL_CHARGES>
32
1 -0.28
10 0.19
11 0.14
12 0.29
13 0.57
14 0.07
15 0.57
16 -0.15
17 -0.15
18 -0.15
19 -0.15
2 -0.28
20 -0.15
21 -0.15
22 -0.01
23 0.48
26 0.37
27 0.15
28 0.27
29 0.15
3 -0.57
30 0.15
31 0.15
32 0.15
33 0.15
34 0.15
4 -0.55
5 0.3
6 -0.57
7 -0.71
8 -0.56
9 0.12

> <PUBCHEM_EFFECTIVE_ROTOR_COUNT>
6

> <PUBCHEM_PHARMACOPHORE_FEATURES>
10
1 2 acceptor
1 3 acceptor
1 4 donor
1 5 donor
1 8 acceptor
3 5 6 10 cation
3 6 7 15 cation
5 2 11 17 21 22 rings
5 5 6 7 10 15 rings
6 9 14 16 18 19 20 rings

> <PUBCHEM_HEAVY_ATOM_COUNT>
23

> <PUBCHEM_ATOM_DEF_STEREO_COUNT>
0

> <PUBCHEM_ATOM_UDEF_STEREO_COUNT>
0

> <PUBCHEM_BOND_DEF_STEREO_COUNT>
0

> <PUBCHEM_BOND_UDEF_STEREO_COUNT>
0

> <PUBCHEM_ISOTOPIC_ATOM_COUNT>
0

> <PUBCHEM_COMPONENT_COUNT>
1

> <PUBCHEM_CACTVS_TAUTO_COUNT>
6

> <PUBCHEM_CONFORMER_ID>
002D708200000003

> <PUBCHEM_MMFF94_ENERGY>
37.5092

> <PUBCHEM_FEATURE_SELFOVERLAP>
53.579

> <PUBCHEM_SHAPE_FINGERPRINT>
10064457 181 16894845825922511685
10382601 240 18268435796787717658
107951 10 15871974002355694585
12054548 360 18337679607478889196
12156800 1 15975034611797829508
12553582 1 18408605885350258990
12633257 1 18125179138261885763
13140716 1 18194403286329220056
13402501 40 17621037564594326807
13726171 33 17837528200802019956
13941206 138 16604932591131678446
13965767 371 17988655124213423707
14251757 5 17833003650050028750
14363568 33 18270418143322731630
15422964 175 18188212108225433401
16719943 64 16966039719132947386
19777482 4 17913452909803601767
19930381 70 18117564135476852211
3493558 16 16983230678443842833
35225 105 16602152020719160019
445580 42 17755285782921141498
5283178 26 17911243810364868769
539174 4 18129662035803971571
6287921 2 18124891302117167618
7097593 13 18339655528547532833

> <PUBCHEM_SHAPE_MULTIPOLES>
440.54
6.25
4.95
1.66
1.1
2.32
0.39
-4.5
-3.17
-2.47
1.07
0.78
-0.53
0.34

> <PUBCHEM_SHAPE_SELFOVERLAP>
946.615

> <PUBCHEM_SHAPE_VOLUME>
243.9

> <PUBCHEM_COORDINATE_TYPE>
2
5
10

$$$$
