263534
  -OEChem-01171811543D

 38 39  0     0  0  0  0  0  0999 V2000
    1.3766    1.1316   -0.4017 O   0  0  0  0  0  0  0  0  0  0  0  0
   -1.4062   -2.3476    1.3381 O   0  0  0  0  0  0  0  0  0  0  0  0
   -0.8985    2.3270   -1.1848 O   0  0  0  0  0  0  0  0  0  0  0  0
    3.3940    3.5205    1.3330 O   0  0  0  0  0  0  0  0  0  0  0  0
    3.7092    2.5004   -0.6790 O   0  0  0  0  0  0  0  0  0  0  0  0
    0.0642   -0.6744    0.5073 C   0  0  0  0  0  0  0  0  0  0  0  0
   -2.4773   -0.5425    0.2986 C   0  0  0  0  0  0  0  0  0  0  0  0
    1.2084   -1.5070    1.0213 C   0  0  0  0  0  0  0  0  0  0  0  0
   -2.3492    0.6772   -0.3594 C   0  0  0  0  0  0  0  0  0  0  0  0
    0.1762    0.5063   -0.1294 C   0  0  0  0  0  0  0  0  0  0  0  0
   -1.2843   -1.2727    0.7595 C   0  0  0  0  0  0  0  0  0  0  0  0
   -1.0186    1.2536   -0.6038 C   0  0  0  0  0  0  0  0  0  0  0  0
    1.6146   -2.5536    0.0331 C   0  0  0  0  0  0  0  0  0  0  0  0
   -3.7500   -1.0821    0.5252 C   0  0  0  0  0  0  0  0  0  0  0  0
   -3.4912    1.3624   -0.7929 C   0  0  0  0  0  0  0  0  0  0  0  0
    2.8289   -2.7370   -0.5202 C   0  0  0  0  0  0  0  0  0  0  0  0
   -4.8865   -0.3982    0.0926 C   0  0  0  0  0  0  0  0  0  0  0  0
   -4.7572    0.8226   -0.5655 C   0  0  0  0  0  0  0  0  0  0  0  0
    1.7466    1.9899    0.6593 C   0  0  0  0  0  0  0  0  0  0  0  0
    3.1755   -3.8117   -1.5115 C   0  0  0  0  0  0  0  0  0  0  0  0
    3.9782   -1.8361   -0.1531 C   0  0  0  0  0  0  0  0  0  0  0  0
    3.0465    2.6713    0.3333 C   0  0  0  0  0  0  0  0  0  0  0  0
    2.0413   -0.8599    1.3059 H   0  0  0  0  0  0  0  0  0  0  0  0
    0.9309   -2.0014    1.9608 H   0  0  0  0  0  0  0  0  0  0  0  0
    0.8298   -3.2521   -0.2560 H   0  0  0  0  0  0  0  0  0  0  0  0
   -3.8779   -2.0327    1.0363 H   0  0  0  0  0  0  0  0  0  0  0  0
   -3.4160    2.3161   -1.3086 H   0  0  0  0  0  0  0  0  0  0  0  0
   -5.8725   -0.8180    0.2692 H   0  0  0  0  0  0  0  0  0  0  0  0
   -5.6424    1.3546   -0.9019 H   0  0  0  0  0  0  0  0  0  0  0  0
    0.9883    2.7694    0.8019 H   0  0  0  0  0  0  0  0  0  0  0  0
    1.8867    1.4251    1.5878 H   0  0  0  0  0  0  0  0  0  0  0  0
    3.5005   -3.3690   -2.4584 H   0  0  0  0  0  0  0  0  0  0  0  0
    2.3164   -4.4572   -1.7219 H   0  0  0  0  0  0  0  0  0  0  0  0
    3.9810   -4.4432   -1.1231 H   0  0  0  0  0  0  0  0  0  0  0  0
    3.6764   -0.7966   -0.0004 H   0  0  0  0  0  0  0  0  0  0  0  0
    4.4788   -2.2058    0.7473 H   0  0  0  0  0  0  0  0  0  0  0  0
    4.7191   -1.8115   -0.9606 H   0  0  0  0  0  0  0  0  0  0  0  0
    4.2403    3.9798    1.1454 H   0  0  0  0  0  0  0  0  0  0  0  0
  1 10  1  0  0  0  0
  1 19  1  0  0  0  0
  2 11  2  0  0  0  0
  3 12  2  0  0  0  0
  4 22  1  0  0  0  0
  4 38  1  0  0  0  0
  5 22  2  0  0  0  0
  6  8  1  0  0  0  0
  6 10  2  0  0  0  0
  6 11  1  0  0  0  0
  7  9  1  0  0  0  0
  7 11  1  0  0  0  0
  7 14  2  0  0  0  0
  8 13  1  0  0  0  0
  8 23  1  0  0  0  0
  8 24  1  0  0  0  0
  9 12  1  0  0  0  0
  9 15  2  0  0  0  0
 10 12  1  0  0  0  0
 13 16  2  0  0  0  0
 13 25  1  0  0  0  0
 14 17  1  0  0  0  0
 14 26  1  0  0  0  0
 15 18  1  0  0  0  0
 15 27  1  0  0  0  0
 16 20  1  0  0  0  0
 16 21  1  0  0  0  0
 17 18  2  0  0  0  0
 17 28  1  0  0  0  0
 18 29  1  0  0  0  0
 19 22  1  0  0  0  0
 19 30  1  0  0  0  0
 19 31  1  0  0  0  0
 20 32  1  0  0  0  0
 20 33  1  0  0  0  0
 20 34  1  0  0  0  0
 21 35  1  0  0  0  0
 21 36  1  0  0  0  0
 21 37  1  0  0  0  0
M  END
> <PUBCHEM_COMPOUND_CID>
263534

> <PUBCHEM_CONFORMER_RMSD>
0.8

> <PUBCHEM_CONFORMER_DIVERSEORDER>
1
34
30
10
33
22
17
11
15
32
31
2
27
14
16
7
18
29
24
6
19
12
5
23
9
4
26
20
3
21
28
8
13
25

> <PUBCHEM_MMFF94_PARTIAL_CHARGES>
28
1 -0.36
10 0.09
11 0.47
12 0.47
13 -0.29
14 -0.15
15 -0.15
16 -0.28
17 -0.15
18 -0.15
19 0.34
2 -0.57
20 0.14
21 0.14
22 0.66
25 0.15
26 0.15
27 0.15
28 0.15
29 0.15
3 -0.57
38 0.5
4 -0.65
5 -0.57
6 -0.12
7 0.09
8 0.28
9 0.09

> <PUBCHEM_EFFECTIVE_ROTOR_COUNT>
5

> <PUBCHEM_PHARMACOPHORE_FEATURES>
9
1 1 acceptor
1 2 acceptor
1 3 acceptor
1 4 acceptor
1 5 acceptor
3 16 20 21 hydrophobe
3 4 5 22 anion
6 6 7 9 10 11 12 rings
6 7 9 14 15 17 18 rings

> <PUBCHEM_HEAVY_ATOM_COUNT>
22

> <PUBCHEM_ATOM_DEF_STEREO_COUNT>
0

> <PUBCHEM_ATOM_UDEF_STEREO_COUNT>
0

> <PUBCHEM_BOND_DEF_STEREO_COUNT>
0

> <PUBCHEM_BOND_UDEF_STEREO_COUNT>
0

> <PUBCHEM_ISOTOPIC_ATOM_COUNT>
0

> <PUBCHEM_COMPONENT_COUNT>
1

> <PUBCHEM_CACTVS_TAUTO_COUNT>
3

> <PUBCHEM_CONFORMER_ID>
0004056E00000001

> <PUBCHEM_MMFF94_ENERGY>
51.1748

> <PUBCHEM_FEATURE_SELFOVERLAP>
45.763

> <PUBCHEM_SHAPE_FINGERPRINT>
1100329 8 17836933304328456649
11524674 6 18056754550192149180
11680986 33 18261401078406682083
12788726 201 17472146076902360306
13140716 1 18115019711277773097
13402501 40 18335419059006660898
13533116 47 18342739607451001113
13540713 4 18259705597507140707
14790565 3 16824744761049616708
14955137 171 17691997885020108953
15230672 131 18121216739913584560
15475509 8 17480868524262554333
15536298 74 18408038507512304865
15848702 151 18200030629916509367
16945 1 17827342299222431915
1813 80 17558839385965343710
18785283 64 18408321116360661072
18915476 22 18341065106343432467
20028762 73 17620763116664991903
20600515 1 17614253599937942736
20691752 17 16877939430259143579
20871999 31 17975140846250014646
21029758 11 18266459793534641618
21141583 151 18048318851500874250
22182313 1 18040432201092645479
2334 1 18186799193245498809
23352939 185 18270124487291047682
23419403 2 17900017946947863923
23557571 272 17907851813363331346
23559900 14 18340197505853770826
2748010 2 18113615673478235335
3298306 158 18339369681684375036
350125 39 18189900820816165957
352729 6 17610913661411495317
495365 180 18201150074666770104
5104073 3 18260548910257216529
5265222 85 17759253173948056060
59554788 170 18334857169725786061
59755656 215 18334574664020273140
7364860 26 18411979161206947240
81228 2 17621041958905247906
84936 31 17988627598079441810
9709674 26 18334576875801908051

> <PUBCHEM_SHAPE_MULTIPOLES>
423.4
8.34
4.24
1.12
4.34
1.29
0.01
-1.11
1.44
-7.07
0.1
-0.31
-0.17
2.21

> <PUBCHEM_SHAPE_SELFOVERLAP>
901.987

> <PUBCHEM_SHAPE_VOLUME>
233.7

> <PUBCHEM_COORDINATE_TYPE>
2
5
10

$$$$
