1377199
  -OEChem-01171811583D

 38 40  0     0  0  0  0  0  0999 V2000
    4.1463   -2.1452   -0.7952 Cl  0  0  0  0  0  0  0  0  0  0  0  0
   -3.2544   -0.0427    0.4447 O   0  0  0  0  0  0  0  0  0  0  0  0
   -5.8332    2.1009   -0.5474 O   0  5  0  0  0  0  0  0  0  0  0  0
   -4.2020    2.3534    0.8999 O   0  0  0  0  0  0  0  0  0  0  0  0
   -0.6556   -1.0455    0.7089 N   0  0  0  0  0  0  0  0  0  0  0  0
    2.0174   -0.1885    0.1800 N   0  0  0  0  0  0  0  0  0  0  0  0
   -4.8115    1.6441    0.0456 N   0  3  0  0  0  0  0  0  0  0  0  0
   -0.2659   -0.6159   -0.6395 C   0  0  0  0  0  0  0  0  0  0  0  0
    0.4789   -1.7010    1.3715 C   0  0  0  0  0  0  0  0  0  0  0  0
    0.9009    0.3734   -0.5863 C   0  0  0  0  0  0  0  0  0  0  0  0
    1.6696   -0.7472    1.4926 C   0  0  0  0  0  0  0  0  0  0  0  0
   -1.8049   -1.9479    0.6480 C   0  0  0  0  0  0  0  0  0  0  0  0
    3.3074    0.3249    0.0047 C   0  0  0  0  0  0  0  0  0  0  0  0
   -3.0015   -1.2899    0.0139 C   0  0  0  0  0  0  0  0  0  0  0  0
    4.3838   -0.4713   -0.4411 C   0  0  0  0  0  0  0  0  0  0  0  0
    3.5630    1.6845    0.2771 C   0  0  0  0  0  0  0  0  0  0  0  0
   -3.8832   -1.7171   -0.9166 C   0  0  0  0  0  0  0  0  0  0  0  0
    5.6589    0.0695   -0.6067 C   0  0  0  0  0  0  0  0  0  0  0  0
    4.8381    2.2252    0.1116 C   0  0  0  0  0  0  0  0  0  0  0  0
   -4.7817   -0.6379   -1.0929 C   0  0  0  0  0  0  0  0  0  0  0  0
   -4.3564    0.3563   -0.2427 C   0  0  0  0  0  0  0  0  0  0  0  0
    5.8861    1.4177   -0.3302 C   0  0  0  0  0  0  0  0  0  0  0  0
   -1.0825   -0.1056   -1.1617 H   0  0  0  0  0  0  0  0  0  0  0  0
    0.0195   -1.4817   -1.2529 H   0  0  0  0  0  0  0  0  0  0  0  0
    0.7843   -2.6002    0.8196 H   0  0  0  0  0  0  0  0  0  0  0  0
    0.1917   -2.0194    2.3810 H   0  0  0  0  0  0  0  0  0  0  0  0
    1.2199    0.5961   -1.6120 H   0  0  0  0  0  0  0  0  0  0  0  0
    0.5730    1.3152   -0.1283 H   0  0  0  0  0  0  0  0  0  0  0  0
    1.4312    0.0706    2.1848 H   0  0  0  0  0  0  0  0  0  0  0  0
    2.5183   -1.2979    1.9164 H   0  0  0  0  0  0  0  0  0  0  0  0
   -2.0972   -2.2455    1.6630 H   0  0  0  0  0  0  0  0  0  0  0  0
   -1.5611   -2.8662    0.0975 H   0  0  0  0  0  0  0  0  0  0  0  0
    2.7627    2.3325    0.6283 H   0  0  0  0  0  0  0  0  0  0  0  0
   -3.8985   -2.6744   -1.4168 H   0  0  0  0  0  0  0  0  0  0  0  0
    6.4864   -0.5461   -0.9502 H   0  0  0  0  0  0  0  0  0  0  0  0
    5.0154    3.2746    0.3281 H   0  0  0  0  0  0  0  0  0  0  0  0
   -5.6319   -0.5966   -1.7591 H   0  0  0  0  0  0  0  0  0  0  0  0
    6.8789    1.8389   -0.4588 H   0  0  0  0  0  0  0  0  0  0  0  0
  1 15  1  0  0  0  0
  2 14  1  0  0  0  0
  2 21  1  0  0  0  0
  3  7  1  0  0  0  0
  4  7  2  0  0  0  0
  5  8  1  0  0  0  0
  5  9  1  0  0  0  0
  5 12  1  0  0  0  0
  6 10  1  0  0  0  0
  6 11  1  0  0  0  0
  6 13  1  0  0  0  0
  7 21  1  0  0  0  0
  8 10  1  0  0  0  0
  8 23  1  0  0  0  0
  8 24  1  0  0  0  0
  9 11  1  0  0  0  0
  9 25  1  0  0  0  0
  9 26  1  0  0  0  0
 10 27  1  0  0  0  0
 10 28  1  0  0  0  0
 11 29  1  0  0  0  0
 11 30  1  0  0  0  0
 12 14  1  0  0  0  0
 12 31  1  0  0  0  0
 12 32  1  0  0  0  0
 13 15  1  0  0  0  0
 13 16  2  0  0  0  0
 14 17  2  0  0  0  0
 15 18  2  0  0  0  0
 16 19  1  0  0  0  0
 16 33  1  0  0  0  0
 17 20  1  0  0  0  0
 17 34  1  0  0  0  0
 18 22  1  0  0  0  0
 18 35  1  0  0  0  0
 19 22  2  0  0  0  0
 19 36  1  0  0  0  0
 20 21  2  0  0  0  0
 20 37  1  0  0  0  0
 22 38  1  0  0  0  0
M  CHG  2   3  -1   7   1
M  END
> <PUBCHEM_COMPOUND_CID>
1377199

> <PUBCHEM_CONFORMER_RMSD>
0.8

> <PUBCHEM_CONFORMER_DIVERSEORDER>
1
11
23
48
44
59
56
28
36
47
13
24
29
17
14
63
25
54
39
61
52
27
10
8
57
33
32
53
16
2
38
35
22
5
50
41
21
51
9
3
49
34
15
60
64
40
42
7
31
30
26
19
20
12
37
45
55
46
62
58
4
6
43
18

> <PUBCHEM_MMFF94_PARTIAL_CHARGES>
28
1 -0.18
10 0.37
11 0.37
12 0.45
13 0.1
14 -0.04
15 0.18
16 -0.15
17 -0.15
18 -0.15
19 -0.15
2 -0.28
20 -0.15
21 0.22
22 -0.15
3 -0.52
33 0.15
34 0.15
35 0.15
36 0.15
37 0.15
38 0.15
4 -0.52
5 -0.81
6 -0.84
7 0.96
8 0.27
9 0.27

> <PUBCHEM_EFFECTIVE_ROTOR_COUNT>
5.2

> <PUBCHEM_PHARMACOPHORE_FEATURES>
9
1 2 acceptor
1 3 acceptor
1 3 anion
1 4 acceptor
1 5 cation
1 6 cation
5 2 14 17 20 21 rings
6 13 15 16 18 19 22 rings
6 5 6 8 9 10 11 rings

> <PUBCHEM_HEAVY_ATOM_COUNT>
22

> <PUBCHEM_ATOM_DEF_STEREO_COUNT>
0

> <PUBCHEM_ATOM_UDEF_STEREO_COUNT>
0

> <PUBCHEM_BOND_DEF_STEREO_COUNT>
0

> <PUBCHEM_BOND_UDEF_STEREO_COUNT>
0

> <PUBCHEM_ISOTOPIC_ATOM_COUNT>
0

> <PUBCHEM_COMPONENT_COUNT>
1

> <PUBCHEM_CACTVS_TAUTO_COUNT>
1

> <PUBCHEM_CONFORMER_ID>
001503AF00000001

> <PUBCHEM_MMFF94_ENERGY>
62.2082

> <PUBCHEM_FEATURE_SELFOVERLAP>
45.766

> <PUBCHEM_SHAPE_FINGERPRINT>
10595046 47 18270960249325105454
10670039 82 18408879633559816129
10906281 52 17677065654433295172
11089746 13 18336259124402588736
12107183 9 17910116815415601530
12916748 109 18335706091201931171
13073987 5 18260266377700796218
13583140 156 17844812688162651518
14251764 38 18263930019137752596
14528608 73 18342738567826179734
14573314 32 18411703209711283646
14739800 52 18196067023668828856
15003188 33 18059299755694597242
15183329 4 18272091565370142510
15188451 53 8646766682188659617
15209294 21 18113896074222550569
15348495 7 10881396543278972462
15375358 24 18261959669263943738
1601671 61 16877659084980346158
17349148 13 13830138308005562542
17780758 139 10665218255465358447
17834072 33 18200875175142590630
17844677 252 18340775943401232638
17959699 21 18410293644399736120
18222031 100 13470689235270909538
200 152 17703516583739498562
20645477 70 18131359618087447550
20832881 197 18189621540868502114
21033648 29 18270392909909794232
21279426 13 18410014295389457100
221357 26 18201716310175103721
22289505 5 18343585153436260036
23402539 116 18342174479363527076
23402655 69 18411136957044133990
23536379 177 18272652359382006014
23559900 14 18201719518637233370
23569914 2 17552022538227763560
270888 7 18262796264542710557
2838139 119 18339640139595613648
3472631 163 18412260602430847661
34797466 226 17845945137804514828
351380 3 12319464306853740549
4073 2 18187651357670327282
4098825 35 18131638863823013911
441001 317 18409447028983366657
445580 125 18410019835612542673
495365 180 18200870803414321274
5104073 3 17748821921174521458
5283173 99 18341895203431372312
531348 171 18131634482444935919
543358 83 18409450246236099018
59682541 35 18114476604685371241
633830 44 18334571343456866742
7970288 3 9510589218202623037

> <PUBCHEM_SHAPE_MULTIPOLES>
422.07
14.7
2.43
1.09
1.33
0.68
-0.18
7.39
3.67
0.78
-0.19
0.17
-0.36
-0.03

> <PUBCHEM_SHAPE_SELFOVERLAP>
892.811

> <PUBCHEM_SHAPE_VOLUME>
237.9

> <PUBCHEM_COORDINATE_TYPE>
2
5
10

$$$$
