5753327
  -OEChem-01171811483D

 35 37  0     0  0  0  0  0  0999 V2000
    2.2647    3.9950   -0.1383 O   0  0  0  0  0  0  0  0  0  0  0  0
   -1.6999    1.5733   -1.6834 O   0  0  0  0  0  0  0  0  0  0  0  0
    3.4322   -3.9097    0.3318 O   0  5  0  0  0  0  0  0  0  0  0  0
    1.3173   -3.3084    0.4601 O   0  0  0  0  0  0  0  0  0  0  0  0
   -5.2170    1.2710    1.3565 O   0  5  0  0  0  0  0  0  0  0  0  0
   -3.3428    2.1306    0.6030 O   0  0  0  0  0  0  0  0  0  0  0  0
    0.2477    1.9719    0.1708 N   0  0  0  0  0  0  0  0  0  0  0  0
    3.8257    2.2648   -0.1415 N   0  0  0  0  0  0  0  0  0  0  0  0
   -0.6858    0.9660    0.2948 N   0  0  0  0  0  0  0  0  0  0  0  0
    2.5266   -3.0640    0.3447 N   0  3  0  0  0  0  0  0  0  0  0  0
   -4.1307    1.1656    0.7401 N   0  3  0  0  0  0  0  0  0  0  0  0
    2.2627    0.5698    0.1062 C   0  0  0  0  0  0  0  0  0  0  0  0
    1.5692    1.7072    0.0822 C   0  0  0  0  0  0  0  0  0  0  0  0
    3.6632    0.9871   -0.0376 C   0  0  0  0  0  0  0  0  0  0  0  0
    1.9042   -0.8115    0.2340 C   0  0  0  0  0  0  0  0  0  0  0  0
    2.5595    2.8109   -0.0769 C   0  0  0  0  0  0  0  0  0  0  0  0
    4.6975   -0.0722   -0.0463 C   0  0  0  0  0  0  0  0  0  0  0  0
    2.9066   -1.7004    0.2159 C   0  0  0  0  0  0  0  0  0  0  0  0
    4.3014   -1.3510    0.0774 C   0  0  0  0  0  0  0  0  0  0  0  0
   -2.5906   -0.2720   -0.5170 C   0  0  0  0  0  0  0  0  0  0  0  0
   -1.6422    0.8371   -0.6988 C   0  0  0  0  0  0  0  0  0  0  0  0
   -3.7798   -0.0931    0.1769 C   0  0  0  0  0  0  0  0  0  0  0  0
   -2.2615   -1.5067   -1.0615 C   0  0  0  0  0  0  0  0  0  0  0  0
   -4.6560   -1.1679    0.3292 C   0  0  0  0  0  0  0  0  0  0  0  0
   -3.1376   -2.5814   -0.9088 C   0  0  0  0  0  0  0  0  0  0  0  0
   -4.3347   -2.4121   -0.2135 C   0  0  0  0  0  0  0  0  0  0  0  0
    0.8579   -1.0646    0.3346 H   0  0  0  0  0  0  0  0  0  0  0  0
    5.7381    0.2073   -0.1511 H   0  0  0  0  0  0  0  0  0  0  0  0
   -0.0865    2.9279    0.1507 H   0  0  0  0  0  0  0  0  0  0  0  0
    5.0614   -2.1256    0.0708 H   0  0  0  0  0  0  0  0  0  0  0  0
   -0.6419    0.4055    1.1391 H   0  0  0  0  0  0  0  0  0  0  0  0
   -1.3309   -1.6497   -1.6043 H   0  0  0  0  0  0  0  0  0  0  0  0
   -5.5982   -1.0774    0.8637 H   0  0  0  0  0  0  0  0  0  0  0  0
   -2.8872   -3.5502   -1.3311 H   0  0  0  0  0  0  0  0  0  0  0  0
   -5.0163   -3.2494   -0.0949 H   0  0  0  0  0  0  0  0  0  0  0  0
  1 16  2  0  0  0  0
  2 21  2  0  0  0  0
  3 10  1  0  0  0  0
  4 10  2  0  0  0  0
  5 11  1  0  0  0  0
  6 11  2  0  0  0  0
  7  9  1  0  0  0  0
  7 13  1  0  0  0  0
  7 29  1  0  0  0  0
  8 14  2  0  0  0  0
  8 16  1  0  0  0  0
  9 21  1  0  0  0  0
  9 31  1  0  0  0  0
 10 18  1  0  0  0  0
 11 22  1  0  0  0  0
 12 13  2  0  0  0  0
 12 14  1  0  0  0  0
 12 15  1  0  0  0  0
 13 16  1  0  0  0  0
 14 17  1  0  0  0  0
 15 18  2  0  0  0  0
 15 27  1  0  0  0  0
 17 19  2  0  0  0  0
 17 28  1  0  0  0  0
 18 19  1  0  0  0  0
 19 30  1  0  0  0  0
 20 21  1  0  0  0  0
 20 22  1  0  0  0  0
 20 23  2  0  0  0  0
 22 24  2  0  0  0  0
 23 25  1  0  0  0  0
 23 32  1  0  0  0  0
 24 26  1  0  0  0  0
 24 33  1  0  0  0  0
 25 26  2  0  0  0  0
 25 34  1  0  0  0  0
 26 35  1  0  0  0  0
M  CHG  4   3  -1   5  -1  10   1  11   1
M  END
> <PUBCHEM_COMPOUND_CID>
5753327

> <PUBCHEM_CONFORMER_RMSD>
0.8

> <PUBCHEM_CONFORMER_DIVERSEORDER>
1
45
25
15
44
7
39
38
4
12
22
40
42
14
8
16
43
41
18
13
10
11
34
27
3
26
30
24
35
36
6
37
2
9
23
5
17
32
21
31
33
29
28
19
20

> <PUBCHEM_MMFF94_PARTIAL_CHARGES>
35
1 -0.57
10 0.84
11 0.91
12 0.01
13 0.11
14 0.42
15 -0.15
16 0.77
17 -0.14
18 0.2
19 -0.15
2 -0.57
20 0.09
21 0.54
22 0.13
23 -0.15
24 -0.15
25 -0.15
26 -0.15
27 0.15
28 0.15
29 0.4
3 -0.52
30 0.15
31 0.37
32 0.15
33 0.15
34 0.15
35 0.15
4 -0.52
5 -0.52
6 -0.52
7 -0.52
8 -0.66
9 -0.41

> <PUBCHEM_EFFECTIVE_ROTOR_COUNT>
6

> <PUBCHEM_PHARMACOPHORE_FEATURES>
15
1 1 acceptor
1 2 acceptor
1 3 acceptor
1 3 anion
1 4 acceptor
1 5 acceptor
1 5 anion
1 6 acceptor
1 7 donor
1 8 acceptor
1 8 donor
1 9 donor
5 8 12 13 14 16 rings
6 12 14 15 17 18 19 rings
6 20 22 23 24 25 26 rings

> <PUBCHEM_HEAVY_ATOM_COUNT>
26

> <PUBCHEM_ATOM_DEF_STEREO_COUNT>
0

> <PUBCHEM_ATOM_UDEF_STEREO_COUNT>
0

> <PUBCHEM_BOND_DEF_STEREO_COUNT>
0

> <PUBCHEM_BOND_UDEF_STEREO_COUNT>
0

> <PUBCHEM_ISOTOPIC_ATOM_COUNT>
0

> <PUBCHEM_COMPONENT_COUNT>
1

> <PUBCHEM_CACTVS_TAUTO_COUNT>
9

> <PUBCHEM_CONFORMER_ID>
0057C9EF00000001

> <PUBCHEM_MMFF94_ENERGY>
85.5501

> <PUBCHEM_FEATURE_SELFOVERLAP>
77.962

> <PUBCHEM_SHAPE_FINGERPRINT>
10616163 171 18342176704262354215
11552529 35 18200871885440020575
12107183 9 18125448514500463313
12553582 1 18194956353789623030
12596599 1 17916606287661525246
12633257 1 18339920407533591983
12788726 201 17345480280035059449
13167823 11 18342178929044578061
13533116 47 18343014536997740527
138480 1 18337950087281572442
14117953 113 17765713525217986727
14178342 30 18341596123489301640
14790565 3 18193001632701340324
15064986 96 17774173288221157287
15196674 1 18411981402989965150
15250474 111 18342170124425262711
16110190 28 18269832013315191442
16719943 64 15384152432930863002
17492 89 18411981377447794211
17818456 19 17916313740417563593
1813 80 17458067088301484021
19591789 44 18266455597673294926
20028762 73 18199462337393446646
21421861 104 18262799558328511200
21673915 165 18339077223669290127
221490 88 18408039619956443678
23559900 14 18411127061154842369
23598288 3 17846494876850107429
314173 41 18340211778325559518
3633792 109 18337658768888296141
3680242 22 18334571305297981874
3737641 26 18337114454128370582
4214541 1 18341896316091691361
463206 1 18335424530489638786
5104073 3 18342174509280729089
6287921 2 18261398900399229886
6823239 73 17845672356110955382
7097593 13 18412544288767030805
9709674 26 18262520406607327987

> <PUBCHEM_SHAPE_MULTIPOLES>
474.95
10.62
4.3
0.9
5.07
1.35
-0.13
1.52
1.41
-3.13
0.24
0.83
-0.12
-1.4

> <PUBCHEM_SHAPE_SELFOVERLAP>
1055.454

> <PUBCHEM_SHAPE_VOLUME>
252.7

> <PUBCHEM_COORDINATE_TYPE>
2
5
10

$$$$
