765611
  -OEChem-01171812083D

 37 38  0     0  0  0  0  0  0999 V2000
   -3.1551   -1.6605   -0.0876 S   0  0  0  0  0  0  0  0  0  0  0  0
    1.5211    0.5686   -0.4302 O   0  0  0  0  0  0  0  0  0  0  0  0
   -3.7008   -2.6035    0.8695 O   0  0  0  0  0  0  0  0  0  0  0  0
   -3.0758   -2.0034   -1.4944 O   0  0  0  0  0  0  0  0  0  0  0  0
    6.8846   -0.0237    0.6932 O   0  0  0  0  0  0  0  0  0  0  0  0
   -0.8235   -0.1763   -1.5342 O   0  0  0  0  0  0  0  0  0  0  0  0
   -1.6219   -1.1307    0.4544 N   0  0  0  0  0  0  0  0  0  0  0  0
   -4.0992   -0.1740    0.0637 C   0  0  0  0  0  0  0  0  0  0  0  0
   -4.1650    0.6974   -1.0100 C   0  0  0  0  0  0  0  0  0  0  0  0
   -4.7555    0.0919    1.2533 C   0  0  0  0  0  0  0  0  0  0  0  0
    0.6084   -0.1106    0.4057 C   0  0  0  0  0  0  0  0  0  0  0  0
   -0.6523   -0.4532   -0.3526 C   0  0  0  0  0  0  0  0  0  0  0  0
    2.8589    0.4206   -0.1498 C   0  0  0  0  0  0  0  0  0  0  0  0
   -4.9095    1.8708   -0.8903 C   0  0  0  0  0  0  0  0  0  0  0  0
   -5.5002    1.2653    1.3727 C   0  0  0  0  0  0  0  0  0  0  0  0
   -5.5772    2.1547    0.3009 C   0  0  0  0  0  0  0  0  0  0  0  0
    3.7851    0.4899   -1.1813 C   0  0  0  0  0  0  0  0  0  0  0  0
    3.2633    0.2040    1.1603 C   0  0  0  0  0  0  0  0  0  0  0  0
    5.5601    0.1214    0.4153 C   0  0  0  0  0  0  0  0  0  0  0  0
    5.1424    0.3394   -0.8973 C   0  0  0  0  0  0  0  0  0  0  0  0
    4.6207    0.0537    1.4442 C   0  0  0  0  0  0  0  0  0  0  0  0
    7.7914    0.0583   -0.4055 C   0  0  0  0  0  0  0  0  0  0  0  0
   -1.3751   -1.3515    1.4281 H   0  0  0  0  0  0  0  0  0  0  0  0
   -3.6495    0.4964   -1.9438 H   0  0  0  0  0  0  0  0  0  0  0  0
   -4.7016   -0.5829    2.1019 H   0  0  0  0  0  0  0  0  0  0  0  0
    1.0141   -1.0646    0.7672 H   0  0  0  0  0  0  0  0  0  0  0  0
    0.3376    0.5320    1.2508 H   0  0  0  0  0  0  0  0  0  0  0  0
   -4.9686    2.5641   -1.7243 H   0  0  0  0  0  0  0  0  0  0  0  0
   -6.0186    1.4877    2.3009 H   0  0  0  0  0  0  0  0  0  0  0  0
   -6.1564    3.0687    0.3943 H   0  0  0  0  0  0  0  0  0  0  0  0
    3.4617    0.6595   -2.2044 H   0  0  0  0  0  0  0  0  0  0  0  0
    2.5658    0.1715    1.9913 H   0  0  0  0  0  0  0  0  0  0  0  0
    5.8179    0.4031   -1.7435 H   0  0  0  0  0  0  0  0  0  0  0  0
    4.9413   -0.1100    2.4695 H   0  0  0  0  0  0  0  0  0  0  0  0
    7.7662    1.0475   -0.8750 H   0  0  0  0  0  0  0  0  0  0  0  0
    7.6229   -0.7482   -1.1272 H   0  0  0  0  0  0  0  0  0  0  0  0
    8.8003   -0.0788   -0.0029 H   0  0  0  0  0  0  0  0  0  0  0  0
  1  3  2  0  0  0  0
  1  4  2  0  0  0  0
  1  7  1  0  0  0  0
  1  8  1  0  0  0  0
  2 11  1  0  0  0  0
  2 13  1  0  0  0  0
  5 19  1  0  0  0  0
  5 22  1  0  0  0  0
  6 12  2  0  0  0  0
  7 12  1  0  0  0  0
  7 23  1  0  0  0  0
  8  9  2  0  0  0  0
  8 10  1  0  0  0  0
  9 14  1  0  0  0  0
  9 24  1  0  0  0  0
 10 15  2  0  0  0  0
 10 25  1  0  0  0  0
 11 12  1  0  0  0  0
 11 26  1  0  0  0  0
 11 27  1  0  0  0  0
 13 17  2  0  0  0  0
 13 18  1  0  0  0  0
 14 16  2  0  0  0  0
 14 28  1  0  0  0  0
 15 16  1  0  0  0  0
 15 29  1  0  0  0  0
 16 30  1  0  0  0  0
 17 20  1  0  0  0  0
 17 31  1  0  0  0  0
 18 21  2  0  0  0  0
 18 32  1  0  0  0  0
 19 20  2  0  0  0  0
 19 21  1  0  0  0  0
 20 33  1  0  0  0  0
 21 34  1  0  0  0  0
 22 35  1  0  0  0  0
 22 36  1  0  0  0  0
 22 37  1  0  0  0  0
M  END
> <PUBCHEM_COMPOUND_CID>
765611

> <PUBCHEM_CONFORMER_RMSD>
0.8

> <PUBCHEM_CONFORMER_DIVERSEORDER>
1
43
20
243
175
200
61
96
245
207
107
112
101
220
193
84
73
86
160
42
213
176
5
230
208
153
71
233
199
196
72
56
164
75
250
222
170
27
132
55
4
189
124
188
179
110
65
97
119
87
113
211
91
223
3
8
202
217
216
108
147
205
58
90
173
89
120
105
194
14
237
166
10
167
224
159
67
139
137
240
165
24
195
142
98
11
155
209
248
32
45
144
198
49
103
201
57
48
169
88
82
161
52
145
138
214
162
36
180
30
93
123
183
206
129
149
80
117
182
148
40
34
39
21
181
168
215
185
12
70
16
17
99
257
197
104
125
143
154
59
92
254
242
127
203
187
37
131
221
249
41
184
241
2
174
253
109
122
225
33
151
62
44
6
210
79
172
13
246
130
156
146
186
226
178
50
218
256
85
54
192
106
102
140
227
100
74
133
64
31
228
29
78
136
118
134
234
63
229
47
212
83
157
251
235
51
9
114
76
255
26
25
232
231
53
60
116
219
18
191
111
204
126
94
7
66
69
141
163
22
46
239
190
135
15
236
19
68
121
152
244
38
115
35
77
28
238
252
247
23
171
150
95
177
128
81
158

> <PUBCHEM_MMFF94_PARTIAL_CHARGES>
32
1 1.45
10 -0.15
11 0.34
12 0.75
13 0.08
14 -0.15
15 -0.15
16 -0.15
17 -0.15
18 -0.15
19 0.08
2 -0.36
20 -0.15
21 -0.15
22 0.28
23 0.42
24 0.15
25 0.15
28 0.15
29 0.15
3 -0.65
30 0.15
31 0.15
32 0.15
33 0.15
34 0.15
4 -0.65
5 -0.36
6 -0.57
7 -0.79
8 -0.01
9 -0.15

> <PUBCHEM_EFFECTIVE_ROTOR_COUNT>
7

> <PUBCHEM_PHARMACOPHORE_FEATURES>
8
1 2 acceptor
1 3 acceptor
1 4 acceptor
1 5 acceptor
1 6 acceptor
1 7 donor
6 13 17 18 19 20 21 rings
6 8 9 10 14 15 16 rings

> <PUBCHEM_HEAVY_ATOM_COUNT>
22

> <PUBCHEM_ATOM_DEF_STEREO_COUNT>
0

> <PUBCHEM_ATOM_UDEF_STEREO_COUNT>
0

> <PUBCHEM_BOND_DEF_STEREO_COUNT>
0

> <PUBCHEM_BOND_UDEF_STEREO_COUNT>
0

> <PUBCHEM_ISOTOPIC_ATOM_COUNT>
0

> <PUBCHEM_COMPONENT_COUNT>
1

> <PUBCHEM_CACTVS_TAUTO_COUNT>
2

> <PUBCHEM_CONFORMER_ID>
000BAEAB00000001

> <PUBCHEM_MMFF94_ENERGY>
52.2529

> <PUBCHEM_FEATURE_SELFOVERLAP>
40.625

> <PUBCHEM_SHAPE_FINGERPRINT>
10066227 112 18272087219233049904
10291535 26 17274829043389757513
105312 117 17918275342428745319
11089746 13 15913606168754402328
11315181 36 18342172310705599461
11545043 162 18130504244510127058
11796584 16 18272934930018898134
12091667 2 18113336427098992954
12166972 35 11314313837075007206
12236239 1 17967533480612164888
12596602 18 16660371376564705393
12616971 3 17458068187538519188
14123256 10 11024105443171788481
14251718 22 8286201656480229818
14251752 14 18409165485651189200
14251764 18 17967534588244144443
14849402 71 16733562631816009180
14856354 85 17749116620661802383
15021287 119 17022905665899181916
15183329 4 17603861222164233934
15537594 2 16877654669680203994
15716309 27 13406796618443231720
16079462 125 17346590881373615376
17093844 174 18130782386818841714
17349148 13 11383832709628241555
17780758 139 15647058149334451609
17844677 252 18270963577982632584
19489759 90 18131066060987632295
20281389 69 18408322194081123161
20511986 3 14189282730447010772
21033648 29 17417800768699090555
21150785 3 15410887462012743189
21267235 1 16153707592923076448
21315763 191 17968099754643627998
21521721 280 16732989765173184996
21623969 137 15140680259220749696
21756936 100 18412262818760221763
220451 1 17894346683879819954
23081809 10 18186799223305138230
23198884 109 16845570890707273453
23402539 116 18260263070944645654
23522609 53 17313970557600550564
23559900 14 17346596387537519562
2838139 119 17131830950026578193
32027 91 16844471340161328350
4015057 19 14333118732395031290
4169191 19 16128087979631812480
4325135 7 10881403140475079634
4938544 92 14996557340588805189
5104073 3 18114743853649105576
531348 171 14835854919674456517
5385378 56 18198915721063183451
542803 24 18114180847923990172
59755656 215 17988647346565701526
7226269 152 18341894069560201289
7495541 125 10737291255450867270

> <PUBCHEM_SHAPE_MULTIPOLES>
422.27
19.21
1.72
1.38
21.51
0.57
-0.01
-5.63
-2.31
-4.22
0.07
-0.31
-0.02
-0.31

> <PUBCHEM_SHAPE_SELFOVERLAP>
878.043

> <PUBCHEM_SHAPE_VOLUME>
239.8

> <PUBCHEM_COORDINATE_TYPE>
2
5
10

$$$$
