20888715
  -OEChem-01171812063D

 51 53  0     0  0  0  0  0  0999 V2000
   -6.4751   -3.7682    0.3543 Cl  0  0  0  0  0  0  0  0  0  0  0  0
   -0.7831   -1.1976   -0.2869 S   0  0  0  0  0  0  0  0  0  0  0  0
   -0.5872    3.0106   -0.1459 S   0  0  0  0  0  0  0  0  0  0  0  0
   -3.4912    3.4342    0.2534 S   0  0  0  0  0  0  0  0  0  0  0  0
    7.4693   -1.8989    0.2759 O   0  0  0  0  0  0  0  0  0  0  0  0
    0.0185   -1.5344    0.8806 O   0  0  0  0  0  0  0  0  0  0  0  0
   -0.3270   -1.5138   -1.6338 O   0  0  0  0  0  0  0  0  0  0  0  0
   -3.3009    4.1095    1.5371 O   0  0  0  0  0  0  0  0  0  0  0  0
   -3.6499    4.2232   -0.9690 O   0  0  0  0  0  0  0  0  0  0  0  0
    5.5203    0.1718    0.1553 N   0  0  0  0  0  0  0  0  0  0  0  0
    1.3773    1.1885   -0.4784 N   0  0  0  0  0  0  0  0  0  0  0  0
   -2.2425    1.0298   -0.0065 N   0  0  0  0  0  0  0  0  0  0  0  0
    4.1784    0.7033    0.3854 C   0  0  0  0  0  0  0  0  0  0  0  0
    6.1524   -0.2159    1.4240 C   0  0  0  0  0  0  0  0  0  0  0  0
    5.4762   -0.9790   -0.7575 C   0  0  0  0  0  0  0  0  0  0  0  0
    3.7698    1.6242   -0.7660 C   0  0  0  0  0  0  0  0  0  0  0  0
    7.5458   -0.7780    1.1574 C   0  0  0  0  0  0  0  0  0  0  0  0
    6.8853   -1.5242   -0.9723 C   0  0  0  0  0  0  0  0  0  0  0  0
    2.3792    2.2240   -0.5683 C   0  0  0  0  0  0  0  0  0  0  0  0
    0.0461    1.4236   -0.2928 C   0  0  0  0  0  0  0  0  0  0  0  0
   -0.9786    0.5057   -0.1951 C   0  0  0  0  0  0  0  0  0  0  0  0
   -2.1569    2.3409    0.0353 C   0  0  0  0  0  0  0  0  0  0  0  0
   -2.3856   -1.9221   -0.1064 C   0  0  0  0  0  0  0  0  0  0  0  0
   -3.1737   -2.1612   -1.2322 C   0  0  0  0  0  0  0  0  0  0  0  0
   -2.8620   -2.2540    1.1618 C   0  0  0  0  0  0  0  0  0  0  0  0
   -4.9254    2.3791    0.3977 C   0  0  0  0  0  0  0  0  0  0  0  0
   -4.4383   -2.7321   -1.0898 C   0  0  0  0  0  0  0  0  0  0  0  0
   -4.1267   -2.8249    1.3043 C   0  0  0  0  0  0  0  0  0  0  0  0
   -4.9148   -3.0640    0.1785 C   0  0  0  0  0  0  0  0  0  0  0  0
    4.1719    1.3156    1.2973 H   0  0  0  0  0  0  0  0  0  0  0  0
    3.4576   -0.1052    0.5544 H   0  0  0  0  0  0  0  0  0  0  0  0
    6.2453    0.6522    2.0867 H   0  0  0  0  0  0  0  0  0  0  0  0
    5.5433   -0.9725    1.9356 H   0  0  0  0  0  0  0  0  0  0  0  0
    4.8432   -1.7731   -0.3400 H   0  0  0  0  0  0  0  0  0  0  0  0
    5.0661   -0.6986   -1.7328 H   0  0  0  0  0  0  0  0  0  0  0  0
    4.4955    2.4417   -0.8620 H   0  0  0  0  0  0  0  0  0  0  0  0
    3.7772    1.0791   -1.7171 H   0  0  0  0  0  0  0  0  0  0  0  0
    8.2131   -0.0202    0.7290 H   0  0  0  0  0  0  0  0  0  0  0  0
    7.9944   -1.1222    2.0947 H   0  0  0  0  0  0  0  0  0  0  0  0
    6.8469   -2.4184   -1.6027 H   0  0  0  0  0  0  0  0  0  0  0  0
    7.5304   -0.7924   -1.4736 H   0  0  0  0  0  0  0  0  0  0  0  0
    2.3829    2.8330    0.3439 H   0  0  0  0  0  0  0  0  0  0  0  0
    2.1656    2.8850   -1.4168 H   0  0  0  0  0  0  0  0  0  0  0  0
    1.6912    0.2323   -0.6221 H   0  0  0  0  0  0  0  0  0  0  0  0
   -2.8257   -1.9034   -2.2284 H   0  0  0  0  0  0  0  0  0  0  0  0
   -2.2668   -2.0702    2.0517 H   0  0  0  0  0  0  0  0  0  0  0  0
   -5.0339    1.8019   -0.5225 H   0  0  0  0  0  0  0  0  0  0  0  0
   -4.7958    1.7218    1.2595 H   0  0  0  0  0  0  0  0  0  0  0  0
   -5.7993    3.0177    0.5434 H   0  0  0  0  0  0  0  0  0  0  0  0
   -5.0423   -2.9111   -1.9756 H   0  0  0  0  0  0  0  0  0  0  0  0
   -4.4858   -3.0769    2.2988 H   0  0  0  0  0  0  0  0  0  0  0  0
  1 29  1  0  0  0  0
  2  6  2  0  0  0  0
  2  7  2  0  0  0  0
  2 21  1  0  0  0  0
  2 23  1  0  0  0  0
  3 20  1  0  0  0  0
  3 22  1  0  0  0  0
  4  8  2  0  0  0  0
  4  9  2  0  0  0  0
  4 22  1  0  0  0  0
  4 26  1  0  0  0  0
  5 17  1  0  0  0  0
  5 18  1  0  0  0  0
 10 13  1  0  0  0  0
 10 14  1  0  0  0  0
 10 15  1  0  0  0  0
 11 19  1  0  0  0  0
 11 20  1  0  0  0  0
 11 44  1  0  0  0  0
 12 21  1  0  0  0  0
 12 22  2  0  0  0  0
 13 16  1  0  0  0  0
 13 30  1  0  0  0  0
 13 31  1  0  0  0  0
 14 17  1  0  0  0  0
 14 32  1  0  0  0  0
 14 33  1  0  0  0  0
 15 18  1  0  0  0  0
 15 34  1  0  0  0  0
 15 35  1  0  0  0  0
 16 19  1  0  0  0  0
 16 36  1  0  0  0  0
 16 37  1  0  0  0  0
 17 38  1  0  0  0  0
 17 39  1  0  0  0  0
 18 40  1  0  0  0  0
 18 41  1  0  0  0  0
 19 42  1  0  0  0  0
 19 43  1  0  0  0  0
 20 21  2  0  0  0  0
 23 24  2  0  0  0  0
 23 25  1  0  0  0  0
 24 27  1  0  0  0  0
 24 45  1  0  0  0  0
 25 28  2  0  0  0  0
 25 46  1  0  0  0  0
 26 47  1  0  0  0  0
 26 48  1  0  0  0  0
 26 49  1  0  0  0  0
 27 29  2  0  0  0  0
 27 50  1  0  0  0  0
 28 29  1  0  0  0  0
 28 51  1  0  0  0  0
M  END
> <PUBCHEM_COMPOUND_CID>
20888715

> <PUBCHEM_CONFORMER_RMSD>
1

> <PUBCHEM_CONFORMER_DIVERSEORDER>
2
140
123
62
74
136
72
126
95
105
134
56
127
117
115
87
142
110
141
57
133
138
1
135
42
128
10
55
28
46
124
120
7
89
98
116
122
37
61
81
41
50
47
17
84
34
118
97
82
83
13
137
30
44
43
76
33
131
103
77
70
129
73
52
106
36
49
139
24
108
113
132
6
38
92
35
119
23
143
26
109
29
20
18
68
60
39
101
86
71
54
104
19
111
21
79
65
144
11
16
40
94
107
66
48
32
93
67
58
130
102
100
69
5
59
88
78
53
63
90
9
85
31
75
80
64
146
121
4
96
22
51
112
8
125
99
91
3
25
145
45
12
114
14
15
27

> <PUBCHEM_MMFF94_PARTIAL_CHARGES>
33
1 -0.18
10 -0.81
11 -0.85
12 -0.57
13 0.27
14 0.27
15 0.27
17 0.28
18 0.28
19 0.37
2 1.37
20 0.12
21 0.16
22 0.32
23 -0.01
24 -0.15
25 -0.15
26 0.11
27 -0.15
28 -0.15
29 0.18
3 -0.08
4 1.26
44 0.4
45 0.15
46 0.15
5 -0.56
50 0.15
51 0.15
6 -0.65
7 -0.65
8 -0.65
9 -0.65

> <PUBCHEM_EFFECTIVE_ROTOR_COUNT>
9.2

> <PUBCHEM_PHARMACOPHORE_FEATURES>
12
1 10 cation
1 11 cation
1 11 donor
1 12 acceptor
1 5 acceptor
1 6 acceptor
1 7 acceptor
1 8 acceptor
1 9 acceptor
5 3 12 20 21 22 rings
6 23 24 25 27 28 29 rings
6 5 10 14 15 17 18 rings

> <PUBCHEM_HEAVY_ATOM_COUNT>
29

> <PUBCHEM_ATOM_DEF_STEREO_COUNT>
0

> <PUBCHEM_ATOM_UDEF_STEREO_COUNT>
0

> <PUBCHEM_BOND_DEF_STEREO_COUNT>
0

> <PUBCHEM_BOND_UDEF_STEREO_COUNT>
0

> <PUBCHEM_ISOTOPIC_ATOM_COUNT>
0

> <PUBCHEM_COMPONENT_COUNT>
1

> <PUBCHEM_CACTVS_TAUTO_COUNT>
1

> <PUBCHEM_CONFORMER_ID>
013EBC8B00000002

> <PUBCHEM_MMFF94_ENERGY>
39.5487

> <PUBCHEM_FEATURE_SELFOVERLAP>
60.932

> <PUBCHEM_SHAPE_FINGERPRINT>
10050765 1 18409450332151710932
10411042 1 18265895937986744475
11809386 21 18334008385308753538
11991303 11 18187645735368317677
12166972 35 17603864572086004598
12422481 6 17987538003172579559
12760667 363 18335979882218573874
12788726 201 18193287496648824012
12977781 61 17702401562515273974
13004483 165 18197779018996930821
13140716 1 18268439117193739009
13533116 47 18192430990508126494
13540713 5 18261408779325995740
14118638 360 18262523714682004252
14347332 77 18410294756711752870
14844126 61 18342734135266851795
14866123 147 18408606946338972219
15042514 8 18410577296941092693
15131766 46 16083941495990191748
15439362 3 17908701726607468405
15537594 2 17677332694024833024
15629462 23 18188779469743875323
15927050 60 18193274096635749075
17492 89 18337674221743166580
19301679 30 18339369672446249799
21279426 13 18115295800017575247
21478907 32 18338238296730171021
21639891 77 18201718466054099321
21703447 108 18266168625444946480
23536364 44 18189319299618848935
3383291 50 18340486677454061025
3504750 166 18272650186097458167
4073 2 18342173324929713514
44062 13 18410577258512902508
44880168 125 17898282798310936458
5104073 3 18341893022163252640
513202 73 18410298051062627099
5969126 39 18342731944981737471
59755656 520 18264485100943163949
79837 15 18197508337320962657

> <PUBCHEM_SHAPE_MULTIPOLES>
565.94
17.74
5.61
1.24
33.48
3.79
0.08
-15.3
3.22
-11.67
0.4
0.19
-0.35
-0.36

> <PUBCHEM_SHAPE_SELFOVERLAP>
1135.375

> <PUBCHEM_SHAPE_VOLUME>
335

> <PUBCHEM_COORDINATE_TYPE>
2
5
10

$$$$
