2253328
  -OEChem-01171811393D

 47 48  0     0  0  0  0  0  0999 V2000
   -2.6281   -3.3414   -0.0395 O   0  0  0  0  0  0  0  0  0  0  0  0
   -4.4487   -1.2481    0.0680 O   0  0  0  0  0  0  0  0  0  0  0  0
   -0.9682    4.7851    0.1429 O   0  0  0  0  0  0  0  0  0  0  0  0
    1.9923   -1.2043   -0.1055 N   0  0  0  0  0  0  0  0  0  0  0  0
    1.0148    3.5132    0.0516 N   0  0  0  0  0  0  0  0  0  0  0  0
   -0.3536   -0.4611   -0.0209 C   0  0  0  0  0  0  0  0  0  0  0  0
    1.0210   -0.1747   -0.0504 C   0  0  0  0  0  0  0  0  0  0  0  0
    3.3941   -0.9401   -0.1364 C   0  0  0  0  0  0  0  0  0  0  0  0
   -1.2819    0.6057    0.0331 C   0  0  0  0  0  0  0  0  0  0  0  0
    4.1905   -2.2422   -0.1308 C   0  0  0  0  0  0  0  0  0  0  0  0
    1.4737    1.1447   -0.0262 C   0  0  0  0  0  0  0  0  0  0  0  0
    0.5610    2.1939    0.0273 C   0  0  0  0  0  0  0  0  0  0  0  0
    5.7033   -2.0086   -0.1162 C   0  0  0  0  0  0  0  0  0  0  0  0
   -0.8082    1.9276    0.0565 C   0  0  0  0  0  0  0  0  0  0  0  0
   -0.8273   -1.7830   -0.0447 C   0  0  0  0  0  0  0  0  0  0  0  0
   -2.6565    0.3194    0.0620 C   0  0  0  0  0  0  0  0  0  0  0  0
   -2.1965   -2.0492   -0.0151 C   0  0  0  0  0  0  0  0  0  0  0  0
   -3.1094   -1.0000    0.0379 C   0  0  0  0  0  0  0  0  0  0  0  0
    6.4673   -3.3217   -0.0444 C   0  0  0  0  0  0  0  0  0  0  0  0
    0.2541    4.6887    0.1044 C   0  0  0  0  0  0  0  0  0  0  0  0
   -2.7997   -3.9909    1.2185 C   0  0  0  0  0  0  0  0  0  0  0  0
   -5.1205   -1.3320   -1.1872 C   0  0  0  0  0  0  0  0  0  0  0  0
    1.1264    5.9190    0.1151 C   0  0  0  0  0  0  0  0  0  0  0  0
    3.6945   -0.3569    0.7429 H   0  0  0  0  0  0  0  0  0  0  0  0
    3.6600   -0.3722   -1.0364 H   0  0  0  0  0  0  0  0  0  0  0  0
    3.9213   -2.8411   -1.0103 H   0  0  0  0  0  0  0  0  0  0  0  0
    3.9068   -2.8365    0.7477 H   0  0  0  0  0  0  0  0  0  0  0  0
    1.6883   -2.1669   -0.1485 H   0  0  0  0  0  0  0  0  0  0  0  0
    2.5304    1.3951   -0.0509 H   0  0  0  0  0  0  0  0  0  0  0  0
    5.9756   -1.3883    0.7455 H   0  0  0  0  0  0  0  0  0  0  0  0
    6.0028   -1.4623   -1.0180 H   0  0  0  0  0  0  0  0  0  0  0  0
   -1.5595    2.7052    0.0975 H   0  0  0  0  0  0  0  0  0  0  0  0
   -0.1629   -2.6407   -0.0865 H   0  0  0  0  0  0  0  0  0  0  0  0
   -3.3838    1.1283    0.1047 H   0  0  0  0  0  0  0  0  0  0  0  0
    6.2136   -3.8743    0.8660 H   0  0  0  0  0  0  0  0  0  0  0  0
    7.5453   -3.1328   -0.0376 H   0  0  0  0  0  0  0  0  0  0  0  0
    6.2386   -3.9559   -0.9069 H   0  0  0  0  0  0  0  0  0  0  0  0
    2.0262    3.6260    0.0274 H   0  0  0  0  0  0  0  0  0  0  0  0
   -1.8478   -4.0425    1.7564 H   0  0  0  0  0  0  0  0  0  0  0  0
   -3.5459   -3.4671    1.8242 H   0  0  0  0  0  0  0  0  0  0  0  0
   -3.1524   -5.0091    1.0331 H   0  0  0  0  0  0  0  0  0  0  0  0
   -5.0419   -0.3838   -1.7283 H   0  0  0  0  0  0  0  0  0  0  0  0
   -6.1771   -1.5397   -0.9970 H   0  0  0  0  0  0  0  0  0  0  0  0
   -4.7073   -2.1455   -1.7920 H   0  0  0  0  0  0  0  0  0  0  0  0
    1.7612    5.9138    1.0056 H   0  0  0  0  0  0  0  0  0  0  0  0
    0.5016    6.8164    0.1287 H   0  0  0  0  0  0  0  0  0  0  0  0
    1.7533    5.9374   -0.7810 H   0  0  0  0  0  0  0  0  0  0  0  0
  1 17  1  0  0  0  0
  1 21  1  0  0  0  0
  2 18  1  0  0  0  0
  2 22  1  0  0  0  0
  3 20  2  0  0  0  0
  4  7  1  0  0  0  0
  4  8  1  0  0  0  0
  4 28  1  0  0  0  0
  5 12  1  0  0  0  0
  5 20  1  0  0  0  0
  5 38  1  0  0  0  0
  6  7  2  0  0  0  0
  6  9  1  0  0  0  0
  6 15  1  0  0  0  0
  7 11  1  0  0  0  0
  8 10  1  0  0  0  0
  8 24  1  0  0  0  0
  8 25  1  0  0  0  0
  9 14  2  0  0  0  0
  9 16  1  0  0  0  0
 10 13  1  0  0  0  0
 10 26  1  0  0  0  0
 10 27  1  0  0  0  0
 11 12  2  0  0  0  0
 11 29  1  0  0  0  0
 12 14  1  0  0  0  0
 13 19  1  0  0  0  0
 13 30  1  0  0  0  0
 13 31  1  0  0  0  0
 14 32  1  0  0  0  0
 15 17  2  0  0  0  0
 15 33  1  0  0  0  0
 16 18  2  0  0  0  0
 16 34  1  0  0  0  0
 17 18  1  0  0  0  0
 19 35  1  0  0  0  0
 19 36  1  0  0  0  0
 19 37  1  0  0  0  0
 20 23  1  0  0  0  0
 21 39  1  0  0  0  0
 21 40  1  0  0  0  0
 21 41  1  0  0  0  0
 22 42  1  0  0  0  0
 22 43  1  0  0  0  0
 22 44  1  0  0  0  0
 23 45  1  0  0  0  0
 23 46  1  0  0  0  0
 23 47  1  0  0  0  0
M  END
> <PUBCHEM_COMPOUND_CID>
2253328

> <PUBCHEM_CONFORMER_RMSD>
0.8

> <PUBCHEM_CONFORMER_DIVERSEORDER>
2
4
27
25
17
1
28
22
6
8
32
15
29
23
11
12
20
31
14
5
18
10
9
30
16
3
13
26
24
7
19
21

> <PUBCHEM_MMFF94_PARTIAL_CHARGES>
24
1 -0.36
11 -0.15
12 0.12
14 -0.15
15 -0.15
16 -0.15
17 0.08
18 0.08
2 -0.36
20 0.57
21 0.28
22 0.28
23 0.06
28 0.4
29 0.15
3 -0.57
32 0.15
33 0.15
34 0.15
38 0.37
4 -0.87
5 -0.55
7 0.1
8 0.37

> <PUBCHEM_EFFECTIVE_ROTOR_COUNT>
8

> <PUBCHEM_PHARMACOPHORE_FEATURES>
9
1 1 acceptor
1 19 hydrophobe
1 2 acceptor
1 3 acceptor
1 4 cation
1 4 donor
1 5 donor
6 6 7 9 11 12 14 rings
6 6 9 15 16 17 18 rings

> <PUBCHEM_HEAVY_ATOM_COUNT>
23

> <PUBCHEM_ATOM_DEF_STEREO_COUNT>
0

> <PUBCHEM_ATOM_UDEF_STEREO_COUNT>
0

> <PUBCHEM_BOND_DEF_STEREO_COUNT>
0

> <PUBCHEM_BOND_UDEF_STEREO_COUNT>
0

> <PUBCHEM_ISOTOPIC_ATOM_COUNT>
0

> <PUBCHEM_COMPONENT_COUNT>
1

> <PUBCHEM_CACTVS_TAUTO_COUNT>
2

> <PUBCHEM_CONFORMER_ID>
0022621000000002

> <PUBCHEM_MMFF94_ENERGY>
92.7924

> <PUBCHEM_FEATURE_SELFOVERLAP>
45.7

> <PUBCHEM_SHAPE_FINGERPRINT>
10319926 262 17980460289071787338
10411042 1 18411418397281434623
1100329 8 18338804416469846041
11056379 131 18123198905320623742
12788726 201 18189331265124013634
12839892 36 17403442469769332370
13140716 1 18409739451942815978
13540713 4 17826508057887333083
13590594 115 18410582751749954177
138480 1 14952092720424799060
14508225 48 18341038645197569357
14790565 3 17042045659493906826
14866123 147 18051695447161171082
15042514 8 18266465317089359650
16087824 20 18051130290677026893
17492 89 18123187072338375335
17539 30 18196927773627116900
19591789 44 17187293361610417453
20101258 96 18338529538609959280
20286276 3 18121221145700548363
20600515 1 18272385143285053414
21426921 1 18122907530349038158
221490 88 18119815969360014411
23366157 5 17972313190116245645
23402539 116 18271238314108559983
23559900 14 18266452281848045427
23929065 36 18123167032341608722
255183 313 17839760170187457313
266924 87 17834948681634381391
283562 15 17907293252307284745
3091708 16 9137491932631329336
335352 9 18410573964478871119
4409770 3 18047187453940940981
474229 33 16752122641120897363
7364860 26 18123470737278115997
77188 2 18411418423262416940
9709674 26 18193271030229858519
9981440 41 17257083199994284953

> <PUBCHEM_SHAPE_MULTIPOLES>
445.76
9.4
7.54
0.74
14.93
13.37
0
-15.41
-1.45
-0.83
1.22
-0.47
-0.39
0.29

> <PUBCHEM_SHAPE_SELFOVERLAP>
930.22

> <PUBCHEM_SHAPE_VOLUME>
255.3

> <PUBCHEM_COORDINATE_TYPE>
2
5
10

$$$$
