937638
  -OEChem-01171811453D

 35 37  0     0  0  0  0  0  0999 V2000
   -0.7156    1.7241   -0.3674 O   0  0  0  0  0  0  0  0  0  0  0  0
    1.2494   -2.6122   -0.2663 O   0  0  0  0  0  0  0  0  0  0  0  0
    1.7689    2.6934    0.0715 O   0  0  0  0  0  0  0  0  0  0  0  0
   -6.1468    0.3864    0.8976 O   0  0  0  0  0  0  0  0  0  0  0  0
   -0.9988   -1.1391   -0.5506 N   0  0  0  0  0  0  0  0  0  0  0  0
    2.6898   -0.7868    0.0473 C   0  0  0  0  0  0  0  0  0  0  0  0
    2.8312    0.5968    0.1366 C   0  0  0  0  0  0  0  0  0  0  0  0
    0.1860   -0.4909   -0.3324 C   0  0  0  0  0  0  0  0  0  0  0  0
    1.3661   -1.3933   -0.1898 C   0  0  0  0  0  0  0  0  0  0  0  0
    0.3395    0.8388   -0.2439 C   0  0  0  0  0  0  0  0  0  0  0  0
    1.6586    1.4751   -0.0052 C   0  0  0  0  0  0  0  0  0  0  0  0
    3.8133   -1.6118    0.1839 C   0  0  0  0  0  0  0  0  0  0  0  0
    4.0934    1.1594    0.3622 C   0  0  0  0  0  0  0  0  0  0  0  0
   -2.2554   -0.7668   -0.1967 C   0  0  0  0  0  0  0  0  0  0  0  0
    5.0701   -1.0490    0.4086 C   0  0  0  0  0  0  0  0  0  0  0  0
    5.2099    0.3343    0.4976 C   0  0  0  0  0  0  0  0  0  0  0  0
   -3.3925   -1.1419   -0.9635 C   0  0  0  0  0  0  0  0  0  0  0  0
   -2.5072    0.0201    0.9608 C   0  0  0  0  0  0  0  0  0  0  0  0
   -4.6839   -0.7591   -0.6005 C   0  0  0  0  0  0  0  0  0  0  0  0
   -3.7986    0.4027    1.3238 C   0  0  0  0  0  0  0  0  0  0  0  0
   -4.8868    0.0132    0.5432 C   0  0  0  0  0  0  0  0  0  0  0  0
   -0.8906    2.1066   -1.7166 C   0  0  0  0  0  0  0  0  0  0  0  0
   -0.9153   -2.0371   -1.0163 H   0  0  0  0  0  0  0  0  0  0  0  0
    3.7314   -2.6935    0.1186 H   0  0  0  0  0  0  0  0  0  0  0  0
    4.2274    2.2353    0.4354 H   0  0  0  0  0  0  0  0  0  0  0  0
    5.9404   -1.6903    0.5142 H   0  0  0  0  0  0  0  0  0  0  0  0
    6.1890    0.7707    0.6725 H   0  0  0  0  0  0  0  0  0  0  0  0
   -3.2561   -1.7436   -1.8605 H   0  0  0  0  0  0  0  0  0  0  0  0
   -1.6935    0.3090    1.6232 H   0  0  0  0  0  0  0  0  0  0  0  0
   -5.5233   -1.0688   -1.2172 H   0  0  0  0  0  0  0  0  0  0  0  0
   -3.9516    0.9963    2.2209 H   0  0  0  0  0  0  0  0  0  0  0  0
   -1.1098    1.2465   -2.3587 H   0  0  0  0  0  0  0  0  0  0  0  0
   -0.0134    2.6409   -2.0977 H   0  0  0  0  0  0  0  0  0  0  0  0
   -1.7454    2.7878   -1.7681 H   0  0  0  0  0  0  0  0  0  0  0  0
   -6.7757    0.0304    0.2466 H   0  0  0  0  0  0  0  0  0  0  0  0
  1 10  1  0  0  0  0
  1 22  1  0  0  0  0
  2  9  2  0  0  0  0
  3 11  2  0  0  0  0
  4 21  1  0  0  0  0
  4 35  1  0  0  0  0
  5  8  1  0  0  0  0
  5 14  1  0  0  0  0
  5 23  1  0  0  0  0
  6  7  1  0  0  0  0
  6  9  1  0  0  0  0
  6 12  2  0  0  0  0
  7 11  1  0  0  0  0
  7 13  2  0  0  0  0
  8  9  1  0  0  0  0
  8 10  2  0  0  0  0
 10 11  1  0  0  0  0
 12 15  1  0  0  0  0
 12 24  1  0  0  0  0
 13 16  1  0  0  0  0
 13 25  1  0  0  0  0
 14 17  2  0  0  0  0
 14 18  1  0  0  0  0
 15 16  2  0  0  0  0
 15 26  1  0  0  0  0
 16 27  1  0  0  0  0
 17 19  1  0  0  0  0
 17 28  1  0  0  0  0
 18 20  2  0  0  0  0
 18 29  1  0  0  0  0
 19 21  2  0  0  0  0
 19 30  1  0  0  0  0
 20 21  1  0  0  0  0
 20 31  1  0  0  0  0
 22 32  1  0  0  0  0
 22 33  1  0  0  0  0
 22 34  1  0  0  0  0
M  END
> <PUBCHEM_COMPOUND_CID>
937638

> <PUBCHEM_CONFORMER_RMSD>
0.6

> <PUBCHEM_CONFORMER_DIVERSEORDER>
2
6
12
3
5
1
7
9
4
11
8
10

> <PUBCHEM_MMFF94_PARTIAL_CHARGES>
32
1 -0.36
10 0.09
11 0.47
12 -0.15
13 -0.15
14 0.1
15 -0.15
16 -0.15
17 -0.15
18 -0.15
19 -0.15
2 -0.57
20 -0.15
21 0.08
22 0.28
23 0.4
24 0.15
25 0.15
26 0.15
27 0.15
28 0.15
29 0.15
3 -0.57
30 0.15
31 0.15
35 0.45
4 -0.53
5 -0.6
6 0.09
7 0.09
8 0.11
9 0.47

> <PUBCHEM_EFFECTIVE_ROTOR_COUNT>
3

> <PUBCHEM_PHARMACOPHORE_FEATURES>
9
1 1 acceptor
1 2 acceptor
1 3 acceptor
1 4 donor
1 5 cation
1 5 donor
6 14 17 18 19 20 21 rings
6 6 7 12 13 15 16 rings
6 6 7 8 9 10 11 rings

> <PUBCHEM_HEAVY_ATOM_COUNT>
22

> <PUBCHEM_ATOM_DEF_STEREO_COUNT>
0

> <PUBCHEM_ATOM_UDEF_STEREO_COUNT>
0

> <PUBCHEM_BOND_DEF_STEREO_COUNT>
0

> <PUBCHEM_BOND_UDEF_STEREO_COUNT>
0

> <PUBCHEM_ISOTOPIC_ATOM_COUNT>
0

> <PUBCHEM_COMPONENT_COUNT>
1

> <PUBCHEM_CACTVS_TAUTO_COUNT>
6

> <PUBCHEM_CONFORMER_ID>
000E4EA600000002

> <PUBCHEM_MMFF94_ENERGY>
83.563

> <PUBCHEM_FEATURE_SELFOVERLAP>
45.699

> <PUBCHEM_SHAPE_FINGERPRINT>
10688039 33 17894911802053553013
10906281 52 18336282201024564670
11089746 13 17561357383868056857
12107183 9 17482283608264400707
12236239 1 18060699507206437407
12251169 10 18342741818773375257
12596602 18 17274818094964400730
12633257 1 18412262847907309459
13140716 1 18264489662166445722
13862211 1 18409721859814910566
14341114 176 18342183262577032635
14341114 328 17632583746751253185
14386348 63 17530966890881562139
14739800 52 17202194321358716264
14790565 3 18120941869726124380
15196674 1 18411133611085125956
15209294 21 17917714582338861027
15475509 8 17987261996380255612
15527383 91 18407762538536208445
15848702 151 18060142007387322966
1601671 61 18342176674244653086
17357779 13 18114727292112579749
17980427 23 17561365106462237789
1813 80 17749398043829445548
19141452 34 18341610447078600487
200 152 18202274823490520759
20028762 73 18202557397747667094
20511986 3 18060123337538559099
20739085 24 18261117421233599084
21033648 29 17604693556513488805
21267235 1 18337393747747036850
21421861 104 17897156927561770618
21641784 216 17895491228203103468
22182313 1 18266172829979844526
23175994 123 17385728006438710525
23184049 59 18410295834637813183
23402539 116 18333726923201211295
23559900 14 17561079245563834392
26918003 58 17603868905327846939
2748010 2 18338502042450837252
335352 9 18412262835149157918
345986 75 18268136575006030346
34797466 226 15913050983643013616
350125 39 18410291419939408268
3633792 109 18129657492704375757
465052 167 18113624499261671058
474 4 18339924912932933131
5104073 3 18341045327992680458
67856867 119 18059007423114643081
7495541 125 15864080904732010223

> <PUBCHEM_SHAPE_MULTIPOLES>
424.29
11.24
2.13
1.03
4.75
0.45
0.08
-1.5
-3.31
-1.38
0.51
0.97
0.26
-0.26

> <PUBCHEM_SHAPE_SELFOVERLAP>
940.117

> <PUBCHEM_SHAPE_VOLUME>
225.2

> <PUBCHEM_COORDINATE_TYPE>
2
5
10

$$$$
