4139356
  -OEChem-01171811583D

 64 68  0     1  0  0  0  0  0999 V2000
   -1.6037   -4.3779   -0.9581 Cl  0  0  0  0  0  0  0  0  0  0  0  0
    0.5807    0.9896    0.0473 O   0  0  0  0  0  0  0  0  0  0  0  0
   -1.5362   -0.3570    1.2100 O   0  0  0  0  0  0  0  0  0  0  0  0
    0.9313   -2.2532    3.8993 O   0  0  0  0  0  0  0  0  0  0  0  0
    3.4689   -0.3861   -1.2845 N   0  0  1  0  0  0  0  0  0  0  0  0
   -2.8349    0.3786   -1.9173 N   0  0  1  0  0  0  0  0  0  0  0  0
    2.8353    0.6869   -0.6410 N   0  0  0  0  0  0  0  0  0  0  0  0
   -2.8556    0.5815   -0.5298 N   0  0  0  0  0  0  0  0  0  0  0  0
    0.0289   -1.7654   -0.8599 C   0  0  0  0  0  0  0  0  0  0  0  0
    1.3246   -1.0529   -0.9355 C   0  0  0  0  0  0  0  0  0  0  0  0
   -1.1283   -0.8693   -1.0840 C   0  0  0  0  0  0  0  0  0  0  0  0
    2.5357   -1.4168   -1.3874 C   0  0  0  0  0  0  0  0  0  0  0  0
   -1.7518   -0.4532   -2.1982 C   0  0  0  0  0  0  0  0  0  0  0  0
   -0.1308   -2.5554    0.4344 C   0  0  0  0  0  0  0  0  0  0  0  0
    1.4897    0.3541   -0.4630 C   0  0  0  0  0  0  0  0  0  0  0  0
   -1.8640   -0.2203    0.0420 C   0  0  0  0  0  0  0  0  0  0  0  0
    2.9130   -2.7295   -1.9885 C   0  0  0  0  0  0  0  0  0  0  0  0
   -1.4219   -0.8264   -3.6049 C   0  0  0  0  0  0  0  0  0  0  0  0
    0.4714   -2.0430    1.5664 C   0  0  0  0  0  0  0  0  0  0  0  0
   -0.8505   -3.7318    0.4541 C   0  0  0  0  0  0  0  0  0  0  0  0
    3.5382    1.7414   -0.0064 C   0  0  0  0  0  0  0  0  0  0  0  0
   -3.5376    1.6573    0.0915 C   0  0  0  0  0  0  0  0  0  0  0  0
    4.3850   -0.0940   -2.3831 C   0  0  0  0  0  0  0  0  0  0  0  0
   -4.1069    0.2113   -2.6138 C   0  0  0  0  0  0  0  0  0  0  0  0
    0.3475   -2.7380    2.7693 C   0  0  0  0  0  0  0  0  0  0  0  0
   -0.9746   -4.4268    1.6570 C   0  0  0  0  0  0  0  0  0  0  0  0
    2.8659    2.9073    0.3734 C   0  0  0  0  0  0  0  0  0  0  0  0
   -3.7493    1.6526    1.4737 C   0  0  0  0  0  0  0  0  0  0  0  0
    4.9088    1.6241    0.2438 C   0  0  0  0  0  0  0  0  0  0  0  0
   -4.0044    2.7311   -0.6731 C   0  0  0  0  0  0  0  0  0  0  0  0
   -0.3757   -3.9300    2.8145 C   0  0  0  0  0  0  0  0  0  0  0  0
    3.5575    3.9454    0.9975 C   0  0  0  0  0  0  0  0  0  0  0  0
   -4.4210    2.7111    2.0853 C   0  0  0  0  0  0  0  0  0  0  0  0
    5.6005    2.6623    0.8679 C   0  0  0  0  0  0  0  0  0  0  0  0
   -4.6762    3.7896   -0.0613 C   0  0  0  0  0  0  0  0  0  0  0  0
    4.9249    3.8230    1.2447 C   0  0  0  0  0  0  0  0  0  0  0  0
   -4.8844    3.7796    1.3178 C   0  0  0  0  0  0  0  0  0  0  0  0
    0.0546   -2.4826   -1.6890 H   0  0  0  0  0  0  0  0  0  0  0  0
    3.1219   -2.6201   -3.0573 H   0  0  0  0  0  0  0  0  0  0  0  0
    2.1230   -3.4781   -1.8770 H   0  0  0  0  0  0  0  0  0  0  0  0
    3.8080   -3.1273   -1.4988 H   0  0  0  0  0  0  0  0  0  0  0  0
   -0.4805   -1.3794   -3.6753 H   0  0  0  0  0  0  0  0  0  0  0  0
   -1.3183    0.0726   -4.2214 H   0  0  0  0  0  0  0  0  0  0  0  0
   -2.2098   -1.4531   -4.0342 H   0  0  0  0  0  0  0  0  0  0  0  0
    1.0384   -1.1210    1.5827 H   0  0  0  0  0  0  0  0  0  0  0  0
    5.1068   -0.9096   -2.4973 H   0  0  0  0  0  0  0  0  0  0  0  0
    4.9539    0.8288   -2.2461 H   0  0  0  0  0  0  0  0  0  0  0  0
    3.8309    0.0096   -3.3234 H   0  0  0  0  0  0  0  0  0  0  0  0
   -3.9989    0.4935   -3.6665 H   0  0  0  0  0  0  0  0  0  0  0  0
   -4.9180    0.8126   -2.1961 H   0  0  0  0  0  0  0  0  0  0  0  0
   -4.4304   -0.8352   -2.5693 H   0  0  0  0  0  0  0  0  0  0  0  0
   -1.5346   -5.3571    1.7091 H   0  0  0  0  0  0  0  0  0  0  0  0
    1.8094    3.0531    0.1734 H   0  0  0  0  0  0  0  0  0  0  0  0
   -3.4299    0.8272    2.1017 H   0  0  0  0  0  0  0  0  0  0  0  0
    5.4645    0.7228    0.0010 H   0  0  0  0  0  0  0  0  0  0  0  0
   -3.8299    2.7961   -1.7432 H   0  0  0  0  0  0  0  0  0  0  0  0
   -0.4759   -4.4757    3.7488 H   0  0  0  0  0  0  0  0  0  0  0  0
    3.0332    4.8518    1.2856 H   0  0  0  0  0  0  0  0  0  0  0  0
   -4.5888    2.7009    3.1584 H   0  0  0  0  0  0  0  0  0  0  0  0
    6.6635    2.5641    1.0682 H   0  0  0  0  0  0  0  0  0  0  0  0
   -5.0298    4.6258   -0.6574 H   0  0  0  0  0  0  0  0  0  0  0  0
    5.4633    4.6312    1.7311 H   0  0  0  0  0  0  0  0  0  0  0  0
   -5.4069    4.6040    1.7941 H   0  0  0  0  0  0  0  0  0  0  0  0
    1.3904   -1.4221    3.6884 H   0  0  0  0  0  0  0  0  0  0  0  0
  1 20  1  0  0  0  0
  2 15  2  0  0  0  0
  3 16  2  0  0  0  0
  4 25  1  0  0  0  0
  4 64  1  0  0  0  0
  5  7  1  0  0  0  0
  5 12  1  0  0  0  0
  5 23  1  0  0  0  0
  6  8  1  0  0  0  0
  6 13  1  0  0  0  0
  6 24  1  0  0  0  0
  7 15  1  0  0  0  0
  7 21  1  0  0  0  0
  8 16  1  0  0  0  0
  8 22  1  0  0  0  0
  9 10  1  0  0  0  0
  9 11  1  0  0  0  0
  9 14  1  0  0  0  0
  9 38  1  0  0  0  0
 10 12  2  0  0  0  0
 10 15  1  0  0  0  0
 11 13  2  0  0  0  0
 11 16  1  0  0  0  0
 12 17  1  0  0  0  0
 13 18  1  0  0  0  0
 14 19  1  0  0  0  0
 14 20  2  0  0  0  0
 17 39  1  0  0  0  0
 17 40  1  0  0  0  0
 17 41  1  0  0  0  0
 18 42  1  0  0  0  0
 18 43  1  0  0  0  0
 18 44  1  0  0  0  0
 19 25  2  0  0  0  0
 19 45  1  0  0  0  0
 20 26  1  0  0  0  0
 21 27  2  0  0  0  0
 21 29  1  0  0  0  0
 22 28  2  0  0  0  0
 22 30  1  0  0  0  0
 23 46  1  0  0  0  0
 23 47  1  0  0  0  0
 23 48  1  0  0  0  0
 24 49  1  0  0  0  0
 24 50  1  0  0  0  0
 24 51  1  0  0  0  0
 25 31  1  0  0  0  0
 26 31  2  0  0  0  0
 26 52  1  0  0  0  0
 27 32  1  0  0  0  0
 27 53  1  0  0  0  0
 28 33  1  0  0  0  0
 28 54  1  0  0  0  0
 29 34  2  0  0  0  0
 29 55  1  0  0  0  0
 30 35  2  0  0  0  0
 30 56  1  0  0  0  0
 31 57  1  0  0  0  0
 32 36  2  0  0  0  0
 32 58  1  0  0  0  0
 33 37  2  0  0  0  0
 33 59  1  0  0  0  0
 34 36  1  0  0  0  0
 34 60  1  0  0  0  0
 35 37  1  0  0  0  0
 35 61  1  0  0  0  0
 36 62  1  0  0  0  0
 37 63  1  0  0  0  0
M  END
> <PUBCHEM_COMPOUND_CID>
4139356

> <PUBCHEM_CONFORMER_RMSD>
0.8

> <PUBCHEM_CONFORMER_DIVERSEORDER>
2
64
17
50
26
35
33
68
72
69
54
59
49
28
41
42
31
39
21
40
51
22
25
43
9
1
47
73
63
6
67
74
7
60
23
61
44
45
71
10
62
14
46
27
37
53
52
55
15
24
18
8
13
57
48
70
5
36
58
29
34
66
20
56
32
30
3
4
19
65
11
16
12
38

> <PUBCHEM_MMFF94_PARTIAL_CHARGES>
51
1 -0.18
10 -0.12
11 -0.12
12 -0.04
13 -0.04
14 -0.14
15 0.62
16 0.62
17 0.14
18 0.14
19 -0.15
2 -0.57
20 0.18
21 0.12
22 0.12
23 0.37
24 0.37
25 0.08
26 -0.15
27 -0.15
28 -0.15
29 -0.15
3 -0.57
30 -0.15
31 -0.15
32 -0.15
33 -0.15
34 -0.15
35 -0.15
36 -0.15
37 -0.15
4 -0.53
45 0.15
5 -0.49
52 0.15
53 0.15
54 0.15
55 0.15
56 0.15
57 0.15
58 0.15
59 0.15
6 -0.49
60 0.15
61 0.15
62 0.15
63 0.15
64 0.45
7 -0.16
8 -0.16
9 0.42

> <PUBCHEM_EFFECTIVE_ROTOR_COUNT>
5

> <PUBCHEM_PHARMACOPHORE_FEATURES>
8
1 2 acceptor
1 3 acceptor
1 4 donor
5 5 7 10 12 15 rings
5 6 8 11 13 16 rings
6 14 19 20 25 26 31 rings
6 21 27 29 32 34 36 rings
6 22 28 30 33 35 37 rings

> <PUBCHEM_HEAVY_ATOM_COUNT>
37

> <PUBCHEM_ATOM_DEF_STEREO_COUNT>
0

> <PUBCHEM_ATOM_UDEF_STEREO_COUNT>
0

> <PUBCHEM_BOND_DEF_STEREO_COUNT>
0

> <PUBCHEM_BOND_UDEF_STEREO_COUNT>
0

> <PUBCHEM_ISOTOPIC_ATOM_COUNT>
0

> <PUBCHEM_COMPONENT_COUNT>
1

> <PUBCHEM_CACTVS_TAUTO_COUNT>
6

> <PUBCHEM_CONFORMER_ID>
003F295C00000002

> <PUBCHEM_MMFF94_ENERGY>
147.2948

> <PUBCHEM_FEATURE_SELFOVERLAP>
40.603

> <PUBCHEM_SHAPE_FINGERPRINT>
10165383 225 17389698235014734222
10305334 12 18045750586154783088
10675989 125 18128821833117816904
10794284 68 16034111195491897014
11070050 100 17751095633932469017
11093857 51 16770972196116526485
11578080 2 17901147184772633582
11763715 3 16978366713464665695
12160290 23 17751370705123730583
12522641 24 17540832599124912977
12788726 201 17609509567387324515
13583140 156 18049175371760356405
14020679 6 18334016082275452002
14040222 75 16971658223651096780
14705955 166 17974567198113074408
14713325 29 18055070127635773034
14856354 85 13768745899927886892
14932701 244 18198897201116301941
14955137 171 17831015719836399666
15142526 21 18411706452512026809
15775530 1 18266762331658921102
16067690 210 17622688288231235784
17980427 26 18264762173414411183
18681886 176 17556576535274496149
19246450 95 17829574350946225056
21033648 29 18261972772613357276
21049683 118 18333729113286172064
21304303 282 17608055944417773703
21344244 78 17327166655517272675
22122407 14 17766014800622439841
25222932 49 13266395624165824233
27425 322 18343304730378630989
3380486 145 17621610835386705407
376196 1 18272089379205597188
4408954 64 15813441411468525497
4616759 239 16815705122666694536
469060 322 17193765602553376590
508180 173 17702122287258383940
57527306 92 17626385615148921538
7288768 16 18336545009788927585
81228 2 17607258828462664687
9981440 41 18057594563873947954

> <PUBCHEM_SHAPE_MULTIPOLES>
725.78
9.7
6.54
3.15
4
0.81
-0.4
-16.21
0.25
-1.51
-4.39
-1.01
2.81
0.72

> <PUBCHEM_SHAPE_SELFOVERLAP>
1596.547

> <PUBCHEM_SHAPE_VOLUME>
392.9

> <PUBCHEM_COORDINATE_TYPE>
2
5
10

$$$$
