2089699
  -OEChem-01171811463D

 47 50  0     1  0  0  0  0  0999 V2000
    1.4666    0.0123   -2.9646 O   0  0  0  0  0  0  0  0  0  0  0  0
    7.2505    0.6658    0.7200 O   0  5  0  0  0  0  0  0  0  0  0  0
    6.0777    1.6177    2.3129 O   0  0  0  0  0  0  0  0  0  0  0  0
    0.2520   -0.0038   -0.9907 N   0  0  0  0  0  0  0  0  0  0  0  0
   -3.1743    0.9906   -1.4874 N   0  0  0  0  0  0  0  0  0  0  0  0
   -2.1584    0.6107    0.4526 N   0  0  0  0  0  0  0  0  0  0  0  0
    6.1540    1.0418    1.2006 N   0  3  0  0  0  0  0  0  0  0  0  0
   -1.0428   -0.2675   -1.5983 C   0  0  1  0  0  0  0  0  0  0  0  0
   -1.2239   -1.7931   -1.7806 C   0  0  0  0  0  0  0  0  0  0  0  0
   -2.1014    0.4341   -0.8485 C   0  0  0  0  0  0  0  0  0  0  0  0
   -1.3237   -2.5122   -0.4582 C   0  0  0  0  0  0  0  0  0  0  0  0
   -3.9770    1.5649   -0.5353 C   0  0  0  0  0  0  0  0  0  0  0  0
   -3.3214    1.3141    0.6670 C   0  0  0  0  0  0  0  0  0  0  0  0
    1.4047    0.1134   -1.7422 C   0  0  0  0  0  0  0  0  0  0  0  0
   -0.1692   -2.9799    0.1507 C   0  0  0  0  0  0  0  0  0  0  0  0
   -2.5681   -2.6927    0.1259 C   0  0  0  0  0  0  0  0  0  0  0  0
   -5.1834    2.2608   -0.6199 C   0  0  0  0  0  0  0  0  0  0  0  0
   -3.8886    1.7778    1.8660 C   0  0  0  0  0  0  0  0  0  0  0  0
    2.6503    0.3565   -0.9700 C   0  0  0  0  0  0  0  0  0  0  0  0
   -5.7336    2.7152    0.5832 C   0  0  0  0  0  0  0  0  0  0  0  0
   -5.0995    2.4790    1.8050 C   0  0  0  0  0  0  0  0  0  0  0  0
   -0.2614   -3.6446    1.3735 C   0  0  0  0  0  0  0  0  0  0  0  0
   -2.6601   -3.3574    1.3488 C   0  0  0  0  0  0  0  0  0  0  0  0
   -1.5067   -3.8332    1.9726 C   0  0  0  0  0  0  0  0  0  0  0  0
    3.8542   -0.0577   -1.5005 C   0  0  0  0  0  0  0  0  0  0  0  0
    2.5633    0.9893    0.2527 C   0  0  0  0  0  0  0  0  0  0  0  0
    5.0239    0.1709   -0.7759 C   0  0  0  0  0  0  0  0  0  0  0  0
    3.7329    1.2182    0.9775 C   0  0  0  0  0  0  0  0  0  0  0  0
    4.9633    0.8090    0.4632 C   0  0  0  0  0  0  0  0  0  0  0  0
   -1.0054    0.1601   -2.6099 H   0  0  0  0  0  0  0  0  0  0  0  0
   -2.1330   -1.9878   -2.3653 H   0  0  0  0  0  0  0  0  0  0  0  0
   -0.3958   -2.2128   -2.3667 H   0  0  0  0  0  0  0  0  0  0  0  0
    0.2915   -0.0062    0.0233 H   0  0  0  0  0  0  0  0  0  0  0  0
   -3.3492    0.9808   -2.4837 H   0  0  0  0  0  0  0  0  0  0  0  0
    0.8059   -2.8429   -0.3078 H   0  0  0  0  0  0  0  0  0  0  0  0
   -3.4738   -2.3301   -0.3517 H   0  0  0  0  0  0  0  0  0  0  0  0
   -5.6737    2.4428   -1.5694 H   0  0  0  0  0  0  0  0  0  0  0  0
   -3.4037    1.5992    2.8203 H   0  0  0  0  0  0  0  0  0  0  0  0
   -6.6728    3.2624    0.5659 H   0  0  0  0  0  0  0  0  0  0  0  0
   -5.5516    2.8445    2.7234 H   0  0  0  0  0  0  0  0  0  0  0  0
    0.6365   -4.0157    1.8589 H   0  0  0  0  0  0  0  0  0  0  0  0
   -3.6299   -3.5047    1.8151 H   0  0  0  0  0  0  0  0  0  0  0  0
   -1.5785   -4.3508    2.9246 H   0  0  0  0  0  0  0  0  0  0  0  0
    3.9175   -0.5603   -2.4611 H   0  0  0  0  0  0  0  0  0  0  0  0
    1.6318    1.3557    0.6715 H   0  0  0  0  0  0  0  0  0  0  0  0
    5.9644   -0.1628   -1.2070 H   0  0  0  0  0  0  0  0  0  0  0  0
    3.6489    1.7250    1.9356 H   0  0  0  0  0  0  0  0  0  0  0  0
  1 14  2  0  0  0  0
  2  7  1  0  0  0  0
  3  7  2  0  0  0  0
  4  8  1  0  0  0  0
  4 14  1  0  0  0  0
  4 33  1  0  0  0  0
  5 10  1  0  0  0  0
  5 12  1  0  0  0  0
  5 34  1  0  0  0  0
  6 10  2  0  0  0  0
  6 13  1  0  0  0  0
  7 29  1  0  0  0  0
  8  9  1  0  0  0  0
  8 10  1  0  0  0  0
  8 30  1  0  0  0  0
  9 11  1  0  0  0  0
  9 31  1  0  0  0  0
  9 32  1  0  0  0  0
 11 15  2  0  0  0  0
 11 16  1  0  0  0  0
 12 13  1  0  0  0  0
 12 17  2  0  0  0  0
 13 18  2  0  0  0  0
 14 19  1  0  0  0  0
 15 22  1  0  0  0  0
 15 35  1  0  0  0  0
 16 23  2  0  0  0  0
 16 36  1  0  0  0  0
 17 20  1  0  0  0  0
 17 37  1  0  0  0  0
 18 21  1  0  0  0  0
 18 38  1  0  0  0  0
 19 25  2  0  0  0  0
 19 26  1  0  0  0  0
 20 21  2  0  0  0  0
 20 39  1  0  0  0  0
 21 40  1  0  0  0  0
 22 24  2  0  0  0  0
 22 41  1  0  0  0  0
 23 24  1  0  0  0  0
 23 42  1  0  0  0  0
 24 43  1  0  0  0  0
 25 27  1  0  0  0  0
 25 44  1  0  0  0  0
 26 28  2  0  0  0  0
 26 45  1  0  0  0  0
 27 29  2  0  0  0  0
 27 46  1  0  0  0  0
 28 29  1  0  0  0  0
 28 47  1  0  0  0  0
M  CHG  2   2  -1   7   1
M  END
> <PUBCHEM_COMPOUND_CID>
2089699

> <PUBCHEM_CONFORMER_RMSD>
0.8

> <PUBCHEM_CONFORMER_DIVERSEORDER>
1
8
6
20
18
13
5
16
21
12
22
9
3
14
2
17
11
19
15
23
10
7
4

> <PUBCHEM_MMFF94_PARTIAL_CHARGES>
44
1 -0.57
10 0.01
11 -0.14
12 -0.15
13 0.23
14 0.54
15 -0.15
16 -0.15
17 -0.15
18 -0.15
19 0.09
2 -0.52
20 -0.15
21 -0.15
22 -0.15
23 -0.15
24 -0.15
25 -0.15
26 -0.15
27 -0.15
28 -0.15
29 0.13
3 -0.52
33 0.37
34 0.27
35 0.15
36 0.15
37 0.15
38 0.15
39 0.15
4 -0.73
40 0.15
41 0.15
42 0.15
43 0.15
44 0.15
45 0.15
46 0.15
47 0.15
5 0.03
6 -0.57
7 0.91
8 0.48
9 0.14

> <PUBCHEM_EFFECTIVE_ROTOR_COUNT>
7

> <PUBCHEM_PHARMACOPHORE_FEATURES>
11
1 1 acceptor
1 2 acceptor
1 2 anion
1 3 acceptor
1 4 donor
1 5 donor
3 5 6 10 cation
5 5 6 10 12 13 rings
6 11 15 16 22 23 24 rings
6 12 13 17 18 20 21 rings
6 19 25 26 27 28 29 rings

> <PUBCHEM_HEAVY_ATOM_COUNT>
29

> <PUBCHEM_ATOM_DEF_STEREO_COUNT>
1

> <PUBCHEM_ATOM_UDEF_STEREO_COUNT>
0

> <PUBCHEM_BOND_DEF_STEREO_COUNT>
0

> <PUBCHEM_BOND_UDEF_STEREO_COUNT>
0

> <PUBCHEM_ISOTOPIC_ATOM_COUNT>
0

> <PUBCHEM_COMPONENT_COUNT>
1

> <PUBCHEM_CACTVS_TAUTO_COUNT>
2

> <PUBCHEM_CONFORMER_ID>
001FE2E300000001

> <PUBCHEM_MMFF94_ENERGY>
73.2386

> <PUBCHEM_FEATURE_SELFOVERLAP>
56.01

> <PUBCHEM_SHAPE_FINGERPRINT>
10074138 170 18188497981549654139
10319688 67 18410009961999590283
11070050 100 18121244007794855337
11621639 183 18199452411935321544
12422481 6 17603861153281376746
12549972 3 17985577531302052726
12633257 1 18333725845307202612
12788726 201 17901973037984634623
13004483 165 17757851282977804923
13726171 33 18046936997846088812
13782708 43 11169905079426274192
14020679 6 18341328972070306632
14468879 13 17632574976338415494
14705955 166 18198339748241140794
14739800 52 17909838626659130241
15064986 96 17388241352095361673
15338160 23 18193004935151090548
19438510 23 17917711270866367393
20554085 129 18337665318260293833
21033648 29 18189617150779020765
21049683 118 18340474587469367339
21401589 2 18059862757414336873
244849 19 17844555282093101534
2838139 119 17274823493548900684
312425 54 18262222392766374866
345986 75 17319880638552898683
4073 2 18340483461478312344
4340502 62 18266479620100504113
484985 159 17531797090680283811
495365 180 17755035107761162349
5104073 3 18189322645783870808
563151 248 17822007601711163722
57527573 199 18272375243723572604
6009941 240 18413388744568802256
6371380 46 18266465309048324406
6679774 75 17096389249394346106
7288768 16 18342743979416504657
9981440 41 17847059999519085622

> <PUBCHEM_SHAPE_MULTIPOLES>
559.27
13.54
4.21
2.23
16.17
5.36
0.2
-14.94
-6.61
-5.87
-2.69
0.67
-0.02
0.83

> <PUBCHEM_SHAPE_SELFOVERLAP>
1236.476

> <PUBCHEM_SHAPE_VOLUME>
299.7

> <PUBCHEM_COORDINATE_TYPE>
2
5
10

$$$$
