750293
  -OEChem-01171811473D

 34 37  0     0  0  0  0  0  0999 V2000
    5.3754    0.3800    1.9022 F   0  0  0  0  0  0  0  0  0  0  0  0
   -0.0437   -0.8040   -1.1077 N   0  0  0  0  0  0  0  0  0  0  0  0
   -1.6852   -2.3557   -0.2580 N   0  0  0  0  0  0  0  0  0  0  0  0
   -0.8055    0.3192   -0.7140 C   0  0  0  0  0  0  0  0  0  0  0  0
   -2.0451    0.0747   -0.0726 C   0  0  0  0  0  0  0  0  0  0  0  0
    1.2383   -0.6133   -1.7700 C   0  0  0  0  0  0  0  0  0  0  0  0
   -2.8612    1.1516    0.3490 C   0  0  0  0  0  0  0  0  0  0  0  0
   -2.4718   -1.2532    0.1489 C   0  0  0  0  0  0  0  0  0  0  0  0
   -0.4058    1.6472   -0.9213 C   0  0  0  0  0  0  0  0  0  0  0  0
   -0.5640   -2.0552   -0.8382 C   0  0  0  0  0  0  0  0  0  0  0  0
    2.3434   -0.3478   -0.7891 C   0  0  0  0  0  0  0  0  0  0  0  0
   -2.4287    2.4648    0.1245 C   0  0  0  0  0  0  0  0  0  0  0  0
   -4.0836    0.8807    0.9821 C   0  0  0  0  0  0  0  0  0  0  0  0
   -3.6949   -1.4953    0.7823 C   0  0  0  0  0  0  0  0  0  0  0  0
   -1.2105    2.7087   -0.5056 C   0  0  0  0  0  0  0  0  0  0  0  0
   -4.4962   -0.4338    1.1966 C   0  0  0  0  0  0  0  0  0  0  0  0
    3.4239    0.4399   -1.1676 C   0  0  0  0  0  0  0  0  0  0  0  0
    2.2745   -0.8926    0.4877 C   0  0  0  0  0  0  0  0  0  0  0  0
    4.4506    0.6865   -0.2561 C   0  0  0  0  0  0  0  0  0  0  0  0
    3.3010   -0.6460    1.3994 C   0  0  0  0  0  0  0  0  0  0  0  0
    4.3892    0.1436    1.0274 C   0  0  0  0  0  0  0  0  0  0  0  0
    1.1765    0.1679   -2.5376 H   0  0  0  0  0  0  0  0  0  0  0  0
    1.5071   -1.5246   -2.3216 H   0  0  0  0  0  0  0  0  0  0  0  0
    0.5336    1.8984   -1.4035 H   0  0  0  0  0  0  0  0  0  0  0  0
    0.0901   -2.8762   -1.1755 H   0  0  0  0  0  0  0  0  0  0  0  0
   -3.0363    3.3106    0.4386 H   0  0  0  0  0  0  0  0  0  0  0  0
   -4.7267    1.6928    1.3146 H   0  0  0  0  0  0  0  0  0  0  0  0
   -4.0299   -2.5148    0.9563 H   0  0  0  0  0  0  0  0  0  0  0  0
   -0.8845    3.7314   -0.6736 H   0  0  0  0  0  0  0  0  0  0  0  0
   -5.4449   -0.6304    1.6878 H   0  0  0  0  0  0  0  0  0  0  0  0
    3.4824    0.8667   -2.1649 H   0  0  0  0  0  0  0  0  0  0  0  0
    1.4572   -1.5258    0.8149 H   0  0  0  0  0  0  0  0  0  0  0  0
    5.2981    1.3009   -0.5454 H   0  0  0  0  0  0  0  0  0  0  0  0
    3.2558   -1.0714    2.3976 H   0  0  0  0  0  0  0  0  0  0  0  0
  1 21  1  0  0  0  0
  2  4  1  0  0  0  0
  2  6  1  0  0  0  0
  2 10  1  0  0  0  0
  3  8  1  0  0  0  0
  3 10  2  0  0  0  0
  4  5  1  0  0  0  0
  4  9  2  0  0  0  0
  5  7  2  0  0  0  0
  5  8  1  0  0  0  0
  6 11  1  0  0  0  0
  6 22  1  0  0  0  0
  6 23  1  0  0  0  0
  7 12  1  0  0  0  0
  7 13  1  0  0  0  0
  8 14  2  0  0  0  0
  9 15  1  0  0  0  0
  9 24  1  0  0  0  0
 10 25  1  0  0  0  0
 11 17  2  0  0  0  0
 11 18  1  0  0  0  0
 12 15  2  0  0  0  0
 12 26  1  0  0  0  0
 13 16  2  0  0  0  0
 13 27  1  0  0  0  0
 14 16  1  0  0  0  0
 14 28  1  0  0  0  0
 15 29  1  0  0  0  0
 16 30  1  0  0  0  0
 17 19  1  0  0  0  0
 17 31  1  0  0  0  0
 18 20  2  0  0  0  0
 18 32  1  0  0  0  0
 19 21  2  0  0  0  0
 19 33  1  0  0  0  0
 20 21  1  0  0  0  0
 20 34  1  0  0  0  0
M  END
> <PUBCHEM_COMPOUND_CID>
750293

> <PUBCHEM_CONFORMER_RMSD>
0.6

> <PUBCHEM_CONFORMER_DIVERSEORDER>
1
4
2
3

> <PUBCHEM_MMFF94_PARTIAL_CHARGES>
30
1 -0.19
10 0.44
11 -0.14
12 -0.15
13 -0.15
14 -0.15
15 -0.15
16 -0.15
17 -0.15
18 -0.15
19 -0.15
2 -0.52
20 -0.15
21 0.19
24 0.15
25 0.06
26 0.15
27 0.15
28 0.15
29 0.15
3 -0.63
30 0.15
31 0.15
32 0.15
33 0.15
34 0.15
4 0.1
6 0.51
8 0.18
9 -0.15

> <PUBCHEM_EFFECTIVE_ROTOR_COUNT>
2.2

> <PUBCHEM_PHARMACOPHORE_FEATURES>
5
3 2 3 10 cation
6 11 17 18 19 20 21 rings
6 2 3 4 5 8 10 rings
6 4 5 7 9 12 15 rings
6 5 7 8 13 14 16 rings

> <PUBCHEM_HEAVY_ATOM_COUNT>
21

> <PUBCHEM_ATOM_DEF_STEREO_COUNT>
0

> <PUBCHEM_ATOM_UDEF_STEREO_COUNT>
0

> <PUBCHEM_BOND_DEF_STEREO_COUNT>
0

> <PUBCHEM_BOND_UDEF_STEREO_COUNT>
0

> <PUBCHEM_ISOTOPIC_ATOM_COUNT>
0

> <PUBCHEM_COMPONENT_COUNT>
1

> <PUBCHEM_CACTVS_TAUTO_COUNT>
1

> <PUBCHEM_CONFORMER_ID>
000B72D500000001

> <PUBCHEM_MMFF94_ENERGY>
68.3459

> <PUBCHEM_FEATURE_SELFOVERLAP>
25.456

> <PUBCHEM_SHAPE_FINGERPRINT>
10165383 225 17417266415102175358
10319926 262 18339923697947857282
10756046 5 10663232567282751586
10906281 52 18265071180007273021
11132069 177 18343309154020287781
11595378 159 18114187419171355228
12035758 1 18262248725190572897
12236239 1 17676498258639881854
12251169 10 18409733971200302564
12403259 415 18058741194960323829
12403814 3 18410570691243980953
12553582 1 18335708277097302079
12596602 18 17676775356960638656
12633257 1 18272930548455502064
12892183 10 18261669281844887850
13140716 1 18122925358763682123
13544653 18 14779268605200771694
13583140 156 18041262301848357732
13965767 371 17611477328145076340
14081887 123 18341616996903505889
14341114 328 18187090567768652376
14420673 8 17830450580019596946
14787075 74 17750243667092239554
15163728 17 12534536435290106331
15375462 189 17895201055241890414
15475509 35 16736108057026167761
16945 1 18193300536891896549
17780758 139 17824519925962189642
1813 80 16588313752456563006
18186145 218 16200431347444424846
19377110 9 17894904183794309064
19862831 5 11383829368296724526
200 152 15647050469246792808
20510252 161 18270975543919865585
20645477 70 13695880258894558340
20715895 44 17679859315674141005
20871999 31 8718829803480427182
21033648 29 17846786178131800872
23366157 5 17536891231563359101
23402539 116 18342173397548915255
23419403 2 17125315394823644695
23557571 272 18270418121320192836
23559900 14 18196672699592660230
2748010 2 17759831155853528773
2838139 119 15050626881177548257
3009799 131 18336535089389991543
350125 39 18124610686197200366
392239 28 17825675718609602560
394222 165 17244744312924445989
4058900 60 11815083079672465995
4072396 5 18260555485609260339
463206 1 12612752440810094288
474 4 13542476336152072141
49207404 50 18272093729848965534
57724786 102 16845569834240004872
58807428 26 18336560304642073219
633830 44 15482400771914159990
6442390 28 17775290486270823406
7064713 232 18342187626301033825
7097593 13 17897436199647421978
7471813 234 17553755562406259527
7808743 9 18129381678162465920
90316 7 18113904810292065269

> <PUBCHEM_SHAPE_MULTIPOLES>
414.93
9.15
2.28
1.45
6.33
0.65
0.15
0.39
5.22
-2.21
-0.35
1.27
-0.16
0

> <PUBCHEM_SHAPE_SELFOVERLAP>
936.639

> <PUBCHEM_SHAPE_VOLUME>
218.4

> <PUBCHEM_COORDINATE_TYPE>
2
5
10

$$$$
