24792736
  -OEChem-01171812073D

 58 60  0     1  0  0  0  0  0999 V2000
    5.7589    5.1515   -0.2418 F   0  0  0  0  0  0  0  0  0  0  0  0
   -9.1395    2.5085   -0.4527 F   0  0  0  0  0  0  0  0  0  0  0  0
    2.9493   -3.0080    0.9514 O   0  0  0  0  0  0  0  0  0  0  0  0
   -4.4380   -1.3097    1.7292 O   0  0  0  0  0  0  0  0  0  0  0  0
    4.6317   -1.8642   -2.4702 O   0  0  0  0  0  0  0  0  0  0  0  0
   -2.5859   -1.6596    0.3867 N   0  0  0  0  0  0  0  0  0  0  0  0
    1.3447   -1.7057   -0.1086 N   0  0  0  0  0  0  0  0  0  0  0  0
   -4.3401   -0.2689   -0.3510 N   0  0  0  0  0  0  0  0  0  0  0  0
    4.8894   -1.4516   -0.1931 N   0  0  0  0  0  0  0  0  0  0  0  0
    0.2201   -2.5915    0.0863 C   0  0  0  0  0  0  0  0  0  0  0  0
   -0.7598   -2.5045   -1.0901 C   0  0  0  0  0  0  0  0  0  0  0  0
   -0.4501   -2.3065    1.4369 C   0  0  0  0  0  0  0  0  0  0  0  0
   -1.8413   -1.4502   -0.8656 C   0  0  0  0  0  0  0  0  0  0  0  0
   -1.9570   -2.5291    1.3866 C   0  0  0  0  0  0  0  0  0  0  0  0
    2.6259   -1.9897    0.3437 C   0  0  0  0  0  0  0  0  0  0  0  0
    3.6001   -0.8548    0.0486 C   0  0  1  0  0  0  0  0  0  0  0  0
   -3.8516   -1.0917    0.6668 C   0  0  0  0  0  0  0  0  0  0  0  0
    3.6310    0.1381    1.2163 C   0  0  0  0  0  0  0  0  0  0  0  0
    4.2008    1.4801    0.8264 C   0  0  0  0  0  0  0  0  0  0  0  0
   -5.5665    0.4408   -0.3771 C   0  0  0  0  0  0  0  0  0  0  0  0
    5.2960   -1.9071   -1.4380 C   0  0  0  0  0  0  0  0  0  0  0  0
    3.3574    2.4836    0.3496 C   0  0  0  0  0  0  0  0  0  0  0  0
    5.5705    1.7168    0.9423 C   0  0  0  0  0  0  0  0  0  0  0  0
   -6.4436    0.3578    0.7043 C   0  0  0  0  0  0  0  0  0  0  0  0
   -5.8967    1.2220   -1.4846 C   0  0  0  0  0  0  0  0  0  0  0  0
    3.8838    3.7239   -0.0112 C   0  0  0  0  0  0  0  0  0  0  0  0
    6.0969    2.9570    0.5814 C   0  0  0  0  0  0  0  0  0  0  0  0
    6.6953   -2.4613   -1.4164 C   0  0  0  0  0  0  0  0  0  0  0  0
    5.2535    3.9605    0.1047 C   0  0  0  0  0  0  0  0  0  0  0  0
   -7.6507    1.0560    0.6785 C   0  0  0  0  0  0  0  0  0  0  0  0
   -7.1038    1.9203   -1.5105 C   0  0  0  0  0  0  0  0  0  0  0  0
   -7.9809    1.8373   -0.4289 C   0  0  0  0  0  0  0  0  0  0  0  0
    0.6162   -3.6151    0.1061 H   0  0  0  0  0  0  0  0  0  0  0  0
   -0.2314   -2.3072   -2.0304 H   0  0  0  0  0  0  0  0  0  0  0  0
   -1.2514   -3.4798   -1.2070 H   0  0  0  0  0  0  0  0  0  0  0  0
   -0.2612   -1.2682    1.7426 H   0  0  0  0  0  0  0  0  0  0  0  0
   -0.0018   -2.9402    2.2114 H   0  0  0  0  0  0  0  0  0  0  0  0
   -2.5328   -1.4922   -1.7129 H   0  0  0  0  0  0  0  0  0  0  0  0
   -1.4073   -0.4447   -0.8257 H   0  0  0  0  0  0  0  0  0  0  0  0
   -2.3899   -2.3457    2.3753 H   0  0  0  0  0  0  0  0  0  0  0  0
   -2.1910   -3.5655    1.1163 H   0  0  0  0  0  0  0  0  0  0  0  0
    1.1624   -0.8002   -0.5319 H   0  0  0  0  0  0  0  0  0  0  0  0
    3.2815   -0.3534   -0.8746 H   0  0  0  0  0  0  0  0  0  0  0  0
    4.1990   -0.2720    2.0625 H   0  0  0  0  0  0  0  0  0  0  0  0
    2.6159    0.2955    1.6057 H   0  0  0  0  0  0  0  0  0  0  0  0
   -3.7622   -0.1111   -1.1685 H   0  0  0  0  0  0  0  0  0  0  0  0
    5.5051   -1.5956    0.6025 H   0  0  0  0  0  0  0  0  0  0  0  0
    2.2890    2.3102    0.2523 H   0  0  0  0  0  0  0  0  0  0  0  0
    6.2382    0.9434    1.3125 H   0  0  0  0  0  0  0  0  0  0  0  0
   -6.2686   -0.2228    1.5978 H   0  0  0  0  0  0  0  0  0  0  0  0
   -5.2225    1.2954   -2.3341 H   0  0  0  0  0  0  0  0  0  0  0  0
    3.2277    4.5053   -0.3831 H   0  0  0  0  0  0  0  0  0  0  0  0
    7.1633    3.1417    0.6714 H   0  0  0  0  0  0  0  0  0  0  0  0
    7.4051   -1.6570   -1.2045 H   0  0  0  0  0  0  0  0  0  0  0  0
    6.9329   -2.9026   -2.3882 H   0  0  0  0  0  0  0  0  0  0  0  0
    6.7800   -3.2350   -0.6479 H   0  0  0  0  0  0  0  0  0  0  0  0
   -8.3349    0.9925    1.5196 H   0  0  0  0  0  0  0  0  0  0  0  0
   -7.3613    2.5288   -2.3723 H   0  0  0  0  0  0  0  0  0  0  0  0
  1 29  1  0  0  0  0
  2 32  1  0  0  0  0
  3 15  2  0  0  0  0
  4 17  2  0  0  0  0
  5 21  2  0  0  0  0
  6 13  1  0  0  0  0
  6 14  1  0  0  0  0
  6 17  1  0  0  0  0
  7 10  1  0  0  0  0
  7 15  1  0  0  0  0
  7 42  1  0  0  0  0
  8 17  1  0  0  0  0
  8 20  1  0  0  0  0
  8 46  1  0  0  0  0
  9 16  1  0  0  0  0
  9 21  1  0  0  0  0
  9 47  1  0  0  0  0
 10 11  1  0  0  0  0
 10 12  1  0  0  0  0
 10 33  1  0  0  0  0
 11 13  1  0  0  0  0
 11 34  1  0  0  0  0
 11 35  1  0  0  0  0
 12 14  1  0  0  0  0
 12 36  1  0  0  0  0
 12 37  1  0  0  0  0
 13 38  1  0  0  0  0
 13 39  1  0  0  0  0
 14 40  1  0  0  0  0
 14 41  1  0  0  0  0
 15 16  1  0  0  0  0
 16 18  1  0  0  0  0
 16 43  1  0  0  0  0
 18 19  1  0  0  0  0
 18 44  1  0  0  0  0
 18 45  1  0  0  0  0
 19 22  2  0  0  0  0
 19 23  1  0  0  0  0
 20 24  2  0  0  0  0
 20 25  1  0  0  0  0
 21 28  1  0  0  0  0
 22 26  1  0  0  0  0
 22 48  1  0  0  0  0
 23 27  2  0  0  0  0
 23 49  1  0  0  0  0
 24 30  1  0  0  0  0
 24 50  1  0  0  0  0
 25 31  2  0  0  0  0
 25 51  1  0  0  0  0
 26 29  2  0  0  0  0
 26 52  1  0  0  0  0
 27 29  1  0  0  0  0
 27 53  1  0  0  0  0
 28 54  1  0  0  0  0
 28 55  1  0  0  0  0
 28 56  1  0  0  0  0
 30 32  2  0  0  0  0
 30 57  1  0  0  0  0
 31 32  1  0  0  0  0
 31 58  1  0  0  0  0
M  END
> <PUBCHEM_COMPOUND_CID>
24792736

> <PUBCHEM_CONFORMER_RMSD>
1.2

> <PUBCHEM_CONFORMER_DIVERSEORDER>
1
121
69
85
146
115
173
84
125
51
36
117
104
148
72
105
180
188
86
77
170
122
152
111
109
41
75
140
79
8
158
172
155
98
184
39
53
147
178
47
73
189
90
58
163
112
149
29
136
2
96
118
130
12
132
34
95
71
56
141
144
14
103
150
151
66
93
138
134
187
25
113
80
171
110
114
74
124
52
10
67
42
57
107
142
182
15
116
91
185
23
81
166
11
129
19
28
94
22
87
168
177
186
43
126
31
70
33
9
167
161
162
92
102
21
175
190
54
64
32
123
164
30
119
143
65
145
165
97
49
153
44
127
63
106
50
76
35
83
137
16
183
61
191
7
157
176
60
18
174
5
24
156
169
20
108
100
82
62
27
89
159
133
6
13
46
120
128
3
48
135
160
38
55
101
181
192
99
78
68
40
139
17
179
37
4
88
154
131
45
26
59

> <PUBCHEM_MMFF94_PARTIAL_CHARGES>
41
1 -0.19
10 0.3
13 0.3
14 0.3
15 0.57
16 0.36
17 0.69
18 0.14
19 -0.14
2 -0.19
20 0.12
21 0.57
22 -0.15
23 -0.15
24 -0.15
25 -0.15
26 -0.15
27 -0.15
28 0.06
29 0.19
3 -0.57
30 -0.15
31 -0.15
32 0.19
4 -0.57
42 0.37
46 0.37
47 0.37
48 0.15
49 0.15
5 -0.57
50 0.15
51 0.15
52 0.15
53 0.15
57 0.15
58 0.15
6 -0.66
7 -0.73
8 -0.55
9 -0.73

> <PUBCHEM_EFFECTIVE_ROTOR_COUNT>
11.2

> <PUBCHEM_PHARMACOPHORE_FEATURES>
9
1 3 acceptor
1 4 acceptor
1 5 acceptor
1 7 donor
1 8 donor
1 9 donor
6 19 22 23 26 27 29 rings
6 20 24 25 30 31 32 rings
6 6 10 11 12 13 14 rings

> <PUBCHEM_HEAVY_ATOM_COUNT>
32

> <PUBCHEM_ATOM_DEF_STEREO_COUNT>
0

> <PUBCHEM_ATOM_UDEF_STEREO_COUNT>
1

> <PUBCHEM_BOND_DEF_STEREO_COUNT>
0

> <PUBCHEM_BOND_UDEF_STEREO_COUNT>
0

> <PUBCHEM_ISOTOPIC_ATOM_COUNT>
0

> <PUBCHEM_COMPONENT_COUNT>
1

> <PUBCHEM_CACTVS_TAUTO_COUNT>
8

> <PUBCHEM_CONFORMER_ID>
017A4EA000000001

> <PUBCHEM_MMFF94_ENERGY>
76.1727

> <PUBCHEM_FEATURE_SELFOVERLAP>
45.672

> <PUBCHEM_SHAPE_FINGERPRINT>
10554248 39 17489597739784623887
10763959 59 18410578361945139758
10816530 90 18409451393408767132
11017883 126 17417812764538110886
11386260 185 18272937085822877574
11621639 179 18409174303498668980
12975358 362 18189915260517860025
13751561 76 18342182163313780092
13944108 23 18411138078574592756
14556957 393 17131559353928108529
15198563 99 17982473507836226894
15347590 135 12035737539394588630
15439362 3 18269839891081095670
155225 6 18336545035569651145
15530120 55 17702647995180721231
15705408 1 15471658869692245047
15840311 113 18411702071945961565
18335252 114 18270398278582380431
19053607 189 18196079161252045592
19309040 13 18057882640178898940
2026 5 9727341443313418881
20715895 44 18410005568189946320
21033648 29 17967535687661359571
22122407 14 18338805520312851683
2748736 6 18338504339810220521
2838139 119 18336254657710856775
397830 11 18261681458604920387
5718773 13 9943539517281080201
58902169 19 17774994653228842559
5951187 136 18408600349480845466
60123966 16 18201446882935229430
6898599 12 18129935806216612807

> <PUBCHEM_SHAPE_MULTIPOLES>
606.47
24.29
5.32
1.52
37.71
4.75
0.37
22.01
4.99
-10.1
0.25
-0.12
-0.86
4.03

> <PUBCHEM_SHAPE_SELFOVERLAP>
1275.358

> <PUBCHEM_SHAPE_VOLUME>
338.8

> <PUBCHEM_COORDINATE_TYPE>
2
5
10

$$$$
