781997
  -OEChem-01171811393D

 42 44  0     0  0  0  0  0  0999 V2000
    5.7402   -1.1013   -0.5142 O   0  0  0  0  0  0  0  0  0  0  0  0
   -1.6758   -0.8569    0.5150 N   0  0  0  0  0  0  0  0  0  0  0  0
    1.0578   -0.1127    0.1510 N   0  0  0  0  0  0  0  0  0  0  0  0
   -5.2527    1.3747    0.7409 N   0  0  0  0  0  0  0  0  0  0  0  0
   -1.2919    0.0555   -0.5689 C   0  0  0  0  0  0  0  0  0  0  0  0
   -0.6035   -1.8317    0.7506 C   0  0  0  0  0  0  0  0  0  0  0  0
   -0.0123    0.8188   -0.2185 C   0  0  0  0  0  0  0  0  0  0  0  0
    0.6983   -1.1309    1.1460 C   0  0  0  0  0  0  0  0  0  0  0  0
   -2.9278   -1.5400    0.1916 C   0  0  0  0  0  0  0  0  0  0  0  0
    2.3925    0.3034    0.0887 C   0  0  0  0  0  0  0  0  0  0  0  0
   -4.0589   -0.5736   -0.0114 C   0  0  0  0  0  0  0  0  0  0  0  0
    3.4266   -0.6137   -0.1858 C   0  0  0  0  0  0  0  0  0  0  0  0
    2.7424    1.6523    0.2987 C   0  0  0  0  0  0  0  0  0  0  0  0
   -4.9230   -0.7187   -1.0818 C   0  0  0  0  0  0  0  0  0  0  0  0
    4.7570   -0.1987   -0.2477 C   0  0  0  0  0  0  0  0  0  0  0  0
   -4.2544    0.4717    0.8656 C   0  0  0  0  0  0  0  0  0  0  0  0
    4.0725    2.0673    0.2368 C   0  0  0  0  0  0  0  0  0  0  0  0
    5.0799    1.1420   -0.0365 C   0  0  0  0  0  0  0  0  0  0  0  0
   -5.9623    0.1907   -1.2438 C   0  0  0  0  0  0  0  0  0  0  0  0
   -6.0829    1.2102   -0.3133 C   0  0  0  0  0  0  0  0  0  0  0  0
    7.0783   -0.6085   -0.5628 C   0  0  0  0  0  0  0  0  0  0  0  0
   -2.0568    0.8119   -0.7730 H   0  0  0  0  0  0  0  0  0  0  0  0
   -1.1362   -0.5023   -1.5029 H   0  0  0  0  0  0  0  0  0  0  0  0
   -0.4320   -2.4453   -0.1442 H   0  0  0  0  0  0  0  0  0  0  0  0
   -0.8866   -2.5115    1.5634 H   0  0  0  0  0  0  0  0  0  0  0  0
    0.2791    1.4144   -1.0927 H   0  0  0  0  0  0  0  0  0  0  0  0
   -0.2098    1.5088    0.6121 H   0  0  0  0  0  0  0  0  0  0  0  0
    0.5865   -0.6520    2.1274 H   0  0  0  0  0  0  0  0  0  0  0  0
    1.4793   -1.8934    1.2457 H   0  0  0  0  0  0  0  0  0  0  0  0
   -3.2134   -2.2075    1.0151 H   0  0  0  0  0  0  0  0  0  0  0  0
   -2.8023   -2.1698   -0.6996 H   0  0  0  0  0  0  0  0  0  0  0  0
    3.1913   -1.6609   -0.3657 H   0  0  0  0  0  0  0  0  0  0  0  0
    1.9865    2.3996    0.5266 H   0  0  0  0  0  0  0  0  0  0  0  0
   -4.8053   -1.5286   -1.7957 H   0  0  0  0  0  0  0  0  0  0  0  0
   -3.6176    0.6292    1.7302 H   0  0  0  0  0  0  0  0  0  0  0  0
    4.3236    3.1108    0.4044 H   0  0  0  0  0  0  0  0  0  0  0  0
    6.0913    1.5322   -0.0693 H   0  0  0  0  0  0  0  0  0  0  0  0
   -6.6562    0.1041   -2.0720 H   0  0  0  0  0  0  0  0  0  0  0  0
   -6.8767    1.9454   -0.3948 H   0  0  0  0  0  0  0  0  0  0  0  0
    7.3957   -0.2093    0.4065 H   0  0  0  0  0  0  0  0  0  0  0  0
    7.2113    0.1158   -1.3737 H   0  0  0  0  0  0  0  0  0  0  0  0
    7.7286   -1.4607   -0.7859 H   0  0  0  0  0  0  0  0  0  0  0  0
  1 15  1  0  0  0  0
  1 21  1  0  0  0  0
  2  5  1  0  0  0  0
  2  6  1  0  0  0  0
  2  9  1  0  0  0  0
  3  7  1  0  0  0  0
  3  8  1  0  0  0  0
  3 10  1  0  0  0  0
  4 16  1  0  0  0  0
  4 20  2  0  0  0  0
  5  7  1  0  0  0  0
  5 22  1  0  0  0  0
  5 23  1  0  0  0  0
  6  8  1  0  0  0  0
  6 24  1  0  0  0  0
  6 25  1  0  0  0  0
  7 26  1  0  0  0  0
  7 27  1  0  0  0  0
  8 28  1  0  0  0  0
  8 29  1  0  0  0  0
  9 11  1  0  0  0  0
  9 30  1  0  0  0  0
  9 31  1  0  0  0  0
 10 12  2  0  0  0  0
 10 13  1  0  0  0  0
 11 14  1  0  0  0  0
 11 16  2  0  0  0  0
 12 15  1  0  0  0  0
 12 32  1  0  0  0  0
 13 17  2  0  0  0  0
 13 33  1  0  0  0  0
 14 19  2  0  0  0  0
 14 34  1  0  0  0  0
 15 18  2  0  0  0  0
 16 35  1  0  0  0  0
 17 18  1  0  0  0  0
 17 36  1  0  0  0  0
 18 37  1  0  0  0  0
 19 20  1  0  0  0  0
 19 38  1  0  0  0  0
 20 39  1  0  0  0  0
 21 40  1  0  0  0  0
 21 41  1  0  0  0  0
 21 42  1  0  0  0  0
M  END
> <PUBCHEM_COMPOUND_CID>
781997

> <PUBCHEM_CONFORMER_RMSD>
0.8

> <PUBCHEM_CONFORMER_DIVERSEORDER>
1
40
69
56
10
13
30
60
64
6
41
42
72
36
32
67
38
37
75
19
61
16
68
35
45
34
3
51
59
4
70
74
9
18
11
71
46
12
50
21
8
65
7
20
55
43
73
28
5
23
66
33
14
57
48
58
15
29
49
24
17
54
25
62
44
26
2
31
47
52
22
53
63
39
27

> <PUBCHEM_MMFF94_PARTIAL_CHARGES>
29
1 -0.36
10 0.1
11 -0.14
12 -0.15
13 -0.15
14 -0.15
15 0.08
16 0.16
17 -0.15
18 -0.15
19 -0.15
2 -0.81
20 0.16
21 0.28
3 -0.84
32 0.15
33 0.15
34 0.15
35 0.15
36 0.15
37 0.15
38 0.15
39 0.15
4 -0.62
5 0.27
6 0.27
7 0.37
8 0.37
9 0.41

> <PUBCHEM_EFFECTIVE_ROTOR_COUNT>
5.2

> <PUBCHEM_PHARMACOPHORE_FEATURES>
7
1 1 acceptor
1 2 cation
1 3 cation
1 4 acceptor
6 10 12 13 15 17 18 rings
6 2 3 5 6 7 8 rings
6 4 11 14 16 19 20 rings

> <PUBCHEM_HEAVY_ATOM_COUNT>
21

> <PUBCHEM_ATOM_DEF_STEREO_COUNT>
0

> <PUBCHEM_ATOM_UDEF_STEREO_COUNT>
0

> <PUBCHEM_BOND_DEF_STEREO_COUNT>
0

> <PUBCHEM_BOND_UDEF_STEREO_COUNT>
0

> <PUBCHEM_ISOTOPIC_ATOM_COUNT>
0

> <PUBCHEM_COMPONENT_COUNT>
1

> <PUBCHEM_CACTVS_TAUTO_COUNT>
1

> <PUBCHEM_CONFORMER_ID>
000BEEAD00000001

> <PUBCHEM_MMFF94_ENERGY>
78.4433

> <PUBCHEM_FEATURE_SELFOVERLAP>
35.524

> <PUBCHEM_SHAPE_FINGERPRINT>
10066227 112 17822015345632397116
10670039 82 18340201900106961761
10763959 59 17821444655768184812
10803635 8 16343699937563446605
10835480 77 18338795749442120432
11089746 13 18342174470599558048
11315181 36 17346599686140877121
11724838 91 9871459908010490848
12236239 1 17917991689344478293
12670543 26 18411136930931399974
13533116 47 17749943367907347954
13668630 136 16773801398205399702
14251758 9 17603303764999152885
14528608 73 18411975888552721911
14848160 23 13758356665352431134
15183329 4 18412262809373975018
15531645 54 18408324388967218612
15716309 27 8574714598314191069
15788980 27 17632579374527273463
17093844 174 18113617919176490819
17349148 13 12823021957910099355
17780758 139 11169916074742369077
17834072 33 18060134375330255237
17834072 8 18408323284912853206
17844677 252 18339088206132657707
18222031 100 14261357976747628336
19377110 9 7925630041907418071
19489759 90 16559034874452541715
19784866 170 16877940521312854907
200 152 17775288283004944786
20281389 69 17967809453461631813
21150785 3 15626220268745739840
21267235 1 18336269037567208267
21279426 13 18409731767992849352
220451 1 13479132401997741136
221357 26 18411133624234122876
2215653 11 18412830183697664382
22224240 67 9727626190801014462
23198884 109 18201717367005947423
23402539 116 18060419114413688365
23402655 69 18340766026316588230
23536379 177 17846498127554729023
23559900 14 18338797918226096544
2838139 119 18342457028472717953
293599 30 18113616785632295403
29717793 49 17846503625761734124
3004659 81 18409448090346723424
3009799 131 13398631619757995835
3014965 18 18260824852767689306
335352 9 18409168810114326854
3545911 37 18259704506559223243
38695281 34 18343584027469676279
4073 2 18187931750241329058
4340502 62 10809344447490149408
5104073 3 18114740555156115368
59682541 35 9943510921604880806
59755656 215 18260829259324805910
59755656 520 18040152929144657195
6328613 192 18187937217708407556
633830 44 18115300210843440818
7495541 125 16200144439096773001

> <PUBCHEM_SHAPE_MULTIPOLES>
411.36
17.11
1.71
0.96
2.07
0.22
-0.03
2.69
-4.34
0.46
0.3
-0.78
-0.1
0.26

> <PUBCHEM_SHAPE_SELFOVERLAP>
872.875

> <PUBCHEM_SHAPE_VOLUME>
228.9

> <PUBCHEM_COORDINATE_TYPE>
2
5
10

$$$$
