5524161
  -OEChem-01171811533D

 38 40  0     0  0  0  0  0  0999 V2000
    1.6876    1.9707    0.3779 O   0  0  0  0  0  0  0  0  0  0  0  0
    2.4115   -0.2863    0.1261 N   0  0  0  0  0  0  0  0  0  0  0  0
    1.8306   -1.5508    0.2018 N   0  0  0  0  0  0  0  0  0  0  0  0
   -2.1140   -0.0117    1.1363 N   0  0  0  0  0  0  0  0  0  0  0  0
   -6.3278   -0.1121   -1.5646 N   0  0  0  0  0  0  0  0  0  0  0  0
    0.2470    0.0466    0.6169 C   0  0  0  0  0  0  0  0  0  0  0  0
    0.5700   -1.3738    0.4860 C   0  0  0  0  0  0  0  0  0  0  0  0
    1.5118    0.7677    0.3679 C   0  0  0  0  0  0  0  0  0  0  0  0
    3.7526   -0.0857   -0.1609 C   0  0  0  0  0  0  0  0  0  0  0  0
   -0.9268    0.6062    0.8998 C   0  0  0  0  0  0  0  0  0  0  0  0
   -3.3425    0.6963    1.4031 C   0  0  0  0  0  0  0  0  0  0  0  0
   -0.4177   -2.4763    0.6582 C   0  0  0  0  0  0  0  0  0  0  0  0
   -4.3913    0.4124    0.3609 C   0  0  0  0  0  0  0  0  0  0  0  0
    4.4271    1.0265    0.3554 C   0  0  0  0  0  0  0  0  0  0  0  0
    4.4456   -0.9939   -0.9691 C   0  0  0  0  0  0  0  0  0  0  0  0
    5.7771    1.2277    0.0673 C   0  0  0  0  0  0  0  0  0  0  0  0
    5.7954   -0.7927   -1.2573 C   0  0  0  0  0  0  0  0  0  0  0  0
   -5.2625   -0.6472    0.5387 C   0  0  0  0  0  0  0  0  0  0  0  0
   -4.4720    1.2140   -0.7634 C   0  0  0  0  0  0  0  0  0  0  0  0
    6.4611    0.3181   -0.7391 C   0  0  0  0  0  0  0  0  0  0  0  0
   -6.2090   -0.8667   -0.4490 C   0  0  0  0  0  0  0  0  0  0  0  0
   -5.4539    0.9112   -1.6929 C   0  0  0  0  0  0  0  0  0  0  0  0
   -0.9972    1.6886    0.9542 H   0  0  0  0  0  0  0  0  0  0  0  0
   -3.1850    1.7807    1.4780 H   0  0  0  0  0  0  0  0  0  0  0  0
   -3.7157    0.3937    2.3898 H   0  0  0  0  0  0  0  0  0  0  0  0
   -2.1628   -1.0190    1.1378 H   0  0  0  0  0  0  0  0  0  0  0  0
   -0.8131   -2.4794    1.6768 H   0  0  0  0  0  0  0  0  0  0  0  0
    0.0836   -3.4361    0.4951 H   0  0  0  0  0  0  0  0  0  0  0  0
   -1.2180   -2.3926   -0.0811 H   0  0  0  0  0  0  0  0  0  0  0  0
    3.9501    1.7371    1.0229 H   0  0  0  0  0  0  0  0  0  0  0  0
    3.9473   -1.8638   -1.3900 H   0  0  0  0  0  0  0  0  0  0  0  0
    6.2987    2.0870    0.4787 H   0  0  0  0  0  0  0  0  0  0  0  0
    6.3282   -1.5002   -1.8859 H   0  0  0  0  0  0  0  0  0  0  0  0
   -5.2166   -1.2903    1.4104 H   0  0  0  0  0  0  0  0  0  0  0  0
   -3.7987    2.0485   -0.9245 H   0  0  0  0  0  0  0  0  0  0  0  0
    7.5126    0.4736   -0.9618 H   0  0  0  0  0  0  0  0  0  0  0  0
   -6.9192   -1.6828   -0.3661 H   0  0  0  0  0  0  0  0  0  0  0  0
   -5.5660    1.5035   -2.5952 H   0  0  0  0  0  0  0  0  0  0  0  0
  1  8  2  0  0  0  0
  2  3  1  0  0  0  0
  2  8  1  0  0  0  0
  2  9  1  0  0  0  0
  3  7  2  0  0  0  0
  4 10  1  0  0  0  0
  4 11  1  0  0  0  0
  4 26  1  0  0  0  0
  5 21  2  0  0  0  0
  5 22  1  0  0  0  0
  6  7  1  0  0  0  0
  6  8  1  0  0  0  0
  6 10  2  0  0  0  0
  7 12  1  0  0  0  0
  9 14  2  0  0  0  0
  9 15  1  0  0  0  0
 10 23  1  0  0  0  0
 11 13  1  0  0  0  0
 11 24  1  0  0  0  0
 11 25  1  0  0  0  0
 12 27  1  0  0  0  0
 12 28  1  0  0  0  0
 12 29  1  0  0  0  0
 13 18  2  0  0  0  0
 13 19  1  0  0  0  0
 14 16  1  0  0  0  0
 14 30  1  0  0  0  0
 15 17  2  0  0  0  0
 15 31  1  0  0  0  0
 16 20  2  0  0  0  0
 16 32  1  0  0  0  0
 17 20  1  0  0  0  0
 17 33  1  0  0  0  0
 18 21  1  0  0  0  0
 18 34  1  0  0  0  0
 19 22  2  0  0  0  0
 19 35  1  0  0  0  0
 20 36  1  0  0  0  0
 21 37  1  0  0  0  0
 22 38  1  0  0  0  0
M  END
> <PUBCHEM_COMPOUND_CID>
5524161

> <PUBCHEM_CONFORMER_RMSD>
0.6

> <PUBCHEM_CONFORMER_DIVERSEORDER>
2
20
18
28
11
14
15
30
17
5
19
16
29
4
27
31
8
10
25
21
22
1
7
13
3
12
6
9
24
23
26

> <PUBCHEM_MMFF94_PARTIAL_CHARGES>
33
1 -0.57
10 -0.05
11 0.51
12 0.06
13 -0.14
14 -0.15
15 -0.15
16 -0.15
17 -0.15
18 -0.15
19 -0.15
2 -0.11
20 -0.15
21 0.16
22 0.16
23 0.15
26 0.4
3 -0.51
30 0.15
31 0.15
32 0.15
33 0.15
34 0.15
35 0.15
36 0.15
37 0.15
38 0.15
4 -0.87
5 -0.62
6 0.03
7 0.37
8 0.62
9 0.12

> <PUBCHEM_EFFECTIVE_ROTOR_COUNT>
4.2

> <PUBCHEM_PHARMACOPHORE_FEATURES>
8
1 1 acceptor
1 3 acceptor
1 4 cation
1 4 donor
1 5 acceptor
5 2 3 6 7 8 rings
6 5 13 18 19 21 22 rings
6 9 14 15 16 17 20 rings

> <PUBCHEM_HEAVY_ATOM_COUNT>
22

> <PUBCHEM_ATOM_DEF_STEREO_COUNT>
0

> <PUBCHEM_ATOM_UDEF_STEREO_COUNT>
0

> <PUBCHEM_BOND_DEF_STEREO_COUNT>
1

> <PUBCHEM_BOND_UDEF_STEREO_COUNT>
0

> <PUBCHEM_ISOTOPIC_ATOM_COUNT>
0

> <PUBCHEM_COMPONENT_COUNT>
1

> <PUBCHEM_CACTVS_TAUTO_COUNT>
4

> <PUBCHEM_CONFORMER_ID>
00544AC100000002

> <PUBCHEM_MMFF94_ENERGY>
75.418

> <PUBCHEM_FEATURE_SELFOVERLAP>
40.597

> <PUBCHEM_SHAPE_FINGERPRINT>
10087517 78 16008742490521695357
10299344 5 16272212998534276111
10591671 39 17821734961593105915
10595046 47 17203334386146236936
10693767 8 18130505215658565518
10763959 59 17675929793964647132
11089746 13 14418135149218731511
11524674 6 11527944561127172805
117890 112 15646774487601819036
12011746 2 18333454239816736296
12166972 35 17346600798189760992
12236239 1 17561087994486303033
12616971 3 9511450117829873474
12969540 114 18334853909507900654
13167372 99 13840259282490086292
13288520 33 16200432468895125713
13668630 136 17989489632396456751
13673619 4 14261344770034663323
13862211 1 18342461405059957290
1420 363 11527951149205408504
14528608 73 18412263917491238344
14767858 380 18060140955130722176
14849402 71 7852983066719497718
14931854 50 18271225206844429591
15003188 100 18335700589116839772
15048467 5 14201399399934779364
15183329 4 17703790318779096862
15188451 53 12319154245545807957
15348495 7 9583220752307420541
15716309 27 15554448500712915165
17780758 139 12823295702689579599
17844677 252 14549018779837609259
19489759 90 16805325504954945865
200 152 17704358753426561721
20281389 69 13479134605421309679
20567600 247 16200430243284616775
21150785 3 17632578275379863364
21279426 13 18335710429388380098
21521239 73 17988923362206741566
21637258 2 15410888540038887269
21709351 56 18187928421541064341
22122407 14 15213319520468715116
22393880 68 18341603798917515081
23035841 295 15841554076548474975
23081809 10 17632304449549879784
23522609 53 15768671930098845201
23559900 14 18129659828132818273
23576562 1 17678189393264537742
2767999 5 16081367453665210805
2838139 119 16805321106755467301
33382 64 14979964635872092622
335352 9 18341058476221676126
351380 3 16630803309980653853
4015057 19 18059018392197315096
465052 167 12967131606011055684
5207 217 18410575110459386539
5283156 175 17203612584268648313
59755656 215 18335417963146617102
6328613 192 14634879664414858350
7226269 152 13912321279054167453
8863177 126 13398046752533657365

> <PUBCHEM_SHAPE_MULTIPOLES>
426.96
17.71
1.66
1.28
3.64
0.53
-0.3
-2.13
-8.11
-0.37
0.17
1.26
-0.11
0.94

> <PUBCHEM_SHAPE_SELFOVERLAP>
923.337

> <PUBCHEM_SHAPE_VOLUME>
232.4

> <PUBCHEM_COORDINATE_TYPE>
2
5
10

$$$$
