20968727
  -OEChem-01171812083D

 59 61  0     0  0  0  0  0  0999 V2000
    6.1996   -4.4888   -0.6766 Cl  0  0  0  0  0  0  0  0  0  0  0  0
    2.7548    1.2857    0.0712 S   0  0  0  0  0  0  0  0  0  0  0  0
   -0.1298    2.9660    0.3808 O   0  0  0  0  0  0  0  0  0  0  0  0
   -3.3640    3.7040   -0.9091 O   0  0  0  0  0  0  0  0  0  0  0  0
    1.6954    0.3337    0.3505 O   0  0  0  0  0  0  0  0  0  0  0  0
    3.2498    1.4722   -1.2805 O   0  0  0  0  0  0  0  0  0  0  0  0
   -4.3487   -1.5380    0.5537 N   0  0  0  0  0  0  0  0  0  0  0  0
   -2.7470    2.4843    0.9379 N   0  0  0  0  0  0  0  0  0  0  0  0
   -4.2063   -4.1547   -0.7605 C   0  0  0  0  0  0  0  0  0  0  0  0
   -4.5370   -3.9987    0.7276 C   0  0  0  0  0  0  0  0  0  0  0  0
   -4.5903   -2.8762   -1.5130 C   0  0  0  0  0  0  0  0  0  0  0  0
   -3.9172   -2.7244    1.3049 C   0  0  0  0  0  0  0  0  0  0  0  0
   -3.9684   -1.6392   -0.8616 C   0  0  0  0  0  0  0  0  0  0  0  0
   -3.7895   -0.3243    1.1485 C   0  0  0  0  0  0  0  0  0  0  0  0
   -4.9090   -5.3726   -1.3540 C   0  0  0  0  0  0  0  0  0  0  0  0
   -4.6214    0.8942    0.7449 C   0  0  0  0  0  0  0  0  0  0  0  0
   -4.0901    2.1882    1.3550 C   0  0  0  0  0  0  0  0  0  0  0  0
   -2.4667    3.2451   -0.2000 C   0  0  0  0  0  0  0  0  0  0  0  0
    2.2505    2.8649    0.6930 C   0  0  0  0  0  0  0  0  0  0  0  0
   -1.0442    3.4896   -0.4774 C   0  0  0  0  0  0  0  0  0  0  0  0
    4.1413    0.8684    1.1013 C   0  0  0  0  0  0  0  0  0  0  0  0
    1.0937    3.3277   -0.0866 C   0  0  0  0  0  0  0  0  0  0  0  0
   -0.4179    4.1815   -1.4878 C   0  0  0  0  0  0  0  0  0  0  0  0
    0.9705    4.0764   -1.2339 C   0  0  0  0  0  0  0  0  0  0  0  0
    4.6536   -0.4670    0.6574 C   0  0  0  0  0  0  0  0  0  0  0  0
    5.6361   -0.5443   -0.3298 C   0  0  0  0  0  0  0  0  0  0  0  0
    4.1497   -1.6336    1.2325 C   0  0  0  0  0  0  0  0  0  0  0  0
    6.1144   -1.7880   -0.7420 C   0  0  0  0  0  0  0  0  0  0  0  0
    4.6279   -2.8773    0.8204 C   0  0  0  0  0  0  0  0  0  0  0  0
    5.6102   -2.9545   -0.1669 C   0  0  0  0  0  0  0  0  0  0  0  0
   -3.1232   -4.3049   -0.8615 H   0  0  0  0  0  0  0  0  0  0  0  0
   -4.1672   -4.8673    1.2856 H   0  0  0  0  0  0  0  0  0  0  0  0
   -5.6255   -3.9700    0.8693 H   0  0  0  0  0  0  0  0  0  0  0  0
   -5.6826   -2.7660   -1.5339 H   0  0  0  0  0  0  0  0  0  0  0  0
   -4.2581   -2.9435   -2.5560 H   0  0  0  0  0  0  0  0  0  0  0  0
   -2.8227   -2.8113    1.3028 H   0  0  0  0  0  0  0  0  0  0  0  0
   -4.2359   -2.6408    2.3512 H   0  0  0  0  0  0  0  0  0  0  0  0
   -4.3157   -0.7701   -1.4290 H   0  0  0  0  0  0  0  0  0  0  0  0
   -2.8764   -1.6808   -0.9714 H   0  0  0  0  0  0  0  0  0  0  0  0
   -3.8293   -0.3910    2.2439 H   0  0  0  0  0  0  0  0  0  0  0  0
   -2.7323   -0.2021    0.8815 H   0  0  0  0  0  0  0  0  0  0  0  0
   -4.6115   -6.2860   -0.8284 H   0  0  0  0  0  0  0  0  0  0  0  0
   -4.6491   -5.4935   -2.4109 H   0  0  0  0  0  0  0  0  0  0  0  0
   -5.9979   -5.2800   -1.2817 H   0  0  0  0  0  0  0  0  0  0  0  0
   -5.6602    0.7542    1.0697 H   0  0  0  0  0  0  0  0  0  0  0  0
   -4.6415    1.0151   -0.3434 H   0  0  0  0  0  0  0  0  0  0  0  0
   -4.7475    3.0212    1.0827 H   0  0  0  0  0  0  0  0  0  0  0  0
   -4.0818    2.1173    2.4481 H   0  0  0  0  0  0  0  0  0  0  0  0
   -1.9780    2.1291    1.4992 H   0  0  0  0  0  0  0  0  0  0  0  0
    2.0021    2.7492    1.7519 H   0  0  0  0  0  0  0  0  0  0  0  0
    3.0959    3.5520    0.5950 H   0  0  0  0  0  0  0  0  0  0  0  0
    4.9015    1.6482    0.9935 H   0  0  0  0  0  0  0  0  0  0  0  0
    3.8062    0.8460    2.1428 H   0  0  0  0  0  0  0  0  0  0  0  0
   -0.8973    4.6984   -2.3069 H   0  0  0  0  0  0  0  0  0  0  0  0
    1.7788    4.4945   -1.8166 H   0  0  0  0  0  0  0  0  0  0  0  0
    6.0381    0.3570   -0.7850 H   0  0  0  0  0  0  0  0  0  0  0  0
    3.3850   -1.5873    2.0033 H   0  0  0  0  0  0  0  0  0  0  0  0
    6.8799   -1.8330   -1.5123 H   0  0  0  0  0  0  0  0  0  0  0  0
    4.2258   -3.7780    1.2773 H   0  0  0  0  0  0  0  0  0  0  0  0
  1 30  1  0  0  0  0
  2  5  2  0  0  0  0
  2  6  2  0  0  0  0
  2 19  1  0  0  0  0
  2 21  1  0  0  0  0
  3 20  1  0  0  0  0
  3 22  1  0  0  0  0
  4 18  2  0  0  0  0
  7 12  1  0  0  0  0
  7 13  1  0  0  0  0
  7 14  1  0  0  0  0
  8 17  1  0  0  0  0
  8 18  1  0  0  0  0
  8 49  1  0  0  0  0
  9 10  1  0  0  0  0
  9 11  1  0  0  0  0
  9 15  1  0  0  0  0
  9 31  1  0  0  0  0
 10 12  1  0  0  0  0
 10 32  1  0  0  0  0
 10 33  1  0  0  0  0
 11 13  1  0  0  0  0
 11 34  1  0  0  0  0
 11 35  1  0  0  0  0
 12 36  1  0  0  0  0
 12 37  1  0  0  0  0
 13 38  1  0  0  0  0
 13 39  1  0  0  0  0
 14 16  1  0  0  0  0
 14 40  1  0  0  0  0
 14 41  1  0  0  0  0
 15 42  1  0  0  0  0
 15 43  1  0  0  0  0
 15 44  1  0  0  0  0
 16 17  1  0  0  0  0
 16 45  1  0  0  0  0
 16 46  1  0  0  0  0
 17 47  1  0  0  0  0
 17 48  1  0  0  0  0
 18 20  1  0  0  0  0
 19 22  1  0  0  0  0
 19 50  1  0  0  0  0
 19 51  1  0  0  0  0
 20 23  2  0  0  0  0
 21 25  1  0  0  0  0
 21 52  1  0  0  0  0
 21 53  1  0  0  0  0
 22 24  2  0  0  0  0
 23 24  1  0  0  0  0
 23 54  1  0  0  0  0
 24 55  1  0  0  0  0
 25 26  2  0  0  0  0
 25 27  1  0  0  0  0
 26 28  1  0  0  0  0
 26 56  1  0  0  0  0
 27 29  2  0  0  0  0
 27 57  1  0  0  0  0
 28 30  2  0  0  0  0
 28 58  1  0  0  0  0
 29 30  1  0  0  0  0
 29 59  1  0  0  0  0
M  END
> <PUBCHEM_COMPOUND_CID>
20968727

> <PUBCHEM_CONFORMER_RMSD>
1.6

> <PUBCHEM_CONFORMER_DIVERSEORDER>
1
42
69
23
53
62
22
45
34
47
75
37
8
11
13
27
26
36
39
41
14
60
40
49
70
7
28
51
74
72
10
21
50
46
20
31
67
65
68
12
43
3
71
54
66
33
15
6
4
55
16
32
19
52
9
64
18
57
38
5
63
2
24
59
17
29
61
73
35
48
58
56
30
25
44

> <PUBCHEM_MMFF94_PARTIAL_CHARGES>
32
1 -0.18
12 0.27
13 0.27
14 0.27
17 0.3
18 0.71
19 0.29
2 1.09
20 0.05
21 0.25
22 -0.04
23 -0.15
24 -0.15
25 -0.14
26 -0.15
27 -0.15
28 -0.15
29 -0.15
3 -0.28
30 0.18
4 -0.57
49 0.37
5 -0.65
54 0.15
55 0.15
56 0.15
57 0.15
58 0.15
59 0.15
6 -0.65
7 -0.81
8 -0.73

> <PUBCHEM_EFFECTIVE_ROTOR_COUNT>
11.2

> <PUBCHEM_PHARMACOPHORE_FEATURES>
9
1 3 acceptor
1 4 acceptor
1 5 acceptor
1 6 acceptor
1 7 cation
1 8 donor
5 3 20 22 23 24 rings
6 25 26 27 28 29 30 rings
6 7 9 10 11 12 13 rings

> <PUBCHEM_HEAVY_ATOM_COUNT>
30

> <PUBCHEM_ATOM_DEF_STEREO_COUNT>
0

> <PUBCHEM_ATOM_UDEF_STEREO_COUNT>
0

> <PUBCHEM_BOND_DEF_STEREO_COUNT>
0

> <PUBCHEM_BOND_UDEF_STEREO_COUNT>
0

> <PUBCHEM_ISOTOPIC_ATOM_COUNT>
0

> <PUBCHEM_COMPONENT_COUNT>
1

> <PUBCHEM_CACTVS_TAUTO_COUNT>
2

> <PUBCHEM_CONFORMER_ID>
013FF51700000001

> <PUBCHEM_MMFF94_ENERGY>
30.8467

> <PUBCHEM_FEATURE_SELFOVERLAP>
45.689

> <PUBCHEM_SHAPE_FINGERPRINT>
10042902 136 18410015433709316744
10049733 130 18129079261163156727
10448021 39 17836920471572395847
10462674 125 16408392053367715790
10462674 296 18412258471473577358
10622 236 18269273637664925023
11069576 57 17831298672613968205
11135609 99 18047472215570082610
11146346 40 16472309009275076327
11285246 1 18260266386464636035
11315621 246 18046072562620366444
12174731 88 18409731716632843491
12422481 6 17560802091783367614
14114206 34 17167859729728756577
14117953 113 18265332799234370349
14178184 131 18123748660902968082
14444916 359 17618795651949260145
14950920 106 17775286019499853488
15019793 15 18412543211126125194
15320291 9 18194394717717113827
15728490 83 18337961185677798667
15803439 3 17247205849303969453
18608769 82 18338234861468062144
19301676 85 18409158910336431527
19303781 99 17894352155646900618
19315092 285 17557709354484462113
20775530 9 18186800296424742953
21585480 29 18199456822449067168
23379529 103 18336831879677208752
3146121 3 18409165550798599600
3246872 21 18335981995558742306
4017518 198 17979354158334827221
437795 96 18126851490742062558
4408954 87 17122247864872721128
4435113 14 17843694261836612174
44880168 125 18270118998428559515
56633871 153 18410581690998221761
6201460 15 18340211898231995431
7970288 3 18410011069668726517

> <PUBCHEM_SHAPE_MULTIPOLES>
589.67
16.24
8.78
1.43
10.14
2.56
0.09
23.72
0.05
-6.53
3.41
-0.89
0.13
-1.26

> <PUBCHEM_SHAPE_SELFOVERLAP>
1206.906

> <PUBCHEM_SHAPE_VOLUME>
342.8

> <PUBCHEM_COORDINATE_TYPE>
2
5
10

$$$$
