565232
  -OEChem-01171812093D

 34 36  0     0  0  0  0  0  0999 V2000
   -5.2830   -1.1117    0.0473 O   0  0  0  0  0  0  0  0  0  0  0  0
    5.2830    1.1117    0.0473 O   0  0  0  0  0  0  0  0  0  0  0  0
   -3.4737    1.8936   -0.0404 O   0  0  0  0  0  0  0  0  0  0  0  0
    3.4737   -1.8935   -0.0405 O   0  0  0  0  0  0  0  0  0  0  0  0
   -2.7704   -0.3286   -0.0403 N   0  0  0  0  0  0  0  0  0  0  0  0
    2.7704    0.3286   -0.0404 N   0  0  0  0  0  0  0  0  0  0  0  0
   -1.3851   -0.1642   -0.0402 C   0  0  0  0  0  0  0  0  0  0  0  0
    1.3852    0.1643   -0.0404 C   0  0  0  0  0  0  0  0  0  0  0  0
   -0.8349    1.1175   -0.0402 C   0  0  0  0  0  0  0  0  0  0  0  0
    0.5503    1.2817   -0.0404 C   0  0  0  0  0  0  0  0  0  0  0  0
   -0.5503   -1.2817   -0.0402 C   0  0  0  0  0  0  0  0  0  0  0  0
    0.8349   -1.1173   -0.0403 C   0  0  0  0  0  0  0  0  0  0  0  0
   -3.7264    0.6910   -0.0404 C   0  0  0  0  0  0  0  0  0  0  0  0
    3.7264   -0.6910   -0.0405 C   0  0  0  0  0  0  0  0  0  0  0  0
   -5.1200    0.2134    0.0091 C   0  0  0  0  0  0  0  0  0  0  0  0
    5.1199   -0.2135    0.0092 C   0  0  0  0  0  0  0  0  0  0  0  0
   -6.2687    0.9079    0.0224 C   0  0  0  0  0  0  0  0  0  0  0  0
    6.2686   -0.9081    0.0225 C   0  0  0  0  0  0  0  0  0  0  0  0
   -7.2801   -0.0807    0.0748 C   0  0  0  0  0  0  0  0  0  0  0  0
    7.2800    0.0806    0.0750 C   0  0  0  0  0  0  0  0  0  0  0  0
   -6.6293   -1.2924    0.0883 C   0  0  0  0  0  0  0  0  0  0  0  0
    6.6293    1.2922    0.0884 C   0  0  0  0  0  0  0  0  0  0  0  0
   -1.3915    2.0417   -0.0401 H   0  0  0  0  0  0  0  0  0  0  0  0
    0.9676    2.2857   -0.0405 H   0  0  0  0  0  0  0  0  0  0  0  0
   -0.9676   -2.2857   -0.0403 H   0  0  0  0  0  0  0  0  0  0  0  0
    1.3915   -2.0415   -0.0403 H   0  0  0  0  0  0  0  0  0  0  0  0
   -3.1058   -1.2894   -0.0334 H   0  0  0  0  0  0  0  0  0  0  0  0
    3.1058    1.2895   -0.0335 H   0  0  0  0  0  0  0  0  0  0  0  0
   -6.3995    1.9801   -0.0014 H   0  0  0  0  0  0  0  0  0  0  0  0
    6.3996   -1.9803   -0.0014 H   0  0  0  0  0  0  0  0  0  0  0  0
   -8.3495    0.0708    0.0997 H   0  0  0  0  0  0  0  0  0  0  0  0
    8.3495   -0.0710    0.1000 H   0  0  0  0  0  0  0  0  0  0  0  0
   -6.9621   -2.3194    0.1235 H   0  0  0  0  0  0  0  0  0  0  0  0
    6.9622    2.3194    0.1235 H   0  0  0  0  0  0  0  0  0  0  0  0
  1 15  1  0  0  0  0
  1 21  1  0  0  0  0
  2 16  1  0  0  0  0
  2 22  1  0  0  0  0
  3 13  2  0  0  0  0
  4 14  2  0  0  0  0
  5  7  1  0  0  0  0
  5 13  1  0  0  0  0
  5 27  1  0  0  0  0
  6  8  1  0  0  0  0
  6 14  1  0  0  0  0
  6 28  1  0  0  0  0
  7  9  2  0  0  0  0
  7 11  1  0  0  0  0
  8 10  2  0  0  0  0
  8 12  1  0  0  0  0
  9 10  1  0  0  0  0
  9 23  1  0  0  0  0
 10 24  1  0  0  0  0
 11 12  2  0  0  0  0
 11 25  1  0  0  0  0
 12 26  1  0  0  0  0
 13 15  1  0  0  0  0
 14 16  1  0  0  0  0
 15 17  2  0  0  0  0
 16 18  2  0  0  0  0
 17 19  1  0  0  0  0
 17 29  1  0  0  0  0
 18 20  1  0  0  0  0
 18 30  1  0  0  0  0
 19 21  2  0  0  0  0
 19 31  1  0  0  0  0
 20 22  2  0  0  0  0
 20 32  1  0  0  0  0
 21 33  1  0  0  0  0
 22 34  1  0  0  0  0
M  END
> <PUBCHEM_COMPOUND_CID>
565232

> <PUBCHEM_CONFORMER_RMSD>
0.8

> <PUBCHEM_CONFORMER_DIVERSEORDER>
2
8
6
4
5
1
7
3

> <PUBCHEM_MMFF94_PARTIAL_CHARGES>
34
1 -0.28
10 -0.15
11 -0.15
12 -0.15
13 0.71
14 0.71
15 0.05
16 0.05
17 -0.15
18 -0.15
19 -0.15
2 -0.28
20 -0.15
21 -0.01
22 -0.01
23 0.15
24 0.15
25 0.15
26 0.15
27 0.37
28 0.37
29 0.15
3 -0.57
30 0.15
31 0.15
32 0.15
33 0.15
34 0.15
4 -0.57
5 -0.55
6 -0.55
7 0.12
8 0.12
9 -0.15

> <PUBCHEM_EFFECTIVE_ROTOR_COUNT>
6

> <PUBCHEM_PHARMACOPHORE_FEATURES>
9
1 1 acceptor
1 2 acceptor
1 3 acceptor
1 4 acceptor
1 5 donor
1 6 donor
5 1 15 17 19 21 rings
5 2 16 18 20 22 rings
6 7 8 9 10 11 12 rings

> <PUBCHEM_HEAVY_ATOM_COUNT>
22

> <PUBCHEM_ATOM_DEF_STEREO_COUNT>
0

> <PUBCHEM_ATOM_UDEF_STEREO_COUNT>
0

> <PUBCHEM_BOND_DEF_STEREO_COUNT>
0

> <PUBCHEM_BOND_UDEF_STEREO_COUNT>
0

> <PUBCHEM_ISOTOPIC_ATOM_COUNT>
0

> <PUBCHEM_COMPONENT_COUNT>
1

> <PUBCHEM_CACTVS_TAUTO_COUNT>
3

> <PUBCHEM_CONFORMER_ID>
00089FF000000002

> <PUBCHEM_MMFF94_ENERGY>
50.0107

> <PUBCHEM_FEATURE_SELFOVERLAP>
45.673

> <PUBCHEM_SHAPE_FINGERPRINT>
10 15 18261106414097244920
10050765 1 18122344566782734146
10299344 5 18343302569619255430
10968037 39 18409166615290813455
11315181 36 18272934930308502929
11524674 6 16343983632964734687
12091667 2 17240483598794360637
12166972 35 18408887355958980760
12236239 1 18410856546754887721
12516196 113 18272369776124495408
13073987 5 18338516330989275408
13288520 33 18410855469720416245
13533116 47 13901919864743160836
13899415 154 17489871557393730824
14123256 10 18410856559639789570
14170010 4 18410854391146022504
14251732 16 18410575097547980827
14251764 18 18410855468718096399
14251764 46 16917350333519049462
14849402 71 18201159969807950321
14856354 85 15985103042175180413
14933364 13 18341895190351109576
15716309 27 18343863316497131575
15849732 13 18410293622576552013
16120349 18 18410007784066633693
18335252 98 18411985767009599507
18681886 176 18340480162526717233
20281389 69 18333447638795121076
21150785 3 18410573998036353201
21267235 1 18411142432663017837
21315763 28 18409448064408140496
21521721 280 17988643029770160706
220451 1 15554444080938289183
22224240 67 15502374547615839232
22896161 15 18410575101964286895
23035841 295 18273213101611402299
23521765 1 18341895194640646149
23536379 177 18410573967971582153
23559900 14 18338230583042734737
23622692 88 16081091493352804326
335352 9 18410574019511189933
34797466 226 17346605192584778340
350125 39 18411981364610079265
3545911 37 18412825785439929054
4073 2 18041284373928099706
4325135 7 18410855464423129390
4340502 62 16877661253944281098
4463277 17 18411136935110153709
5758199 1 18408889525133061379
59682541 35 18410574028101131171
59755656 520 17821723966092245803
8209 1 18410573989446418444

> <PUBCHEM_SHAPE_MULTIPOLES>
419.31
21.56
1.52
0.59
0
0
0
0
-0.83
0
0
0
0
0.11

> <PUBCHEM_SHAPE_SELFOVERLAP>
925.74

> <PUBCHEM_SHAPE_VOLUME>
223.9

> <PUBCHEM_COORDINATE_TYPE>
2
5
10

$$$$
