3155333
  -OEChem-01171811493D

 44 47  0     1  0  0  0  0  0999 V2000
    1.7875    3.5316    0.8558 S   0  0  0  0  0  0  0  0  0  0  0  0
   -3.5492    0.5093    0.7666 O   0  0  0  0  0  0  0  0  0  0  0  0
    0.9318   -2.5770    2.5738 O   0  0  0  0  0  0  0  0  0  0  0  0
    3.3040   -1.7636   -1.5063 O   0  0  0  0  0  0  0  0  0  0  0  0
    3.2046   -2.8896    1.0220 O   0  0  0  0  0  0  0  0  0  0  0  0
   -1.2560    2.9371    1.2712 N   0  0  0  0  0  0  0  0  0  0  0  0
   -2.4533    2.3920    1.5761 N   0  0  0  0  0  0  0  0  0  0  0  0
   -4.7033   -1.2911   -0.1284 N   0  0  0  0  0  0  0  0  0  0  0  0
   -2.5959   -2.7737   -2.6612 N   0  0  0  0  0  0  0  0  0  0  0  0
   -1.2024    0.0292   -0.9576 C   0  0  1  0  0  0  0  0  0  0  0  0
   -1.3357    1.1615   -0.0078 C   0  0  0  0  0  0  0  0  0  0  0  0
   -0.0359   -0.7445   -0.4340 C   0  0  0  0  0  0  0  0  0  0  0  0
   -2.4824   -0.8169   -0.9644 C   0  0  0  0  0  0  0  0  0  0  0  0
   -0.5537    2.2438    0.3196 C   0  0  0  0  0  0  0  0  0  0  0  0
   -2.4788    1.3258    0.7824 C   0  0  0  0  0  0  0  0  0  0  0  0
   -3.5453   -0.5604   -0.1487 C   0  0  0  0  0  0  0  0  0  0  0  0
    1.1047   -0.8974   -1.2193 C   0  0  0  0  0  0  0  0  0  0  0  0
   -0.0926   -1.3094    0.8384 C   0  0  0  0  0  0  0  0  0  0  0  0
    0.7108    2.6611   -0.1559 C   0  0  0  0  0  0  0  0  0  0  0  0
    0.9967   -2.0305    1.3276 C   0  0  0  0  0  0  0  0  0  0  0  0
    2.1938   -1.6187   -0.7302 C   0  0  0  0  0  0  0  0  0  0  0  0
    2.1397   -2.1853    0.5433 C   0  0  0  0  0  0  0  0  0  0  0  0
   -2.5452   -1.8981   -1.9018 C   0  0  0  0  0  0  0  0  0  0  0  0
    1.2441    2.4546   -1.4125 C   0  0  0  0  0  0  0  0  0  0  0  0
    2.5471    3.0160   -1.5436 C   0  0  0  0  0  0  0  0  0  0  0  0
    2.9643    3.6317   -0.3841 C   0  0  0  0  0  0  0  0  0  0  0  0
    1.3837   -1.7702    3.6597 C   0  0  0  0  0  0  0  0  0  0  0  0
    4.3168   -0.7673   -1.3810 C   0  0  0  0  0  0  0  0  0  0  0  0
   -1.0297    0.4128   -1.9704 H   0  0  0  0  0  0  0  0  0  0  0  0
    1.1504   -0.4748   -2.2196 H   0  0  0  0  0  0  0  0  0  0  0  0
   -0.9729   -1.2099    1.4681 H   0  0  0  0  0  0  0  0  0  0  0  0
   -0.9849    3.7889    1.7470 H   0  0  0  0  0  0  0  0  0  0  0  0
    0.7298    1.9534   -2.2216 H   0  0  0  0  0  0  0  0  0  0  0  0
   -4.8278   -2.0883   -0.7387 H   0  0  0  0  0  0  0  0  0  0  0  0
   -5.4383   -1.0217    0.5131 H   0  0  0  0  0  0  0  0  0  0  0  0
    3.1455    2.9755   -2.4444 H   0  0  0  0  0  0  0  0  0  0  0  0
    3.9032    4.1366   -0.2062 H   0  0  0  0  0  0  0  0  0  0  0  0
    3.8883   -2.9265    0.3311 H   0  0  0  0  0  0  0  0  0  0  0  0
    0.7786   -0.8614    3.7392 H   0  0  0  0  0  0  0  0  0  0  0  0
    2.4390   -1.5087    3.5328 H   0  0  0  0  0  0  0  0  0  0  0  0
    1.2742   -2.3455    4.5830 H   0  0  0  0  0  0  0  0  0  0  0  0
    4.6277   -0.6516   -0.3378 H   0  0  0  0  0  0  0  0  0  0  0  0
    3.9563    0.1882   -1.7729 H   0  0  0  0  0  0  0  0  0  0  0  0
    5.1820   -1.0823   -1.9707 H   0  0  0  0  0  0  0  0  0  0  0  0
  1 19  1  0  0  0  0
  1 26  1  0  0  0  0
  2 15  1  0  0  0  0
  2 16  1  0  0  0  0
  3 20  1  0  0  0  0
  3 27  1  0  0  0  0
  4 21  1  0  0  0  0
  4 28  1  0  0  0  0
  5 22  1  0  0  0  0
  5 38  1  0  0  0  0
  6  7  1  0  0  0  0
  6 14  1  0  0  0  0
  6 32  1  0  0  0  0
  7 15  2  0  0  0  0
  8 16  1  0  0  0  0
  8 34  1  0  0  0  0
  8 35  1  0  0  0  0
  9 23  3  0  0  0  0
 10 11  1  0  0  0  0
 10 12  1  0  0  0  0
 10 13  1  0  0  0  0
 10 29  1  0  0  0  0
 11 14  2  0  0  0  0
 11 15  1  0  0  0  0
 12 17  2  0  0  0  0
 12 18  1  0  0  0  0
 13 16  2  0  0  0  0
 13 23  1  0  0  0  0
 14 19  1  0  0  0  0
 17 21  1  0  0  0  0
 17 30  1  0  0  0  0
 18 20  2  0  0  0  0
 18 31  1  0  0  0  0
 19 24  2  0  0  0  0
 20 22  1  0  0  0  0
 21 22  2  0  0  0  0
 24 25  1  0  0  0  0
 24 33  1  0  0  0  0
 25 26  2  0  0  0  0
 25 36  1  0  0  0  0
 26 37  1  0  0  0  0
 27 39  1  0  0  0  0
 27 40  1  0  0  0  0
 27 41  1  0  0  0  0
 28 42  1  0  0  0  0
 28 43  1  0  0  0  0
 28 44  1  0  0  0  0
M  END
> <PUBCHEM_COMPOUND_CID>
3155333

> <PUBCHEM_CONFORMER_RMSD>
0.8

> <PUBCHEM_CONFORMER_DIVERSEORDER>
1
10
9
6
8
4
2
5
7
3

> <PUBCHEM_MMFF94_PARTIAL_CHARGES>
37
1 -0.08
10 0.46
11 -0.18
12 -0.14
13 -0.07
14 -0.15
15 0.35
16 0.18
17 -0.15
18 -0.15
19 0.04
2 -0.14
20 0.08
21 0.08
22 0.08
23 0.49
24 -0.15
25 -0.15
26 -0.11
27 0.28
28 0.28
3 -0.36
30 0.15
31 0.15
32 0.27
33 0.15
34 0.4
35 0.4
36 0.15
37 0.15
38 0.45
4 -0.36
5 -0.53
6 0.3
7 -0.71
8 -0.9
9 -0.56

> <PUBCHEM_EFFECTIVE_ROTOR_COUNT>
4.4

> <PUBCHEM_PHARMACOPHORE_FEATURES>
11
1 3 acceptor
1 4 acceptor
1 5 donor
1 6 donor
1 8 cation
1 8 donor
1 9 acceptor
5 1 19 24 25 26 rings
5 6 7 11 14 15 rings
6 12 17 18 20 21 22 rings
6 2 10 11 13 15 16 rings

> <PUBCHEM_HEAVY_ATOM_COUNT>
28

> <PUBCHEM_ATOM_DEF_STEREO_COUNT>
0

> <PUBCHEM_ATOM_UDEF_STEREO_COUNT>
1

> <PUBCHEM_BOND_DEF_STEREO_COUNT>
0

> <PUBCHEM_BOND_UDEF_STEREO_COUNT>
0

> <PUBCHEM_ISOTOPIC_ATOM_COUNT>
0

> <PUBCHEM_COMPONENT_COUNT>
1

> <PUBCHEM_CACTVS_TAUTO_COUNT>
8

> <PUBCHEM_CONFORMER_ID>
0030258500000001

> <PUBCHEM_MMFF94_ENERGY>
82.9946

> <PUBCHEM_FEATURE_SELFOVERLAP>
55.94

> <PUBCHEM_SHAPE_FINGERPRINT>
10721379 63 17973968951960022687
107951 10 17390498959237925120
10906281 52 16689081025293919009
1100329 8 18197235671411690769
11578080 2 17968360296023708845
12156800 1 15042686581953574548
133893 2 17901066954398122855
13583140 156 17679609773842462321
14114207 22 16886608074648982528
14787075 74 18117020856525672716
14856354 85 15009243208902287986
14955137 171 17766317230221509609
20567600 347 18049155871759181773
20600515 1 17477144628518314679
20691752 17 18114197344688276124
20905425 154 18201452397035304189
21033648 29 16177316009714724922
21421861 104 18411981403507209465
22112679 90 18192707835009328430
229495 10 16953672545571494589
23419403 2 17753360791199939635
23598288 3 17465667784070782991
3383291 50 17763175140191572264
34934 24 17974303022700278341
35225 105 16527486887695476442
392239 28 18044969919280937115
4340502 62 17897735499160397579
484985 159 12404178031267669768
57527585 103 17608388040300404178
6287921 2 18059567014624768922
70251023 43 18412272722596597419
81228 2 17838587012971389679
90316 7 17760086220232603072
9981440 41 17694222579554216616

> <PUBCHEM_SHAPE_MULTIPOLES>
536.68
6.02
4.85
2.43
2.58
1.07
-1.32
0.16
2.69
-4.29
-1.47
-0.18
-1.99
-1.83

> <PUBCHEM_SHAPE_SELFOVERLAP>
1180.768

> <PUBCHEM_SHAPE_VOLUME>
292.9

> <PUBCHEM_COORDINATE_TYPE>
2
5
10

$$$$
