2869169
  -OEChem-01171812053D

 34 36  0     0  0  0  0  0  0999 V2000
    3.1934    0.9090    2.3266 O   0  0  0  0  0  0  0  0  0  0  0  0
    0.6633   -0.7896   -1.3442 O   0  0  0  0  0  0  0  0  0  0  0  0
    5.2483   -0.4261   -1.5724 O   0  0  0  0  0  0  0  0  0  0  0  0
   -2.5606   -1.1518    0.5991 N   0  0  0  0  0  0  0  0  0  0  0  0
    4.2040    0.2349    0.3700 N   0  0  0  0  0  0  0  0  0  0  0  0
    2.9567   -0.6027   -1.4396 N   0  0  0  0  0  0  0  0  0  0  0  0
   -2.7710    0.1031    0.0735 C   0  0  0  0  0  0  0  0  0  0  0  0
   -1.5876    0.8245    0.2457 C   0  0  0  0  0  0  0  0  0  0  0  0
   -0.6613   -0.0410    0.8921 C   0  0  0  0  0  0  0  0  0  0  0  0
   -1.2886   -1.2484    1.0962 C   0  0  0  0  0  0  0  0  0  0  0  0
   -3.5301   -2.2258    0.6260 C   0  0  0  0  0  0  0  0  0  0  0  0
   -3.9067    0.6494   -0.5349 C   0  0  0  0  0  0  0  0  0  0  0  0
   -1.5327    2.1563   -0.2108 C   0  0  0  0  0  0  0  0  0  0  0  0
    0.6681    0.2420    1.2754 C   0  0  0  0  0  0  0  0  0  0  0  0
   -3.4589   -3.0957   -0.6172 C   0  0  0  0  0  0  0  0  0  0  0  0
    1.8123    0.0753    0.5639 C   0  0  0  0  0  0  0  0  0  0  0  0
   -3.8287    1.9721   -0.9797 C   0  0  0  0  0  0  0  0  0  0  0  0
   -2.6610    2.7160   -0.8212 C   0  0  0  0  0  0  0  0  0  0  0  0
    3.1062    0.4509    1.1912 C   0  0  0  0  0  0  0  0  0  0  0  0
    1.7248   -0.4767   -0.8132 C   0  0  0  0  0  0  0  0  0  0  0  0
    4.2100   -0.2756   -0.9263 C   0  0  0  0  0  0  0  0  0  0  0  0
   -0.9368   -2.1661    1.5501 H   0  0  0  0  0  0  0  0  0  0  0  0
   -3.3328   -2.8292    1.5196 H   0  0  0  0  0  0  0  0  0  0  0  0
   -4.5289   -1.7941    0.7457 H   0  0  0  0  0  0  0  0  0  0  0  0
   -4.8195    0.0785   -0.6667 H   0  0  0  0  0  0  0  0  0  0  0  0
    0.7525    0.6492    2.2821 H   0  0  0  0  0  0  0  0  0  0  0  0
   -0.6302    2.7499   -0.0957 H   0  0  0  0  0  0  0  0  0  0  0  0
   -3.6630   -2.5122   -1.5212 H   0  0  0  0  0  0  0  0  0  0  0  0
   -4.1958   -3.9026   -0.5584 H   0  0  0  0  0  0  0  0  0  0  0  0
   -2.4669   -3.5466   -0.7281 H   0  0  0  0  0  0  0  0  0  0  0  0
   -4.6929    2.4264   -1.4577 H   0  0  0  0  0  0  0  0  0  0  0  0
   -2.6244    3.7426   -1.1756 H   0  0  0  0  0  0  0  0  0  0  0  0
    5.1107    0.4787    0.7594 H   0  0  0  0  0  0  0  0  0  0  0  0
    2.9436   -0.9764   -2.3847 H   0  0  0  0  0  0  0  0  0  0  0  0
  1 19  2  0  0  0  0
  2 20  2  0  0  0  0
  3 21  2  0  0  0  0
  4  7  1  0  0  0  0
  4 10  1  0  0  0  0
  4 11  1  0  0  0  0
  5 19  1  0  0  0  0
  5 21  1  0  0  0  0
  5 33  1  0  0  0  0
  6 20  1  0  0  0  0
  6 21  1  0  0  0  0
  6 34  1  0  0  0  0
  7  8  1  0  0  0  0
  7 12  2  0  0  0  0
  8  9  1  0  0  0  0
  8 13  2  0  0  0  0
  9 10  2  0  0  0  0
  9 14  1  0  0  0  0
 10 22  1  0  0  0  0
 11 15  1  0  0  0  0
 11 23  1  0  0  0  0
 11 24  1  0  0  0  0
 12 17  1  0  0  0  0
 12 25  1  0  0  0  0
 13 18  1  0  0  0  0
 13 27  1  0  0  0  0
 14 16  2  0  0  0  0
 14 26  1  0  0  0  0
 15 28  1  0  0  0  0
 15 29  1  0  0  0  0
 15 30  1  0  0  0  0
 16 19  1  0  0  0  0
 16 20  1  0  0  0  0
 17 18  2  0  0  0  0
 17 31  1  0  0  0  0
 18 32  1  0  0  0  0
M  END
> <PUBCHEM_COMPOUND_CID>
2869169

> <PUBCHEM_CONFORMER_RMSD>
0.6

> <PUBCHEM_CONFORMER_DIVERSEORDER>
1
2

> <PUBCHEM_MMFF94_PARTIAL_CHARGES>
27
1 -0.57
10 -0.3
11 0.26
12 -0.15
13 -0.15
14 -0.1
16 0.03
17 -0.15
18 -0.15
19 0.62
2 -0.57
20 0.62
21 0.69
22 0.15
25 0.15
26 0.15
27 0.15
3 -0.57
31 0.15
32 0.15
33 0.37
34 0.37
4 0.05
5 -0.49
6 -0.49
7 -0.15
9 -0.05

> <PUBCHEM_EFFECTIVE_ROTOR_COUNT>
2.4

> <PUBCHEM_PHARMACOPHORE_FEATURES>
10
1 1 acceptor
1 16 anion
1 2 acceptor
1 3 acceptor
1 4 cation
1 5 donor
1 6 donor
5 4 7 8 9 10 rings
6 5 6 16 19 20 21 rings
6 7 8 12 13 17 18 rings

> <PUBCHEM_HEAVY_ATOM_COUNT>
21

> <PUBCHEM_ATOM_DEF_STEREO_COUNT>
0

> <PUBCHEM_ATOM_UDEF_STEREO_COUNT>
0

> <PUBCHEM_BOND_DEF_STEREO_COUNT>
0

> <PUBCHEM_BOND_UDEF_STEREO_COUNT>
0

> <PUBCHEM_ISOTOPIC_ATOM_COUNT>
0

> <PUBCHEM_COMPONENT_COUNT>
1

> <PUBCHEM_CACTVS_TAUTO_COUNT>
5

> <PUBCHEM_CONFORMER_ID>
002BC7B100000001

> <PUBCHEM_MMFF94_ENERGY>
48.463

> <PUBCHEM_FEATURE_SELFOVERLAP>
50.877

> <PUBCHEM_SHAPE_FINGERPRINT>
10366900 7 18059292058981399276
10498660 4 18260828172360690660
11582403 64 16689562258782530521
11640471 11 17168149979217806733
11796584 16 18338519613220677806
12173636 292 18046612427014250125
12236239 1 16877663448318868121
12390115 104 18196093240645529681
12403259 415 18202847677575255720
12553582 1 18115873082467111883
12788726 201 17096380603334477131
13583140 156 18200860821483284642
14294032 229 17968653801763205365
14739800 52 17968088785846403760
15961568 22 18045494472607559500
16752209 62 18113895000438912371
16945 1 18334289843279772281
17357779 13 17985527074331967527
1813 80 18122066665947301427
18186145 218 18273214166515352856
19141452 34 18059019514022840787
19422 9 13901906721705481768
200 152 16056875801870176544
20645477 70 17132106936203518716
20693207 138 17988372567147748822
20871999 31 18334860532658694415
21065201 7 18409163316381689450
22182313 1 17988352763048220472
22620623 9 18412537739332223103
23402539 116 18041001760352181246
23557571 272 18412262869714397001
23559900 14 18339079285891895566
2838139 119 14853264544244937911
3268164 11 18187362159883151231
3472631 163 17967818197793812853
474 4 16153709782544358928
59755656 520 18198354957327042457
6049 1 18202003252423746736
7615 1 17095514106598707680
77492 1 16949995924384640784
81228 2 18335427893722721315
9709674 26 18272077314589792913

> <PUBCHEM_SHAPE_MULTIPOLES>
399.62
8.92
2.46
1.54
7.33
0.32
-0.2
0.5
2.55
-4.75
0.56
1.69
0.05
1.13

> <PUBCHEM_SHAPE_SELFOVERLAP>
879.611

> <PUBCHEM_SHAPE_VOLUME>
214.2

> <PUBCHEM_COORDINATE_TYPE>
2
5
10

$$$$
