4366681
  -OEChem-01171811413D

 58 63  0     1  0  0  0  0  0999 V2000
   -1.0959   -0.2567    0.4283 O   0  0  0  0  0  0  0  0  0  0  0  0
    5.2173   -3.6036    0.0851 O   0  0  0  0  0  0  0  0  0  0  0  0
   -3.1802    0.4675    1.2486 N   0  0  1  0  0  0  0  0  0  0  0  0
   -0.5062    2.5436    0.2650 N   0  0  0  0  0  0  0  0  0  0  0  0
    3.4680   -1.4045    0.0291 N   0  0  0  0  0  0  0  0  0  0  0  0
   -2.8855    0.3550   -1.1709 C   0  0  0  0  0  0  0  0  0  0  0  0
   -2.1501    0.6805    0.2078 C   0  0  2  0  0  0  0  0  0  0  0  0
   -4.0139   -0.5266   -0.6694 C   0  0  0  0  0  0  0  0  0  0  0  0
   -4.1374   -0.3922    0.7194 C   0  0  0  0  0  0  0  0  0  0  0  0
   -1.9950   -0.3783   -2.1849 C   0  0  0  0  0  0  0  0  0  0  0  0
   -3.5174    1.5842   -1.8540 C   0  0  0  0  0  0  0  0  0  0  0  0
   -1.7315    2.1396    0.2991 C   0  0  0  0  0  0  0  0  0  0  0  0
   -2.8894    0.5246    2.6649 C   0  0  0  0  0  0  0  0  0  0  0  0
   -4.8725   -1.3395   -1.3992 C   0  0  0  0  0  0  0  0  0  0  0  0
    0.1797    0.2060    0.2739 C   0  0  0  0  0  0  0  0  0  0  0  0
   -5.1403   -1.0780    1.3928 C   0  0  0  0  0  0  0  0  0  0  0  0
    0.4946    1.5639    0.1750 C   0  0  0  0  0  0  0  0  0  0  0  0
   -5.8722   -2.0335   -0.7189 C   0  0  0  0  0  0  0  0  0  0  0  0
    1.1786   -0.7640    0.2312 C   0  0  0  0  0  0  0  0  0  0  0  0
   -6.0060   -1.9026    0.6687 C   0  0  0  0  0  0  0  0  0  0  0  0
    1.8492    1.9576    0.0129 C   0  0  0  0  0  0  0  0  0  0  0  0
    2.5086   -0.3878    0.0716 C   0  0  0  0  0  0  0  0  0  0  0  0
    2.8594    0.9637   -0.0404 C   0  0  0  0  0  0  0  0  0  0  0  0
    3.3972   -2.4341   -1.0134 C   0  0  0  0  0  0  0  0  0  0  0  0
    4.0779   -1.8365    1.2943 C   0  0  0  0  0  0  0  0  0  0  0  0
    2.2459    3.3086   -0.0970 C   0  0  0  0  0  0  0  0  0  0  0  0
    4.2040    1.3380   -0.2007 C   0  0  0  0  0  0  0  0  0  0  0  0
    4.7583   -3.1032   -1.1701 C   0  0  0  0  0  0  0  0  0  0  0  0
    5.4033   -2.5356    1.0139 C   0  0  0  0  0  0  0  0  0  0  0  0
    3.5867    3.6642   -0.2553 C   0  0  0  0  0  0  0  0  0  0  0  0
    4.5649    2.6796   -0.3073 C   0  0  0  0  0  0  0  0  0  0  0  0
   -1.1238    0.2298   -2.4509 H   0  0  0  0  0  0  0  0  0  0  0  0
   -1.6400   -1.3417   -1.8017 H   0  0  0  0  0  0  0  0  0  0  0  0
   -2.5372   -0.5912   -3.1138 H   0  0  0  0  0  0  0  0  0  0  0  0
   -2.7484    2.2806   -2.2064 H   0  0  0  0  0  0  0  0  0  0  0  0
   -4.1120    1.2913   -2.7279 H   0  0  0  0  0  0  0  0  0  0  0  0
   -4.1910    2.1284   -1.1815 H   0  0  0  0  0  0  0  0  0  0  0  0
   -2.5284    2.8984    0.3767 H   0  0  0  0  0  0  0  0  0  0  0  0
   -2.1432    1.2956    2.8820 H   0  0  0  0  0  0  0  0  0  0  0  0
   -2.4964   -0.4336    3.0216 H   0  0  0  0  0  0  0  0  0  0  0  0
   -3.7870    0.7747    3.2400 H   0  0  0  0  0  0  0  0  0  0  0  0
   -4.7818   -1.4322   -2.4760 H   0  0  0  0  0  0  0  0  0  0  0  0
   -5.2637   -0.9902    2.4675 H   0  0  0  0  0  0  0  0  0  0  0  0
   -6.5555   -2.6750   -1.2682 H   0  0  0  0  0  0  0  0  0  0  0  0
    0.9049   -1.8128    0.3250 H   0  0  0  0  0  0  0  0  0  0  0  0
   -6.7919   -2.4457    1.1866 H   0  0  0  0  0  0  0  0  0  0  0  0
    3.0955   -1.9978   -1.9728 H   0  0  0  0  0  0  0  0  0  0  0  0
    2.6513   -3.1856   -0.7273 H   0  0  0  0  0  0  0  0  0  0  0  0
    3.3914   -2.5284    1.7976 H   0  0  0  0  0  0  0  0  0  0  0  0
    4.2522   -0.9852    1.9626 H   0  0  0  0  0  0  0  0  0  0  0  0
    1.5097    4.1092   -0.0619 H   0  0  0  0  0  0  0  0  0  0  0  0
    5.0021    0.6008   -0.2502 H   0  0  0  0  0  0  0  0  0  0  0  0
    4.6817   -3.9477   -1.8622 H   0  0  0  0  0  0  0  0  0  0  0  0
    5.5006   -2.4062   -1.5777 H   0  0  0  0  0  0  0  0  0  0  0  0
    6.1492   -1.8350    0.6193 H   0  0  0  0  0  0  0  0  0  0  0  0
    5.8043   -2.9604    1.9395 H   0  0  0  0  0  0  0  0  0  0  0  0
    3.8636    4.7111   -0.3381 H   0  0  0  0  0  0  0  0  0  0  0  0
    5.6082    2.9542   -0.4314 H   0  0  0  0  0  0  0  0  0  0  0  0
  1  7  1  0  0  0  0
  1 15  1  0  0  0  0
  2 28  1  0  0  0  0
  2 29  1  0  0  0  0
  3  7  1  0  0  0  0
  3  9  1  0  0  0  0
  3 13  1  0  0  0  0
  4 12  2  0  0  0  0
  4 17  1  0  0  0  0
  5 22  1  0  0  0  0
  5 24  1  0  0  0  0
  5 25  1  0  0  0  0
  6  7  1  0  0  0  0
  6  8  1  0  0  0  0
  6 10  1  0  0  0  0
  6 11  1  0  0  0  0
  7 12  1  0  0  0  0
  8  9  1  0  0  0  0
  8 14  2  0  0  0  0
  9 16  2  0  0  0  0
 10 32  1  0  0  0  0
 10 33  1  0  0  0  0
 10 34  1  0  0  0  0
 11 35  1  0  0  0  0
 11 36  1  0  0  0  0
 11 37  1  0  0  0  0
 12 38  1  0  0  0  0
 13 39  1  0  0  0  0
 13 40  1  0  0  0  0
 13 41  1  0  0  0  0
 14 18  1  0  0  0  0
 14 42  1  0  0  0  0
 15 17  2  0  0  0  0
 15 19  1  0  0  0  0
 16 20  1  0  0  0  0
 16 43  1  0  0  0  0
 17 21  1  0  0  0  0
 18 20  2  0  0  0  0
 18 44  1  0  0  0  0
 19 22  2  0  0  0  0
 19 45  1  0  0  0  0
 20 46  1  0  0  0  0
 21 23  1  0  0  0  0
 21 26  2  0  0  0  0
 22 23  1  0  0  0  0
 23 27  2  0  0  0  0
 24 28  1  0  0  0  0
 24 47  1  0  0  0  0
 24 48  1  0  0  0  0
 25 29  1  0  0  0  0
 25 49  1  0  0  0  0
 25 50  1  0  0  0  0
 26 30  1  0  0  0  0
 26 51  1  0  0  0  0
 27 31  1  0  0  0  0
 27 52  1  0  0  0  0
 28 53  1  0  0  0  0
 28 54  1  0  0  0  0
 29 55  1  0  0  0  0
 29 56  1  0  0  0  0
 30 31  2  0  0  0  0
 30 57  1  0  0  0  0
 31 58  1  0  0  0  0
M  END
> <PUBCHEM_COMPOUND_CID>
4366681

> <PUBCHEM_CONFORMER_RMSD>
0.8

> <PUBCHEM_CONFORMER_DIVERSEORDER>
2
1
3
4

> <PUBCHEM_MMFF94_PARTIAL_CHARGES>
37
1 -0.36
12 0.33
13 0.37
14 -0.15
15 0.08
16 -0.15
17 0.18
18 -0.15
19 -0.15
2 -0.56
20 -0.15
22 0.1
24 0.37
25 0.37
26 -0.15
27 -0.15
28 0.28
29 0.28
3 -0.84
30 -0.15
31 -0.15
38 0.06
4 -0.63
42 0.15
43 0.15
44 0.15
45 0.15
46 0.15
5 -0.84
51 0.15
52 0.15
57 0.15
58 0.15
6 0.14
7 0.71
8 -0.14
9 0.1

> <PUBCHEM_EFFECTIVE_ROTOR_COUNT>
2.8

> <PUBCHEM_PHARMACOPHORE_FEATURES>
12
1 1 acceptor
1 2 acceptor
1 3 cation
1 4 acceptor
1 5 cation
3 6 10 11 hydrophobe
5 3 6 7 8 9 rings
6 1 4 7 12 15 17 rings
6 15 17 19 21 22 23 rings
6 2 5 24 25 28 29 rings
6 21 23 26 27 30 31 rings
6 8 9 14 16 18 20 rings

> <PUBCHEM_HEAVY_ATOM_COUNT>
31

> <PUBCHEM_ATOM_DEF_STEREO_COUNT>
0

> <PUBCHEM_ATOM_UDEF_STEREO_COUNT>
1

> <PUBCHEM_BOND_DEF_STEREO_COUNT>
0

> <PUBCHEM_BOND_UDEF_STEREO_COUNT>
0

> <PUBCHEM_ISOTOPIC_ATOM_COUNT>
0

> <PUBCHEM_COMPONENT_COUNT>
1

> <PUBCHEM_CACTVS_TAUTO_COUNT>
1

> <PUBCHEM_CONFORMER_ID>
0042A15900000002

> <PUBCHEM_MMFF94_ENERGY>
135.6327

> <PUBCHEM_FEATURE_SELFOVERLAP>
61.054

> <PUBCHEM_SHAPE_FINGERPRINT>
10050765 1 18410014303932763249
10190108 129 17616826869058311763
10369192 42 17752490021547569748
10411042 1 18265617589920376682
10622 236 17772449413140212239
11059845 2 16769880372158125994
11135609 12 18340759373391148002
11135926 11 18267858570252488276
11763715 3 18190484738636487685
11963148 33 18120366811901290426
12107183 9 18055087466841078769
12236239 1 17773890864219872857
12422481 6 17346043251378946751
12623949 98 18265065780764306183
12730499 353 18191026900952963588
12788726 201 17346332539317536435
12916754 54 18410576167401013033
13009979 54 17917437458617780016
13140716 1 18195247707428959328
13383665 225 17603877710433421477
13533116 47 18341333387570694539
13540713 5 18269852959628146728
13782708 43 17748825202545651659
13911987 19 17901399105436542340
14028597 1 17561089159150707736
14910302 57 17458059378645250551
15250474 111 18059285591030157863
15361156 5 18115607953555524580
15840311 113 18333455344720973837
17492 89 18412543180607322814
17686467 74 18197208154590473210
1813 80 18199191694297291406
19319366 153 17983294017286362140
19377110 9 17917427657275505210
19841028 212 18339921632359504667
20645477 70 18335136514261431184
20693207 138 17749108872281824439
21033650 10 15864623964845248213
21133410 230 14957492482242778155
22393880 68 17822280241729097207
2260408 40 17346044359828824286
23557571 272 16950838206501028213
23559900 14 18336252445238118944
23569914 152 17687145766314570199
25222932 49 17983859166278688391
255183 451 18342185419167684166
312423 11 18341059535892019088
314194 84 18271526524026188867
345986 75 17775292685504945753
34797466 226 16515970379863061957
4280585 95 18120080690254326538
44062 13 18189611644952018181
46194498 28 17822289140964911700
5104073 3 18343865489571443873
57527295 17 17604425168101526298
59755656 215 18188775084107154244
613672 6 18124016950271655254
6669772 16 18114456885752108298
6695519 79 17548714322819122073
70251023 43 18336263461839620507
7970288 3 18266458702946147778
9709674 26 18334014994915385920

> <PUBCHEM_SHAPE_MULTIPOLES>
611.28
13.67
4.02
1.59
4.94
0.03
-0.13
-10.12
-0.15
-7.65
0.45
1.87
-0.31
-0.23

> <PUBCHEM_SHAPE_SELFOVERLAP>
1371.304

> <PUBCHEM_SHAPE_VOLUME>
322.7

> <PUBCHEM_COORDINATE_TYPE>
2
5
10

$$$$
