2810445
  -OEChem-01171811573D

 32 34  0     0  0  0  0  0  0999 V2000
   -1.7937    2.7377   -0.1349 Cl  0  0  0  0  0  0  0  0  0  0  0  0
   -3.3674   -2.4597    0.4358 Cl  0  0  0  0  0  0  0  0  0  0  0  0
    0.7667   -1.9476    1.4378 O   0  0  0  0  0  0  0  0  0  0  0  0
    1.6597   -2.2650   -1.4391 O   0  0  0  0  0  0  0  0  0  0  0  0
    1.1706    0.9884    1.9887 O   0  0  0  0  0  0  0  0  0  0  0  0
   -1.3599   -0.0282    1.9942 O   0  0  0  0  0  0  0  0  0  0  0  0
   -0.3756   -0.5739   -0.0353 N   0  0  0  0  0  0  0  0  0  0  0  0
    0.9073   -0.9340    0.4835 C   0  0  0  0  0  0  0  0  0  0  0  0
    2.9896   -0.4633   -0.6330 C   0  0  0  0  0  0  0  0  0  0  0  0
    2.8458    0.4914    0.3729 C   0  0  0  0  0  0  0  0  0  0  0  0
    1.8300   -1.3596   -0.6452 C   0  0  0  0  0  0  0  0  0  0  0  0
    1.5823    0.2843    1.0866 C   0  0  0  0  0  0  0  0  0  0  0  0
    4.0951   -0.4841   -1.4608 C   0  0  0  0  0  0  0  0  0  0  0  0
    3.8021    1.4637    0.5921 C   0  0  0  0  0  0  0  0  0  0  0  0
   -1.4262   -0.1421    0.7730 C   0  0  0  0  0  0  0  0  0  0  0  0
    5.0737    0.4914   -1.2513 C   0  0  0  0  0  0  0  0  0  0  0  0
    4.9287    1.4557   -0.2350 C   0  0  0  0  0  0  0  0  0  0  0  0
   -2.7047    0.1692    0.0834 C   0  0  0  0  0  0  0  0  0  0  0  0
   -2.9364    1.4603   -0.3556 C   0  0  0  0  0  0  0  0  0  0  0  0
   -3.6327   -0.8393   -0.1031 C   0  0  0  0  0  0  0  0  0  0  0  0
   -4.1368    1.7526   -1.0032 C   0  0  0  0  0  0  0  0  0  0  0  0
   -4.8330   -0.5469   -0.7506 C   0  0  0  0  0  0  0  0  0  0  0  0
   -5.0851    0.7490   -1.2008 C   0  0  0  0  0  0  0  0  0  0  0  0
   -0.5358   -0.6517   -1.0362 H   0  0  0  0  0  0  0  0  0  0  0  0
    4.2091   -1.2235   -2.2451 H   0  0  0  0  0  0  0  0  0  0  0  0
    3.6927    2.2087    1.3718 H   0  0  0  0  0  0  0  0  0  0  0  0
    1.6495   -2.1742    1.7768 H   0  0  0  0  0  0  0  0  0  0  0  0
    5.9593    0.5088   -1.8812 H   0  0  0  0  0  0  0  0  0  0  0  0
    5.7044    2.2040   -0.0946 H   0  0  0  0  0  0  0  0  0  0  0  0
   -4.3492    2.7572   -1.3602 H   0  0  0  0  0  0  0  0  0  0  0  0
   -5.5828   -1.3172   -0.9127 H   0  0  0  0  0  0  0  0  0  0  0  0
   -6.0197    0.9766   -1.7050 H   0  0  0  0  0  0  0  0  0  0  0  0
  1 19  1  0  0  0  0
  2 20  1  0  0  0  0
  3  8  1  0  0  0  0
  3 27  1  0  0  0  0
  4 11  2  0  0  0  0
  5 12  2  0  0  0  0
  6 15  2  0  0  0  0
  7  8  1  0  0  0  0
  7 15  1  0  0  0  0
  7 24  1  0  0  0  0
  8 11  1  0  0  0  0
  8 12  1  0  0  0  0
  9 10  1  0  0  0  0
  9 11  1  0  0  0  0
  9 13  2  0  0  0  0
 10 12  1  0  0  0  0
 10 14  2  0  0  0  0
 13 16  1  0  0  0  0
 13 25  1  0  0  0  0
 14 17  1  0  0  0  0
 14 26  1  0  0  0  0
 15 18  1  0  0  0  0
 16 17  2  0  0  0  0
 16 28  1  0  0  0  0
 17 29  1  0  0  0  0
 18 19  2  0  0  0  0
 18 20  1  0  0  0  0
 19 21  1  0  0  0  0
 20 22  2  0  0  0  0
 21 23  2  0  0  0  0
 21 30  1  0  0  0  0
 22 23  1  0  0  0  0
 22 31  1  0  0  0  0
 23 32  1  0  0  0  0
M  END
> <PUBCHEM_COMPOUND_CID>
2810445

> <PUBCHEM_CONFORMER_RMSD>
0.6

> <PUBCHEM_CONFORMER_DIVERSEORDER>
1
2
3

> <PUBCHEM_MMFF94_PARTIAL_CHARGES>
32
1 -0.18
10 0.09
11 0.42
12 0.42
13 -0.15
14 -0.15
15 0.54
16 -0.15
17 -0.15
18 0.09
19 0.18
2 -0.18
20 0.18
21 -0.15
22 -0.15
23 -0.15
24 0.37
25 0.15
26 0.15
27 0.4
28 0.15
29 0.15
3 -0.68
30 0.15
31 0.15
32 0.15
4 -0.57
5 -0.57
6 -0.57
7 -0.73
8 0.7
9 0.09

> <PUBCHEM_EFFECTIVE_ROTOR_COUNT>
3.2

> <PUBCHEM_PHARMACOPHORE_FEATURES>
9
1 3 acceptor
1 3 donor
1 4 acceptor
1 5 acceptor
1 6 acceptor
1 7 donor
5 8 9 10 11 12 rings
6 18 19 20 21 22 23 rings
6 9 10 13 14 16 17 rings

> <PUBCHEM_HEAVY_ATOM_COUNT>
23

> <PUBCHEM_ATOM_DEF_STEREO_COUNT>
0

> <PUBCHEM_ATOM_UDEF_STEREO_COUNT>
0

> <PUBCHEM_BOND_DEF_STEREO_COUNT>
0

> <PUBCHEM_BOND_UDEF_STEREO_COUNT>
0

> <PUBCHEM_ISOTOPIC_ATOM_COUNT>
0

> <PUBCHEM_COMPONENT_COUNT>
1

> <PUBCHEM_CACTVS_TAUTO_COUNT>
2

> <PUBCHEM_CONFORMER_ID>
002AE24D00000001

> <PUBCHEM_MMFF94_ENERGY>
69.2563

> <PUBCHEM_FEATURE_SELFOVERLAP>
45.81

> <PUBCHEM_SHAPE_FINGERPRINT>
10366900 7 18201711856378290213
10498660 4 18333726892936292157
10670039 82 17822017458798569948
11089746 13 16805603720215002756
11640471 11 16587739815791694841
11796584 16 11671243885557092148
121448 382 18187369877802596187
12236239 1 16732695073447630283
12403259 415 18270403905342615224
12553582 1 15123504787903808295
12596602 18 15213307455937514084
12670546 177 18272934903446740964
12714826 92 13901914362562935171
12730499 353 18412551998170179459
12788726 201 17701819887106231161
128620 24 18261111876741432319
12892183 10 8430314615225505134
13224815 77 18410293601260126465
13583140 156 18114471179524302986
13911987 19 17774453809962599404
14251764 38 17896326989625328588
14739800 52 17896302762258143608
15188451 53 9655280524511491389
15209289 33 12679460898030529245
15463212 79 17749382677043589363
15475509 84 14273994629911081196
15961568 22 18115588287423029628
16752209 62 15410329936745220433
16988056 13 15303895824129766077
17349148 13 16226051119175180851
17980427 23 16443352025883566911
1813 80 13973966514835178976
18186145 218 18272102590851787434
19784866 140 16773801389372754345
200 152 16988847172263298627
20645477 70 17489592246779824406
21637258 2 13829854578440040604
21857420 4 16117913265756644758
221357 26 17988923357748418985
22393880 68 18411422786996597710
22950370 63 13326858846164922518
23114952 82 18127694829028767158
23227448 37 18268144447264475357
23402539 116 18187078498905126390
235170 7 18060146409628445028
23557571 272 18334304196749213023
23559900 14 18124582098947774955
23596394 208 18272652324747954654
2838139 119 17750244767284882724
2871803 45 18060421304799497556
341906 21 17676205796999924556
3472631 163 17822005398472224453
34797466 226 18341620364031395829
351380 3 14549022082704428180
4028521 119 18334856104304819133
469060 322 17096393733798333409
474 4 16950568774227084213
5281201 14 18202290186499127772
5924683 9 11675179093634383201
633830 44 16226054392272595866
6669772 16 17059193999887392232
67856867 119 18042109986468640082
9981440 41 17749107798592742395

> <PUBCHEM_SHAPE_MULTIPOLES>
448.61
10.84
2.29
1.47
0.43
0.03
0.28
2.91
-4.69
-1.35
-0.1
0.57
-0.13
1.07

> <PUBCHEM_SHAPE_SELFOVERLAP>
981.448

> <PUBCHEM_SHAPE_VOLUME>
244.4

> <PUBCHEM_COORDINATE_TYPE>
2
5
10

$$$$
