54677750
  -OEChem-01171811563D

 30 31  0     0  0  0  0  0  0999 V2000
    0.3735   -2.2427   -0.1492 O   0  0  0  0  0  0  0  0  0  0  0  0
   -0.4540    2.4517   -0.4647 O   0  0  0  0  0  0  0  0  0  0  0  0
   -2.2287    1.1246    1.4283 O   0  0  0  0  0  0  0  0  0  0  0  0
   -4.5817    1.0050   -0.1778 O   0  0  0  0  0  0  0  0  0  0  0  0
    1.7004    1.7178   -0.2072 N   0  0  0  0  0  0  0  0  0  0  0  0
   -1.4825   -0.0814   -0.4470 N   0  0  0  0  0  0  0  0  0  0  0  0
   -4.0461   -1.2676    0.0694 N   0  0  0  0  0  0  0  0  0  0  0  0
    2.1805   -0.6532   -0.0413 C   0  0  0  0  0  0  0  0  0  0  0  0
    2.6275    0.6738   -0.0604 C   0  0  0  0  0  0  0  0  0  0  0  0
    0.7384   -0.9132   -0.1772 C   0  0  0  0  0  0  0  0  0  0  0  0
   -0.1340    0.1015   -0.3171 C   0  0  0  0  0  0  0  0  0  0  0  0
    0.3416    1.5218   -0.3375 C   0  0  0  0  0  0  0  0  0  0  0  0
    3.1280   -1.6762    0.1069 C   0  0  0  0  0  0  0  0  0  0  0  0
    3.9861    0.9796    0.0652 C   0  0  0  0  0  0  0  0  0  0  0  0
    4.4865   -1.3738    0.2324 C   0  0  0  0  0  0  0  0  0  0  0  0
    4.9147   -0.0481    0.2118 C   0  0  0  0  0  0  0  0  0  0  0  0
   -2.4027    0.4356    0.4353 C   0  0  0  0  0  0  0  0  0  0  0  0
   -3.8123    0.0888    0.0642 C   0  0  0  0  0  0  0  0  0  0  0  0
   -5.3350   -1.8438   -0.2342 C   0  0  0  0  0  0  0  0  0  0  0  0
    2.0542    2.6703   -0.2172 H   0  0  0  0  0  0  0  0  0  0  0  0
    2.8294   -2.7214    0.1274 H   0  0  0  0  0  0  0  0  0  0  0  0
    4.3290    2.0108    0.0501 H   0  0  0  0  0  0  0  0  0  0  0  0
   -1.7876   -0.8698   -1.0129 H   0  0  0  0  0  0  0  0  0  0  0  0
    5.2107   -2.1754    0.3467 H   0  0  0  0  0  0  0  0  0  0  0  0
    5.9712    0.1834    0.3097 H   0  0  0  0  0  0  0  0  0  0  0  0
   -0.5955   -2.2917   -0.2115 H   0  0  0  0  0  0  0  0  0  0  0  0
   -3.2911   -1.9025    0.3118 H   0  0  0  0  0  0  0  0  0  0  0  0
   -5.6939   -2.3655    0.6564 H   0  0  0  0  0  0  0  0  0  0  0  0
   -5.2051   -2.5625   -1.0469 H   0  0  0  0  0  0  0  0  0  0  0  0
   -6.0534   -1.0749   -0.5284 H   0  0  0  0  0  0  0  0  0  0  0  0
  1 10  1  0  0  0  0
  1 26  1  0  0  0  0
  2 12  2  0  0  0  0
  3 17  2  0  0  0  0
  4 18  2  0  0  0  0
  5  9  1  0  0  0  0
  5 12  1  0  0  0  0
  5 20  1  0  0  0  0
  6 11  1  0  0  0  0
  6 17  1  0  0  0  0
  6 23  1  0  0  0  0
  7 18  1  0  0  0  0
  7 19  1  0  0  0  0
  7 27  1  0  0  0  0
  8  9  1  0  0  0  0
  8 10  1  0  0  0  0
  8 13  2  0  0  0  0
  9 14  2  0  0  0  0
 10 11  2  0  0  0  0
 11 12  1  0  0  0  0
 13 15  1  0  0  0  0
 13 21  1  0  0  0  0
 14 16  1  0  0  0  0
 14 22  1  0  0  0  0
 15 16  2  0  0  0  0
 15 24  1  0  0  0  0
 16 25  1  0  0  0  0
 17 18  1  0  0  0  0
 19 28  1  0  0  0  0
 19 29  1  0  0  0  0
 19 30  1  0  0  0  0
M  END
> <PUBCHEM_COMPOUND_CID>
54677750

> <PUBCHEM_CONFORMER_RMSD>
0.6

> <PUBCHEM_CONFORMER_DIVERSEORDER>
2
11
1
10
4
3
6
12
5
7
9
8

> <PUBCHEM_MMFF94_PARTIAL_CHARGES>
27
1 -0.53
10 0.05
11 0.12
12 0.62
13 -0.15
14 -0.15
15 -0.15
16 -0.15
17 0.63
18 0.63
19 0.3
2 -0.57
20 0.37
21 0.15
22 0.15
23 0.37
24 0.15
25 0.15
26 0.45
27 0.37
3 -0.57
4 -0.57
5 -0.55
6 -0.54
7 -0.73
8 0.03
9 0.12

> <PUBCHEM_EFFECTIVE_ROTOR_COUNT>
4

> <PUBCHEM_PHARMACOPHORE_FEATURES>
9
1 1 donor
1 2 acceptor
1 3 acceptor
1 4 acceptor
1 5 donor
1 6 donor
1 7 donor
6 5 8 9 10 11 12 rings
6 8 9 13 14 15 16 rings

> <PUBCHEM_HEAVY_ATOM_COUNT>
19

> <PUBCHEM_ATOM_DEF_STEREO_COUNT>
0

> <PUBCHEM_ATOM_UDEF_STEREO_COUNT>
0

> <PUBCHEM_BOND_DEF_STEREO_COUNT>
0

> <PUBCHEM_BOND_UDEF_STEREO_COUNT>
0

> <PUBCHEM_ISOTOPIC_ATOM_COUNT>
0

> <PUBCHEM_COMPONENT_COUNT>
1

> <PUBCHEM_CACTVS_TAUTO_COUNT>
130

> <PUBCHEM_CONFORMER_ID>
034250F600000002

> <PUBCHEM_MMFF94_ENERGY>
53.9582

> <PUBCHEM_FEATURE_SELFOVERLAP>
45.706

> <PUBCHEM_SHAPE_FINGERPRINT>
11132069 177 18412262813769052226
11471102 20 18408322177301784300
11806522 49 18411138056286593487
12107183 9 17620479012756066915
12236239 1 18060137648163926013
13140716 1 18192986252660239096
13167823 11 18411417323745345375
13583140 156 15553875573313198962
13862211 1 18408318882956756450
14787075 74 18259987106389909042
15196674 1 18410292514469714287
15375462 478 18131914840772028797
15848702 151 17916874491347553678
16945 1 18409158918841424356
17834072 33 18411701014761325750
17862501 102 18342738528759984787
200 152 18343579655666838807
20028762 73 18130504249032727511
20261772 1 18202279234026645854
20645477 70 18261109677654970718
21267235 1 18411427227655151887
21421861 104 17607806089005289283
221490 88 18117565247867755787
23402539 116 18411694379021230607
23559900 14 18411694370352044881
26918003 58 18343018887540908217
2871803 45 18187925028363932538
3286 77 18131910455737014024
34934 24 18264202526860324877
4214541 1 18410011018667137085
439807 62 18051968415080079215
465052 167 18410579508648673238
5104073 3 18412545409821892251
5283173 99 17968927570982985477
602551 16 15553874624157134343

> <PUBCHEM_SHAPE_MULTIPOLES>
352.59
10.25
2.11
0.72
5.64
0.03
0.12
3.66
0.59
0.22
-0.15
0.19
-0.12
-0.36

> <PUBCHEM_SHAPE_SELFOVERLAP>
761.132

> <PUBCHEM_SHAPE_VOLUME>
191.6

> <PUBCHEM_COORDINATE_TYPE>
2
5
10

$$$$
