848420
  -OEChem-01171811383D

 42 43  0     1  0  0  0  0  0999 V2000
   -2.5265    1.8025    0.4585 S   0  0  0  0  0  0  0  0  0  0  0  0
   -3.1637    2.8545   -0.3120 O   0  0  0  0  0  0  0  0  0  0  0  0
   -2.3725    1.9620    1.8928 O   0  0  0  0  0  0  0  0  0  0  0  0
    1.6811    2.0734   -0.1710 O   0  0  0  0  0  0  0  0  0  0  0  0
   -0.9987    1.4213   -0.2446 N   0  0  1  0  0  0  0  0  0  0  0  0
    2.1938   -0.1608    0.3377 N   0  0  0  0  0  0  0  0  0  0  0  0
    4.2033   -1.4075    0.3070 N   0  0  0  0  0  0  0  0  0  0  0  0
   -3.4559    0.3188    0.1917 C   0  0  0  0  0  0  0  0  0  0  0  0
   -0.0615    0.5844    0.5471 C   0  0  0  0  0  0  0  0  0  0  0  0
   -0.9666    1.0766   -1.6887 C   0  0  0  0  0  0  0  0  0  0  0  0
   -3.4268   -0.6742    1.1533 C   0  0  0  0  0  0  0  0  0  0  0  0
   -4.1904    0.1849   -0.9719 C   0  0  0  0  0  0  0  0  0  0  0  0
    1.3615    0.9459    0.1913 C   0  0  0  0  0  0  0  0  0  0  0  0
   -4.9058   -1.9982   -0.2237 C   0  0  0  0  0  0  0  0  0  0  0  0
   -4.1583   -1.8432    0.9436 C   0  0  0  0  0  0  0  0  0  0  0  0
   -4.9220   -0.9841   -1.1814 C   0  0  0  0  0  0  0  0  0  0  0  0
   -5.6885   -3.2478   -0.4479 C   0  0  0  0  0  0  0  0  0  0  0  0
    3.5875   -0.2299    0.1019 C   0  0  0  0  0  0  0  0  0  0  0  0
    4.2062    0.9267   -0.3227 C   0  0  0  0  0  0  0  0  0  0  0  0
    5.5340   -1.4250    0.0687 C   0  0  0  0  0  0  0  0  0  0  0  0
    5.5754    0.8691   -0.5575 C   0  0  0  0  0  0  0  0  0  0  0  0
    6.2594   -0.3253   -0.3604 C   0  0  0  0  0  0  0  0  0  0  0  0
    6.2350   -2.7241    0.2880 C   0  0  0  0  0  0  0  0  0  0  0  0
   -0.1727    0.7765    1.6187 H   0  0  0  0  0  0  0  0  0  0  0  0
   -0.2675   -0.4752    0.3612 H   0  0  0  0  0  0  0  0  0  0  0  0
   -1.6858    1.6852   -2.2444 H   0  0  0  0  0  0  0  0  0  0  0  0
   -1.1951    0.0184   -1.8444 H   0  0  0  0  0  0  0  0  0  0  0  0
    0.0173    1.2922   -2.1146 H   0  0  0  0  0  0  0  0  0  0  0  0
   -2.8454   -0.5748    2.0644 H   0  0  0  0  0  0  0  0  0  0  0  0
   -4.2125    0.9605   -1.7308 H   0  0  0  0  0  0  0  0  0  0  0  0
   -4.1379   -2.6260    1.6971 H   0  0  0  0  0  0  0  0  0  0  0  0
   -5.5013   -1.0929   -2.0944 H   0  0  0  0  0  0  0  0  0  0  0  0
    1.7856   -1.0368    0.6548 H   0  0  0  0  0  0  0  0  0  0  0  0
   -5.2105   -4.1059    0.0366 H   0  0  0  0  0  0  0  0  0  0  0  0
   -6.6995   -3.1354   -0.0439 H   0  0  0  0  0  0  0  0  0  0  0  0
   -5.7609   -3.4823   -1.5153 H   0  0  0  0  0  0  0  0  0  0  0  0
    3.7485    1.8852   -0.4976 H   0  0  0  0  0  0  0  0  0  0  0  0
    6.1102    1.7527   -0.8935 H   0  0  0  0  0  0  0  0  0  0  0  0
    7.3276   -0.3826   -0.5407 H   0  0  0  0  0  0  0  0  0  0  0  0
    5.5362   -3.4960    0.6271 H   0  0  0  0  0  0  0  0  0  0  0  0
    6.6946   -3.0704   -0.6431 H   0  0  0  0  0  0  0  0  0  0  0  0
    7.0118   -2.6134    1.0512 H   0  0  0  0  0  0  0  0  0  0  0  0
  1  2  2  0  0  0  0
  1  3  2  0  0  0  0
  1  5  1  0  0  0  0
  1  8  1  0  0  0  0
  4 13  2  0  0  0  0
  5  9  1  0  0  0  0
  5 10  1  0  0  0  0
  6 13  1  0  0  0  0
  6 18  1  0  0  0  0
  6 33  1  0  0  0  0
  7 18  1  0  0  0  0
  7 20  2  0  0  0  0
  8 11  2  0  0  0  0
  8 12  1  0  0  0  0
  9 13  1  0  0  0  0
  9 24  1  0  0  0  0
  9 25  1  0  0  0  0
 10 26  1  0  0  0  0
 10 27  1  0  0  0  0
 10 28  1  0  0  0  0
 11 15  1  0  0  0  0
 11 29  1  0  0  0  0
 12 16  2  0  0  0  0
 12 30  1  0  0  0  0
 14 15  2  0  0  0  0
 14 16  1  0  0  0  0
 14 17  1  0  0  0  0
 15 31  1  0  0  0  0
 16 32  1  0  0  0  0
 17 34  1  0  0  0  0
 17 35  1  0  0  0  0
 17 36  1  0  0  0  0
 18 19  2  0  0  0  0
 19 21  1  0  0  0  0
 19 37  1  0  0  0  0
 20 22  1  0  0  0  0
 20 23  1  0  0  0  0
 21 22  2  0  0  0  0
 21 38  1  0  0  0  0
 22 39  1  0  0  0  0
 23 40  1  0  0  0  0
 23 41  1  0  0  0  0
 23 42  1  0  0  0  0
M  END
> <PUBCHEM_COMPOUND_CID>
848420

> <PUBCHEM_CONFORMER_RMSD>
0.8

> <PUBCHEM_CONFORMER_DIVERSEORDER>
1
50
38
22
26
6
16
11
42
39
35
51
12
21
34
33
9
27
37
31
40
8
45
15
52
47
23
10
5
29
17
28
24
18
36
4
43
19
30
46
48
25
3
49
44
20
2
7
14
41
13
32

> <PUBCHEM_MMFF94_PARTIAL_CHARGES>
31
1 1.45
10 0.36
11 -0.15
12 -0.15
13 0.57
14 -0.14
15 -0.15
16 -0.15
17 0.14
18 0.43
19 -0.15
2 -0.65
20 0.17
21 -0.15
22 -0.15
23 0.14
29 0.15
3 -0.65
30 0.15
31 0.15
32 0.15
33 0.37
37 0.15
38 0.15
39 0.15
4 -0.57
5 -0.85
6 -0.55
7 -0.62
8 -0.01
9 0.42

> <PUBCHEM_EFFECTIVE_ROTOR_COUNT>
6

> <PUBCHEM_PHARMACOPHORE_FEATURES>
7
1 2 acceptor
1 3 acceptor
1 4 acceptor
1 6 donor
1 7 acceptor
6 7 18 19 20 21 22 rings
6 8 11 12 14 15 16 rings

> <PUBCHEM_HEAVY_ATOM_COUNT>
23

> <PUBCHEM_ATOM_DEF_STEREO_COUNT>
0

> <PUBCHEM_ATOM_UDEF_STEREO_COUNT>
0

> <PUBCHEM_BOND_DEF_STEREO_COUNT>
0

> <PUBCHEM_BOND_UDEF_STEREO_COUNT>
0

> <PUBCHEM_ISOTOPIC_ATOM_COUNT>
0

> <PUBCHEM_COMPONENT_COUNT>
1

> <PUBCHEM_CACTVS_TAUTO_COUNT>
3

> <PUBCHEM_CONFORMER_ID>
000CF22400000001

> <PUBCHEM_MMFF94_ENERGY>
54.0761

> <PUBCHEM_FEATURE_SELFOVERLAP>
35.541

> <PUBCHEM_SHAPE_FINGERPRINT>
10 15 11239994585655822791
10595046 47 18408608076232271756
11315181 36 18341894086565918849
11370993 144 10663828472398844152
11545043 162 17846211116766191968
12592606 108 18268428109641094911
12596602 18 17632863036048565754
12633257 1 16056322868318546815
12760667 363 18343020017296856443
13073987 5 18272649039768003240
13167823 11 18409167680321429058
13631057 29 18412261757212541219
14211702 104 18200880578443953998
14251740 79 18333732425096730475
14347332 77 18411136948195496267
14461889 52 18339633543258609570
14931854 50 17894897569339334547
14950920 106 16845013532453281459
15183329 4 16660636363024374938
15250474 111 18115859711943717202
15880784 105 18409169883608166024
17844677 252 18201721752052083784
17857418 61 18410012126552337234
17870717 6 17603299380417896019
17959699 21 8430317935240369804
18222031 100 18187640332235960128
18927931 339 18342183262909251095
20691028 202 8718558198481630935
21054139 6 18259982674279474706
21236236 1 18410295783040066523
21315759 148 17274551953448100510
21585483 132 17896023374736227474
21623969 137 17918275333965807478
220451 1 18337686213254855768
22393880 68 17967520277455357633
2303208 19 16988571169618229412
23522609 53 18124630623309359561
23559900 14 18337943589059682057
25122255 55 18341900645392547134
270888 7 8573894367462910343
2838139 119 11458424661062832186
3004659 81 18115016524274888943
314194 84 18409738373984925306
329604 57 18412828001590338752
4015057 19 17822587087384210808
465052 167 18201721777926908686
484985 159 18343865516195711235
497634 4 18335139773762177957
5104073 3 18060137622468326832
531348 171 17532643538438947173
559249 180 18339358548844540645
5718773 13 18198054975489870671
5924683 9 18412547587423304961
59755656 520 18196650697325242601
6431902 208 18409731785115268003
7226269 152 10665219358771170542
7495541 125 18131348614280793936
7970288 3 18267864072237956623

> <PUBCHEM_SHAPE_MULTIPOLES>
444.63
16.84
2.98
1.14
15.79
1.01
-0.02
13
1.87
-2.31
-0.13
-1.22
-0.25
-0.94

> <PUBCHEM_SHAPE_SELFOVERLAP>
919.761

> <PUBCHEM_SHAPE_VOLUME>
256.4

> <PUBCHEM_COORDINATE_TYPE>
2
5
10

$$$$
