3115458
  -OEChem-01171811463D

 40 42  0     1  0  0  0  0  0999 V2000
    1.6315    0.5713    2.4993 O   0  0  0  0  0  0  0  0  0  0  0  0
   -0.7165   -0.3040    1.6395 O   0  0  0  0  0  0  0  0  0  0  0  0
   -0.3580   -1.6917   -0.9758 O   0  0  0  0  0  0  0  0  0  0  0  0
   -2.5890    0.4784   -0.1079 O   0  0  0  0  0  0  0  0  0  0  0  0
   -2.0531    2.0301   -1.7402 O   0  0  0  0  0  0  0  0  0  0  0  0
   -4.0539   -1.8995    0.1339 O   0  0  0  0  0  0  0  0  0  0  0  0
    1.5289    2.0208    0.6200 N   0  0  0  0  0  0  0  0  0  0  0  0
    1.5070    0.6513    1.0900 C   0  0  2  0  0  0  0  0  0  0  0  0
    0.1077    0.1395    0.5893 C   0  0  2  0  0  0  0  0  0  0  0  0
    2.4955   -0.2161    0.3706 C   0  0  0  0  0  0  0  0  0  0  0  0
   -0.4646    1.3437   -0.1206 C   0  0  0  0  0  0  0  0  0  0  0  0
    0.4380   -0.9965   -0.3702 C   0  0  0  0  0  0  0  0  0  0  0  0
    1.8855   -1.1534   -0.4595 C   0  0  0  0  0  0  0  0  0  0  0  0
    0.3906    2.3792   -0.0668 C   0  0  0  0  0  0  0  0  0  0  0  0
    3.8796   -0.1696    0.4495 C   0  0  0  0  0  0  0  0  0  0  0  0
    2.5990   -2.0595   -1.2228 C   0  0  0  0  0  0  0  0  0  0  0  0
   -1.7712    1.3446   -0.7637 C   0  0  0  0  0  0  0  0  0  0  0  0
    0.2655    3.7550   -0.6186 C   0  0  0  0  0  0  0  0  0  0  0  0
    4.6267   -1.0741   -0.3120 C   0  0  0  0  0  0  0  0  0  0  0  0
    3.9905   -2.0124   -1.1415 C   0  0  0  0  0  0  0  0  0  0  0  0
   -3.9187    0.3666   -0.6259 C   0  0  0  0  0  0  0  0  0  0  0  0
   -4.6938   -0.6316    0.2123 C   0  0  0  0  0  0  0  0  0  0  0  0
   -4.7273   -2.8721    0.9209 C   0  0  0  0  0  0  0  0  0  0  0  0
    2.2960    2.6641    0.7627 H   0  0  0  0  0  0  0  0  0  0  0  0
    4.3797    0.5519    1.0874 H   0  0  0  0  0  0  0  0  0  0  0  0
    0.9833    1.1900    2.8765 H   0  0  0  0  0  0  0  0  0  0  0  0
   -0.1953   -0.9091    2.1943 H   0  0  0  0  0  0  0  0  0  0  0  0
    2.1056   -2.7816   -1.8632 H   0  0  0  0  0  0  0  0  0  0  0  0
    0.9548    3.8910   -1.4581 H   0  0  0  0  0  0  0  0  0  0  0  0
    0.5137    4.4952    0.1498 H   0  0  0  0  0  0  0  0  0  0  0  0
   -0.7447    3.9838   -0.9659 H   0  0  0  0  0  0  0  0  0  0  0  0
    5.7121   -1.0519   -0.2620 H   0  0  0  0  0  0  0  0  0  0  0  0
    4.5897   -2.7062   -1.7249 H   0  0  0  0  0  0  0  0  0  0  0  0
   -4.4094    1.3454   -0.5925 H   0  0  0  0  0  0  0  0  0  0  0  0
   -3.8603    0.0158   -1.6628 H   0  0  0  0  0  0  0  0  0  0  0  0
   -5.7224   -0.7109   -0.1563 H   0  0  0  0  0  0  0  0  0  0  0  0
   -4.7061   -0.3047    1.2585 H   0  0  0  0  0  0  0  0  0  0  0  0
   -4.1975   -3.8231    0.8202 H   0  0  0  0  0  0  0  0  0  0  0  0
   -5.7548   -3.0059    0.5693 H   0  0  0  0  0  0  0  0  0  0  0  0
   -4.7242   -2.5813    1.9759 H   0  0  0  0  0  0  0  0  0  0  0  0
  1  8  1  0  0  0  0
  1 26  1  0  0  0  0
  2  9  1  0  0  0  0
  2 27  1  0  0  0  0
  3 12  2  0  0  0  0
  4 17  1  0  0  0  0
  4 21  1  0  0  0  0
  5 17  2  0  0  0  0
  6 22  1  0  0  0  0
  6 23  1  0  0  0  0
  7  8  1  0  0  0  0
  7 14  1  0  0  0  0
  7 24  1  0  0  0  0
  8  9  1  0  0  0  0
  8 10  1  0  0  0  0
  9 11  1  0  0  0  0
  9 12  1  0  0  0  0
 10 13  1  0  0  0  0
 10 15  2  0  0  0  0
 11 14  2  0  0  0  0
 11 17  1  0  0  0  0
 12 13  1  0  0  0  0
 13 16  2  0  0  0  0
 14 18  1  0  0  0  0
 15 19  1  0  0  0  0
 15 25  1  0  0  0  0
 16 20  1  0  0  0  0
 16 28  1  0  0  0  0
 18 29  1  0  0  0  0
 18 30  1  0  0  0  0
 18 31  1  0  0  0  0
 19 20  2  0  0  0  0
 19 32  1  0  0  0  0
 20 33  1  0  0  0  0
 21 22  1  0  0  0  0
 21 34  1  0  0  0  0
 21 35  1  0  0  0  0
 22 36  1  0  0  0  0
 22 37  1  0  0  0  0
 23 38  1  0  0  0  0
 23 39  1  0  0  0  0
 23 40  1  0  0  0  0
M  END
> <PUBCHEM_COMPOUND_CID>
3115458

> <PUBCHEM_CONFORMER_RMSD>
0.8

> <PUBCHEM_CONFORMER_DIVERSEORDER>
1
7
53
16
11
41
15
42
28
46
48
13
30
54
3
25
66
47
24
18
59
34
17
61
10
8
49
39
5
22
63
9
23
65
14
6
40
32
33
69
20
2
38
67
19
27
35
50
21
64
4
44
12
29
36
62
26
55
60
37
57
31
45
52
56
68
58
43
51

> <PUBCHEM_MMFF94_PARTIAL_CHARGES>
30
1 -0.68
10 -0.14
11 -0.12
12 0.42
13 0.09
14 -0.04
15 -0.15
16 -0.15
17 0.71
18 0.14
19 -0.15
2 -0.68
20 -0.15
21 0.28
22 0.28
23 0.28
24 0.4
25 0.15
26 0.4
27 0.4
28 0.15
3 -0.57
32 0.15
33 0.15
4 -0.43
5 -0.57
6 -0.56
7 -0.87
8 0.79
9 0.48

> <PUBCHEM_EFFECTIVE_ROTOR_COUNT>
5.2

> <PUBCHEM_PHARMACOPHORE_FEATURES>
12
1 1 acceptor
1 1 donor
1 2 acceptor
1 2 donor
1 3 acceptor
1 5 acceptor
1 6 acceptor
1 7 cation
1 7 donor
5 7 8 9 11 14 rings
5 8 9 10 12 13 rings
6 10 13 15 16 19 20 rings

> <PUBCHEM_HEAVY_ATOM_COUNT>
23

> <PUBCHEM_ATOM_DEF_STEREO_COUNT>
0

> <PUBCHEM_ATOM_UDEF_STEREO_COUNT>
2

> <PUBCHEM_BOND_DEF_STEREO_COUNT>
0

> <PUBCHEM_BOND_UDEF_STEREO_COUNT>
0

> <PUBCHEM_ISOTOPIC_ATOM_COUNT>
0

> <PUBCHEM_COMPONENT_COUNT>
1

> <PUBCHEM_CACTVS_TAUTO_COUNT>
2

> <PUBCHEM_CONFORMER_ID>
002F89C200000001

> <PUBCHEM_MMFF94_ENERGY>
66.2597

> <PUBCHEM_FEATURE_SELFOVERLAP>
61.479

> <PUBCHEM_SHAPE_FINGERPRINT>
11578080 2 13826140341845213296
12035758 1 18201145637923517954
12422481 6 18052794104560161952
12553582 1 18187918453185675441
13464513 79 18341890805268667135
14787075 74 18041285451800976884
14790565 3 17402614541730300509
15527383 91 17989209205460318377
16945 1 16831494680633992368
17357779 13 18340476790534466685
18785283 64 18198617929373840096
221490 88 18337394949757429619
22182313 1 18268972285163018924
23402539 116 18115585929426947836
23419403 2 18059847389720808026
23557571 272 18338514114902500764
23559900 14 18051124797117800102
2748010 2 18197473208498189709
5104073 3 17915174620917934026

> <PUBCHEM_SHAPE_MULTIPOLES>
433.13
8.11
3.23
1.39
4.98
1.5
-0.43
-7.25
0.32
1.24
0.73
-0.31
0.08
1.95

> <PUBCHEM_SHAPE_SELFOVERLAP>
947.166

> <PUBCHEM_SHAPE_VOLUME>
237

> <PUBCHEM_COORDINATE_TYPE>
2
5
10

$$$$
