6490887
  -OEChem-01171812053D

 48 49  0     0  0  0  0  0  0999 V2000
    1.5338   -2.7021   -1.4260 O   0  0  0  0  0  0  0  0  0  0  0  0
    0.5523    1.7522    0.9368 O   0  0  0  0  0  0  0  0  0  0  0  0
    3.3170    1.9305   -1.1980 O   0  0  0  0  0  0  0  0  0  0  0  0
    2.0710   -1.8544    0.6654 N   0  0  0  0  0  0  0  0  0  0  0  0
    3.0154    0.7329    0.7657 N   0  0  0  0  0  0  0  0  0  0  0  0
   -4.1440   -0.1355    0.1433 C   0  0  0  0  0  0  0  0  0  0  0  0
   -2.7509   -0.6495    0.0029 C   0  0  0  0  0  0  0  0  0  0  0  0
   -5.1686   -1.0795   -0.5589 C   0  0  0  0  0  0  0  0  0  0  0  0
   -4.6582    0.0172    1.6133 C   0  0  0  0  0  0  0  0  0  0  0  0
   -4.2923    1.2794   -0.4973 C   0  0  0  0  0  0  0  0  0  0  0  0
   -2.1960   -0.8215   -1.2653 C   0  0  0  0  0  0  0  0  0  0  0  0
   -2.0026   -0.9574    1.1390 C   0  0  0  0  0  0  0  0  0  0  0  0
   -0.1738   -1.5983   -0.2581 C   0  0  0  0  0  0  0  0  0  0  0  0
   -0.8929   -1.3013   -1.3973 C   0  0  0  0  0  0  0  0  0  0  0  0
   -0.6995   -1.4370    1.0072 C   0  0  0  0  0  0  0  0  0  0  0  0
    4.3769   -1.2054    0.0779 C   0  0  0  0  0  0  0  0  0  0  0  0
    3.4485   -2.2646    0.6681 C   0  0  0  0  0  0  0  0  0  0  0  0
    1.2135   -2.1109   -0.3981 C   0  0  0  0  0  0  0  0  0  0  0  0
    4.3225    0.1364    0.8053 C   0  0  0  0  0  0  0  0  0  0  0  0
    2.6139    1.5944   -0.2487 C   0  0  0  0  0  0  0  0  0  0  0  0
    1.2403    2.1480   -0.1312 C   0  0  0  0  0  0  0  0  0  0  0  0
    0.5903    2.9872   -0.9405 C   0  0  0  0  0  0  0  0  0  0  0  0
   -0.6716    3.1554   -0.3221 C   0  0  0  0  0  0  0  0  0  0  0  0
   -0.6449    2.3838    0.8163 C   0  0  0  0  0  0  0  0  0  0  0  0
   -6.1960   -0.7193   -0.4306 H   0  0  0  0  0  0  0  0  0  0  0  0
   -4.9846   -1.1536   -1.6363 H   0  0  0  0  0  0  0  0  0  0  0  0
   -5.1127   -2.0925   -0.1434 H   0  0  0  0  0  0  0  0  0  0  0  0
   -5.6854    0.4010    1.6343 H   0  0  0  0  0  0  0  0  0  0  0  0
   -4.6650   -0.9450    2.1386 H   0  0  0  0  0  0  0  0  0  0  0  0
   -4.0415    0.7220    2.1833 H   0  0  0  0  0  0  0  0  0  0  0  0
   -4.0582    1.2731   -1.5673 H   0  0  0  0  0  0  0  0  0  0  0  0
   -5.3162    1.6569   -0.3929 H   0  0  0  0  0  0  0  0  0  0  0  0
   -3.6220    1.9986   -0.0148 H   0  0  0  0  0  0  0  0  0  0  0  0
   -2.7554   -0.5884   -2.1667 H   0  0  0  0  0  0  0  0  0  0  0  0
   -2.3872   -0.8489    2.1472 H   0  0  0  0  0  0  0  0  0  0  0  0
   -0.4734   -1.4240   -2.3912 H   0  0  0  0  0  0  0  0  0  0  0  0
   -0.1650   -1.6974    1.9146 H   0  0  0  0  0  0  0  0  0  0  0  0
    5.4058   -1.5827    0.1070 H   0  0  0  0  0  0  0  0  0  0  0  0
    4.1219   -1.0523   -0.9785 H   0  0  0  0  0  0  0  0  0  0  0  0
    3.7234   -2.4703    1.7082 H   0  0  0  0  0  0  0  0  0  0  0  0
    3.5492   -3.1982    0.1040 H   0  0  0  0  0  0  0  0  0  0  0  0
    4.5895    0.0071    1.8595 H   0  0  0  0  0  0  0  0  0  0  0  0
    5.0468    0.8263    0.3586 H   0  0  0  0  0  0  0  0  0  0  0  0
    1.7530   -1.3331    1.4736 H   0  0  0  0  0  0  0  0  0  0  0  0
    2.3786    0.5497    1.5351 H   0  0  0  0  0  0  0  0  0  0  0  0
    0.9368    3.4394   -1.8582 H   0  0  0  0  0  0  0  0  0  0  0  0
   -1.4974    3.7630   -0.6630 H   0  0  0  0  0  0  0  0  0  0  0  0
   -1.3575    2.1902    1.6048 H   0  0  0  0  0  0  0  0  0  0  0  0
  1 18  2  0  0  0  0
  2 21  1  0  0  0  0
  2 24  1  0  0  0  0
  3 20  2  0  0  0  0
  4 17  1  0  0  0  0
  4 18  1  0  0  0  0
  4 44  1  0  0  0  0
  5 19  1  0  0  0  0
  5 20  1  0  0  0  0
  5 45  1  0  0  0  0
  6  7  1  0  0  0  0
  6  8  1  0  0  0  0
  6  9  1  0  0  0  0
  6 10  1  0  0  0  0
  7 11  2  0  0  0  0
  7 12  1  0  0  0  0
  8 25  1  0  0  0  0
  8 26  1  0  0  0  0
  8 27  1  0  0  0  0
  9 28  1  0  0  0  0
  9 29  1  0  0  0  0
  9 30  1  0  0  0  0
 10 31  1  0  0  0  0
 10 32  1  0  0  0  0
 10 33  1  0  0  0  0
 11 14  1  0  0  0  0
 11 34  1  0  0  0  0
 12 15  2  0  0  0  0
 12 35  1  0  0  0  0
 13 14  2  0  0  0  0
 13 15  1  0  0  0  0
 13 18  1  0  0  0  0
 14 36  1  0  0  0  0
 15 37  1  0  0  0  0
 16 17  1  0  0  0  0
 16 19  1  0  0  0  0
 16 38  1  0  0  0  0
 16 39  1  0  0  0  0
 17 40  1  0  0  0  0
 17 41  1  0  0  0  0
 19 42  1  0  0  0  0
 19 43  1  0  0  0  0
 20 21  1  0  0  0  0
 21 22  2  0  0  0  0
 22 23  1  0  0  0  0
 22 46  1  0  0  0  0
 23 24  2  0  0  0  0
 23 47  1  0  0  0  0
 24 48  1  0  0  0  0
M  END
> <PUBCHEM_COMPOUND_CID>
6490887

> <PUBCHEM_CONFORMER_RMSD>
1

> <PUBCHEM_CONFORMER_DIVERSEORDER>
1
6
29
16
34
20
46
15
33
13
36
25
47
26
30
24
8
22
9
4
42
17
44
35
7
10
21
43
32
23
12
45
14
5
11
18
40
38
39
37
3
31
27
19
41
2
28

> <PUBCHEM_MMFF94_PARTIAL_CHARGES>
29
1 -0.57
11 -0.15
12 -0.15
13 0.09
14 -0.15
15 -0.15
17 0.3
18 0.54
19 0.3
2 -0.28
20 0.71
21 0.05
22 -0.15
23 -0.15
24 -0.01
3 -0.57
34 0.15
35 0.15
36 0.15
37 0.15
4 -0.73
44 0.37
45 0.37
46 0.15
47 0.15
48 0.15
5 -0.73
6 0.14
7 -0.14

> <PUBCHEM_EFFECTIVE_ROTOR_COUNT>
9

> <PUBCHEM_PHARMACOPHORE_FEATURES>
8
1 1 acceptor
1 2 acceptor
1 3 acceptor
1 4 donor
1 5 donor
4 6 8 9 10 hydrophobe
5 2 21 22 23 24 rings
6 7 11 12 13 14 15 rings

> <PUBCHEM_HEAVY_ATOM_COUNT>
24

> <PUBCHEM_ATOM_DEF_STEREO_COUNT>
0

> <PUBCHEM_ATOM_UDEF_STEREO_COUNT>
0

> <PUBCHEM_BOND_DEF_STEREO_COUNT>
0

> <PUBCHEM_BOND_UDEF_STEREO_COUNT>
0

> <PUBCHEM_ISOTOPIC_ATOM_COUNT>
0

> <PUBCHEM_COMPONENT_COUNT>
1

> <PUBCHEM_CACTVS_TAUTO_COUNT>
4

> <PUBCHEM_CONFORMER_ID>
00630B0700000001

> <PUBCHEM_MMFF94_ENERGY>
48.9734

> <PUBCHEM_FEATURE_SELFOVERLAP>
40.601

> <PUBCHEM_SHAPE_FINGERPRINT>
10062212 137 18201716310243785767
104564 63 18339923715064208348
10688039 33 18041558048774448796
11578080 2 17386266728787570935
12422481 6 18126858092401585169
12592029 89 18270407221257788619
12633257 1 17749939072512660578
12788726 201 18261950752743104168
13075007 39 17896621629034659627
13140716 1 18123467438954210096
14178342 30 17621019294252024600
14251757 17 17899117344257255349
14790565 3 17975138952771356508
14840074 17 18411697729723436632
1601671 61 18343021085999791352
17357779 13 18197770007891500903
18785283 64 17970640794560776161
20600515 1 17676781880726272335
20905425 154 18341615858869249373
21304253 335 17845662443357883025
22182313 1 17627222356752021246
23184049 59 18342172293235774674
238 59 17541914912785146294
3052486 1 18045224838907307470
338550 245 18190751829609630245
350125 39 18341046325363745112
445580 8 18202001031946604358
474 4 18411135870122346867
484985 159 14933737662611223770
6287921 2 17630061364193338871
7064713 232 17773879692571865777
81228 2 17835256549169314579
9981440 41 16829226967687219785

> <PUBCHEM_SHAPE_MULTIPOLES>
466.34
8.63
3.56
1.3
3.61
1.96
0.01
-2.03
-1.23
-2.09
0.66
0.45
-0.21
-0.4

> <PUBCHEM_SHAPE_SELFOVERLAP>
979.761

> <PUBCHEM_SHAPE_VOLUME>
264.3

> <PUBCHEM_COORDINATE_TYPE>
2
5
10

$$$$
