3232508
  -OEChem-01171812073D

 64 66  0     1  0  0  0  0  0999 V2000
    3.0811    2.8712    0.3751 S   0  0  0  0  0  0  0  0  0  0  0  0
    0.1405    0.5637   -3.8778 F   0  0  0  0  0  0  0  0  0  0  0  0
    3.5870    3.5344    1.5572 O   0  0  0  0  0  0  0  0  0  0  0  0
    3.6783    3.0992   -0.9227 O   0  0  0  0  0  0  0  0  0  0  0  0
   -4.2389    1.9954    0.0445 O   0  0  0  0  0  0  0  0  0  0  0  0
   -3.9326   -2.4248    2.2014 O   0  0  0  0  0  0  0  0  0  0  0  0
    3.2178   -3.9180   -0.7468 O   0  0  0  0  0  0  0  0  0  0  0  0
    1.3919    3.1409    0.2638 N   0  0  0  0  0  0  0  0  0  0  0  0
   -1.9531    1.6098    0.1898 N   0  0  0  0  0  0  0  0  0  0  0  0
   -4.6371   -0.5032    1.0913 N   0  0  0  0  0  0  0  0  0  0  0  0
    3.1260   -2.9690    1.4095 N   0  0  0  0  0  0  0  0  0  0  0  0
   -1.5213    2.9865    0.1153 C   0  0  0  0  0  0  0  0  0  0  0  0
   -0.7858    3.4034    1.3918 C   0  0  0  0  0  0  0  0  0  0  0  0
   -0.6506    3.2347   -1.1203 C   0  0  0  0  0  0  0  0  0  0  0  0
    0.6091    2.7885    1.4838 C   0  0  0  0  0  0  0  0  0  0  0  0
    0.7476    2.6348   -0.9829 C   0  0  0  0  0  0  0  0  0  0  0  0
   -3.2864    1.2252    0.1479 C   0  0  0  0  0  0  0  0  0  0  0  0
    3.0945    1.1331    0.6828 C   0  0  0  0  0  0  0  0  0  0  0  0
   -3.4513   -0.2825    0.3023 C   0  0  2  0  0  0  0  0  0  0  0  0
   -3.5383   -0.9527   -1.0736 C   0  0  0  0  0  0  0  0  0  0  0  0
    3.1444    0.2547   -0.3875 C   0  0  0  0  0  0  0  0  0  0  0  0
    3.0548    0.6753    1.9898 C   0  0  0  0  0  0  0  0  0  0  0  0
   -2.1843   -1.1699   -1.7037 C   0  0  0  0  0  0  0  0  0  0  0  0
    3.1552   -1.1188   -0.1441 C   0  0  0  0  0  0  0  0  0  0  0  0
    3.0656   -0.6980    2.2333 C   0  0  0  0  0  0  0  0  0  0  0  0
    3.1157   -1.5952    1.1663 C   0  0  0  0  0  0  0  0  0  0  0  0
   -4.7759   -1.5606    1.9771 C   0  0  0  0  0  0  0  0  0  0  0  0
   -1.6446   -0.1818   -2.5120 C   0  0  0  0  0  0  0  0  0  0  0  0
   -1.5048   -2.3536   -1.4627 C   0  0  0  0  0  0  0  0  0  0  0  0
   -6.1018   -1.5410    2.6896 C   0  0  0  0  0  0  0  0  0  0  0  0
   -0.3931   -0.3825   -3.0941 C   0  0  0  0  0  0  0  0  0  0  0  0
   -0.2533   -2.5543   -2.0451 C   0  0  0  0  0  0  0  0  0  0  0  0
    0.3025   -1.5688   -2.8609 C   0  0  0  0  0  0  0  0  0  0  0  0
    3.1731   -4.0126    0.4755 C   0  0  0  0  0  0  0  0  0  0  0  0
    3.1680   -5.3636    1.1459 C   0  0  0  0  0  0  0  0  0  0  0  0
   -2.4154    3.6148    0.0247 H   0  0  0  0  0  0  0  0  0  0  0  0
   -1.3685    3.1255    2.2781 H   0  0  0  0  0  0  0  0  0  0  0  0
   -0.6894    4.4971    1.4011 H   0  0  0  0  0  0  0  0  0  0  0  0
   -0.5503    4.3191   -1.2617 H   0  0  0  0  0  0  0  0  0  0  0  0
   -1.1355    2.8435   -2.0211 H   0  0  0  0  0  0  0  0  0  0  0  0
    0.5200    1.7030    1.5878 H   0  0  0  0  0  0  0  0  0  0  0  0
    1.1026    3.1872    2.3762 H   0  0  0  0  0  0  0  0  0  0  0  0
    0.6843    1.5433   -0.9587 H   0  0  0  0  0  0  0  0  0  0  0  0
    1.3324    2.9288   -1.8602 H   0  0  0  0  0  0  0  0  0  0  0  0
   -1.2373    0.8951    0.2810 H   0  0  0  0  0  0  0  0  0  0  0  0
   -2.6043   -0.6878    0.8703 H   0  0  0  0  0  0  0  0  0  0  0  0
   -4.0396   -1.9266   -0.9860 H   0  0  0  0  0  0  0  0  0  0  0  0
   -4.1724   -0.3674   -1.7533 H   0  0  0  0  0  0  0  0  0  0  0  0
    3.1713    0.6056   -1.4147 H   0  0  0  0  0  0  0  0  0  0  0  0
    3.0141    1.3557    2.8349 H   0  0  0  0  0  0  0  0  0  0  0  0
   -5.4150    0.1410    0.9762 H   0  0  0  0  0  0  0  0  0  0  0  0
    3.1942   -1.7506   -1.0202 H   0  0  0  0  0  0  0  0  0  0  0  0
    3.0337   -1.0553    3.2595 H   0  0  0  0  0  0  0  0  0  0  0  0
   -2.1838    0.7392   -2.7114 H   0  0  0  0  0  0  0  0  0  0  0  0
   -1.9277   -3.1255   -0.8261 H   0  0  0  0  0  0  0  0  0  0  0  0
    3.0947   -3.2364    2.3912 H   0  0  0  0  0  0  0  0  0  0  0  0
   -6.2378   -2.4752    3.2412 H   0  0  0  0  0  0  0  0  0  0  0  0
   -6.1274   -0.7022    3.3906 H   0  0  0  0  0  0  0  0  0  0  0  0
   -6.9170   -1.4382    1.9677 H   0  0  0  0  0  0  0  0  0  0  0  0
    0.2897   -3.4768   -1.8614 H   0  0  0  0  0  0  0  0  0  0  0  0
    1.2776   -1.7240   -3.3128 H   0  0  0  0  0  0  0  0  0  0  0  0
    2.2656   -5.4724    1.7540 H   0  0  0  0  0  0  0  0  0  0  0  0
    3.1827   -6.1529    0.3893 H   0  0  0  0  0  0  0  0  0  0  0  0
    4.0521   -5.4639    1.7818 H   0  0  0  0  0  0  0  0  0  0  0  0
  1  3  2  0  0  0  0
  1  4  2  0  0  0  0
  1  8  1  0  0  0  0
  1 18  1  0  0  0  0
  2 31  1  0  0  0  0
  5 17  2  0  0  0  0
  6 27  2  0  0  0  0
  7 34  2  0  0  0  0
  8 15  1  0  0  0  0
  8 16  1  0  0  0  0
  9 12  1  0  0  0  0
  9 17  1  0  0  0  0
  9 45  1  0  0  0  0
 10 19  1  0  0  0  0
 10 27  1  0  0  0  0
 10 51  1  0  0  0  0
 11 26  1  0  0  0  0
 11 34  1  0  0  0  0
 11 56  1  0  0  0  0
 12 13  1  0  0  0  0
 12 14  1  0  0  0  0
 12 36  1  0  0  0  0
 13 15  1  0  0  0  0
 13 37  1  0  0  0  0
 13 38  1  0  0  0  0
 14 16  1  0  0  0  0
 14 39  1  0  0  0  0
 14 40  1  0  0  0  0
 15 41  1  0  0  0  0
 15 42  1  0  0  0  0
 16 43  1  0  0  0  0
 16 44  1  0  0  0  0
 17 19  1  0  0  0  0
 18 21  2  0  0  0  0
 18 22  1  0  0  0  0
 19 20  1  0  0  0  0
 19 46  1  0  0  0  0
 20 23  1  0  0  0  0
 20 47  1  0  0  0  0
 20 48  1  0  0  0  0
 21 24  1  0  0  0  0
 21 49  1  0  0  0  0
 22 25  2  0  0  0  0
 22 50  1  0  0  0  0
 23 28  2  0  0  0  0
 23 29  1  0  0  0  0
 24 26  2  0  0  0  0
 24 52  1  0  0  0  0
 25 26  1  0  0  0  0
 25 53  1  0  0  0  0
 27 30  1  0  0  0  0
 28 31  1  0  0  0  0
 28 54  1  0  0  0  0
 29 32  2  0  0  0  0
 29 55  1  0  0  0  0
 30 57  1  0  0  0  0
 30 58  1  0  0  0  0
 30 59  1  0  0  0  0
 31 33  2  0  0  0  0
 32 33  1  0  0  0  0
 32 60  1  0  0  0  0
 33 61  1  0  0  0  0
 34 35  1  0  0  0  0
 35 62  1  0  0  0  0
 35 63  1  0  0  0  0
 35 64  1  0  0  0  0
M  END
> <PUBCHEM_COMPOUND_CID>
3232508

> <PUBCHEM_CONFORMER_RMSD>
1.4

> <PUBCHEM_CONFORMER_DIVERSEORDER>
1
22
347
371
181
186
230
8
402
171
397
33
209
534
304
350
184
536
414
375
543
366
173
311
400
553
29
105
150
126
113
242
149
14
216
575
260
507
78
15
477
383
116
128
210
182
263
92
548
225
392
72
557
482
205
382
368
81
351
337
137
344
86
104
433
87
424
556
152
349
82
431
12
47
458
148
262
166
89
196
9
296
103
247
23
563
175
172
25
191
381
61
279
289
339
252
285
505
107
466
49
170
251
121
399
313
133
214
235
317
3
250
59
52
50
185
69
233
327
51
221
363
481
70
560
322
267
108
305
229
572
570
202
6
120
478
91
127
292
261
306
238
13
447
57
535
164
189
374
39
486
71
24
76
576
545
564
156
154
169
309
485
370
503
34
64
35
142
158
32
4
303
37
231
519
144
328
10
7
277
131
218
44
396
294
54
343
123
18
340
38
58
40
418
2
93
97
20
19
28
136
109
245
321
237
95
419
55
45
504
316
98
90
101
318
30
278
232
60
325
331
36
114
5
146
27
228
195
253
48
96
67
567
112
129
80

> <PUBCHEM_MMFF94_PARTIAL_CHARGES>
44
1 1.45
10 -0.73
11 -0.55
12 0.3
15 0.36
16 0.36
17 0.57
18 -0.01
19 0.36
2 -0.19
20 0.14
21 -0.15
22 -0.15
23 -0.14
24 -0.15
25 -0.15
26 0.12
27 0.57
28 -0.15
29 -0.15
3 -0.65
30 0.06
31 0.19
32 -0.15
33 -0.15
34 0.57
35 0.06
4 -0.65
45 0.37
49 0.15
5 -0.57
50 0.15
51 0.37
52 0.15
53 0.15
54 0.15
55 0.15
56 0.37
6 -0.57
60 0.15
61 0.15
7 -0.57
8 -0.85
9 -0.73

> <PUBCHEM_EFFECTIVE_ROTOR_COUNT>
12.2

> <PUBCHEM_PHARMACOPHORE_FEATURES>
11
1 10 donor
1 11 donor
1 3 acceptor
1 4 acceptor
1 5 acceptor
1 6 acceptor
1 7 acceptor
1 9 donor
6 18 21 22 24 25 26 rings
6 23 28 29 31 32 33 rings
6 8 12 13 14 15 16 rings

> <PUBCHEM_HEAVY_ATOM_COUNT>
35

> <PUBCHEM_ATOM_DEF_STEREO_COUNT>
0

> <PUBCHEM_ATOM_UDEF_STEREO_COUNT>
1

> <PUBCHEM_BOND_DEF_STEREO_COUNT>
0

> <PUBCHEM_BOND_UDEF_STEREO_COUNT>
0

> <PUBCHEM_ISOTOPIC_ATOM_COUNT>
0

> <PUBCHEM_COMPONENT_COUNT>
1

> <PUBCHEM_CACTVS_TAUTO_COUNT>
8

> <PUBCHEM_CONFORMER_ID>
003152FC00000001

> <PUBCHEM_MMFF94_ENERGY>
68.4387

> <PUBCHEM_FEATURE_SELFOVERLAP>
55.841

> <PUBCHEM_SHAPE_FINGERPRINT>
11421498 54 18115891683874862860
12047536 79 18126035774517244513
12128747 34 18187634835215839797
12156800 1 17553245062102105276
12422481 6 18130235891486544113
13947930 73 17971464113805422915
14468879 13 12103267348522151539
14725015 67 15964291094641244841
150020 26 18057318388364959850
16067690 210 15195294165497544427
19311894 1 17838881978925725958
19319366 153 18195245748570301196
20764821 26 18048296032402635962
238918 7 16620654555510906454
35225 105 16886947488169766358
57091435 65 18341895203563026636

> <PUBCHEM_SHAPE_MULTIPOLES>
667.59
9.14
6.15
3.15
7.91
2.1
-1.66
4.66
7.68
-6.6
1.69
1.94
1.52
0.52

> <PUBCHEM_SHAPE_SELFOVERLAP>
1388.679

> <PUBCHEM_SHAPE_VOLUME>
380.8

> <PUBCHEM_COORDINATE_TYPE>
2
5
10

$$$$
