1482877
  -OEChem-01171812053D

 32 34  0     0  0  0  0  0  0999 V2000
   -5.1644   -0.4025    0.2918 S   0  0  0  0  0  0  0  0  0  0  0  0
   -6.5270   -0.3047   -0.1972 O   0  0  0  0  0  0  0  0  0  0  0  0
   -4.5557   -1.6975    0.5232 O   0  0  0  0  0  0  0  0  0  0  0  0
    3.4397   -0.7443    0.1189 N   0  0  0  0  0  0  0  0  0  0  0  0
   -4.1581    0.5824   -0.7000 N   0  0  0  0  0  0  0  0  0  0  0  0
    2.3122    1.1552   -0.1544 N   0  0  0  0  0  0  0  0  0  0  0  0
    4.7322    1.2654    0.0589 N   0  0  0  0  0  0  0  0  0  0  0  0
    0.0287    0.2168   -0.2808 C   0  0  0  0  0  0  0  0  0  0  0  0
    1.4461    0.0931   -0.1393 C   0  0  0  0  0  0  0  0  0  0  0  0
   -2.7429    0.4589   -0.5582 C   0  0  0  0  0  0  0  0  0  0  0  0
    2.1184   -1.0923    0.0286 C   0  0  0  0  0  0  0  0  0  0  0  0
   -0.7124   -0.8139   -0.8658 C   0  0  0  0  0  0  0  0  0  0  0  0
   -0.6250    1.3695    0.1647 C   0  0  0  0  0  0  0  0  0  0  0  0
    3.5181    0.6395    0.0026 C   0  0  0  0  0  0  0  0  0  0  0  0
   -2.0951   -0.6931   -1.0044 C   0  0  0  0  0  0  0  0  0  0  0  0
   -2.0077    1.4903    0.0263 C   0  0  0  0  0  0  0  0  0  0  0  0
    4.5551   -1.5468    0.2929 C   0  0  0  0  0  0  0  0  0  0  0  0
   -5.0961    0.5128    1.8156 C   0  0  0  0  0  0  0  0  0  0  0  0
    5.7671   -0.9852    0.3540 C   0  0  0  0  0  0  0  0  0  0  0  0
    5.7667    0.4962    0.2223 C   0  0  0  0  0  0  0  0  0  0  0  0
    1.7960   -2.1231    0.0975 H   0  0  0  0  0  0  0  0  0  0  0  0
   -0.2384   -1.7191   -1.2377 H   0  0  0  0  0  0  0  0  0  0  0  0
   -0.0736    2.1849    0.6272 H   0  0  0  0  0  0  0  0  0  0  0  0
   -2.6522   -1.4986   -1.4759 H   0  0  0  0  0  0  0  0  0  0  0  0
   -2.5022    2.3916    0.3792 H   0  0  0  0  0  0  0  0  0  0  0  0
   -4.4817    1.5513   -0.8239 H   0  0  0  0  0  0  0  0  0  0  0  0
    4.4033   -2.6164    0.3743 H   0  0  0  0  0  0  0  0  0  0  0  0
   -4.0744    0.5016    2.1986 H   0  0  0  0  0  0  0  0  0  0  0  0
   -5.4383    1.5333    1.6338 H   0  0  0  0  0  0  0  0  0  0  0  0
   -5.7610    0.0232    2.5308 H   0  0  0  0  0  0  0  0  0  0  0  0
    6.6904   -1.5294    0.4872 H   0  0  0  0  0  0  0  0  0  0  0  0
    6.7642    0.9629    0.2727 H   0  0  0  0  0  0  0  0  0  0  0  0
  1  2  2  0  0  0  0
  1  3  2  0  0  0  0
  1  5  1  0  0  0  0
  1 18  1  0  0  0  0
  4 11  1  0  0  0  0
  4 14  1  0  0  0  0
  4 17  1  0  0  0  0
  5 10  1  0  0  0  0
  5 26  1  0  0  0  0
  6  9  1  0  0  0  0
  6 14  2  0  0  0  0
  7 14  1  0  0  0  0
  7 20  2  0  0  0  0
  8  9  1  0  0  0  0
  8 12  2  0  0  0  0
  8 13  1  0  0  0  0
  9 11  2  0  0  0  0
 10 15  2  0  0  0  0
 10 16  1  0  0  0  0
 11 21  1  0  0  0  0
 12 15  1  0  0  0  0
 12 22  1  0  0  0  0
 13 16  2  0  0  0  0
 13 23  1  0  0  0  0
 15 24  1  0  0  0  0
 16 25  1  0  0  0  0
 17 19  2  0  0  0  0
 17 27  1  0  0  0  0
 18 28  1  0  0  0  0
 18 29  1  0  0  0  0
 18 30  1  0  0  0  0
 19 20  1  0  0  0  0
 19 31  1  0  0  0  0
 20 32  1  0  0  0  0
M  END
> <PUBCHEM_COMPOUND_CID>
1482877

> <PUBCHEM_CONFORMER_RMSD>
0.6

> <PUBCHEM_CONFORMER_DIVERSEORDER>
1
25
9
13
26
18
6
12
27
23
10
17
14
16
20
11
15
8
5
3
7
19
21
22
24
2
4

> <PUBCHEM_MMFF94_PARTIAL_CHARGES>
29
1 1.33
10 0.2
11 -0.3
12 -0.15
13 -0.15
14 0.31
15 -0.15
16 -0.15
17 -0.18
18 0.11
19 -0.14
2 -0.65
20 0.38
21 0.15
22 0.15
23 0.15
24 0.15
25 0.15
26 0.42
27 0.15
3 -0.65
31 0.15
32 0.06
4 0.33
5 -0.76
6 -0.57
7 -0.58
8 0.05
9 0.17

> <PUBCHEM_EFFECTIVE_ROTOR_COUNT>
3

> <PUBCHEM_PHARMACOPHORE_FEATURES>
8
1 2 acceptor
1 3 acceptor
1 5 donor
1 7 acceptor
4 4 6 7 14 cation
5 4 6 9 11 14 rings
6 4 7 14 17 19 20 rings
6 8 10 12 13 15 16 rings

> <PUBCHEM_HEAVY_ATOM_COUNT>
20

> <PUBCHEM_ATOM_DEF_STEREO_COUNT>
0

> <PUBCHEM_ATOM_UDEF_STEREO_COUNT>
0

> <PUBCHEM_BOND_DEF_STEREO_COUNT>
0

> <PUBCHEM_BOND_UDEF_STEREO_COUNT>
0

> <PUBCHEM_ISOTOPIC_ATOM_COUNT>
0

> <PUBCHEM_COMPONENT_COUNT>
1

> <PUBCHEM_CACTVS_TAUTO_COUNT>
1

> <PUBCHEM_CONFORMER_ID>
0016A07D00000001

> <PUBCHEM_MMFF94_ENERGY>
50.7831

> <PUBCHEM_FEATURE_SELFOVERLAP>
40.747

> <PUBCHEM_SHAPE_FINGERPRINT>
10 15 18262227924521273792
10354089 29 18413388744136278764
106641 1 17988361568063558027
11287383 113 18040434404015372236
11315181 36 14418139504036066572
12107183 9 17617938028578430904
12236239 1 18272933816814779088
12596602 18 18131072640624446283
12916748 109 18272371954052443220
13288520 33 16588026810286599253
13533116 47 18409727331798379330
13668630 136 13984666940600921467
13760787 5 18343292686857342277
13862211 1 18272082816774994479
1420 363 17748549233774503723
14251764 18 18273218612676714595
14341114 176 18335704935855442558
15196674 1 18411133598226818780
15716309 27 18410855464903371911
17492 89 18195523684694543402
17834072 8 9583522035937122048
17844677 252 18259988154045944685
18222031 100 15574436505488265286
19489759 90 16443061677957791197
200 152 18410851053497127284
20281389 69 13973967588561373427
20645477 56 14620792678585278601
20645477 70 18336543820826752662
21150785 3 9727341412588570081
21267235 1 18340771455899049022
21623969 137 18410298007817866667
22224240 67 17418372506894363295
23402539 116 12540693730312036587
23522609 53 18127156201523577232
23557571 272 16805599218651491983
23559900 14 17894629309612496497
26918003 58 18333168375589093019
2838139 119 11240002230956475531
29717793 49 12035443918276166194
34797466 226 14923953323542238350
3545911 37 18410571795425012092
4073 2 17822296820234522386
4214541 1 18336261254126463196
4325135 7 18040719190348506486
4463277 17 18413106156483678021
474229 33 18410573993937032311
5104073 3 18340761530023926272
542803 24 16272205297436413596
59755656 520 12391508676967647205
7495541 125 18201997767813741776

> <PUBCHEM_SHAPE_MULTIPOLES>
383.78
15.02
1.46
0.94
1.5
0.04
0.21
2.29
3.58
-0.45
0.08
1.15
0.01
-0.31

> <PUBCHEM_SHAPE_SELFOVERLAP>
826.171

> <PUBCHEM_SHAPE_VOLUME>
212.9

> <PUBCHEM_COORDINATE_TYPE>
2
5
10

$$$$
