5101939
  -OEChem-01171812133D

 59 61  0     0  0  0  0  0  0999 V2000
    4.7652    0.2601    1.4650 S   0  0  0  0  0  0  0  0  0  0  0  0
   -6.7541    0.1488   -0.8551 O   0  0  0  0  0  0  0  0  0  0  0  0
   -2.4334    2.0958    0.7303 O   0  0  0  0  0  0  0  0  0  0  0  0
   -0.3498   -3.0114    0.7453 O   0  0  0  0  0  0  0  0  0  0  0  0
    1.9430    1.3144    2.1707 O   0  0  0  0  0  0  0  0  0  0  0  0
    3.1589    2.9335   -1.6119 O   0  0  0  0  0  0  0  0  0  0  0  0
    4.8269    2.7454   -0.0793 O   0  0  0  0  0  0  0  0  0  0  0  0
   -4.0400   -0.0505   -0.1527 N   0  0  0  0  0  0  0  0  0  0  0  0
    1.2269   -0.8587    1.6191 N   0  0  0  0  0  0  0  0  0  0  0  0
    4.1580   -1.5163   -0.4160 N   0  0  0  0  0  0  0  0  0  0  0  0
   -4.6110   -0.9453   -1.1654 C   0  0  0  0  0  0  0  0  0  0  0  0
   -5.0093    0.5314    0.7859 C   0  0  0  0  0  0  0  0  0  0  0  0
   -2.7276   -0.2451    0.2898 C   0  0  0  0  0  0  0  0  0  0  0  0
   -5.8043   -0.2718   -1.8338 C   0  0  0  0  0  0  0  0  0  0  0  0
   -6.1809    1.1264    0.0130 C   0  0  0  0  0  0  0  0  0  0  0  0
   -1.9278    0.8301    0.7302 C   0  0  0  0  0  0  0  0  0  0  0  0
   -2.1628   -1.5370    0.3068 C   0  0  0  0  0  0  0  0  0  0  0  0
   -0.8551   -1.7455    0.7452 C   0  0  0  0  0  0  0  0  0  0  0  0
   -0.0840   -0.6659    1.1765 C   0  0  0  0  0  0  0  0  0  0  0  0
   -0.6202    0.6218    1.1689 C   0  0  0  0  0  0  0  0  0  0  0  0
   -1.7553    3.0639   -0.0674 C   0  0  0  0  0  0  0  0  0  0  0  0
   -0.8511   -3.9086   -0.2430 C   0  0  0  0  0  0  0  0  0  0  0  0
    2.1335    0.1040    2.0825 C   0  0  0  0  0  0  0  0  0  0  0  0
   -2.7572    4.0868   -0.5590 C   0  0  0  0  0  0  0  0  0  0  0  0
    3.4674   -0.4941    2.4752 C   0  0  0  0  0  0  0  0  0  0  0  0
    0.2352   -4.8979   -0.6073 C   0  0  0  0  0  0  0  0  0  0  0  0
    4.2414   -0.1869   -0.1881 C   0  0  0  0  0  0  0  0  0  0  0  0
    3.9527    0.7835   -1.1330 C   0  0  0  0  0  0  0  0  0  0  0  0
    3.5515    0.3617   -2.3957 C   0  0  0  0  0  0  0  0  0  0  0  0
    3.4533   -0.9981   -2.6698 C   0  0  0  0  0  0  0  0  0  0  0  0
    3.7647   -1.8884   -1.6548 C   0  0  0  0  0  0  0  0  0  0  0  0
    4.0453    2.2140   -0.8723 C   0  0  0  0  0  0  0  0  0  0  0  0
   -3.8725   -1.1970   -1.9357 H   0  0  0  0  0  0  0  0  0  0  0  0
   -4.9445   -1.8716   -0.6817 H   0  0  0  0  0  0  0  0  0  0  0  0
   -4.5813    1.3051    1.4292 H   0  0  0  0  0  0  0  0  0  0  0  0
   -5.3737   -0.2704    1.4407 H   0  0  0  0  0  0  0  0  0  0  0  0
   -6.3030   -0.9771   -2.5061 H   0  0  0  0  0  0  0  0  0  0  0  0
   -5.4912    0.5924   -2.4323 H   0  0  0  0  0  0  0  0  0  0  0  0
   -5.8703    1.9993   -0.5738 H   0  0  0  0  0  0  0  0  0  0  0  0
   -6.9593    1.4542    0.7092 H   0  0  0  0  0  0  0  0  0  0  0  0
   -2.7858   -2.3791    0.0189 H   0  0  0  0  0  0  0  0  0  0  0  0
   -0.0827    1.4968    1.5031 H   0  0  0  0  0  0  0  0  0  0  0  0
    1.5456   -1.8248    1.5954 H   0  0  0  0  0  0  0  0  0  0  0  0
   -1.2684    2.5930   -0.9306 H   0  0  0  0  0  0  0  0  0  0  0  0
   -0.9914    3.5566    0.5437 H   0  0  0  0  0  0  0  0  0  0  0  0
   -1.1363   -3.3875   -1.1658 H   0  0  0  0  0  0  0  0  0  0  0  0
   -1.7174   -4.4437    0.1615 H   0  0  0  0  0  0  0  0  0  0  0  0
   -2.2680    4.8538   -1.1656 H   0  0  0  0  0  0  0  0  0  0  0  0
   -3.5360    3.6045   -1.1591 H   0  0  0  0  0  0  0  0  0  0  0  0
   -3.2603    4.5705    0.2848 H   0  0  0  0  0  0  0  0  0  0  0  0
    3.6485   -0.2669    3.5303 H   0  0  0  0  0  0  0  0  0  0  0  0
    3.4871   -1.5813    2.3587 H   0  0  0  0  0  0  0  0  0  0  0  0
    0.5642   -5.4524    0.2778 H   0  0  0  0  0  0  0  0  0  0  0  0
    1.1147   -4.3772   -1.0009 H   0  0  0  0  0  0  0  0  0  0  0  0
   -0.1187   -5.6102   -1.3580 H   0  0  0  0  0  0  0  0  0  0  0  0
    3.3209    1.0647   -3.1915 H   0  0  0  0  0  0  0  0  0  0  0  0
    3.1449   -1.3503   -3.6475 H   0  0  0  0  0  0  0  0  0  0  0  0
    3.7030   -2.9594   -1.8170 H   0  0  0  0  0  0  0  0  0  0  0  0
    3.2277    3.8951   -1.4306 H   0  0  0  0  0  0  0  0  0  0  0  0
  1 25  1  0  0  0  0
  1 27  1  0  0  0  0
  2 14  1  0  0  0  0
  2 15  1  0  0  0  0
  3 16  1  0  0  0  0
  3 21  1  0  0  0  0
  4 18  1  0  0  0  0
  4 22  1  0  0  0  0
  5 23  2  0  0  0  0
  6 32  1  0  0  0  0
  6 59  1  0  0  0  0
  7 32  2  0  0  0  0
  8 11  1  0  0  0  0
  8 12  1  0  0  0  0
  8 13  1  0  0  0  0
  9 19  1  0  0  0  0
  9 23  1  0  0  0  0
  9 43  1  0  0  0  0
 10 27  1  0  0  0  0
 10 31  2  0  0  0  0
 11 14  1  0  0  0  0
 11 33  1  0  0  0  0
 11 34  1  0  0  0  0
 12 15  1  0  0  0  0
 12 35  1  0  0  0  0
 12 36  1  0  0  0  0
 13 16  2  0  0  0  0
 13 17  1  0  0  0  0
 14 37  1  0  0  0  0
 14 38  1  0  0  0  0
 15 39  1  0  0  0  0
 15 40  1  0  0  0  0
 16 20  1  0  0  0  0
 17 18  2  0  0  0  0
 17 41  1  0  0  0  0
 18 19  1  0  0  0  0
 19 20  2  0  0  0  0
 20 42  1  0  0  0  0
 21 24  1  0  0  0  0
 21 44  1  0  0  0  0
 21 45  1  0  0  0  0
 22 26  1  0  0  0  0
 22 46  1  0  0  0  0
 22 47  1  0  0  0  0
 23 25  1  0  0  0  0
 24 48  1  0  0  0  0
 24 49  1  0  0  0  0
 24 50  1  0  0  0  0
 25 51  1  0  0  0  0
 25 52  1  0  0  0  0
 26 53  1  0  0  0  0
 26 54  1  0  0  0  0
 26 55  1  0  0  0  0
 27 28  2  0  0  0  0
 28 29  1  0  0  0  0
 28 32  1  0  0  0  0
 29 30  2  0  0  0  0
 29 56  1  0  0  0  0
 30 31  1  0  0  0  0
 30 57  1  0  0  0  0
 31 58  1  0  0  0  0
M  END
> <PUBCHEM_COMPOUND_CID>
5101939

> <PUBCHEM_CONFORMER_RMSD>
1.2

> <PUBCHEM_CONFORMER_DIVERSEORDER>
1
5
10
4
3
11
9
6
7
8
2

> <PUBCHEM_MMFF94_PARTIAL_CHARGES>
37
1 -0.33
10 -0.62
11 0.37
12 0.37
13 0.1
14 0.28
15 0.28
16 0.08
17 -0.15
18 0.08
19 0.12
2 -0.56
20 -0.15
21 0.28
22 0.28
23 0.57
25 0.29
27 0.41
28 0.09
29 -0.15
3 -0.36
30 -0.15
31 0.16
32 0.63
4 -0.36
41 0.15
42 0.15
43 0.37
5 -0.57
56 0.15
57 0.15
58 0.15
59 0.5
6 -0.65
7 -0.57
8 -0.84
9 -0.55

> <PUBCHEM_EFFECTIVE_ROTOR_COUNT>
12.2

> <PUBCHEM_PHARMACOPHORE_FEATURES>
13
1 10 acceptor
1 2 acceptor
1 3 acceptor
1 4 acceptor
1 5 acceptor
1 6 acceptor
1 7 acceptor
1 8 cation
1 9 donor
3 6 7 32 anion
6 10 27 28 29 30 31 rings
6 13 16 17 18 19 20 rings
6 2 8 11 12 14 15 rings

> <PUBCHEM_HEAVY_ATOM_COUNT>
32

> <PUBCHEM_ATOM_DEF_STEREO_COUNT>
0

> <PUBCHEM_ATOM_UDEF_STEREO_COUNT>
0

> <PUBCHEM_BOND_DEF_STEREO_COUNT>
0

> <PUBCHEM_BOND_UDEF_STEREO_COUNT>
0

> <PUBCHEM_ISOTOPIC_ATOM_COUNT>
0

> <PUBCHEM_COMPONENT_COUNT>
1

> <PUBCHEM_CACTVS_TAUTO_COUNT>
2

> <PUBCHEM_CONFORMER_ID>
004DD97300000001

> <PUBCHEM_MMFF94_ENERGY>
117.7843

> <PUBCHEM_FEATURE_SELFOVERLAP>
66.034

> <PUBCHEM_SHAPE_FINGERPRINT>
10670039 82 18189338978599965916
11796584 16 14692568832190740311
12788726 201 18410293622835852385
13617811 41 18410006625068795189
14068700 675 17700702749228382702
14790565 3 18410580565711976649
14910302 57 17846494803503496405
15001296 14 18113623425736657445
15082195 135 18119521034578050261
15324884 4 17054704831107835922
19315092 285 13613689441474052430
20715895 44 18410012152295975158
21133410 90 17897694683290392156
21641784 216 18114740422397932789
22122407 14 15792016610809143981
23559900 14 18342187695352319796
3117164 225 8934413234983119839
3472631 163 18188770677470663044
5895379 119 18335987485191643056
960060 61 17632587062619070436

> <PUBCHEM_SHAPE_MULTIPOLES>
612.24
13
4.29
2.26
11.31
1.9
-0.22
-4.67
-4.75
0.12
-1.22
-2.84
0.04
-0.21

> <PUBCHEM_SHAPE_SELFOVERLAP>
1273.44

> <PUBCHEM_SHAPE_VOLUME>
349.6

> <PUBCHEM_COORDINATE_TYPE>
2
5
10

$$$$
