698642
  -OEChem-01171811413D

 36 38  0     1  0  0  0  0  0999 V2000
    1.2020    1.1208   -2.3224 O   0  0  0  0  0  0  0  0  0  0  0  0
   -0.9221   -0.4499   -1.8301 O   0  0  0  0  0  0  0  0  0  0  0  0
   -0.2809   -2.1941    0.4964 O   0  0  0  0  0  0  0  0  0  0  0  0
   -2.9622   -0.5274   -0.1669 O   0  0  0  0  0  0  0  0  0  0  0  0
   -2.9297    0.7586    1.7578 O   0  0  0  0  0  0  0  0  0  0  0  0
    0.6260    2.1112   -0.2347 N   0  0  0  0  0  0  0  0  0  0  0  0
    0.9802    0.8995   -0.9441 C   0  0  1  0  0  0  0  0  0  0  0  0
   -0.2537   -0.0335   -0.6659 C   0  0  1  0  0  0  0  0  0  0  0  0
    2.1344    0.1827   -0.3107 C   0  0  0  0  0  0  0  0  0  0  0  0
   -1.1463    0.8257    0.1982 C   0  0  0  0  0  0  0  0  0  0  0  0
    0.3270   -1.2167    0.0975 C   0  0  0  0  0  0  0  0  0  0  0  0
    1.7607   -1.0214    0.2813 C   0  0  0  0  0  0  0  0  0  0  0  0
   -0.5905    2.0319    0.4056 C   0  0  0  0  0  0  0  0  0  0  0  0
    3.4600    0.5878   -0.2605 C   0  0  0  0  0  0  0  0  0  0  0  0
    2.6581   -1.8523    0.9272 C   0  0  0  0  0  0  0  0  0  0  0  0
   -2.4330    0.3710    0.7062 C   0  0  0  0  0  0  0  0  0  0  0  0
   -1.0939    3.1970    1.1809 C   0  0  0  0  0  0  0  0  0  0  0  0
    4.3894   -0.2329    0.3867 C   0  0  0  0  0  0  0  0  0  0  0  0
    3.9908   -1.4442    0.9758 C   0  0  0  0  0  0  0  0  0  0  0  0
   -4.2365   -1.0693    0.1957 C   0  0  0  0  0  0  0  0  0  0  0  0
   -4.6799   -2.0445   -0.8738 C   0  0  0  0  0  0  0  0  0  0  0  0
    1.2033    2.9404   -0.1914 H   0  0  0  0  0  0  0  0  0  0  0  0
    3.7771    1.5220   -0.7124 H   0  0  0  0  0  0  0  0  0  0  0  0
    1.5906    0.3156   -2.7049 H   0  0  0  0  0  0  0  0  0  0  0  0
   -1.6457   -1.0463   -1.5738 H   0  0  0  0  0  0  0  0  0  0  0  0
    2.3476   -2.7860    1.3820 H   0  0  0  0  0  0  0  0  0  0  0  0
   -1.0269    4.1098    0.5790 H   0  0  0  0  0  0  0  0  0  0  0  0
   -0.4925    3.3396    2.0844 H   0  0  0  0  0  0  0  0  0  0  0  0
   -2.1390    3.0892    1.4805 H   0  0  0  0  0  0  0  0  0  0  0  0
    5.4323    0.0691    0.4351 H   0  0  0  0  0  0  0  0  0  0  0  0
    4.7289   -2.0671    1.4739 H   0  0  0  0  0  0  0  0  0  0  0  0
   -4.1516   -1.5871    1.1576 H   0  0  0  0  0  0  0  0  0  0  0  0
   -4.9666   -0.2570    0.2831 H   0  0  0  0  0  0  0  0  0  0  0  0
   -5.6526   -2.4796   -0.6281 H   0  0  0  0  0  0  0  0  0  0  0  0
   -4.7508   -1.5444   -1.8454 H   0  0  0  0  0  0  0  0  0  0  0  0
   -3.9487   -2.8520   -0.9852 H   0  0  0  0  0  0  0  0  0  0  0  0
  1  7  1  0  0  0  0
  1 24  1  0  0  0  0
  2  8  1  0  0  0  0
  2 25  1  0  0  0  0
  3 11  2  0  0  0  0
  4 16  1  0  0  0  0
  4 20  1  0  0  0  0
  5 16  2  0  0  0  0
  6  7  1  0  0  0  0
  6 13  1  0  0  0  0
  6 22  1  0  0  0  0
  7  8  1  0  0  0  0
  7  9  1  0  0  0  0
  8 10  1  0  0  0  0
  8 11  1  0  0  0  0
  9 12  1  0  0  0  0
  9 14  2  0  0  0  0
 10 13  2  0  0  0  0
 10 16  1  0  0  0  0
 11 12  1  0  0  0  0
 12 15  2  0  0  0  0
 13 17  1  0  0  0  0
 14 18  1  0  0  0  0
 14 23  1  0  0  0  0
 15 19  1  0  0  0  0
 15 26  1  0  0  0  0
 17 27  1  0  0  0  0
 17 28  1  0  0  0  0
 17 29  1  0  0  0  0
 18 19  2  0  0  0  0
 18 30  1  0  0  0  0
 19 31  1  0  0  0  0
 20 21  1  0  0  0  0
 20 32  1  0  0  0  0
 20 33  1  0  0  0  0
 21 34  1  0  0  0  0
 21 35  1  0  0  0  0
 21 36  1  0  0  0  0
M  END
> <PUBCHEM_COMPOUND_CID>
698642

> <PUBCHEM_CONFORMER_RMSD>
0.6

> <PUBCHEM_CONFORMER_DIVERSEORDER>
1
5
3
4
2
6

> <PUBCHEM_MMFF94_PARTIAL_CHARGES>
27
1 -0.68
10 -0.12
11 0.42
12 0.09
13 -0.04
14 -0.15
15 -0.15
16 0.71
17 0.14
18 -0.15
19 -0.15
2 -0.68
20 0.28
22 0.4
23 0.15
24 0.4
25 0.4
26 0.15
3 -0.57
30 0.15
31 0.15
4 -0.43
5 -0.57
6 -0.87
7 0.79
8 0.48
9 -0.14

> <PUBCHEM_EFFECTIVE_ROTOR_COUNT>
3.2

> <PUBCHEM_PHARMACOPHORE_FEATURES>
11
1 1 acceptor
1 1 donor
1 2 acceptor
1 2 donor
1 3 acceptor
1 5 acceptor
1 6 cation
1 6 donor
5 6 7 8 10 13 rings
5 7 8 9 11 12 rings
6 9 12 14 15 18 19 rings

> <PUBCHEM_HEAVY_ATOM_COUNT>
21

> <PUBCHEM_ATOM_DEF_STEREO_COUNT>
2

> <PUBCHEM_ATOM_UDEF_STEREO_COUNT>
0

> <PUBCHEM_BOND_DEF_STEREO_COUNT>
0

> <PUBCHEM_BOND_UDEF_STEREO_COUNT>
0

> <PUBCHEM_ISOTOPIC_ATOM_COUNT>
0

> <PUBCHEM_COMPONENT_COUNT>
1

> <PUBCHEM_CACTVS_TAUTO_COUNT>
2

> <PUBCHEM_CONFORMER_ID>
000AA91200000001

> <PUBCHEM_MMFF94_ENERGY>
60.6804

> <PUBCHEM_FEATURE_SELFOVERLAP>
56.399

> <PUBCHEM_SHAPE_FINGERPRINT>
10062212 137 18408605847038405923
10863032 1 18055632811638851968
10948715 1 10447923996722827003
11578080 2 18263902454190920269
11806522 49 18335979852290686499
13140716 1 18192428800111787592
13544653 18 18113621166192949875
13583140 156 17058061347886265586
14181834 199 17968387843547942238
14223421 5 18198905816588588632
14787075 74 18338800138476379064
15142383 8 17967820410572044049
15375462 189 18336838562461165985
15375462 478 18412542080910981254
16945 1 17543355951733076444
17862501 102 18341893017314124027
18186145 218 12607398880297429954
19010151 120 18343305894224571129
200 152 18260542320843700491
20510252 161 18271805675330686216
21267235 1 18335426768125375874
21452121 71 18339359789947593123
22112679 90 18131071579735751781
231179 274 12751247964857771851
23388829 49 18335146349335638337
23402539 116 18060413638430762423
23419403 2 18120057745874874036
23557571 272 17274836722464435985
23559900 14 17915188918636767062
2748010 2 16242657777897642604
3286 77 18265327486174682783
392239 28 18341042017068325840
439807 62 18118962745239976271
7097593 13 17832423094914683642
7471813 234 18200864193127297677

> <PUBCHEM_SHAPE_MULTIPOLES>
397.84
7.11
2.57
1.37
1.67
1.16
0.44
-4.55
-1.05
1.15
-0.68
0.14
0.3
-1.52

> <PUBCHEM_SHAPE_SELFOVERLAP>
879.991

> <PUBCHEM_SHAPE_VOLUME>
215.4

> <PUBCHEM_COORDINATE_TYPE>
2
5
10

$$$$
