3095208
  -OEChem-01171811473D

 33 35  0     0  0  0  0  0  0999 V2000
   -4.2496    1.7631   -0.5065 O   0  0  0  0  0  0  0  0  0  0  0  0
   -2.0702    3.1957   -1.0416 O   0  0  0  0  0  0  0  0  0  0  0  0
    4.4171   -2.1494   -0.8472 O   0  0  0  0  0  0  0  0  0  0  0  0
    2.3752   -1.8193   -1.7894 O   0  0  0  0  0  0  0  0  0  0  0  0
    0.7548   -0.4456    0.0028 N   0  0  0  0  0  0  0  0  0  0  0  0
   -1.6954   -0.7103    0.1822 C   0  0  0  0  0  0  0  0  0  0  0  0
   -0.4908    0.1135   -0.1259 C   0  0  0  0  0  0  0  0  0  0  0  0
   -2.9888   -0.1684    0.0588 C   0  0  0  0  0  0  0  0  0  0  0  0
    1.9542    0.1874    0.3322 C   0  0  0  0  0  0  0  0  0  0  0  0
   -0.6281    1.3899   -0.5258 C   0  0  0  0  0  0  0  0  0  0  0  0
   -1.6057   -2.0496    0.6057 C   0  0  0  0  0  0  0  0  0  0  0  0
   -3.1601    1.2274   -0.3778 C   0  0  0  0  0  0  0  0  0  0  0  0
   -4.1366   -0.9227    0.3418 C   0  0  0  0  0  0  0  0  0  0  0  0
   -1.9398    2.0366   -0.6800 C   0  0  0  0  0  0  0  0  0  0  0  0
    3.1878   -0.2853   -0.1431 C   0  0  0  0  0  0  0  0  0  0  0  0
   -2.7489   -2.8058    0.8902 C   0  0  0  0  0  0  0  0  0  0  0  0
   -4.0125   -2.2434    0.7578 C   0  0  0  0  0  0  0  0  0  0  0  0
    1.9381    1.3234    1.1562 C   0  0  0  0  0  0  0  0  0  0  0  0
    4.3753    0.3624    0.1974 C   0  0  0  0  0  0  0  0  0  0  0  0
    3.1257    1.9711    1.4965 C   0  0  0  0  0  0  0  0  0  0  0  0
    4.3442    1.4905    1.0172 C   0  0  0  0  0  0  0  0  0  0  0  0
    3.2542   -1.4613   -1.0015 C   0  0  0  0  0  0  0  0  0  0  0  0
    0.8228   -1.4357   -0.2010 H   0  0  0  0  0  0  0  0  0  0  0  0
    0.2174    2.0137   -0.7985 H   0  0  0  0  0  0  0  0  0  0  0  0
   -0.6444   -2.5403    0.7357 H   0  0  0  0  0  0  0  0  0  0  0  0
   -5.1311   -0.4960    0.2435 H   0  0  0  0  0  0  0  0  0  0  0  0
   -2.6459   -3.8366    1.2174 H   0  0  0  0  0  0  0  0  0  0  0  0
   -4.8979   -2.8317    0.9791 H   0  0  0  0  0  0  0  0  0  0  0  0
    1.0161    1.7076    1.5848 H   0  0  0  0  0  0  0  0  0  0  0  0
    5.3398    0.0217   -0.1698 H   0  0  0  0  0  0  0  0  0  0  0  0
    3.1029    2.8444    2.1418 H   0  0  0  0  0  0  0  0  0  0  0  0
    5.2686    1.9957    1.2817 H   0  0  0  0  0  0  0  0  0  0  0  0
    4.4544   -2.9386   -1.4287 H   0  0  0  0  0  0  0  0  0  0  0  0
  1 12  2  0  0  0  0
  2 14  2  0  0  0  0
  3 22  1  0  0  0  0
  3 33  1  0  0  0  0
  4 22  2  0  0  0  0
  5  7  1  0  0  0  0
  5  9  1  0  0  0  0
  5 23  1  0  0  0  0
  6  7  1  0  0  0  0
  6  8  1  0  0  0  0
  6 11  2  0  0  0  0
  7 10  2  0  0  0  0
  8 12  1  0  0  0  0
  8 13  2  0  0  0  0
  9 15  1  0  0  0  0
  9 18  2  0  0  0  0
 10 14  1  0  0  0  0
 10 24  1  0  0  0  0
 11 16  1  0  0  0  0
 11 25  1  0  0  0  0
 12 14  1  0  0  0  0
 13 17  1  0  0  0  0
 13 26  1  0  0  0  0
 15 19  2  0  0  0  0
 15 22  1  0  0  0  0
 16 17  2  0  0  0  0
 16 27  1  0  0  0  0
 17 28  1  0  0  0  0
 18 20  1  0  0  0  0
 18 29  1  0  0  0  0
 19 21  1  0  0  0  0
 19 30  1  0  0  0  0
 20 21  2  0  0  0  0
 20 31  1  0  0  0  0
 21 32  1  0  0  0  0
M  END
> <PUBCHEM_COMPOUND_CID>
3095208

> <PUBCHEM_CONFORMER_RMSD>
0.6

> <PUBCHEM_CONFORMER_DIVERSEORDER>
1
22
16
18
10
20
4
21
19
17
12
15
6
8
7
5
9
11
13
3
2
14

> <PUBCHEM_MMFF94_PARTIAL_CHARGES>
33
1 -0.57
10 -0.14
11 -0.15
12 0.48
13 -0.15
14 0.56
15 0.09
16 -0.15
17 -0.15
18 -0.15
19 -0.15
2 -0.57
20 -0.15
21 -0.15
22 0.63
23 0.4
24 0.15
25 0.15
26 0.15
27 0.15
28 0.15
29 0.15
3 -0.65
30 0.15
31 0.15
32 0.15
33 0.5
4 -0.57
5 -0.6
6 0.03
7 0.07
8 0.09
9 0.1

> <PUBCHEM_EFFECTIVE_ROTOR_COUNT>
3

> <PUBCHEM_PHARMACOPHORE_FEATURES>
10
1 1 acceptor
1 2 acceptor
1 3 acceptor
1 4 acceptor
1 5 cation
1 5 donor
3 3 4 22 anion
6 6 7 8 10 12 14 rings
6 6 8 11 13 16 17 rings
6 9 15 18 19 20 21 rings

> <PUBCHEM_HEAVY_ATOM_COUNT>
22

> <PUBCHEM_ATOM_DEF_STEREO_COUNT>
0

> <PUBCHEM_ATOM_UDEF_STEREO_COUNT>
0

> <PUBCHEM_BOND_DEF_STEREO_COUNT>
0

> <PUBCHEM_BOND_UDEF_STEREO_COUNT>
0

> <PUBCHEM_ISOTOPIC_ATOM_COUNT>
0

> <PUBCHEM_COMPONENT_COUNT>
1

> <PUBCHEM_CACTVS_TAUTO_COUNT>
4

> <PUBCHEM_CONFORMER_ID>
002F3AA800000001

> <PUBCHEM_MMFF94_ENERGY>
81.3413

> <PUBCHEM_FEATURE_SELFOVERLAP>
50.833

> <PUBCHEM_SHAPE_FINGERPRINT>
10165383 225 17685224875965862837
10319926 262 18263904628113408544
10366900 7 18271518809906229152
10369192 42 17983858058884494260
10498660 4 18187076235362669213
105312 117 17459729459983592109
10608611 8 18412820283381295976
11370993 144 18130518461210261185
11405975 8 18341050718339783538
11552529 35 17559394858607620371
12173636 292 18188765025251542957
12236239 1 16443056231564583578
12553582 1 17903086864648860623
12623949 98 17844831349616711999
13402501 40 18413671300954267606
13544592 145 18339645525151864829
13583140 156 18202559609459735836
14081887 123 18334284388164865353
14178342 30 18041267812269955202
14223421 5 18412825819572814208
14251757 17 18341612564544716610
14866123 147 16904417603065684602
15099037 37 18262791990300690625
15219456 202 18343863320644301756
15961568 22 17970066858408748572
16752209 62 17821726139698592427
17349148 13 16008738126528993112
17913733 40 17560228263088943304
1813 80 17385723659720615639
19049666 15 18341331085278144066
19141452 34 18270969076158482579
20510252 161 18410571782297744673
20600515 1 17460310186062891083
20645477 70 17632295649293765646
20681677 76 18343580741935037598
20693207 138 18342470200926009478
21065201 7 18259702289738933122
22122407 14 16558204824957376667
221490 88 18342742897316731166
22182313 1 18410293631662579231
22943178 12 18413103953122997228
23402539 116 18265603450798296031
23526113 38 18130214969946328488
23557571 272 18334576883911463248
23559900 14 18409449155192592950
474 4 15194134232686514474
49207404 50 18272366529250305008
495365 180 17774705498902957226
5104073 3 18412261722773545842
6049 1 18413673500125274608
621550 34 18198621223534251456
7399639 24 18127119995259702904
81228 2 18187374246042395945
9709674 26 18412541020112152830

> <PUBCHEM_SHAPE_MULTIPOLES>
424.29
9.35
3.08
1.19
2.93
0.19
-0.04
-1.49
1.01
-1.7
-0.42
0.81
-0.04
3.05

> <PUBCHEM_SHAPE_SELFOVERLAP>
943.206

> <PUBCHEM_SHAPE_VOLUME>
224

> <PUBCHEM_COORDINATE_TYPE>
2
5
10

$$$$
