2057777
  -OEChem-01171811583D

 41 42  0     0  0  0  0  0  0999 V2000
    2.1583    1.1364    0.5977 O   0  0  0  0  0  0  0  0  0  0  0  0
   -5.5964   -1.2067   -0.4824 N   0  0  0  0  0  0  0  0  0  0  0  0
   -5.8565    0.0372   -0.9198 N   0  0  0  0  0  0  0  0  0  0  0  0
   -2.6920    0.4005    0.9750 C   0  0  0  0  0  0  0  0  0  0  0  0
   -1.4675    0.3117    0.0591 C   0  0  0  0  0  0  0  0  0  0  0  0
   -3.9489   -0.0437    0.2883 C   0  0  0  0  0  0  0  0  0  0  0  0
   -0.2070    0.8034    0.7672 C   0  0  0  0  0  0  0  0  0  0  0  0
   -4.4521   -1.3041    0.2535 C   0  0  0  0  0  0  0  0  0  0  0  0
   -4.8332    0.7479   -0.4385 C   0  0  0  0  0  0  0  0  0  0  0  0
    1.0220    0.6784   -0.1221 C   0  0  0  0  0  0  0  0  0  0  0  0
   -3.9977   -2.5843    0.8223 C   0  0  0  0  0  0  0  0  0  0  0  0
   -4.7619    2.1941   -0.7138 C   0  0  0  0  0  0  0  0  0  0  0  0
    3.3650    0.5731    0.2724 C   0  0  0  0  0  0  0  0  0  0  0  0
    3.5868    0.1258   -1.0248 C   0  0  0  0  0  0  0  0  0  0  0  0
    4.3531    0.4542    1.2427 C   0  0  0  0  0  0  0  0  0  0  0  0
    5.8106   -0.5713   -0.3886 C   0  0  0  0  0  0  0  0  0  0  0  0
    4.8140   -0.4485   -1.3564 C   0  0  0  0  0  0  0  0  0  0  0  0
    5.5804   -0.1199    0.9111 C   0  0  0  0  0  0  0  0  0  0  0  0
    7.1230   -1.1843   -0.7430 C   0  0  0  0  0  0  0  0  0  0  0  0
   -2.5283   -0.2122    1.8706 H   0  0  0  0  0  0  0  0  0  0  0  0
   -2.8153    1.4319    1.3284 H   0  0  0  0  0  0  0  0  0  0  0  0
   -1.3269   -0.7261   -0.2685 H   0  0  0  0  0  0  0  0  0  0  0  0
   -1.6346    0.9077   -0.8468 H   0  0  0  0  0  0  0  0  0  0  0  0
   -0.3282    1.8489    1.0770 H   0  0  0  0  0  0  0  0  0  0  0  0
   -0.0446    0.2336    1.6908 H   0  0  0  0  0  0  0  0  0  0  0  0
    1.1217   -0.3769   -0.4080 H   0  0  0  0  0  0  0  0  0  0  0  0
    0.8968    1.2898   -1.0233 H   0  0  0  0  0  0  0  0  0  0  0  0
   -6.2470   -1.9439   -0.7245 H   0  0  0  0  0  0  0  0  0  0  0  0
   -2.9279   -2.7307    0.6423 H   0  0  0  0  0  0  0  0  0  0  0  0
   -4.1672   -2.6025    1.9036 H   0  0  0  0  0  0  0  0  0  0  0  0
   -4.5277   -3.4355    0.3823 H   0  0  0  0  0  0  0  0  0  0  0  0
   -3.8038    2.4526   -1.1762 H   0  0  0  0  0  0  0  0  0  0  0  0
   -5.5569    2.5200   -1.3928 H   0  0  0  0  0  0  0  0  0  0  0  0
   -4.8596    2.7657    0.2148 H   0  0  0  0  0  0  0  0  0  0  0  0
    2.8488    0.2289   -1.8143 H   0  0  0  0  0  0  0  0  0  0  0  0
    4.1775    0.8046    2.2558 H   0  0  0  0  0  0  0  0  0  0  0  0
    4.9849   -0.7891   -2.3743 H   0  0  0  0  0  0  0  0  0  0  0  0
    6.3497   -0.2083    1.6735 H   0  0  0  0  0  0  0  0  0  0  0  0
    7.5648   -1.6974    0.1180 H   0  0  0  0  0  0  0  0  0  0  0  0
    7.0092   -1.9308   -1.5365 H   0  0  0  0  0  0  0  0  0  0  0  0
    7.8182   -0.4116   -1.0856 H   0  0  0  0  0  0  0  0  0  0  0  0
  1 10  1  0  0  0  0
  1 13  1  0  0  0  0
  2  3  1  0  0  0  0
  2  8  1  0  0  0  0
  2 28  1  0  0  0  0
  3  9  2  0  0  0  0
  4  5  1  0  0  0  0
  4  6  1  0  0  0  0
  4 20  1  0  0  0  0
  4 21  1  0  0  0  0
  5  7  1  0  0  0  0
  5 22  1  0  0  0  0
  5 23  1  0  0  0  0
  6  8  2  0  0  0  0
  6  9  1  0  0  0  0
  7 10  1  0  0  0  0
  7 24  1  0  0  0  0
  7 25  1  0  0  0  0
  8 11  1  0  0  0  0
  9 12  1  0  0  0  0
 10 26  1  0  0  0  0
 10 27  1  0  0  0  0
 11 29  1  0  0  0  0
 11 30  1  0  0  0  0
 11 31  1  0  0  0  0
 12 32  1  0  0  0  0
 12 33  1  0  0  0  0
 12 34  1  0  0  0  0
 13 14  2  0  0  0  0
 13 15  1  0  0  0  0
 14 17  1  0  0  0  0
 14 35  1  0  0  0  0
 15 18  2  0  0  0  0
 15 36  1  0  0  0  0
 16 17  2  0  0  0  0
 16 18  1  0  0  0  0
 16 19  1  0  0  0  0
 17 37  1  0  0  0  0
 18 38  1  0  0  0  0
 19 39  1  0  0  0  0
 19 40  1  0  0  0  0
 19 41  1  0  0  0  0
M  END
> <PUBCHEM_COMPOUND_CID>
2057777

> <PUBCHEM_CONFORMER_RMSD>
0.8

> <PUBCHEM_CONFORMER_DIVERSEORDER>
1
52
33
46
61
2
62
50
21
8
53
45
48
66
41
18
20
17
25
6
28
65
24
5
31
37
35
29
16
56
59
40
23
51
14
11
9
13
47
19
38
12
36
44
55
7
3
27
22
49
30
10
4
64
58
34
15
63
57
32
60
26
39
42
43
54

> <PUBCHEM_MMFF94_PARTIAL_CHARGES>
22
1 -0.36
10 0.28
11 0.18
12 0.18
13 0.08
14 -0.15
15 -0.15
16 -0.14
17 -0.15
18 -0.15
19 0.14
2 0.3
28 0.27
3 -0.71
35 0.15
36 0.15
37 0.15
38 0.15
4 0.18
6 -0.18
8 -0.33
9 0.11

> <PUBCHEM_EFFECTIVE_ROTOR_COUNT>
6

> <PUBCHEM_PHARMACOPHORE_FEATURES>
5
1 1 acceptor
1 2 donor
1 3 acceptor
5 2 3 6 8 9 rings
6 13 14 15 16 17 18 rings

> <PUBCHEM_HEAVY_ATOM_COUNT>
19

> <PUBCHEM_ATOM_DEF_STEREO_COUNT>
0

> <PUBCHEM_ATOM_UDEF_STEREO_COUNT>
0

> <PUBCHEM_BOND_DEF_STEREO_COUNT>
0

> <PUBCHEM_BOND_UDEF_STEREO_COUNT>
0

> <PUBCHEM_ISOTOPIC_ATOM_COUNT>
0

> <PUBCHEM_COMPONENT_COUNT>
1

> <PUBCHEM_CACTVS_TAUTO_COUNT>
1

> <PUBCHEM_CONFORMER_ID>
001F663100000001

> <PUBCHEM_MMFF94_ENERGY>
35.1352

> <PUBCHEM_FEATURE_SELFOVERLAP>
25.372

> <PUBCHEM_SHAPE_FINGERPRINT>
10354089 29 12247679375163144994
10803635 8 18335419063053864255
11315181 36 17846781814962064241
11545043 162 18341893017382533897
11796584 16 18409448081261189754
12596602 18 13326859919875553014
12616971 3 15051730919273949321
12730499 353 12035730886653789712
13533116 47 15195290803197481798
13668630 136 18343864424324556295
1420 363 17775569745006952696
14251752 14 18113898239144660542
14848160 23 17988923374933082336
14849402 71 13182438007517667866
15183329 4 17022620862354237430
15716309 27 15195285321922412853
16990350 14 17041759790993922057
17844677 252 18408325514127987057
17870717 6 18408325501828056443
18222031 100 18333734620078232216
18927931 339 17418104212929606113
19489759 90 18410011027172740573
20281389 69 9007064556214161618
21150785 3 14490476421604412371
21623969 137 17275107232326245894
220451 1 17821728312487671528
22061861 79 18060419105591710436
221357 26 15068617180794414854
22224240 67 15985096402556531030
22289505 5 13767925733073003270
23081809 10 16805599261648695832
23198884 109 17240203235792179989
23402539 116 18040433287028612725
23402655 69 14779269735067314504
23559900 14 18339073917046061225
25122255 55 18130516291888182310
29717793 49 17458348507875947534
3004659 81 18187083966715031116
3663271 9 12607406572557568166
465052 167 17704076171239650190
497634 4 14996288063340430755
531348 171 17968372339016638219
542803 24 16153425043144466105
559249 180 18410291393979252107
5718773 13 17844802788912251567
59755656 215 18410010992760527678
59755656 520 16081093662944565169
960060 61 17240484719427312672

> <PUBCHEM_SHAPE_MULTIPOLES>
375.18
19.4
1.68
1.16
8.76
0.58
0.01
5.02
4.16
-2.97
-0.07
0.88
-0.01
1.39

> <PUBCHEM_SHAPE_SELFOVERLAP>
778.473

> <PUBCHEM_SHAPE_VOLUME>
218

> <PUBCHEM_COORDINATE_TYPE>
2
5
10

$$$$
