2393556
  -OEChem-01171811523D

 22 23  0     0  0  0  0  0  0999 V2000
   -3.1523    1.2337    0.3980 S   0  0  0  0  0  0  0  0  0  0  0  0
    1.8852    2.5139   -0.3802 S   0  0  0  0  0  0  0  0  0  0  0  0
    0.1199   -2.3199   -0.4383 O   0  0  0  0  0  0  0  0  0  0  0  0
    0.9398   -0.1052   -0.4142 N   0  0  0  0  0  0  0  0  0  0  0  0
   -0.5915    1.6981   -0.0125 N   0  0  0  0  0  0  0  0  0  0  0  0
   -1.3908   -0.5894   -0.0458 C   0  0  0  0  0  0  0  0  0  0  0  0
   -1.5713    0.7550    0.0869 C   0  0  0  0  0  0  0  0  0  0  0  0
   -0.0676   -1.1126   -0.3153 C   0  0  0  0  0  0  0  0  0  0  0  0
    2.2983   -0.5871   -0.6857 C   0  0  0  0  0  0  0  0  0  0  0  0
    0.7150    1.3033   -0.2687 C   0  0  0  0  0  0  0  0  0  0  0  0
   -2.6298   -1.2765    0.1180 C   0  0  0  0  0  0  0  0  0  0  0  0
   -3.6747   -0.4051    0.3656 C   0  0  0  0  0  0  0  0  0  0  0  0
    2.9901   -0.8513    0.6101 C   0  0  0  0  0  0  0  0  0  0  0  0
    4.1295   -0.2568    0.9819 C   0  0  0  0  0  0  0  0  0  0  0  0
    2.2476   -1.5266   -1.2484 H   0  0  0  0  0  0  0  0  0  0  0  0
    2.8500    0.1135   -1.3191 H   0  0  0  0  0  0  0  0  0  0  0  0
   -0.8315    2.6770    0.1030 H   0  0  0  0  0  0  0  0  0  0  0  0
   -2.7568   -2.3500    0.0592 H   0  0  0  0  0  0  0  0  0  0  0  0
   -4.7149   -0.6492    0.5283 H   0  0  0  0  0  0  0  0  0  0  0  0
    2.5448   -1.5794    1.2838 H   0  0  0  0  0  0  0  0  0  0  0  0
    4.5865   -0.4958    1.9360 H   0  0  0  0  0  0  0  0  0  0  0  0
    4.6281    0.4676    0.3478 H   0  0  0  0  0  0  0  0  0  0  0  0
  1  7  1  0  0  0  0
  1 12  1  0  0  0  0
  2 10  2  0  0  0  0
  3  8  2  0  0  0  0
  4  8  1  0  0  0  0
  4  9  1  0  0  0  0
  4 10  1  0  0  0  0
  5  7  1  0  0  0  0
  5 10  1  0  0  0  0
  5 17  1  0  0  0  0
  6  7  2  0  0  0  0
  6  8  1  0  0  0  0
  6 11  1  0  0  0  0
  9 13  1  0  0  0  0
  9 15  1  0  0  0  0
  9 16  1  0  0  0  0
 11 12  2  0  0  0  0
 11 18  1  0  0  0  0
 12 19  1  0  0  0  0
 13 14  2  0  0  0  0
 13 20  1  0  0  0  0
 14 21  1  0  0  0  0
 14 22  1  0  0  0  0
M  END
> <PUBCHEM_COMPOUND_CID>
2393556

> <PUBCHEM_CONFORMER_RMSD>
0.6

> <PUBCHEM_CONFORMER_DIVERSEORDER>
1
3
4
2

> <PUBCHEM_MMFF94_PARTIAL_CHARGES>
20
1 -0.08
10 0.5
11 -0.15
12 -0.11
13 -0.29
14 -0.3
17 0.37
18 0.15
19 0.15
2 -0.38
20 0.15
21 0.15
22 0.15
3 -0.57
4 -0.42
5 -0.49
6 -0.09
7 0.1
8 0.72
9 0.44

> <PUBCHEM_EFFECTIVE_ROTOR_COUNT>
2

> <PUBCHEM_PHARMACOPHORE_FEATURES>
6
1 14 hydrophobe
1 2 acceptor
1 3 acceptor
1 5 donor
5 1 6 7 11 12 rings
6 4 5 6 7 8 10 rings

> <PUBCHEM_HEAVY_ATOM_COUNT>
14

> <PUBCHEM_ATOM_DEF_STEREO_COUNT>
0

> <PUBCHEM_ATOM_UDEF_STEREO_COUNT>
0

> <PUBCHEM_BOND_DEF_STEREO_COUNT>
0

> <PUBCHEM_BOND_UDEF_STEREO_COUNT>
0

> <PUBCHEM_ISOTOPIC_ATOM_COUNT>
0

> <PUBCHEM_COMPONENT_COUNT>
1

> <PUBCHEM_CACTVS_TAUTO_COUNT>
4

> <PUBCHEM_CONFORMER_ID>
002485D400000001

> <PUBCHEM_MMFF94_ENERGY>
23.8745

> <PUBCHEM_FEATURE_SELFOVERLAP>
30.52

> <PUBCHEM_SHAPE_FINGERPRINT>
10130415 120 18187086148062454466
10967382 1 18195533812021231413
11132069 177 18338798914072823123
12119455 92 16988270989716221966
12251169 10 18410012139031031307
12382932 28 18268712705892322393
124424 183 17894908499639920111
12644460 14 18116167712590896848
12696612 119 18410294735258125644
13140716 1 18410580604076226561
13172582 1 18411980260681742686
13922767 16 18412542106849817313
14178342 30 18270126682288309361
15375462 189 17967527948488390962
15536298 74 18342180024472501420
16945 1 18339372846616439957
17804303 29 18341333310229465480
193761 8 17979356691684491087
200 152 18130494293851240679
20388701 513 18265892463015252268
20511035 2 18190474941551691167
20559304 39 18335709346934509702
20645476 183 17751380575021646958
20671657 1 18191595361392072244
21501502 16 18338802341741750349
21501925 9 18411133666735013033
2297311 6 18339929191659421630
2334 1 18267309905296937597
23380061 330 18342174466462781335
23388829 49 18341321258250812463
23402539 116 18271511040141722239
23419403 2 16549961828605818989
23463225 33 18408325505358256101
23532345 42 18412543198193237322
23552423 10 18117847817765558941
23557571 272 16773799225031133503
23559900 14 18199479783671376814
2748010 2 18338524143888474709
4072396 5 18263912255479518243
5104073 3 18337965601082890953
528862 383 18263364865939539092
53812653 166 18271804562622777065
53812654 25 18201435942893643614
7364860 26 18269561696694923964
90316 7 18042962073821095632

> <PUBCHEM_SHAPE_MULTIPOLES>
279.98
6.02
2.23
0.81
0.83
0.77
0.06
-0.57
1.89
0.48
-0.3
0.4
-0.05
-0.39

> <PUBCHEM_SHAPE_SELFOVERLAP>
573.302

> <PUBCHEM_SHAPE_VOLUME>
163.3

> <PUBCHEM_COORDINATE_TYPE>
2
5
10

$$$$
