699797
  -OEChem-01171812033D

 34 36  0     0  0  0  0  0  0999 V2000
    6.7315   -0.0598   -0.0164 O   0  0  0  0  0  0  0  0  0  0  0  0
   -1.8868    0.9808    0.2103 N   0  0  0  0  0  0  0  0  0  0  0  0
   -1.8244   -1.2125    0.5644 N   0  0  0  0  0  0  0  0  0  0  0  0
    1.1777   -0.1293   -0.2905 N   0  0  0  0  0  0  0  0  0  0  0  0
   -1.1256   -0.0994    0.5606 C   0  0  0  0  0  0  0  0  0  0  0  0
   -3.1618    0.5353   -0.0275 C   0  0  0  0  0  0  0  0  0  0  0  0
    0.3104    0.0234    0.8856 C   0  0  0  0  0  0  0  0  0  0  0  0
   -3.0969   -0.8366    0.2000 C   0  0  0  0  0  0  0  0  0  0  0  0
   -1.4338    2.3499    0.1080 C   0  0  0  0  0  0  0  0  0  0  0  0
   -4.3305    1.1943   -0.4105 C   0  0  0  0  0  0  0  0  0  0  0  0
   -4.2573   -1.6128    0.0407 C   0  0  0  0  0  0  0  0  0  0  0  0
    2.5262   -0.1128   -0.2242 C   0  0  0  0  0  0  0  0  0  0  0  0
   -5.4759    0.4064   -0.5641 C   0  0  0  0  0  0  0  0  0  0  0  0
   -5.4420   -0.9724   -0.3432 C   0  0  0  0  0  0  0  0  0  0  0  0
    3.2215    0.0564    1.0090 C   0  0  0  0  0  0  0  0  0  0  0  0
    3.3439   -0.2629   -1.3827 C   0  0  0  0  0  0  0  0  0  0  0  0
    4.6146    0.0741    1.0778 C   0  0  0  0  0  0  0  0  0  0  0  0
    4.7370   -0.2453   -1.3138 C   0  0  0  0  0  0  0  0  0  0  0  0
    5.3723   -0.0768   -0.0836 C   0  0  0  0  0  0  0  0  0  0  0  0
    0.5130    0.9809    1.3797 H   0  0  0  0  0  0  0  0  0  0  0  0
    0.5507   -0.7657    1.6101 H   0  0  0  0  0  0  0  0  0  0  0  0
   -0.4952    2.3723   -0.4514 H   0  0  0  0  0  0  0  0  0  0  0  0
   -2.1718    2.9547   -0.4219 H   0  0  0  0  0  0  0  0  0  0  0  0
   -1.2906    2.7381    1.1195 H   0  0  0  0  0  0  0  0  0  0  0  0
   -4.3659    2.2639   -0.5818 H   0  0  0  0  0  0  0  0  0  0  0  0
    0.7360   -0.2411   -1.1963 H   0  0  0  0  0  0  0  0  0  0  0  0
   -4.2414   -2.6847    0.2101 H   0  0  0  0  0  0  0  0  0  0  0  0
   -6.4101    0.8770   -0.8608 H   0  0  0  0  0  0  0  0  0  0  0  0
   -6.3487   -1.5582   -0.4706 H   0  0  0  0  0  0  0  0  0  0  0  0
    2.6775    0.1791    1.9428 H   0  0  0  0  0  0  0  0  0  0  0  0
    2.8698   -0.3955   -2.3541 H   0  0  0  0  0  0  0  0  0  0  0  0
    5.0981    0.2064    2.0421 H   0  0  0  0  0  0  0  0  0  0  0  0
    5.3219   -0.3634   -2.2219 H   0  0  0  0  0  0  0  0  0  0  0  0
    6.9997    0.0658    0.9100 H   0  0  0  0  0  0  0  0  0  0  0  0
  1 19  1  0  0  0  0
  1 34  1  0  0  0  0
  2  5  1  0  0  0  0
  2  6  1  0  0  0  0
  2  9  1  0  0  0  0
  3  5  2  0  0  0  0
  3  8  1  0  0  0  0
  4  7  1  0  0  0  0
  4 12  1  0  0  0  0
  4 26  1  0  0  0  0
  5  7  1  0  0  0  0
  6  8  1  0  0  0  0
  6 10  2  0  0  0  0
  7 20  1  0  0  0  0
  7 21  1  0  0  0  0
  8 11  2  0  0  0  0
  9 22  1  0  0  0  0
  9 23  1  0  0  0  0
  9 24  1  0  0  0  0
 10 13  1  0  0  0  0
 10 25  1  0  0  0  0
 11 14  1  0  0  0  0
 11 27  1  0  0  0  0
 12 15  2  0  0  0  0
 12 16  1  0  0  0  0
 13 14  2  0  0  0  0
 13 28  1  0  0  0  0
 14 29  1  0  0  0  0
 15 17  1  0  0  0  0
 15 30  1  0  0  0  0
 16 18  2  0  0  0  0
 16 31  1  0  0  0  0
 17 19  2  0  0  0  0
 17 32  1  0  0  0  0
 18 19  1  0  0  0  0
 18 33  1  0  0  0  0
M  END
> <PUBCHEM_COMPOUND_CID>
699797

> <PUBCHEM_CONFORMER_RMSD>
0.6

> <PUBCHEM_CONFORMER_DIVERSEORDER>
3
18
16
11
17
9
12
15
1
14
10
6
19
8
20
13
7
2
4
5

> <PUBCHEM_MMFF94_PARTIAL_CHARGES>
29
1 -0.53
10 -0.15
11 -0.15
12 0.1
13 -0.15
14 -0.15
15 -0.15
16 -0.15
17 -0.15
18 -0.15
19 0.08
2 0.05
25 0.15
26 0.4
27 0.15
28 0.15
29 0.15
3 -0.57
30 0.15
31 0.15
32 0.15
33 0.15
34 0.45
4 -0.87
5 0.01
6 -0.15
7 0.55
8 0.23
9 0.26

> <PUBCHEM_EFFECTIVE_ROTOR_COUNT>
3

> <PUBCHEM_PHARMACOPHORE_FEATURES>
7
1 1 donor
1 4 cation
1 4 donor
3 2 3 5 cation
5 2 3 5 6 8 rings
6 12 15 16 17 18 19 rings
6 6 8 10 11 13 14 rings

> <PUBCHEM_HEAVY_ATOM_COUNT>
19

> <PUBCHEM_ATOM_DEF_STEREO_COUNT>
0

> <PUBCHEM_ATOM_UDEF_STEREO_COUNT>
0

> <PUBCHEM_BOND_DEF_STEREO_COUNT>
0

> <PUBCHEM_BOND_UDEF_STEREO_COUNT>
0

> <PUBCHEM_ISOTOPIC_ATOM_COUNT>
0

> <PUBCHEM_COMPONENT_COUNT>
1

> <PUBCHEM_CACTVS_TAUTO_COUNT>
2

> <PUBCHEM_CONFORMER_ID>
000AAD9500000003

> <PUBCHEM_MMFF94_ENERGY>
51.0076

> <PUBCHEM_FEATURE_SELFOVERLAP>
35.631

> <PUBCHEM_SHAPE_FINGERPRINT>
10 15 17917135192405827698
10968037 39 18409449201962505277
11089746 13 17240203248840651460
11287383 113 18060136565705553920
11315181 36 18342179976916475736
12107183 9 17102258296370533952
12166972 35 17676489466710425996
12236239 1 17530679900892478330
12390115 104 18127416640657677601
13288520 33 18412544332175405719
13533116 47 17895465939382637386
1420 363 17703793630209151734
14386348 63 17917993884062249446
14848160 23 17917711305458408894
15961568 22 18336542845869903908
17844677 252 16702306753952328360
17870717 6 18341902883223099431
1813 80 14979969085400604816
19489759 90 18408040706314040279
200 152 17822008718070194665
20374829 77 18413106182321774195
20645477 70 16845017806209218678
21033648 29 17131537363067818200
21033650 10 17971777492237044836
21267235 1 18336828693370293507
21623969 137 16487260992779278694
2297311 6 18343025488357288753
23175994 123 17346597495723588697
23402539 116 18334853922276654135
23536379 177 16225761913436360587
23557571 272 18202003192246971872
23559900 14 18411694426255470936
239999 70 17918275364082994182
26918003 58 16630527353451706779
29717793 49 17894916209570706646
300161 21 17458059378718798290
3004659 81 18187081775902181492
3268164 11 18409161087061632245
335352 9 18409161126850253645
34797466 226 18271536380944614924
351380 180 18410573994184581840
3545911 37 18334295348847538482
5283173 99 18200873972367469385
542803 24 17240483606635183002
57724786 102 14057017021832943422
59755656 215 18411703149830233102
59755656 520 16008749121619124755
67856867 119 18042409191450449132

> <PUBCHEM_SHAPE_MULTIPOLES>
370.2
14.97
1.36
1.04
8.98
0.47
-0.11
-1.97
-2.42
-2.01
0.02
1.09
-0.05
0.41

> <PUBCHEM_SHAPE_SELFOVERLAP>
808.668

> <PUBCHEM_SHAPE_VOLUME>
203.2

> <PUBCHEM_COORDINATE_TYPE>
2
5
10

$$$$
