2997825
  -OEChem-01171811383D

 49 50  0     1  0  0  0  0  0999 V2000
   -4.7638   -0.5094   -1.1207 O   0  0  0  0  0  0  0  0  0  0  0  0
   -0.3020    2.9725    0.0479 O   0  0  0  0  0  0  0  0  0  0  0  0
    4.4710    0.0022   -0.1292 O   0  0  0  0  0  0  0  0  0  0  0  0
    3.7900   -2.1754   -0.4340 O   0  0  0  0  0  0  0  0  0  0  0  0
   -2.6029    0.5379    0.4127 N   0  0  0  0  0  0  0  0  0  0  0  0
    0.1468   -0.4511    1.0130 N   0  0  0  0  0  0  0  0  0  0  0  0
   -2.8086    0.9385   -0.9859 C   0  0  0  0  0  0  0  0  0  0  0  0
   -3.9007    0.2348    1.0322 C   0  0  0  0  0  0  0  0  0  0  0  0
   -3.5346   -0.1621   -1.7689 C   0  0  1  0  0  0  0  0  0  0  0  0
   -4.6013   -0.8824    0.2516 C   0  0  1  0  0  0  0  0  0  0  0  0
   -1.9079    1.5881    1.1549 C   0  0  0  0  0  0  0  0  0  0  0  0
   -2.6702   -1.3952   -2.0286 C   0  0  0  0  0  0  0  0  0  0  0  0
   -5.9890   -1.1541    0.8196 C   0  0  0  0  0  0  0  0  0  0  0  0
   -0.5478    1.8639    0.5276 C   0  0  0  0  0  0  0  0  0  0  0  0
    0.4300    0.7633    0.5028 C   0  0  0  0  0  0  0  0  0  0  0  0
    1.6833    0.7910   -0.0011 C   0  0  0  0  0  0  0  0  0  0  0  0
    2.2176   -0.5037    0.2125 C   0  0  0  0  0  0  0  0  0  0  0  0
    1.2461   -1.2511    0.8407 C   0  0  0  0  0  0  0  0  0  0  0  0
    2.3752    1.9269   -0.6461 C   0  0  0  0  0  0  0  0  0  0  0  0
    1.2430   -2.6535    1.3011 C   0  0  0  0  0  0  0  0  0  0  0  0
    3.5206   -0.9916   -0.1420 C   0  0  0  0  0  0  0  0  0  0  0  0
    5.8140   -0.3604   -0.4677 C   0  0  0  0  0  0  0  0  0  0  0  0
    6.6912    0.8712   -0.3925 C   0  0  0  0  0  0  0  0  0  0  0  0
   -1.8625    1.1456   -1.4978 H   0  0  0  0  0  0  0  0  0  0  0  0
   -3.4114    1.8563   -1.0243 H   0  0  0  0  0  0  0  0  0  0  0  0
   -4.5308    1.1344    1.0478 H   0  0  0  0  0  0  0  0  0  0  0  0
   -3.7540   -0.0897    2.0694 H   0  0  0  0  0  0  0  0  0  0  0  0
   -3.8176    0.2478   -2.7457 H   0  0  0  0  0  0  0  0  0  0  0  0
   -4.0240   -1.8127    0.3089 H   0  0  0  0  0  0  0  0  0  0  0  0
   -2.4816    2.5239    1.1656 H   0  0  0  0  0  0  0  0  0  0  0  0
   -1.7450    1.2985    2.2004 H   0  0  0  0  0  0  0  0  0  0  0  0
   -1.8108   -1.1402   -2.6569 H   0  0  0  0  0  0  0  0  0  0  0  0
   -2.2878   -1.8388   -1.1043 H   0  0  0  0  0  0  0  0  0  0  0  0
   -3.2559   -2.1698   -2.5348 H   0  0  0  0  0  0  0  0  0  0  0  0
   -5.9371   -1.4574    1.8697 H   0  0  0  0  0  0  0  0  0  0  0  0
   -6.6270   -0.2668    0.7403 H   0  0  0  0  0  0  0  0  0  0  0  0
   -6.4844   -1.9484    0.2507 H   0  0  0  0  0  0  0  0  0  0  0  0
   -0.7208   -0.7412    1.4444 H   0  0  0  0  0  0  0  0  0  0  0  0
    1.6871    2.5696   -1.2015 H   0  0  0  0  0  0  0  0  0  0  0  0
    2.8908    2.5373    0.1020 H   0  0  0  0  0  0  0  0  0  0  0  0
    3.1088    1.5915   -1.3855 H   0  0  0  0  0  0  0  0  0  0  0  0
    0.3681   -2.8767    1.9208 H   0  0  0  0  0  0  0  0  0  0  0  0
    1.2310   -3.3365    0.4457 H   0  0  0  0  0  0  0  0  0  0  0  0
    2.1346   -2.8667    1.8996 H   0  0  0  0  0  0  0  0  0  0  0  0
    6.1739   -1.1178    0.2372 H   0  0  0  0  0  0  0  0  0  0  0  0
    5.8338   -0.7702   -1.4834 H   0  0  0  0  0  0  0  0  0  0  0  0
    7.7270    0.6300   -0.6469 H   0  0  0  0  0  0  0  0  0  0  0  0
    6.3289    1.6442   -1.0782 H   0  0  0  0  0  0  0  0  0  0  0  0
    6.6648    1.3019    0.6139 H   0  0  0  0  0  0  0  0  0  0  0  0
  1  9  1  0  0  0  0
  1 10  1  0  0  0  0
  2 14  2  0  0  0  0
  3 21  1  0  0  0  0
  3 22  1  0  0  0  0
  4 21  2  0  0  0  0
  5  7  1  0  0  0  0
  5  8  1  0  0  0  0
  5 11  1  0  0  0  0
  6 15  1  0  0  0  0
  6 18  1  0  0  0  0
  6 38  1  0  0  0  0
  7  9  1  0  0  0  0
  7 24  1  0  0  0  0
  7 25  1  0  0  0  0
  8 10  1  0  0  0  0
  8 26  1  0  0  0  0
  8 27  1  0  0  0  0
  9 12  1  0  0  0  0
  9 28  1  0  0  0  0
 10 13  1  0  0  0  0
 10 29  1  0  0  0  0
 11 14  1  0  0  0  0
 11 30  1  0  0  0  0
 11 31  1  0  0  0  0
 12 32  1  0  0  0  0
 12 33  1  0  0  0  0
 12 34  1  0  0  0  0
 13 35  1  0  0  0  0
 13 36  1  0  0  0  0
 13 37  1  0  0  0  0
 14 15  1  0  0  0  0
 15 16  2  0  0  0  0
 16 17  1  0  0  0  0
 16 19  1  0  0  0  0
 17 18  2  0  0  0  0
 17 21  1  0  0  0  0
 18 20  1  0  0  0  0
 19 39  1  0  0  0  0
 19 40  1  0  0  0  0
 19 41  1  0  0  0  0
 20 42  1  0  0  0  0
 20 43  1  0  0  0  0
 20 44  1  0  0  0  0
 22 23  1  0  0  0  0
 22 45  1  0  0  0  0
 22 46  1  0  0  0  0
 23 47  1  0  0  0  0
 23 48  1  0  0  0  0
 23 49  1  0  0  0  0
M  END
> <PUBCHEM_COMPOUND_CID>
2997825

> <PUBCHEM_CONFORMER_RMSD>
0.8

> <PUBCHEM_CONFORMER_DIVERSEORDER>
9
179
110
93
333
231
154
284
77
249
111
222
331
355
376
83
134
394
320
193
31
217
175
56
298
283
385
259
43
305
160
303
386
67
203
288
278
109
100
316
292
192
114
253
166
336
47
125
24
70
130
151
342
373
275
358
120
119
181
159
14
48
357
309
285
321
35
61
281
129
268
312
73
225
272
255
95
44
42
213
32
182
71
241
180
338
277
2
118
201
211
393
287
108
384
318
370
332
274
266
293
262
232
202
23
54
315
133
90
269
97
139
371
236
12
299
392
66
178
128
173
152
324
390
347
216
74
363
234
326
294
185
21
195
383
11
300
30
346
197
10
223
206
69
258
204
210
148
330
169
196
87
360
252
162
146
28
348
75
311
155
289
362
34
17
322
254
15
276
189
267
88
226
92
286
174
242
212
153
102
248
280
78
104
57
296
361
50
105
235
171
156
26
46
215
339
356
84
227
183
138
343
149
365
350
295
378
18
388
141
367
224
33
186
352
270
80
335
230
176
132
36
194
142
135
37
106
65
58
25
263
60
359
1
62
369
323
207
41
158
68
150
313
29
170
325
205
122
290
372
184
282
353
161
354
123
244
99
81
89
218
301
199
85
319
250
381
329
53
364
214
126
190
279
168
91
398
344
395
208
172
375
72
164
117
240
389
380
291
20
131
136
96
273
145
264
79
221
137
16
237
391
22
63
257
200
209
256
387
143
55
103
40
351
94
101
140
167
366
377
59
228
177
310
328
314
219
251
233
157
261
113
198
302
307
112
265
51
38
6
397
165
64
368
304
229
191
86
341
5
116
7
76
147
238
188
98
187
45
247
337
243
382
327
8
163
245
340
115
121
297
19
334
13
220
52
107
27
4
3
379
345
246
306
374
260
127
49
124
271
39
317
349
82
239
144
308
396

> <PUBCHEM_MMFF94_PARTIAL_CHARGES>
21
1 -0.56
10 0.28
11 0.33
14 0.59
15 -0.24
16 -0.18
17 -0.09
18 -0.33
19 0.18
2 -0.57
20 0.18
21 0.81
22 0.28
3 -0.43
38 0.27
4 -0.57
5 -0.81
6 0.03
7 0.27
8 0.27
9 0.28

> <PUBCHEM_EFFECTIVE_ROTOR_COUNT>
7.2

> <PUBCHEM_PHARMACOPHORE_FEATURES>
8
1 1 acceptor
1 2 acceptor
1 4 acceptor
1 5 cation
1 6 cation
1 6 donor
5 6 15 16 17 18 rings
6 1 5 7 8 9 10 rings

> <PUBCHEM_HEAVY_ATOM_COUNT>
23

> <PUBCHEM_ATOM_DEF_STEREO_COUNT>
0

> <PUBCHEM_ATOM_UDEF_STEREO_COUNT>
2

> <PUBCHEM_BOND_DEF_STEREO_COUNT>
0

> <PUBCHEM_BOND_UDEF_STEREO_COUNT>
0

> <PUBCHEM_ISOTOPIC_ATOM_COUNT>
0

> <PUBCHEM_COMPONENT_COUNT>
1

> <PUBCHEM_CACTVS_TAUTO_COUNT>
18

> <PUBCHEM_CONFORMER_ID>
002DBE4100000009

> <PUBCHEM_MMFF94_ENERGY>
41.1212

> <PUBCHEM_FEATURE_SELFOVERLAP>
40.597

> <PUBCHEM_SHAPE_FINGERPRINT>
11089746 13 11458425764684758682
11806522 49 18410015403665326560
12166972 35 17603309245920618284
12236239 1 18273220776549181344
12403259 327 14836401437220198919
12553582 1 18271511049237961371
12633257 1 15195283149286204787
13862211 1 18334016069284795170
13911987 19 17749974231436413044
14251758 9 9727636116032630920
14251764 38 15357991070170881502
14350574 20 18260833721616231457
14739800 52 13190908700647214348
14767858 380 18337117847432012140
14787075 74 18341896282085381264
15375462 189 18343295994604522161
15537594 2 18273493476944948127
17349148 13 18260829289642719648
173720 79 17821718452144794530
1813 80 18272384061280778165
19489759 90 14634870851242381492
200 152 18409167692652689977
20291156 8 18271517637707016467
21267235 1 18340778108381312963
21634736 98 18342449387414259476
21713013 43 17894344493478127863
23035841 295 16988848267859845382
23402539 116 18410014308374884360
235170 7 17023179392902875655
23559900 14 18266461087074483792
23598288 3 18056194670618189737
2838139 119 14273454786090654903
34934 24 18192715535980915289
351380 3 18202845461266778735
404807 14 14135196516695544784
4325135 7 18131354111844148852
46194498 28 17386289899840577509
465052 167 18200039572798048887
5207 217 18187368757380042618
602551 16 16630518548758142263
7970288 3 18272084998687842591

> <PUBCHEM_SHAPE_MULTIPOLES>
439.89
12.63
2.32
1.39
6.1
0.19
-0.48
-2.89
-2.28
0.76
0.4
-1.59
-0.37
-0.57

> <PUBCHEM_SHAPE_SELFOVERLAP>
909.186

> <PUBCHEM_SHAPE_VOLUME>
254.2

> <PUBCHEM_COORDINATE_TYPE>
2
5
10

$$$$
