594662
  -OEChem-01171811413D

 45 49  0     1  0  0  0  0  0999 V2000
   -0.3400    0.7259   -0.5422 O   0  0  0  0  0  0  0  0  0  0  0  0
   -2.0604   -0.7580   -1.1577 N   0  0  1  0  0  0  0  0  0  0  0  0
    1.1827   -1.6618   -0.1039 N   0  0  0  0  0  0  0  0  0  0  0  0
   -1.7818   -0.2617    1.2148 C   0  0  0  0  0  0  0  0  0  0  0  0
   -1.0028   -0.4801   -0.1612 C   0  0  2  0  0  0  0  0  0  0  0  0
   -3.1541    0.1134    0.6878 C   0  0  0  0  0  0  0  0  0  0  0  0
   -3.2471   -0.2207   -0.6694 C   0  0  0  0  0  0  0  0  0  0  0  0
   -1.9365   -1.5412    2.0609 C   0  0  0  0  0  0  0  0  0  0  0  0
   -1.1837    0.8483    2.0919 C   0  0  0  0  0  0  0  0  0  0  0  0
   -0.1069   -1.7083   -0.1198 C   0  0  0  0  0  0  0  0  0  0  0  0
   -1.7929   -0.8851   -2.5739 C   0  0  0  0  0  0  0  0  0  0  0  0
   -4.2287    0.6649    1.3747 C   0  0  0  0  0  0  0  0  0  0  0  0
   -4.4366   -0.0053   -1.3534 C   0  0  0  0  0  0  0  0  0  0  0  0
    1.0179    0.7507   -0.3989 C   0  0  0  0  0  0  0  0  0  0  0  0
    1.7835   -0.3952   -0.1668 C   0  0  0  0  0  0  0  0  0  0  0  0
   -5.4181    0.8885    0.6826 C   0  0  0  0  0  0  0  0  0  0  0  0
   -5.5218    0.5542   -0.6730 C   0  0  0  0  0  0  0  0  0  0  0  0
    3.1915   -0.2784   -0.0240 C   0  0  0  0  0  0  0  0  0  0  0  0
    1.6200    2.0021   -0.5097 C   0  0  0  0  0  0  0  0  0  0  0  0
    3.7957    1.0006   -0.1257 C   0  0  0  0  0  0  0  0  0  0  0  0
    2.9988    2.1261   -0.3706 C   0  0  0  0  0  0  0  0  0  0  0  0
    4.0311   -1.3882    0.2161 C   0  0  0  0  0  0  0  0  0  0  0  0
    5.1873    1.1319    0.0150 C   0  0  0  0  0  0  0  0  0  0  0  0
    5.4127   -1.2409    0.3531 C   0  0  0  0  0  0  0  0  0  0  0  0
    5.9900    0.0183    0.2532 C   0  0  0  0  0  0  0  0  0  0  0  0
   -0.9680   -1.8845    2.4410 H   0  0  0  0  0  0  0  0  0  0  0  0
   -2.5810   -1.3666    2.9312 H   0  0  0  0  0  0  0  0  0  0  0  0
   -2.3909   -2.3598    1.4904 H   0  0  0  0  0  0  0  0  0  0  0  0
   -0.1519    0.6110    2.3726 H   0  0  0  0  0  0  0  0  0  0  0  0
   -1.1900    1.8211    1.5875 H   0  0  0  0  0  0  0  0  0  0  0  0
   -1.7513    0.9738    3.0215 H   0  0  0  0  0  0  0  0  0  0  0  0
   -0.5936   -2.6974   -0.0768 H   0  0  0  0  0  0  0  0  0  0  0  0
   -0.8295   -1.3744   -2.7494 H   0  0  0  0  0  0  0  0  0  0  0  0
   -1.7632    0.0983   -3.0552 H   0  0  0  0  0  0  0  0  0  0  0  0
   -2.5580   -1.4958   -3.0644 H   0  0  0  0  0  0  0  0  0  0  0  0
   -4.1575    0.9116    2.4285 H   0  0  0  0  0  0  0  0  0  0  0  0
   -4.5401   -0.2583   -2.4037 H   0  0  0  0  0  0  0  0  0  0  0  0
   -6.2718    1.3188    1.1985 H   0  0  0  0  0  0  0  0  0  0  0  0
   -6.4557    0.7298   -1.2002 H   0  0  0  0  0  0  0  0  0  0  0  0
    1.0191    2.8882   -0.6970 H   0  0  0  0  0  0  0  0  0  0  0  0
    3.4456    3.1148   -0.4553 H   0  0  0  0  0  0  0  0  0  0  0  0
    3.6171   -2.3910    0.3020 H   0  0  0  0  0  0  0  0  0  0  0  0
    5.6610    2.1088   -0.0614 H   0  0  0  0  0  0  0  0  0  0  0  0
    6.0349   -2.1116    0.5382 H   0  0  0  0  0  0  0  0  0  0  0  0
    7.0644    0.1352    0.3594 H   0  0  0  0  0  0  0  0  0  0  0  0
  1  5  1  0  0  0  0
  1 14  1  0  0  0  0
  2  5  1  0  0  0  0
  2  7  1  0  0  0  0
  2 11  1  0  0  0  0
  3 10  2  0  0  0  0
  3 15  1  0  0  0  0
  4  5  1  0  0  0  0
  4  6  1  0  0  0  0
  4  8  1  0  0  0  0
  4  9  1  0  0  0  0
  5 10  1  0  0  0  0
  6  7  1  0  0  0  0
  6 12  2  0  0  0  0
  7 13  2  0  0  0  0
  8 26  1  0  0  0  0
  8 27  1  0  0  0  0
  8 28  1  0  0  0  0
  9 29  1  0  0  0  0
  9 30  1  0  0  0  0
  9 31  1  0  0  0  0
 10 32  1  0  0  0  0
 11 33  1  0  0  0  0
 11 34  1  0  0  0  0
 11 35  1  0  0  0  0
 12 16  1  0  0  0  0
 12 36  1  0  0  0  0
 13 17  1  0  0  0  0
 13 37  1  0  0  0  0
 14 15  2  0  0  0  0
 14 19  1  0  0  0  0
 15 18  1  0  0  0  0
 16 17  2  0  0  0  0
 16 38  1  0  0  0  0
 17 39  1  0  0  0  0
 18 20  1  0  0  0  0
 18 22  2  0  0  0  0
 19 21  2  0  0  0  0
 19 40  1  0  0  0  0
 20 21  1  0  0  0  0
 20 23  2  0  0  0  0
 21 41  1  0  0  0  0
 22 24  1  0  0  0  0
 22 42  1  0  0  0  0
 23 25  1  0  0  0  0
 23 43  1  0  0  0  0
 24 25  2  0  0  0  0
 24 44  1  0  0  0  0
 25 45  1  0  0  0  0
M  END
> <PUBCHEM_COMPOUND_CID>
594662

> <PUBCHEM_CONFORMER_RMSD>
0.6

> <PUBCHEM_CONFORMER_DIVERSEORDER>
2
3
1
4

> <PUBCHEM_MMFF94_PARTIAL_CHARGES>
32
1 -0.36
10 0.33
11 0.37
12 -0.15
13 -0.15
14 0.08
15 0.18
16 -0.15
17 -0.15
19 -0.15
2 -0.84
21 -0.15
22 -0.15
23 -0.15
24 -0.15
25 -0.15
3 -0.63
32 0.06
36 0.15
37 0.15
38 0.15
39 0.15
4 0.14
40 0.15
41 0.15
42 0.15
43 0.15
44 0.15
45 0.15
5 0.71
6 -0.14
7 0.1

> <PUBCHEM_EFFECTIVE_ROTOR_COUNT>
0.6

> <PUBCHEM_PHARMACOPHORE_FEATURES>
9
1 1 acceptor
1 2 cation
1 3 acceptor
3 4 8 9 hydrophobe
5 2 4 5 6 7 rings
6 1 3 5 10 14 15 rings
6 14 15 18 19 20 21 rings
6 18 20 22 23 24 25 rings
6 6 7 12 13 16 17 rings

> <PUBCHEM_HEAVY_ATOM_COUNT>
25

> <PUBCHEM_ATOM_DEF_STEREO_COUNT>
0

> <PUBCHEM_ATOM_UDEF_STEREO_COUNT>
1

> <PUBCHEM_BOND_DEF_STEREO_COUNT>
0

> <PUBCHEM_BOND_UDEF_STEREO_COUNT>
0

> <PUBCHEM_ISOTOPIC_ATOM_COUNT>
0

> <PUBCHEM_COMPONENT_COUNT>
1

> <PUBCHEM_CACTVS_TAUTO_COUNT>
1

> <PUBCHEM_CONFORMER_ID>
000912E600000002

> <PUBCHEM_MMFF94_ENERGY>
101.2145

> <PUBCHEM_FEATURE_SELFOVERLAP>
45.827

> <PUBCHEM_SHAPE_FINGERPRINT>
10369192 42 15795416541765810268
10906281 52 18263381234154823748
11089746 13 17989487442105774808
11315181 36 16773799229589734586
12011746 2 18187367601865132346
12035758 1 17458632219866117713
12107183 9 17053602707902709762
12166972 35 18130783498978338937
12236239 1 18060415815625532671
12403259 415 17313097540708839397
12633257 1 17313391170400955241
12788726 201 18188762843160782344
128620 24 10735882767991306160
13140716 1 18262243342904947610
13533116 47 17632014153037741222
13583140 156 18268436900351628865
13782708 43 17240773903533067627
14386348 63 17603307050976025890
14739800 52 17059479881469465968
15238133 3 18041858215391056364
15788980 27 17240483623989099518
15961568 22 15482377751564661922
16988056 13 14100695885803427657
17349148 13 17918279765823020996
17980427 23 17346883364067286001
18335252 114 18339910533978915301
19141452 34 17603591858478405155
192875 21 18272937119766261272
19489759 90 15841552972235510141
200 152 18131067138723606769
20511986 3 17988346122933867600
20715895 44 17700422373567932873
21033648 144 18266166400361405636
21033648 29 17386551540199814533
21033650 10 16629150739624990368
21267235 1 18334859364992131166
21279426 13 17751350677759366198
21792961 116 17458902636214683582
22950370 63 11746935395114616072
2297311 6 15285642062243326726
23175994 123 17821449053672173452
23402539 116 16056592149513929893
23559900 14 16660365874832405078
23569943 247 17983302521533280294
2838139 119 18339073792903797533
335352 9 18408603665453690470
345986 75 18195796393890222128
34797466 226 15410613744052969648
3633792 109 16987725584503614973
404807 14 15188574792321763198
4325135 7 9295288339464623104
4340502 62 18260278430080408619
474 4 18412547625750722478
5104073 3 18262232356679194424
5265222 85 16081670936661417026
5385378 56 16588863444093569273
542803 24 18060137639452620052
57724786 102 17968385640298999284

> <PUBCHEM_SHAPE_MULTIPOLES>
498.66
12.31
1.71
1.61
4.56
0.14
-0.06
1.79
0.55
1.44
0.08
-2.21
-0.3
-0.37

> <PUBCHEM_SHAPE_SELFOVERLAP>
1130.485

> <PUBCHEM_SHAPE_VOLUME>
261.3

> <PUBCHEM_COORDINATE_TYPE>
2
5
10

$$$$
