9509306
  -OEChem-01171812043D

 47 48  0     1  0  0  0  0  0999 V2000
    3.6194    0.9913   -0.4703 S   0  0  0  0  0  0  0  0  0  0  0  0
    9.1727   -0.4379    0.9191 F   0  0  0  0  0  0  0  0  0  0  0  0
   -9.6060    0.1731    0.8199 F   0  0  0  0  0  0  0  0  0  0  0  0
   -8.7318   -1.1667   -0.6533 F   0  0  0  0  0  0  0  0  0  0  0  0
    3.0020    1.5335    0.7259 O   0  0  0  0  0  0  0  0  0  0  0  0
    3.6714    1.7986   -1.6752 O   0  0  0  0  0  0  0  0  0  0  0  0
   -1.7517   -1.9763    0.0107 O   0  0  0  0  0  0  0  0  0  0  0  0
   -7.6593    0.7580   -0.1304 O   0  0  0  0  0  0  0  0  0  0  0  0
    2.9155   -0.5446   -0.8304 N   0  0  2  0  0  0  0  0  0  0  0  0
   -2.1180    0.3377    0.1780 N   0  0  0  0  0  0  0  0  0  0  0  0
    2.5013   -1.4007    0.3022 C   0  0  0  0  0  0  0  0  0  0  0  0
    1.0174   -1.7346    0.2006 C   0  0  0  0  0  0  0  0  0  0  0  0
    0.1302   -0.4897    0.2476 C   0  0  0  0  0  0  0  0  0  0  0  0
    5.2862    0.5622   -0.0532 C   0  0  0  0  0  0  0  0  0  0  0  0
    3.5156   -1.3326   -1.9399 C   0  0  0  0  0  0  0  0  0  0  0  0
   -1.3511   -0.8232    0.1306 C   0  0  0  0  0  0  0  0  0  0  0  0
    6.2643    0.5173   -1.0468 C   0  0  0  0  0  0  0  0  0  0  0  0
    5.6211    0.2692    1.2688 C   0  0  0  0  0  0  0  0  0  0  0  0
   -3.5270    0.4445    0.1011 C   0  0  0  0  0  0  0  0  0  0  0  0
    7.5771    0.1794   -0.7183 C   0  0  0  0  0  0  0  0  0  0  0  0
    6.9339   -0.0687    1.5972 C   0  0  0  0  0  0  0  0  0  0  0  0
    7.9120   -0.1135    0.6037 C   0  0  0  0  0  0  0  0  0  0  0  0
   -4.1361    1.6977    0.1648 C   0  0  0  0  0  0  0  0  0  0  0  0
   -4.3067   -0.7035   -0.0397 C   0  0  0  0  0  0  0  0  0  0  0  0
   -5.5248    1.8030    0.0878 C   0  0  0  0  0  0  0  0  0  0  0  0
   -5.6955   -0.5983   -0.1168 C   0  0  0  0  0  0  0  0  0  0  0  0
   -6.3045    0.6551   -0.0530 C   0  0  0  0  0  0  0  0  0  0  0  0
   -8.4277   -0.3302    0.3693 C   0  0  0  0  0  0  0  0  0  0  0  0
    2.6910   -0.9091    1.2617 H   0  0  0  0  0  0  0  0  0  0  0  0
    3.0897   -2.3258    0.3178 H   0  0  0  0  0  0  0  0  0  0  0  0
    0.8246   -2.2853   -0.7286 H   0  0  0  0  0  0  0  0  0  0  0  0
    0.7472   -2.4079    1.0233 H   0  0  0  0  0  0  0  0  0  0  0  0
    0.3800    0.1914   -0.5744 H   0  0  0  0  0  0  0  0  0  0  0  0
    0.2893    0.0448    1.1917 H   0  0  0  0  0  0  0  0  0  0  0  0
    3.7464   -0.6834   -2.7891 H   0  0  0  0  0  0  0  0  0  0  0  0
    2.7963   -2.0788   -2.2915 H   0  0  0  0  0  0  0  0  0  0  0  0
    4.4242   -1.8455   -1.6128 H   0  0  0  0  0  0  0  0  0  0  0  0
    6.0249    0.7372   -2.0833 H   0  0  0  0  0  0  0  0  0  0  0  0
    4.8750    0.2936    2.0578 H   0  0  0  0  0  0  0  0  0  0  0  0
   -1.6242    1.2218    0.2802 H   0  0  0  0  0  0  0  0  0  0  0  0
    8.3387    0.1431   -1.4917 H   0  0  0  0  0  0  0  0  0  0  0  0
    7.1948   -0.2982    2.6261 H   0  0  0  0  0  0  0  0  0  0  0  0
   -3.5402    2.6002    0.2741 H   0  0  0  0  0  0  0  0  0  0  0  0
   -3.9083   -1.7062   -0.1027 H   0  0  0  0  0  0  0  0  0  0  0  0
   -5.9936    2.7821    0.1376 H   0  0  0  0  0  0  0  0  0  0  0  0
   -6.2659   -1.5124   -0.2530 H   0  0  0  0  0  0  0  0  0  0  0  0
   -7.9605   -0.8781    1.1951 H   0  0  0  0  0  0  0  0  0  0  0  0
  1  5  2  0  0  0  0
  1  6  2  0  0  0  0
  1  9  1  0  0  0  0
  1 14  1  0  0  0  0
  2 22  1  0  0  0  0
  3 28  1  0  0  0  0
  4 28  1  0  0  0  0
  7 16  2  0  0  0  0
  8 27  1  0  0  0  0
  8 28  1  0  0  0  0
  9 11  1  0  0  0  0
  9 15  1  0  0  0  0
 10 16  1  0  0  0  0
 10 19  1  0  0  0  0
 10 40  1  0  0  0  0
 11 12  1  0  0  0  0
 11 29  1  0  0  0  0
 11 30  1  0  0  0  0
 12 13  1  0  0  0  0
 12 31  1  0  0  0  0
 12 32  1  0  0  0  0
 13 16  1  0  0  0  0
 13 33  1  0  0  0  0
 13 34  1  0  0  0  0
 14 17  2  0  0  0  0
 14 18  1  0  0  0  0
 15 35  1  0  0  0  0
 15 36  1  0  0  0  0
 15 37  1  0  0  0  0
 17 20  1  0  0  0  0
 17 38  1  0  0  0  0
 18 21  2  0  0  0  0
 18 39  1  0  0  0  0
 19 23  2  0  0  0  0
 19 24  1  0  0  0  0
 20 22  2  0  0  0  0
 20 41  1  0  0  0  0
 21 22  1  0  0  0  0
 21 42  1  0  0  0  0
 23 25  1  0  0  0  0
 23 43  1  0  0  0  0
 24 26  2  0  0  0  0
 24 44  1  0  0  0  0
 25 27  2  0  0  0  0
 25 45  1  0  0  0  0
 26 27  1  0  0  0  0
 26 46  1  0  0  0  0
 28 47  1  0  0  0  0
M  END
> <PUBCHEM_COMPOUND_CID>
9509306

> <PUBCHEM_CONFORMER_RMSD>
1

> <PUBCHEM_CONFORMER_DIVERSEORDER>
1
13
49
80
44
126
87
26
9
21
68
14
65
29
62
67
4
37
72
116
46
129
144
138
88
42
98
143
10
112
71
150
122
83
17
75
100
119
28
20
77
50
30
39
59
69
73
97
91
92
93
7
115
56
145
11
118
2
141
64
121
33
5
63
25
61
124
40
137
57
130
45
34
70
151
51
149
125
35
113
105
8
54
139
109
133
31
16
146
27
99
85
117
23
107
82
148
22
41
36
18
108
24
103
142
102
89
135
147
94
132
134
120
84
53
60
136
48
6
66
90
81
95
78
101
140
47
74
131
79
3
86
38
12
127
58
43
96
55
19
76
15
123
104
128
32
114
106
52
111
110

> <PUBCHEM_MMFF94_PARTIAL_CHARGES>
36
1 1.45
10 -0.55
11 0.36
13 0.06
14 -0.01
15 0.36
16 0.57
17 -0.15
18 -0.15
19 0.12
2 -0.19
20 -0.15
21 -0.15
22 0.19
23 -0.15
24 -0.15
25 -0.15
26 -0.15
27 0.08
28 0.96
3 -0.34
38 0.15
39 0.15
4 -0.34
40 0.37
41 0.15
42 0.15
43 0.15
44 0.15
45 0.15
46 0.15
5 -0.65
6 -0.65
7 -0.57
8 -0.36
9 -0.85

> <PUBCHEM_EFFECTIVE_ROTOR_COUNT>
10

> <PUBCHEM_PHARMACOPHORE_FEATURES>
7
1 10 donor
1 5 acceptor
1 6 acceptor
1 7 acceptor
1 8 acceptor
6 14 17 18 20 21 22 rings
6 19 23 24 25 26 27 rings

> <PUBCHEM_HEAVY_ATOM_COUNT>
28

> <PUBCHEM_ATOM_DEF_STEREO_COUNT>
0

> <PUBCHEM_ATOM_UDEF_STEREO_COUNT>
0

> <PUBCHEM_BOND_DEF_STEREO_COUNT>
0

> <PUBCHEM_BOND_UDEF_STEREO_COUNT>
0

> <PUBCHEM_ISOTOPIC_ATOM_COUNT>
0

> <PUBCHEM_COMPONENT_COUNT>
1

> <PUBCHEM_CACTVS_TAUTO_COUNT>
2

> <PUBCHEM_CONFORMER_ID>
009119BA00000001

> <PUBCHEM_MMFF94_ENERGY>
62.1524

> <PUBCHEM_FEATURE_SELFOVERLAP>
35.541

> <PUBCHEM_SHAPE_FINGERPRINT>
10 15 17749393671948344227
10162869 55 18040711498410654543
10299344 5 17676205771599210472
10883706 142 18272368667811968759
11638347 137 16370725915983347459
11646440 116 17989213663678771560
11719270 70 18131070416506847310
11724838 91 18408039615434642631
12592606 108 8430309131148600961
13422730 43 18409726275289139459
14118638 360 17775010033427289275
14123256 10 18272933821684629361
14251764 18 18040434391019733017
14251764 46 18410292515313726642
14257110 125 18335420166886807091
15183329 4 18411141329226051904
15301273 46 13334733522541381834
15419008 145 17968649424627190092
15419008 47 17561358474431691568
15510794 2 15554445228507115815
15840311 113 17240207655988709604
16120349 18 15936414464115881238
18335252 98 17989771099015666071
19611394 137 17823995609355640593
20157964 124 15697999644441537588
21033648 29 17916285291313460410
21150785 3 15195284231311982091
21591340 7 18334009505915740834
22224240 67 14779547893754279529
24893992 56 18334576880149519211
335352 9 18334861632465689108
335507 130 18272933856450783919
34797466 226 17988650683723609525
4325135 7 18411138043897473039
5283156 175 12535351190665082996
5385378 56 18335699391623025434
59755656 520 17458341974455789458

> <PUBCHEM_SHAPE_MULTIPOLES>
524.82
30.33
1.6
1.17
23.92
0.02
0.2
2.7
-4.39
0.79
0.22
-2.4
-0.01
-0.36

> <PUBCHEM_SHAPE_SELFOVERLAP>
1081.569

> <PUBCHEM_SHAPE_VOLUME>
303.4

> <PUBCHEM_COORDINATE_TYPE>
2
5
10

$$$$
