2329708
  -OEChem-01171812043D

 56 58  0     0  0  0  0  0  0999 V2000
    0.5323    2.4342    1.7035 O   0  0  0  0  0  0  0  0  0  0  0  0
    7.0376   -1.0824    1.3584 O   0  0  0  0  0  0  0  0  0  0  0  0
    7.1731   -1.7765   -1.3289 O   0  0  0  0  0  0  0  0  0  0  0  0
   -4.2531    0.8521   -0.7693 N   0  0  0  0  0  0  0  0  0  0  0  0
   -0.7466    1.7519   -0.1140 N   0  0  0  0  0  0  0  0  0  0  0  0
   -1.9805    2.4059    0.2605 C   0  0  0  0  0  0  0  0  0  0  0  0
   -2.7778    2.8296   -0.9752 C   0  0  0  0  0  0  0  0  0  0  0  0
   -2.8351    1.5027    1.1528 C   0  0  0  0  0  0  0  0  0  0  0  0
   -3.4153    1.6332   -1.6890 C   0  0  0  0  0  0  0  0  0  0  0  0
   -3.4701    0.3505    0.3679 C   0  0  0  0  0  0  0  0  0  0  0  0
   -4.8955   -0.2552   -1.4769 C   0  0  0  0  0  0  0  0  0  0  0  0
   -5.8294   -1.0262   -0.5823 C   0  0  0  0  0  0  0  0  0  0  0  0
    0.4094    1.8244    0.6462 C   0  0  0  0  0  0  0  0  0  0  0  0
   -5.3455   -2.1066    0.1420 C   0  0  0  0  0  0  0  0  0  0  0  0
   -7.1614   -0.6459   -0.4948 C   0  0  0  0  0  0  0  0  0  0  0  0
    1.5289    1.0587    0.0276 C   0  0  0  0  0  0  0  0  0  0  0  0
   -6.2109   -2.8209    0.9706 C   0  0  0  0  0  0  0  0  0  0  0  0
   -8.0267   -1.3601    0.3339 C   0  0  0  0  0  0  0  0  0  0  0  0
   -7.5514   -2.4476    1.0667 C   0  0  0  0  0  0  0  0  0  0  0  0
    2.7226    1.0094    0.6369 C   0  0  0  0  0  0  0  0  0  0  0  0
    3.8941    0.2777    0.1232 C   0  0  0  0  0  0  0  0  0  0  0  0
    4.9187   -0.0584    0.9929 C   0  0  0  0  0  0  0  0  0  0  0  0
    3.9476   -0.0599   -1.2193 C   0  0  0  0  0  0  0  0  0  0  0  0
    6.0274   -0.7514    0.5068 C   0  0  0  0  0  0  0  0  0  0  0  0
    5.0564   -0.7526   -1.7054 C   0  0  0  0  0  0  0  0  0  0  0  0
    6.0963   -1.0985   -0.8424 C   0  0  0  0  0  0  0  0  0  0  0  0
    6.8904   -0.6911    2.7220 C   0  0  0  0  0  0  0  0  0  0  0  0
    8.2644   -0.9971   -1.8144 C   0  0  0  0  0  0  0  0  0  0  0  0
   -1.7136    3.3048    0.8296 H   0  0  0  0  0  0  0  0  0  0  0  0
   -2.1342    3.3727   -1.6779 H   0  0  0  0  0  0  0  0  0  0  0  0
   -3.5711    3.5240   -0.6684 H   0  0  0  0  0  0  0  0  0  0  0  0
   -3.6326    2.1047    1.6085 H   0  0  0  0  0  0  0  0  0  0  0  0
   -2.2361    1.0963    1.9768 H   0  0  0  0  0  0  0  0  0  0  0  0
   -4.0324    2.0217   -2.5086 H   0  0  0  0  0  0  0  0  0  0  0  0
   -2.6389    1.0050   -2.1437 H   0  0  0  0  0  0  0  0  0  0  0  0
   -4.0997   -0.1570    1.1031 H   0  0  0  0  0  0  0  0  0  0  0  0
   -2.6933   -0.3524    0.0403 H   0  0  0  0  0  0  0  0  0  0  0  0
   -5.4722    0.1302   -2.3287 H   0  0  0  0  0  0  0  0  0  0  0  0
   -4.1517   -0.9393   -1.9094 H   0  0  0  0  0  0  0  0  0  0  0  0
   -0.7515    1.1797   -0.9532 H   0  0  0  0  0  0  0  0  0  0  0  0
   -4.3080   -2.4200    0.0660 H   0  0  0  0  0  0  0  0  0  0  0  0
   -7.5417    0.2007   -1.0594 H   0  0  0  0  0  0  0  0  0  0  0  0
    1.3186    0.5404   -0.9007 H   0  0  0  0  0  0  0  0  0  0  0  0
   -5.8418   -3.6701    1.5385 H   0  0  0  0  0  0  0  0  0  0  0  0
   -9.0704   -1.0693    0.4090 H   0  0  0  0  0  0  0  0  0  0  0  0
   -8.2253   -3.0042    1.7114 H   0  0  0  0  0  0  0  0  0  0  0  0
    2.8745    1.5258    1.5819 H   0  0  0  0  0  0  0  0  0  0  0  0
    4.8121    0.2349    2.0319 H   0  0  0  0  0  0  0  0  0  0  0  0
    3.1734    0.2071   -1.9315 H   0  0  0  0  0  0  0  0  0  0  0  0
    5.1058   -1.0167   -2.7584 H   0  0  0  0  0  0  0  0  0  0  0  0
    7.7837   -1.0352    3.2537 H   0  0  0  0  0  0  0  0  0  0  0  0
    6.8583    0.3986    2.8284 H   0  0  0  0  0  0  0  0  0  0  0  0
    6.0322   -1.1827    3.1930 H   0  0  0  0  0  0  0  0  0  0  0  0
    9.0461   -1.6795   -2.1593 H   0  0  0  0  0  0  0  0  0  0  0  0
    7.9461   -0.3748   -2.6568 H   0  0  0  0  0  0  0  0  0  0  0  0
    8.6747   -0.3692   -1.0172 H   0  0  0  0  0  0  0  0  0  0  0  0
  1 13  2  0  0  0  0
  2 24  1  0  0  0  0
  2 27  1  0  0  0  0
  3 26  1  0  0  0  0
  3 28  1  0  0  0  0
  4  9  1  0  0  0  0
  4 10  1  0  0  0  0
  4 11  1  0  0  0  0
  5  6  1  0  0  0  0
  5 13  1  0  0  0  0
  5 40  1  0  0  0  0
  6  7  1  0  0  0  0
  6  8  1  0  0  0  0
  6 29  1  0  0  0  0
  7  9  1  0  0  0  0
  7 30  1  0  0  0  0
  7 31  1  0  0  0  0
  8 10  1  0  0  0  0
  8 32  1  0  0  0  0
  8 33  1  0  0  0  0
  9 34  1  0  0  0  0
  9 35  1  0  0  0  0
 10 36  1  0  0  0  0
 10 37  1  0  0  0  0
 11 12  1  0  0  0  0
 11 38  1  0  0  0  0
 11 39  1  0  0  0  0
 12 14  2  0  0  0  0
 12 15  1  0  0  0  0
 13 16  1  0  0  0  0
 14 17  1  0  0  0  0
 14 41  1  0  0  0  0
 15 18  2  0  0  0  0
 15 42  1  0  0  0  0
 16 20  2  0  0  0  0
 16 43  1  0  0  0  0
 17 19  2  0  0  0  0
 17 44  1  0  0  0  0
 18 19  1  0  0  0  0
 18 45  1  0  0  0  0
 19 46  1  0  0  0  0
 20 21  1  0  0  0  0
 20 47  1  0  0  0  0
 21 22  2  0  0  0  0
 21 23  1  0  0  0  0
 22 24  1  0  0  0  0
 22 48  1  0  0  0  0
 23 25  2  0  0  0  0
 23 49  1  0  0  0  0
 24 26  2  0  0  0  0
 25 26  1  0  0  0  0
 25 50  1  0  0  0  0
 27 51  1  0  0  0  0
 27 52  1  0  0  0  0
 27 53  1  0  0  0  0
 28 54  1  0  0  0  0
 28 55  1  0  0  0  0
 28 56  1  0  0  0  0
M  END
> <PUBCHEM_COMPOUND_CID>
2329708

> <PUBCHEM_CONFORMER_RMSD>
1

> <PUBCHEM_CONFORMER_DIVERSEORDER>
3
108
73
42
84
59
44
117
123
97
100
30
110
8
93
40
22
116
88
6
106
33
50
77
66
12
80
65
92
17
90
46
95
76
11
34
107
29
115
79
70
82
102
60
91
125
118
10
37
113
94
57
5
103
104
83
56
20
18
61
47
52
9
99
78
120
119
36
69
19
32
51
38
39
87
98
24
64
121
1
15
81
62
43
105
67
96
4
124
27
68
28
26
16
89
53
101
7
25
122
35
23
55
72
109
114
31
111
71
49
63
54
74
75
58
2
21
48
41
14
86
85
112
13
45

> <PUBCHEM_MMFF94_PARTIAL_CHARGES>
37
1 -0.57
10 0.27
11 0.41
12 -0.14
13 0.62
14 -0.15
15 -0.15
16 -0.14
17 -0.15
18 -0.15
19 -0.15
2 -0.36
20 -0.18
21 0.03
22 -0.15
23 -0.15
24 0.08
25 -0.15
26 0.08
27 0.28
28 0.28
3 -0.36
4 -0.81
40 0.37
41 0.15
42 0.15
43 0.15
44 0.15
45 0.15
46 0.15
47 0.15
48 0.15
49 0.15
5 -0.73
50 0.15
6 0.3
9 0.27

> <PUBCHEM_EFFECTIVE_ROTOR_COUNT>
9.2

> <PUBCHEM_PHARMACOPHORE_FEATURES>
8
1 1 acceptor
1 2 acceptor
1 3 acceptor
1 4 cation
1 5 donor
6 12 14 15 17 18 19 rings
6 21 22 23 24 25 26 rings
6 4 6 7 8 9 10 rings

> <PUBCHEM_HEAVY_ATOM_COUNT>
28

> <PUBCHEM_ATOM_DEF_STEREO_COUNT>
0

> <PUBCHEM_ATOM_UDEF_STEREO_COUNT>
0

> <PUBCHEM_BOND_DEF_STEREO_COUNT>
1

> <PUBCHEM_BOND_UDEF_STEREO_COUNT>
0

> <PUBCHEM_ISOTOPIC_ATOM_COUNT>
0

> <PUBCHEM_COMPONENT_COUNT>
1

> <PUBCHEM_CACTVS_TAUTO_COUNT>
2

> <PUBCHEM_CONFORMER_ID>
00238C6C00000003

> <PUBCHEM_MMFF94_ENERGY>
86.6243

> <PUBCHEM_FEATURE_SELFOVERLAP>
40.601

> <PUBCHEM_SHAPE_FINGERPRINT>
10 15 12103847886688305867
10029044 110 10519446091379237771
10554248 39 15502655945794984346
11374522 79 18187362112538726555
11809386 21 18335132047543260545
12166972 35 17676208013313754749
12342043 65 18342450474163149361
12760667 363 18272367599298502877
12778500 126 10375875144056677164
13627175 4 18261961739369797754
13668630 136 18410856555355378292
13673619 4 18412825802715289413
13757389 114 17750788854069559629
13782708 43 18410007758307100065
13947930 73 18341332313723901887
14068700 675 18113338622176013093
14123256 34 18342459248432363125
14420673 8 18334859476830287443
14951699 99 11599730596681644577
15183329 4 16443063885370293818
15230672 131 18040704867392671339
15350500 55 10087651381642969331
15461852 350 18113897140134127760
15510800 12 18343026583684894662
15684393 108 18335989731211379454
16120349 189 10591771978552941905
18335252 98 18202282512020102568
18643901 69 18334862710481368317
19246450 95 16630261208236402601
195137 95 10087649169260090671
21095086 4 18190752015063318523
21150785 3 17313107462331167494
21307412 95 18262510512205815471
21344244 246 18189064247424342716
21585481 104 15574978534904271663
22149856 69 17632584842379630264
23081809 10 17241048683315340744
2747138 104 17989485204417186280
2748736 6 9222963547422520687
2838139 119 12035987085715918517
3383291 50 18343299292755251387
3663271 9 14548727435041590414
3862424 121 17170128190617466571
4107672 100 17385714778588305453
439807 62 18187079559946742739
4461854 278 17203892981171931478
44880168 125 18268986661268073175
5104073 3 16845009001357404672
54039377 194 18202009815534409676
5470011 282 17022904579335817727
58083652 198 15554150485933290352
58902169 19 16443063881144093775
6009941 240 17773884108189116777
636775 8 18341905073851690542
9995097 26 18272096002783392828
999808 66 18202283602271733823

> <PUBCHEM_SHAPE_MULTIPOLES>
548.66
27.13
2.86
1.85
9.13
0.53
0.25
-24.76
-1.54
-4.76
0.44
3.38
-0.2
2.14

> <PUBCHEM_SHAPE_SELFOVERLAP>
1155.686

> <PUBCHEM_SHAPE_VOLUME>
308.2

> <PUBCHEM_COORDINATE_TYPE>
2
5
10

$$$$
