2356847
  -OEChem-01171811533D

 40 41  0     0  0  0  0  0  0999 V2000
    0.7588    0.4021   -0.1628 O   0  0  0  0  0  0  0  0  0  0  0  0
   -1.3602   -0.7843    0.7108 O   0  0  0  0  0  0  0  0  0  0  0  0
    1.9415    2.0720   -1.2455 O   0  0  0  0  0  0  0  0  0  0  0  0
    6.5027    0.3125    0.5455 O   0  0  0  0  0  0  0  0  0  0  0  0
    3.6145   -3.2577    0.2334 O   0  0  0  0  0  0  0  0  0  0  0  0
   -2.9211    0.8225   -0.0011 N   0  0  0  0  0  0  0  0  0  0  0  0
    2.8306   -1.1363   -0.1742 N   0  0  0  0  0  0  0  0  0  0  0  0
    5.0669   -1.4764    0.3912 N   0  0  0  0  0  0  0  0  0  0  0  0
    4.5647    2.1114   -0.1028 N   0  0  0  0  0  0  0  0  0  0  0  0
   -3.1508    2.2724   -0.0889 C   0  0  0  0  0  0  0  0  0  0  0  0
   -4.0603   -0.0708   -0.0545 C   0  0  0  0  0  0  0  0  0  0  0  0
   -1.6312    0.2725    0.1329 C   0  0  0  0  0  0  0  0  0  0  0  0
   -0.4752    1.0723   -0.4399 C   0  0  0  0  0  0  0  0  0  0  0  0
   -3.3552    2.8856    1.2810 C   0  0  0  0  0  0  0  0  0  0  0  0
   -3.8760   -1.3185   -0.5870 C   0  0  0  0  0  0  0  0  0  0  0  0
   -5.2576    0.3821    0.4311 C   0  0  0  0  0  0  0  0  0  0  0  0
    3.0429    0.2161   -0.2656 C   0  0  0  0  0  0  0  0  0  0  0  0
    4.2395    0.7868   -0.0415 C   0  0  0  0  0  0  0  0  0  0  0  0
    1.8699    1.0242   -0.6279 C   0  0  0  0  0  0  0  0  0  0  0  0
   -4.9727   -2.1789   -0.6381 C   0  0  0  0  0  0  0  0  0  0  0  0
   -6.3542   -0.4784    0.3801 C   0  0  0  0  0  0  0  0  0  0  0  0
   -6.2117   -1.7589   -0.1546 C   0  0  0  0  0  0  0  0  0  0  0  0
    5.3754   -0.1264    0.3234 C   0  0  0  0  0  0  0  0  0  0  0  0
    3.8189   -2.0459    0.1549 C   0  0  0  0  0  0  0  0  0  0  0  0
   -4.0222    2.4586   -0.7284 H   0  0  0  0  0  0  0  0  0  0  0  0
   -2.3143    2.7670   -0.5882 H   0  0  0  0  0  0  0  0  0  0  0  0
   -0.4383    2.0530    0.0436 H   0  0  0  0  0  0  0  0  0  0  0  0
   -0.6139    1.1710   -1.5217 H   0  0  0  0  0  0  0  0  0  0  0  0
   -4.0818    2.3768    1.9153 H   0  0  0  0  0  0  0  0  0  0  0  0
   -2.4091    2.8750    1.8352 H   0  0  0  0  0  0  0  0  0  0  0  0
   -3.6624    3.9317    1.1819 H   0  0  0  0  0  0  0  0  0  0  0  0
   -2.9368   -1.6626   -1.0063 H   0  0  0  0  0  0  0  0  0  0  0  0
   -5.4382    1.3682    0.8312 H   0  0  0  0  0  0  0  0  0  0  0  0
   -4.8645   -3.1728   -1.0628 H   0  0  0  0  0  0  0  0  0  0  0  0
   -7.3212   -0.1502    0.7502 H   0  0  0  0  0  0  0  0  0  0  0  0
    1.8950   -1.4867   -0.3598 H   0  0  0  0  0  0  0  0  0  0  0  0
   -7.0665   -2.4275   -0.1977 H   0  0  0  0  0  0  0  0  0  0  0  0
    5.8223   -2.1100    0.6366 H   0  0  0  0  0  0  0  0  0  0  0  0
    5.5129    2.4082    0.0914 H   0  0  0  0  0  0  0  0  0  0  0  0
    3.8597    2.7977   -0.3399 H   0  0  0  0  0  0  0  0  0  0  0  0
  1 13  1  0  0  0  0
  1 19  1  0  0  0  0
  2 12  2  0  0  0  0
  3 19  2  0  0  0  0
  4 23  2  0  0  0  0
  5 24  2  0  0  0  0
  6 10  1  0  0  0  0
  6 11  1  0  0  0  0
  6 12  1  0  0  0  0
  7 17  1  0  0  0  0
  7 24  1  0  0  0  0
  7 36  1  0  0  0  0
  8 23  1  0  0  0  0
  8 24  1  0  0  0  0
  8 38  1  0  0  0  0
  9 18  1  0  0  0  0
  9 39  1  0  0  0  0
  9 40  1  0  0  0  0
 10 14  1  0  0  0  0
 10 25  1  0  0  0  0
 10 26  1  0  0  0  0
 11 15  2  0  0  0  0
 11 16  1  0  0  0  0
 12 13  1  0  0  0  0
 13 27  1  0  0  0  0
 13 28  1  0  0  0  0
 14 29  1  0  0  0  0
 14 30  1  0  0  0  0
 14 31  1  0  0  0  0
 15 20  1  0  0  0  0
 15 32  1  0  0  0  0
 16 21  2  0  0  0  0
 16 33  1  0  0  0  0
 17 18  2  0  0  0  0
 17 19  1  0  0  0  0
 18 23  1  0  0  0  0
 20 22  2  0  0  0  0
 20 34  1  0  0  0  0
 21 22  1  0  0  0  0
 21 35  1  0  0  0  0
 22 37  1  0  0  0  0
M  END
> <PUBCHEM_COMPOUND_CID>
2356847

> <PUBCHEM_CONFORMER_RMSD>
1

> <PUBCHEM_CONFORMER_DIVERSEORDER>
2
254
20
61
248
43
68
177
33
58
91
7
174
99
97
162
237
134
179
156
243
24
232
18
29
160
120
65
128
261
158
77
191
98
82
66
211
35
241
60
138
231
103
252
204
172
110
9
109
157
181
151
50
116
141
57
85
46
222
200
17
226
186
44
239
117
41
217
230
119
193
23
3
13
12
183
124
59
89
234
240
62
70
259
171
39
113
102
161
224
178
63
32
253
146
190
36
125
4
72
11
69
112
221
176
170
242
238
38
143
27
256
212
52
215
187
233
147
188
246
139
203
132
182
131
137
250
192
213
1
136
198
100
53
67
236
173
25
5
15
48
194
201
28
245
56
218
118
189
244
150
223
165
16
19
96
107
104
126
88
30
184
79
154
55
92
74
6
140
14
159
185
258
54
130
111
45
214
47
129
127
167
115
90
22
155
180
114
81
51
229
21
26
83
225
145
206
95
149
235
86
168
64
257
247
153
122
199
34
208
94
80
148
49
71
144
210
101
37
108
73
260
133
135
175
105
76
10
75
142
249
197
216
42
87
106
166
227
169
220
202
219
255
93
207
121
84
164
196
209
78
195
8
40
123
205
31
228
163
152
251

> <PUBCHEM_MMFF94_PARTIAL_CHARGES>
32
1 -0.43
10 0.3
11 0.12
12 0.57
13 0.34
15 -0.15
16 -0.15
17 0.12
18 0.11
19 0.71
2 -0.57
20 -0.15
21 -0.15
22 -0.15
23 0.62
24 0.69
3 -0.57
32 0.15
33 0.15
34 0.15
35 0.15
36 0.37
37 0.15
38 0.37
39 0.4
4 -0.57
40 0.4
5 -0.57
6 -0.48
7 -0.54
8 -0.49
9 -0.9

> <PUBCHEM_EFFECTIVE_ROTOR_COUNT>
7

> <PUBCHEM_PHARMACOPHORE_FEATURES>
10
1 2 acceptor
1 3 acceptor
1 4 acceptor
1 5 acceptor
1 7 donor
1 8 donor
1 9 cation
1 9 donor
6 11 15 16 20 21 22 rings
6 7 8 17 18 23 24 rings

> <PUBCHEM_HEAVY_ATOM_COUNT>
24

> <PUBCHEM_ATOM_DEF_STEREO_COUNT>
0

> <PUBCHEM_ATOM_UDEF_STEREO_COUNT>
0

> <PUBCHEM_BOND_DEF_STEREO_COUNT>
0

> <PUBCHEM_BOND_UDEF_STEREO_COUNT>
0

> <PUBCHEM_ISOTOPIC_ATOM_COUNT>
0

> <PUBCHEM_COMPONENT_COUNT>
1

> <PUBCHEM_CACTVS_TAUTO_COUNT>
18

> <PUBCHEM_CONFORMER_ID>
0023F66F00000002

> <PUBCHEM_MMFF94_ENERGY>
81.1412

> <PUBCHEM_FEATURE_SELFOVERLAP>
50.791

> <PUBCHEM_SHAPE_FINGERPRINT>
10595046 47 18411982472437016816
11089746 13 9367349227768691227
12107183 9 17836088866269998408
12166972 35 18408325510012504136
12236239 1 18335703862419755477
12516196 113 18341894108251557136
12596602 18 17918276437497699706
12839892 36 17989489611011661647
13073987 5 18341050718250210088
13167823 11 18413106138971447535
13533116 47 18411139160061618144
13583140 156 17417515935047664121
14211702 104 18335994146364341099
14251764 18 18187362160553265408
14341114 176 18411422791254284255
14347332 77 18408038494743649029
15183329 4 18335136501382024887
15250474 111 18341326799080858791
17492 89 18341614750488378430
17834072 33 18409730672823707124
17844677 252 18340774766596407472
17857418 61 18410573989794759967
1813 80 17240772739549217164
19377110 9 18271817829919367801
20028762 73 18411132507643521706
20645477 70 18186800279740466302
21033648 29 14548742759827787539
21065198 48 18412831261096301324
21197605 99 18338800138540332038
21267235 1 18410297999744403102
220451 1 18340496633446728805
23198884 109 11314022474792845757
23402539 116 18410853287608167213
23522609 53 18119280361137270948
23559900 14 18191021416343426489
3004659 81 18187362146839896050
34797466 226 17561089137665171260
4073 2 18114749350959298595
4214541 1 18411419466812745757
5104073 3 18200308814858367320
5924683 9 18413108338564473649
6431902 208 18336545018885426691
67856867 119 18338799034517160493
7495541 125 17775000232164428360
9709674 26 18261399944208352674

> <PUBCHEM_SHAPE_MULTIPOLES>
444.64
16.85
2.82
0.83
1.18
0.18
0
5.78
-1.88
-0.33
-0.22
-0.19
-0.25
-1.51

> <PUBCHEM_SHAPE_SELFOVERLAP>
944.231

> <PUBCHEM_SHAPE_VOLUME>
244.2

> <PUBCHEM_COORDINATE_TYPE>
2
5
10

$$$$
