3154276
  -OEChem-01171811403D

 40 43  0     1  0  0  0  0  0999 V2000
    5.5147    0.7087   -0.4760 O   0  0  0  0  0  0  0  0  0  0  0  0
   -0.6118   -1.0720    0.0808 N   0  0  0  0  0  0  0  0  0  0  0  0
   -5.6512   -0.8664    0.2249 N   0  0  0  0  0  0  0  0  0  0  0  0
   -1.0761    1.2970   -0.4134 C   0  0  1  0  0  0  0  0  0  0  0  0
    0.4252    1.5463   -0.7009 C   0  0  2  0  0  0  0  0  0  0  0  0
   -1.4875   -0.1639   -0.6458 C   0  0  2  0  0  0  0  0  0  0  0  0
   -1.3112    1.8569    1.0035 C   0  0  0  0  0  0  0  0  0  0  0  0
    1.3174    0.3737   -0.3437 C   0  0  0  0  0  0  0  0  0  0  0  0
    0.6779    2.7552    0.1596 C   0  0  0  0  0  0  0  0  0  0  0  0
    0.7646   -0.8648    0.0389 C   0  0  0  0  0  0  0  0  0  0  0  0
   -0.2677    2.9199    1.0902 C   0  0  0  0  0  0  0  0  0  0  0  0
   -2.9539   -0.4115   -0.3394 C   0  0  0  0  0  0  0  0  0  0  0  0
    2.7148    0.5175   -0.4048 C   0  0  0  0  0  0  0  0  0  0  0  0
    1.6284   -1.9032    0.4229 C   0  0  0  0  0  0  0  0  0  0  0  0
    3.5564   -0.5333   -0.0446 C   0  0  0  0  0  0  0  0  0  0  0  0
   -3.9138   -0.2121   -1.3237 C   0  0  0  0  0  0  0  0  0  0  0  0
   -3.3376   -0.8376    0.9261 C   0  0  0  0  0  0  0  0  0  0  0  0
    3.0130   -1.7408    0.3786 C   0  0  0  0  0  0  0  0  0  0  0  0
    4.9995   -0.3631   -0.0999 C   0  0  0  0  0  0  0  0  0  0  0  0
   -5.2380   -0.4517   -0.9937 C   0  0  0  0  0  0  0  0  0  0  0  0
   -4.6876   -1.0491    1.1554 C   0  0  0  0  0  0  0  0  0  0  0  0
    5.9245   -1.5058    0.3051 C   0  0  0  0  0  0  0  0  0  0  0  0
   -1.6594    1.9289   -1.1033 H   0  0  0  0  0  0  0  0  0  0  0  0
    0.5569    1.7854   -1.7630 H   0  0  0  0  0  0  0  0  0  0  0  0
   -1.3418   -0.3874   -1.7129 H   0  0  0  0  0  0  0  0  0  0  0  0
   -1.1567    1.1178    1.7957 H   0  0  0  0  0  0  0  0  0  0  0  0
   -2.3171    2.2777    1.0965 H   0  0  0  0  0  0  0  0  0  0  0  0
    1.5356    3.4043    0.0504 H   0  0  0  0  0  0  0  0  0  0  0  0
   -0.9342   -2.0154    0.2686 H   0  0  0  0  0  0  0  0  0  0  0  0
   -0.2660    3.7066    1.8302 H   0  0  0  0  0  0  0  0  0  0  0  0
    3.1334    1.4676   -0.7306 H   0  0  0  0  0  0  0  0  0  0  0  0
    1.2226   -2.8595    0.7470 H   0  0  0  0  0  0  0  0  0  0  0  0
   -3.6480    0.1221   -2.3206 H   0  0  0  0  0  0  0  0  0  0  0  0
   -2.6284   -0.9974    1.7304 H   0  0  0  0  0  0  0  0  0  0  0  0
    3.6279   -2.5839    0.6775 H   0  0  0  0  0  0  0  0  0  0  0  0
   -6.0269   -0.3106   -1.7252 H   0  0  0  0  0  0  0  0  0  0  0  0
   -5.0409   -1.3793    2.1267 H   0  0  0  0  0  0  0  0  0  0  0  0
    5.7689   -2.3681   -0.3484 H   0  0  0  0  0  0  0  0  0  0  0  0
    5.7632   -1.7692    1.3537 H   0  0  0  0  0  0  0  0  0  0  0  0
    6.9640   -1.1811    0.1943 H   0  0  0  0  0  0  0  0  0  0  0  0
  1 19  2  0  0  0  0
  2  6  1  0  0  0  0
  2 10  1  0  0  0  0
  2 29  1  0  0  0  0
  3 20  2  0  0  0  0
  3 21  1  0  0  0  0
  4  5  1  0  0  0  0
  4  6  1  0  0  0  0
  4  7  1  0  0  0  0
  4 23  1  0  0  0  0
  5  8  1  0  0  0  0
  5  9  1  0  0  0  0
  5 24  1  0  0  0  0
  6 12  1  0  0  0  0
  6 25  1  0  0  0  0
  7 11  1  0  0  0  0
  7 26  1  0  0  0  0
  7 27  1  0  0  0  0
  8 10  2  0  0  0  0
  8 13  1  0  0  0  0
  9 11  2  0  0  0  0
  9 28  1  0  0  0  0
 10 14  1  0  0  0  0
 11 30  1  0  0  0  0
 12 16  2  0  0  0  0
 12 17  1  0  0  0  0
 13 15  2  0  0  0  0
 13 31  1  0  0  0  0
 14 18  2  0  0  0  0
 14 32  1  0  0  0  0
 15 18  1  0  0  0  0
 15 19  1  0  0  0  0
 16 20  1  0  0  0  0
 16 33  1  0  0  0  0
 17 21  2  0  0  0  0
 17 34  1  0  0  0  0
 18 35  1  0  0  0  0
 19 22  1  0  0  0  0
 20 36  1  0  0  0  0
 21 37  1  0  0  0  0
 22 38  1  0  0  0  0
 22 39  1  0  0  0  0
 22 40  1  0  0  0  0
M  END
> <PUBCHEM_COMPOUND_CID>
3154276

> <PUBCHEM_CONFORMER_RMSD>
0.6

> <PUBCHEM_CONFORMER_DIVERSEORDER>
1
7
14
10
4
21
8
27
5
25
20
13
9
19
17
11
6
23
26
15
24
16
12
18
2
22
28
3

> <PUBCHEM_MMFF94_PARTIAL_CHARGES>
31
1 -0.57
10 0.1
11 -0.29
12 -0.14
13 -0.15
14 -0.15
15 0.09
16 -0.15
17 -0.15
18 -0.15
19 0.42
2 -0.87
20 0.16
21 0.16
22 0.06
28 0.15
29 0.4
3 -0.62
30 0.15
31 0.15
32 0.15
33 0.15
34 0.15
35 0.15
36 0.15
37 0.15
5 0.28
6 0.51
7 0.14
8 -0.14
9 -0.29

> <PUBCHEM_EFFECTIVE_ROTOR_COUNT>
2.6

> <PUBCHEM_PHARMACOPHORE_FEATURES>
8
1 1 acceptor
1 2 cation
1 2 donor
1 3 acceptor
5 4 5 7 9 11 rings
6 2 4 5 6 8 10 rings
6 3 12 16 17 20 21 rings
6 8 10 13 14 15 18 rings

> <PUBCHEM_HEAVY_ATOM_COUNT>
22

> <PUBCHEM_ATOM_DEF_STEREO_COUNT>
0

> <PUBCHEM_ATOM_UDEF_STEREO_COUNT>
3

> <PUBCHEM_BOND_DEF_STEREO_COUNT>
0

> <PUBCHEM_BOND_UDEF_STEREO_COUNT>
0

> <PUBCHEM_ISOTOPIC_ATOM_COUNT>
0

> <PUBCHEM_COMPONENT_COUNT>
1

> <PUBCHEM_CACTVS_TAUTO_COUNT>
9

> <PUBCHEM_CONFORMER_ID>
0030216400000001

> <PUBCHEM_MMFF94_ENERGY>
72.6507

> <PUBCHEM_FEATURE_SELFOVERLAP>
40.821

> <PUBCHEM_SHAPE_FINGERPRINT>
10906281 52 18339663177483288575
1100329 8 18267585882578424210
11045515 52 18259982656424573812
11135609 187 18117004488601512972
11265709 11 18342739611123710121
11796584 16 17385438830311572243
12166972 35 17894353268053914708
12236239 1 17846499253226732583
12516196 113 18343016713728365091
12553582 1 18342726425547640375
12760667 363 18411416172646689226
12788726 201 18337946775402611586
13134695 92 18270958050703023245
13140716 1 18196374946695262794
13544653 18 18410294687928966007
13862211 1 18411978070275120406
13899415 154 18342185500170500224
14347332 77 18127131875498414054
14787075 74 18334859441578778106
14955137 171 18201166549807980335
15196674 1 18335983069532128820
15927050 60 17693659629531879380
17349148 13 18041003904131556146
17492 89 18122904231730642202
1813 80 18060150833397299853
18222031 100 18131056152324033247
200 152 18409445869062667351
20510252 161 18270963432259621720
21029758 11 18412541024365077905
21236236 1 18341333284111878872
21250096 35 18411416207127500059
21267235 1 18409454665551594806
21641784 216 18188225216571850756
21792934 111 18341317925646497304
22182313 1 18193247836900252964
2297311 6 18272661104230644630
23175994 123 18409732872115942605
23352939 185 18131634499840823160
23402539 116 18201996607898206695
23536379 177 15791725295830028038
23557571 272 18201722799902232534
23559900 14 17968090993179200749
23569914 152 17045403584942828014
23845131 108 17123123706766606360
25147074 1 18270700726016564929
26918003 58 18187083953413618819
283562 15 18338234847691668656
2871803 45 18260545598272921526
3004659 81 17749387045025010722
312423 11 18192719951692474970
314173 85 18131357392529048669
314194 84 18411979178324006703
404807 14 15002988246312678000
5104073 3 18268705018581319162
5283173 99 17677040231620004533
5486654 2 18336551603180665222
57527295 17 18118375433882840487
59755656 215 18336549322590591014
7471813 234 17988634238246775725
8863177 126 18044103582103537003

> <PUBCHEM_SHAPE_MULTIPOLES>
436.92
11.48
2.4
1.04
2.18
1.81
0.04
-6.58
-0.53
0.67
0.75
-0.99
0.11
-0.26

> <PUBCHEM_SHAPE_SELFOVERLAP>
967.887

> <PUBCHEM_SHAPE_VOLUME>
232.2

> <PUBCHEM_COORDINATE_TYPE>
2
5
10

$$$$
