3103133
  -OEChem-01171811403D

 39 41  0     1  0  0  0  0  0999 V2000
    1.7469    1.4554    2.0960 O   0  0  0  0  0  0  0  0  0  0  0  0
   -0.5148    0.0761    2.1255 O   0  0  0  0  0  0  0  0  0  0  0  0
   -0.4005   -2.0564    0.0438 O   0  0  0  0  0  0  0  0  0  0  0  0
   -2.5835   -0.4709    0.3073 O   0  0  0  0  0  0  0  0  0  0  0  0
   -3.0419    1.3464   -1.0517 O   0  0  0  0  0  0  0  0  0  0  0  0
    1.0240    2.1687   -0.0516 N   0  0  0  0  0  0  0  0  0  0  0  0
    1.3473    1.0433    0.8004 C   0  0  2  0  0  0  0  0  0  0  0  0
   -0.0002    0.2344    0.8258 C   0  0  2  0  0  0  0  0  0  0  0  0
    2.3276    0.1060    0.1622 C   0  0  0  0  0  0  0  0  0  0  0  0
   -0.9106    1.0559   -0.0562 C   0  0  0  0  0  0  0  0  0  0  0  0
    0.3507   -1.1110    0.2037 C   0  0  0  0  0  0  0  0  0  0  0  0
    1.7590   -1.1195   -0.1763 C   0  0  0  0  0  0  0  0  0  0  0  0
   -0.2696    2.1414   -0.5225 C   0  0  0  0  0  0  0  0  0  0  0  0
    3.6684    0.3367   -0.1088 C   0  0  0  0  0  0  0  0  0  0  0  0
   -2.2914    0.6894   -0.3390 C   0  0  0  0  0  0  0  0  0  0  0  0
    2.4732   -2.1396   -0.7779 C   0  0  0  0  0  0  0  0  0  0  0  0
   -0.7512    3.2281   -1.4168 C   0  0  0  0  0  0  0  0  0  0  0  0
    4.4150   -0.6776   -0.7171 C   0  0  0  0  0  0  0  0  0  0  0  0
    3.8214   -1.9068   -1.0486 C   0  0  0  0  0  0  0  0  0  0  0  0
   -3.9145   -0.9648    0.1256 C   0  0  0  0  0  0  0  0  0  0  0  0
   -4.1656   -1.1936   -1.3572 C   0  0  0  0  0  0  0  0  0  0  0  0
   -4.0897   -2.2416    0.9336 C   0  0  0  0  0  0  0  0  0  0  0  0
    1.6687    2.9100   -0.2914 H   0  0  0  0  0  0  0  0  0  0  0  0
    4.1354    1.2832    0.1435 H   0  0  0  0  0  0  0  0  0  0  0  0
    1.0771    2.0852    2.4121 H   0  0  0  0  0  0  0  0  0  0  0  0
    0.2052   -0.2429    2.6958 H   0  0  0  0  0  0  0  0  0  0  0  0
    2.0122   -3.0867   -1.0339 H   0  0  0  0  0  0  0  0  0  0  0  0
    0.0461    3.5361   -2.1029 H   0  0  0  0  0  0  0  0  0  0  0  0
   -1.0442    4.1023   -0.8270 H   0  0  0  0  0  0  0  0  0  0  0  0
   -1.5950    2.9309   -2.0423 H   0  0  0  0  0  0  0  0  0  0  0  0
    5.4668   -0.5139   -0.9365 H   0  0  0  0  0  0  0  0  0  0  0  0
    4.4195   -2.6814   -1.5208 H   0  0  0  0  0  0  0  0  0  0  0  0
   -4.6222   -0.2210    0.5128 H   0  0  0  0  0  0  0  0  0  0  0  0
   -5.0358   -1.8431   -1.5050 H   0  0  0  0  0  0  0  0  0  0  0  0
   -4.3880   -0.2738   -1.9034 H   0  0  0  0  0  0  0  0  0  0  0  0
   -3.3020   -1.6643   -1.8400 H   0  0  0  0  0  0  0  0  0  0  0  0
   -5.1074   -2.6340    0.8474 H   0  0  0  0  0  0  0  0  0  0  0  0
   -3.8748   -2.0551    1.9913 H   0  0  0  0  0  0  0  0  0  0  0  0
   -3.3857   -3.0125    0.6014 H   0  0  0  0  0  0  0  0  0  0  0  0
  1  7  1  0  0  0  0
  1 25  1  0  0  0  0
  2  8  1  0  0  0  0
  2 26  1  0  0  0  0
  3 11  2  0  0  0  0
  4 15  1  0  0  0  0
  4 20  1  0  0  0  0
  5 15  2  0  0  0  0
  6  7  1  0  0  0  0
  6 13  1  0  0  0  0
  6 23  1  0  0  0  0
  7  8  1  0  0  0  0
  7  9  1  0  0  0  0
  8 10  1  0  0  0  0
  8 11  1  0  0  0  0
  9 12  1  0  0  0  0
  9 14  2  0  0  0  0
 10 13  2  0  0  0  0
 10 15  1  0  0  0  0
 11 12  1  0  0  0  0
 12 16  2  0  0  0  0
 13 17  1  0  0  0  0
 14 18  1  0  0  0  0
 14 24  1  0  0  0  0
 16 19  1  0  0  0  0
 16 27  1  0  0  0  0
 17 28  1  0  0  0  0
 17 29  1  0  0  0  0
 17 30  1  0  0  0  0
 18 19  2  0  0  0  0
 18 31  1  0  0  0  0
 19 32  1  0  0  0  0
 20 21  1  0  0  0  0
 20 22  1  0  0  0  0
 20 33  1  0  0  0  0
 21 34  1  0  0  0  0
 21 35  1  0  0  0  0
 21 36  1  0  0  0  0
 22 37  1  0  0  0  0
 22 38  1  0  0  0  0
 22 39  1  0  0  0  0
M  END
> <PUBCHEM_COMPOUND_CID>
3103133

> <PUBCHEM_CONFORMER_RMSD>
0.6

> <PUBCHEM_CONFORMER_DIVERSEORDER>
3
25
10
24
6
13
21
15
4
29
26
2
14
18
12
1
31
9
16
30
11
8
17
23
7
5
22
20
28
19
27

> <PUBCHEM_MMFF94_PARTIAL_CHARGES>
27
1 -0.68
10 -0.12
11 0.42
12 0.09
13 -0.04
14 -0.15
15 0.71
16 -0.15
17 0.14
18 -0.15
19 -0.15
2 -0.68
20 0.28
23 0.4
24 0.15
25 0.4
26 0.4
27 0.15
3 -0.57
31 0.15
32 0.15
4 -0.43
5 -0.57
6 -0.87
7 0.79
8 0.48
9 -0.14

> <PUBCHEM_EFFECTIVE_ROTOR_COUNT>
3.2

> <PUBCHEM_PHARMACOPHORE_FEATURES>
12
1 1 acceptor
1 1 donor
1 2 acceptor
1 2 donor
1 3 acceptor
1 5 acceptor
1 6 cation
1 6 donor
3 20 21 22 hydrophobe
5 6 7 8 10 13 rings
5 7 8 9 11 12 rings
6 9 12 14 16 18 19 rings

> <PUBCHEM_HEAVY_ATOM_COUNT>
22

> <PUBCHEM_ATOM_DEF_STEREO_COUNT>
0

> <PUBCHEM_ATOM_UDEF_STEREO_COUNT>
2

> <PUBCHEM_BOND_DEF_STEREO_COUNT>
0

> <PUBCHEM_BOND_UDEF_STEREO_COUNT>
0

> <PUBCHEM_ISOTOPIC_ATOM_COUNT>
0

> <PUBCHEM_COMPONENT_COUNT>
1

> <PUBCHEM_CACTVS_TAUTO_COUNT>
2

> <PUBCHEM_CONFORMER_ID>
002F599D00000003

> <PUBCHEM_MMFF94_ENERGY>
64.6663

> <PUBCHEM_FEATURE_SELFOVERLAP>
61.477

> <PUBCHEM_SHAPE_FINGERPRINT>
10498660 4 18114173082454639325
10863032 1 18269836406849937844
10948715 1 10665236968252660548
11578080 2 17702644606278094185
11640471 11 15647896981383578389
12035758 1 18128243674995287242
12054548 360 18410289168790593175
12403259 226 18338797806720256124
12506688 2 18202284680076630486
12553582 1 18259979362838220107
12670546 177 18040439905689137492
13140716 1 18339075965349400275
13299463 15 18197214737724895420
13544653 18 18131636677093829559
13583140 156 14835834019968202171
14251745 187 18337384942114436288
14790565 3 17688876332860448045
15527383 91 18201169797261958475
16945 1 17917417752964940712
17357779 13 18409721876857233895
17492 54 17970081121751798540
1813 80 18198930091749176679
19141452 34 18272093760493939735
200 152 17774440465372493270
20645477 70 17900809763731136255
20871999 31 18187363199544610423
221490 88 18337115682262189723
22182313 1 18337936978793380885
22907989 373 17389988570936036430
23402539 116 18040714732372848182
23419403 2 17773574092948456560
23557571 272 18334847299469082949
23559900 14 17838047106092920454
2748010 2 18337656581943028341
2871803 45 18408880720270879791
3286 77 17846777433567817056
3323516 105 18342454846133232118
46194498 28 17899957607801849967
7364860 26 18121785199011970469

> <PUBCHEM_SHAPE_MULTIPOLES>
418.42
7.22
2.85
1.37
1.61
1.08
-0.42
-5.02
1.91
0.65
0.84
0.18
0.3
1.34

> <PUBCHEM_SHAPE_SELFOVERLAP>
923.644

> <PUBCHEM_SHAPE_VOLUME>
227

> <PUBCHEM_COORDINATE_TYPE>
2
5
10

$$$$
