992588
  -OEChem-01171811493D

 47 49  0     0  0  0  0  0  0999 V2000
    0.6948   -1.9603    2.1409 S   0  0  0  0  0  0  0  0  0  0  0  0
   -3.8163    0.8729   -0.0164 S   0  0  0  0  0  0  0  0  0  0  0  0
    1.6055   -2.5766    3.0877 O   0  0  0  0  0  0  0  0  0  0  0  0
   -0.5871   -2.5806    1.8662 O   0  0  0  0  0  0  0  0  0  0  0  0
   -2.0320    3.0500   -1.1209 O   0  0  0  0  0  0  0  0  0  0  0  0
   -5.2689   -2.6101   -0.9653 O   0  0  0  0  0  0  0  0  0  0  0  0
   -5.9931   -0.5120   -1.4538 O   0  0  0  0  0  0  0  0  0  0  0  0
    0.4733   -0.3114    2.5767 N   0  0  0  0  0  0  0  0  0  0  0  0
   -0.1275    0.5760    1.6243 C   0  0  0  0  0  0  0  0  0  0  0  0
    0.5945    1.6281    1.0375 C   0  0  0  0  0  0  0  0  0  0  0  0
   -0.0501    2.4724    0.1024 C   0  0  0  0  0  0  0  0  0  0  0  0
    1.5671   -1.8205    0.6073 C   0  0  0  0  0  0  0  0  0  0  0  0
   -1.4656    0.3597    1.2940 C   0  0  0  0  0  0  0  0  0  0  0  0
   -1.3974    2.2400   -0.2184 C   0  0  0  0  0  0  0  0  0  0  0  0
   -2.0994    1.1900    0.3745 C   0  0  0  0  0  0  0  0  0  0  0  0
    1.9419    1.8605    1.3580 C   0  0  0  0  0  0  0  0  0  0  0  0
    2.9297   -1.6026   -1.7897 C   0  0  0  0  0  0  0  0  0  0  0  0
    0.6718    3.5244   -0.4847 C   0  0  0  0  0  0  0  0  0  0  0  0
    2.9496   -1.7836    0.6194 C   0  0  0  0  0  0  0  0  0  0  0  0
    0.8481   -1.7513   -0.5721 C   0  0  0  0  0  0  0  0  0  0  0  0
    3.6368   -1.6736   -0.5896 C   0  0  0  0  0  0  0  0  0  0  0  0
    1.5353   -1.6414   -1.7810 C   0  0  0  0  0  0  0  0  0  0  0  0
    3.6642   -1.4864   -3.0823 C   0  0  0  0  0  0  0  0  0  0  0  0
    2.6439    2.9104    0.7651 C   0  0  0  0  0  0  0  0  0  0  0  0
    2.0100    3.7408   -0.1544 C   0  0  0  0  0  0  0  0  0  0  0  0
    3.9117   -0.0338   -3.4812 C   0  0  0  0  0  0  0  0  0  0  0  0
   -3.7318   -0.8145   -0.6760 C   0  0  0  0  0  0  0  0  0  0  0  0
   -5.1090   -1.2664   -1.0684 C   0  0  0  0  0  0  0  0  0  0  0  0
    1.1665    0.1010    3.2121 H   0  0  0  0  0  0  0  0  0  0  0  0
   -2.0204   -0.4366    1.7840 H   0  0  0  0  0  0  0  0  0  0  0  0
    2.4841    1.2373    2.0640 H   0  0  0  0  0  0  0  0  0  0  0  0
    0.2241    4.2136   -1.1953 H   0  0  0  0  0  0  0  0  0  0  0  0
    3.5176   -1.8280    1.5432 H   0  0  0  0  0  0  0  0  0  0  0  0
   -0.2367   -1.7820   -0.5884 H   0  0  0  0  0  0  0  0  0  0  0  0
    4.7231   -1.6403   -0.5826 H   0  0  0  0  0  0  0  0  0  0  0  0
    0.9726   -1.5851   -2.7090 H   0  0  0  0  0  0  0  0  0  0  0  0
    4.6239   -2.0141   -3.0164 H   0  0  0  0  0  0  0  0  0  0  0  0
    3.1031   -1.9917   -3.8784 H   0  0  0  0  0  0  0  0  0  0  0  0
    3.6861    3.0787    1.0204 H   0  0  0  0  0  0  0  0  0  0  0  0
    2.5567    4.5598   -0.6129 H   0  0  0  0  0  0  0  0  0  0  0  0
    2.9686    0.5106   -3.5990 H   0  0  0  0  0  0  0  0  0  0  0  0
    4.4514    0.0102   -4.4324 H   0  0  0  0  0  0  0  0  0  0  0  0
    4.5092    0.4878   -2.7259 H   0  0  0  0  0  0  0  0  0  0  0  0
   -1.4095    3.3207   -1.8146 H   0  0  0  0  0  0  0  0  0  0  0  0
   -3.3475   -1.4870    0.0962 H   0  0  0  0  0  0  0  0  0  0  0  0
   -3.0819   -0.8536   -1.5546 H   0  0  0  0  0  0  0  0  0  0  0  0
   -6.1699   -2.8929   -1.2309 H   0  0  0  0  0  0  0  0  0  0  0  0
  1  3  2  0  0  0  0
  1  4  2  0  0  0  0
  1  8  1  0  0  0  0
  1 12  1  0  0  0  0
  2 15  1  0  0  0  0
  2 27  1  0  0  0  0
  5 14  1  0  0  0  0
  5 44  1  0  0  0  0
  6 28  1  0  0  0  0
  6 47  1  0  0  0  0
  7 28  2  0  0  0  0
  8  9  1  0  0  0  0
  8 29  1  0  0  0  0
  9 10  1  0  0  0  0
  9 13  2  0  0  0  0
 10 11  1  0  0  0  0
 10 16  2  0  0  0  0
 11 14  1  0  0  0  0
 11 18  2  0  0  0  0
 12 19  2  0  0  0  0
 12 20  1  0  0  0  0
 13 15  1  0  0  0  0
 13 30  1  0  0  0  0
 14 15  2  0  0  0  0
 16 24  1  0  0  0  0
 16 31  1  0  0  0  0
 17 21  2  0  0  0  0
 17 22  1  0  0  0  0
 17 23  1  0  0  0  0
 18 25  1  0  0  0  0
 18 32  1  0  0  0  0
 19 21  1  0  0  0  0
 19 33  1  0  0  0  0
 20 22  2  0  0  0  0
 20 34  1  0  0  0  0
 21 35  1  0  0  0  0
 22 36  1  0  0  0  0
 23 26  1  0  0  0  0
 23 37  1  0  0  0  0
 23 38  1  0  0  0  0
 24 25  2  0  0  0  0
 24 39  1  0  0  0  0
 25 40  1  0  0  0  0
 26 41  1  0  0  0  0
 26 42  1  0  0  0  0
 26 43  1  0  0  0  0
 27 28  1  0  0  0  0
 27 45  1  0  0  0  0
 27 46  1  0  0  0  0
M  END
> <PUBCHEM_COMPOUND_CID>
992588

> <PUBCHEM_CONFORMER_RMSD>
0.8

> <PUBCHEM_CONFORMER_DIVERSEORDER>
1
72
113
153
148
12
8
26
135
22
114
24
168
88
4
121
70
85
58
86
141
71
20
81
35
90
144
99
37
146
107
142
123
97
3
48
140
102
124
2
80
13
19
98
155
32
100
29
91
163
169
18
5
165
132
119
105
6
16
151
15
127
116
138
11
73
120
21
76
125
17
150
77
25
7
44
131
78
60
10
160
23
68
79
152
122
9
130
50
89
164
14
108
154
64
159
28
103
96
74
69
158
51
31
126
87
56
41
139
27
92
149
63
38
143
45
109
106
46
59
67
156
145
65
62
129
118
47
33
84
36
94
166
112
39
83
111
104
93
167
136
110
34
66
128
49
115
147
95
52
161
117
61
57
101
42
162
54
137
75
30
43
55
40
157
82
134
53
133

> <PUBCHEM_MMFF94_PARTIAL_CHARGES>
37
1 1.45
12 -0.01
13 -0.15
14 0.08
15 0.1
16 -0.15
17 -0.14
18 -0.15
19 -0.15
2 -0.33
20 -0.15
21 -0.15
22 -0.15
23 0.14
24 -0.15
25 -0.15
27 0.29
28 0.66
29 0.42
3 -0.65
30 0.15
31 0.15
32 0.15
33 0.15
34 0.15
35 0.15
36 0.15
39 0.15
4 -0.65
40 0.15
44 0.45
47 0.5
5 -0.53
6 -0.65
7 -0.57
8 -0.76
9 0.2

> <PUBCHEM_EFFECTIVE_ROTOR_COUNT>
7

> <PUBCHEM_PHARMACOPHORE_FEATURES>
11
1 26 hydrophobe
1 3 acceptor
1 4 acceptor
1 5 donor
1 6 acceptor
1 7 acceptor
1 8 donor
3 6 7 28 anion
6 10 11 16 18 24 25 rings
6 12 17 19 20 21 22 rings
6 9 10 11 13 14 15 rings

> <PUBCHEM_HEAVY_ATOM_COUNT>
28

> <PUBCHEM_ATOM_DEF_STEREO_COUNT>
0

> <PUBCHEM_ATOM_UDEF_STEREO_COUNT>
0

> <PUBCHEM_BOND_DEF_STEREO_COUNT>
0

> <PUBCHEM_BOND_UDEF_STEREO_COUNT>
0

> <PUBCHEM_ISOTOPIC_ATOM_COUNT>
0

> <PUBCHEM_COMPONENT_COUNT>
1

> <PUBCHEM_CACTVS_TAUTO_COUNT>
3

> <PUBCHEM_CONFORMER_ID>
000F254C00000001

> <PUBCHEM_MMFF94_ENERGY>
70.6945

> <PUBCHEM_FEATURE_SELFOVERLAP>
55.923

> <PUBCHEM_SHAPE_FINGERPRINT>
10032420 55 18260554376922467596
11488393 25 18127138686609598635
11640471 11 16743988982574864096
11725454 13 13913194286548522660
12422481 6 17770181085843348690
12788726 201 17759819047513163121
13149001 5 18191615070859466978
13383661 66 16619016811271189254
133893 2 18197237999067401737
15484559 13 17903060476496518397
17492 54 18338528520575979748
17909252 39 17916597547234123743
192875 21 17462024071952116214
19319366 153 17101159884660736769
20567600 347 18124870419975423549
20578428 11 18190172568113321207
20600515 1 17628343883833069296
20691752 17 18187083957887791449
20775438 99 18127402573991054143
2132832 1 17171509988189654010
21344244 246 18058458762886525044
22182313 1 17970077844849792915
23419403 2 17690609480854250962
23559900 14 18060411396927228277
238 59 18266468774448407552
4112364 45 14056999476960006885
4280585 95 18341041909225053302
469060 322 17772776908353473262
5081480 168 18196959831616623751
57359948 33 16517620704532086327
6669772 16 18116143562158258888
6823239 73 18130500856165792239

> <PUBCHEM_SHAPE_MULTIPOLES>
549.6
8
4.46
2.91
11.14
3.36
0.04
-5.86
7.32
-1.3
0.02
-2.86
-2.08
0.1

> <PUBCHEM_SHAPE_SELFOVERLAP>
1160.897

> <PUBCHEM_SHAPE_VOLUME>
308.7

> <PUBCHEM_COORDINATE_TYPE>
2
5
10

$$$$
