2946645
  -OEChem-01171811593D

 55 57  0     1  0  0  0  0  0999 V2000
    1.3255   -4.6095    0.3586 O   0  0  0  0  0  0  0  0  0  0  0  0
    2.4954   -2.0879    0.2944 O   0  0  0  0  0  0  0  0  0  0  0  0
    2.1906   -0.4291   -1.9150 O   0  0  0  0  0  0  0  0  0  0  0  0
    5.1623    3.5656    1.3810 O   0  0  0  0  0  0  0  0  0  0  0  0
   -0.9807   -1.7653   -0.2271 N   0  0  0  0  0  0  0  0  0  0  0  0
   -3.3381   -0.1591   -0.0781 N   0  0  0  0  0  0  0  0  0  0  0  0
   -4.2896    2.0118   -0.4381 N   0  0  0  0  0  0  0  0  0  0  0  0
   -1.9960   -2.0289    0.7998 C   0  0  0  0  0  0  0  0  0  0  0  0
   -1.6251   -1.2774   -1.4527 C   0  0  0  0  0  0  0  0  0  0  0  0
   -2.7797   -0.7581    1.1378 C   0  0  0  0  0  0  0  0  0  0  0  0
   -2.3951    0.0188   -1.1895 C   0  0  0  0  0  0  0  0  0  0  0  0
   -0.2036   -2.9732   -0.5023 C   0  0  0  0  0  0  0  0  0  0  0  0
    0.5687   -3.4533    0.7288 C   0  0  2  0  0  0  0  0  0  0  0  0
   -4.4169    0.7271    0.0171 C   0  0  0  0  0  0  0  0  0  0  0  0
    1.5265   -2.4043    1.2891 C   0  0  0  0  0  0  0  0  0  0  0  0
   -5.6129    0.2657    0.5843 C   0  0  0  0  0  0  0  0  0  0  0  0
   -6.6939    1.1343    0.6856 C   0  0  0  0  0  0  0  0  0  0  0  0
    2.9962   -0.8135    0.3066 C   0  0  0  0  0  0  0  0  0  0  0  0
   -5.3618    2.8272   -0.3228 C   0  0  0  0  0  0  0  0  0  0  0  0
   -6.5741    2.4411    0.2258 C   0  0  0  0  0  0  0  0  0  0  0  0
    2.8413    0.0121   -0.8025 C   0  0  0  0  0  0  0  0  0  0  0  0
    3.6615   -0.3564    1.4400 C   0  0  0  0  0  0  0  0  0  0  0  0
    3.3568    1.3080   -0.7779 C   0  0  0  0  0  0  0  0  0  0  0  0
    4.0250    1.7716    0.3554 C   0  0  0  0  0  0  0  0  0  0  0  0
    4.1772    0.9394    1.4644 C   0  0  0  0  0  0  0  0  0  0  0  0
    4.5617    3.1230    0.3815 C   0  0  0  0  0  0  0  0  0  0  0  0
    2.9798   -1.0678   -2.9167 C   0  0  0  0  0  0  0  0  0  0  0  0
    4.3988    4.0382   -0.8273 C   0  0  0  0  0  0  0  0  0  0  0  0
   -1.5500   -2.3594    1.7420 H   0  0  0  0  0  0  0  0  0  0  0  0
   -2.6906   -2.8129    0.4693 H   0  0  0  0  0  0  0  0  0  0  0  0
   -2.3091   -2.0348   -1.8590 H   0  0  0  0  0  0  0  0  0  0  0  0
   -0.8687   -1.0750   -2.2207 H   0  0  0  0  0  0  0  0  0  0  0  0
   -2.1233   -0.0286    1.6297 H   0  0  0  0  0  0  0  0  0  0  0  0
   -3.5656   -1.0201    1.8555 H   0  0  0  0  0  0  0  0  0  0  0  0
   -2.9295    0.2934   -2.1077 H   0  0  0  0  0  0  0  0  0  0  0  0
   -1.6971    0.8322   -0.9532 H   0  0  0  0  0  0  0  0  0  0  0  0
   -0.8455   -3.7881   -0.8653 H   0  0  0  0  0  0  0  0  0  0  0  0
    0.5102   -2.7856   -1.3152 H   0  0  0  0  0  0  0  0  0  0  0  0
   -0.1108   -3.7911    1.5165 H   0  0  0  0  0  0  0  0  0  0  0  0
    2.0616   -2.8207    2.1507 H   0  0  0  0  0  0  0  0  0  0  0  0
    0.9801   -1.5131    1.6212 H   0  0  0  0  0  0  0  0  0  0  0  0
   -5.7171   -0.7577    0.9325 H   0  0  0  0  0  0  0  0  0  0  0  0
    1.7963   -4.9190    1.1512 H   0  0  0  0  0  0  0  0  0  0  0  0
   -7.6291    0.7929    1.1192 H   0  0  0  0  0  0  0  0  0  0  0  0
   -5.2170    3.8354   -0.6963 H   0  0  0  0  0  0  0  0  0  0  0  0
   -7.4039    3.1353    0.2939 H   0  0  0  0  0  0  0  0  0  0  0  0
    3.7945   -0.9971    2.3072 H   0  0  0  0  0  0  0  0  0  0  0  0
    3.2184    1.9286   -1.6584 H   0  0  0  0  0  0  0  0  0  0  0  0
    4.6951    1.2770    2.3582 H   0  0  0  0  0  0  0  0  0  0  0  0
    3.7324   -0.3773   -3.3102 H   0  0  0  0  0  0  0  0  0  0  0  0
    3.4639   -1.9626   -2.5131 H   0  0  0  0  0  0  0  0  0  0  0  0
    2.3179   -1.3674   -3.7339 H   0  0  0  0  0  0  0  0  0  0  0  0
    3.3390    4.2164   -1.0267 H   0  0  0  0  0  0  0  0  0  0  0  0
    4.8990    3.6071   -1.6984 H   0  0  0  0  0  0  0  0  0  0  0  0
    4.8689    5.0030   -0.6113 H   0  0  0  0  0  0  0  0  0  0  0  0
  1 13  1  0  0  0  0
  1 43  1  0  0  0  0
  2 15  1  0  0  0  0
  2 18  1  0  0  0  0
  3 21  1  0  0  0  0
  3 27  1  0  0  0  0
  4 26  2  0  0  0  0
  5  8  1  0  0  0  0
  5  9  1  0  0  0  0
  5 12  1  0  0  0  0
  6 10  1  0  0  0  0
  6 11  1  0  0  0  0
  6 14  1  0  0  0  0
  7 14  1  0  0  0  0
  7 19  2  0  0  0  0
  8 10  1  0  0  0  0
  8 29  1  0  0  0  0
  8 30  1  0  0  0  0
  9 11  1  0  0  0  0
  9 31  1  0  0  0  0
  9 32  1  0  0  0  0
 10 33  1  0  0  0  0
 10 34  1  0  0  0  0
 11 35  1  0  0  0  0
 11 36  1  0  0  0  0
 12 13  1  0  0  0  0
 12 37  1  0  0  0  0
 12 38  1  0  0  0  0
 13 15  1  0  0  0  0
 13 39  1  0  0  0  0
 14 16  2  0  0  0  0
 15 40  1  0  0  0  0
 15 41  1  0  0  0  0
 16 17  1  0  0  0  0
 16 42  1  0  0  0  0
 17 20  2  0  0  0  0
 17 44  1  0  0  0  0
 18 21  2  0  0  0  0
 18 22  1  0  0  0  0
 19 20  1  0  0  0  0
 19 45  1  0  0  0  0
 20 46  1  0  0  0  0
 21 23  1  0  0  0  0
 22 25  2  0  0  0  0
 22 47  1  0  0  0  0
 23 24  2  0  0  0  0
 23 48  1  0  0  0  0
 24 25  1  0  0  0  0
 24 26  1  0  0  0  0
 25 49  1  0  0  0  0
 26 28  1  0  0  0  0
 27 50  1  0  0  0  0
 27 51  1  0  0  0  0
 27 52  1  0  0  0  0
 28 53  1  0  0  0  0
 28 54  1  0  0  0  0
 28 55  1  0  0  0  0
M  END
> <PUBCHEM_COMPOUND_CID>
2946645

> <PUBCHEM_CONFORMER_RMSD>
1

> <PUBCHEM_CONFORMER_DIVERSEORDER>
1
248
78
66
222
192
35
327
235
132
119
92
224
333
62
110
80
294
114
364
319
223
300
3
324
305
309
284
352
105
158
145
163
314
108
321
257
99
340
286
366
133
355
146
337
95
169
102
157
295
180
353
216
71
37
94
313
138
276
109
356
320
131
242
49
274
342
2
256
151
198
97
334
128
237
144
263
122
297
299
15
100
225
259
348
52
345
44
231
202
147
326
275
365
112
279
155
32
238
123
153
77
260
230
17
278
303
264
339
359
191
41
10
220
241
318
212
31
162
91
156
51
96
181
165
101
113
43
19
42
81
350
45
236
27
211
205
249
84
254
118
268
74
13
312
136
125
272
289
34
229
232
301
143
121
317
65
98
150
234
367
193
177
170
288
226
174
90
361
120
18
28
277
243
323
183
368
310
142
64
269
152
362
351
76
8
139
85
115
338
363
179
315
360
93
296
185
240
343
265
4
87
341
280
228
213
166
251
107
86
302
283
141
346
218
57
287
106
70
203
292
262
154
88
116
75
83
354
336
73
196
209
104
316
67
325
23
124
175
173
182
161
204
190
54
29
215
172
357
16
195
33
79
21
117
233
349
322
7
329
270
187
188
129
189
56
5
206
255
293
207
159
30
298
347
149
244
24
72
164
140
304
311
38
20
137
200
186
214
50
246
261
135
306
253
127
335
171
281
130
82
328
55
134
103
60
40
148
26
194
178
9
201
267
332
59
25
285
197
221
331
308
271
247
69
245
358
208
168
48
250
167
58
290
126
227
12
63
176
47
344
219
307
61
36
68
217
258
111
330
252
53
199
39
184
89
282
46
160
291
11
266
14
22
273
6
210
239

> <PUBCHEM_MMFF94_PARTIAL_CHARGES>
36
1 -0.68
10 0.37
11 0.37
12 0.27
13 0.28
14 0.41
15 0.28
16 -0.15
17 -0.15
18 0.08
19 0.16
2 -0.36
20 -0.15
21 0.08
22 -0.15
23 -0.15
24 0.09
25 -0.15
26 0.42
27 0.28
28 0.06
3 -0.36
4 -0.57
42 0.15
43 0.4
44 0.15
45 0.15
46 0.15
47 0.15
48 0.15
49 0.15
5 -0.81
6 -0.84
7 -0.62
8 0.27
9 0.27

> <PUBCHEM_EFFECTIVE_ROTOR_COUNT>
9.2

> <PUBCHEM_PHARMACOPHORE_FEATURES>
11
1 1 acceptor
1 1 donor
1 2 acceptor
1 3 acceptor
1 4 acceptor
1 5 cation
1 6 cation
1 7 acceptor
6 18 21 22 23 24 25 rings
6 5 6 8 9 10 11 rings
6 7 14 16 17 19 20 rings

> <PUBCHEM_HEAVY_ATOM_COUNT>
28

> <PUBCHEM_ATOM_DEF_STEREO_COUNT>
0

> <PUBCHEM_ATOM_UDEF_STEREO_COUNT>
1

> <PUBCHEM_BOND_DEF_STEREO_COUNT>
0

> <PUBCHEM_BOND_UDEF_STEREO_COUNT>
0

> <PUBCHEM_ISOTOPIC_ATOM_COUNT>
0

> <PUBCHEM_COMPONENT_COUNT>
1

> <PUBCHEM_CACTVS_TAUTO_COUNT>
2

> <PUBCHEM_CONFORMER_ID>
002CF65500000001

> <PUBCHEM_MMFF94_ENERGY>
101.3916

> <PUBCHEM_FEATURE_SELFOVERLAP>
55.834

> <PUBCHEM_SHAPE_FINGERPRINT>
10042902 136 8790346455335957384
10675989 125 18341896246913792665
10937287 8 18410853308502949746
11135609 201 18268702999250701729
11477941 20 16758880227011738540
11720765 8 17915754080978582454
12107183 9 18262216916646298850
12422481 6 17241035531565941485
12788726 201 17467371339999880127
12925494 130 17757825638034588037
13944108 23 18047761394884497572
13965767 371 17968085426616930350
14251764 75 18410859897104270113
14739800 52 18337391531253521473
14849402 71 18335701577381356618
15142526 21 18260546719222775035
15728490 83 10049629727898622544
16988056 13 18050568443780555766
17810953 82 18336263453144145185
19438510 23 18201152269231651504
1979834 28 18041286474092721461
20775438 99 9726190197934079269
21365058 113 17625554388542930335
21388113 180 18411985775562623817
21796203 349 16808378793427710040
23559900 14 18047755893453761091
245318 6 18114192976701320165
345986 75 12468644885259901007
3472631 163 18272647956908470615
34797466 226 17989211400636895743
376196 1 17987228010092629682
5109719 28 18339655507637569153
513532 50 18128820750606261990
5219985 13 18340206400625526071
57091435 61 18340770356060444977
57724786 102 18335976545593026044
5776283 40 18337129903642433356
5951187 136 18271531913914824524
7288768 16 18041274495091569994
7808743 9 18194680599603673962
960060 61 13038892331619411955
9849439 229 18335985371181146149

> <PUBCHEM_SHAPE_MULTIPOLES>
537.81
14.61
5.01
1.67
18.76
0.18
-0.88
-18.35
2.79
-4.46
0.7
-1.91
0.41
0.62

> <PUBCHEM_SHAPE_SELFOVERLAP>
1127.903

> <PUBCHEM_SHAPE_VOLUME>
302.4

> <PUBCHEM_COORDINATE_TYPE>
2
5
10

$$$$
