659522
  -OEChem-01171811373D

 31 31  0     0  0  0  0  0  0999 V2000
   -3.7468   -1.8204   -0.2325 F   0  0  0  0  0  0  0  0  0  0  0  0
   -1.5873   -2.1104   -0.2419 F   0  0  0  0  0  0  0  0  0  0  0  0
   -2.5341   -0.9214   -1.8043 F   0  0  0  0  0  0  0  0  0  0  0  0
   -3.3500    2.1871    0.7942 F   0  0  0  0  0  0  0  0  0  0  0  0
   -4.7216    0.5564    0.3364 F   0  0  0  0  0  0  0  0  0  0  0  0
   -3.4876    1.4188   -1.2400 F   0  0  0  0  0  0  0  0  0  0  0  0
    0.1801   -1.1736    0.6768 O   0  0  0  0  0  0  0  0  0  0  0  0
    6.5866   -0.3772    0.0106 O   0  0  0  0  0  0  0  0  0  0  0  0
   -1.1054    0.6489    0.0718 N   0  0  0  0  0  0  0  0  0  0  0  0
    1.1690    0.8023   -0.1160 N   0  0  0  0  0  0  0  0  0  0  0  0
   -2.3931    0.0465    0.3700 C   0  0  0  0  0  0  0  0  0  0  0  0
   -2.5670   -1.2100   -0.4840 C   0  0  0  0  0  0  0  0  0  0  0  0
   -3.4965    1.0590    0.0637 C   0  0  0  0  0  0  0  0  0  0  0  0
   -2.4353   -0.3328    1.8562 C   0  0  0  0  0  0  0  0  0  0  0  0
    0.1029   -0.0230    0.2525 C   0  0  0  0  0  0  0  0  0  0  0  0
    2.5508    0.5020   -0.0836 C   0  0  0  0  0  0  0  0  0  0  0  0
    3.4638    1.4606   -0.4920 C   0  0  0  0  0  0  0  0  0  0  0  0
    2.9630   -0.7455    0.3556 C   0  0  0  0  0  0  0  0  0  0  0  0
    4.8262    1.1635   -0.4602 C   0  0  0  0  0  0  0  0  0  0  0  0
    4.3254   -1.0427    0.3873 C   0  0  0  0  0  0  0  0  0  0  0  0
    5.2570   -0.0882   -0.0208 C   0  0  0  0  0  0  0  0  0  0  0  0
   -1.7386   -1.1338    2.1196 H   0  0  0  0  0  0  0  0  0  0  0  0
   -2.1951    0.5292    2.4899 H   0  0  0  0  0  0  0  0  0  0  0  0
   -3.4347   -0.6822    2.1410 H   0  0  0  0  0  0  0  0  0  0  0  0
   -1.0823    1.5999   -0.2838 H   0  0  0  0  0  0  0  0  0  0  0  0
    0.9311    1.7335   -0.4485 H   0  0  0  0  0  0  0  0  0  0  0  0
    3.1388    2.4385   -0.8361 H   0  0  0  0  0  0  0  0  0  0  0  0
    2.3058   -1.5359    0.6865 H   0  0  0  0  0  0  0  0  0  0  0  0
    5.5472    1.9113   -0.7791 H   0  0  0  0  0  0  0  0  0  0  0  0
    4.6496   -2.0213    0.7317 H   0  0  0  0  0  0  0  0  0  0  0  0
    6.7040   -1.2848    0.3405 H   0  0  0  0  0  0  0  0  0  0  0  0
  1 12  1  0  0  0  0
  2 12  1  0  0  0  0
  3 12  1  0  0  0  0
  4 13  1  0  0  0  0
  5 13  1  0  0  0  0
  6 13  1  0  0  0  0
  7 15  2  0  0  0  0
  8 21  1  0  0  0  0
  8 31  1  0  0  0  0
  9 11  1  0  0  0  0
  9 15  1  0  0  0  0
  9 25  1  0  0  0  0
 10 15  1  0  0  0  0
 10 16  1  0  0  0  0
 10 26  1  0  0  0  0
 11 12  1  0  0  0  0
 11 13  1  0  0  0  0
 11 14  1  0  0  0  0
 14 22  1  0  0  0  0
 14 23  1  0  0  0  0
 14 24  1  0  0  0  0
 16 17  2  0  0  0  0
 16 18  1  0  0  0  0
 17 19  1  0  0  0  0
 17 27  1  0  0  0  0
 18 20  2  0  0  0  0
 18 28  1  0  0  0  0
 19 21  2  0  0  0  0
 19 29  1  0  0  0  0
 20 21  1  0  0  0  0
 20 30  1  0  0  0  0
M  END
> <PUBCHEM_COMPOUND_CID>
659522

> <PUBCHEM_CONFORMER_RMSD>
0.8

> <PUBCHEM_CONFORMER_DIVERSEORDER>
2
4
1
5
3
6

> <PUBCHEM_MMFF94_PARTIAL_CHARGES>
27
1 -0.34
10 -0.55
11 0.3
12 1.02
13 1.02
15 0.69
16 0.12
17 -0.15
18 -0.15
19 -0.15
2 -0.34
20 -0.15
21 0.08
25 0.37
26 0.37
27 0.15
28 0.15
29 0.15
3 -0.34
30 0.15
31 0.45
4 -0.34
5 -0.34
6 -0.34
7 -0.57
8 -0.53
9 -0.73

> <PUBCHEM_EFFECTIVE_ROTOR_COUNT>
6

> <PUBCHEM_PHARMACOPHORE_FEATURES>
5
1 10 donor
1 7 acceptor
1 8 donor
1 9 donor
6 16 17 18 19 20 21 rings

> <PUBCHEM_HEAVY_ATOM_COUNT>
21

> <PUBCHEM_ATOM_DEF_STEREO_COUNT>
0

> <PUBCHEM_ATOM_UDEF_STEREO_COUNT>
0

> <PUBCHEM_BOND_DEF_STEREO_COUNT>
0

> <PUBCHEM_BOND_UDEF_STEREO_COUNT>
0

> <PUBCHEM_ISOTOPIC_ATOM_COUNT>
0

> <PUBCHEM_COMPONENT_COUNT>
1

> <PUBCHEM_CACTVS_TAUTO_COUNT>
6

> <PUBCHEM_CONFORMER_ID>
000A104200000002

> <PUBCHEM_MMFF94_ENERGY>
54.4138

> <PUBCHEM_FEATURE_SELFOVERLAP>
25.426

> <PUBCHEM_SHAPE_FINGERPRINT>
10014705 185 18186516596834333893
10062212 137 18341888602066579742
10616163 171 18341333378928538414
10680689 15 18409173229097383264
11315181 36 17346881165470538426
12091667 2 18408608072132067528
12107183 9 17833550090064222880
12236239 1 18341895203874126498
12507557 5 17703788145826195432
13167823 11 18411699911366330190
13288520 33 18272653467288331014
13533116 47 16629966499489928966
13675066 3 18113344115296304632
14004511 7 18410578374835062912
15196674 1 18408886265505837546
15788980 27 18409171021853438640
17093844 174 18409725162945045648
17834072 33 18411983594135527068
17844677 252 18337680801501260076
18186145 218 16805321124093617544
19489759 90 16271928181930571448
200 152 18342174488322583706
20279233 1 15698285516594412460
20645477 56 18343023268217938449
20645477 70 18336828594174822742
21033648 29 16370712764777987764
21267235 1 18337399321833891314
21709351 56 18408039628767937804
22646028 1 18409448111684351272
2306618 200 18060708286235544649
23402539 116 18411416211744214316
23402655 69 18409451375938779948
23559900 14 18202278131005904488
2838139 119 18043239159821577141
300161 21 18413101763037894424
3545911 37 18411983546495182968
4214541 1 18410293622782409668
5104073 3 18335138726433430976
542803 24 18272654549910174960
559249 180 18412259515572181726
573450 72 18413665812191726818
58051976 100 18410574010937170279
59755656 520 17095241423652316891
633830 44 17821730542018751042
77779 3 18409450301927794156
9709674 26 18410582803268520702

> <PUBCHEM_SHAPE_MULTIPOLES>
366.83
11.98
1.7
1.04
11.74
0.03
0.03
1
-0.44
-1.04
-0.14
-1.09
-0.1
-0.7

> <PUBCHEM_SHAPE_SELFOVERLAP>
780.93

> <PUBCHEM_SHAPE_VOLUME>
203.7

> <PUBCHEM_COORDINATE_TYPE>
2
5
10

$$$$
