15988036
  -OEChem-01171812063D

 67 70  0     1  0  0  0  0  0999 V2000
   -7.9861    0.2779   -1.8142 F   0  0  0  0  0  0  0  0  0  0  0  0
    1.1338   -0.2438   -2.0315 O   0  0  0  0  0  0  0  0  0  0  0  0
    4.2646    3.4679   -1.1726 O   0  0  0  0  0  0  0  0  0  0  0  0
   -0.0630    2.7410    2.3623 O   0  0  0  0  0  0  0  0  0  0  0  0
    4.0033    1.0097    0.9211 O   0  0  0  0  0  0  0  0  0  0  0  0
    0.5866   -4.2849    1.0696 O   0  0  0  0  0  0  0  0  0  0  0  0
    3.2432   -3.8926    0.3609 O   0  0  0  0  0  0  0  0  0  0  0  0
   -1.7655    0.6489    0.0048 O   0  0  0  0  0  0  0  0  0  0  0  0
    2.2467    2.3563   -1.4667 N   0  0  0  0  0  0  0  0  0  0  0  0
    1.9697    1.9107    1.6174 N   0  0  0  0  0  0  0  0  0  0  0  0
    0.0986    0.4685    1.9544 N   0  0  0  0  0  0  0  0  0  0  0  0
   -3.5275    0.1585    1.4789 N   0  0  0  0  0  0  0  0  0  0  0  0
    1.5127    0.6663   -3.0779 C   0  0  2  0  0  0  0  0  0  0  0  0
    1.8805   -0.1941   -4.2743 C   0  0  0  0  0  0  0  0  0  0  0  0
    0.9255   -1.3507   -4.1175 C   0  0  0  0  0  0  0  0  0  0  0  0
    0.9004   -1.5344   -2.6150 C   0  0  0  0  0  0  0  0  0  0  0  0
    2.6445    1.5559   -2.6016 C   0  0  0  0  0  0  0  0  0  0  0  0
    2.5622    3.2455    1.6437 C   0  0  0  0  0  0  0  0  0  0  0  0
    2.4152    3.9676    0.3114 C   0  0  0  0  0  0  0  0  0  0  0  0
    3.1014    3.2538   -0.8428 C   0  0  0  0  0  0  0  0  0  0  0  0
    0.8825   -0.6518    1.5504 C   0  0  0  0  0  0  0  0  0  0  0  0
    2.2191   -0.4742    1.1903 C   0  0  0  0  0  0  0  0  0  0  0  0
    0.6179    1.7739    2.0025 C   0  0  0  0  0  0  0  0  0  0  0  0
    2.8207    0.8680    1.2243 C   0  0  0  0  0  0  0  0  0  0  0  0
   -1.2979    0.2514    2.3329 C   0  0  0  0  0  0  0  0  0  0  0  0
    0.3523   -1.9536    1.5015 C   0  0  0  0  0  0  0  0  0  0  0  0
    3.0096   -1.5637    0.7918 C   0  0  0  0  0  0  0  0  0  0  0  0
    1.1376   -3.0392    1.1047 C   0  0  0  0  0  0  0  0  0  0  0  0
    2.4664   -2.8444    0.7499 C   0  0  0  0  0  0  0  0  0  0  0  0
   -2.2010    0.3812    1.1198 C   0  0  0  0  0  0  0  0  0  0  0  0
   -4.6657    0.1889    0.6385 C   0  0  0  0  0  0  0  0  0  0  0  0
   -0.0252   -4.6885   -0.1537 C   0  0  0  0  0  0  0  0  0  0  0  0
    4.5965   -3.6037    0.0138 C   0  0  0  0  0  0  0  0  0  0  0  0
   -5.9315   -0.0599    1.1691 C   0  0  0  0  0  0  0  0  0  0  0  0
   -4.5219    0.4684   -0.7205 C   0  0  0  0  0  0  0  0  0  0  0  0
   -7.0534   -0.0294    0.3409 C   0  0  0  0  0  0  0  0  0  0  0  0
   -5.6437    0.4988   -1.5488 C   0  0  0  0  0  0  0  0  0  0  0  0
   -6.9094    0.2498   -1.0182 C   0  0  0  0  0  0  0  0  0  0  0  0
    0.6258    1.2706   -3.3080 H   0  0  0  0  0  0  0  0  0  0  0  0
    1.7727    0.3329   -5.2263 H   0  0  0  0  0  0  0  0  0  0  0  0
    2.9127   -0.5564   -4.1962 H   0  0  0  0  0  0  0  0  0  0  0  0
   -0.0698   -1.0621   -4.4757 H   0  0  0  0  0  0  0  0  0  0  0  0
    1.2336   -2.2525   -4.6526 H   0  0  0  0  0  0  0  0  0  0  0  0
   -0.0515   -1.9347   -2.2551 H   0  0  0  0  0  0  0  0  0  0  0  0
    1.7061   -2.1991   -2.2870 H   0  0  0  0  0  0  0  0  0  0  0  0
    2.9786    2.2324   -3.3955 H   0  0  0  0  0  0  0  0  0  0  0  0
    3.5043    0.9568   -2.2795 H   0  0  0  0  0  0  0  0  0  0  0  0
    1.3041    2.2389   -1.1059 H   0  0  0  0  0  0  0  0  0  0  0  0
    3.6243    3.1687    1.9049 H   0  0  0  0  0  0  0  0  0  0  0  0
    2.0857    3.8419    2.4300 H   0  0  0  0  0  0  0  0  0  0  0  0
    1.3547    4.1116    0.0708 H   0  0  0  0  0  0  0  0  0  0  0  0
    2.8551    4.9692    0.3860 H   0  0  0  0  0  0  0  0  0  0  0  0
   -1.5962    1.0392    3.0368 H   0  0  0  0  0  0  0  0  0  0  0  0
   -1.4504   -0.6890    2.8679 H   0  0  0  0  0  0  0  0  0  0  0  0
   -0.6835   -2.1674    1.7451 H   0  0  0  0  0  0  0  0  0  0  0  0
    4.0400   -1.3607    0.5222 H   0  0  0  0  0  0  0  0  0  0  0  0
   -3.7199   -0.0525    2.4559 H   0  0  0  0  0  0  0  0  0  0  0  0
   -0.4099   -5.7040   -0.0261 H   0  0  0  0  0  0  0  0  0  0  0  0
    0.7060   -4.6907   -0.9682 H   0  0  0  0  0  0  0  0  0  0  0  0
   -0.8608   -4.0259   -0.4011 H   0  0  0  0  0  0  0  0  0  0  0  0
    4.6572   -2.9466   -0.8606 H   0  0  0  0  0  0  0  0  0  0  0  0
    5.1592   -3.2154    0.8695 H   0  0  0  0  0  0  0  0  0  0  0  0
    5.0651   -4.5520   -0.2696 H   0  0  0  0  0  0  0  0  0  0  0  0
   -6.0577   -0.2789    2.2264 H   0  0  0  0  0  0  0  0  0  0  0  0
   -3.5767    0.6707   -1.2043 H   0  0  0  0  0  0  0  0  0  0  0  0
   -8.0390   -0.2234    0.7535 H   0  0  0  0  0  0  0  0  0  0  0  0
   -5.5333    0.7158   -2.6073 H   0  0  0  0  0  0  0  0  0  0  0  0
  1 38  1  0  0  0  0
  2 13  1  0  0  0  0
  2 16  1  0  0  0  0
  3 20  2  0  0  0  0
  4 23  2  0  0  0  0
  5 24  2  0  0  0  0
  6 28  1  0  0  0  0
  6 32  1  0  0  0  0
  7 29  1  0  0  0  0
  7 33  1  0  0  0  0
  8 30  2  0  0  0  0
  9 17  1  0  0  0  0
  9 20  1  0  0  0  0
  9 48  1  0  0  0  0
 10 18  1  0  0  0  0
 10 23  1  0  0  0  0
 10 24  1  0  0  0  0
 11 21  1  0  0  0  0
 11 23  1  0  0  0  0
 11 25  1  0  0  0  0
 12 30  1  0  0  0  0
 12 31  1  0  0  0  0
 12 57  1  0  0  0  0
 13 14  1  0  0  0  0
 13 17  1  0  0  0  0
 13 39  1  0  0  0  0
 14 15  1  0  0  0  0
 14 40  1  0  0  0  0
 14 41  1  0  0  0  0
 15 16  1  0  0  0  0
 15 42  1  0  0  0  0
 15 43  1  0  0  0  0
 16 44  1  0  0  0  0
 16 45  1  0  0  0  0
 17 46  1  0  0  0  0
 17 47  1  0  0  0  0
 18 19  1  0  0  0  0
 18 49  1  0  0  0  0
 18 50  1  0  0  0  0
 19 20  1  0  0  0  0
 19 51  1  0  0  0  0
 19 52  1  0  0  0  0
 21 22  1  0  0  0  0
 21 26  2  0  0  0  0
 22 24  1  0  0  0  0
 22 27  2  0  0  0  0
 25 30  1  0  0  0  0
 25 53  1  0  0  0  0
 25 54  1  0  0  0  0
 26 28  1  0  0  0  0
 26 55  1  0  0  0  0
 27 29  1  0  0  0  0
 27 56  1  0  0  0  0
 28 29  2  0  0  0  0
 31 34  2  0  0  0  0
 31 35  1  0  0  0  0
 32 58  1  0  0  0  0
 32 59  1  0  0  0  0
 32 60  1  0  0  0  0
 33 61  1  0  0  0  0
 33 62  1  0  0  0  0
 33 63  1  0  0  0  0
 34 36  1  0  0  0  0
 34 64  1  0  0  0  0
 35 37  2  0  0  0  0
 35 65  1  0  0  0  0
 36 38  2  0  0  0  0
 36 66  1  0  0  0  0
 37 38  1  0  0  0  0
 37 67  1  0  0  0  0
M  END
> <PUBCHEM_COMPOUND_CID>
15988036

> <PUBCHEM_CONFORMER_RMSD>
1.2

> <PUBCHEM_CONFORMER_DIVERSEORDER>
1
87
37
93
60
46
59
53
102
89
3
29
22
85
83
20
55
88
10
100
81
12
44
99
71
17
45
96
79
63
74
11
30
57
91
56
16
84
15
78
19
58
101
61
32
65
62
9
21
86
26
43
97
82
39
52
38
98
103
80
108
33
24
73
69
95
67
41
106
18
8
64
107
23
42
49
2
47
76
27
14
48
50
105
70
54
75
35
66
31
90
25
5
92
72
7
4
51
94
28
36
104
13
34
77
40
68
6

> <PUBCHEM_MMFF94_PARTIAL_CHARGES>
44
1 -0.19
10 -0.42
11 -0.48
12 -0.55
13 0.28
16 0.28
17 0.3
18 0.3
19 0.06
2 -0.56
20 0.57
21 0.12
22 0.09
23 0.69
24 0.54
25 0.36
26 -0.15
27 -0.15
28 0.08
29 0.08
3 -0.57
30 0.57
31 0.12
32 0.28
33 0.28
34 -0.15
35 -0.15
36 -0.15
37 -0.15
38 0.19
4 -0.57
48 0.37
5 -0.57
55 0.15
56 0.15
57 0.37
6 -0.36
64 0.15
65 0.15
66 0.15
67 0.15
7 -0.36
8 -0.57
9 -0.73

> <PUBCHEM_EFFECTIVE_ROTOR_COUNT>
13

> <PUBCHEM_PHARMACOPHORE_FEATURES>
13
1 12 donor
1 2 acceptor
1 3 acceptor
1 4 acceptor
1 5 acceptor
1 6 acceptor
1 7 acceptor
1 8 acceptor
1 9 donor
5 2 13 14 15 16 rings
6 10 11 21 22 23 24 rings
6 21 22 26 27 28 29 rings
6 31 34 35 36 37 38 rings

> <PUBCHEM_HEAVY_ATOM_COUNT>
38

> <PUBCHEM_ATOM_DEF_STEREO_COUNT>
0

> <PUBCHEM_ATOM_UDEF_STEREO_COUNT>
1

> <PUBCHEM_BOND_DEF_STEREO_COUNT>
0

> <PUBCHEM_BOND_UDEF_STEREO_COUNT>
0

> <PUBCHEM_ISOTOPIC_ATOM_COUNT>
0

> <PUBCHEM_COMPONENT_COUNT>
1

> <PUBCHEM_CACTVS_TAUTO_COUNT>
4

> <PUBCHEM_CONFORMER_ID>
00F3F54400000001

> <PUBCHEM_MMFF94_ENERGY>
113.2411

> <PUBCHEM_FEATURE_SELFOVERLAP>
66.006

> <PUBCHEM_SHAPE_FINGERPRINT>
11115154 58 17900544476206757933
11763715 3 17764891094805146210
12156800 1 17757854576690148478
14068700 675 18126560120439867674
14844126 61 9911012729458300395
15484559 13 18129939108555696977
15664445 248 15554163769945494313
19319366 153 18199451307188715808
22121540 332 17385713691249345092
23559900 14 17241054219448654855
24941158 1 18117532112047095381
25223398 141 17969791971795533267
27425 322 17981312710012562477
44802255 64 16306327657652986886
46194498 28 18186792561726563465
6669772 16 18341051938432482608

> <PUBCHEM_SHAPE_MULTIPOLES>
713.74
11.96
5.03
3.7
34.98
2.65
-4.63
-2.02
-3.35
-8.88
1.37
-1.97
-0.31
-0.52

> <PUBCHEM_SHAPE_SELFOVERLAP>
1527.276

> <PUBCHEM_SHAPE_VOLUME>
396.3

> <PUBCHEM_COORDINATE_TYPE>
2
5
10

$$$$
