9551970
  -OEChem-01171811423D

 46 47  0     0  0  0  0  0  0999 V2000
    2.6648   -0.4048   -1.9987 O   0  0  0  0  0  0  0  0  0  0  0  0
    4.0829    0.7404    0.0998 O   0  0  0  0  0  0  0  0  0  0  0  0
   -1.2749   -0.4651    1.1310 O   0  0  0  0  0  0  0  0  0  0  0  0
    6.2070   -0.9038    0.0552 O   0  0  0  0  0  0  0  0  0  0  0  0
   -3.6298   -0.1819    1.0027 N   0  0  0  0  0  0  0  0  0  0  0  0
   -4.5237    0.6891    0.3989 N   0  0  0  0  0  0  0  0  0  0  0  0
   -5.9826   -2.3686   -0.8905 N   0  0  0  0  0  0  0  0  0  0  0  0
    6.0609   -1.3517    2.3078 N   0  0  0  0  0  0  0  0  0  0  0  0
   -2.3688    1.2895   -0.1084 C   0  0  0  0  0  0  0  0  0  0  0  0
   -3.8030    1.5584   -0.2576 C   0  0  0  0  0  0  0  0  0  0  0  0
   -2.2843    0.0982    0.7549 C   0  0  0  0  0  0  0  0  0  0  0  0
   -4.0558   -1.2894    1.8218 C   0  0  0  0  0  0  0  0  0  0  0  0
   -1.3412    1.9579   -0.6265 C   0  0  0  0  0  0  0  0  0  0  0  0
    0.0874    1.6351   -0.4381 C   0  0  0  0  0  0  0  0  0  0  0  0
    0.7036    0.7605   -1.3159 C   0  0  0  0  0  0  0  0  0  0  0  0
    2.0530    0.4556   -1.1378 C   0  0  0  0  0  0  0  0  0  0  0  0
    0.7777    2.2143    0.6124 C   0  0  0  0  0  0  0  0  0  0  0  0
   -4.1941   -2.5822    1.0268 C   0  0  0  0  0  0  0  0  0  0  0  0
   -4.3625    2.6852   -1.0564 C   0  0  0  0  0  0  0  0  0  0  0  0
    2.7646    1.0299   -0.0845 C   0  0  0  0  0  0  0  0  0  0  0  0
    2.1269    1.9093    0.7906 C   0  0  0  0  0  0  0  0  0  0  0  0
    2.1347   -1.7263   -2.0804 C   0  0  0  0  0  0  0  0  0  0  0  0
    4.4474    0.1409    1.3416 C   0  0  0  0  0  0  0  0  0  0  0  0
   -5.1939   -2.4620   -0.0445 C   0  0  0  0  0  0  0  0  0  0  0  0
    3.2499   -2.6834   -2.4436 C   0  0  0  0  0  0  0  0  0  0  0  0
    5.6538   -0.7452    1.1395 C   0  0  0  0  0  0  0  0  0  0  0  0
   -5.0055   -1.0169    2.2970 H   0  0  0  0  0  0  0  0  0  0  0  0
   -3.3145   -1.4373    2.6156 H   0  0  0  0  0  0  0  0  0  0  0  0
   -1.5188    2.8294   -1.2520 H   0  0  0  0  0  0  0  0  0  0  0  0
    0.1480    0.3211   -2.1406 H   0  0  0  0  0  0  0  0  0  0  0  0
    0.2916    2.9019    1.2992 H   0  0  0  0  0  0  0  0  0  0  0  0
   -3.2273   -2.8563    0.5882 H   0  0  0  0  0  0  0  0  0  0  0  0
   -4.4808   -3.3936    1.7052 H   0  0  0  0  0  0  0  0  0  0  0  0
   -4.0400    2.5966   -2.0973 H   0  0  0  0  0  0  0  0  0  0  0  0
   -4.0136    3.6369   -0.6468 H   0  0  0  0  0  0  0  0  0  0  0  0
   -5.4552    2.6640   -1.0216 H   0  0  0  0  0  0  0  0  0  0  0  0
    2.6705    2.3704    1.6107 H   0  0  0  0  0  0  0  0  0  0  0  0
    1.3572   -1.7510   -2.8517 H   0  0  0  0  0  0  0  0  0  0  0  0
    1.6939   -2.0328   -1.1236 H   0  0  0  0  0  0  0  0  0  0  0  0
    4.7006    0.9281    2.0601 H   0  0  0  0  0  0  0  0  0  0  0  0
    3.6307   -0.4748    1.7393 H   0  0  0  0  0  0  0  0  0  0  0  0
    2.8753   -3.7074   -2.5263 H   0  0  0  0  0  0  0  0  0  0  0  0
    3.7095   -2.3971   -3.3954 H   0  0  0  0  0  0  0  0  0  0  0  0
    4.0414   -2.6564   -1.6873 H   0  0  0  0  0  0  0  0  0  0  0  0
    5.5846   -1.2020    3.1916 H   0  0  0  0  0  0  0  0  0  0  0  0
    6.8609   -1.9755    2.3207 H   0  0  0  0  0  0  0  0  0  0  0  0
  1 16  1  0  0  0  0
  1 22  1  0  0  0  0
  2 20  1  0  0  0  0
  2 23  1  0  0  0  0
  3 11  2  0  0  0  0
  4 26  2  0  0  0  0
  5  6  1  0  0  0  0
  5 11  1  0  0  0  0
  5 12  1  0  0  0  0
  6 10  2  0  0  0  0
  7 24  3  0  0  0  0
  8 26  1  0  0  0  0
  8 45  1  0  0  0  0
  8 46  1  0  0  0  0
  9 10  1  0  0  0  0
  9 11  1  0  0  0  0
  9 13  2  0  0  0  0
 10 19  1  0  0  0  0
 12 18  1  0  0  0  0
 12 27  1  0  0  0  0
 12 28  1  0  0  0  0
 13 14  1  0  0  0  0
 13 29  1  0  0  0  0
 14 15  2  0  0  0  0
 14 17  1  0  0  0  0
 15 16  1  0  0  0  0
 15 30  1  0  0  0  0
 16 20  2  0  0  0  0
 17 21  2  0  0  0  0
 17 31  1  0  0  0  0
 18 24  1  0  0  0  0
 18 32  1  0  0  0  0
 18 33  1  0  0  0  0
 19 34  1  0  0  0  0
 19 35  1  0  0  0  0
 19 36  1  0  0  0  0
 20 21  1  0  0  0  0
 21 37  1  0  0  0  0
 22 25  1  0  0  0  0
 22 38  1  0  0  0  0
 22 39  1  0  0  0  0
 23 26  1  0  0  0  0
 23 40  1  0  0  0  0
 23 41  1  0  0  0  0
 25 42  1  0  0  0  0
 25 43  1  0  0  0  0
 25 44  1  0  0  0  0
M  END
> <PUBCHEM_COMPOUND_CID>
9551970

> <PUBCHEM_CONFORMER_RMSD>
1

> <PUBCHEM_CONFORMER_DIVERSEORDER>
1
22
36
30
10
20
24
17
42
14
32
40
27
2
45
4
43
41
8
35
7
37
18
31
12
21
9
13
39
44
29
16
19
28
5
11
23
25
38
34
6
26
3
33
15

> <PUBCHEM_MMFF94_PARTIAL_CHARGES>
31
1 -0.36
10 0.37
11 0.62
12 0.3
13 -0.18
14 0.03
15 -0.15
16 0.08
17 -0.15
18 0.2
19 0.06
2 -0.36
20 0.08
21 -0.15
22 0.28
23 0.34
24 0.36
26 0.57
29 0.15
3 -0.57
30 0.15
31 0.15
37 0.15
4 -0.57
45 0.37
46 0.37
5 -0.3
6 -0.51
7 -0.56
8 -0.8
9 0.03

> <PUBCHEM_EFFECTIVE_ROTOR_COUNT>
8.2

> <PUBCHEM_PHARMACOPHORE_FEATURES>
9
1 1 acceptor
1 2 acceptor
1 3 acceptor
1 4 acceptor
1 6 acceptor
1 7 acceptor
1 8 donor
5 5 6 9 10 11 rings
6 14 15 16 17 20 21 rings

> <PUBCHEM_HEAVY_ATOM_COUNT>
26

> <PUBCHEM_ATOM_DEF_STEREO_COUNT>
0

> <PUBCHEM_ATOM_UDEF_STEREO_COUNT>
0

> <PUBCHEM_BOND_DEF_STEREO_COUNT>
1

> <PUBCHEM_BOND_UDEF_STEREO_COUNT>
0

> <PUBCHEM_ISOTOPIC_ATOM_COUNT>
0

> <PUBCHEM_COMPONENT_COUNT>
1

> <PUBCHEM_CACTVS_TAUTO_COUNT>
2

> <PUBCHEM_CONFORMER_ID>
0091C06200000001

> <PUBCHEM_MMFF94_ENERGY>
77.962

> <PUBCHEM_FEATURE_SELFOVERLAP>
45.687

> <PUBCHEM_SHAPE_FINGERPRINT>
11796584 16 18188208693895452512
13140716 1 17488441131558180680
13583140 156 16487263179513568913
14251751 18 18333452053493727786
14739800 52 12534762909153188822
15510800 12 18338812203235296299
19377110 9 14908179759409527327
23559900 14 18265350416804941244
23572383 38 18270963444896941767
392239 28 16056587820007521467
4340502 62 16630531751735620742
465052 167 18410294697257411296
5081480 168 12829500199054493198
508706 21 18262250975199463247
5104073 3 16988014794996156435
559249 180 17822004268953918921
5718773 13 18337946909006000939
59755656 520 17969488343852282749
7970288 3 17607256647183625795
9709674 26 18340495482485612741

> <PUBCHEM_SHAPE_MULTIPOLES>
491.67
13.88
3.12
1.99
3.76
0.92
0.37
8.82
-4.52
-3.23
0.87
2.13
1.34
1.69

> <PUBCHEM_SHAPE_SELFOVERLAP>
1028.094

> <PUBCHEM_SHAPE_VOLUME>
276.3

> <PUBCHEM_COORDINATE_TYPE>
2
5
10

$$$$
