244633
  -OEChem-01171812153D

 23 24  0     0  0  0  0  0  0999 V2000
    1.5180   -0.7838   -1.1305 S   0  0  0  0  0  0  0  0  0  0  0  0
    2.7138    0.7587    2.1584 O   0  0  0  0  0  0  0  0  0  0  0  0
    4.0061   -0.8035   -2.0084 O   0  0  0  0  0  0  0  0  0  0  0  0
   -2.3868    2.5381   -0.9829 O   0  5  0  0  0  0  0  0  0  0  0  0
   -0.4971    2.1647    0.0792 O   0  0  0  0  0  0  0  0  0  0  0  0
    3.5886    0.0337    0.1276 N   0  0  0  0  0  0  0  0  0  0  0  0
   -1.6098    1.7849   -0.3525 N   0  3  0  0  0  0  0  0  0  0  0  0
   -1.1899   -0.4510    0.5794 C   0  0  0  0  0  0  0  0  0  0  0  0
    0.1129   -0.0505    1.0991 C   0  0  0  0  0  0  0  0  0  0  0  0
   -2.0087    0.4388   -0.1157 C   0  0  0  0  0  0  0  0  0  0  0  0
    1.2914   -0.1532    0.4560 C   0  0  0  0  0  0  0  0  0  0  0  0
   -1.6105   -1.7635    0.7945 C   0  0  0  0  0  0  0  0  0  0  0  0
    2.5826    0.2743    1.0442 C   0  0  0  0  0  0  0  0  0  0  0  0
   -3.2483    0.0161   -0.5958 C   0  0  0  0  0  0  0  0  0  0  0  0
   -2.8501   -2.1860    0.3144 C   0  0  0  0  0  0  0  0  0  0  0  0
   -3.6689   -1.2963   -0.3808 C   0  0  0  0  0  0  0  0  0  0  0  0
    3.2566   -0.5214   -1.0861 C   0  0  0  0  0  0  0  0  0  0  0  0
    0.0856    0.3536    2.1095 H   0  0  0  0  0  0  0  0  0  0  0  0
   -0.9859   -2.4709    1.3352 H   0  0  0  0  0  0  0  0  0  0  0  0
   -3.9170    0.6765   -1.1422 H   0  0  0  0  0  0  0  0  0  0  0  0
   -3.1778   -3.2079    0.4819 H   0  0  0  0  0  0  0  0  0  0  0  0
   -4.6340   -1.6259   -0.7543 H   0  0  0  0  0  0  0  0  0  0  0  0
    4.5530    0.2610    0.3470 H   0  0  0  0  0  0  0  0  0  0  0  0
  1 11  1  0  0  0  0
  1 17  1  0  0  0  0
  2 13  2  0  0  0  0
  3 17  2  0  0  0  0
  4  7  1  0  0  0  0
  5  7  2  0  0  0  0
  6 13  1  0  0  0  0
  6 17  1  0  0  0  0
  6 23  1  0  0  0  0
  7 10  1  0  0  0  0
  8  9  1  0  0  0  0
  8 10  1  0  0  0  0
  8 12  2  0  0  0  0
  9 11  2  0  0  0  0
  9 18  1  0  0  0  0
 10 14  2  0  0  0  0
 11 13  1  0  0  0  0
 12 15  1  0  0  0  0
 12 19  1  0  0  0  0
 14 16  1  0  0  0  0
 14 20  1  0  0  0  0
 15 16  2  0  0  0  0
 15 21  1  0  0  0  0
 16 22  1  0  0  0  0
M  CHG  2   4  -1   7   1
M  END
> <PUBCHEM_COMPOUND_CID>
244633

> <PUBCHEM_CONFORMER_RMSD>
0.6

> <PUBCHEM_CONFORMER_DIVERSEORDER>
1
3
2
4

> <PUBCHEM_MMFF94_PARTIAL_CHARGES>
23
1 -0.24
10 0.13
11 0.12
12 -0.15
13 0.62
14 -0.15
15 -0.15
16 -0.15
17 0.77
18 0.15
19 0.15
2 -0.57
20 0.15
21 0.15
22 0.15
23 0.37
3 -0.57
4 -0.52
5 -0.52
6 -0.49
7 0.91
8 0.03
9 -0.18

> <PUBCHEM_EFFECTIVE_ROTOR_COUNT>
2.4

> <PUBCHEM_PHARMACOPHORE_FEATURES>
7
1 2 acceptor
1 4 acceptor
1 4 anion
1 5 acceptor
1 6 donor
5 1 6 11 13 17 rings
6 8 10 12 14 15 16 rings

> <PUBCHEM_HEAVY_ATOM_COUNT>
17

> <PUBCHEM_ATOM_DEF_STEREO_COUNT>
0

> <PUBCHEM_ATOM_UDEF_STEREO_COUNT>
0

> <PUBCHEM_BOND_DEF_STEREO_COUNT>
0

> <PUBCHEM_BOND_UDEF_STEREO_COUNT>
1

> <PUBCHEM_ISOTOPIC_ATOM_COUNT>
0

> <PUBCHEM_COMPONENT_COUNT>
1

> <PUBCHEM_CACTVS_TAUTO_COUNT>
3

> <PUBCHEM_CONFORMER_ID>
0003BB9900000001

> <PUBCHEM_MMFF94_ENERGY>
49.8333

> <PUBCHEM_FEATURE_SELFOVERLAP>
35.602

> <PUBCHEM_SHAPE_FINGERPRINT>
10465860 71 18261118520713058479
11137873 295 17346045458844229174
11582403 64 16400481934467767456
11640471 11 16950566532328047812
12236239 1 17023176132700580730
13296908 3 18131913775477682106
13544592 145 18131636664493731735
14115302 16 17241030107054063851
15219456 202 17917988395109791698
15775835 57 16298391266110527446
16752209 62 18186793661032280839
16945 1 18260261954189858123
17134986 127 17467065246523498733
18175812 5 18059854012428424707
18186145 218 18201436939399922347
19422 9 14333131913554190583
19862831 5 17240485822981024862
204376 136 16628255874783291000
20645476 183 16950565527554107651
20645477 70 17060615586016069574
20693207 138 17988935482762479174
20871999 31 18409735032358015701
21524375 3 17536589612999911289
22620623 9 18343016675659196445
22802520 49 18201155429963226795
23402539 116 18335685165978677735
23557571 272 18341888614772140305
23559900 14 18410568471020247434
2748010 2 18202273710756406952
31174 14 17274823605523381962
3286 77 17275113850654759014
5262128 65 18190204410447232196
6049 1 18202847655910554080
7615 1 17095512981480845264
77492 1 17095234809085981082
81228 2 18408326579553748129
84936 31 17342930761330352433
88987 49 18188762856097866208

> <PUBCHEM_SHAPE_MULTIPOLES>
320.26
6.67
2
1.48
2.55
0.9
0.07
-1.82
-1.75
-2.05
-0.3
1.59
-0.04
1.34

> <PUBCHEM_SHAPE_SELFOVERLAP>
683.717

> <PUBCHEM_SHAPE_VOLUME>
178.3

> <PUBCHEM_COORDINATE_TYPE>
2
5
10

$$$$
