754219
  -OEChem-01171811553D

 47 49  0     0  0  0  0  0  0999 V2000
    2.6178   -0.7467    2.0281 F   0  0  0  0  0  0  0  0  0  0  0  0
    2.7534    2.3228    0.7705 O   0  0  0  0  0  0  0  0  0  0  0  0
   -2.8765   -0.0569    0.1754 N   0  0  0  0  0  0  0  0  0  0  0  0
    1.1231    1.1494   -0.4262 N   0  0  0  0  0  0  0  0  0  0  0  0
   -1.6875    0.4780   -0.4878 C   0  0  0  0  0  0  0  0  0  0  0  0
   -3.9232    0.9697    0.2618 C   0  0  0  0  0  0  0  0  0  0  0  0
   -3.3595   -1.2556   -0.5224 C   0  0  0  0  0  0  0  0  0  0  0  0
   -5.7099   -0.8474    0.3818 C   0  0  0  0  0  0  0  0  0  0  0  0
   -0.6007   -0.6032   -0.5724 C   0  0  0  0  0  0  0  0  0  0  0  0
   -1.1689    1.7075    0.2709 C   0  0  0  0  0  0  0  0  0  0  0  0
   -5.1554    0.4417    1.0010 C   0  0  0  0  0  0  0  0  0  0  0  0
   -4.5728   -1.8587    0.1902 C   0  0  0  0  0  0  0  0  0  0  0  0
    0.6838   -0.0360   -1.1742 C   0  0  0  0  0  0  0  0  0  0  0  0
    0.1318    2.2224   -0.3442 C   0  0  0  0  0  0  0  0  0  0  0  0
   -6.4526   -0.5736   -0.9285 C   0  0  0  0  0  0  0  0  0  0  0  0
    2.3851    1.3303    0.1440 C   0  0  0  0  0  0  0  0  0  0  0  0
    3.3690    0.2494    0.0060 C   0  0  0  0  0  0  0  0  0  0  0  0
    3.4403   -0.7540    0.9693 C   0  0  0  0  0  0  0  0  0  0  0  0
    4.2273    0.2332   -1.0907 C   0  0  0  0  0  0  0  0  0  0  0  0
    4.3757   -1.7801    0.8347 C   0  0  0  0  0  0  0  0  0  0  0  0
    5.1627   -0.7928   -1.2250 C   0  0  0  0  0  0  0  0  0  0  0  0
    5.2369   -1.7993   -0.2624 C   0  0  0  0  0  0  0  0  0  0  0  0
   -1.9393    0.7892   -1.5124 H   0  0  0  0  0  0  0  0  0  0  0  0
   -4.2048    1.3377   -0.7325 H   0  0  0  0  0  0  0  0  0  0  0  0
   -3.6026    1.8310    0.8539 H   0  0  0  0  0  0  0  0  0  0  0  0
   -2.6193   -2.0601   -0.5134 H   0  0  0  0  0  0  0  0  0  0  0  0
   -3.6021   -1.0384   -1.5700 H   0  0  0  0  0  0  0  0  0  0  0  0
   -6.4394   -1.2780    1.0797 H   0  0  0  0  0  0  0  0  0  0  0  0
   -0.8875   -1.4357   -1.2219 H   0  0  0  0  0  0  0  0  0  0  0  0
   -0.3861   -1.0081    0.4253 H   0  0  0  0  0  0  0  0  0  0  0  0
   -0.9957    1.4574    1.3259 H   0  0  0  0  0  0  0  0  0  0  0  0
   -1.8679    2.5481    0.2343 H   0  0  0  0  0  0  0  0  0  0  0  0
   -4.8826    0.2406    2.0459 H   0  0  0  0  0  0  0  0  0  0  0  0
   -5.9316    1.2159    1.0267 H   0  0  0  0  0  0  0  0  0  0  0  0
   -4.9313   -2.7336   -0.3653 H   0  0  0  0  0  0  0  0  0  0  0  0
   -4.2582   -2.2248    1.1770 H   0  0  0  0  0  0  0  0  0  0  0  0
    1.4507   -0.8131   -1.1911 H   0  0  0  0  0  0  0  0  0  0  0  0
    0.5173    0.2779   -2.2117 H   0  0  0  0  0  0  0  0  0  0  0  0
   -0.0410    2.5893   -1.3630 H   0  0  0  0  0  0  0  0  0  0  0  0
    0.5150    3.0610    0.2460 H   0  0  0  0  0  0  0  0  0  0  0  0
   -5.8028   -0.1394   -1.6939 H   0  0  0  0  0  0  0  0  0  0  0  0
   -6.8724   -1.5008   -1.3329 H   0  0  0  0  0  0  0  0  0  0  0  0
   -7.2828    0.1211   -0.7614 H   0  0  0  0  0  0  0  0  0  0  0  0
    4.1770    1.0125   -1.8466 H   0  0  0  0  0  0  0  0  0  0  0  0
    4.4331   -2.5638    1.5842 H   0  0  0  0  0  0  0  0  0  0  0  0
    5.8331   -0.8080   -2.0794 H   0  0  0  0  0  0  0  0  0  0  0  0
    5.9651   -2.5983   -0.3671 H   0  0  0  0  0  0  0  0  0  0  0  0
  1 18  1  0  0  0  0
  2 16  2  0  0  0  0
  3  5  1  0  0  0  0
  3  6  1  0  0  0  0
  3  7  1  0  0  0  0
  4 13  1  0  0  0  0
  4 14  1  0  0  0  0
  4 16  1  0  0  0  0
  5  9  1  0  0  0  0
  5 10  1  0  0  0  0
  5 23  1  0  0  0  0
  6 11  1  0  0  0  0
  6 24  1  0  0  0  0
  6 25  1  0  0  0  0
  7 12  1  0  0  0  0
  7 26  1  0  0  0  0
  7 27  1  0  0  0  0
  8 11  1  0  0  0  0
  8 12  1  0  0  0  0
  8 15  1  0  0  0  0
  8 28  1  0  0  0  0
  9 13  1  0  0  0  0
  9 29  1  0  0  0  0
  9 30  1  0  0  0  0
 10 14  1  0  0  0  0
 10 31  1  0  0  0  0
 10 32  1  0  0  0  0
 11 33  1  0  0  0  0
 11 34  1  0  0  0  0
 12 35  1  0  0  0  0
 12 36  1  0  0  0  0
 13 37  1  0  0  0  0
 13 38  1  0  0  0  0
 14 39  1  0  0  0  0
 14 40  1  0  0  0  0
 15 41  1  0  0  0  0
 15 42  1  0  0  0  0
 15 43  1  0  0  0  0
 16 17  1  0  0  0  0
 17 18  1  0  0  0  0
 17 19  2  0  0  0  0
 18 20  2  0  0  0  0
 19 21  1  0  0  0  0
 19 44  1  0  0  0  0
 20 22  1  0  0  0  0
 20 45  1  0  0  0  0
 21 22  2  0  0  0  0
 21 46  1  0  0  0  0
 22 47  1  0  0  0  0
M  END
> <PUBCHEM_COMPOUND_CID>
754219

> <PUBCHEM_CONFORMER_RMSD>
0.8

> <PUBCHEM_CONFORMER_DIVERSEORDER>
1
28
55
68
23
51
52
71
58
50
27
45
29
39
49
64
66
70
54
47
53
44
25
56
34
37
22
31
57
26
15
38
21
65
48
14
35
60
30
61
32
62
13
43
36
63
12
40
46
20
16
59
41
9
19
69
5
42
18
8
24
2
4
10
33
17
7
67
3
11
6

> <PUBCHEM_MMFF94_PARTIAL_CHARGES>
20
1 -0.19
13 0.3
14 0.3
16 0.54
17 0.09
18 0.19
19 -0.15
2 -0.57
20 -0.15
21 -0.15
22 -0.15
3 -0.81
4 -0.66
44 0.15
45 0.15
46 0.15
47 0.15
5 0.27
6 0.27
7 0.27

> <PUBCHEM_EFFECTIVE_ROTOR_COUNT>
5.4

> <PUBCHEM_PHARMACOPHORE_FEATURES>
5
1 2 acceptor
1 3 cation
6 17 18 19 20 21 22 rings
6 3 6 7 8 11 12 rings
6 4 5 9 10 13 14 rings

> <PUBCHEM_HEAVY_ATOM_COUNT>
22

> <PUBCHEM_ATOM_DEF_STEREO_COUNT>
0

> <PUBCHEM_ATOM_UDEF_STEREO_COUNT>
0

> <PUBCHEM_BOND_DEF_STEREO_COUNT>
0

> <PUBCHEM_BOND_UDEF_STEREO_COUNT>
0

> <PUBCHEM_ISOTOPIC_ATOM_COUNT>
0

> <PUBCHEM_COMPONENT_COUNT>
1

> <PUBCHEM_CACTVS_TAUTO_COUNT>
1

> <PUBCHEM_CONFORMER_ID>
000B822B00000001

> <PUBCHEM_MMFF94_ENERGY>
45.6828

> <PUBCHEM_FEATURE_SELFOVERLAP>
25.373

> <PUBCHEM_SHAPE_FINGERPRINT>
10 15 12031783691317383903
11140007 195 17275107206756758674
12107183 9 18269563732620368073
12166972 35 18059860597172731937
12236239 1 18187090533050126957
12553582 1 18336536158124730406
12596602 18 17846779615405981187
13167823 11 18408886265242216923
13533116 47 18342174522471552993
13675066 3 17132112433413582436
13862211 1 18342738516265505735
13911852 28 18267582403686913934
13914758 101 18341045243258755405
14211702 104 18267022954754480359
14251758 9 17989486307991419423
14251764 18 18131633396097225844
14251764 30 18270124492235459022
14341114 176 18339085985908982681
14528608 73 10953462937667797210
15183329 4 18114173109036598813
15188451 53 17274811494180032535
15348495 7 16415192408178684475
15537594 2 18040155115003338523
15788980 27 17846780724077040781
15885798 251 18411700976080597068
17349148 13 18060142054969300269
17492 89 18123753316589332279
17857418 61 18409445890838359559
1813 80 17676203593397027956
18222031 100 18343297085151779445
19377110 9 11239994547502446237
19489759 90 17346320384750044483
20028762 73 17988922288539186927
20645477 70 18335138717495323004
21033648 29 16486682555073333819
21150785 3 13407081440075023083
21267235 1 18411709789696152519
22079108 93 13902184907132701109
2215653 11 18113332029501076159
22950370 63 18335144180466701246
23016692 55 18410865343211991686
23402539 116 18131069325563788533
23402655 69 11674878909421005929
23522609 53 18120691021654903380
23559900 14 18336545031738270953
239999 70 18411422851779523748
2767999 5 10087637078900745979
2871803 45 17458345221772201066
3004659 81 18040152903411334630
3411729 13 18058164115366936792
345986 75 18262503798084917473
3472631 163 8357960183345314578
351380 3 18334296456975617483
46194498 28 16153715365822476598
465052 167 18341619217517753190
5104073 3 18130233756718785593
543368 44 10809344443232261519
559249 180 18411981326529808439
59755656 215 18336265656958714663
7970288 3 18336824191575297410
8509985 295 15339117944511477698
8863177 126 18042980954776988819
960060 61 17675927603283029134
9971528 1 18261391204134866141

> <PUBCHEM_SHAPE_MULTIPOLES>
429.64
14.51
2.05
1.18
9.29
0.48
-0.16
-7.46
0.27
-0.83
-0.24
-0.73
-0.19
-0.43

> <PUBCHEM_SHAPE_SELFOVERLAP>
901.042

> <PUBCHEM_SHAPE_VOLUME>
243.3

> <PUBCHEM_COORDINATE_TYPE>
2
5
10

$$$$
