6304176
  -OEChem-01171811473D

 41 43  0     1  0  0  0  0  0999 V2000
    0.8955   -0.9411   -0.7559 O   0  0  0  0  0  0  0  0  0  0  0  0
    2.5594    0.4894    0.1718 N   0  0  0  0  0  0  0  0  0  0  0  0
   -3.0512    0.6691   -0.8153 N   0  0  3  0  0  0  0  0  0  0  0  0
    2.6011    1.7647    0.7309 N   0  0  0  0  0  0  0  0  0  0  0  0
   -1.7107    0.4873   -0.6273 N   0  0  0  0  0  0  0  0  0  0  0  0
    0.4545    1.2665    0.1158 C   0  0  0  0  0  0  0  0  0  0  0  0
    1.3826    2.2303    0.7071 C   0  0  0  0  0  0  0  0  0  0  0  0
    1.2750    0.0919   -0.2389 C   0  0  0  0  0  0  0  0  0  0  0  0
    3.6808   -0.3135    0.0332 C   0  0  0  0  0  0  0  0  0  0  0  0
   -0.8567    1.3897   -0.0766 C   0  0  0  0  0  0  0  0  0  0  0  0
   -4.0294   -0.1700   -0.2423 C   0  0  0  0  0  0  0  0  0  0  0  0
    0.9838    3.5737    1.2139 C   0  0  0  0  0  0  0  0  0  0  0  0
    3.5614   -1.7072    0.0761 C   0  0  0  0  0  0  0  0  0  0  0  0
    4.9434    0.2615   -0.1501 C   0  0  0  0  0  0  0  0  0  0  0  0
   -3.4425    1.7365   -1.7285 C   0  0  0  0  0  0  0  0  0  0  0  0
   -5.3770    0.0198   -0.5487 C   0  0  0  0  0  0  0  0  0  0  0  0
   -3.6497   -1.1901    0.6300 C   0  0  0  0  0  0  0  0  0  0  0  0
    4.6897   -2.5153   -0.0628 C   0  0  0  0  0  0  0  0  0  0  0  0
    6.0718   -0.5467   -0.2889 C   0  0  0  0  0  0  0  0  0  0  0  0
    5.9450   -1.9351   -0.2453 C   0  0  0  0  0  0  0  0  0  0  0  0
   -6.3446   -0.8104    0.0170 C   0  0  0  0  0  0  0  0  0  0  0  0
   -4.6174   -2.0204    1.1956 C   0  0  0  0  0  0  0  0  0  0  0  0
   -5.9648   -1.8306    0.8892 C   0  0  0  0  0  0  0  0  0  0  0  0
   -1.3613    2.2995    0.2346 H   0  0  0  0  0  0  0  0  0  0  0  0
   -1.3145   -0.3797   -0.9766 H   0  0  0  0  0  0  0  0  0  0  0  0
    0.5525    4.1626    0.4000 H   0  0  0  0  0  0  0  0  0  0  0  0
    1.8570    4.1009    1.6079 H   0  0  0  0  0  0  0  0  0  0  0  0
    0.2466    3.4632    2.0137 H   0  0  0  0  0  0  0  0  0  0  0  0
    2.6140   -2.2038    0.2605 H   0  0  0  0  0  0  0  0  0  0  0  0
    5.0671    1.3407   -0.1941 H   0  0  0  0  0  0  0  0  0  0  0  0
   -3.9609    1.3335   -2.6058 H   0  0  0  0  0  0  0  0  0  0  0  0
   -2.5735    2.2859   -2.1104 H   0  0  0  0  0  0  0  0  0  0  0  0
   -4.0838    2.4687   -1.2254 H   0  0  0  0  0  0  0  0  0  0  0  0
   -5.7241    0.7993   -1.2196 H   0  0  0  0  0  0  0  0  0  0  0  0
   -2.6099   -1.3646    0.8925 H   0  0  0  0  0  0  0  0  0  0  0  0
    4.5932   -3.5962   -0.0186 H   0  0  0  0  0  0  0  0  0  0  0  0
    7.0491   -0.0951   -0.4321 H   0  0  0  0  0  0  0  0  0  0  0  0
    6.8239   -2.5643   -0.3514 H   0  0  0  0  0  0  0  0  0  0  0  0
   -7.3940   -0.6629   -0.2208 H   0  0  0  0  0  0  0  0  0  0  0  0
   -4.3222   -2.8144    1.8754 H   0  0  0  0  0  0  0  0  0  0  0  0
   -6.7183   -2.4769    1.3298 H   0  0  0  0  0  0  0  0  0  0  0  0
  1  8  2  0  0  0  0
  2  4  1  0  0  0  0
  2  8  1  0  0  0  0
  2  9  1  0  0  0  0
  3  5  1  0  0  0  0
  3 11  1  0  0  0  0
  3 15  1  0  0  0  0
  4  7  2  0  0  0  0
  5 10  1  0  0  0  0
  5 25  1  0  0  0  0
  6  7  1  0  0  0  0
  6  8  1  0  0  0  0
  6 10  2  0  0  0  0
  7 12  1  0  0  0  0
  9 13  2  0  0  0  0
  9 14  1  0  0  0  0
 10 24  1  0  0  0  0
 11 16  2  0  0  0  0
 11 17  1  0  0  0  0
 12 26  1  0  0  0  0
 12 27  1  0  0  0  0
 12 28  1  0  0  0  0
 13 18  1  0  0  0  0
 13 29  1  0  0  0  0
 14 19  2  0  0  0  0
 14 30  1  0  0  0  0
 15 31  1  0  0  0  0
 15 32  1  0  0  0  0
 15 33  1  0  0  0  0
 16 21  1  0  0  0  0
 16 34  1  0  0  0  0
 17 22  2  0  0  0  0
 17 35  1  0  0  0  0
 18 20  2  0  0  0  0
 18 36  1  0  0  0  0
 19 20  1  0  0  0  0
 19 37  1  0  0  0  0
 20 38  1  0  0  0  0
 21 23  2  0  0  0  0
 21 39  1  0  0  0  0
 22 23  1  0  0  0  0
 22 40  1  0  0  0  0
 23 41  1  0  0  0  0
M  END
> <PUBCHEM_COMPOUND_CID>
6304176

> <PUBCHEM_CONFORMER_RMSD>
0.8

> <PUBCHEM_CONFORMER_DIVERSEORDER>
1
13
21
15
7
20
11
22
8
4
14
9
19
10
17
12
6
2
23
3
16
5
18

> <PUBCHEM_MMFF94_PARTIAL_CHARGES>
35
1 -0.57
10 -0.05
11 0.1
12 0.06
13 -0.15
14 -0.15
15 0.37
16 -0.15
17 -0.15
18 -0.15
19 -0.15
2 -0.11
20 -0.15
21 -0.15
22 -0.15
23 -0.15
24 0.15
25 0.4
29 0.15
3 -0.47
30 0.15
34 0.15
35 0.15
36 0.15
37 0.15
38 0.15
39 0.15
4 -0.51
40 0.15
41 0.15
5 -0.5
6 0.03
7 0.37
8 0.62
9 0.12

> <PUBCHEM_EFFECTIVE_ROTOR_COUNT>
4.2

> <PUBCHEM_PHARMACOPHORE_FEATURES>
6
1 1 acceptor
1 4 acceptor
1 5 donor
5 2 4 6 7 8 rings
6 11 16 17 21 22 23 rings
6 9 13 14 18 19 20 rings

> <PUBCHEM_HEAVY_ATOM_COUNT>
23

> <PUBCHEM_ATOM_DEF_STEREO_COUNT>
0

> <PUBCHEM_ATOM_UDEF_STEREO_COUNT>
0

> <PUBCHEM_BOND_DEF_STEREO_COUNT>
1

> <PUBCHEM_BOND_UDEF_STEREO_COUNT>
0

> <PUBCHEM_ISOTOPIC_ATOM_COUNT>
0

> <PUBCHEM_COMPONENT_COUNT>
1

> <PUBCHEM_CACTVS_TAUTO_COUNT>
4

> <PUBCHEM_CONFORMER_ID>
006031B000000001

> <PUBCHEM_MMFF94_ENERGY>
84.0018

> <PUBCHEM_FEATURE_SELFOVERLAP>
30.446

> <PUBCHEM_SHAPE_FINGERPRINT>
10673678 19 17897740992413546532
11045977 3 18335699477358256143
117089 54 17696481685350749758
11796584 16 18042396942034467186
12107183 9 18200889370500179921
12236239 1 16630525167671873837
12516196 113 18342737407973993610
12596602 18 16271917259649902611
12633257 1 15051725404419500513
12760667 363 18412263930993364019
13103583 49 18059871549185940275
13402501 40 18334861623327764723
13673619 4 18333736827490722005
13685833 64 18411139138497136811
13740256 8 18409731754949626924
13782708 43 18334853939789209351
13955234 65 18127969926169753184
14251751 18 18187088355570513615
14341114 176 18340770433301297569
14461889 52 18261669359713182850
14617045 38 17894912915135761451
14950920 106 17845104029259510003
15183329 4 17821726113554424635
15475509 84 17418100896724692705
15537594 2 18130783477993872838
15927050 60 17696468856134495676
17492 89 18053665768574252958
17844677 252 18260835881826961380
17980427 23 12319440109134784457
1813 80 17703522025331486308
20028762 73 17846774152429880583
20281389 69 11383832662331204639
21033650 10 16660638510824897989
21049683 271 18336834194844267340
21267235 1 18272092657019979078
21623969 137 18272936003285910254
21682296 61 18272092660513404983
221357 26 18335417971942247675
221490 88 18410008853571337040
2215653 11 18335129904649667183
22950370 63 18341054029954903168
2297311 6 17821447972136655365
23522609 53 18124065457384902225
23559900 14 18114457946640568141
239999 70 18041557048374135960
2838139 119 9799689268584128267
3004659 81 18113337492746975386
3089732 80 18334860532374286675
314194 84 18273206500225602190
329604 57 18408046195440565308
3421961 26 18342455984468637272
34797466 226 17168148978706672636
437815 12 18412262831312983177
439807 62 18114181904159436747
46194498 28 17895192250949818060
465052 167 18272654537078144390
5104073 3 18201151041118684736
59682541 35 18343290480431069090
59755656 215 17967810540199510931
59755656 520 18044934576871517653
621550 5 18333445443587350613
636775 8 18270128890841412622
7495541 125 18410857693622101052
8863177 126 18337392754950325547

> <PUBCHEM_SHAPE_MULTIPOLES>
447.54
16.13
2.94
1.05
4.58
1.32
0.06
-12.32
0.26
-1.35
-1.01
0.99
0.38
2.23

> <PUBCHEM_SHAPE_SELFOVERLAP>
964.557

> <PUBCHEM_SHAPE_VOLUME>
246.2

> <PUBCHEM_COORDINATE_TYPE>
2
5
10

$$$$
