2920510
  -OEChem-01171811403D

 48 50  0     1  0  0  0  0  0999 V2000
   -3.8747    1.8670    0.0823 S   0  0  0  0  0  0  0  0  0  0  0  0
   -1.2785    2.6112   -0.2911 O   0  0  0  0  0  0  0  0  0  0  0  0
   -4.1024   -1.1616   -0.7118 O   0  0  0  0  0  0  0  0  0  0  0  0
    4.4722   -1.1025   -0.9190 O   0  0  0  0  0  0  0  0  0  0  0  0
   -1.9473   -0.8426   -1.5215 N   0  0  0  0  0  0  0  0  0  0  0  0
   -0.5955    2.8499    1.8259 N   0  0  0  0  0  0  0  0  0  0  0  0
   -1.9236    2.4667    1.8461 N   0  0  0  0  0  0  0  0  0  0  0  0
   -1.4785   -2.1997   -1.3559 C   0  0  2  0  0  0  0  0  0  0  0  0
   -0.9433   -2.4294    0.0409 C   0  0  0  0  0  0  0  0  0  0  0  0
   -0.4592   -2.5519   -2.4375 C   0  0  0  0  0  0  0  0  0  0  0  0
   -1.1236   -3.6647    0.6388 C   0  0  0  0  0  0  0  0  0  0  0  0
   -0.2856   -1.3993    0.6903 C   0  0  0  0  0  0  0  0  0  0  0  0
   -3.2277   -0.4366   -1.1830 C   0  0  0  0  0  0  0  0  0  0  0  0
    1.0249    3.2788   -0.0521 C   0  0  0  0  0  0  0  0  0  0  0  0
    1.9580    2.0936   -0.2868 C   0  0  0  0  0  0  0  0  0  0  0  0
   -3.4768    1.0256   -1.4687 C   0  0  0  0  0  0  0  0  0  0  0  0
   -0.6307   -3.8763    1.9265 C   0  0  0  0  0  0  0  0  0  0  0  0
    0.2073   -1.6109    1.9779 C   0  0  0  0  0  0  0  0  0  0  0  0
    0.0347   -2.8494    2.5960 C   0  0  0  0  0  0  0  0  0  0  0  0
   -0.2613    2.9214    0.5585 C   0  0  0  0  0  0  0  0  0  0  0  0
    1.8854    1.4213   -1.4868 C   0  0  0  0  0  0  0  0  0  0  0  0
    2.8393    1.7376    0.7103 C   0  0  0  0  0  0  0  0  0  0  0  0
    2.7375    0.3377   -1.7006 C   0  0  0  0  0  0  0  0  0  0  0  0
    3.6915    0.6541    0.4963 C   0  0  0  0  0  0  0  0  0  0  0  0
    3.6405   -0.0458   -0.7091 C   0  0  0  0  0  0  0  0  0  0  0  0
   -2.2536    2.3473    0.5978 C   0  0  0  0  0  0  0  0  0  0  0  0
    5.3708   -1.4413    0.1362 C   0  0  0  0  0  0  0  0  0  0  0  0
   -2.3526   -2.8494   -1.4973 H   0  0  0  0  0  0  0  0  0  0  0  0
   -0.1386   -3.5960   -2.3544 H   0  0  0  0  0  0  0  0  0  0  0  0
   -0.8857   -2.4047   -3.4358 H   0  0  0  0  0  0  0  0  0  0  0  0
    0.4345   -1.9219   -2.3646 H   0  0  0  0  0  0  0  0  0  0  0  0
   -1.2820   -0.1497   -1.8532 H   0  0  0  0  0  0  0  0  0  0  0  0
   -1.6385   -4.4711    0.1250 H   0  0  0  0  0  0  0  0  0  0  0  0
   -0.1254   -0.4308    0.2285 H   0  0  0  0  0  0  0  0  0  0  0  0
    1.5365    4.0141    0.5827 H   0  0  0  0  0  0  0  0  0  0  0  0
    0.8580    3.7975   -1.0053 H   0  0  0  0  0  0  0  0  0  0  0  0
   -2.6502    1.4982   -2.0058 H   0  0  0  0  0  0  0  0  0  0  0  0
   -4.3517    1.0819   -2.1256 H   0  0  0  0  0  0  0  0  0  0  0  0
   -0.7643   -4.8409    2.4075 H   0  0  0  0  0  0  0  0  0  0  0  0
    0.7284   -0.8120    2.4975 H   0  0  0  0  0  0  0  0  0  0  0  0
    0.4195   -3.0144    3.5981 H   0  0  0  0  0  0  0  0  0  0  0  0
    1.1821    1.7119   -2.2612 H   0  0  0  0  0  0  0  0  0  0  0  0
    2.8815    2.2771    1.6515 H   0  0  0  0  0  0  0  0  0  0  0  0
    2.6920   -0.2047   -2.6410 H   0  0  0  0  0  0  0  0  0  0  0  0
    4.3672    0.4092    1.3087 H   0  0  0  0  0  0  0  0  0  0  0  0
    5.9555   -2.3034   -0.2013 H   0  0  0  0  0  0  0  0  0  0  0  0
    6.0809   -0.6315    0.3356 H   0  0  0  0  0  0  0  0  0  0  0  0
    4.8328   -1.7531    1.0378 H   0  0  0  0  0  0  0  0  0  0  0  0
  1 16  1  0  0  0  0
  1 26  1  0  0  0  0
  2 20  1  0  0  0  0
  2 26  1  0  0  0  0
  3 13  2  0  0  0  0
  4 25  1  0  0  0  0
  4 27  1  0  0  0  0
  5  8  1  0  0  0  0
  5 13  1  0  0  0  0
  5 32  1  0  0  0  0
  6  7  1  0  0  0  0
  6 20  2  0  0  0  0
  7 26  2  0  0  0  0
  8  9  1  0  0  0  0
  8 10  1  0  0  0  0
  8 28  1  0  0  0  0
  9 11  2  0  0  0  0
  9 12  1  0  0  0  0
 10 29  1  0  0  0  0
 10 30  1  0  0  0  0
 10 31  1  0  0  0  0
 11 17  1  0  0  0  0
 11 33  1  0  0  0  0
 12 18  2  0  0  0  0
 12 34  1  0  0  0  0
 13 16  1  0  0  0  0
 14 15  1  0  0  0  0
 14 20  1  0  0  0  0
 14 35  1  0  0  0  0
 14 36  1  0  0  0  0
 15 21  2  0  0  0  0
 15 22  1  0  0  0  0
 16 37  1  0  0  0  0
 16 38  1  0  0  0  0
 17 19  2  0  0  0  0
 17 39  1  0  0  0  0
 18 19  1  0  0  0  0
 18 40  1  0  0  0  0
 19 41  1  0  0  0  0
 21 23  1  0  0  0  0
 21 42  1  0  0  0  0
 22 24  2  0  0  0  0
 22 43  1  0  0  0  0
 23 25  2  0  0  0  0
 23 44  1  0  0  0  0
 24 25  1  0  0  0  0
 24 45  1  0  0  0  0
 27 46  1  0  0  0  0
 27 47  1  0  0  0  0
 27 48  1  0  0  0  0
M  END
> <PUBCHEM_COMPOUND_CID>
2920510

> <PUBCHEM_CONFORMER_RMSD>
1.2

> <PUBCHEM_CONFORMER_DIVERSEORDER>
1
525
449
68
371
15
189
405
657
274
20
17
148
19
94
328
634
679
34
174
111
295
9
142
402
27
133
521
76
2
231
267
379
31
23
669
559
598
7
103
48
216
223
633
414
181
286
251
415
674
88
49
587
477
59
254
43
331
395
37
688
208
347
81
268
12
452
609
662
636
652
162
168
378
8
309
637
112
22
14
183
186
455
69
377
281
41
556
489
523
659
108
72
96
75
63
146
56
77
591
481
105
574
417
104
3
665
241
278
400
156
159
253
577
314
227
446
13
80
273
92
303
21
16
238
311
35
25
177
605
554
644
622
11
304
5
145
276
134
352
115
421
248
266
291
6
172
30
532
315
4
188
413
334
135
131
316
575
29
293
597
60
70
433
178
220
42
367
369
143
225
32
53
196
207
87
46
18
120
213
54
381
358
263
107
52
73
50
458
384
45
349
61

> <PUBCHEM_MMFF94_PARTIAL_CHARGES>
36
1 -0.29
11 -0.15
12 -0.15
13 0.57
14 0.32
15 -0.14
16 0.29
17 -0.15
18 -0.15
19 -0.15
2 -0.28
20 0.3
21 -0.15
22 -0.15
23 -0.15
24 -0.15
25 0.08
26 0.53
27 0.28
3 -0.57
32 0.37
33 0.15
34 0.15
39 0.15
4 -0.36
40 0.15
41 0.15
42 0.15
43 0.15
44 0.15
45 0.15
5 -0.73
6 -0.34
7 -0.34
8 0.44
9 -0.14

> <PUBCHEM_EFFECTIVE_ROTOR_COUNT>
9

> <PUBCHEM_PHARMACOPHORE_FEATURES>
6
1 3 acceptor
1 4 acceptor
1 5 donor
5 2 6 7 20 26 rings
6 15 21 22 23 24 25 rings
6 9 11 12 17 18 19 rings

> <PUBCHEM_HEAVY_ATOM_COUNT>
27

> <PUBCHEM_ATOM_DEF_STEREO_COUNT>
0

> <PUBCHEM_ATOM_UDEF_STEREO_COUNT>
1

> <PUBCHEM_BOND_DEF_STEREO_COUNT>
0

> <PUBCHEM_BOND_UDEF_STEREO_COUNT>
0

> <PUBCHEM_ISOTOPIC_ATOM_COUNT>
0

> <PUBCHEM_COMPONENT_COUNT>
1

> <PUBCHEM_CACTVS_TAUTO_COUNT>
2

> <PUBCHEM_CONFORMER_ID>
002C903E00000001

> <PUBCHEM_MMFF94_ENERGY>
60.6206

> <PUBCHEM_FEATURE_SELFOVERLAP>
30.447

> <PUBCHEM_SHAPE_FINGERPRINT>
10119406 146 17907041499512143774
10366900 7 17181369729873233238
108634 29 18192988442470950784
11578080 2 16986873694777969856
12156800 1 16551371217923941068
12788726 201 18272098214027275388
13947920 75 18338513033430507210
14251757 17 18192704759865212945
15003188 3 15877012553303146931
16120349 306 18122619449375120600
17977149 70 16254760098069292966
19930381 70 16973347644525499343
20465049 17 18409156723965378295
20600515 1 17753017735625730000
20905425 154 17255135445358175696
25265897 201 17271406357755003515
35225 105 17680749000357162083
445580 42 18333737931365863138
445580 8 18123461675065757833
5309563 4 16607445610877093615
56638632 33 18201987838192959736
57091435 65 17689158911389506603
6287921 2 16906091063646150651

> <PUBCHEM_SHAPE_MULTIPOLES>
526.95
6.99
5.24
2.22
5.5
1.45
-0.2
-0.8
2.38
-2.05
-2.54
-0.57
1.38
-0.51

> <PUBCHEM_SHAPE_SELFOVERLAP>
1107.511

> <PUBCHEM_SHAPE_VOLUME>
299.6

> <PUBCHEM_COORDINATE_TYPE>
2
5
10

$$$$
