3152418
  -OEChem-01171811443D

 51 53  0     0  0  0  0  0  0999 V2000
   -3.5205    1.3340   -0.8530 O   0  0  0  0  0  0  0  0  0  0  0  0
    0.6739    0.7821    2.2691 O   0  0  0  0  0  0  0  0  0  0  0  0
    2.8957   -1.0384    1.5525 O   0  0  0  0  0  0  0  0  0  0  0  0
   -4.1467   -0.7091    0.9250 O   0  0  0  0  0  0  0  0  0  0  0  0
    3.0557    2.8951    1.0605 N   0  0  0  0  0  0  0  0  0  0  0  0
    3.0216   -3.0283   -1.2083 N   0  0  0  0  0  0  0  0  0  0  0  0
    2.2622    2.4993    2.0846 N   0  0  0  0  0  0  0  0  0  0  0  0
    3.4244   -2.7687    0.0589 N   0  0  0  0  0  0  0  0  0  0  0  0
    1.2082    0.1423   -0.6394 C   0  0  0  0  0  0  0  0  0  0  0  0
    1.8583    1.2056    0.2097 C   0  0  0  0  0  0  0  0  0  0  0  0
    1.9918   -1.1109   -0.6838 C   0  0  0  0  0  0  0  0  0  0  0  0
   -0.2403   -0.0848   -0.2185 C   0  0  0  0  0  0  0  0  0  0  0  0
    2.7877    2.1420   -0.0511 C   0  0  0  0  0  0  0  0  0  0  0  0
    2.1979   -2.0265   -1.6470 C   0  0  0  0  0  0  0  0  0  0  0  0
    1.4959    1.4316    1.6451 C   0  0  0  0  0  0  0  0  0  0  0  0
    2.8095   -1.5979    0.4726 C   0  0  0  0  0  0  0  0  0  0  0  0
   -1.2182    0.7375   -0.7352 C   0  0  0  0  0  0  0  0  0  0  0  0
   -0.5222   -1.1049    0.6642 C   0  0  0  0  0  0  0  0  0  0  0  0
   -2.5427    0.5295   -0.3505 C   0  0  0  0  0  0  0  0  0  0  0  0
    3.4789    2.4306   -1.3356 C   0  0  0  0  0  0  0  0  0  0  0  0
    1.6777   -2.0410   -3.0398 C   0  0  0  0  0  0  0  0  0  0  0  0
   -1.8467   -1.3126    1.0491 C   0  0  0  0  0  0  0  0  0  0  0  0
   -2.8571   -0.4956    0.5417 C   0  0  0  0  0  0  0  0  0  0  0  0
   -3.1152    2.3582   -1.7590 C   0  0  0  0  0  0  0  0  0  0  0  0
   -4.5119   -2.0478    1.2545 C   0  0  0  0  0  0  0  0  0  0  0  0
   -4.3376    3.1273   -2.2125 C   0  0  0  0  0  0  0  0  0  0  0  0
   -5.9803   -2.2484    0.9461 C   0  0  0  0  0  0  0  0  0  0  0  0
    1.1785    0.5316   -1.6671 H   0  0  0  0  0  0  0  0  0  0  0  0
   -0.9074    1.5172   -1.4206 H   0  0  0  0  0  0  0  0  0  0  0  0
    0.2289   -1.7540    1.0977 H   0  0  0  0  0  0  0  0  0  0  0  0
    3.5030    3.8001    1.0325 H   0  0  0  0  0  0  0  0  0  0  0  0
    3.5177   -3.6582   -1.8223 H   0  0  0  0  0  0  0  0  0  0  0  0
    2.3065    2.9452    2.9910 H   0  0  0  0  0  0  0  0  0  0  0  0
    4.0481   -3.3921    0.5539 H   0  0  0  0  0  0  0  0  0  0  0  0
    4.5630    2.3384   -1.2136 H   0  0  0  0  0  0  0  0  0  0  0  0
    3.1746    1.7423   -2.1297 H   0  0  0  0  0  0  0  0  0  0  0  0
    3.2548    3.4487   -1.6699 H   0  0  0  0  0  0  0  0  0  0  0  0
    1.1059   -2.9567   -3.2227 H   0  0  0  0  0  0  0  0  0  0  0  0
    1.0174   -1.1927   -3.2426 H   0  0  0  0  0  0  0  0  0  0  0  0
    2.5043   -2.0018   -3.7565 H   0  0  0  0  0  0  0  0  0  0  0  0
   -2.0423   -2.1010    1.7700 H   0  0  0  0  0  0  0  0  0  0  0  0
   -2.6456    1.9228   -2.6493 H   0  0  0  0  0  0  0  0  0  0  0  0
   -2.4368    3.0638   -1.2644 H   0  0  0  0  0  0  0  0  0  0  0  0
   -4.3317   -2.2185    2.3216 H   0  0  0  0  0  0  0  0  0  0  0  0
   -3.9502   -2.7824    0.6637 H   0  0  0  0  0  0  0  0  0  0  0  0
   -4.0636    3.9231   -2.9109 H   0  0  0  0  0  0  0  0  0  0  0  0
   -5.0541    2.4592   -2.7019 H   0  0  0  0  0  0  0  0  0  0  0  0
   -4.8534    3.5722   -1.3550 H   0  0  0  0  0  0  0  0  0  0  0  0
   -6.1797   -2.0676   -0.1154 H   0  0  0  0  0  0  0  0  0  0  0  0
   -6.5932   -1.5375    1.5100 H   0  0  0  0  0  0  0  0  0  0  0  0
   -6.2982   -3.2643    1.1971 H   0  0  0  0  0  0  0  0  0  0  0  0
  1 19  1  0  0  0  0
  1 24  1  0  0  0  0
  2 15  2  0  0  0  0
  3 16  2  0  0  0  0
  4 23  1  0  0  0  0
  4 25  1  0  0  0  0
  5  7  1  0  0  0  0
  5 13  1  0  0  0  0
  5 31  1  0  0  0  0
  6  8  1  0  0  0  0
  6 14  1  0  0  0  0
  6 32  1  0  0  0  0
  7 15  1  0  0  0  0
  7 33  1  0  0  0  0
  8 16  1  0  0  0  0
  8 34  1  0  0  0  0
  9 10  1  0  0  0  0
  9 11  1  0  0  0  0
  9 12  1  0  0  0  0
  9 28  1  0  0  0  0
 10 13  2  0  0  0  0
 10 15  1  0  0  0  0
 11 14  2  0  0  0  0
 11 16  1  0  0  0  0
 12 17  2  0  0  0  0
 12 18  1  0  0  0  0
 13 20  1  0  0  0  0
 14 21  1  0  0  0  0
 17 19  1  0  0  0  0
 17 29  1  0  0  0  0
 18 22  2  0  0  0  0
 18 30  1  0  0  0  0
 19 23  2  0  0  0  0
 20 35  1  0  0  0  0
 20 36  1  0  0  0  0
 20 37  1  0  0  0  0
 21 38  1  0  0  0  0
 21 39  1  0  0  0  0
 21 40  1  0  0  0  0
 22 23  1  0  0  0  0
 22 41  1  0  0  0  0
 24 26  1  0  0  0  0
 24 42  1  0  0  0  0
 24 43  1  0  0  0  0
 25 27  1  0  0  0  0
 25 44  1  0  0  0  0
 25 45  1  0  0  0  0
 26 46  1  0  0  0  0
 26 47  1  0  0  0  0
 26 48  1  0  0  0  0
 27 49  1  0  0  0  0
 27 50  1  0  0  0  0
 27 51  1  0  0  0  0
M  END
> <PUBCHEM_COMPOUND_CID>
3152418

> <PUBCHEM_CONFORMER_RMSD>
0.8

> <PUBCHEM_CONFORMER_DIVERSEORDER>
2
94
44
88
58
70
19
96
98
46
12
105
100
25
28
55
53
81
102
76
23
5
97
106
107
90
14
54
61
20
43
93
64
22
4
56
36
15
31
104
73
24
1
7
68
78
62
13
95
49
67
52
18
59
99
83
42
87
33
80
82
63
71
3
92
77
32
8
48
11
72
39
89
51
66
30
41
26
17
34
47
38
74
86
40
37
21
101
91
29
35
85
9
79
84
57
103
60
45
27
10
69
65
16
6
75
50

> <PUBCHEM_MMFF94_PARTIAL_CHARGES>
32
1 -0.36
10 -0.12
11 -0.12
12 -0.14
13 -0.04
14 -0.04
15 0.62
16 0.62
17 -0.15
18 -0.15
19 0.08
2 -0.57
20 0.14
21 0.14
22 -0.15
23 0.08
24 0.28
25 0.28
29 0.15
3 -0.57
30 0.15
31 0.4
32 0.4
33 0.37
34 0.37
4 -0.36
41 0.15
5 -0.52
6 -0.52
7 -0.41
8 -0.41
9 0.42

> <PUBCHEM_EFFECTIVE_ROTOR_COUNT>
7

> <PUBCHEM_PHARMACOPHORE_FEATURES>
11
1 1 acceptor
1 2 acceptor
1 3 acceptor
1 4 acceptor
1 5 donor
1 6 donor
1 7 donor
1 8 donor
5 5 7 10 13 15 rings
5 6 8 11 14 16 rings
6 12 17 18 19 22 23 rings

> <PUBCHEM_HEAVY_ATOM_COUNT>
27

> <PUBCHEM_ATOM_DEF_STEREO_COUNT>
0

> <PUBCHEM_ATOM_UDEF_STEREO_COUNT>
0

> <PUBCHEM_BOND_DEF_STEREO_COUNT>
0

> <PUBCHEM_BOND_UDEF_STEREO_COUNT>
0

> <PUBCHEM_ISOTOPIC_ATOM_COUNT>
0

> <PUBCHEM_COMPONENT_COUNT>
1

> <PUBCHEM_CACTVS_TAUTO_COUNT>
15

> <PUBCHEM_CONFORMER_ID>
00301A2200000002

> <PUBCHEM_MMFF94_ENERGY>
96.7819

> <PUBCHEM_FEATURE_SELFOVERLAP>
59.064

> <PUBCHEM_SHAPE_FINGERPRINT>
10165383 225 17983309401853863528
11578080 2 18260558787622044660
12160290 23 17168140110337612917
12553582 1 17488752159766758934
12623949 98 18128277734139672423
12730499 353 17985282999587682939
13134695 92 17844792708059069560
13140716 1 18335698291689021177
13383665 225 17968676989827374069
13533116 47 18201172035177894355
13540713 4 18335695027566487221
13583140 156 18339353076903523919
13681431 1 18058455309611291468
13835254 42 18338245959685037529
14955137 171 17917439743883610058
15163728 17 17387723658893379516
15664445 248 17753066156812816077
16752209 62 17167861963744402363
17357779 13 17628352675995088302
1813 80 16843070536519416238
20600515 1 18050006585001548054
20691752 17 17095249120075253897
21285901 2 18263085569207508247
22182313 1 18334008415621373095
23557571 272 17895193354929901191
23559900 14 18260264118842955917
238 59 18131055043964086301
3380486 77 17757264878123207530
44802255 64 17540285420222512740
469060 322 17835499893790342607
495365 180 17987210340175797800
59554788 62 18196646526805925303
59755656 520 17486490683697840248
6049 1 18408890607538601261
621550 34 18266742566018639577
6442390 28 17768254870288705402
7399639 24 18195804291902919209

> <PUBCHEM_SHAPE_MULTIPOLES>
512.25
8.83
3.86
2.28
11.68
1.03
0.69
-1.59
-0.29
-0.48
1.26
-0.74
0.32
4.28

> <PUBCHEM_SHAPE_SELFOVERLAP>
1103.88

> <PUBCHEM_SHAPE_VOLUME>
285.7

> <PUBCHEM_COORDINATE_TYPE>
2
5
10

$$$$
