6506039
  -OEChem-01171812023D

 46 48  0     0  0  0  0  0  0999 V2000
    1.8083   -1.4864    1.2236 S   0  0  0  0  0  0  0  0  0  0  0  0
   -6.0624    3.3844    0.5960 O   0  0  0  0  0  0  0  0  0  0  0  0
   -1.2486   -3.0774   -1.0816 O   0  0  0  0  0  0  0  0  0  0  0  0
   -7.9263    1.9674   -0.9366 O   0  0  0  0  0  0  0  0  0  0  0  0
    5.4586   -0.6874   -1.5558 O   0  0  0  0  0  0  0  0  0  0  0  0
   -2.0448   -2.5289    1.0287 N   0  0  0  0  0  0  0  0  0  0  0  0
   -3.1942   -1.9698    0.5212 N   0  0  0  0  0  0  0  0  0  0  0  0
    3.9606   -0.3435    0.2316 N   0  0  0  0  0  0  0  0  0  0  0  0
    2.0349   -3.2140   -0.6549 N   0  0  0  0  0  0  0  0  0  0  0  0
    3.0876   -2.3326   -0.8291 N   0  0  0  0  0  0  0  0  0  0  0  0
    0.0950   -3.6234    0.8361 C   0  0  0  0  0  0  0  0  0  0  0  0
   -4.6110   -0.0189    0.3348 C   0  0  0  0  0  0  0  0  0  0  0  0
    1.3127   -2.8740    0.3719 C   0  0  0  0  0  0  0  0  0  0  0  0
   -4.7976    1.3822    0.6790 C   0  0  0  0  0  0  0  0  0  0  0  0
   -1.1286   -3.0591    0.1423 C   0  0  0  0  0  0  0  0  0  0  0  0
   -3.5173   -0.6778    0.7521 C   0  0  0  0  0  0  0  0  0  0  0  0
   -5.8817    2.0575    0.2719 C   0  0  0  0  0  0  0  0  0  0  0  0
   -5.6157   -0.7011   -0.4641 C   0  0  0  0  0  0  0  0  0  0  0  0
    5.8379    1.1622   -0.2021 C   0  0  0  0  0  0  0  0  0  0  0  0
    3.0856   -1.3843    0.0833 C   0  0  0  0  0  0  0  0  0  0  0  0
   -6.9248    1.3738   -0.5497 C   0  0  0  0  0  0  0  0  0  0  0  0
   -6.7114   -0.0592   -0.8887 C   0  0  0  0  0  0  0  0  0  0  0  0
    5.0740   -0.0574   -0.5768 C   0  0  0  0  0  0  0  0  0  0  0  0
    6.5427    1.8315   -1.1800 C   0  0  0  0  0  0  0  0  0  0  0  0
    5.8153    1.5834    1.1106 C   0  0  0  0  0  0  0  0  0  0  0  0
    7.2589    2.9756   -0.8288 C   0  0  0  0  0  0  0  0  0  0  0  0
    6.5316    2.7278    1.4617 C   0  0  0  0  0  0  0  0  0  0  0  0
    7.2533    3.4238    0.4921 C   0  0  0  0  0  0  0  0  0  0  0  0
   -5.4924    4.2257   -0.3886 C   0  0  0  0  0  0  0  0  0  0  0  0
   -0.0052   -3.5855    1.9264 H   0  0  0  0  0  0  0  0  0  0  0  0
    0.1794   -4.6805    0.5587 H   0  0  0  0  0  0  0  0  0  0  0  0
   -4.0397    1.8792    1.2780 H   0  0  0  0  0  0  0  0  0  0  0  0
   -2.7675   -0.1622    1.3478 H   0  0  0  0  0  0  0  0  0  0  0  0
   -5.5005   -1.7442   -0.7352 H   0  0  0  0  0  0  0  0  0  0  0  0
   -1.9520   -2.5278    2.0388 H   0  0  0  0  0  0  0  0  0  0  0  0
   -3.8048   -2.5846   -0.0006 H   0  0  0  0  0  0  0  0  0  0  0  0
   -7.4662   -0.5585   -1.4853 H   0  0  0  0  0  0  0  0  0  0  0  0
    3.7152    0.2831    0.9915 H   0  0  0  0  0  0  0  0  0  0  0  0
    6.5533    1.5008   -2.2142 H   0  0  0  0  0  0  0  0  0  0  0  0
    5.3021    1.0513    1.9043 H   0  0  0  0  0  0  0  0  0  0  0  0
    7.8202    3.5184   -1.5838 H   0  0  0  0  0  0  0  0  0  0  0  0
    6.5354    3.0721    2.4919 H   0  0  0  0  0  0  0  0  0  0  0  0
    7.8125    4.3137    0.7659 H   0  0  0  0  0  0  0  0  0  0  0  0
   -5.9512    4.0606   -1.3698 H   0  0  0  0  0  0  0  0  0  0  0  0
   -5.6801    5.2642   -0.0997 H   0  0  0  0  0  0  0  0  0  0  0  0
   -4.4077    4.0848   -0.4525 H   0  0  0  0  0  0  0  0  0  0  0  0
  1 13  1  0  0  0  0
  1 20  1  0  0  0  0
  2 17  1  0  0  0  0
  2 29  1  0  0  0  0
  3 15  2  0  0  0  0
  4 21  2  0  0  0  0
  5 23  2  0  0  0  0
  6  7  1  0  0  0  0
  6 15  1  0  0  0  0
  6 35  1  0  0  0  0
  7 16  1  0  0  0  0
  7 36  1  0  0  0  0
  8 20  1  0  0  0  0
  8 23  1  0  0  0  0
  8 38  1  0  0  0  0
  9 10  1  0  0  0  0
  9 13  2  0  0  0  0
 10 20  2  0  0  0  0
 11 13  1  0  0  0  0
 11 15  1  0  0  0  0
 11 30  1  0  0  0  0
 11 31  1  0  0  0  0
 12 14  1  0  0  0  0
 12 16  2  0  0  0  0
 12 18  1  0  0  0  0
 14 17  2  0  0  0  0
 14 32  1  0  0  0  0
 16 33  1  0  0  0  0
 17 21  1  0  0  0  0
 18 22  2  0  0  0  0
 18 34  1  0  0  0  0
 19 23  1  0  0  0  0
 19 24  2  0  0  0  0
 19 25  1  0  0  0  0
 21 22  1  0  0  0  0
 22 37  1  0  0  0  0
 24 26  1  0  0  0  0
 24 39  1  0  0  0  0
 25 27  2  0  0  0  0
 25 40  1  0  0  0  0
 26 28  2  0  0  0  0
 26 41  1  0  0  0  0
 27 28  1  0  0  0  0
 27 42  1  0  0  0  0
 28 43  1  0  0  0  0
 29 44  1  0  0  0  0
 29 45  1  0  0  0  0
 29 46  1  0  0  0  0
M  END
> <PUBCHEM_COMPOUND_CID>
6506039

> <PUBCHEM_CONFORMER_RMSD>
1

> <PUBCHEM_CONFORMER_DIVERSEORDER>
1
128
196
85
225
162
143
247
240
210
98
66
209
178
198
6
230
102
161
179
24
93
212
9
170
17
158
116
141
94
232
214
79
206
213
37
100
88
113
63
72
207
180
127
56
115
217
220
30
194
167
195
20
132
8
2
154
229
223
175
233
22
235
150
87
35
78
147
236
83
137
159
182
202
13
149
71
112
151
165
191
164
237
117
201
111
91
43
48
81
109
19
99
166
124
67
184
222
76
44
118
218
145
11
92
239
200
152
192
75
163
50
54
82
231
211
228
5
55
176
129
125
95
18
215
107
226
106
183
114
193
29
10
86
49
122
177
140
32
224
14
108
187
146
243
21
168
199
59
172
173
190
110
64
197
23
27
34
96
89
45
144
69
26
234
203
208
221
3
185
123
188
68
245
36
139
33
238
246
105
130
156
131
46
157
181
97
90
138
133
84
119
126
205
104
136
47
103
142
160
80
244
60
171
249
186
58
41
153
148
189
134
53
241
155
31
70
219
77
101
227
28
42
174
40
121
242
15
12
51
16
57
4
38
135
169
65
62
216
248
61
7
52
73
120
204
74
250
25
39

> <PUBCHEM_MMFF94_PARTIAL_CHARGES>
40
1 -0.08
10 -0.34
11 0.24
13 0.2
14 -0.15
15 0.57
16 -0.05
17 0.09
18 -0.15
19 0.09
2 -0.36
20 0.44
21 0.54
22 -0.14
23 0.54
24 -0.15
25 -0.15
26 -0.15
27 -0.15
28 -0.15
29 0.28
3 -0.57
32 0.15
33 0.15
34 0.15
35 0.37
36 0.4
37 0.15
38 0.37
39 0.15
4 -0.57
40 0.15
41 0.15
42 0.15
43 0.15
5 -0.57
6 -0.41
7 -0.52
8 -0.49
9 -0.34

> <PUBCHEM_EFFECTIVE_ROTOR_COUNT>
9

> <PUBCHEM_PHARMACOPHORE_FEATURES>
11
1 2 acceptor
1 3 acceptor
1 4 acceptor
1 5 acceptor
1 6 donor
1 7 donor
1 8 donor
1 9 acceptor
5 1 9 10 13 20 rings
6 12 14 17 18 21 22 rings
6 19 24 25 26 27 28 rings

> <PUBCHEM_HEAVY_ATOM_COUNT>
29

> <PUBCHEM_ATOM_DEF_STEREO_COUNT>
0

> <PUBCHEM_ATOM_UDEF_STEREO_COUNT>
0

> <PUBCHEM_BOND_DEF_STEREO_COUNT>
1

> <PUBCHEM_BOND_UDEF_STEREO_COUNT>
0

> <PUBCHEM_ISOTOPIC_ATOM_COUNT>
0

> <PUBCHEM_COMPONENT_COUNT>
1

> <PUBCHEM_CACTVS_TAUTO_COUNT>
18

> <PUBCHEM_CONFORMER_ID>
0063463700000001

> <PUBCHEM_MMFF94_ENERGY>
74.0959

> <PUBCHEM_FEATURE_SELFOVERLAP>
57.357

> <PUBCHEM_SHAPE_FINGERPRINT>
10280341 67 18341038727393149064
10533779 1 18335971043239533237
10864689 126 18342182176657480552
10904742 38 18334580174009438938
12124843 1 17988924453202437157
12988421 55 17532076345364767082
1361 87 13470110948068253263
13782708 43 10807933747558201803
14429114 114 18337107840042440289
14565420 104 18114177506276677138
14930077 153 17988073521671100375
14931854 50 17846502538570616600
15198563 99 17697027407604693663
15684393 108 11815893492028769896
15803439 3 16988566839891035838
15980000 95 17544477453942659258
19053607 189 18340475686580256865
19438510 23 18114181947161805914
20058555 10 18411139125839172745
20398071 356 9367347037298466439
20691028 202 18335421305074168390
20775438 99 12463279346390124446
20982279 24 12894489132724316141
21095086 4 8934732110339981880
21298829 104 18408325484200164773
21424621 283 18262518208170154674
21647283 7 18113901541589377194
22033318 11 17748819744597143144
229767 8 10303513036189155037
23191077 185 18411692201420999379
23522609 53 17487343639186825339
23569914 152 17699874842889638934
270888 7 18408040736331903826
2748736 6 18408599275311142538
2835820 40 18194402191751739873
2838139 119 18412545383773240271
3862424 121 13254220779071269357
3918712 181 18409440380321901097
393628 179 18269826670270393560
393628 194 18334858376237465973
406291 66 10159704589991955572
437795 171 18044368331987415429
44249763 50 17702092776469410898
5104073 3 11963390743106556278
54583773 228 18410848838913566397
5718773 13 9583523109257076150
5776283 40 18341327903019167009
6036956 94 18126290740640312425
6327066 14 18410572920131956798
636775 72 18123188167950168216
636775 8 8646231259350876728
6712543 237 14707206626027745545
9849439 229 18407754841886749402

> <PUBCHEM_SHAPE_MULTIPOLES>
552.27
25.69
5.62
1.21
0.48
0.52
0
34.3
3.84
0.44
-0.3
-1.16
0.06
1.13

> <PUBCHEM_SHAPE_SELFOVERLAP>
1169.249

> <PUBCHEM_SHAPE_VOLUME>
309.5

> <PUBCHEM_COORDINATE_TYPE>
2
5
10

$$$$
