784670
  -OEChem-01171811393D

 33 35  0     0  0  0  0  0  0999 V2000
   -5.8430    0.6024    0.1193 O   0  0  0  0  0  0  0  0  0  0  0  0
   -3.1036   -0.0054   -0.0386 N   0  0  0  0  0  0  0  0  0  0  0  0
    4.7496    2.6996   -0.2635 N   0  0  0  0  0  0  0  0  0  0  0  0
    5.7803   -1.2564    0.1245 N   0  0  0  0  0  0  0  0  0  0  0  0
   -3.6031    0.9081    0.9982 C   0  0  0  0  0  0  0  0  0  0  0  0
   -4.1005   -0.9298   -0.5896 C   0  0  0  0  0  0  0  0  0  0  0  0
   -1.7557   -0.3766    0.0024 C   0  0  0  0  0  0  0  0  0  0  0  0
   -4.8837    1.5814    0.5177 C   0  0  0  0  0  0  0  0  0  0  0  0
   -5.3550   -0.1586   -0.9850 C   0  0  0  0  0  0  0  0  0  0  0  0
   -0.7615    0.5982   -0.0859 C   0  0  0  0  0  0  0  0  0  0  0  0
    0.5965    0.2426   -0.0447 C   0  0  0  0  0  0  0  0  0  0  0  0
   -1.4069   -1.7175    0.1335 C   0  0  0  0  0  0  0  0  0  0  0  0
    0.9512   -1.1209    0.0881 C   0  0  0  0  0  0  0  0  0  0  0  0
   -0.0627   -2.0887    0.1762 C   0  0  0  0  0  0  0  0  0  0  0  0
    1.6102    1.2107   -0.1325 C   0  0  0  0  0  0  0  0  0  0  0  0
    2.3093   -1.4764    0.1292 C   0  0  0  0  0  0  0  0  0  0  0  0
    2.9544    0.8395   -0.0902 C   0  0  0  0  0  0  0  0  0  0  0  0
    3.3032   -0.5014    0.0402 C   0  0  0  0  0  0  0  0  0  0  0  0
    3.9474    1.8685   -0.1861 C   0  0  0  0  0  0  0  0  0  0  0  0
    4.6736   -0.9190    0.0868 C   0  0  0  0  0  0  0  0  0  0  0  0
   -2.8736    1.6833    1.2561 H   0  0  0  0  0  0  0  0  0  0  0  0
   -3.8081    0.3256    1.9051 H   0  0  0  0  0  0  0  0  0  0  0  0
   -4.3604   -1.6758    0.1716 H   0  0  0  0  0  0  0  0  0  0  0  0
   -3.7154   -1.4499   -1.4747 H   0  0  0  0  0  0  0  0  0  0  0  0
   -5.3223    2.1712    1.3287 H   0  0  0  0  0  0  0  0  0  0  0  0
   -4.6874    2.2618   -0.3197 H   0  0  0  0  0  0  0  0  0  0  0  0
   -5.1618    0.5111   -1.8318 H   0  0  0  0  0  0  0  0  0  0  0  0
   -6.1424   -0.8563   -1.2876 H   0  0  0  0  0  0  0  0  0  0  0  0
   -1.0372    1.6452   -0.2023 H   0  0  0  0  0  0  0  0  0  0  0  0
   -2.1543   -2.5010    0.2196 H   0  0  0  0  0  0  0  0  0  0  0  0
    0.1869   -3.1424    0.2823 H   0  0  0  0  0  0  0  0  0  0  0  0
    1.3424    2.2618   -0.2350 H   0  0  0  0  0  0  0  0  0  0  0  0
    2.5875   -2.5249    0.2314 H   0  0  0  0  0  0  0  0  0  0  0  0
  1  8  1  0  0  0  0
  1  9  1  0  0  0  0
  2  5  1  0  0  0  0
  2  6  1  0  0  0  0
  2  7  1  0  0  0  0
  3 19  3  0  0  0  0
  4 20  3  0  0  0  0
  5  8  1  0  0  0  0
  5 21  1  0  0  0  0
  5 22  1  0  0  0  0
  6  9  1  0  0  0  0
  6 23  1  0  0  0  0
  6 24  1  0  0  0  0
  7 10  2  0  0  0  0
  7 12  1  0  0  0  0
  8 25  1  0  0  0  0
  8 26  1  0  0  0  0
  9 27  1  0  0  0  0
  9 28  1  0  0  0  0
 10 11  1  0  0  0  0
 10 29  1  0  0  0  0
 11 13  1  0  0  0  0
 11 15  2  0  0  0  0
 12 14  2  0  0  0  0
 12 30  1  0  0  0  0
 13 14  1  0  0  0  0
 13 16  2  0  0  0  0
 14 31  1  0  0  0  0
 15 17  1  0  0  0  0
 15 32  1  0  0  0  0
 16 18  1  0  0  0  0
 16 33  1  0  0  0  0
 17 18  2  0  0  0  0
 17 19  1  0  0  0  0
 18 20  1  0  0  0  0
M  END
> <PUBCHEM_COMPOUND_CID>
784670

> <PUBCHEM_CONFORMER_RMSD>
0.6

> <PUBCHEM_CONFORMER_DIVERSEORDER>
1
5
6
4
3
2

> <PUBCHEM_MMFF94_PARTIAL_CHARGES>
23
1 -0.56
10 -0.15
12 -0.15
14 -0.15
15 -0.15
16 -0.15
17 0.07
18 0.07
19 0.48
2 -0.84
20 0.48
29 0.15
3 -0.56
30 0.15
31 0.15
32 0.15
33 0.15
4 -0.56
5 0.37
6 0.37
7 0.1
8 0.28
9 0.28

> <PUBCHEM_EFFECTIVE_ROTOR_COUNT>
2.2

> <PUBCHEM_PHARMACOPHORE_FEATURES>
7
1 1 acceptor
1 2 cation
1 3 acceptor
1 4 acceptor
6 1 2 5 6 8 9 rings
6 11 13 15 16 17 18 rings
6 7 10 11 12 13 14 rings

> <PUBCHEM_HEAVY_ATOM_COUNT>
20

> <PUBCHEM_ATOM_DEF_STEREO_COUNT>
0

> <PUBCHEM_ATOM_UDEF_STEREO_COUNT>
0

> <PUBCHEM_BOND_DEF_STEREO_COUNT>
0

> <PUBCHEM_BOND_UDEF_STEREO_COUNT>
0

> <PUBCHEM_ISOTOPIC_ATOM_COUNT>
0

> <PUBCHEM_COMPONENT_COUNT>
1

> <PUBCHEM_CACTVS_TAUTO_COUNT>
1

> <PUBCHEM_CONFORMER_ID>
000BF91E00000001

> <PUBCHEM_MMFF94_ENERGY>
62.4138

> <PUBCHEM_FEATURE_SELFOVERLAP>
35.549

> <PUBCHEM_SHAPE_FINGERPRINT>
10411042 1 17833551193877150898
10595046 47 18343017818025622743
11089746 13 18408884018705282818
11471102 20 18409447003250434142
12107183 9 17621887483177981995
12236239 1 18131628971985602631
12403259 415 17967523558678626997
12507560 40 18188499093350156146
12644460 14 17967809397337024098
13140716 1 18334859454748698778
13862211 1 18336823092226849082
14251764 18 18410569587986012218
14528608 73 18341613745544717221
14790565 3 18410859849785679085
15099037 51 18410012113593926614
15196674 1 18409730707004188338
15475509 8 18055657031286364910
17834072 33 18272368689571278237
18681886 176 18059564798058063282
200 152 18131627872816898643
20612939 158 18408604773091002900
20645477 70 18412826885025657030
21033648 144 18260821639672924175
21033648 29 16878213208617530559
21267235 1 18411426093831206439
212847 35 18343864424567227472
21709351 56 18411412874164326549
23402539 116 18059850645421874175
23402655 69 18343580776199707111
23557571 272 14045741487166840027
23559900 14 18341049709613286400
25147074 1 18266442369422196294
29717793 49 17988924448648487501
3004659 81 18411139130624464532
335352 9 18409731747193493302
34797466 226 15841270466588357729
34934 24 18338231699755090004
350125 39 18336265644121239748
4214541 1 18413388722640265317
474 4 18260830453109442701
4990 188 17917998256375925887
5104073 3 18261955244988368970
54446538 1 18413387610064621465
6328613 192 18261966227794939188
633830 44 18411134736118956295
7495541 125 15912752999123441979
9971528 1 18040716982762099508
9981440 41 17476065199984107208
9999458 23 18113620080173015262

> <PUBCHEM_SHAPE_MULTIPOLES>
390.78
12.62
2.14
0.75
4.47
0.47
0
3.42
0.67
-1.96
-0.04
0.57
0.05
-0.88

> <PUBCHEM_SHAPE_SELFOVERLAP>
853.417

> <PUBCHEM_SHAPE_VOLUME>
209.2

> <PUBCHEM_COORDINATE_TYPE>
2
5
10

$$$$
