992248
  -OEChem-01171812103D

 60 62  0     0  0  0  0  0  0999 V2000
    2.1760   -1.6891    1.5607 S   0  0  0  0  0  0  0  0  0  0  0  0
    0.5353    3.9447   -0.3294 O   0  0  0  0  0  0  0  0  0  0  0  0
    1.5566   -1.9633    2.8391 O   0  0  0  0  0  0  0  0  0  0  0  0
    3.4096   -2.3386    1.1738 O   0  0  0  0  0  0  0  0  0  0  0  0
    1.7757    2.5513   -1.6922 O   0  0  0  0  0  0  0  0  0  0  0  0
    2.6919   -2.3736   -1.3373 O   0  0  0  0  0  0  0  0  0  0  0  0
   -3.2848   -3.1670    0.3519 O   0  0  0  0  0  0  0  0  0  0  0  0
    2.3616    0.0055    1.3826 N   0  0  0  0  0  0  0  0  0  0  0  0
   -3.4191   -0.8879   -0.1529 N   0  0  0  0  0  0  0  0  0  0  0  0
    2.3530    2.8252    0.6313 C   0  0  0  0  0  0  0  0  0  0  0  0
    1.4815    2.2802    1.7643 C   0  0  0  0  0  0  0  0  0  0  0  0
    3.5309    1.8989    0.3228 C   0  0  0  0  0  0  0  0  0  0  0  0
    1.1213    0.8065    1.5884 C   0  0  0  0  0  0  0  0  0  0  0  0
    3.1090    0.4400    0.1683 C   0  0  0  0  0  0  0  0  0  0  0  0
    1.5435    3.0702   -0.6086 C   0  0  0  0  0  0  0  0  0  0  0  0
    0.9787   -2.0004    0.3017 C   0  0  0  0  0  0  0  0  0  0  0  0
   -4.2595    1.7608    0.6295 C   0  0  0  0  0  0  0  0  0  0  0  0
   -2.7989    1.4474    0.3047 C   0  0  0  0  0  0  0  0  0  0  0  0
   -4.9958    0.5125    1.1166 C   0  0  0  0  0  0  0  0  0  0  0  0
   -2.6850    0.2710   -0.6618 C   0  0  0  0  0  0  0  0  0  0  0  0
   -4.8395   -0.6391    0.1271 C   0  0  0  0  0  0  0  0  0  0  0  0
   -0.3773   -1.9376    0.6234 C   0  0  0  0  0  0  0  0  0  0  0  0
   -2.7660   -2.1152   -0.0195 C   0  0  0  0  0  0  0  0  0  0  0  0
   -1.3388   -2.1807   -0.3575 C   0  0  0  0  0  0  0  0  0  0  0  0
    1.3730   -2.3062   -1.0009 C   0  0  0  0  0  0  0  0  0  0  0  0
   -0.9445   -2.4864   -1.6601 C   0  0  0  0  0  0  0  0  0  0  0  0
    0.4114   -2.5490   -1.9818 C   0  0  0  0  0  0  0  0  0  0  0  0
   -0.3196    4.2693   -1.4303 C   0  0  0  0  0  0  0  0  0  0  0  0
   -1.3793    5.2432   -0.9611 C   0  0  0  0  0  0  0  0  0  0  0  0
    2.9989   -2.6927   -2.6928 C   0  0  0  0  0  0  0  0  0  0  0  0
    2.7619    3.8011    0.9250 H   0  0  0  0  0  0  0  0  0  0  0  0
    0.5625    2.8639    1.8894 H   0  0  0  0  0  0  0  0  0  0  0  0
    2.0422    2.3858    2.7028 H   0  0  0  0  0  0  0  0  0  0  0  0
    4.0676    2.2248   -0.5763 H   0  0  0  0  0  0  0  0  0  0  0  0
    4.2467    1.9666    1.1530 H   0  0  0  0  0  0  0  0  0  0  0  0
    0.5950    0.4686    2.4869 H   0  0  0  0  0  0  0  0  0  0  0  0
    0.4518    0.7062    0.7286 H   0  0  0  0  0  0  0  0  0  0  0  0
    2.4919    0.3127   -0.7251 H   0  0  0  0  0  0  0  0  0  0  0  0
    4.0166   -0.1600    0.0476 H   0  0  0  0  0  0  0  0  0  0  0  0
   -4.3103    2.5448    1.3932 H   0  0  0  0  0  0  0  0  0  0  0  0
   -4.7568    2.1514   -0.2669 H   0  0  0  0  0  0  0  0  0  0  0  0
   -2.3181    2.3306   -0.1250 H   0  0  0  0  0  0  0  0  0  0  0  0
   -2.2672    1.2078    1.2340 H   0  0  0  0  0  0  0  0  0  0  0  0
   -4.5883    0.2138    2.0905 H   0  0  0  0  0  0  0  0  0  0  0  0
   -6.0576    0.7378    1.2633 H   0  0  0  0  0  0  0  0  0  0  0  0
   -1.6287    0.0937   -0.8616 H   0  0  0  0  0  0  0  0  0  0  0  0
   -3.1396    0.5360   -1.6247 H   0  0  0  0  0  0  0  0  0  0  0  0
   -5.3304   -0.4074   -0.8249 H   0  0  0  0  0  0  0  0  0  0  0  0
   -5.2947   -1.5502    0.5285 H   0  0  0  0  0  0  0  0  0  0  0  0
   -0.7005   -1.6985    1.6333 H   0  0  0  0  0  0  0  0  0  0  0  0
   -1.6865   -2.6768   -2.4313 H   0  0  0  0  0  0  0  0  0  0  0  0
    0.6403   -2.7915   -3.0136 H   0  0  0  0  0  0  0  0  0  0  0  0
    0.2738    4.7263   -2.2301 H   0  0  0  0  0  0  0  0  0  0  0  0
   -0.7930    3.3563   -1.8078 H   0  0  0  0  0  0  0  0  0  0  0  0
   -2.0593    5.5039   -1.7769 H   0  0  0  0  0  0  0  0  0  0  0  0
   -0.9170    6.1598   -0.5803 H   0  0  0  0  0  0  0  0  0  0  0  0
   -1.9611    4.8168   -0.1375 H   0  0  0  0  0  0  0  0  0  0  0  0
    2.6503   -3.6957   -2.9614 H   0  0  0  0  0  0  0  0  0  0  0  0
    2.6336   -1.9234   -3.3817 H   0  0  0  0  0  0  0  0  0  0  0  0
    4.0904   -2.7028   -2.7806 H   0  0  0  0  0  0  0  0  0  0  0  0
  1  3  2  0  0  0  0
  1  4  2  0  0  0  0
  1  8  1  0  0  0  0
  1 16  1  0  0  0  0
  2 15  1  0  0  0  0
  2 28  1  0  0  0  0
  5 15  2  0  0  0  0
  6 25  1  0  0  0  0
  6 30  1  0  0  0  0
  7 23  2  0  0  0  0
  8 13  1  0  0  0  0
  8 14  1  0  0  0  0
  9 20  1  0  0  0  0
  9 21  1  0  0  0  0
  9 23  1  0  0  0  0
 10 11  1  0  0  0  0
 10 12  1  0  0  0  0
 10 15  1  0  0  0  0
 10 31  1  0  0  0  0
 11 13  1  0  0  0  0
 11 32  1  0  0  0  0
 11 33  1  0  0  0  0
 12 14  1  0  0  0  0
 12 34  1  0  0  0  0
 12 35  1  0  0  0  0
 13 36  1  0  0  0  0
 13 37  1  0  0  0  0
 14 38  1  0  0  0  0
 14 39  1  0  0  0  0
 16 22  1  0  0  0  0
 16 25  2  0  0  0  0
 17 18  1  0  0  0  0
 17 19  1  0  0  0  0
 17 40  1  0  0  0  0
 17 41  1  0  0  0  0
 18 20  1  0  0  0  0
 18 42  1  0  0  0  0
 18 43  1  0  0  0  0
 19 21  1  0  0  0  0
 19 44  1  0  0  0  0
 19 45  1  0  0  0  0
 20 46  1  0  0  0  0
 20 47  1  0  0  0  0
 21 48  1  0  0  0  0
 21 49  1  0  0  0  0
 22 24  2  0  0  0  0
 22 50  1  0  0  0  0
 23 24  1  0  0  0  0
 24 26  1  0  0  0  0
 25 27  1  0  0  0  0
 26 27  2  0  0  0  0
 26 51  1  0  0  0  0
 27 52  1  0  0  0  0
 28 29  1  0  0  0  0
 28 53  1  0  0  0  0
 28 54  1  0  0  0  0
 29 55  1  0  0  0  0
 29 56  1  0  0  0  0
 29 57  1  0  0  0  0
 30 58  1  0  0  0  0
 30 59  1  0  0  0  0
 30 60  1  0  0  0  0
M  END
> <PUBCHEM_COMPOUND_CID>
992248

> <PUBCHEM_CONFORMER_RMSD>
1

> <PUBCHEM_CONFORMER_DIVERSEORDER>
1
124
148
72
153
138
6
56
43
145
102
69
82
95
66
85
51
108
112
129
103
48
26
119
133
136
89
87
54
156
99
30
120
155
125
47
61
111
34
121
93
39
137
55
88
22
140
91
53
29
17
143
115
19
52
154
36
134
109
116
78
135
25
146
130
71
83
117
18
20
152
149
150
75
122
142
96
8
84
107
46
35
38
139
132
33
44
106
128
28
131
79
10
67
42
147
49
74
104
94
100
80
105
63
5
31
68
32
40
90
97
110
21
81
92
70
101
64
37
27
151
7
73
11
65
98
50
114
123
60
58
14
4
3
24
127
76
62
41
57
9
118
77
141
126
144
15
45
59
86
16
113
2
12
13
23

> <PUBCHEM_MMFF94_PARTIAL_CHARGES>
27
1 1.45
10 0.06
13 0.36
14 0.36
15 0.66
16 -0.01
2 -0.43
20 0.3
21 0.3
22 -0.15
23 0.54
24 0.09
25 0.08
26 -0.15
27 -0.15
28 0.28
3 -0.65
30 0.28
4 -0.65
5 -0.57
50 0.15
51 0.15
52 0.15
6 -0.36
7 -0.57
8 -0.85
9 -0.66

> <PUBCHEM_EFFECTIVE_ROTOR_COUNT>
10.4

> <PUBCHEM_PHARMACOPHORE_FEATURES>
8
1 3 acceptor
1 4 acceptor
1 5 acceptor
1 6 acceptor
1 7 acceptor
6 16 22 24 25 26 27 rings
6 8 10 11 12 13 14 rings
6 9 17 18 19 20 21 rings

> <PUBCHEM_HEAVY_ATOM_COUNT>
30

> <PUBCHEM_ATOM_DEF_STEREO_COUNT>
0

> <PUBCHEM_ATOM_UDEF_STEREO_COUNT>
0

> <PUBCHEM_BOND_DEF_STEREO_COUNT>
0

> <PUBCHEM_BOND_UDEF_STEREO_COUNT>
0

> <PUBCHEM_ISOTOPIC_ATOM_COUNT>
0

> <PUBCHEM_COMPONENT_COUNT>
1

> <PUBCHEM_CACTVS_TAUTO_COUNT>
1

> <PUBCHEM_CONFORMER_ID>
000F23F800000001

> <PUBCHEM_MMFF94_ENERGY>
61.18

> <PUBCHEM_FEATURE_SELFOVERLAP>
40.628

> <PUBCHEM_SHAPE_FINGERPRINT>
10316853 100 17327453628258980429
10675989 125 15743854398294105528
108634 29 17043435450665546317
11421498 54 17680445346127611506
11513181 2 17704072893451850543
11582403 64 13971956650667116330
12156800 1 15476804094467723684
12422481 6 18196906969332764130
12539773 59 16823048828813772519
12633257 1 18337095770952340867
13122387 1 18266452105791315981
13402501 40 17474092216762874573
13583140 156 17895180066459992755
13726171 33 17833848075191254344
13911987 19 13445701342997272783
13965767 371 18128231506899458192
14114207 22 12580594320026347241
15210252 30 18123493590988840070
16114785 44 16537282007280704234
17093844 170 16826136751470513832
17921350 177 18263066735084721469
17977149 70 18195544605327079988
19319366 153 16748162178414775755
20764821 26 17112399023410040805
20775438 99 16682846206254252861
21860390 5 18342454829037928343
22149856 69 17703517645541108435
23419403 2 16769276719301072078
23559900 14 18272658918040011055
3052486 1 17616252477480169330
392239 28 17537441000172582563
469060 322 12981152835596018754
5081480 168 17556619549171596623
5265222 85 17767135563800818836
5776283 40 17401519394148176388
6287921 2 18273500091558249327

> <PUBCHEM_SHAPE_MULTIPOLES>
576.06
7.16
6.26
2.09
7.69
6.75
0.11
-1.13
-1.51
-0.66
3.01
-1.82
-0.85
0.85

> <PUBCHEM_SHAPE_SELFOVERLAP>
1188.118

> <PUBCHEM_SHAPE_VOLUME>
330

> <PUBCHEM_COORDINATE_TYPE>
2
5
10

$$$$
