6470271
  -OEChem-01171811593D

 42 43  0     1  0  0  0  0  0999 V2000
    3.9688   -1.8296    0.7697 F   0  0  0  0  0  0  0  0  0  0  0  0
   -1.6384   -3.3225   -0.5534 O   0  0  0  0  0  0  0  0  0  0  0  0
   -0.2599    1.5008    1.1823 O   0  0  0  0  0  0  0  0  0  0  0  0
   -3.5286   -2.1198   -0.9735 O   0  0  0  0  0  0  0  0  0  0  0  0
    0.9196   -0.4740    1.5404 N   0  0  0  0  0  0  0  0  0  0  0  0
   -1.4058   -0.5861    0.9653 C   0  0  2  0  0  0  0  0  0  0  0  0
   -1.4445   -0.9783   -0.5095 C   0  0  2  0  0  0  0  0  0  0  0  0
   -2.6805    0.1219    1.4348 C   0  0  0  0  0  0  0  0  0  0  0  0
   -1.8863    0.1665   -1.4264 C   0  0  0  0  0  0  0  0  0  0  0  0
   -3.3294    1.0494    0.4289 C   0  0  0  0  0  0  0  0  0  0  0  0
   -2.9524    1.0856   -0.8677 C   0  0  0  0  0  0  0  0  0  0  0  0
   -0.2060    0.2752    1.2433 C   0  0  0  0  0  0  0  0  0  0  0  0
   -2.3366   -2.1712   -0.7092 C   0  0  0  0  0  0  0  0  0  0  0  0
   -4.4294    1.8902    1.0242 C   0  0  0  0  0  0  0  0  0  0  0  0
   -3.5133    2.0339   -1.8959 C   0  0  0  0  0  0  0  0  0  0  0  0
    2.2086    0.1143    1.8239 C   0  0  0  0  0  0  0  0  0  0  0  0
    3.0126    0.3344    0.5751 C   0  0  0  0  0  0  0  0  0  0  0  0
    3.8591   -0.6665    0.1129 C   0  0  0  0  0  0  0  0  0  0  0  0
    2.8997    1.5397   -0.1079 C   0  0  0  0  0  0  0  0  0  0  0  0
    4.6032   -0.4590   -1.0485 C   0  0  0  0  0  0  0  0  0  0  0  0
    3.6438    1.7473   -1.2693 C   0  0  0  0  0  0  0  0  0  0  0  0
    4.4956    0.7478   -1.7396 C   0  0  0  0  0  0  0  0  0  0  0  0
   -1.3070   -1.4906    1.5830 H   0  0  0  0  0  0  0  0  0  0  0  0
   -0.4437   -1.2794   -0.8515 H   0  0  0  0  0  0  0  0  0  0  0  0
   -2.4770    0.6769    2.3603 H   0  0  0  0  0  0  0  0  0  0  0  0
   -3.4241   -0.6438    1.6951 H   0  0  0  0  0  0  0  0  0  0  0  0
   -2.2289   -0.2410   -2.3869 H   0  0  0  0  0  0  0  0  0  0  0  0
   -1.0083    0.7872   -1.6519 H   0  0  0  0  0  0  0  0  0  0  0  0
   -5.0769    1.2706    1.6547 H   0  0  0  0  0  0  0  0  0  0  0  0
   -5.0816    2.3501    0.2788 H   0  0  0  0  0  0  0  0  0  0  0  0
   -4.0018    2.6825    1.6467 H   0  0  0  0  0  0  0  0  0  0  0  0
   -2.7001    2.4754   -2.4830 H   0  0  0  0  0  0  0  0  0  0  0  0
   -4.0657    2.8713   -1.4647 H   0  0  0  0  0  0  0  0  0  0  0  0
   -4.1772    1.4965   -2.5804 H   0  0  0  0  0  0  0  0  0  0  0  0
    0.8612   -1.4882    1.5313 H   0  0  0  0  0  0  0  0  0  0  0  0
    2.7345   -0.5566    2.5124 H   0  0  0  0  0  0  0  0  0  0  0  0
    2.0633    1.0623    2.3558 H   0  0  0  0  0  0  0  0  0  0  0  0
   -2.2045   -4.1139   -0.6782 H   0  0  0  0  0  0  0  0  0  0  0  0
    2.2432    2.3280    0.2489 H   0  0  0  0  0  0  0  0  0  0  0  0
    5.2662   -1.2373   -1.4146 H   0  0  0  0  0  0  0  0  0  0  0  0
    3.5605    2.6873   -1.8070 H   0  0  0  0  0  0  0  0  0  0  0  0
    5.0752    0.9093   -2.6438 H   0  0  0  0  0  0  0  0  0  0  0  0
  1 18  1  0  0  0  0
  2 13  1  0  0  0  0
  2 38  1  0  0  0  0
  3 12  2  0  0  0  0
  4 13  2  0  0  0  0
  5 12  1  0  0  0  0
  5 16  1  0  0  0  0
  5 35  1  0  0  0  0
  6  7  1  0  0  0  0
  6  8  1  0  0  0  0
  6 12  1  0  0  0  0
  6 23  1  0  0  0  0
  7  9  1  0  0  0  0
  7 13  1  0  0  0  0
  7 24  1  0  0  0  0
  8 10  1  0  0  0  0
  8 25  1  0  0  0  0
  8 26  1  0  0  0  0
  9 11  1  0  0  0  0
  9 27  1  0  0  0  0
  9 28  1  0  0  0  0
 10 11  2  0  0  0  0
 10 14  1  0  0  0  0
 11 15  1  0  0  0  0
 14 29  1  0  0  0  0
 14 30  1  0  0  0  0
 14 31  1  0  0  0  0
 15 32  1  0  0  0  0
 15 33  1  0  0  0  0
 15 34  1  0  0  0  0
 16 17  1  0  0  0  0
 16 36  1  0  0  0  0
 16 37  1  0  0  0  0
 17 18  1  0  0  0  0
 17 19  2  0  0  0  0
 18 20  2  0  0  0  0
 19 21  1  0  0  0  0
 19 39  1  0  0  0  0
 20 22  1  0  0  0  0
 20 40  1  0  0  0  0
 21 22  2  0  0  0  0
 21 41  1  0  0  0  0
 22 42  1  0  0  0  0
M  END
> <PUBCHEM_COMPOUND_CID>
6470271

> <PUBCHEM_CONFORMER_RMSD>
1

> <PUBCHEM_CONFORMER_DIVERSEORDER>
3
335
305
272
249
41
98
56
240
238
316
450
361
356
192
108
358
383
129
260
409
12
247
116
292
8
130
85
111
512
62
162
528
408
134
40
61
433
392
17
431
10
524
177
290
26
160
86
14
120
59
128
313
372
496
540
298
199
227
544
13
281
449
424
113
39
135
212
377
317
92
399
31
270
53
387
282
297
287
413
385
250
314
104
58
65
326
164
188
43
210
455
236
329
375
63
344
28
50
406
81
20
411
147
364
148
33
389
136
170
277
6
21
271
318
189
152
24
133
334
514
7
154
145
178
517
261
83
460
370
251
121
159
9
19
191
23
67
51
197
321
5
430
288
38
87
508
182
337
30
228
2
1
353
125
478

> <PUBCHEM_MMFF94_PARTIAL_CHARGES>
28
1 -0.19
10 -0.28
11 -0.28
12 0.57
13 0.66
14 0.14
15 0.14
16 0.44
17 -0.14
18 0.19
19 -0.15
2 -0.65
20 -0.15
21 -0.15
22 -0.15
3 -0.57
35 0.37
38 0.5
39 0.15
4 -0.57
40 0.15
41 0.15
42 0.15
5 -0.73
6 0.06
7 0.06
8 0.14
9 0.14

> <PUBCHEM_EFFECTIVE_ROTOR_COUNT>
5.8

> <PUBCHEM_PHARMACOPHORE_FEATURES>
7
1 2 acceptor
1 3 acceptor
1 4 acceptor
1 5 donor
3 2 4 13 anion
6 17 18 19 20 21 22 rings
6 6 7 8 9 10 11 rings

> <PUBCHEM_HEAVY_ATOM_COUNT>
22

> <PUBCHEM_ATOM_DEF_STEREO_COUNT>
0

> <PUBCHEM_ATOM_UDEF_STEREO_COUNT>
2

> <PUBCHEM_BOND_DEF_STEREO_COUNT>
0

> <PUBCHEM_BOND_UDEF_STEREO_COUNT>
0

> <PUBCHEM_ISOTOPIC_ATOM_COUNT>
0

> <PUBCHEM_COMPONENT_COUNT>
1

> <PUBCHEM_CACTVS_TAUTO_COUNT>
2

> <PUBCHEM_CONFORMER_ID>
0062BA7F00000003

> <PUBCHEM_MMFF94_ENERGY>
37.4381

> <PUBCHEM_FEATURE_SELFOVERLAP>
35.577

> <PUBCHEM_SHAPE_FINGERPRINT>
107951 10 18130799927629023567
12173636 292 18343576335504229217
12363563 72 16056882433684725576
12553582 1 17703802392295779432
12707595 3 16558755663002580938
12714826 92 18129099094556789163
13224815 77 15285352946783429860
13296908 3 17417809607984352466
13583140 156 17386847188911246251
14115302 16 18202285771272435728
14251751 93 18187641384391872709
15163728 17 18049438146207166453
15664445 248 17326879077360333605
16752209 62 18201143447411224571
17834072 14 13686289154261760768
18186145 218 18335138700368311888
18981168 100 14851866050620580608
19862831 5 18335422353014767392
20600515 1 17845070940198608664
20871999 31 18270965746788129626
21713013 43 18200318856629139534
21864079 5 17240756272681832156
22393880 68 18341902935031647980
22907989 373 18270671103916365791
23227448 37 17603875511145874857
23503958 25 13840262589725927222
23557571 272 18058157500710586640
23559900 14 17918273152280280288
312423 11 17895182329369414906
312425 83 18334583442975404036
3797600 57 9078533984957149622
4921388 177 18272374216930554471
5161694 15 17203607077514030368
5281201 14 17531253816398481560
633830 44 17022618650588498328
6442390 28 15430615986418195952
9709674 26 15841257225198707848
9882013 296 12035737500306994896

> <PUBCHEM_SHAPE_MULTIPOLES>
422.89
9.63
2.44
1.87
6.32
1.18
-0.04
-2.46
2.59
-1.86
0.99
-0.24
-0.33
-1.12

> <PUBCHEM_SHAPE_SELFOVERLAP>
889.584

> <PUBCHEM_SHAPE_VOLUME>
237.7

> <PUBCHEM_COORDINATE_TYPE>
2
5
10

$$$$
