5335386
  -OEChem-01171811493D

 31 33  0     0  0  0  0  0  0999 V2000
    0.8802   -1.8791    0.1916 O   0  0  0  0  0  0  0  0  0  0  0  0
    1.7906    0.3108   -0.0343 N   0  0  0  0  0  0  0  0  0  0  0  0
    1.2934    1.6055   -0.1654 N   0  0  0  0  0  0  0  0  0  0  0  0
   -2.8545    0.3463   -0.0297 N   0  0  0  0  0  0  0  0  0  0  0  0
   -4.4943   -1.4039    0.1493 N   0  0  0  0  0  0  0  0  0  0  0  0
   -5.1662    0.7478   -0.0661 N   0  0  0  0  0  0  0  0  0  0  0  0
   -5.8254   -1.2461    0.1354 N   0  0  0  0  0  0  0  0  0  0  0  0
   -6.2686    0.0125    0.0099 N   0  0  0  0  0  0  0  0  0  0  0  0
   -0.4463    0.1277   -0.0109 C   0  0  0  0  0  0  0  0  0  0  0  0
   -0.0081    1.5162   -0.1519 C   0  0  0  0  0  0  0  0  0  0  0  0
    0.7913   -0.6728    0.0684 C   0  0  0  0  0  0  0  0  0  0  0  0
    3.1455    0.0192   -0.0076 C   0  0  0  0  0  0  0  0  0  0  0  0
   -1.6882   -0.3482    0.0389 C   0  0  0  0  0  0  0  0  0  0  0  0
   -0.9337    2.6782   -0.2682 C   0  0  0  0  0  0  0  0  0  0  0  0
    3.6139   -1.2079   -0.4905 C   0  0  0  0  0  0  0  0  0  0  0  0
    4.0583    0.9497    0.5016 C   0  0  0  0  0  0  0  0  0  0  0  0
    4.9774   -1.5008   -0.4645 C   0  0  0  0  0  0  0  0  0  0  0  0
    5.4218    0.6568    0.5275 C   0  0  0  0  0  0  0  0  0  0  0  0
    5.8813   -0.5683    0.0445 C   0  0  0  0  0  0  0  0  0  0  0  0
   -4.1684   -0.1437    0.0220 C   0  0  0  0  0  0  0  0  0  0  0  0
   -1.8359   -1.4188    0.1474 H   0  0  0  0  0  0  0  0  0  0  0  0
   -1.5481    2.5916   -1.1677 H   0  0  0  0  0  0  0  0  0  0  0  0
   -0.3440    3.5964   -0.3615 H   0  0  0  0  0  0  0  0  0  0  0  0
   -1.5461    2.7734    0.6318 H   0  0  0  0  0  0  0  0  0  0  0  0
    2.9553   -1.9465   -0.9366 H   0  0  0  0  0  0  0  0  0  0  0  0
    3.7241    1.9088    0.8897 H   0  0  0  0  0  0  0  0  0  0  0  0
   -2.7741    1.3469   -0.1308 H   0  0  0  0  0  0  0  0  0  0  0  0
    5.3370   -2.4505   -0.8498 H   0  0  0  0  0  0  0  0  0  0  0  0
    6.1258    1.3822    0.9247 H   0  0  0  0  0  0  0  0  0  0  0  0
    6.9432   -0.7955    0.0629 H   0  0  0  0  0  0  0  0  0  0  0  0
   -6.4604   -2.0332    0.2158 H   0  0  0  0  0  0  0  0  0  0  0  0
  1 11  2  0  0  0  0
  2  3  1  0  0  0  0
  2 11  1  0  0  0  0
  2 12  1  0  0  0  0
  3 10  2  0  0  0  0
  4 13  1  0  0  0  0
  4 20  1  0  0  0  0
  4 27  1  0  0  0  0
  5  7  1  0  0  0  0
  5 20  2  0  0  0  0
  6  8  2  0  0  0  0
  6 20  1  0  0  0  0
  7  8  1  0  0  0  0
  7 31  1  0  0  0  0
  9 10  1  0  0  0  0
  9 11  1  0  0  0  0
  9 13  2  0  0  0  0
 10 14  1  0  0  0  0
 12 15  2  0  0  0  0
 12 16  1  0  0  0  0
 13 21  1  0  0  0  0
 14 22  1  0  0  0  0
 14 23  1  0  0  0  0
 14 24  1  0  0  0  0
 15 17  1  0  0  0  0
 15 25  1  0  0  0  0
 16 18  2  0  0  0  0
 16 26  1  0  0  0  0
 17 19  2  0  0  0  0
 17 28  1  0  0  0  0
 18 19  1  0  0  0  0
 18 29  1  0  0  0  0
 19 30  1  0  0  0  0
M  END
> <PUBCHEM_COMPOUND_CID>
5335386

> <PUBCHEM_CONFORMER_RMSD>
0.6

> <PUBCHEM_CONFORMER_DIVERSEORDER>
1
4
2
3

> <PUBCHEM_MMFF94_PARTIAL_CHARGES>
28
1 -0.57
10 0.37
11 0.62
12 0.12
13 -0.05
14 0.06
15 -0.15
16 -0.15
17 -0.15
18 -0.15
19 -0.15
2 -0.11
20 0.6
21 0.15
25 0.15
26 0.15
27 0.4
28 0.15
29 0.15
3 -0.51
30 0.15
31 0.27
4 -0.58
5 -0.71
6 -0.23
7 0.57
8 -0.42
9 0.03

> <PUBCHEM_EFFECTIVE_ROTOR_COUNT>
3.2

> <PUBCHEM_PHARMACOPHORE_FEATURES>
7
1 1 acceptor
1 3 acceptor
1 4 donor
4 4 5 6 20 cation
5 2 3 9 10 11 rings
5 5 6 7 8 20 rings
6 12 15 16 17 18 19 rings

> <PUBCHEM_HEAVY_ATOM_COUNT>
20

> <PUBCHEM_ATOM_DEF_STEREO_COUNT>
0

> <PUBCHEM_ATOM_UDEF_STEREO_COUNT>
0

> <PUBCHEM_BOND_DEF_STEREO_COUNT>
1

> <PUBCHEM_BOND_UDEF_STEREO_COUNT>
0

> <PUBCHEM_ISOTOPIC_ATOM_COUNT>
0

> <PUBCHEM_COMPONENT_COUNT>
1

> <PUBCHEM_CACTVS_TAUTO_COUNT>
10

> <PUBCHEM_CONFORMER_ID>
0051695A00000001

> <PUBCHEM_MMFF94_ENERGY>
62.8298

> <PUBCHEM_FEATURE_SELFOVERLAP>
35.522

> <PUBCHEM_SHAPE_FINGERPRINT>
10 15 18339068390182514512
12166972 35 17530967973477208204
12236239 1 17918275359471444339
12516196 113 18342455954477459129
13533116 47 15338845218694561222
13685833 64 18335987540788490259
13862211 1 18407757036482778738
1420 363 18411703183635569995
14251764 18 18201725059624735897
15196674 1 18411136896566497156
17492 89 18122904227483069718
17844677 252 18341337733798360753
18222031 100 17749112179892075684
187816 3 17458065958223775481
19141452 34 18131347544111374215
200 152 18273495676389657377
20645477 70 18272654502871640118
21150785 3 17676497142439086358
21236236 1 18342176605747404513
21267235 1 18410581677448505767
21279426 13 18265049124437306053
21709351 56 18261103106697763341
23402539 116 18341889706015476407
23536379 177 18202003213795291235
23559900 14 18339354262604323209
2871803 45 18334576802755594562
3004659 81 18040437702755886612
335352 9 18409167719234662925
34797466 226 16343709871427611216
4073 2 18188214302727446851
42788 4 18413388739382395059
4340502 62 15123795088895933492
4463277 17 18410573985162254045
465052 167 18343869917978124686
474229 33 18410854356495938894
5104073 3 18128246801837064656
5374978 207 18410005534136286168
59755656 215 18334575702896144999
7495541 125 16009041621723967085

> <PUBCHEM_SHAPE_MULTIPOLES>
370.85
14.47
1.87
0.65
9.23
0.67
0
-4.41
-0.75
-0.03
0.15
-0.3
0.01
0.63

> <PUBCHEM_SHAPE_SELFOVERLAP>
808.113

> <PUBCHEM_SHAPE_VOLUME>
201.6

> <PUBCHEM_COORDINATE_TYPE>
2
5
10

$$$$
