937080
  -OEChem-01171811453D

 37 39  0     0  0  0  0  0  0999 V2000
   -0.7116    1.7215    0.3737 O   0  0  0  0  0  0  0  0  0  0  0  0
    1.2588   -2.6122    0.2657 O   0  0  0  0  0  0  0  0  0  0  0  0
    1.7712    2.6944   -0.0669 O   0  0  0  0  0  0  0  0  0  0  0  0
   -0.9910   -1.1422    0.5532 N   0  0  0  0  0  0  0  0  0  0  0  0
    2.6960   -0.7848   -0.0509 C   0  0  0  0  0  0  0  0  0  0  0  0
    0.1926   -0.4924    0.3343 C   0  0  0  0  0  0  0  0  0  0  0  0
    2.8356    0.5991   -0.1383 C   0  0  0  0  0  0  0  0  0  0  0  0
    1.3737   -1.3931    0.1890 C   0  0  0  0  0  0  0  0  0  0  0  0
    0.3444    0.8376    0.2473 C   0  0  0  0  0  0  0  0  0  0  0  0
    1.6624    1.4758    0.0075 C   0  0  0  0  0  0  0  0  0  0  0  0
   -2.2485   -0.7711    0.2014 C   0  0  0  0  0  0  0  0  0  0  0  0
    3.8200   -1.6083   -0.1916 C   0  0  0  0  0  0  0  0  0  0  0  0
    4.0966    1.1634   -0.3662 C   0  0  0  0  0  0  0  0  0  0  0  0
    5.0757   -1.0438   -0.4186 C   0  0  0  0  0  0  0  0  0  0  0  0
    5.2137    0.3398   -0.5057 C   0  0  0  0  0  0  0  0  0  0  0  0
   -3.3850   -1.1482    0.9687 C   0  0  0  0  0  0  0  0  0  0  0  0
   -2.5026    0.0159   -0.9555 C   0  0  0  0  0  0  0  0  0  0  0  0
   -4.8819    0.0051   -0.5365 C   0  0  0  0  0  0  0  0  0  0  0  0
   -4.6772   -0.7675    0.6066 C   0  0  0  0  0  0  0  0  0  0  0  0
   -3.7946    0.3969   -1.3176 C   0  0  0  0  0  0  0  0  0  0  0  0
   -6.2634    0.4123   -0.9234 C   0  0  0  0  0  0  0  0  0  0  0  0
   -0.8849    2.1019    1.7237 C   0  0  0  0  0  0  0  0  0  0  0  0
   -0.9060   -2.0407    1.0178 H   0  0  0  0  0  0  0  0  0  0  0  0
    3.7396   -2.6902   -0.1277 H   0  0  0  0  0  0  0  0  0  0  0  0
    4.2293    2.2396   -0.4381 H   0  0  0  0  0  0  0  0  0  0  0  0
    5.9464   -1.6839   -0.5275 H   0  0  0  0  0  0  0  0  0  0  0  0
    6.1919    0.7775   -0.6825 H   0  0  0  0  0  0  0  0  0  0  0  0
   -3.2471   -1.7508    1.8650 H   0  0  0  0  0  0  0  0  0  0  0  0
   -1.6897    0.3059   -1.6186 H   0  0  0  0  0  0  0  0  0  0  0  0
   -5.5164   -1.0802    1.2223 H   0  0  0  0  0  0  0  0  0  0  0  0
   -3.9428    0.9894   -2.2166 H   0  0  0  0  0  0  0  0  0  0  0  0
   -6.2597    1.3741   -1.4476 H   0  0  0  0  0  0  0  0  0  0  0  0
   -6.7078   -0.3428   -1.5792 H   0  0  0  0  0  0  0  0  0  0  0  0
   -6.9019    0.5311   -0.0414 H   0  0  0  0  0  0  0  0  0  0  0  0
   -0.0078    2.6367    2.1042 H   0  0  0  0  0  0  0  0  0  0  0  0
   -1.1022    1.2405    2.3648 H   0  0  0  0  0  0  0  0  0  0  0  0
   -1.7405    2.7819    1.7775 H   0  0  0  0  0  0  0  0  0  0  0  0
  1  9  1  0  0  0  0
  1 22  1  0  0  0  0
  2  8  2  0  0  0  0
  3 10  2  0  0  0  0
  4  6  1  0  0  0  0
  4 11  1  0  0  0  0
  4 23  1  0  0  0  0
  5  7  1  0  0  0  0
  5  8  1  0  0  0  0
  5 12  2  0  0  0  0
  6  8  1  0  0  0  0
  6  9  2  0  0  0  0
  7 10  1  0  0  0  0
  7 13  2  0  0  0  0
  9 10  1  0  0  0  0
 11 16  2  0  0  0  0
 11 17  1  0  0  0  0
 12 14  1  0  0  0  0
 12 24  1  0  0  0  0
 13 15  1  0  0  0  0
 13 25  1  0  0  0  0
 14 15  2  0  0  0  0
 14 26  1  0  0  0  0
 15 27  1  0  0  0  0
 16 19  1  0  0  0  0
 16 28  1  0  0  0  0
 17 20  2  0  0  0  0
 17 29  1  0  0  0  0
 18 19  2  0  0  0  0
 18 20  1  0  0  0  0
 18 21  1  0  0  0  0
 19 30  1  0  0  0  0
 20 31  1  0  0  0  0
 21 32  1  0  0  0  0
 21 33  1  0  0  0  0
 21 34  1  0  0  0  0
 22 35  1  0  0  0  0
 22 36  1  0  0  0  0
 22 37  1  0  0  0  0
M  END
> <PUBCHEM_COMPOUND_CID>
937080

> <PUBCHEM_CONFORMER_RMSD>
0.6

> <PUBCHEM_CONFORMER_DIVERSEORDER>
1
5
11
4
6
2
10
9
3
12
8
7

> <PUBCHEM_MMFF94_PARTIAL_CHARGES>
31
1 -0.36
10 0.47
11 0.1
12 -0.15
13 -0.15
14 -0.15
15 -0.15
16 -0.15
17 -0.15
18 -0.14
19 -0.15
2 -0.57
20 -0.15
21 0.14
22 0.28
23 0.4
24 0.15
25 0.15
26 0.15
27 0.15
28 0.15
29 0.15
3 -0.57
30 0.15
31 0.15
4 -0.6
5 0.09
6 0.11
7 0.09
8 0.47
9 0.09

> <PUBCHEM_EFFECTIVE_ROTOR_COUNT>
3

> <PUBCHEM_PHARMACOPHORE_FEATURES>
8
1 1 acceptor
1 2 acceptor
1 3 acceptor
1 4 cation
1 4 donor
6 11 16 17 18 19 20 rings
6 5 6 7 8 9 10 rings
6 5 7 12 13 14 15 rings

> <PUBCHEM_HEAVY_ATOM_COUNT>
22

> <PUBCHEM_ATOM_DEF_STEREO_COUNT>
0

> <PUBCHEM_ATOM_UDEF_STEREO_COUNT>
0

> <PUBCHEM_BOND_DEF_STEREO_COUNT>
0

> <PUBCHEM_BOND_UDEF_STEREO_COUNT>
0

> <PUBCHEM_ISOTOPIC_ATOM_COUNT>
0

> <PUBCHEM_COMPONENT_COUNT>
1

> <PUBCHEM_CACTVS_TAUTO_COUNT>
3

> <PUBCHEM_CONFORMER_ID>
000E4C7800000001

> <PUBCHEM_MMFF94_ENERGY>
84.0947

> <PUBCHEM_FEATURE_SELFOVERLAP>
40.623

> <PUBCHEM_SHAPE_FINGERPRINT>
10693767 8 18201434723487916454
11471102 20 18410292527354622663
12011746 2 18410864269902645230
12236239 1 17489871548793051187
12403259 415 18189057645283199545
12730499 353 18186522094740742883
12788726 201 17988929924679250209
13134695 92 17989200490523795145
13140716 1 17980481488581103120
13402501 40 18186238433408998015
14294032 229 16127546865888314177
14464042 87 18131074801098510393
15183329 4 18338230471674187189
15196674 1 18409169900281431402
16752209 62 18201716202368274696
17349148 13 18412266112462204338
19784866 140 18272370841160086855
200 152 18201719539578988513
20612939 158 18410013264402510445
20645477 70 18412825759354114694
21029758 11 18342740723852432448
21033648 29 18114457967566739417
21033650 10 15720805584868767206
21267235 1 18340217314744385510
21279426 13 18263079916276017182
21637258 2 15984831385498756094
21641784 216 18336563624298943692
21792961 116 18113909221466064514
221357 26 18409721851362048533
221490 88 18191312773686230146
22289505 5 18336259063756101620
23175994 123 18412267246439240593
23402539 116 17704075079611198393
23536379 177 16370721518031878850
23557571 272 13758089484169553779
23559900 14 18337387235748454240
23569914 152 17048511908593251981
2748010 2 17619923085754642912
2871803 45 18409731729628242070
29717793 49 17775289335055537782
3004659 81 17968095288246892170
335352 9 18409167727719277862
34934 24 18340763862375744542
3545911 37 18114180839782539583
3886686 26 11593878816095667598
4072396 5 18262503841520003626
5104073 3 18333732424706035337
7471813 234 17704067408473028257

> <PUBCHEM_SHAPE_MULTIPOLES>
430.16
11.69
2.11
1.05
5.79
0.44
-0.1
-1.28
3.71
-1.44
-0.51
0.98
0.26
0.31

> <PUBCHEM_SHAPE_SELFOVERLAP>
948.624

> <PUBCHEM_SHAPE_VOLUME>
230.1

> <PUBCHEM_COORDINATE_TYPE>
2
5
10

$$$$
