20860840
  -OEChem-01171812083D

 56 58  0     1  0  0  0  0  0999 V2000
   -1.2988   -3.1174   -0.2296 S   0  0  0  0  0  0  0  0  0  0  0  0
    2.1368    0.8033   -2.4269 F   0  0  0  0  0  0  0  0  0  0  0  0
    2.8798   -1.5312    0.9339 O   0  0  0  0  0  0  0  0  0  0  0  0
   -1.2377   -3.0735    1.2231 O   0  0  0  0  0  0  0  0  0  0  0  0
   -2.2295   -4.0121   -0.8999 O   0  0  0  0  0  0  0  0  0  0  0  0
   -3.7401   -1.5766    0.2355 O   0  0  0  0  0  0  0  0  0  0  0  0
   -3.1198    0.3396   -0.9203 N   0  0  0  0  0  0  0  0  0  0  0  0
    1.6564   -1.4029   -0.9639 N   0  0  0  0  0  0  0  0  0  0  0  0
   -4.3325    1.0896   -0.6929 C   0  0  1  0  0  0  0  0  0  0  0  0
   -4.0562    2.6017   -0.6533 C   0  0  0  0  0  0  0  0  0  0  0  0
   -3.5146    3.1150    0.6894 C   0  0  0  0  0  0  0  0  0  0  0  0
   -1.5721   -1.4834   -0.8246 C   0  0  0  0  0  0  0  0  0  0  0  0
    0.3339   -3.5071   -0.8201 C   0  0  0  0  0  0  0  0  0  0  0  0
   -5.3543    0.7573   -1.7765 C   0  0  0  0  0  0  0  0  0  0  0  0
   -2.9252   -0.9446   -0.4307 C   0  0  0  0  0  0  0  0  0  0  0  0
   -2.1741    2.5378    1.0686 C   0  0  0  0  0  0  0  0  0  0  0  0
    1.3456   -2.5542   -0.2869 C   0  0  0  0  0  0  0  0  0  0  0  0
    2.0863   -2.6362    0.8659 C   0  0  0  0  0  0  0  0  0  0  0  0
   -2.1073    1.3610    1.8145 C   0  0  0  0  0  0  0  0  0  0  0  0
   -1.0007    3.1804    0.6732 C   0  0  0  0  0  0  0  0  0  0  0  0
    2.5642   -0.8426   -0.1971 C   0  0  0  0  0  0  0  0  0  0  0  0
    2.1918   -3.6027    1.9643 C   0  0  0  0  0  0  0  0  0  0  0  0
    3.2739    0.3933   -0.3787 C   0  0  0  0  0  0  0  0  0  0  0  0
   -0.8674    0.8269    2.1652 C   0  0  0  0  0  0  0  0  0  0  0  0
    0.2391    2.6461    1.0238 C   0  0  0  0  0  0  0  0  0  0  0  0
    0.3057    1.4693    1.7698 C   0  0  0  0  0  0  0  0  0  0  0  0
    3.0314    1.1831   -1.5027 C   0  0  0  0  0  0  0  0  0  0  0  0
    4.2077    0.8030    0.5731 C   0  0  0  0  0  0  0  0  0  0  0  0
    3.7225    2.3826   -1.6745 C   0  0  0  0  0  0  0  0  0  0  0  0
    4.8988    2.0023    0.4011 C   0  0  0  0  0  0  0  0  0  0  0  0
    4.6564    2.7920   -0.7227 C   0  0  0  0  0  0  0  0  0  0  0  0
   -4.7638    0.7741    0.2652 H   0  0  0  0  0  0  0  0  0  0  0  0
   -3.3699    2.8829   -1.4628 H   0  0  0  0  0  0  0  0  0  0  0  0
   -4.9937    3.1420   -0.8388 H   0  0  0  0  0  0  0  0  0  0  0  0
   -3.4362    4.2092    0.6480 H   0  0  0  0  0  0  0  0  0  0  0  0
   -4.2406    2.9051    1.4856 H   0  0  0  0  0  0  0  0  0  0  0  0
   -1.4917   -1.5026   -1.9153 H   0  0  0  0  0  0  0  0  0  0  0  0
   -0.8109   -0.8230   -0.4061 H   0  0  0  0  0  0  0  0  0  0  0  0
   -2.4056    0.7516   -1.5143 H   0  0  0  0  0  0  0  0  0  0  0  0
    0.3061   -3.4773   -1.9138 H   0  0  0  0  0  0  0  0  0  0  0  0
    0.5541   -4.5339   -0.5127 H   0  0  0  0  0  0  0  0  0  0  0  0
   -6.2994    1.2814   -1.6002 H   0  0  0  0  0  0  0  0  0  0  0  0
   -5.5671   -0.3172   -1.8003 H   0  0  0  0  0  0  0  0  0  0  0  0
   -4.9851    1.0414   -2.7683 H   0  0  0  0  0  0  0  0  0  0  0  0
   -3.0124    0.8558    2.1406 H   0  0  0  0  0  0  0  0  0  0  0  0
   -1.0396    4.0966    0.0902 H   0  0  0  0  0  0  0  0  0  0  0  0
    1.5872   -4.4944    1.7743 H   0  0  0  0  0  0  0  0  0  0  0  0
    1.8474   -3.1545    2.9014 H   0  0  0  0  0  0  0  0  0  0  0  0
    3.2300   -3.9219    2.0979 H   0  0  0  0  0  0  0  0  0  0  0  0
   -0.8152   -0.0883    2.7476 H   0  0  0  0  0  0  0  0  0  0  0  0
    1.1526    3.1474    0.7180 H   0  0  0  0  0  0  0  0  0  0  0  0
    1.2694    1.0570    2.0518 H   0  0  0  0  0  0  0  0  0  0  0  0
    4.4248    0.2173    1.4627 H   0  0  0  0  0  0  0  0  0  0  0  0
    3.5331    2.9976   -2.5493 H   0  0  0  0  0  0  0  0  0  0  0  0
    5.6256    2.3219    1.1422 H   0  0  0  0  0  0  0  0  0  0  0  0
    5.1942    3.7260   -0.8564 H   0  0  0  0  0  0  0  0  0  0  0  0
  1  4  2  0  0  0  0
  1  5  2  0  0  0  0
  1 12  1  0  0  0  0
  1 13  1  0  0  0  0
  2 27  1  0  0  0  0
  3 18  1  0  0  0  0
  3 21  1  0  0  0  0
  6 15  2  0  0  0  0
  7  9  1  0  0  0  0
  7 15  1  0  0  0  0
  7 39  1  0  0  0  0
  8 17  1  0  0  0  0
  8 21  2  0  0  0  0
  9 10  1  0  0  0  0
  9 14  1  0  0  0  0
  9 32  1  0  0  0  0
 10 11  1  0  0  0  0
 10 33  1  0  0  0  0
 10 34  1  0  0  0  0
 11 16  1  0  0  0  0
 11 35  1  0  0  0  0
 11 36  1  0  0  0  0
 12 15  1  0  0  0  0
 12 37  1  0  0  0  0
 12 38  1  0  0  0  0
 13 17  1  0  0  0  0
 13 40  1  0  0  0  0
 13 41  1  0  0  0  0
 14 42  1  0  0  0  0
 14 43  1  0  0  0  0
 14 44  1  0  0  0  0
 16 19  2  0  0  0  0
 16 20  1  0  0  0  0
 17 18  2  0  0  0  0
 18 22  1  0  0  0  0
 19 24  1  0  0  0  0
 19 45  1  0  0  0  0
 20 25  2  0  0  0  0
 20 46  1  0  0  0  0
 21 23  1  0  0  0  0
 22 47  1  0  0  0  0
 22 48  1  0  0  0  0
 22 49  1  0  0  0  0
 23 27  1  0  0  0  0
 23 28  2  0  0  0  0
 24 26  2  0  0  0  0
 24 50  1  0  0  0  0
 25 26  1  0  0  0  0
 25 51  1  0  0  0  0
 26 52  1  0  0  0  0
 27 29  2  0  0  0  0
 28 30  1  0  0  0  0
 28 53  1  0  0  0  0
 29 31  1  0  0  0  0
 29 54  1  0  0  0  0
 30 31  2  0  0  0  0
 30 55  1  0  0  0  0
 31 56  1  0  0  0  0
M  END
> <PUBCHEM_COMPOUND_CID>
20860840

> <PUBCHEM_CONFORMER_RMSD>
1.6

> <PUBCHEM_CONFORMER_DIVERSEORDER>
2
3
47
68
91
25
32
48
42
7
21
9
53
67
18
15
27
72
88
64
87
65
35
49
44
8
66
86
76
93
77
5
96
61
6
31
60
11
62
29
97
46
83
33
89
82
38
36
17
80
16
43
95
40
26
39
85
52
59
22
28
56
54
55
34
30
1
24
94
92
12
70
79
84
50
90
58
69
23
63
73
45
51
14
75
20
74
10
41
57
13
37
19
81
71
4
78

> <PUBCHEM_MMFF94_PARTIAL_CHARGES>
39
1 1.09
11 0.14
12 0.17
13 0.29
15 0.57
16 -0.14
17 0.05
18 -0.04
19 -0.15
2 -0.19
20 -0.15
21 0.43
22 0.18
23 0.05
24 -0.15
25 -0.15
26 -0.15
27 0.19
28 -0.15
29 -0.15
3 -0.28
30 -0.15
31 -0.15
39 0.37
4 -0.65
45 0.15
46 0.15
5 -0.65
50 0.15
51 0.15
52 0.15
53 0.15
54 0.15
55 0.15
56 0.15
6 -0.57
7 -0.73
8 -0.57
9 0.3

> <PUBCHEM_EFFECTIVE_ROTOR_COUNT>
10

> <PUBCHEM_PHARMACOPHORE_FEATURES>
7
1 4 acceptor
1 5 acceptor
1 6 acceptor
1 7 donor
5 3 8 17 18 21 rings
6 16 19 20 24 25 26 rings
6 23 27 28 29 30 31 rings

> <PUBCHEM_HEAVY_ATOM_COUNT>
31

> <PUBCHEM_ATOM_DEF_STEREO_COUNT>
0

> <PUBCHEM_ATOM_UDEF_STEREO_COUNT>
1

> <PUBCHEM_BOND_DEF_STEREO_COUNT>
0

> <PUBCHEM_BOND_UDEF_STEREO_COUNT>
0

> <PUBCHEM_ISOTOPIC_ATOM_COUNT>
0

> <PUBCHEM_COMPONENT_COUNT>
1

> <PUBCHEM_CACTVS_TAUTO_COUNT>
2

> <PUBCHEM_CONFORMER_ID>
013E4FA800000002

> <PUBCHEM_MMFF94_ENERGY>
48.6943

> <PUBCHEM_FEATURE_SELFOVERLAP>
35.54

> <PUBCHEM_SHAPE_FINGERPRINT>
10673678 19 18264766555183360621
10675989 125 18124590877940458537
11135609 187 18341043056741418577
11370993 70 18409727339765789285
12156800 1 17979321438703591976
12166972 35 18122048811430693639
12788726 201 17846217726721386609
13560911 43 17972309616983121435
13583140 156 17533798008837690411
13617811 41 18337938057527251701
14068700 675 17768800979886556914
14114211 80 18058745688176785699
14117953 113 17114941094050710261
14725015 67 17764291139265432994
14790565 3 18128266592994363985
14931854 50 18272081699951999405
14932702 115 18129942394232019928
161222 10 18124908799903947292
17138139 8 17987498446592355621
17974551 9 15000474762399096031
17980427 23 18053368912839354162
19319366 153 18261668268143461459
20715895 44 17975682906031134501
20764821 26 17907852152290571207
21033650 10 17974870650759114102
23559900 14 17629198204415193844
238 59 18049744939508970184
3052486 1 18268699688258158552
338550 245 17765996095669937553
35225 105 17544815282566718231
394222 165 18260821592755630234
463206 1 18198345048283855937
469060 322 17827664730574845403
7226269 152 18051410970883431232

> <PUBCHEM_SHAPE_MULTIPOLES>
601.1
9.1
5.52
1.91
0.95
3.52
0.17
-6.78
-3.35
-0.14
0.7
-0.12
-0.36
-2.02

> <PUBCHEM_SHAPE_SELFOVERLAP>
1267.447

> <PUBCHEM_SHAPE_VOLUME>
340.3

> <PUBCHEM_COORDINATE_TYPE>
2
5
10

$$$$
