5960745
  -OEChem-01171811593D

 31 33  0     0  0  0  0  0  0999 V2000
    1.4474    1.8257   -2.7509 Cl  0  0  0  0  0  0  0  0  0  0  0  0
   -2.4931   -1.2371   -0.4460 S   0  0  0  0  0  0  0  0  0  0  0  0
   -0.4651    0.8219    0.1294 O   0  0  0  0  0  0  0  0  0  0  0  0
   -5.6300    0.5386    0.8317 O   0  0  0  0  0  0  0  0  0  0  0  0
    5.5153   -2.1340    0.6195 O   0  0  0  0  0  0  0  0  0  0  0  0
   -3.9630   -3.3267   -1.1055 O   0  0  0  0  0  0  0  0  0  0  0  0
    4.1627   -1.6599    2.3836 O   0  0  0  0  0  0  0  0  0  0  0  0
   -5.0193   -1.4867   -0.1382 N   0  0  0  0  0  0  0  0  0  0  0  0
    0.7012    1.5038    0.2232 C   0  0  0  0  0  0  0  0  0  0  0  0
    1.8662    0.7895   -0.2518 C   0  0  0  0  0  0  0  0  0  0  0  0
   -1.4272    1.6478    0.6178 C   0  0  0  0  0  0  0  0  0  0  0  0
    0.5090    2.7468    0.7603 C   0  0  0  0  0  0  0  0  0  0  0  0
    2.5746    0.0048    0.6583 C   0  0  0  0  0  0  0  0  0  0  0  0
   -0.8791    2.8439    1.0188 C   0  0  0  0  0  0  0  0  0  0  0  0
    2.2872    0.8697   -1.5793 C   0  0  0  0  0  0  0  0  0  0  0  0
   -2.7872    1.2654    0.6768 C   0  0  0  0  0  0  0  0  0  0  0  0
    3.7039   -0.6996    0.2409 C   0  0  0  0  0  0  0  0  0  0  0  0
   -3.3458    0.0820    0.2603 C   0  0  0  0  0  0  0  0  0  0  0  0
    3.4167    0.1653   -1.9964 C   0  0  0  0  0  0  0  0  0  0  0  0
    4.1249   -0.6194   -1.0863 C   0  0  0  0  0  0  0  0  0  0  0  0
   -4.7924   -0.2206    0.3676 C   0  0  0  0  0  0  0  0  0  0  0  0
    4.4442   -1.5167    1.1893 C   0  0  0  0  0  0  0  0  0  0  0  0
   -3.9513   -2.2047   -0.6232 C   0  0  0  0  0  0  0  0  0  0  0  0
    1.2649    3.4966    0.9462 H   0  0  0  0  0  0  0  0  0  0  0  0
    2.2442   -0.0567    1.6935 H   0  0  0  0  0  0  0  0  0  0  0  0
   -1.4051    3.6869    1.4453 H   0  0  0  0  0  0  0  0  0  0  0  0
   -3.4655    2.0035    1.1030 H   0  0  0  0  0  0  0  0  0  0  0  0
    3.7581    0.2169   -3.0273 H   0  0  0  0  0  0  0  0  0  0  0  0
    4.9982   -1.1508   -1.4537 H   0  0  0  0  0  0  0  0  0  0  0  0
   -5.9558   -1.8775   -0.1524 H   0  0  0  0  0  0  0  0  0  0  0  0
    6.0073   -2.6828    1.2670 H   0  0  0  0  0  0  0  0  0  0  0  0
  1 15  1  0  0  0  0
  2 18  1  0  0  0  0
  2 23  1  0  0  0  0
  3  9  1  0  0  0  0
  3 11  1  0  0  0  0
  4 21  2  0  0  0  0
  5 22  1  0  0  0  0
  5 31  1  0  0  0  0
  6 23  2  0  0  0  0
  7 22  2  0  0  0  0
  8 21  1  0  0  0  0
  8 23  1  0  0  0  0
  8 30  1  0  0  0  0
  9 10  1  0  0  0  0
  9 12  2  0  0  0  0
 10 13  1  0  0  0  0
 10 15  2  0  0  0  0
 11 14  2  0  0  0  0
 11 16  1  0  0  0  0
 12 14  1  0  0  0  0
 12 24  1  0  0  0  0
 13 17  2  0  0  0  0
 13 25  1  0  0  0  0
 14 26  1  0  0  0  0
 15 19  1  0  0  0  0
 16 18  2  0  0  0  0
 16 27  1  0  0  0  0
 17 20  1  0  0  0  0
 17 22  1  0  0  0  0
 18 21  1  0  0  0  0
 19 20  2  0  0  0  0
 19 28  1  0  0  0  0
 20 29  1  0  0  0  0
M  END
> <PUBCHEM_COMPOUND_CID>
5960745

> <PUBCHEM_CONFORMER_RMSD>
0.6

> <PUBCHEM_CONFORMER_DIVERSEORDER>
1
36
33
35
20
43
12
16
49
3
45
30
17
8
7
44
22
41
21
26
42
4
13
50
34
29
19
23
11
10
46
48
9
32
25
18
5
15
31
14
2
47
6
28
40
37
24
39
38
27

> <PUBCHEM_MMFF94_PARTIAL_CHARGES>
31
1 -0.18
10 0.05
11 0.09
12 -0.15
13 -0.15
14 -0.15
15 0.18
16 -0.11
17 0.09
18 0.12
19 -0.15
2 -0.24
20 -0.15
21 0.62
22 0.63
23 0.77
24 0.15
25 0.15
26 0.15
27 0.15
28 0.15
29 0.15
3 -0.28
30 0.37
31 0.5
4 -0.57
5 -0.65
6 -0.57
7 -0.57
8 -0.49
9 0.09

> <PUBCHEM_EFFECTIVE_ROTOR_COUNT>
3.4

> <PUBCHEM_PHARMACOPHORE_FEATURES>
9
1 3 acceptor
1 4 acceptor
1 5 acceptor
1 7 acceptor
1 8 donor
3 5 7 22 anion
5 2 8 18 21 23 rings
5 3 9 11 12 14 rings
6 10 13 15 17 19 20 rings

> <PUBCHEM_HEAVY_ATOM_COUNT>
23

> <PUBCHEM_ATOM_DEF_STEREO_COUNT>
0

> <PUBCHEM_ATOM_UDEF_STEREO_COUNT>
0

> <PUBCHEM_BOND_DEF_STEREO_COUNT>
1

> <PUBCHEM_BOND_UDEF_STEREO_COUNT>
0

> <PUBCHEM_ISOTOPIC_ATOM_COUNT>
0

> <PUBCHEM_COMPONENT_COUNT>
1

> <PUBCHEM_CACTVS_TAUTO_COUNT>
3

> <PUBCHEM_CONFORMER_ID>
005AF42900000001

> <PUBCHEM_MMFF94_ENERGY>
52.546

> <PUBCHEM_FEATURE_SELFOVERLAP>
45.73

> <PUBCHEM_SHAPE_FINGERPRINT>
10042902 136 18193281789360409486
10622 236 17751344093807234186
10928967 22 18123766502112758483
11578080 2 18042666365713728292
11720765 8 13913976009963192416
11796584 16 18412553114977357525
12236239 1 18187655656705496628
12363563 72 18130797792903546597
12410352 35 18407758118730069858
12553582 1 18272097093093266301
12596599 1 17702402782708017259
12633257 1 18129957757846449687
12788726 201 18339660948474779808
13583140 156 17343198759506237864
13726171 33 17698480871897940965
13828863 39 15624508381076234530
13911987 19 15865510201994039502
14178342 30 17843975740591292568
14251751 18 18335414664706633901
14251757 17 13984661434379163518
14480069 147 17749963270559275827
14848178 96 7853039146491953335
15003188 105 17621587745732076375
15342816 4 18340496654700409148
15420108 30 13651702315988839411
15537594 2 18335717064895964083
15728490 51 18411415121260572474
17349148 13 18260834765282962402
1813 80 18040722415837336294
20567600 9 8790340966014137026
20600515 1 17988927743036811225
20626108 58 18260261941326249900
21033648 29 15984831423779005835
221357 26 16153427233825720405
23366157 5 18050567640759055241
235170 7 15647052702867521251
23557571 272 17559970834885588156
23559900 14 17845948401811426165
25222932 49 17768811218677050183
3004659 81 18410022039020443117
312425 83 17096355302114438343
3411729 13 17773590718862461400
351380 3 18261112941598280298
44062 13 18410574007465246199
46194498 28 14707791591878160230
463206 1 18408322202750458811
5104073 3 17916312800325666947
559249 180 18262516966876672089
59025328 239 17604139394152605438
602551 16 18059862714385457970
6438754 60 16805875204586145096
6823239 73 17345495827653263644
7471813 234 17822297847206713156
7970288 3 18412259540952108643
9709674 26 17911522313957374827
9841814 1 18130516334806434321

> <PUBCHEM_SHAPE_MULTIPOLES>
444.72
11.5
3.03
1.84
4.62
0.26
-0.79
9.52
1.59
1.23
0.24
-2.37
-0.24
-2.97

> <PUBCHEM_SHAPE_SELFOVERLAP>
961.427

> <PUBCHEM_SHAPE_VOLUME>
246.3

> <PUBCHEM_COORDINATE_TYPE>
2
5
10

$$$$
