5389333
  -OEChem-01171811373D

 56 58  0     1  0  0  0  0  0999 V2000
   -0.6974   -2.0143    2.2972 O   0  0  0  0  0  0  0  0  0  0  0  0
    1.9173   -1.5078    1.4060 O   0  0  0  0  0  0  0  0  0  0  0  0
    1.8373    1.2701   -1.9408 O   0  0  0  0  0  0  0  0  0  0  0  0
   -1.2818   -0.4319    0.6324 N   0  0  0  0  0  0  0  0  0  0  0  0
   -4.7834   -1.4836   -0.1068 N   0  0  0  0  0  0  0  0  0  0  0  0
   -0.5757    3.7450    1.3645 N   0  0  0  0  0  0  0  0  0  0  0  0
   -0.5834    0.3946   -0.3607 C   0  0  2  0  0  0  0  0  0  0  0  0
   -2.7302   -0.4456    0.7221 C   0  0  0  0  0  0  0  0  0  0  0  0
    0.8589   -0.0057   -0.1866 C   0  0  0  0  0  0  0  0  0  0  0  0
   -3.3317   -1.4657   -0.2332 C   0  0  0  0  0  0  0  0  0  0  0  0
   -0.4593   -1.2270    1.4051 C   0  0  0  0  0  0  0  0  0  0  0  0
   -0.7964    1.8512   -0.1150 C   0  0  0  0  0  0  0  0  0  0  0  0
    0.9439   -0.9737    0.9252 C   0  0  0  0  0  0  0  0  0  0  0  0
    1.9295    0.3766   -0.8860 C   0  0  0  0  0  0  0  0  0  0  0  0
   -5.3404   -0.1538   -0.3625 C   0  0  0  0  0  0  0  0  0  0  0  0
   -5.3695   -2.4634   -1.0236 C   0  0  0  0  0  0  0  0  0  0  0  0
   -1.3880    2.6562   -1.0785 C   0  0  0  0  0  0  0  0  0  0  0  0
   -0.4108    2.4340    1.0784 C   0  0  0  0  0  0  0  0  0  0  0  0
    3.2969   -0.1220   -0.6255 C   0  0  0  0  0  0  0  0  0  0  0  0
   -6.8472   -0.1432   -0.1683 C   0  0  0  0  0  0  0  0  0  0  0  0
   -4.8055   -3.8525   -0.7764 C   0  0  0  0  0  0  0  0  0  0  0  0
   -1.5746    4.0098   -0.8211 C   0  0  0  0  0  0  0  0  0  0  0  0
    3.7365   -1.2563   -1.2830 C   0  0  0  0  0  0  0  0  0  0  0  0
    4.1026    0.5585    0.2692 C   0  0  0  0  0  0  0  0  0  0  0  0
   -1.1550    4.5007    0.4047 C   0  0  0  0  0  0  0  0  0  0  0  0
    5.0265   -1.7267   -1.0372 C   0  0  0  0  0  0  0  0  0  0  0  0
    5.3926    0.0881    0.5149 C   0  0  0  0  0  0  0  0  0  0  0  0
    5.8545   -1.0545   -0.1382 C   0  0  0  0  0  0  0  0  0  0  0  0
    7.2340   -1.5571    0.1236 C   0  0  0  0  0  0  0  0  0  0  0  0
   -0.9386    0.0832   -1.3503 H   0  0  0  0  0  0  0  0  0  0  0  0
   -3.0523    0.5799    0.5397 H   0  0  0  0  0  0  0  0  0  0  0  0
   -2.9999   -0.7055    1.7534 H   0  0  0  0  0  0  0  0  0  0  0  0
   -3.0236   -1.2450   -1.2637 H   0  0  0  0  0  0  0  0  0  0  0  0
   -2.8957   -2.4351    0.0321 H   0  0  0  0  0  0  0  0  0  0  0  0
   -5.0880    0.2148   -1.3645 H   0  0  0  0  0  0  0  0  0  0  0  0
   -4.9805    0.5786    0.3640 H   0  0  0  0  0  0  0  0  0  0  0  0
   -5.2153   -2.1854   -2.0738 H   0  0  0  0  0  0  0  0  0  0  0  0
   -6.4484   -2.5488   -0.8582 H   0  0  0  0  0  0  0  0  0  0  0  0
   -1.7090    2.2446   -2.0312 H   0  0  0  0  0  0  0  0  0  0  0  0
    0.0531    1.8631    1.8765 H   0  0  0  0  0  0  0  0  0  0  0  0
   -7.3787   -0.6286   -0.9926 H   0  0  0  0  0  0  0  0  0  0  0  0
   -7.1394   -0.6195    0.7739 H   0  0  0  0  0  0  0  0  0  0  0  0
   -7.2063    0.8918   -0.1348 H   0  0  0  0  0  0  0  0  0  0  0  0
   -3.7876   -3.9662   -1.1621 H   0  0  0  0  0  0  0  0  0  0  0  0
   -4.8170   -4.1138    0.2873 H   0  0  0  0  0  0  0  0  0  0  0  0
   -5.4195   -4.5946   -1.2996 H   0  0  0  0  0  0  0  0  0  0  0  0
   -2.0345    4.6599   -1.5565 H   0  0  0  0  0  0  0  0  0  0  0  0
    3.1004   -1.7876   -1.9858 H   0  0  0  0  0  0  0  0  0  0  0  0
    3.7531    1.4498    0.7833 H   0  0  0  0  0  0  0  0  0  0  0  0
    0.9023    1.4696   -2.1084 H   0  0  0  0  0  0  0  0  0  0  0  0
   -1.2780    5.5494    0.6545 H   0  0  0  0  0  0  0  0  0  0  0  0
    5.3756   -2.6169   -1.5536 H   0  0  0  0  0  0  0  0  0  0  0  0
    6.0288    0.6216    1.2161 H   0  0  0  0  0  0  0  0  0  0  0  0
    7.5539   -1.3202    1.1441 H   0  0  0  0  0  0  0  0  0  0  0  0
    7.2846   -2.6460    0.0171 H   0  0  0  0  0  0  0  0  0  0  0  0
    7.9391   -1.1026   -0.5793 H   0  0  0  0  0  0  0  0  0  0  0  0
  1 11  2  0  0  0  0
  2 13  2  0  0  0  0
  3 14  1  0  0  0  0
  3 50  1  0  0  0  0
  4  7  1  0  0  0  0
  4  8  1  0  0  0  0
  4 11  1  0  0  0  0
  5 10  1  0  0  0  0
  5 15  1  0  0  0  0
  5 16  1  0  0  0  0
  6 18  1  0  0  0  0
  6 25  2  0  0  0  0
  7  9  1  0  0  0  0
  7 12  1  0  0  0  0
  7 30  1  0  0  0  0
  8 10  1  0  0  0  0
  8 31  1  0  0  0  0
  8 32  1  0  0  0  0
  9 13  1  0  0  0  0
  9 14  2  0  0  0  0
 10 33  1  0  0  0  0
 10 34  1  0  0  0  0
 11 13  1  0  0  0  0
 12 17  1  0  0  0  0
 12 18  2  0  0  0  0
 14 19  1  0  0  0  0
 15 20  1  0  0  0  0
 15 35  1  0  0  0  0
 15 36  1  0  0  0  0
 16 21  1  0  0  0  0
 16 37  1  0  0  0  0
 16 38  1  0  0  0  0
 17 22  2  0  0  0  0
 17 39  1  0  0  0  0
 18 40  1  0  0  0  0
 19 23  2  0  0  0  0
 19 24  1  0  0  0  0
 20 41  1  0  0  0  0
 20 42  1  0  0  0  0
 20 43  1  0  0  0  0
 21 44  1  0  0  0  0
 21 45  1  0  0  0  0
 21 46  1  0  0  0  0
 22 25  1  0  0  0  0
 22 47  1  0  0  0  0
 23 26  1  0  0  0  0
 23 48  1  0  0  0  0
 24 27  2  0  0  0  0
 24 49  1  0  0  0  0
 25 51  1  0  0  0  0
 26 28  2  0  0  0  0
 26 52  1  0  0  0  0
 27 28  1  0  0  0  0
 27 53  1  0  0  0  0
 28 29  1  0  0  0  0
 29 54  1  0  0  0  0
 29 55  1  0  0  0  0
 29 56  1  0  0  0  0
M  END
> <PUBCHEM_COMPOUND_CID>
5389333

> <PUBCHEM_CONFORMER_RMSD>
0.8

> <PUBCHEM_CONFORMER_DIVERSEORDER>
1
11
4
24
17
22
27
5
21
20
19
6
3
25
2
23
8
14
16
12
15
10
7
18
9
13
26

> <PUBCHEM_MMFF94_PARTIAL_CHARGES>
36
1 -0.57
10 0.27
11 0.63
12 -0.14
13 0.56
14 0.05
15 0.27
16 0.27
17 -0.15
18 0.16
19 0.03
2 -0.57
22 -0.15
23 -0.15
24 -0.15
25 0.16
26 -0.15
27 -0.15
28 -0.14
29 0.14
3 -0.53
39 0.15
4 -0.66
40 0.15
47 0.15
48 0.15
49 0.15
5 -0.81
50 0.45
51 0.15
52 0.15
53 0.15
6 -0.62
7 0.58
8 0.3
9 -0.12

> <PUBCHEM_EFFECTIVE_ROTOR_COUNT>
7.4

> <PUBCHEM_PHARMACOPHORE_FEATURES>
8
1 1 acceptor
1 2 acceptor
1 3 donor
1 5 cation
1 6 acceptor
5 4 7 9 11 13 rings
6 19 23 24 26 27 28 rings
6 6 12 17 18 22 25 rings

> <PUBCHEM_HEAVY_ATOM_COUNT>
29

> <PUBCHEM_ATOM_DEF_STEREO_COUNT>
0

> <PUBCHEM_ATOM_UDEF_STEREO_COUNT>
1

> <PUBCHEM_BOND_DEF_STEREO_COUNT>
1

> <PUBCHEM_BOND_UDEF_STEREO_COUNT>
0

> <PUBCHEM_ISOTOPIC_ATOM_COUNT>
0

> <PUBCHEM_COMPONENT_COUNT>
1

> <PUBCHEM_CACTVS_TAUTO_COUNT>
3

> <PUBCHEM_CONFORMER_ID>
00523C1500000001

> <PUBCHEM_MMFF94_ENERGY>
69.7779

> <PUBCHEM_FEATURE_SELFOVERLAP>
40.6

> <PUBCHEM_SHAPE_FINGERPRINT>
10930396 42 18048568664664241848
11646440 116 18262249884271852673
12107698 1 18410292493817784764
12166972 35 17894912953368240156
12403260 363 18334017164617421980
12788726 201 18262513681015674819
12954195 1 18266462001406099772
12977781 61 17557436374863301542
13140716 1 17898033423460789330
13540713 5 17607236568084571698
13590594 115 18411145766513039225
13782708 43 17775289352784682862
14068700 675 18334294275443454940
14294032 229 17825105900798552189
14347332 77 18337668595098859402
14955137 171 18265071265748363939
15131766 46 16269649036387655008
15183329 4 16370719344330592966
15420108 30 17539689101782028788
16087824 20 18265332803999310173
16993089 31 16700916903527022934
17349148 13 18040440979837279174
192875 21 18041007254037222788
20775438 99 17329693831539627655
23402539 116 18410856572620007399
23557571 272 18342739576784804372
23559900 14 17896325882055826948
23929065 36 18265317452962774520
249057 3 18412542150849380543
25147074 1 17678170486945243818
255183 313 18053968172647009705
266924 1 17896877664445549522
283562 15 18334577893260478714
4017518 198 17261871569387830208
4280585 95 18341044198911984103
463206 1 18337674234053685687
5171179 24 18271800263604140113
57527295 17 17907600351638905037
5969126 39 18342451521844402108
59755656 215 18334857177857122439
59755656 520 18048319933627093260
6004065 56 18122902289766620806
7399639 24 18131058356111533544

> <PUBCHEM_SHAPE_MULTIPOLES>
564.26
13.92
4.44
1.41
4.56
4.77
0.25
-13.29
-2.95
-5.4
-0.16
0.23
-0.13
-0.39

> <PUBCHEM_SHAPE_SELFOVERLAP>
1203.503

> <PUBCHEM_SHAPE_VOLUME>
314.1

> <PUBCHEM_COORDINATE_TYPE>
2
5
10

$$$$
