4418086
  -OEChem-01171811563D

 39 41  0     0  0  0  0  0  0999 V2000
    2.1118   -0.3060    1.9484 O   0  0  0  0  0  0  0  0  0  0  0  0
   -0.0049    1.7162    1.5076 O   0  0  0  0  0  0  0  0  0  0  0  0
   -5.5334    0.4759   -0.7354 O   0  5  0  0  0  0  0  0  0  0  0  0
   -5.2351   -0.5434    1.1859 O   0  0  0  0  0  0  0  0  0  0  0  0
    2.4136   -3.2613    0.2833 N   0  0  0  0  0  0  0  0  0  0  0  0
    2.7024    3.0661   -0.0566 N   0  0  0  0  0  0  0  0  0  0  0  0
    2.6685   -2.5143    1.3843 N   0  0  0  0  0  0  0  0  0  0  0  0
    1.7474    3.1535    0.9003 N   0  0  0  0  0  0  0  0  0  0  0  0
   -4.7836   -0.0385    0.1295 N   0  3  0  0  0  0  0  0  0  0  0  0
    0.8456   -0.0839   -0.7707 C   0  0  0  0  0  0  0  0  0  0  0  0
    1.5075   -1.2673   -0.1809 C   0  0  0  0  0  0  0  0  0  0  0  0
    1.4747    1.2143   -0.3315 C   0  0  0  0  0  0  0  0  0  0  0  0
   -0.6606   -0.0717   -0.5293 C   0  0  0  0  0  0  0  0  0  0  0  0
    1.7521   -2.5050   -0.6468 C   0  0  0  0  0  0  0  0  0  0  0  0
    2.5138    1.9300   -0.7970 C   0  0  0  0  0  0  0  0  0  0  0  0
    2.1167   -1.2586    1.1873 C   0  0  0  0  0  0  0  0  0  0  0  0
    0.9492    2.0241    0.8135 C   0  0  0  0  0  0  0  0  0  0  0  0
   -1.4800    0.4941   -1.4818 C   0  0  0  0  0  0  0  0  0  0  0  0
   -1.1511   -0.6271    0.6328 C   0  0  0  0  0  0  0  0  0  0  0  0
    1.4207   -3.0771   -1.9786 C   0  0  0  0  0  0  0  0  0  0  0  0
    3.3921    1.6407   -1.9614 C   0  0  0  0  0  0  0  0  0  0  0  0
   -2.8574    0.5052   -1.2617 C   0  0  0  0  0  0  0  0  0  0  0  0
   -2.5285   -0.6160    0.8529 C   0  0  0  0  0  0  0  0  0  0  0  0
   -3.3816   -0.0499   -0.0943 C   0  0  0  0  0  0  0  0  0  0  0  0
    0.9858   -0.1519   -1.8589 H   0  0  0  0  0  0  0  0  0  0  0  0
    2.9252   -4.1036    0.0626 H   0  0  0  0  0  0  0  0  0  0  0  0
    3.2321    3.8645   -0.3760 H   0  0  0  0  0  0  0  0  0  0  0  0
   -1.0798    0.9298   -2.3923 H   0  0  0  0  0  0  0  0  0  0  0  0
   -0.5285   -1.0683    1.4018 H   0  0  0  0  0  0  0  0  0  0  0  0
    3.1605   -2.8967    2.1807 H   0  0  0  0  0  0  0  0  0  0  0  0
    1.7135    3.9324    1.5442 H   0  0  0  0  0  0  0  0  0  0  0  0
    2.3345   -3.3638   -2.5090 H   0  0  0  0  0  0  0  0  0  0  0  0
    0.8758   -2.3679   -2.6085 H   0  0  0  0  0  0  0  0  0  0  0  0
    0.7945   -3.9680   -1.8647 H   0  0  0  0  0  0  0  0  0  0  0  0
    3.3103    2.4364   -2.7089 H   0  0  0  0  0  0  0  0  0  0  0  0
    3.1320    0.6957   -2.4476 H   0  0  0  0  0  0  0  0  0  0  0  0
    4.4372    1.5733   -1.6423 H   0  0  0  0  0  0  0  0  0  0  0  0
   -3.4914    0.9553   -2.0213 H   0  0  0  0  0  0  0  0  0  0  0  0
   -2.9016   -1.0550    1.7747 H   0  0  0  0  0  0  0  0  0  0  0  0
  1 16  2  0  0  0  0
  2 17  2  0  0  0  0
  3  9  1  0  0  0  0
  4  9  2  0  0  0  0
  5  7  1  0  0  0  0
  5 14  1  0  0  0  0
  5 26  1  0  0  0  0
  6  8  1  0  0  0  0
  6 15  1  0  0  0  0
  6 27  1  0  0  0  0
  7 16  1  0  0  0  0
  7 30  1  0  0  0  0
  8 17  1  0  0  0  0
  8 31  1  0  0  0  0
  9 24  1  0  0  0  0
 10 11  1  0  0  0  0
 10 12  1  0  0  0  0
 10 13  1  0  0  0  0
 10 25  1  0  0  0  0
 11 14  2  0  0  0  0
 11 16  1  0  0  0  0
 12 15  2  0  0  0  0
 12 17  1  0  0  0  0
 13 18  2  0  0  0  0
 13 19  1  0  0  0  0
 14 20  1  0  0  0  0
 15 21  1  0  0  0  0
 18 22  1  0  0  0  0
 18 28  1  0  0  0  0
 19 23  2  0  0  0  0
 19 29  1  0  0  0  0
 20 32  1  0  0  0  0
 20 33  1  0  0  0  0
 20 34  1  0  0  0  0
 21 35  1  0  0  0  0
 21 36  1  0  0  0  0
 21 37  1  0  0  0  0
 22 24  2  0  0  0  0
 22 38  1  0  0  0  0
 23 24  1  0  0  0  0
 23 39  1  0  0  0  0
M  CHG  2   3  -1   9   1
M  END
> <PUBCHEM_COMPOUND_CID>
4418086

> <PUBCHEM_CONFORMER_RMSD>
0.8

> <PUBCHEM_CONFORMER_DIVERSEORDER>
1
5
12
8
4
10
7
3
14
6
11
9
2
13

> <PUBCHEM_MMFF94_PARTIAL_CHARGES>
32
1 -0.57
10 0.42
11 -0.12
12 -0.12
13 -0.14
14 -0.04
15 -0.04
16 0.62
17 0.62
18 -0.15
19 -0.15
2 -0.57
20 0.14
21 0.14
22 -0.15
23 -0.15
24 0.13
26 0.4
27 0.4
28 0.15
29 0.15
3 -0.52
30 0.37
31 0.37
38 0.15
39 0.15
4 -0.52
5 -0.52
6 -0.52
7 -0.41
8 -0.41
9 0.91

> <PUBCHEM_EFFECTIVE_ROTOR_COUNT>
4

> <PUBCHEM_PHARMACOPHORE_FEATURES>
12
1 1 acceptor
1 2 acceptor
1 3 acceptor
1 3 anion
1 4 acceptor
1 5 donor
1 6 donor
1 7 donor
1 8 donor
5 5 7 11 14 16 rings
5 6 8 12 15 17 rings
6 13 18 19 22 23 24 rings

> <PUBCHEM_HEAVY_ATOM_COUNT>
24

> <PUBCHEM_ATOM_DEF_STEREO_COUNT>
0

> <PUBCHEM_ATOM_UDEF_STEREO_COUNT>
0

> <PUBCHEM_BOND_DEF_STEREO_COUNT>
0

> <PUBCHEM_BOND_UDEF_STEREO_COUNT>
0

> <PUBCHEM_ISOTOPIC_ATOM_COUNT>
0

> <PUBCHEM_COMPONENT_COUNT>
1

> <PUBCHEM_CACTVS_TAUTO_COUNT>
15

> <PUBCHEM_CONFORMER_ID>
00436A2600000001

> <PUBCHEM_MMFF94_ENERGY>
83.5042

> <PUBCHEM_FEATURE_SELFOVERLAP>
64.216

> <PUBCHEM_SHAPE_FINGERPRINT>
10165383 225 18189911987298534852
11578080 2 16953984935422413369
12532896 13 17906451378961909332
12592029 89 17894914057602154584
12644460 14 18341343248857635043
12730499 353 18337964510013510371
12895836 83 17536896716231516684
12895837 130 16378634956795134940
13134695 92 18124286381711421540
13140716 1 18267294529308470416
13294875 104 18129088099619898872
13533116 47 18409450281033349515
13681431 1 18337672984486318550
14866123 147 16392671846036287091
14955137 171 18413103962103594954
15163728 17 16952567746791595932
15422964 175 17982448196454935791
16945 1 18189876717411662806
1813 80 18056202371336354518
19784866 9 18410853304345152064
20559304 39 18272650121450778641
20600515 1 17392733905552260012
20645477 70 18409163308102991175
21120745 212 17836096568001005982
21421861 104 18341063916890504145
21524375 3 18122343751102906004
23419403 2 17757510172337750940
23559900 14 17676487224958660095
3060560 45 18271529805075378252
31174 14 18334853905323683647
3729539 64 18190204389668650380
44802255 64 17028008611871305516
495365 180 18341320197715663185
5104073 3 18259992561694883313
5895379 119 17415857790352055953
633830 44 18057611073354291813
6442390 28 17975985580512288995
7364860 26 18410292510401639398
81228 2 17402607446781093326
8272917 22 18342182167650229951
9841814 1 18262238802861018587

> <PUBCHEM_SHAPE_MULTIPOLES>
445.53
7.19
3.46
1.72
13.07
0.66
-0.13
-0.57
-0.24
-5.16
-0.09
-0.78
0.22
-0.13

> <PUBCHEM_SHAPE_SELFOVERLAP>
982.101

> <PUBCHEM_SHAPE_VOLUME>
242.6

> <PUBCHEM_COORDINATE_TYPE>
2
5
10

$$$$
