2412448
  -OEChem-01171812103D

 37 39  0     0  0  0  0  0  0999 V2000
    0.1767    3.5951   -0.7891 S   0  0  0  0  0  0  0  0  0  0  0  0
   -0.0243    0.9842    0.0485 N   0  0  0  0  0  0  0  0  0  0  0  0
    2.1197    1.8764   -0.4271 N   0  0  0  0  0  0  0  0  0  0  0  0
   -2.0899   -0.3225   -0.1272 C   0  0  0  0  0  0  0  0  0  0  0  0
   -3.4853   -0.4051    0.0937 C   0  0  0  0  0  0  0  0  0  0  0  0
   -1.4038    0.8455    0.2437 C   0  0  0  0  0  0  0  0  0  0  0  0
   -1.4216   -1.4104   -0.7119 C   0  0  0  0  0  0  0  0  0  0  0  0
   -2.0836    1.9169    0.8236 C   0  0  0  0  0  0  0  0  0  0  0  0
   -4.1535    0.6828    0.6788 C   0  0  0  0  0  0  0  0  0  0  0  0
   -4.1714   -1.5731   -0.2772 C   0  0  0  0  0  0  0  0  0  0  0  0
   -3.4559    1.8356    1.0407 C   0  0  0  0  0  0  0  0  0  0  0  0
    2.9094    0.7172   -0.2233 C   0  0  0  0  0  0  0  0  0  0  0  0
   -2.1190   -2.5631   -1.0743 C   0  0  0  0  0  0  0  0  0  0  0  0
   -3.4913   -2.6442   -0.8574 C   0  0  0  0  0  0  0  0  0  0  0  0
    0.7525    2.0818   -0.3212 C   0  0  0  0  0  0  0  0  0  0  0  0
    3.2472   -1.3936    0.8606 C   0  0  0  0  0  0  0  0  0  0  0  0
    2.4696   -0.2531    0.6600 C   0  0  0  0  0  0  0  0  0  0  0  0
    4.1022    0.5833   -0.9121 C   0  0  0  0  0  0  0  0  0  0  0  0
    4.4523   -1.5456    0.1749 C   0  0  0  0  0  0  0  0  0  0  0  0
    4.8799   -0.5571   -0.7115 C   0  0  0  0  0  0  0  0  0  0  0  0
    2.7904   -2.4510    1.8079 C   0  0  0  0  0  0  0  0  0  0  0  0
   -0.3569   -1.4142   -0.9216 H   0  0  0  0  0  0  0  0  0  0  0  0
   -1.5776    2.7992    1.2002 H   0  0  0  0  0  0  0  0  0  0  0  0
   -5.2251    0.6398    0.8620 H   0  0  0  0  0  0  0  0  0  0  0  0
   -5.2442   -1.6586   -0.1171 H   0  0  0  0  0  0  0  0  0  0  0  0
    0.4245    0.1084   -0.1692 H   0  0  0  0  0  0  0  0  0  0  0  0
   -3.9822    2.6619    1.5099 H   0  0  0  0  0  0  0  0  0  0  0  0
   -1.5914   -3.3969   -1.5283 H   0  0  0  0  0  0  0  0  0  0  0  0
   -4.0338   -3.5416   -1.1404 H   0  0  0  0  0  0  0  0  0  0  0  0
    1.6124   -0.1277    1.3121 H   0  0  0  0  0  0  0  0  0  0  0  0
    2.6177    2.6440   -0.8736 H   0  0  0  0  0  0  0  0  0  0  0  0
    4.4433    1.3472   -1.6052 H   0  0  0  0  0  0  0  0  0  0  0  0
    5.0685   -2.4284    0.3232 H   0  0  0  0  0  0  0  0  0  0  0  0
    5.8184   -0.6753   -1.2453 H   0  0  0  0  0  0  0  0  0  0  0  0
    1.7043   -2.5821    1.7513 H   0  0  0  0  0  0  0  0  0  0  0  0
    3.0612   -2.1798    2.8331 H   0  0  0  0  0  0  0  0  0  0  0  0
    3.2428   -3.4206    1.5738 H   0  0  0  0  0  0  0  0  0  0  0  0
  1 15  2  0  0  0  0
  2  6  1  0  0  0  0
  2 15  1  0  0  0  0
  2 26  1  0  0  0  0
  3 12  1  0  0  0  0
  3 15  1  0  0  0  0
  3 31  1  0  0  0  0
  4  5  1  0  0  0  0
  4  6  1  0  0  0  0
  4  7  2  0  0  0  0
  5  9  1  0  0  0  0
  5 10  2  0  0  0  0
  6  8  2  0  0  0  0
  7 13  1  0  0  0  0
  7 22  1  0  0  0  0
  8 11  1  0  0  0  0
  8 23  1  0  0  0  0
  9 11  2  0  0  0  0
  9 24  1  0  0  0  0
 10 14  1  0  0  0  0
 10 25  1  0  0  0  0
 11 27  1  0  0  0  0
 12 17  1  0  0  0  0
 12 18  2  0  0  0  0
 13 14  2  0  0  0  0
 13 28  1  0  0  0  0
 14 29  1  0  0  0  0
 16 17  2  0  0  0  0
 16 19  1  0  0  0  0
 16 21  1  0  0  0  0
 17 30  1  0  0  0  0
 18 20  1  0  0  0  0
 18 32  1  0  0  0  0
 19 20  2  0  0  0  0
 19 33  1  0  0  0  0
 20 34  1  0  0  0  0
 21 35  1  0  0  0  0
 21 36  1  0  0  0  0
 21 37  1  0  0  0  0
M  END
> <PUBCHEM_COMPOUND_CID>
2412448

> <PUBCHEM_CONFORMER_RMSD>
0.6

> <PUBCHEM_CONFORMER_DIVERSEORDER>
1
49
12
54
51
23
25
50
55
9
56
40
42
24
27
10
5
59
43
29
17
39
52
3
45
30
18
37
44
8
16
31
41
38
20
6
7
60
53
47
22
4
36
11
46
26
34
32
48
2
58
28
14
57
19
33
35
21
15
13

> <PUBCHEM_MMFF94_PARTIAL_CHARGES>
32
1 -0.38
10 -0.15
11 -0.15
12 0.12
13 -0.15
14 -0.15
15 0.5
16 -0.14
17 -0.15
18 -0.15
19 -0.15
2 -0.55
20 -0.15
21 0.14
22 0.15
23 0.15
24 0.15
25 0.15
26 0.37
27 0.15
28 0.15
29 0.15
3 -0.55
30 0.15
31 0.37
32 0.15
33 0.15
34 0.15
6 0.12
7 -0.15
8 -0.15
9 -0.15

> <PUBCHEM_EFFECTIVE_ROTOR_COUNT>
4

> <PUBCHEM_PHARMACOPHORE_FEATURES>
6
1 1 acceptor
1 2 donor
1 3 donor
6 12 16 17 18 19 20 rings
6 4 5 6 8 9 11 rings
6 4 5 7 10 13 14 rings

> <PUBCHEM_HEAVY_ATOM_COUNT>
21

> <PUBCHEM_ATOM_DEF_STEREO_COUNT>
0

> <PUBCHEM_ATOM_UDEF_STEREO_COUNT>
0

> <PUBCHEM_BOND_DEF_STEREO_COUNT>
0

> <PUBCHEM_BOND_UDEF_STEREO_COUNT>
0

> <PUBCHEM_ISOTOPIC_ATOM_COUNT>
0

> <PUBCHEM_COMPONENT_COUNT>
1

> <PUBCHEM_CACTVS_TAUTO_COUNT>
3

> <PUBCHEM_CONFORMER_ID>
0024CFA000000001

> <PUBCHEM_MMFF94_ENERGY>
92.3377

> <PUBCHEM_FEATURE_SELFOVERLAP>
30.509

> <PUBCHEM_SHAPE_FINGERPRINT>
10062212 137 18343301496394487135
10369192 42 17056369419025133352
10616163 171 18343024406031136406
11578080 2 18193530411367713165
12553582 1 18334570222770556666
12633257 1 17917718958947868345
12788726 201 18201168749110440595
13167823 11 18410579491368135424
13583140 156 17967824859836279393
13692114 37 17687438201874480149
15099037 8 18269274732591558509
15375462 189 18260832562128107416
15403338 16 17171518771703554243
15420108 30 17840027335008247009
15442244 35 18340771536849501269
15537594 2 18261968366150380810
16752209 62 18201709652975892167
17349148 13 18060132155106535157
17492 89 18196373843078838183
17804303 29 18131633391533389097
17818456 19 18201167585238217641
1813 80 17748831812827309460
19141452 34 18341618074887854905
20261772 1 18339931419755424808
20291156 8 18410853291364849716
20600515 1 17917162610591737392
21033648 29 15985099674324578562
21634736 98 18266458900175909378
2255824 54 18045499978580968556
235170 7 15068345588041891634
23559900 14 17917711331202163848
23598288 3 17753322076554676208
23598291 2 18338242672858695285
23728640 28 18202004322229338139
339767 52 18339066155744465462
4283 87 18408037433549201210
4409770 3 18045493110659607549
463206 1 18260552259551101914
5104073 3 18201442514161965089
7064713 232 18058163921306704026
7097593 13 18339643446604341581
9709674 26 18193840576740759003
9981440 41 17185031111994407641

> <PUBCHEM_SHAPE_MULTIPOLES>
426.06
9.57
3.57
1.17
4.21
1.03
0.22
-4.41
0.12
-1.16
-0.51
0.26
-0.38
-2.42

> <PUBCHEM_SHAPE_SELFOVERLAP>
919.825

> <PUBCHEM_SHAPE_VOLUME>
234.8

> <PUBCHEM_COORDINATE_TYPE>
2
5
10

$$$$
