2448446
  -OEChem-01171811553D

 37 38  0     0  0  0  0  0  0999 V2000
    0.7992   -0.6592    0.1658 O   0  0  0  0  0  0  0  0  0  0  0  0
   -1.3911    0.3333    1.3945 O   0  0  0  0  0  0  0  0  0  0  0  0
    1.9690   -2.2183   -1.1021 O   0  0  0  0  0  0  0  0  0  0  0  0
    6.5534   -0.0858    0.0251 O   0  0  0  0  0  0  0  0  0  0  0  0
    3.3672    3.2324    0.1742 O   0  0  0  0  0  0  0  0  0  0  0  0
   -2.7072   -1.4743    0.7533 N   0  0  0  0  0  0  0  0  0  0  0  0
    2.7089    1.0524   -0.1343 N   0  0  0  0  0  0  0  0  0  0  0  0
    4.9684    1.5777    0.1014 N   0  0  0  0  0  0  0  0  0  0  0  0
    4.6956   -2.0407   -0.3482 N   0  0  0  0  0  0  0  0  0  0  0  0
   -3.9382   -1.0474    1.3779 C   0  0  0  0  0  0  0  0  0  0  0  0
   -4.7744   -0.2079    0.4559 C   0  0  0  0  0  0  0  0  0  0  0  0
    3.0158   -0.2780   -0.2682 C   0  0  0  0  0  0  0  0  0  0  0  0
    4.2753   -0.7473   -0.2271 C   0  0  0  0  0  0  0  0  0  0  0  0
   -0.4046   -1.4265    0.0753 C   0  0  0  0  0  0  0  0  0  0  0  0
   -1.5326   -0.7410    0.8167 C   0  0  0  0  0  0  0  0  0  0  0  0
   -4.6065    1.1718    0.4401 C   0  0  0  0  0  0  0  0  0  0  0  0
   -5.7085   -0.8186   -0.3726 C   0  0  0  0  0  0  0  0  0  0  0  0
    1.8727   -1.1812   -0.4631 C   0  0  0  0  0  0  0  0  0  0  0  0
    5.3735    0.2576   -0.0241 C   0  0  0  0  0  0  0  0  0  0  0  0
    3.6568    2.0415    0.0557 C   0  0  0  0  0  0  0  0  0  0  0  0
   -5.3837    1.9518   -0.4162 C   0  0  0  0  0  0  0  0  0  0  0  0
   -6.4857   -0.0387   -1.2290 C   0  0  0  0  0  0  0  0  0  0  0  0
   -6.3232    1.3466   -1.2507 C   0  0  0  0  0  0  0  0  0  0  0  0
   -3.7078   -0.4934    2.2957 H   0  0  0  0  0  0  0  0  0  0  0  0
   -4.4836   -1.9486    1.6803 H   0  0  0  0  0  0  0  0  0  0  0  0
   -2.7196   -2.3458    0.2312 H   0  0  0  0  0  0  0  0  0  0  0  0
   -0.2417   -2.4147    0.5207 H   0  0  0  0  0  0  0  0  0  0  0  0
   -0.6916   -1.5323   -0.9773 H   0  0  0  0  0  0  0  0  0  0  0  0
    1.7307    1.3239   -0.1779 H   0  0  0  0  0  0  0  0  0  0  0  0
   -3.8808    1.6561    1.0871 H   0  0  0  0  0  0  0  0  0  0  0  0
   -5.8421   -1.8968   -0.3651 H   0  0  0  0  0  0  0  0  0  0  0  0
    5.6970    2.2723    0.2394 H   0  0  0  0  0  0  0  0  0  0  0  0
   -5.2579    3.0305   -0.4327 H   0  0  0  0  0  0  0  0  0  0  0  0
   -7.2169   -0.5099   -1.8792 H   0  0  0  0  0  0  0  0  0  0  0  0
   -6.9284    1.9538   -1.9175 H   0  0  0  0  0  0  0  0  0  0  0  0
    4.0222   -2.7837   -0.4857 H   0  0  0  0  0  0  0  0  0  0  0  0
    5.6832   -2.2575   -0.2978 H   0  0  0  0  0  0  0  0  0  0  0  0
  1 14  1  0  0  0  0
  1 18  1  0  0  0  0
  2 15  2  0  0  0  0
  3 18  2  0  0  0  0
  4 19  2  0  0  0  0
  5 20  2  0  0  0  0
  6 10  1  0  0  0  0
  6 15  1  0  0  0  0
  6 26  1  0  0  0  0
  7 12  1  0  0  0  0
  7 20  1  0  0  0  0
  7 29  1  0  0  0  0
  8 19  1  0  0  0  0
  8 20  1  0  0  0  0
  8 32  1  0  0  0  0
  9 13  1  0  0  0  0
  9 36  1  0  0  0  0
  9 37  1  0  0  0  0
 10 11  1  0  0  0  0
 10 24  1  0  0  0  0
 10 25  1  0  0  0  0
 11 16  2  0  0  0  0
 11 17  1  0  0  0  0
 12 13  2  0  0  0  0
 12 18  1  0  0  0  0
 13 19  1  0  0  0  0
 14 15  1  0  0  0  0
 14 27  1  0  0  0  0
 14 28  1  0  0  0  0
 16 21  1  0  0  0  0
 16 30  1  0  0  0  0
 17 22  2  0  0  0  0
 17 31  1  0  0  0  0
 21 23  2  0  0  0  0
 21 33  1  0  0  0  0
 22 23  1  0  0  0  0
 22 34  1  0  0  0  0
 23 35  1  0  0  0  0
M  END
> <PUBCHEM_COMPOUND_CID>
2448446

> <PUBCHEM_CONFORMER_RMSD>
1

> <PUBCHEM_CONFORMER_DIVERSEORDER>
1
142
63
42
165
101
166
67
124
86
19
170
146
115
77
82
156
171
159
38
127
109
113
175
54
144
24
10
192
133
182
188
190
179
56
65
131
35
68
6
81
128
100
106
158
195
150
4
18
90
62
59
187
137
30
118
161
157
15
91
196
119
60
89
32
191
5
107
48
185
16
26
186
31
85
114
189
39
155
172
105
22
164
37
140
173
78
138
151
147
135
46
13
27
33
96
95
80
148
98
134
160
40
194
43
51
75
9
8
111
20
103
143
184
21
45
99
97
12
11
132
25
121
120
193
49
52
41
176
7
2
69
55
126
169
112
122
174
34
17
3
73
167
141
83
84
36
178
94
70
87
110
180
153
47
57
61
64
92
125
168
79
163
139
72
149
183
23
117
53
66
76
29
74
108
181
129
152
50
71
136
145
28
116
162
123
88
104
154
14
93
102
44
130
177
58

> <PUBCHEM_MMFF94_PARTIAL_CHARGES>
33
1 -0.43
10 0.44
11 -0.14
12 0.12
13 0.11
14 0.34
15 0.57
16 -0.15
17 -0.15
18 0.71
19 0.62
2 -0.57
20 0.69
21 -0.15
22 -0.15
23 -0.15
26 0.37
29 0.37
3 -0.57
30 0.15
31 0.15
32 0.37
33 0.15
34 0.15
35 0.15
36 0.4
37 0.4
4 -0.57
5 -0.57
6 -0.73
7 -0.54
8 -0.49
9 -0.9

> <PUBCHEM_EFFECTIVE_ROTOR_COUNT>
7

> <PUBCHEM_PHARMACOPHORE_FEATURES>
11
1 2 acceptor
1 3 acceptor
1 4 acceptor
1 5 acceptor
1 6 donor
1 7 donor
1 8 donor
1 9 cation
1 9 donor
6 11 16 17 21 22 23 rings
6 7 8 12 13 19 20 rings

> <PUBCHEM_HEAVY_ATOM_COUNT>
23

> <PUBCHEM_ATOM_DEF_STEREO_COUNT>
0

> <PUBCHEM_ATOM_UDEF_STEREO_COUNT>
0

> <PUBCHEM_BOND_DEF_STEREO_COUNT>
0

> <PUBCHEM_BOND_UDEF_STEREO_COUNT>
0

> <PUBCHEM_ISOTOPIC_ATOM_COUNT>
0

> <PUBCHEM_COMPONENT_COUNT>
1

> <PUBCHEM_CACTVS_TAUTO_COUNT>
36

> <PUBCHEM_CONFORMER_ID>
00255C3E00000001

> <PUBCHEM_MMFF94_ENERGY>
52.7765

> <PUBCHEM_FEATURE_SELFOVERLAP>
55.866

> <PUBCHEM_SHAPE_FINGERPRINT>
10763959 59 18334862727250047172
11089746 13 18334292067571717011
11545043 162 17603879934962132075
12596602 18 13912619267853336845
12633257 1 14634873084641446731
12778500 126 17168413879773801256
12838862 33 18272359915802866936
13402501 40 18334292063467043805
13878862 14 18338782512152415540
13941219 33 9367353652465772895
14251751 18 11167944675483276961
14251757 5 17059480989476134791
14251764 18 12251910291669836585
14251764 38 18409737248588137453
14528608 73 18342738528997290167
14556957 393 17203615874319658073
14739800 52 17822556253850611129
14950920 106 12685391634324240013
15003188 100 18410291441034098965
15183329 4 18335699421085981145
15510800 12 12678592310427267421
15537594 2 14045747006864122207
16110190 28 8502366746376457369
16989378 47 16342040688428279958
17780758 139 8430316853652630671
19489759 90 17676490566612151339
20157964 124 18413672404755834758
20281389 69 17894914005956759683
21033648 29 18041274473759092936
21054139 6 14908177542879264247
21315763 129 18408324419005752369
21521721 280 10881696723735120934
21709351 56 18343022224229688270
22289505 5 18411141338084881692
23081809 10 16630252415505183875
23559900 14 18411982459546697659
2838139 119 18408600358107371677
335352 9 18341899606764309494
4073 2 17968101974888720778
4325135 7 18131631188605309637
441001 317 18259704489431919707
465052 167 7781521421368905144
5283173 99 18335700512324321665
59755656 215 18408889508201150830
6328613 192 17749682873682192020
7226269 152 16370444445449459477

> <PUBCHEM_SHAPE_MULTIPOLES>
424.06
18.4
2.35
1.04
6.35
1.21
-0.04
5.25
3.95
-1.67
0.12
1.38
-0.16
1.46

> <PUBCHEM_SHAPE_SELFOVERLAP>
900.736

> <PUBCHEM_SHAPE_VOLUME>
232.1

> <PUBCHEM_COORDINATE_TYPE>
2
5
10

$$$$
