2131642
  -OEChem-01171811493D

 47 49  0     0  0  0  0  0  0999 V2000
    3.9755   -1.4278   -0.5127 S   0  0  0  0  0  0  0  0  0  0  0  0
    4.2277   -1.6287   -1.9231 O   0  0  0  0  0  0  0  0  0  0  0  0
    4.5102   -2.3359    0.4786 O   0  0  0  0  0  0  0  0  0  0  0  0
   -2.2342   -1.8088    0.7558 O   0  0  0  0  0  0  0  0  0  0  0  0
    2.2870   -1.2678   -0.2652 N   0  0  0  0  0  0  0  0  0  0  0  0
   -2.6766    0.3694   -0.0166 N   0  0  0  0  0  0  0  0  0  0  0  0
   -0.4253   -0.3611    0.2455 C   0  0  0  0  0  0  0  0  0  0  0  0
    0.3820   -1.1279    1.2936 C   0  0  0  0  0  0  0  0  0  0  0  0
    0.0617   -0.7003   -1.1642 C   0  0  0  0  0  0  0  0  0  0  0  0
    1.8787   -0.8906    1.1198 C   0  0  0  0  0  0  0  0  0  0  0  0
    1.5637   -0.4717   -1.2999 C   0  0  0  0  0  0  0  0  0  0  0  0
   -1.8786   -0.7015    0.3654 C   0  0  0  0  0  0  0  0  0  0  0  0
    4.5023    0.2046   -0.0963 C   0  0  0  0  0  0  0  0  0  0  0  0
    4.8417    0.4942    1.2154 C   0  0  0  0  0  0  0  0  0  0  0  0
    4.5673    1.1701   -1.0878 C   0  0  0  0  0  0  0  0  0  0  0  0
   -4.0904    0.4252   -0.0377 C   0  0  0  0  0  0  0  0  0  0  0  0
    5.2574    1.7844    1.5445 C   0  0  0  0  0  0  0  0  0  0  0  0
    4.9830    2.4603   -0.7587 C   0  0  0  0  0  0  0  0  0  0  0  0
   -4.7162    1.5888   -0.4536 C   0  0  0  0  0  0  0  0  0  0  0  0
   -4.8183   -0.6846    0.3580 C   0  0  0  0  0  0  0  0  0  0  0  0
    5.3281    2.7674    0.5574 C   0  0  0  0  0  0  0  0  0  0  0  0
   -6.1097    1.6438   -0.4744 C   0  0  0  0  0  0  0  0  0  0  0  0
   -6.2119   -0.6293    0.3370 C   0  0  0  0  0  0  0  0  0  0  0  0
   -6.8577    0.5348   -0.0792 C   0  0  0  0  0  0  0  0  0  0  0  0
   -8.3475    0.5930   -0.1018 C   0  0  0  0  0  0  0  0  0  0  0  0
   -0.2813    0.7124    0.4275 H   0  0  0  0  0  0  0  0  0  0  0  0
    0.1885   -2.2061    1.2154 H   0  0  0  0  0  0  0  0  0  0  0  0
    0.0743   -0.8265    2.3023 H   0  0  0  0  0  0  0  0  0  0  0  0
   -0.4690   -0.0922   -1.9069 H   0  0  0  0  0  0  0  0  0  0  0  0
   -0.1702   -1.7482   -1.3972 H   0  0  0  0  0  0  0  0  0  0  0  0
    2.0934    0.1657    1.3111 H   0  0  0  0  0  0  0  0  0  0  0  0
    2.4156   -1.5009    1.8531 H   0  0  0  0  0  0  0  0  0  0  0  0
    1.8690   -0.7842   -2.3033 H   0  0  0  0  0  0  0  0  0  0  0  0
    1.7835    0.5945   -1.1837 H   0  0  0  0  0  0  0  0  0  0  0  0
   -2.2110    1.2199   -0.3260 H   0  0  0  0  0  0  0  0  0  0  0  0
    4.7927   -0.2551    1.9995 H   0  0  0  0  0  0  0  0  0  0  0  0
    4.2999    0.9531   -2.1174 H   0  0  0  0  0  0  0  0  0  0  0  0
    5.5254    2.0239    2.5694 H   0  0  0  0  0  0  0  0  0  0  0  0
    5.0369    3.2261   -1.5269 H   0  0  0  0  0  0  0  0  0  0  0  0
   -4.1431    2.4583   -0.7630 H   0  0  0  0  0  0  0  0  0  0  0  0
   -4.3921   -1.6187    0.6930 H   0  0  0  0  0  0  0  0  0  0  0  0
    5.6513    3.7721    0.8137 H   0  0  0  0  0  0  0  0  0  0  0  0
   -6.6012    2.5572   -0.7991 H   0  0  0  0  0  0  0  0  0  0  0  0
   -6.7849   -1.4988    0.6490 H   0  0  0  0  0  0  0  0  0  0  0  0
   -8.7246    0.9399    0.8654 H   0  0  0  0  0  0  0  0  0  0  0  0
   -8.7052    1.2735   -0.8820 H   0  0  0  0  0  0  0  0  0  0  0  0
   -8.7779   -0.3915   -0.3141 H   0  0  0  0  0  0  0  0  0  0  0  0
  1  2  2  0  0  0  0
  1  3  2  0  0  0  0
  1  5  1  0  0  0  0
  1 13  1  0  0  0  0
  4 12  2  0  0  0  0
  5 10  1  0  0  0  0
  5 11  1  0  0  0  0
  6 12  1  0  0  0  0
  6 16  1  0  0  0  0
  6 35  1  0  0  0  0
  7  8  1  0  0  0  0
  7  9  1  0  0  0  0
  7 12  1  0  0  0  0
  7 26  1  0  0  0  0
  8 10  1  0  0  0  0
  8 27  1  0  0  0  0
  8 28  1  0  0  0  0
  9 11  1  0  0  0  0
  9 29  1  0  0  0  0
  9 30  1  0  0  0  0
 10 31  1  0  0  0  0
 10 32  1  0  0  0  0
 11 33  1  0  0  0  0
 11 34  1  0  0  0  0
 13 14  2  0  0  0  0
 13 15  1  0  0  0  0
 14 17  1  0  0  0  0
 14 36  1  0  0  0  0
 15 18  2  0  0  0  0
 15 37  1  0  0  0  0
 16 19  2  0  0  0  0
 16 20  1  0  0  0  0
 17 21  2  0  0  0  0
 17 38  1  0  0  0  0
 18 21  1  0  0  0  0
 18 39  1  0  0  0  0
 19 22  1  0  0  0  0
 19 40  1  0  0  0  0
 20 23  2  0  0  0  0
 20 41  1  0  0  0  0
 21 42  1  0  0  0  0
 22 24  2  0  0  0  0
 22 43  1  0  0  0  0
 23 24  1  0  0  0  0
 23 44  1  0  0  0  0
 24 25  1  0  0  0  0
 25 45  1  0  0  0  0
 25 46  1  0  0  0  0
 25 47  1  0  0  0  0
M  END
> <PUBCHEM_COMPOUND_CID>
2131642

> <PUBCHEM_CONFORMER_RMSD>
0.8

> <PUBCHEM_CONFORMER_DIVERSEORDER>
1
50
34
3
43
22
39
41
44
20
40
6
38
18
42
36
17
46
49
24
30
32
26
45
29
27
2
21
12
4
9
48
25
15
10
19
31
51
28
14
53
11
23
13
16
33
52
7
5
8
37
47
35

> <PUBCHEM_MMFF94_PARTIAL_CHARGES>
33
1 1.45
10 0.36
11 0.36
12 0.57
13 -0.01
14 -0.15
15 -0.15
16 0.12
17 -0.15
18 -0.15
19 -0.15
2 -0.65
20 -0.15
21 -0.15
22 -0.15
23 -0.15
24 -0.14
25 0.14
3 -0.65
35 0.37
36 0.15
37 0.15
38 0.15
39 0.15
4 -0.57
40 0.15
41 0.15
42 0.15
43 0.15
44 0.15
5 -0.85
6 -0.55
7 0.06

> <PUBCHEM_EFFECTIVE_ROTOR_COUNT>
6.2

> <PUBCHEM_PHARMACOPHORE_FEATURES>
7
1 2 acceptor
1 3 acceptor
1 4 acceptor
1 6 donor
6 13 14 15 17 18 21 rings
6 16 19 20 22 23 24 rings
6 5 7 8 9 10 11 rings

> <PUBCHEM_HEAVY_ATOM_COUNT>
25

> <PUBCHEM_ATOM_DEF_STEREO_COUNT>
0

> <PUBCHEM_ATOM_UDEF_STEREO_COUNT>
0

> <PUBCHEM_BOND_DEF_STEREO_COUNT>
0

> <PUBCHEM_BOND_UDEF_STEREO_COUNT>
0

> <PUBCHEM_ISOTOPIC_ATOM_COUNT>
0

> <PUBCHEM_COMPONENT_COUNT>
1

> <PUBCHEM_CACTVS_TAUTO_COUNT>
2

> <PUBCHEM_CONFORMER_ID>
002086BA00000001

> <PUBCHEM_MMFF94_ENERGY>
55.5853

> <PUBCHEM_FEATURE_SELFOVERLAP>
35.54

> <PUBCHEM_SHAPE_FINGERPRINT>
10 15 17458065992921273105
10554248 39 17703504385921323079
10638233 991 17060340738638328649
11719270 70 13695583339411001105
11761917 116 17058068160179320759
11796584 16 8430313545520536200
11991303 11 17632571686942477487
12236239 1 17749112158638979867
12422481 6 15647318715661240446
125118 31 18409167676079858825
13150687 139 15912773907947742836
13533116 47 18115025199845570306
13617811 41 14045743724902589409
13685833 64 9007062370181445913
13692114 37 17022908990615631723
13911987 19 17275111660442847791
14211702 104 10591745620149183845
14216079 64 9871754589932924761
14251757 52 18344145882770367721
14347332 77 11599741548837777795
14461889 52 18188212112373169443
14739800 52 18260817198666424537
15183329 4 14261351366882805785
15419008 145 17969204669678431504
15510800 12 10809878797172633432
17844677 252 18340210682897941257
1813 80 14045739309444074810
18222031 100 13470690347298271650
18335252 114 17846500348928982016
1979834 28 15502367916323412994
20157964 124 18343021081958083566
20281389 69 18114179701558222693
20397935 70 10737283545958164560
20511986 3 17531515509193741651
20567600 234 18041278854499303213
21150785 3 15841548600270130289
21315764 268 18260824852308721237
21521721 280 18273220798625450211
21641784 216 16702032954129772337
21792934 111 16371273447373447581
21859007 373 16950827125775185317
23016692 55 12247683776797988521
23081809 10 16343428319537043723
23424782 7 18200311143385009103
23522609 53 16056058916803136539
23559900 14 18336831905689709474
23569914 2 17687413075983651781
249057 3 18202003205854703630
2838139 119 18342164596565053736
2916195 48 18335137600935616841
3472631 163 18334858354788366044
34797466 226 18273219681596115703
4072396 5 15502373430644916466
4073 2 18041002894387344427
4093350 32 18060142015755529701
4340502 62 18040149625971603346
44317340 157 18272933829662790294
445580 126 18060410348939468792
445580 167 18341885330118866373
495365 180 18409731755778308722
5104073 3 17894632518068774209
5109719 28 18188503496050577625
5372103 7 16557327462361434416
59682541 52 17704076166032150670
653340 110 17751070319612154181
8509985 295 14923946769036645942
960060 61 13326861067227685968

> <PUBCHEM_SHAPE_MULTIPOLES>
490.77
20.27
2.3
1.29
28.79
0.77
0.09
10
-0.19
-3.65
-0.02
-1.87
-0.12
1.35

> <PUBCHEM_SHAPE_SELFOVERLAP>
1031.852

> <PUBCHEM_SHAPE_VOLUME>
275.9

> <PUBCHEM_COORDINATE_TYPE>
2
5
10

$$$$
