2744899
  -OEChem-01171811573D

 39 41  0     0  0  0  0  0  0999 V2000
    1.0332    0.7108   -2.4584 O   0  0  0  0  0  0  0  0  0  0  0  0
   -1.4886   -2.5398    1.9080 O   0  0  0  0  0  0  0  0  0  0  0  0
    1.1068    3.3148    0.6147 O   0  0  0  0  0  0  0  0  0  0  0  0
   -0.8612    2.3649    1.3077 O   0  0  0  0  0  0  0  0  0  0  0  0
   -2.1097   -0.9268    0.4883 N   0  0  0  0  0  0  0  0  0  0  0  0
   -3.4066   -1.0835    0.8411 N   0  0  0  0  0  0  0  0  0  0  0  0
    1.2279    1.6749   -1.4768 N   0  0  0  0  0  0  0  0  0  0  0  0
   -1.9451    0.0656   -0.4521 C   0  0  0  0  0  0  0  0  0  0  0  0
   -0.6891    0.5311   -1.0658 C   0  0  0  0  0  0  0  0  0  0  0  0
   -0.1156    0.0348   -2.2008 C   0  0  0  0  0  0  0  0  0  0  0  0
    0.1828    1.5470   -0.6545 C   0  0  0  0  0  0  0  0  0  0  0  0
   -3.1976    0.5536   -0.7324 C   0  0  0  0  0  0  0  0  0  0  0  0
   -1.1123   -1.6950    1.1013 C   0  0  0  0  0  0  0  0  0  0  0  0
    0.3375   -1.5709    0.8378 C   0  0  0  0  0  0  0  0  0  0  0  0
   -4.0555   -0.1905    0.0919 C   0  0  0  0  0  0  0  0  0  0  0  0
   -0.4693   -1.0283   -3.1525 C   0  0  0  0  0  0  0  0  0  0  0  0
    1.1117   -0.6919    1.5952 C   0  0  0  0  0  0  0  0  0  0  0  0
    0.9312   -2.3346   -0.1673 C   0  0  0  0  0  0  0  0  0  0  0  0
    3.0733   -1.3402    0.3424 C   0  0  0  0  0  0  0  0  0  0  0  0
    2.4795   -0.5765    1.3473 C   0  0  0  0  0  0  0  0  0  0  0  0
    2.2990   -2.2192   -0.4149 C   0  0  0  0  0  0  0  0  0  0  0  0
    0.0726    2.4088    0.4883 C   0  0  0  0  0  0  0  0  0  0  0  0
    4.5357   -1.2156    0.0773 C   0  0  0  0  0  0  0  0  0  0  0  0
    1.0594    4.2065    1.7343 C   0  0  0  0  0  0  0  0  0  0  0  0
   -3.4561    1.3378   -1.4296 H   0  0  0  0  0  0  0  0  0  0  0  0
   -5.1298   -0.1184    0.1820 H   0  0  0  0  0  0  0  0  0  0  0  0
   -0.9181   -0.5974   -4.0526 H   0  0  0  0  0  0  0  0  0  0  0  0
    0.4182   -1.5953   -3.4510 H   0  0  0  0  0  0  0  0  0  0  0  0
   -1.1858   -1.7330   -2.7197 H   0  0  0  0  0  0  0  0  0  0  0  0
    0.6600   -0.0961    2.3841 H   0  0  0  0  0  0  0  0  0  0  0  0
    0.3380   -3.0263   -0.7597 H   0  0  0  0  0  0  0  0  0  0  0  0
    3.0720    0.1111    1.9450 H   0  0  0  0  0  0  0  0  0  0  0  0
    2.7499   -2.8207   -1.1996 H   0  0  0  0  0  0  0  0  0  0  0  0
    4.7652   -1.4163   -0.9748 H   0  0  0  0  0  0  0  0  0  0  0  0
    4.8909   -0.2025    0.2946 H   0  0  0  0  0  0  0  0  0  0  0  0
    5.0919   -1.9240    0.6990 H   0  0  0  0  0  0  0  0  0  0  0  0
    0.1609    4.8284    1.6831 H   0  0  0  0  0  0  0  0  0  0  0  0
    1.9392    4.8538    1.6912 H   0  0  0  0  0  0  0  0  0  0  0  0
    1.0848    3.6385    2.6688 H   0  0  0  0  0  0  0  0  0  0  0  0
  1  7  1  0  0  0  0
  1 10  1  0  0  0  0
  2 13  2  0  0  0  0
  3 22  1  0  0  0  0
  3 24  1  0  0  0  0
  4 22  2  0  0  0  0
  5  6  1  0  0  0  0
  5  8  1  0  0  0  0
  5 13  1  0  0  0  0
  6 15  2  0  0  0  0
  7 11  2  0  0  0  0
  8  9  1  0  0  0  0
  8 12  2  0  0  0  0
  9 10  2  0  0  0  0
  9 11  1  0  0  0  0
 10 16  1  0  0  0  0
 11 22  1  0  0  0  0
 12 15  1  0  0  0  0
 12 25  1  0  0  0  0
 13 14  1  0  0  0  0
 14 17  2  0  0  0  0
 14 18  1  0  0  0  0
 15 26  1  0  0  0  0
 16 27  1  0  0  0  0
 16 28  1  0  0  0  0
 16 29  1  0  0  0  0
 17 20  1  0  0  0  0
 17 30  1  0  0  0  0
 18 21  2  0  0  0  0
 18 31  1  0  0  0  0
 19 20  2  0  0  0  0
 19 21  1  0  0  0  0
 19 23  1  0  0  0  0
 20 32  1  0  0  0  0
 21 33  1  0  0  0  0
 23 34  1  0  0  0  0
 23 35  1  0  0  0  0
 23 36  1  0  0  0  0
 24 37  1  0  0  0  0
 24 38  1  0  0  0  0
 24 39  1  0  0  0  0
M  END
> <PUBCHEM_COMPOUND_CID>
2744899

> <PUBCHEM_CONFORMER_RMSD>
0.8

> <PUBCHEM_CONFORMER_DIVERSEORDER>
5
25
14
19
30
20
18
6
24
29
17
32
16
7
4
36
28
2
34
35
27
8
26
15
23
3
31
22
33
13
1
9
11
21
10
12

> <PUBCHEM_MMFF94_PARTIAL_CHARGES>
29
1 -0.02
10 -0.04
11 0.2
12 -0.15
13 0.49
14 0.09
15 0.14
16 0.18
17 -0.15
18 -0.15
19 -0.14
2 -0.57
20 -0.15
21 -0.15
22 0.81
23 0.14
24 0.28
25 0.15
26 0.15
3 -0.43
30 0.15
31 0.15
32 0.15
33 0.15
4 -0.57
5 0.56
6 -0.71
7 -0.41
8 -0.15

> <PUBCHEM_EFFECTIVE_ROTOR_COUNT>
5

> <PUBCHEM_PHARMACOPHORE_FEATURES>
7
1 2 acceptor
1 4 acceptor
1 6 acceptor
1 7 acceptor
5 1 7 9 10 11 rings
5 5 6 8 12 15 rings
6 14 17 18 19 20 21 rings

> <PUBCHEM_HEAVY_ATOM_COUNT>
24

> <PUBCHEM_ATOM_DEF_STEREO_COUNT>
0

> <PUBCHEM_ATOM_UDEF_STEREO_COUNT>
0

> <PUBCHEM_BOND_DEF_STEREO_COUNT>
0

> <PUBCHEM_BOND_UDEF_STEREO_COUNT>
0

> <PUBCHEM_ISOTOPIC_ATOM_COUNT>
0

> <PUBCHEM_COMPONENT_COUNT>
1

> <PUBCHEM_CACTVS_TAUTO_COUNT>
1

> <PUBCHEM_CONFORMER_ID>
0029E24300000005

> <PUBCHEM_MMFF94_ENERGY>
52.9237

> <PUBCHEM_FEATURE_SELFOVERLAP>
35.533

> <PUBCHEM_SHAPE_FINGERPRINT>
10863032 1 17896053202671024270
11112241 14 17556845147236132176
11578080 2 17604686942068843453
12716301 132 16083860012223598157
12788726 201 18268160764314938712
13027679 85 18335138682919274245
13132413 78 18046624508630594701
13140716 1 17605577607097126795
14142880 1 17680985197973202772
14181834 199 17676784152885135119
14787075 74 18335414668869797542
14817 1 12580266042505700765
14863182 85 16960707633162157139
14955137 171 18338252487328562651
16945 1 18128235818941355163
17492 54 16588607343135277486
20510252 161 18043808684768125722
20600515 1 17822582620243644054
20691752 17 16081641300901543875
20905425 154 17609243459830336351
22149856 69 17821731668482045247
23402539 116 18114453462315435506
23419403 2 17898818439875709869
5845 1 9651695115291661292
5895379 119 17558854822700349897
70251023 43 17405107792168819687
81228 2 17828219704616034482

> <PUBCHEM_SHAPE_MULTIPOLES>
455.49
4.88
3.64
2.28
0.92
4.82
-1.53
-2.72
0.81
0.68
2.03
-0.19
-0.29
0.41

> <PUBCHEM_SHAPE_SELFOVERLAP>
996.208

> <PUBCHEM_SHAPE_VOLUME>
250

> <PUBCHEM_COORDINATE_TYPE>
2
5
10

$$$$
