660669
  -OEChem-01171812153D

 48 51  0     1  0  0  0  0  0999 V2000
    2.9142    4.0207   -0.7005 O   0  0  0  0  0  0  0  0  0  0  0  0
   -1.9998    0.4068   -0.1796 N   0  0  2  0  0  0  0  0  0  0  0  0
    3.6438   -2.8058    0.4053 N   0  0  0  0  0  0  0  0  0  0  0  0
    3.4783    0.1763    2.7048 N   0  0  0  0  0  0  0  0  0  0  0  0
    5.1468   -0.0960   -1.2987 N   0  0  0  0  0  0  0  0  0  0  0  0
    0.8197   -4.8890   -0.0477 N   0  0  0  0  0  0  0  0  0  0  0  0
    0.4392    0.0527    0.0894 C   0  0  1  0  0  0  0  0  0  0  0  0
    1.8452    0.4788   -0.4197 C   0  0  2  0  0  0  0  0  0  0  0  0
   -0.6785    0.9523   -0.5075 C   0  0  0  0  0  0  0  0  0  0  0  0
    2.9790   -0.4340    0.1824 C   0  0  0  0  0  0  0  0  0  0  0  0
    0.2004   -1.4207   -0.2275 C   0  0  0  0  0  0  0  0  0  0  0  0
    2.6005   -1.9305    0.1679 C   0  0  0  0  0  0  0  0  0  0  0  0
    2.1366    1.9772   -0.2808 C   0  0  0  0  0  0  0  0  0  0  0  0
   -2.1839   -0.8955   -0.8289 C   0  0  0  0  0  0  0  0  0  0  0  0
    1.3255   -2.3446   -0.0459 C   0  0  0  0  0  0  0  0  0  0  0  0
   -1.0127   -1.8207   -0.6619 C   0  0  0  0  0  0  0  0  0  0  0  0
   -3.0641    1.3311   -0.5664 C   0  0  0  0  0  0  0  0  0  0  0  0
    3.2591   -0.0916    1.5976 C   0  0  0  0  0  0  0  0  0  0  0  0
    4.1966   -0.2441   -0.6497 C   0  0  0  0  0  0  0  0  0  0  0  0
    1.6993    2.8140    0.7556 C   0  0  0  0  0  0  0  0  0  0  0  0
    2.8676    2.7369   -1.1434 C   0  0  0  0  0  0  0  0  0  0  0  0
   -4.4068    0.7874   -0.1634 C   0  0  0  0  0  0  0  0  0  0  0  0
    1.0460   -3.7512   -0.0468 C   0  0  0  0  0  0  0  0  0  0  0  0
    2.2007    4.0591    0.4555 C   0  0  0  0  0  0  0  0  0  0  0  0
   -5.1137   -0.0174   -1.0475 C   0  0  0  0  0  0  0  0  0  0  0  0
   -4.9238    1.0961    1.0882 C   0  0  0  0  0  0  0  0  0  0  0  0
   -6.3592   -0.5220   -0.6737 C   0  0  0  0  0  0  0  0  0  0  0  0
   -6.1693    0.5913    1.4620 C   0  0  0  0  0  0  0  0  0  0  0  0
   -6.8869   -0.2177    0.5810 C   0  0  0  0  0  0  0  0  0  0  0  0
    0.4028    0.1592    1.1838 H   0  0  0  0  0  0  0  0  0  0  0  0
    1.8315    0.2965   -1.5096 H   0  0  0  0  0  0  0  0  0  0  0  0
   -0.6099    1.9573   -0.0822 H   0  0  0  0  0  0  0  0  0  0  0  0
   -0.5565    1.0524   -1.5952 H   0  0  0  0  0  0  0  0  0  0  0  0
   -2.3687   -0.7925   -1.9059 H   0  0  0  0  0  0  0  0  0  0  0  0
   -3.0275   -1.4260   -0.3748 H   0  0  0  0  0  0  0  0  0  0  0  0
   -1.2065   -2.8554   -0.9309 H   0  0  0  0  0  0  0  0  0  0  0  0
   -3.0510    1.5364   -1.6459 H   0  0  0  0  0  0  0  0  0  0  0  0
   -2.9179    2.3025   -0.0757 H   0  0  0  0  0  0  0  0  0  0  0  0
    1.1047    2.5655    1.6229 H   0  0  0  0  0  0  0  0  0  0  0  0
    3.3923    2.5438   -2.0677 H   0  0  0  0  0  0  0  0  0  0  0  0
    4.5651   -2.4488    0.6255 H   0  0  0  0  0  0  0  0  0  0  0  0
    3.4840   -3.8048    0.4267 H   0  0  0  0  0  0  0  0  0  0  0  0
    2.1447    5.0238    0.9383 H   0  0  0  0  0  0  0  0  0  0  0  0
   -4.7267   -0.2497   -2.0355 H   0  0  0  0  0  0  0  0  0  0  0  0
   -4.3728    1.7236    1.7832 H   0  0  0  0  0  0  0  0  0  0  0  0
   -6.9200   -1.1486   -1.3611 H   0  0  0  0  0  0  0  0  0  0  0  0
   -6.5802    0.8279    2.4391 H   0  0  0  0  0  0  0  0  0  0  0  0
   -7.8570   -0.6100    0.8718 H   0  0  0  0  0  0  0  0  0  0  0  0
  1 21  1  0  0  0  0
  1 24  1  0  0  0  0
  2  9  1  0  0  0  0
  2 14  1  0  0  0  0
  2 17  1  0  0  0  0
  3 12  1  0  0  0  0
  3 41  1  0  0  0  0
  3 42  1  0  0  0  0
  4 18  3  0  0  0  0
  5 19  3  0  0  0  0
  6 23  3  0  0  0  0
  7  8  1  0  0  0  0
  7  9  1  0  0  0  0
  7 11  1  0  0  0  0
  7 30  1  0  0  0  0
  8 10  1  0  0  0  0
  8 13  1  0  0  0  0
  8 31  1  0  0  0  0
  9 32  1  0  0  0  0
  9 33  1  0  0  0  0
 10 12  1  0  0  0  0
 10 18  1  0  0  0  0
 10 19  1  0  0  0  0
 11 15  1  0  0  0  0
 11 16  2  0  0  0  0
 12 15  2  0  0  0  0
 13 20  1  0  0  0  0
 13 21  2  0  0  0  0
 14 16  1  0  0  0  0
 14 34  1  0  0  0  0
 14 35  1  0  0  0  0
 15 23  1  0  0  0  0
 16 36  1  0  0  0  0
 17 22  1  0  0  0  0
 17 37  1  0  0  0  0
 17 38  1  0  0  0  0
 20 24  2  0  0  0  0
 20 39  1  0  0  0  0
 21 40  1  0  0  0  0
 22 25  2  0  0  0  0
 22 26  1  0  0  0  0
 24 43  1  0  0  0  0
 25 27  1  0  0  0  0
 25 44  1  0  0  0  0
 26 28  2  0  0  0  0
 26 45  1  0  0  0  0
 27 29  2  0  0  0  0
 27 46  1  0  0  0  0
 28 29  1  0  0  0  0
 28 47  1  0  0  0  0
 29 48  1  0  0  0  0
M  END
> <PUBCHEM_COMPOUND_CID>
660669

> <PUBCHEM_CONFORMER_RMSD>
0.8

> <PUBCHEM_CONFORMER_DIVERSEORDER>
1
10
15
13
8
11
16
3
9
6
4
7
12
14
2
5

> <PUBCHEM_MMFF94_PARTIAL_CHARGES>
40
1 -0.28
10 0.54
11 -0.14
12 -0.04
13 -0.18
14 0.41
15 0.06
16 -0.29
17 0.41
18 0.36
19 0.36
2 -0.81
20 -0.15
21 -0.01
22 -0.14
23 0.49
24 -0.01
25 -0.15
26 -0.15
27 -0.15
28 -0.15
29 -0.15
3 -0.9
36 0.15
39 0.15
4 -0.56
40 0.15
41 0.4
42 0.4
43 0.15
44 0.15
45 0.15
46 0.15
47 0.15
48 0.15
5 -0.56
6 -0.56
7 0.14
8 0.18
9 0.27

> <PUBCHEM_EFFECTIVE_ROTOR_COUNT>
4

> <PUBCHEM_PHARMACOPHORE_FEATURES>
11
1 1 acceptor
1 2 cation
1 3 cation
1 3 donor
1 4 acceptor
1 5 acceptor
1 6 acceptor
5 1 13 20 21 24 rings
6 2 7 9 11 14 16 rings
6 22 25 26 27 28 29 rings
6 7 8 10 11 12 15 rings

> <PUBCHEM_HEAVY_ATOM_COUNT>
29

> <PUBCHEM_ATOM_DEF_STEREO_COUNT>
2

> <PUBCHEM_ATOM_UDEF_STEREO_COUNT>
0

> <PUBCHEM_BOND_DEF_STEREO_COUNT>
0

> <PUBCHEM_BOND_UDEF_STEREO_COUNT>
0

> <PUBCHEM_ISOTOPIC_ATOM_COUNT>
0

> <PUBCHEM_COMPONENT_COUNT>
1

> <PUBCHEM_CACTVS_TAUTO_COUNT>
2

> <PUBCHEM_CONFORMER_ID>
000A14BD00000001

> <PUBCHEM_MMFF94_ENERGY>
68.4022

> <PUBCHEM_FEATURE_SELFOVERLAP>
55.841

> <PUBCHEM_SHAPE_FINGERPRINT>
10165383 225 18188219817855988252
10366900 7 18113625568882665817
10411042 1 18121780522061824934
10483366 6 18339098042467927532
1100329 8 18339642343177145428
12107183 9 17622173361013356625
12166972 35 18202565055515372625
12553582 1 18338224982220640916
12596602 18 17132109157086876027
12616971 3 18201999941700280653
12730499 353 18263091049190171473
13140716 1 18337382867645024505
13782708 43 17241329045442127419
13785724 45 17838630954908532191
14790565 3 18267026240113447677
14849402 71 18410579525876287908
14955137 171 18338238167812417922
15081414 286 18341049610375319174
15475509 35 16732972111950277201
15475509 8 17987539038623435468
15927050 60 18124035895377315406
1601671 61 18408884010489764780
17980427 23 17841398683521388032
18785283 64 18334294292428235837
20028762 73 18271802454073994639
20465049 17 18337687381285195238
20739085 24 18055921991628798119
21033648 144 18115580586587936797
22149856 69 18200883980669735443
23558518 356 17982154914866069734
23559900 14 18409443657734920979
23845131 108 18192149511147089747
24771293 8 18201988950747068912
3178227 256 18408895030938100435
34797466 226 14692287396280276329
350125 39 18336548316908204708
38570 142 18196390305498716573
474 4 18411978083312632663
484989 97 18192447456869829594
5104073 3 18263080075922984931
5312544 6 18340486759501668005
53794403 172 18265055914754902924
57527358 35 15335984448542314088
57527573 199 17344327098633486248
9999458 23 18409171034226735580

> <PUBCHEM_SHAPE_MULTIPOLES>
566.03
12.62
4.48
1.31
24.69
0.95
0.65
-2.17
1.46
-6.21
-0.18
-0.44
-0.33
-0.88

> <PUBCHEM_SHAPE_SELFOVERLAP>
1240.928

> <PUBCHEM_SHAPE_VOLUME>
298.5

> <PUBCHEM_COORDINATE_TYPE>
2
5
10

$$$$
