1711910
  -OEChem-01171811523D

 31 31  0     0  0  0  0  0  0999 V2000
    5.0666   -1.3430    0.1340 F   0  0  0  0  0  0  0  0  0  0  0  0
    5.7223    0.5285    1.0377 F   0  0  0  0  0  0  0  0  0  0  0  0
    5.7209    0.3085   -1.1305 F   0  0  0  0  0  0  0  0  0  0  0  0
    3.3757    1.7208   -0.1827 O   0  0  0  0  0  0  0  0  0  0  0  0
   -5.2671    0.3997   -0.0358 N   0  0  0  0  0  0  0  0  0  0  0  0
    0.1738   -0.9624    0.0960 N   0  0  0  0  0  0  0  0  0  0  0  0
   -3.8994    0.0573   -0.0029 C   0  0  0  0  0  0  0  0  0  0  0  0
   -1.1875   -0.6216    0.0631 C   0  0  0  0  0  0  0  0  0  0  0  0
   -3.5177   -1.2774    0.1331 C   0  0  0  0  0  0  0  0  0  0  0  0
   -2.9285    1.0533   -0.1058 C   0  0  0  0  0  0  0  0  0  0  0  0
   -2.1650   -1.6160    0.1659 C   0  0  0  0  0  0  0  0  0  0  0  0
   -1.5757    0.7147   -0.0729 C   0  0  0  0  0  0  0  0  0  0  0  0
   -6.2440   -0.5299   -0.5673 C   0  0  0  0  0  0  0  0  0  0  0  0
   -5.7158    1.6802    0.4743 C   0  0  0  0  0  0  0  0  0  0  0  0
    1.2542   -0.1435    0.0103 C   0  0  0  0  0  0  0  0  0  0  0  0
    2.5426   -0.4994    0.0460 C   0  0  0  0  0  0  0  0  0  0  0  0
    3.6183    0.5235   -0.0581 C   0  0  0  0  0  0  0  0  0  0  0  0
    5.0263    0.0066   -0.0043 C   0  0  0  0  0  0  0  0  0  0  0  0
   -4.2483   -2.0757    0.2281 H   0  0  0  0  0  0  0  0  0  0  0  0
   -3.1932    2.1003   -0.2246 H   0  0  0  0  0  0  0  0  0  0  0  0
   -1.8819   -2.6602    0.2749 H   0  0  0  0  0  0  0  0  0  0  0  0
   -0.8701    1.5333   -0.1602 H   0  0  0  0  0  0  0  0  0  0  0  0
   -7.1729   -0.0149   -0.8370 H   0  0  0  0  0  0  0  0  0  0  0  0
   -6.4950   -1.2954    0.1744 H   0  0  0  0  0  0  0  0  0  0  0  0
   -5.8795   -1.0182   -1.4782 H   0  0  0  0  0  0  0  0  0  0  0  0
   -5.5390    2.4736   -0.2594 H   0  0  0  0  0  0  0  0  0  0  0  0
   -5.2095    1.9383    1.4114 H   0  0  0  0  0  0  0  0  0  0  0  0
   -6.7899    1.6653    0.6907 H   0  0  0  0  0  0  0  0  0  0  0  0
    0.3768   -1.9517    0.1975 H   0  0  0  0  0  0  0  0  0  0  0  0
    1.0224    0.9077   -0.0973 H   0  0  0  0  0  0  0  0  0  0  0  0
    2.8191   -1.5419    0.1532 H   0  0  0  0  0  0  0  0  0  0  0  0
  1 18  1  0  0  0  0
  2 18  1  0  0  0  0
  3 18  1  0  0  0  0
  4 17  2  0  0  0  0
  5  7  1  0  0  0  0
  5 13  1  0  0  0  0
  5 14  1  0  0  0  0
  6  8  1  0  0  0  0
  6 15  1  0  0  0  0
  6 29  1  0  0  0  0
  7  9  2  0  0  0  0
  7 10  1  0  0  0  0
  8 11  2  0  0  0  0
  8 12  1  0  0  0  0
  9 11  1  0  0  0  0
  9 19  1  0  0  0  0
 10 12  2  0  0  0  0
 10 20  1  0  0  0  0
 11 21  1  0  0  0  0
 12 22  1  0  0  0  0
 13 23  1  0  0  0  0
 13 24  1  0  0  0  0
 13 25  1  0  0  0  0
 14 26  1  0  0  0  0
 14 27  1  0  0  0  0
 14 28  1  0  0  0  0
 15 16  2  0  0  0  0
 15 30  1  0  0  0  0
 16 17  1  0  0  0  0
 16 31  1  0  0  0  0
 17 18  1  0  0  0  0
M  END
> <PUBCHEM_COMPOUND_CID>
1711910

> <PUBCHEM_CONFORMER_RMSD>
0.6

> <PUBCHEM_CONFORMER_DIVERSEORDER>
1
32
6
35
4
12
15
22
2
14
40
16
25
13
18
7
5
24
11
37
36
26
19
9
3
27
31
29
30
8
41
33
23
42
45
34
10
44
21
20
39
17
43
38
28

> <PUBCHEM_MMFF94_PARTIAL_CHARGES>
25
1 -0.34
10 -0.15
11 -0.15
12 -0.15
13 0.37
14 0.37
15 -0.05
16 -0.14
17 0.49
18 1.08
19 0.15
2 -0.34
20 0.15
21 0.15
22 0.15
29 0.4
3 -0.34
30 0.15
31 0.15
4 -0.57
5 -0.84
6 -0.6
7 0.1
8 0.1
9 -0.15

> <PUBCHEM_EFFECTIVE_ROTOR_COUNT>
5

> <PUBCHEM_PHARMACOPHORE_FEATURES>
5
1 4 acceptor
1 5 cation
1 6 cation
1 6 donor
6 7 8 9 10 11 12 rings

> <PUBCHEM_HEAVY_ATOM_COUNT>
18

> <PUBCHEM_ATOM_DEF_STEREO_COUNT>
0

> <PUBCHEM_ATOM_UDEF_STEREO_COUNT>
0

> <PUBCHEM_BOND_DEF_STEREO_COUNT>
1

> <PUBCHEM_BOND_UDEF_STEREO_COUNT>
0

> <PUBCHEM_ISOTOPIC_ATOM_COUNT>
0

> <PUBCHEM_COMPONENT_COUNT>
1

> <PUBCHEM_CACTVS_TAUTO_COUNT>
3

> <PUBCHEM_CONFORMER_ID>
001A1F2600000001

> <PUBCHEM_MMFF94_ENERGY>
60.6394

> <PUBCHEM_FEATURE_SELFOVERLAP>
25.372

> <PUBCHEM_SHAPE_FINGERPRINT>
11089746 13 18411694404806728573
117890 112 18342739598212083737
12107183 9 17613991894199589802
12236239 1 17748827418869666467
12390115 104 18127422159495311577
12596602 18 13767931216976360509
13167372 99 18341614767652273984
13533116 47 18262233318583596050
13955234 65 14779538007763242544
14251764 18 18260545620095748834
14251764 46 18334856130528134511
15048467 5 18342740672750720233
15196674 1 18337392754696961909
15778101 99 18201162049573765345
17834072 8 18272657840071258854
17834076 25 18040996250146367727
19489759 90 17346601859267695873
200 152 17561362885562835875
20281389 69 18187362121281394221
20645477 56 18334577932384669487
20645477 70 17489315122884800062
21267235 1 18337960082071247451
212847 35 18260269663993998364
23402539 116 18272365378315029981
23536379 177 18343301452975361307
23559900 14 18339921614519395120
300161 21 18408878538253354986
3004659 81 18408044018272188060
351380 180 18412261748564434700
3545911 37 18410013230179655646
4073 2 18041002894830462594
4214541 1 18409730672628515299
42788 4 18413388735171778275
5104073 3 18187928446978832184
542803 24 17530685415809827798
59755656 215 18340494378726626942
59755656 520 17530679931480138739

> <PUBCHEM_SHAPE_MULTIPOLES>
332.78
15.98
1.46
0.72
7.06
0.09
-0.02
2.82
-0.52
-0.93
0.1
0.28
0.05
-0.33

> <PUBCHEM_SHAPE_SELFOVERLAP>
686.021

> <PUBCHEM_SHAPE_VOLUME>
191.9

> <PUBCHEM_COORDINATE_TYPE>
2
5
10

$$$$
