5758789
  -OEChem-01171812133D

 53 56  0     0  0  0  0  0  0999 V2000
   -2.9585   -1.5181    1.2902 O   0  0  0  0  0  0  0  0  0  0  0  0
   -2.1195   -1.5554   -1.3587 O   0  0  0  0  0  0  0  0  0  0  0  0
    2.2503    0.2491    0.3425 O   0  0  0  0  0  0  0  0  0  0  0  0
   -6.1577   -1.2302   -1.2228 O   0  5  0  0  0  0  0  0  0  0  0  0
   -4.7420   -2.4889   -0.1135 O   0  0  0  0  0  0  0  0  0  0  0  0
   -4.3142    4.5148    0.2334 O   0  5  0  0  0  0  0  0  0  0  0  0
   -5.8672    3.5617   -0.9908 O   0  0  0  0  0  0  0  0  0  0  0  0
    4.5696    0.0423   -0.1614 N   0  0  0  0  0  0  0  0  0  0  0  0
    5.4560   -0.9949   -0.4428 N   0  0  0  0  0  0  0  0  0  0  0  0
   -5.1770   -1.3631   -0.4533 N   0  3  0  0  0  0  0  0  0  0  0  0
   -4.8828    3.4906   -0.2160 N   0  3  0  0  0  0  0  0  0  0  0  0
    3.3644   -1.8496   -0.0842 C   0  0  0  0  0  0  0  0  0  0  0  0
    4.7692   -2.1034   -0.4033 C   0  0  0  0  0  0  0  0  0  0  0  0
    0.9678   -2.4079    0.3685 C   0  0  0  0  0  0  0  0  0  0  0  0
    3.2516   -0.3865    0.0745 C   0  0  0  0  0  0  0  0  0  0  0  0
    2.3721   -2.7275    0.0436 C   0  0  0  0  0  0  0  0  0  0  0  0
    4.9517    1.3740   -0.1178 C   0  0  0  0  0  0  0  0  0  0  0  0
    0.0829   -2.1314   -0.6589 C   0  0  0  0  0  0  0  0  0  0  0  0
   -1.6649   -1.8097    0.9777 C   0  0  0  0  0  0  0  0  0  0  0  0
   -1.2440   -1.8300   -0.3520 C   0  0  0  0  0  0  0  0  0  0  0  0
    0.5680   -2.3926    1.6934 C   0  0  0  0  0  0  0  0  0  0  0  0
   -0.7590   -2.0908    2.0004 C   0  0  0  0  0  0  0  0  0  0  0  0
    5.3404   -3.4577   -0.6485 C   0  0  0  0  0  0  0  0  0  0  0  0
   -3.4497   -0.2827    0.9046 C   0  0  0  0  0  0  0  0  0  0  0  0
    4.0405    2.3816   -0.4536 C   0  0  0  0  0  0  0  0  0  0  0  0
    6.2524    1.7238    0.2619 C   0  0  0  0  0  0  0  0  0  0  0  0
   -4.5359   -0.1980    0.0507 C   0  0  0  0  0  0  0  0  0  0  0  0
   -2.8261    0.8515    1.3970 C   0  0  0  0  0  0  0  0  0  0  0  0
    4.4252    3.7217   -0.4101 C   0  0  0  0  0  0  0  0  0  0  0  0
    6.6369    3.0639    0.3056 C   0  0  0  0  0  0  0  0  0  0  0  0
   -5.0131    1.0584   -0.3229 C   0  0  0  0  0  0  0  0  0  0  0  0
   -4.3969    2.2113    0.1636 C   0  0  0  0  0  0  0  0  0  0  0  0
   -3.3036    2.1079    1.0236 C   0  0  0  0  0  0  0  0  0  0  0  0
    5.7233    4.0630   -0.0303 C   0  0  0  0  0  0  0  0  0  0  0  0
   -1.6101   -1.5972   -2.6903 C   0  0  0  0  0  0  0  0  0  0  0  0
    2.5636   -3.7891   -0.0932 H   0  0  0  0  0  0  0  0  0  0  0  0
    0.4681   -2.1625   -1.6727 H   0  0  0  0  0  0  0  0  0  0  0  0
    1.2648   -2.6100    2.4983 H   0  0  0  0  0  0  0  0  0  0  0  0
   -1.0805   -2.0766    3.0382 H   0  0  0  0  0  0  0  0  0  0  0  0
    4.8306   -3.9266   -1.4943 H   0  0  0  0  0  0  0  0  0  0  0  0
    5.2140   -4.0785    0.2426 H   0  0  0  0  0  0  0  0  0  0  0  0
    6.4069   -3.3799   -0.8773 H   0  0  0  0  0  0  0  0  0  0  0  0
    3.0342    2.1642   -0.7974 H   0  0  0  0  0  0  0  0  0  0  0  0
    6.9806    0.9638    0.5345 H   0  0  0  0  0  0  0  0  0  0  0  0
   -1.9813    0.7878    2.0764 H   0  0  0  0  0  0  0  0  0  0  0  0
    3.7173    4.4995   -0.6814 H   0  0  0  0  0  0  0  0  0  0  0  0
    7.6474    3.3299    0.6022 H   0  0  0  0  0  0  0  0  0  0  0  0
   -5.8654    1.1420   -0.9932 H   0  0  0  0  0  0  0  0  0  0  0  0
   -2.8003    2.9842    1.4241 H   0  0  0  0  0  0  0  0  0  0  0  0
    6.0232    5.1063    0.0016 H   0  0  0  0  0  0  0  0  0  0  0  0
   -1.2678   -2.6020   -2.9605 H   0  0  0  0  0  0  0  0  0  0  0  0
   -0.8399   -0.8353   -2.8517 H   0  0  0  0  0  0  0  0  0  0  0  0
   -2.4418   -1.3543   -3.3598 H   0  0  0  0  0  0  0  0  0  0  0  0
  1 19  1  0  0  0  0
  1 24  1  0  0  0  0
  2 20  1  0  0  0  0
  2 35  1  0  0  0  0
  3 15  2  0  0  0  0
  4 10  1  0  0  0  0
  5 10  2  0  0  0  0
  6 11  1  0  0  0  0
  7 11  2  0  0  0  0
  8  9  1  0  0  0  0
  8 15  1  0  0  0  0
  8 17  1  0  0  0  0
  9 13  2  0  0  0  0
 10 27  1  0  0  0  0
 11 32  1  0  0  0  0
 12 13  1  0  0  0  0
 12 15  1  0  0  0  0
 12 16  2  0  0  0  0
 13 23  1  0  0  0  0
 14 16  1  0  0  0  0
 14 18  2  0  0  0  0
 14 21  1  0  0  0  0
 16 36  1  0  0  0  0
 17 25  2  0  0  0  0
 17 26  1  0  0  0  0
 18 20  1  0  0  0  0
 18 37  1  0  0  0  0
 19 20  2  0  0  0  0
 19 22  1  0  0  0  0
 21 22  2  0  0  0  0
 21 38  1  0  0  0  0
 22 39  1  0  0  0  0
 23 40  1  0  0  0  0
 23 41  1  0  0  0  0
 23 42  1  0  0  0  0
 24 27  2  0  0  0  0
 24 28  1  0  0  0  0
 25 29  1  0  0  0  0
 25 43  1  0  0  0  0
 26 30  2  0  0  0  0
 26 44  1  0  0  0  0
 27 31  1  0  0  0  0
 28 33  2  0  0  0  0
 28 45  1  0  0  0  0
 29 34  2  0  0  0  0
 29 46  1  0  0  0  0
 30 34  1  0  0  0  0
 30 47  1  0  0  0  0
 31 32  2  0  0  0  0
 31 48  1  0  0  0  0
 32 33  1  0  0  0  0
 33 49  1  0  0  0  0
 34 50  1  0  0  0  0
 35 51  1  0  0  0  0
 35 52  1  0  0  0  0
 35 53  1  0  0  0  0
M  CHG  4   4  -1   6  -1  10   1  11   1
M  END
> <PUBCHEM_COMPOUND_CID>
5758789

> <PUBCHEM_CONFORMER_RMSD>
1

> <PUBCHEM_CONFORMER_DIVERSEORDER>
5
16
10
4
17
12
3
14
15
18
11
9
6
7
13
19
20
8
1
2

> <PUBCHEM_MMFF94_PARTIAL_CHARGES>
47
1 -0.17
10 0.91
11 0.91
12 0.03
13 0.37
14 0.03
15 0.62
16 -0.18
17 0.12
18 -0.15
19 0.08
2 -0.36
20 0.08
21 -0.15
22 -0.15
23 0.06
24 0.08
25 -0.15
26 -0.15
27 0.13
28 -0.15
29 -0.15
3 -0.57
30 -0.15
31 -0.15
32 0.13
33 -0.15
34 -0.15
35 0.28
36 0.15
37 0.15
38 0.15
39 0.15
4 -0.52
43 0.15
44 0.15
45 0.15
46 0.15
47 0.15
48 0.15
49 0.15
5 -0.52
50 0.15
6 -0.52
7 -0.52
8 -0.11
9 -0.51

> <PUBCHEM_EFFECTIVE_ROTOR_COUNT>
7.2

> <PUBCHEM_PHARMACOPHORE_FEATURES>
14
1 1 acceptor
1 2 acceptor
1 3 acceptor
1 4 acceptor
1 4 anion
1 5 acceptor
1 6 acceptor
1 6 anion
1 7 acceptor
1 9 acceptor
5 8 9 12 13 15 rings
6 14 18 19 20 21 22 rings
6 17 25 26 29 30 34 rings
6 24 27 28 31 32 33 rings

> <PUBCHEM_HEAVY_ATOM_COUNT>
35

> <PUBCHEM_ATOM_DEF_STEREO_COUNT>
0

> <PUBCHEM_ATOM_UDEF_STEREO_COUNT>
0

> <PUBCHEM_BOND_DEF_STEREO_COUNT>
1

> <PUBCHEM_BOND_UDEF_STEREO_COUNT>
0

> <PUBCHEM_ISOTOPIC_ATOM_COUNT>
0

> <PUBCHEM_COMPONENT_COUNT>
1

> <PUBCHEM_CACTVS_TAUTO_COUNT>
1

> <PUBCHEM_CONFORMER_ID>
0057DF4500000005

> <PUBCHEM_MMFF94_ENERGY>
149.084

> <PUBCHEM_FEATURE_SELFOVERLAP>
71.245

> <PUBCHEM_SHAPE_FINGERPRINT>
10920273 25 17196300617434029449
10928967 22 10302722504740489044
11101153 10 18411981390764446383
11331351 85 16743374350895797866
12422481 6 17313661668005812356
12633257 1 15792014553693810330
14251764 38 18410299098691677809
14429114 114 18411416249845551760
14739800 52 18113893832202507410
14790565 3 18411139134413322014
14950920 106 11602808108474746318
15289351 153 18410005568923416016
15320467 1 18194404617875180784
15419008 145 18261659434155207032
15575132 122 18272647953019607239
16112460 7 18334570261810968828
18608769 82 18123191474457937907
19053607 189 18411409644724272096
21033648 144 18269006430068944826
21033648 29 17023173925072001990
21049683 271 18127406968612379195
21223535 225 18413672422790168844
22122407 14 18336553702775958627
2838139 119 18409168779237302291
3472631 163 18050003295394150821
3552219 110 18059027189429794147
376196 1 18335143050869957450
4144715 1 18115038527746320714
4756261 7 17981364220652389505
5223283 242 17409952231652324527
550186 72 17760656166951792538
5951187 136 17766566755200593933
6036956 94 17902238041435425636
6371380 46 18188217494732328786
7288768 16 17968657241266754482

> <PUBCHEM_SHAPE_MULTIPOLES>
659.27
17.11
5.66
1.39
5.26
5.16
-0.2
14.14
-2.62
2.63
-0.32
-1.35
-0.87
0.33

> <PUBCHEM_SHAPE_SELFOVERLAP>
1456.421

> <PUBCHEM_SHAPE_VOLUME>
353.5

> <PUBCHEM_COORDINATE_TYPE>
2
5
10

$$$$
