660166
  -OEChem-01171811373D

 44 47  0     1  0  0  0  0  0999 V2000
    5.2841    2.3365    2.1426 F   0  0  0  0  0  0  0  0  0  0  0  0
   -0.8548   -1.5383    0.0463 O   0  0  0  0  0  0  0  0  0  0  0  0
   -1.6704    0.6237   -0.5294 N   0  0  0  0  0  0  0  0  0  0  0  0
   -1.2510    1.7673   -1.1088 N   0  0  0  0  0  0  0  0  0  0  0  0
    0.0186   -3.6489    0.4662 N   0  0  0  0  0  0  0  0  0  0  0  0
    3.4548   -3.6319   -0.6753 N   0  0  0  0  0  0  0  0  0  0  0  0
    1.6924   -0.5552   -1.0705 C   0  0  1  0  0  0  0  0  0  0  0  0
    0.4353    0.2326   -0.9949 C   0  0  0  0  0  0  0  0  0  0  0  0
   -0.6959   -0.3196   -0.4545 C   0  0  0  0  0  0  0  0  0  0  0  0
    0.0334    1.5191   -1.3981 C   0  0  0  0  0  0  0  0  0  0  0  0
    2.6470    0.2136   -0.2165 C   0  0  0  0  0  0  0  0  0  0  0  0
    1.4632   -1.9788   -0.5310 C   0  0  0  0  0  0  0  0  0  0  0  0
    0.2660   -2.3935   -0.0205 C   0  0  0  0  0  0  0  0  0  0  0  0
   -2.9870    0.4977   -0.0910 C   0  0  0  0  0  0  0  0  0  0  0  0
    0.8403    2.5534   -2.0680 C   0  0  0  0  0  0  0  0  0  0  0  0
    3.4529    1.1968   -0.7869 C   0  0  0  0  0  0  0  0  0  0  0  0
    2.7289   -0.0548    1.1485 C   0  0  0  0  0  0  0  0  0  0  0  0
   -3.2756   -0.3320    0.9857 C   0  0  0  0  0  0  0  0  0  0  0  0
   -3.9962    1.2031   -0.7351 C   0  0  0  0  0  0  0  0  0  0  0  0
    2.5635   -2.8923   -0.6106 C   0  0  0  0  0  0  0  0  0  0  0  0
    4.3442    1.9145    0.0106 C   0  0  0  0  0  0  0  0  0  0  0  0
    3.6202    0.6630    1.9462 C   0  0  0  0  0  0  0  0  0  0  0  0
    4.4278    1.6478    1.3773 C   0  0  0  0  0  0  0  0  0  0  0  0
   -4.5934   -0.4583    1.4249 C   0  0  0  0  0  0  0  0  0  0  0  0
   -5.3141    1.0768   -0.2958 C   0  0  0  0  0  0  0  0  0  0  0  0
   -5.6126    0.2461    0.7843 C   0  0  0  0  0  0  0  0  0  0  0  0
   -7.0216    0.1115    1.2544 C   0  0  0  0  0  0  0  0  0  0  0  0
    2.0382   -0.6184   -2.1102 H   0  0  0  0  0  0  0  0  0  0  0  0
    1.4536    3.0999   -1.3460 H   0  0  0  0  0  0  0  0  0  0  0  0
    1.4830    2.1175   -2.8383 H   0  0  0  0  0  0  0  0  0  0  0  0
    0.2000    3.2873   -2.5707 H   0  0  0  0  0  0  0  0  0  0  0  0
    3.4284    1.3947   -1.8541 H   0  0  0  0  0  0  0  0  0  0  0  0
    2.1033   -0.7922    1.6418 H   0  0  0  0  0  0  0  0  0  0  0  0
   -2.5149   -0.8593    1.5516 H   0  0  0  0  0  0  0  0  0  0  0  0
   -3.7963    1.8499   -1.5855 H   0  0  0  0  0  0  0  0  0  0  0  0
    4.9787    2.6759   -0.4334 H   0  0  0  0  0  0  0  0  0  0  0  0
    3.6818    0.4597    3.0113 H   0  0  0  0  0  0  0  0  0  0  0  0
    0.7417   -4.3563    0.4748 H   0  0  0  0  0  0  0  0  0  0  0  0
   -0.9046   -3.8598    0.8233 H   0  0  0  0  0  0  0  0  0  0  0  0
   -4.8124   -1.0981    2.2758 H   0  0  0  0  0  0  0  0  0  0  0  0
   -6.0999    1.6304   -0.8032 H   0  0  0  0  0  0  0  0  0  0  0  0
   -7.7279    0.2365    0.4267 H   0  0  0  0  0  0  0  0  0  0  0  0
   -7.2024   -0.8804    1.6823 H   0  0  0  0  0  0  0  0  0  0  0  0
   -7.2369    0.8669    2.0166 H   0  0  0  0  0  0  0  0  0  0  0  0
  1 23  1  0  0  0  0
  2  9  1  0  0  0  0
  2 13  1  0  0  0  0
  3  4  1  0  0  0  0
  3  9  1  0  0  0  0
  3 14  1  0  0  0  0
  4 10  2  0  0  0  0
  5 13  1  0  0  0  0
  5 38  1  0  0  0  0
  5 39  1  0  0  0  0
  6 20  3  0  0  0  0
  7  8  1  0  0  0  0
  7 11  1  0  0  0  0
  7 12  1  0  0  0  0
  7 28  1  0  0  0  0
  8  9  2  0  0  0  0
  8 10  1  0  0  0  0
 10 15  1  0  0  0  0
 11 16  2  0  0  0  0
 11 17  1  0  0  0  0
 12 13  2  0  0  0  0
 12 20  1  0  0  0  0
 14 18  2  0  0  0  0
 14 19  1  0  0  0  0
 15 29  1  0  0  0  0
 15 30  1  0  0  0  0
 15 31  1  0  0  0  0
 16 21  1  0  0  0  0
 16 32  1  0  0  0  0
 17 22  2  0  0  0  0
 17 33  1  0  0  0  0
 18 24  1  0  0  0  0
 18 34  1  0  0  0  0
 19 25  2  0  0  0  0
 19 35  1  0  0  0  0
 21 23  2  0  0  0  0
 21 36  1  0  0  0  0
 22 23  1  0  0  0  0
 22 37  1  0  0  0  0
 24 26  2  0  0  0  0
 24 40  1  0  0  0  0
 25 26  1  0  0  0  0
 25 41  1  0  0  0  0
 26 27  1  0  0  0  0
 27 42  1  0  0  0  0
 27 43  1  0  0  0  0
 27 44  1  0  0  0  0
M  END
> <PUBCHEM_COMPOUND_CID>
660166

> <PUBCHEM_CONFORMER_RMSD>
0.6

> <PUBCHEM_CONFORMER_DIVERSEORDER>
1
3
2
4

> <PUBCHEM_MMFF94_PARTIAL_CHARGES>
37
1 -0.19
10 0.11
11 -0.14
12 -0.07
13 0.18
14 -0.02
15 0.18
16 -0.15
17 -0.15
18 -0.15
19 -0.15
2 -0.14
20 0.49
21 -0.15
22 -0.15
23 0.19
24 -0.15
25 -0.15
26 -0.14
27 0.14
3 0.59
32 0.15
33 0.15
34 0.15
35 0.15
36 0.15
37 0.15
38 0.4
39 0.4
4 -0.71
40 0.15
41 0.15
5 -0.9
6 -0.56
7 0.46
8 -0.18
9 -0.09

> <PUBCHEM_EFFECTIVE_ROTOR_COUNT>
2.4

> <PUBCHEM_PHARMACOPHORE_FEATURES>
9
1 2 acceptor
1 4 acceptor
1 5 cation
1 5 donor
1 6 acceptor
5 3 4 8 9 10 rings
6 11 16 17 21 22 23 rings
6 14 18 19 24 25 26 rings
6 2 7 8 9 12 13 rings

> <PUBCHEM_HEAVY_ATOM_COUNT>
27

> <PUBCHEM_ATOM_DEF_STEREO_COUNT>
0

> <PUBCHEM_ATOM_UDEF_STEREO_COUNT>
1

> <PUBCHEM_BOND_DEF_STEREO_COUNT>
0

> <PUBCHEM_BOND_UDEF_STEREO_COUNT>
0

> <PUBCHEM_ISOTOPIC_ATOM_COUNT>
0

> <PUBCHEM_COMPONENT_COUNT>
1

> <PUBCHEM_CACTVS_TAUTO_COUNT>
2

> <PUBCHEM_CONFORMER_ID>
000A12C600000001

> <PUBCHEM_MMFF94_ENERGY>
78.7419

> <PUBCHEM_FEATURE_SELFOVERLAP>
45.771

> <PUBCHEM_SHAPE_FINGERPRINT>
10074138 170 17973986638477429874
10165383 225 18341900718812932484
10693767 8 8502384282559836417
11796584 16 15357710686268811755
12107698 1 16845303700465014752
12403259 226 17902233317134358686
12422481 6 18261376850459125266
12596602 18 17703798016209511723
12633257 1 18268974553190854640
12788726 201 15954168599580427172
13140716 1 18045507679182867797
13533116 47 18271534091837763787
13540713 4 18117550730493258429
13955234 65 18271525299850110090
14178342 30 18265334104160830998
14739800 52 17275095124565454026
14787075 74 18059850735764140217
14790565 3 17901684965669353308
14863182 85 18188506712790918639
14955137 171 18188503465990996916
15338160 23 17764014062989705488
17349148 13 18187086174344266645
17980427 23 18196645409650276541
1813 80 12179835079011474282
18785283 64 18412257308254254426
1979834 28 18408326592006204428
20511986 3 18273208691460477487
21033648 29 18412538816937017505
21049683 271 18266473005809197094
21130935 74 18340498777437776379
21452121 103 18410570648093886946
21475661 188 17417242285828590568
21859007 373 16878491351480750925
22149856 69 18191894300691557611
22182313 1 18115016390603337421
22224240 67 18340764940006393129
23559900 14 18042412322365121599
25222932 49 16951420990560311651
2748010 2 18116144476812096422
2838139 119 16487254404415725192
29717793 49 11602822424080408179
3380486 77 15936419922407832597
350125 39 18338238150811767038
4072396 5 17894629262446730637
427121 178 18343585157272025098
4340502 62 18343302582435527211
465052 167 17458348562861521121
474 4 17774716571075913145
484985 159 13774619383553376568
49207404 50 18335697209014163140
5104073 3 18264493888983977665
56616090 13 16701163339379907584
58807428 26 18334568075197621258
6004065 56 18336260267365315845
6442390 28 18271526515304690838
6823239 73 18041575632391624982
7288768 16 17055799871490092664
9709674 26 17968678076738636907
9841814 1 16878522188396480229

> <PUBCHEM_SHAPE_MULTIPOLES>
522.58
11.92
3.23
1.67
15.92
2.94
0.48
-4.59
6.96
-4.15
-0.81
-1.22
-0.95
2.04

> <PUBCHEM_SHAPE_SELFOVERLAP>
1167.506

> <PUBCHEM_SHAPE_VOLUME>
279.4

> <PUBCHEM_COORDINATE_TYPE>
2
5
10

$$$$
