2427312
  -OEChem-01171811413D

 33 35  0     0  0  0  0  0  0999 V2000
   -1.3790    2.9356    0.7257 O   0  0  0  0  0  0  0  0  0  0  0  0
   -1.6156    0.4072   -0.6777 N   0  0  0  0  0  0  0  0  0  0  0  0
    0.7176    1.0507   -0.6324 N   0  0  0  0  0  0  0  0  0  0  0  0
    1.0735   -1.6251    0.2902 N   0  0  0  0  0  0  0  0  0  0  0  0
   -3.6699   -0.7580   -0.5206 N   0  0  0  0  0  0  0  0  0  0  0  0
   -2.0496   -4.1081    0.7619 N   0  0  0  0  0  0  0  0  0  0  0  0
   -0.2856    0.1797   -0.4558 C   0  0  0  0  0  0  0  0  0  0  0  0
   -2.1730    1.6559   -1.1535 C   0  0  0  0  0  0  0  0  0  0  0  0
   -0.1438   -1.1209   -0.0111 C   0  0  0  0  0  0  0  0  0  0  0  0
   -2.3243   -0.7314   -0.3810 C   0  0  0  0  0  0  0  0  0  0  0  0
   -1.4329   -1.6986    0.0364 C   0  0  0  0  0  0  0  0  0  0  0  0
   -2.5436    2.5998   -0.0174 C   0  0  0  0  0  0  0  0  0  0  0  0
    1.9242    0.5478   -0.3331 C   0  0  0  0  0  0  0  0  0  0  0  0
    2.1013   -0.7798    0.1252 C   0  0  0  0  0  0  0  0  0  0  0  0
    3.0425    1.3632   -0.4785 C   0  0  0  0  0  0  0  0  0  0  0  0
    3.3873   -1.2256    0.4150 C   0  0  0  0  0  0  0  0  0  0  0  0
   -1.7720   -3.0237    0.4354 C   0  0  0  0  0  0  0  0  0  0  0  0
    4.3247    0.9026   -0.1846 C   0  0  0  0  0  0  0  0  0  0  0  0
    4.4977   -0.3971    0.2644 C   0  0  0  0  0  0  0  0  0  0  0  0
   -1.6794    3.8259    1.7915 C   0  0  0  0  0  0  0  0  0  0  0  0
   -1.4143    2.1227   -1.7937 H   0  0  0  0  0  0  0  0  0  0  0  0
   -3.0347    1.4451   -1.7937 H   0  0  0  0  0  0  0  0  0  0  0  0
   -2.9842    3.5120   -0.4357 H   0  0  0  0  0  0  0  0  0  0  0  0
   -3.2775    2.1280    0.6468 H   0  0  0  0  0  0  0  0  0  0  0  0
   -4.2215    0.0420   -0.8113 H   0  0  0  0  0  0  0  0  0  0  0  0
   -4.2079   -1.5933   -0.3105 H   0  0  0  0  0  0  0  0  0  0  0  0
    2.9251    2.3870   -0.8295 H   0  0  0  0  0  0  0  0  0  0  0  0
    3.5417   -2.2436    0.7685 H   0  0  0  0  0  0  0  0  0  0  0  0
    5.1811    1.5587   -0.3065 H   0  0  0  0  0  0  0  0  0  0  0  0
    5.4909   -0.7686    0.4971 H   0  0  0  0  0  0  0  0  0  0  0  0
   -0.7516    4.0488    2.3251 H   0  0  0  0  0  0  0  0  0  0  0  0
   -2.3819    3.3632    2.4915 H   0  0  0  0  0  0  0  0  0  0  0  0
   -2.0933    4.7621    1.4047 H   0  0  0  0  0  0  0  0  0  0  0  0
  1 12  1  0  0  0  0
  1 20  1  0  0  0  0
  2  7  1  0  0  0  0
  2  8  1  0  0  0  0
  2 10  1  0  0  0  0
  3  7  2  0  0  0  0
  3 13  1  0  0  0  0
  4  9  2  0  0  0  0
  4 14  1  0  0  0  0
  5 10  1  0  0  0  0
  5 25  1  0  0  0  0
  5 26  1  0  0  0  0
  6 17  3  0  0  0  0
  7  9  1  0  0  0  0
  8 12  1  0  0  0  0
  8 21  1  0  0  0  0
  8 22  1  0  0  0  0
  9 11  1  0  0  0  0
 10 11  2  0  0  0  0
 11 17  1  0  0  0  0
 12 23  1  0  0  0  0
 12 24  1  0  0  0  0
 13 14  1  0  0  0  0
 13 15  2  0  0  0  0
 14 16  2  0  0  0  0
 15 18  1  0  0  0  0
 15 27  1  0  0  0  0
 16 19  1  0  0  0  0
 16 28  1  0  0  0  0
 18 19  2  0  0  0  0
 18 29  1  0  0  0  0
 19 30  1  0  0  0  0
 20 31  1  0  0  0  0
 20 32  1  0  0  0  0
 20 33  1  0  0  0  0
M  END
> <PUBCHEM_COMPOUND_CID>
2427312

> <PUBCHEM_CONFORMER_RMSD>
0.6

> <PUBCHEM_CONFORMER_DIVERSEORDER>
1
8
2
7
5
4
3
6

> <PUBCHEM_MMFF94_PARTIAL_CHARGES>
26
1 -0.56
10 -0.07
11 0.02
12 0.28
13 0.31
14 0.31
15 -0.15
16 -0.15
17 0.54
18 -0.15
19 -0.15
2 0.05
20 0.28
25 0.4
26 0.4
27 0.15
28 0.15
29 0.15
3 -0.57
30 0.15
4 -0.57
5 -0.88
6 -0.56
7 0.11
8 0.26
9 0.26

> <PUBCHEM_EFFECTIVE_ROTOR_COUNT>
3

> <PUBCHEM_PHARMACOPHORE_FEATURES>
9
1 1 acceptor
1 4 acceptor
1 5 cation
1 5 donor
1 6 acceptor
3 2 3 7 cation
5 2 7 9 10 11 rings
6 13 14 15 16 18 19 rings
6 3 4 7 9 13 14 rings

> <PUBCHEM_HEAVY_ATOM_COUNT>
20

> <PUBCHEM_ATOM_DEF_STEREO_COUNT>
0

> <PUBCHEM_ATOM_UDEF_STEREO_COUNT>
0

> <PUBCHEM_BOND_DEF_STEREO_COUNT>
0

> <PUBCHEM_BOND_UDEF_STEREO_COUNT>
0

> <PUBCHEM_ISOTOPIC_ATOM_COUNT>
0

> <PUBCHEM_COMPONENT_COUNT>
1

> <PUBCHEM_CACTVS_TAUTO_COUNT>
3

> <PUBCHEM_CONFORMER_ID>
002509B000000001

> <PUBCHEM_MMFF94_ENERGY>
44.1942

> <PUBCHEM_FEATURE_SELFOVERLAP>
45.843

> <PUBCHEM_SHAPE_FINGERPRINT>
10382601 240 17116645341315748897
10616163 171 18335138752056041110
108231 29 17904768034896238978
10967382 1 18333725823520973502
1100329 8 18340775931150035161
11036077 51 18266740190506190290
11640471 11 17124792774186527553
11680986 33 17617931874476046055
12293681 160 18269533006524415893
12788726 201 18412252935481648843
13027679 85 18194681690673228901
13140716 1 18193279808615185723
14787075 74 17467634136553482692
14790565 3 18408605825711834165
15042514 8 18262240035738555195
15309172 13 18118403929999280036
15442244 35 18263637377862828346
15475509 84 17832457515294349275
16945 1 18261388991909814254
19591789 44 16898215236551064342
20510252 161 18411696565354633057
20739085 24 17469617213211844472
21029758 11 18341038735766006559
21267235 1 18333453149227748774
21524375 3 17984133756343727589
21731228 192 18194691362591426353
2334 1 17831019387606211639
23402539 116 18340757217824058839
23419403 2 16532232315303473862
23557571 272 18342181089602934996
23558518 356 18197785388459720095
23559900 14 18265043812190891380
23845131 108 18048327648126634089
2748010 2 18045221540035314527
283562 15 18338228272539875927
3091708 16 9272619691023260435
3421961 26 17108761289295578539
352729 6 18408601474187270255
474 4 17835237848818787329
5104073 3 18334568024301352184
58807428 26 17977380534403144162
6992083 37 18114186289637531372
7364860 26 17113826743458450327
81228 2 18339372923793982421
9709674 26 18411418414888805910

> <PUBCHEM_SHAPE_MULTIPOLES>
380.82
6.55
4.13
0.99
6.75
0.13
-0.21
-0.74
0.12
-4.95
-2.16
-0.53
-0.69
-0.55

> <PUBCHEM_SHAPE_SELFOVERLAP>
840.652

> <PUBCHEM_SHAPE_VOLUME>
203.1

> <PUBCHEM_COORDINATE_TYPE>
2
5
10

$$$$
