660323
  -OEChem-01171811373D

 34 34  0     0  0  0  0  0  0999 V2000
   -4.6180   -0.5147   -0.0101 F   0  0  0  0  0  0  0  0  0  0  0  0
   -3.2429   -2.2048    0.0245 F   0  0  0  0  0  0  0  0  0  0  0  0
   -3.3638   -0.9351   -1.7416 F   0  0  0  0  0  0  0  0  0  0  0  0
   -1.5175    2.2439    0.1218 F   0  0  0  0  0  0  0  0  0  0  0  0
   -3.6677    1.9137   -0.0180 F   0  0  0  0  0  0  0  0  0  0  0  0
   -2.3719    1.4299   -1.7020 F   0  0  0  0  0  0  0  0  0  0  0  0
    0.2878    1.0168    0.8812 O   0  0  0  0  0  0  0  0  0  0  0  0
    6.6998    0.3223    0.1563 O   0  0  0  0  0  0  0  0  0  0  0  0
   -1.0013   -0.5391   -0.2396 N   0  0  0  0  0  0  0  0  0  0  0  0
    1.2741   -0.6741   -0.4145 N   0  0  0  0  0  0  0  0  0  0  0  0
   -2.2904   -0.0215    0.1894 C   0  0  0  0  0  0  0  0  0  0  0  0
   -2.3842   -0.0682    1.7365 C   0  0  0  0  0  0  0  0  0  0  0  0
   -3.3870   -0.9252   -0.3898 C   0  0  0  0  0  0  0  0  0  0  0  0
   -2.4619    1.4018   -0.3520 C   0  0  0  0  0  0  0  0  0  0  0  0
   -2.2046   -1.4429    2.3702 C   0  0  0  0  0  0  0  0  0  0  0  0
    0.2085    0.0334    0.1490 C   0  0  0  0  0  0  0  0  0  0  0  0
    2.6579   -0.4199   -0.2696 C   0  0  0  0  0  0  0  0  0  0  0  0
    3.5695   -1.2403   -0.9138 C   0  0  0  0  0  0  0  0  0  0  0  0
    3.0732    0.6437    0.5150 C   0  0  0  0  0  0  0  0  0  0  0  0
    4.9341   -0.9903   -0.7693 C   0  0  0  0  0  0  0  0  0  0  0  0
    4.4378    0.8938    0.6593 C   0  0  0  0  0  0  0  0  0  0  0  0
    5.3684    0.0769    0.0170 C   0  0  0  0  0  0  0  0  0  0  0  0
   -1.6521    0.6095    2.1884 H   0  0  0  0  0  0  0  0  0  0  0  0
   -3.3611    0.3235    2.0503 H   0  0  0  0  0  0  0  0  0  0  0  0
   -0.9796   -1.3450   -0.8572 H   0  0  0  0  0  0  0  0  0  0  0  0
   -1.3261   -1.9680    1.9855 H   0  0  0  0  0  0  0  0  0  0  0  0
   -3.0877   -2.0729    2.2341 H   0  0  0  0  0  0  0  0  0  0  0  0
   -2.0711   -1.3294    3.4519 H   0  0  0  0  0  0  0  0  0  0  0  0
    1.0340   -1.4691   -1.0014 H   0  0  0  0  0  0  0  0  0  0  0  0
    3.2420   -2.0741   -1.5284 H   0  0  0  0  0  0  0  0  0  0  0  0
    2.4171    1.3194    1.0430 H   0  0  0  0  0  0  0  0  0  0  0  0
    5.6543   -1.6300   -1.2723 H   0  0  0  0  0  0  0  0  0  0  0  0
    4.7644    1.7283    1.2744 H   0  0  0  0  0  0  0  0  0  0  0  0
    6.8190    1.0965    0.7328 H   0  0  0  0  0  0  0  0  0  0  0  0
  1 13  1  0  0  0  0
  2 13  1  0  0  0  0
  3 13  1  0  0  0  0
  4 14  1  0  0  0  0
  5 14  1  0  0  0  0
  6 14  1  0  0  0  0
  7 16  2  0  0  0  0
  8 22  1  0  0  0  0
  8 34  1  0  0  0  0
  9 11  1  0  0  0  0
  9 16  1  0  0  0  0
  9 25  1  0  0  0  0
 10 16  1  0  0  0  0
 10 17  1  0  0  0  0
 10 29  1  0  0  0  0
 11 12  1  0  0  0  0
 11 13  1  0  0  0  0
 11 14  1  0  0  0  0
 12 15  1  0  0  0  0
 12 23  1  0  0  0  0
 12 24  1  0  0  0  0
 15 26  1  0  0  0  0
 15 27  1  0  0  0  0
 15 28  1  0  0  0  0
 17 18  2  0  0  0  0
 17 19  1  0  0  0  0
 18 20  1  0  0  0  0
 18 30  1  0  0  0  0
 19 21  2  0  0  0  0
 19 31  1  0  0  0  0
 20 22  2  0  0  0  0
 20 32  1  0  0  0  0
 21 22  1  0  0  0  0
 21 33  1  0  0  0  0
M  END
> <PUBCHEM_COMPOUND_CID>
660323

> <PUBCHEM_CONFORMER_RMSD>
0.8

> <PUBCHEM_CONFORMER_DIVERSEORDER>
1
6
4
5
2
8
3
7

> <PUBCHEM_MMFF94_PARTIAL_CHARGES>
27
1 -0.34
10 -0.55
11 0.3
13 1.02
14 1.02
16 0.69
17 0.12
18 -0.15
19 -0.15
2 -0.34
20 -0.15
21 -0.15
22 0.08
25 0.37
29 0.37
3 -0.34
30 0.15
31 0.15
32 0.15
33 0.15
34 0.45
4 -0.34
5 -0.34
6 -0.34
7 -0.57
8 -0.53
9 -0.73

> <PUBCHEM_EFFECTIVE_ROTOR_COUNT>
7

> <PUBCHEM_PHARMACOPHORE_FEATURES>
6
1 10 donor
1 15 hydrophobe
1 7 acceptor
1 8 donor
1 9 donor
6 17 18 19 20 21 22 rings

> <PUBCHEM_HEAVY_ATOM_COUNT>
22

> <PUBCHEM_ATOM_DEF_STEREO_COUNT>
0

> <PUBCHEM_ATOM_UDEF_STEREO_COUNT>
0

> <PUBCHEM_BOND_DEF_STEREO_COUNT>
0

> <PUBCHEM_BOND_UDEF_STEREO_COUNT>
0

> <PUBCHEM_ISOTOPIC_ATOM_COUNT>
0

> <PUBCHEM_COMPONENT_COUNT>
1

> <PUBCHEM_CACTVS_TAUTO_COUNT>
6

> <PUBCHEM_CONFORMER_ID>
000A136300000001

> <PUBCHEM_MMFF94_ENERGY>
54.7353

> <PUBCHEM_FEATURE_SELFOVERLAP>
30.5

> <PUBCHEM_SHAPE_FINGERPRINT>
10366900 7 18260827124736362762
10680689 15 18410582773039738610
11315181 36 17458348567694188296
11615757 297 17346599686072305338
12091667 2 18409169909757582778
121448 382 17967812764623084403
12236239 1 15285358431667650578
12403259 415 18060129964636531176
12507557 5 17704069603659836648
128620 24 18202281420486395494
12916754 54 18201440319465318082
13224815 77 18343024372108741114
15788980 27 18408326562653368954
15961568 22 17895755244328179356
17349148 13 17530962497166999774
17844677 252 18413114953035727052
187816 3 17603579755930412747
18927931 339 18334585646009075278
19433438 15 14273458089268794394
19489759 90 18040431092748457450
200 152 17275099535623512159
20645477 56 18337673010261741141
20645477 70 18130228143334212102
21033648 29 18271515451669299384
21709351 56 18413386545287337308
2306618 200 17632861893339409905
23402539 116 18334572434905677852
23557571 272 18410857650751737812
23559900 14 18411973685208365800
3268164 11 18114174229020788893
4214541 1 18342739594223071476
4921388 177 17530976794791388323
497634 4 17418098727723404785
5104073 3 18202282464448636354
5281201 14 18341900675799826412
542803 24 17603591820419492924
90127 26 18409175402873126408
9709674 26 18412832361072224398

> <PUBCHEM_SHAPE_MULTIPOLES>
387.41
11.74
1.68
1.4
14.88
0.29
0.42
-0.7
-0.83
-1.59
-0.05
-1.29
-0.37
1.06

> <PUBCHEM_SHAPE_SELFOVERLAP>
819.55

> <PUBCHEM_SHAPE_VOLUME>
215.7

> <PUBCHEM_COORDINATE_TYPE>
2
5
10

$$$$
