4876195
  -OEChem-01171811533D

 58 60  0     1  0  0  0  0  0999 V2000
    6.4242   -1.8849    0.2065 O   0  0  0  0  0  0  0  0  0  0  0  0
   -2.0264    2.1115    0.3633 O   0  0  0  0  0  0  0  0  0  0  0  0
   -0.1787    0.7286    1.6688 O   0  0  0  0  0  0  0  0  0  0  0  0
   -2.7497    3.5266   -1.3089 O   0  0  0  0  0  0  0  0  0  0  0  0
   -4.1835   -2.3863    2.1332 O   0  0  0  0  0  0  0  0  0  0  0  0
    3.8133    0.6651    0.2981 N   0  0  0  0  0  0  0  0  0  0  0  0
   -3.5259   -0.1280   -1.1128 N   0  0  0  0  0  0  0  0  0  0  0  0
   -4.6471   -0.4712    0.9625 N   0  0  0  0  0  0  0  0  0  0  0  0
    5.0717    0.0600    0.6812 C   0  0  1  0  0  0  0  0  0  0  0  0
    2.6239    0.5020    0.9590 C   0  0  0  0  0  0  0  0  0  0  0  0
    3.6294    1.4884   -0.7820 C   0  0  0  0  0  0  0  0  0  0  0  0
    1.6664    1.2330    0.2910 C   0  0  0  0  0  0  0  0  0  0  0  0
    5.5978   -0.8959   -0.3970 C   0  0  0  0  0  0  0  0  0  0  0  0
    2.3026    1.8573   -0.8104 C   0  0  0  0  0  0  0  0  0  0  0  0
    6.1153    1.1161    1.0522 C   0  0  0  0  0  0  0  0  0  0  0  0
    2.5116   -0.3386    2.1707 C   0  0  0  0  0  0  0  0  0  0  0  0
    4.7330    1.8534   -1.6940 C   0  0  0  0  0  0  0  0  0  0  0  0
    0.2490    1.3258    0.6798 C   0  0  0  0  0  0  0  0  0  0  0  0
   -0.6948    2.1753   -0.1574 C   0  0  0  0  0  0  0  0  0  0  0  0
   -5.1227    1.5365   -0.2753 C   0  0  0  0  0  0  0  0  0  0  0  0
   -4.3066    2.6548    0.3487 C   0  0  0  0  0  0  0  0  0  0  0  0
    6.8810   -2.8332   -0.7472 C   0  0  0  0  0  0  0  0  0  0  0  0
   -4.3990    0.2231   -0.1100 C   0  0  0  0  0  0  0  0  0  0  0  0
   -2.9598    2.8421   -0.3171 C   0  0  0  0  0  0  0  0  0  0  0  0
   -2.8240   -1.3307   -1.0118 C   0  0  0  0  0  0  0  0  0  0  0  0
   -3.0324   -2.1433    0.1111 C   0  0  0  0  0  0  0  0  0  0  0  0
   -3.9976   -1.6793    1.1477 C   0  0  0  0  0  0  0  0  0  0  0  0
   -1.9247   -1.7435   -1.9982 C   0  0  0  0  0  0  0  0  0  0  0  0
   -2.3504   -3.3550    0.2503 C   0  0  0  0  0  0  0  0  0  0  0  0
   -1.2419   -2.9533   -1.8618 C   0  0  0  0  0  0  0  0  0  0  0  0
   -1.4543   -3.7562   -0.7406 C   0  0  0  0  0  0  0  0  0  0  0  0
    4.9031   -0.5260    1.5900 H   0  0  0  0  0  0  0  0  0  0  0  0
    6.2014   -0.3761   -1.1455 H   0  0  0  0  0  0  0  0  0  0  0  0
    4.7635   -1.3989   -0.9019 H   0  0  0  0  0  0  0  0  0  0  0  0
    1.8502    2.5059   -1.5482 H   0  0  0  0  0  0  0  0  0  0  0  0
    6.8672    0.6667    1.7124 H   0  0  0  0  0  0  0  0  0  0  0  0
    5.6699    1.9584    1.5926 H   0  0  0  0  0  0  0  0  0  0  0  0
    6.6714    1.5018    0.1954 H   0  0  0  0  0  0  0  0  0  0  0  0
    2.8277   -1.3655    1.9552 H   0  0  0  0  0  0  0  0  0  0  0  0
    3.1459    0.0585    2.9712 H   0  0  0  0  0  0  0  0  0  0  0  0
    1.5065   -0.4134    2.5825 H   0  0  0  0  0  0  0  0  0  0  0  0
    4.3418    2.5155   -2.4779 H   0  0  0  0  0  0  0  0  0  0  0  0
    5.1450    0.9972   -2.2276 H   0  0  0  0  0  0  0  0  0  0  0  0
    5.5179    2.4290   -1.2043 H   0  0  0  0  0  0  0  0  0  0  0  0
   -0.6926    1.7902   -1.1831 H   0  0  0  0  0  0  0  0  0  0  0  0
   -0.3457    3.2132   -0.1301 H   0  0  0  0  0  0  0  0  0  0  0  0
   -5.2869    1.7268   -1.3420 H   0  0  0  0  0  0  0  0  0  0  0  0
   -6.1037    1.4726    0.2084 H   0  0  0  0  0  0  0  0  0  0  0  0
   -4.8465    3.6056    0.2692 H   0  0  0  0  0  0  0  0  0  0  0  0
   -4.1535    2.4831    1.4214 H   0  0  0  0  0  0  0  0  0  0  0  0
    7.5133   -3.5615   -0.2322 H   0  0  0  0  0  0  0  0  0  0  0  0
    7.4762   -2.3426   -1.5234 H   0  0  0  0  0  0  0  0  0  0  0  0
    6.0363   -3.3632   -1.1979 H   0  0  0  0  0  0  0  0  0  0  0  0
   -3.3728    0.4560   -1.9262 H   0  0  0  0  0  0  0  0  0  0  0  0
   -1.7483   -1.1278   -2.8765 H   0  0  0  0  0  0  0  0  0  0  0  0
   -2.5015   -3.9942    1.1152 H   0  0  0  0  0  0  0  0  0  0  0  0
   -0.5428   -3.2702   -2.6303 H   0  0  0  0  0  0  0  0  0  0  0  0
   -0.9200   -4.6966   -0.6393 H   0  0  0  0  0  0  0  0  0  0  0  0
  1 13  1  0  0  0  0
  1 22  1  0  0  0  0
  2 19  1  0  0  0  0
  2 24  1  0  0  0  0
  3 18  2  0  0  0  0
  4 24  2  0  0  0  0
  5 27  2  0  0  0  0
  6  9  1  0  0  0  0
  6 10  1  0  0  0  0
  6 11  1  0  0  0  0
  7 23  1  0  0  0  0
  7 25  1  0  0  0  0
  7 54  1  0  0  0  0
  8 23  2  0  0  0  0
  8 27  1  0  0  0  0
  9 13  1  0  0  0  0
  9 15  1  0  0  0  0
  9 32  1  0  0  0  0
 10 12  2  0  0  0  0
 10 16  1  0  0  0  0
 11 14  2  0  0  0  0
 11 17  1  0  0  0  0
 12 14  1  0  0  0  0
 12 18  1  0  0  0  0
 13 33  1  0  0  0  0
 13 34  1  0  0  0  0
 14 35  1  0  0  0  0
 15 36  1  0  0  0  0
 15 37  1  0  0  0  0
 15 38  1  0  0  0  0
 16 39  1  0  0  0  0
 16 40  1  0  0  0  0
 16 41  1  0  0  0  0
 17 42  1  0  0  0  0
 17 43  1  0  0  0  0
 17 44  1  0  0  0  0
 18 19  1  0  0  0  0
 19 45  1  0  0  0  0
 19 46  1  0  0  0  0
 20 21  1  0  0  0  0
 20 23  1  0  0  0  0
 20 47  1  0  0  0  0
 20 48  1  0  0  0  0
 21 24  1  0  0  0  0
 21 49  1  0  0  0  0
 21 50  1  0  0  0  0
 22 51  1  0  0  0  0
 22 52  1  0  0  0  0
 22 53  1  0  0  0  0
 25 26  1  0  0  0  0
 25 28  2  0  0  0  0
 26 27  1  0  0  0  0
 26 29  2  0  0  0  0
 28 30  1  0  0  0  0
 28 55  1  0  0  0  0
 29 31  1  0  0  0  0
 29 56  1  0  0  0  0
 30 31  2  0  0  0  0
 30 57  1  0  0  0  0
 31 58  1  0  0  0  0
M  END
> <PUBCHEM_COMPOUND_CID>
4876195

> <PUBCHEM_CONFORMER_RMSD>
1.4

> <PUBCHEM_CONFORMER_DIVERSEORDER>
1
49
85
137
42
63
66
31
60
122
145
116
8
18
72
52
23
34
87
95
136
81
132
19
135
11
113
38
74
130
105
117
148
65
123
77
15
26
24
83
153
94
55
108
36
48
84
146
76
80
133
93
2
149
88
28
92
91
131
29
114
109
107
152
121
101
78
14
68
35
118
56
54
104
99
126
75
53
46
27
112
71
21
143
100
62
10
128
124
22
12
61
17
141
139
9
154
150
125
37
129
98
70
51
32
89
64
20
106
119
134
30
90
142
43
58
67
50
111
69
59
16
97
144
13
45
79
7
57
147
120
25
140
47
41
151
3
103
6
102
127
44
82
138
5
39
86
115
96
40
73
4
110
33

> <PUBCHEM_MMFF94_PARTIAL_CHARGES>
36
1 -0.56
10 -0.33
11 -0.33
12 -0.09
13 0.28
14 -0.15
16 0.18
17 0.18
18 0.6
19 0.34
2 -0.43
20 0.06
21 0.06
22 0.28
23 0.44
24 0.66
25 0.1
26 0.09
27 0.69
28 -0.15
29 -0.15
3 -0.57
30 -0.15
31 -0.15
35 0.15
4 -0.57
5 -0.57
54 0.4
55 0.15
56 0.15
57 0.15
58 0.15
6 0.05
7 -0.55
8 -0.66
9 0.26

> <PUBCHEM_EFFECTIVE_ROTOR_COUNT>
10

> <PUBCHEM_PHARMACOPHORE_FEATURES>
10
1 1 acceptor
1 3 acceptor
1 4 acceptor
1 5 acceptor
1 6 cation
1 7 donor
1 8 donor
5 6 10 11 12 14 rings
6 25 26 28 29 30 31 rings
6 7 8 23 25 26 27 rings

> <PUBCHEM_HEAVY_ATOM_COUNT>
31

> <PUBCHEM_ATOM_DEF_STEREO_COUNT>
0

> <PUBCHEM_ATOM_UDEF_STEREO_COUNT>
1

> <PUBCHEM_BOND_DEF_STEREO_COUNT>
0

> <PUBCHEM_BOND_UDEF_STEREO_COUNT>
0

> <PUBCHEM_ISOTOPIC_ATOM_COUNT>
0

> <PUBCHEM_COMPONENT_COUNT>
1

> <PUBCHEM_CACTVS_TAUTO_COUNT>
12

> <PUBCHEM_CONFORMER_ID>
004A67A300000001

> <PUBCHEM_MMFF94_ENERGY>
73.5215

> <PUBCHEM_FEATURE_SELFOVERLAP>
50.807

> <PUBCHEM_SHAPE_FINGERPRINT>
10462674 125 15475596152554555534
107951 10 18041275475161563315
11014199 57 17691959779944138375
11135609 12 18411138022702477726
11135609 99 18271242726247774166
11524674 6 17917706856072672717
12156800 1 16737255826885570635
12422481 6 18202280291205798726
12522641 33 18047181948816871429
12553582 1 18194113255998896361
12633257 1 17274271680751126225
13726171 33 17981640304617311501
14114206 34 17898548007734748831
14251757 5 18341619277568245285
14279260 333 17967525741165819378
14289585 56 17095799911340270828
15001296 14 18260822731069143304
15274700 242 17823118052958727290
15439362 3 17474667248359365197
15510800 12 17487065462608647038
16112460 7 17841442422819224642
19958102 18 18339071597510085180
238918 7 18060146431251065535
3383291 50 18340758343443444219
338550 245 18409732846541395910
373842 8 17981887433072858926
44880168 125 17702122423964342447
497634 4 16805884116870202179
508706 21 18272938253674551071
513202 73 18335431174677334907
6437827 68 18340770347423128654
70251023 43 17473538535612680691

> <PUBCHEM_SHAPE_MULTIPOLES>
593.68
14.64
4.44
1.69
19.8
1.89
-0.14
2.77
-0.73
-3.32
1.36
-0.1
0.52
0.59

> <PUBCHEM_SHAPE_SELFOVERLAP>
1259.703

> <PUBCHEM_SHAPE_VOLUME>
331.8

> <PUBCHEM_COORDINATE_TYPE>
2
5
10

$$$$
