4638581
  -OEChem-01171811533D

 42 45  0     1  0  0  0  0  0999 V2000
   -0.8612   -1.2518    2.3013 O   0  0  0  0  0  0  0  0  0  0  0  0
   -0.8240   -3.7604    0.6422 O   0  0  0  0  0  0  0  0  0  0  0  0
   -4.6294    3.4067   -0.4913 O   0  5  0  0  0  0  0  0  0  0  0  0
   -2.7590    3.6150    0.6390 O   0  0  0  0  0  0  0  0  0  0  0  0
   -2.6183   -2.5376   -0.2580 N   0  0  0  0  0  0  0  0  0  0  0  0
    2.2696   -0.1588   -0.2907 N   0  0  0  0  0  0  0  0  0  0  0  0
    1.7381   -0.4412   -1.4923 N   0  0  0  0  0  0  0  0  0  0  0  0
    1.7927   -0.1870    2.0380 N   0  0  0  0  0  0  0  0  0  0  0  0
   -3.6005    2.9127    0.0290 N   0  3  0  0  0  0  0  0  0  0  0  0
   -0.9561   -1.3124    0.8985 C   0  0  1  0  0  0  0  0  0  0  0  0
   -2.0549   -0.4195    0.3803 C   0  0  0  0  0  0  0  0  0  0  0  0
    0.2696   -0.8905    0.2002 C   0  0  0  0  0  0  0  0  0  0  0  0
   -1.4110   -2.7097    0.4316 C   0  0  0  0  0  0  0  0  0  0  0  0
   -2.9997   -1.1996   -0.2882 C   0  0  0  0  0  0  0  0  0  0  0  0
    1.4314   -0.4099    0.7556 C   0  0  0  0  0  0  0  0  0  0  0  0
    0.5170   -0.8875   -1.1864 C   0  0  0  0  0  0  0  0  0  0  0  0
   -2.2410    0.9469    0.5035 C   0  0  0  0  0  0  0  0  0  0  0  0
   -4.1330   -0.6652   -0.8676 C   0  0  0  0  0  0  0  0  0  0  0  0
   -3.3812    1.5128   -0.0757 C   0  0  0  0  0  0  0  0  0  0  0  0
   -0.3936   -1.3063   -2.2666 C   0  0  0  0  0  0  0  0  0  0  0  0
   -4.3177    0.7138   -0.7569 C   0  0  0  0  0  0  0  0  0  0  0  0
    3.5706    0.3433   -0.2166 C   0  0  0  0  0  0  0  0  0  0  0  0
    3.9172    1.1927    0.8253 C   0  0  0  0  0  0  0  0  0  0  0  0
    4.4991   -0.0169   -1.1836 C   0  0  0  0  0  0  0  0  0  0  0  0
    5.2175    1.6918    0.9015 C   0  0  0  0  0  0  0  0  0  0  0  0
    5.7994    0.4822   -1.1073 C   0  0  0  0  0  0  0  0  0  0  0  0
    6.1585    1.3365   -0.0647 C   0  0  0  0  0  0  0  0  0  0  0  0
   -3.1578   -3.2841   -0.6801 H   0  0  0  0  0  0  0  0  0  0  0  0
   -1.5052    1.5376    1.0402 H   0  0  0  0  0  0  0  0  0  0  0  0
   -4.8562   -1.2844   -1.3857 H   0  0  0  0  0  0  0  0  0  0  0  0
   -0.2270   -1.9308    2.5894 H   0  0  0  0  0  0  0  0  0  0  0  0
   -1.2561   -0.6416   -2.3505 H   0  0  0  0  0  0  0  0  0  0  0  0
    0.1165   -1.2630   -3.2371 H   0  0  0  0  0  0  0  0  0  0  0  0
   -0.7223   -2.3410   -2.1488 H   0  0  0  0  0  0  0  0  0  0  0  0
   -5.2089    1.1414   -1.2107 H   0  0  0  0  0  0  0  0  0  0  0  0
    2.7523   -0.1521    2.3616 H   0  0  0  0  0  0  0  0  0  0  0  0
    1.1173   -0.2827    2.7905 H   0  0  0  0  0  0  0  0  0  0  0  0
    3.2102    1.6066    1.5356 H   0  0  0  0  0  0  0  0  0  0  0  0
    4.2532   -0.6896   -2.0010 H   0  0  0  0  0  0  0  0  0  0  0  0
    5.4908    2.3791    1.6970 H   0  0  0  0  0  0  0  0  0  0  0  0
    6.5330    0.2047   -1.8586 H   0  0  0  0  0  0  0  0  0  0  0  0
    7.1692    1.7299   -0.0088 H   0  0  0  0  0  0  0  0  0  0  0  0
  1 10  1  0  0  0  0
  1 31  1  0  0  0  0
  2 13  2  0  0  0  0
  3  9  1  0  0  0  0
  4  9  2  0  0  0  0
  5 13  1  0  0  0  0
  5 14  1  0  0  0  0
  5 28  1  0  0  0  0
  6  7  1  0  0  0  0
  6 15  1  0  0  0  0
  6 22  1  0  0  0  0
  7 16  2  0  0  0  0
  8 15  1  0  0  0  0
  8 36  1  0  0  0  0
  8 37  1  0  0  0  0
  9 19  1  0  0  0  0
 10 11  1  0  0  0  0
 10 12  1  0  0  0  0
 10 13  1  0  0  0  0
 11 14  2  0  0  0  0
 11 17  1  0  0  0  0
 12 15  2  0  0  0  0
 12 16  1  0  0  0  0
 14 18  1  0  0  0  0
 16 20  1  0  0  0  0
 17 19  2  0  0  0  0
 17 29  1  0  0  0  0
 18 21  2  0  0  0  0
 18 30  1  0  0  0  0
 19 21  1  0  0  0  0
 20 32  1  0  0  0  0
 20 33  1  0  0  0  0
 20 34  1  0  0  0  0
 21 35  1  0  0  0  0
 22 23  2  0  0  0  0
 22 24  1  0  0  0  0
 23 25  1  0  0  0  0
 23 38  1  0  0  0  0
 24 26  2  0  0  0  0
 24 39  1  0  0  0  0
 25 27  2  0  0  0  0
 25 40  1  0  0  0  0
 26 27  1  0  0  0  0
 26 41  1  0  0  0  0
 27 42  1  0  0  0  0
M  CHG  2   3  -1   9   1
M  END
> <PUBCHEM_COMPOUND_CID>
4638581

> <PUBCHEM_CONFORMER_RMSD>
0.8

> <PUBCHEM_CONFORMER_DIVERSEORDER>
4
6
5
3
1
2

> <PUBCHEM_MMFF94_PARTIAL_CHARGES>
39
1 -0.68
10 0.67
11 -0.14
12 -0.18
13 0.57
14 0.12
15 -0.07
16 0.11
17 -0.15
18 -0.15
19 0.13
2 -0.57
20 0.18
21 -0.15
22 -0.02
23 -0.15
24 -0.15
25 -0.15
26 -0.15
27 -0.15
28 0.37
29 0.15
3 -0.52
30 0.15
31 0.4
35 0.15
36 0.4
37 0.4
38 0.15
39 0.15
4 -0.52
40 0.15
41 0.15
42 0.15
5 -0.55
6 0.59
7 -0.71
8 -0.88
9 0.91

> <PUBCHEM_EFFECTIVE_ROTOR_COUNT>
3.4

> <PUBCHEM_PHARMACOPHORE_FEATURES>
14
1 1 acceptor
1 1 donor
1 2 acceptor
1 3 acceptor
1 3 anion
1 4 acceptor
1 5 donor
1 7 acceptor
1 8 cation
1 8 donor
5 5 10 11 13 14 rings
5 6 7 12 15 16 rings
6 11 14 17 18 19 21 rings
6 22 23 24 25 26 27 rings

> <PUBCHEM_HEAVY_ATOM_COUNT>
27

> <PUBCHEM_ATOM_DEF_STEREO_COUNT>
0

> <PUBCHEM_ATOM_UDEF_STEREO_COUNT>
1

> <PUBCHEM_BOND_DEF_STEREO_COUNT>
0

> <PUBCHEM_BOND_UDEF_STEREO_COUNT>
0

> <PUBCHEM_ISOTOPIC_ATOM_COUNT>
0

> <PUBCHEM_COMPONENT_COUNT>
1

> <PUBCHEM_CACTVS_TAUTO_COUNT>
6

> <PUBCHEM_CONFORMER_ID>
0046C77500000004

> <PUBCHEM_MMFF94_ENERGY>
89.53

> <PUBCHEM_FEATURE_SELFOVERLAP>
71.22

> <PUBCHEM_SHAPE_FINGERPRINT>
10291535 26 18338801216207091961
10411042 1 17833270101342355715
10498660 4 18270396088328465801
10937287 8 18194119604050834737
11315181 36 17750794536020088390
11640471 11 17967531238391180163
12107183 9 18118111473555974722
12173636 292 18409442609204030455
12236239 1 17458335381643800114
12390115 104 18341622464803348169
12633257 1 17095521833714443284
12788726 201 18042398213482775659
13583140 156 18130231579218260822
13911987 19 16558194933552773140
13965767 371 17607243160732880629
14068700 675 16590848319821320131
14142880 1 18040715857865419405
14251764 75 17910400485553987609
14739800 52 18265873891935595232
15163728 17 18339365141302588601
15209294 21 17821721750036047252
17844677 252 18264214789219061708
17980427 26 18121206598102920663
19489759 90 18411418457827487286
200 152 15554457313722367786
21033648 144 17773315845455647112
21033648 29 17846490474498235304
21033650 10 18189640348508503526
23559900 14 18341899610832643910
23569943 247 16517342459238400730
2838139 119 18342731875898296156
3472631 163 18337668603789131389
3493558 16 18337398261304575796
3633792 109 17605529129579703831
4098825 35 17560530486725749141
44802255 64 17916590981152210436
508706 21 18341326777416020360
5283173 99 18342458140805827304
531348 171 18130790049294011182
7808743 9 18410291368083296169
9849439 229 18119525432556463381
9981440 41 18334580122628405211

> <PUBCHEM_SHAPE_MULTIPOLES>
507.27
11.27
3.21
1.54
14.28
1.32
0.03
8.18
-2.18
-5.13
0.5
0.53
-0.55
0.69

> <PUBCHEM_SHAPE_SELFOVERLAP>
1145.669

> <PUBCHEM_SHAPE_VOLUME>
269.9

> <PUBCHEM_COORDINATE_TYPE>
2
5
10

$$$$
