1084464
  -OEChem-01171812003D

 39 41  0     0  0  0  0  0  0999 V2000
   -4.0071    2.8518   -0.0861 Br  0  0  0  0  0  0  0  0  0  0  0  0
    3.8832   -1.7783    0.1993 S   0  0  0  0  0  0  0  0  0  0  0  0
    4.1744   -3.0465   -0.4589 O   0  0  0  0  0  0  0  0  0  0  0  0
    4.2802   -1.6020    1.5909 O   0  0  0  0  0  0  0  0  0  0  0  0
   -2.3416    0.6155    1.5488 O   0  0  0  0  0  0  0  0  0  0  0  0
    4.5559   -0.5127   -0.7569 N   0  0  0  0  0  0  0  0  0  0  0  0
   -1.9504   -0.8053   -0.2500 N   0  0  0  0  0  0  0  0  0  0  0  0
    3.4105    1.4328   -1.4407 N   0  0  0  0  0  0  0  0  0  0  0  0
    4.5232    1.3459    0.6952 N   0  0  0  0  0  0  0  0  0  0  0  0
    2.1659   -1.4924    0.0673 C   0  0  0  0  0  0  0  0  0  0  0  0
   -0.5560   -1.0381   -0.1426 C   0  0  0  0  0  0  0  0  0  0  0  0
    1.5238   -0.6654    0.9890 C   0  0  0  0  0  0  0  0  0  0  0  0
    1.4361   -2.0906   -0.9599 C   0  0  0  0  0  0  0  0  0  0  0  0
    0.1519   -0.4366    0.8832 C   0  0  0  0  0  0  0  0  0  0  0  0
    0.0643   -1.8616   -1.0658 C   0  0  0  0  0  0  0  0  0  0  0  0
   -2.7651   -0.0137    0.5716 C   0  0  0  0  0  0  0  0  0  0  0  0
   -4.1795   -0.0129    0.2178 C   0  0  0  0  0  0  0  0  0  0  0  0
    4.1384    0.8363   -0.4847 C   0  0  0  0  0  0  0  0  0  0  0  0
   -4.8663    1.1599   -0.0959 C   0  0  0  0  0  0  0  0  0  0  0  0
   -4.8460   -1.2380    0.1989 C   0  0  0  0  0  0  0  0  0  0  0  0
   -6.2201    1.1076   -0.4281 C   0  0  0  0  0  0  0  0  0  0  0  0
   -6.1997   -1.2903   -0.1334 C   0  0  0  0  0  0  0  0  0  0  0  0
   -6.8867   -0.1175   -0.4467 C   0  0  0  0  0  0  0  0  0  0  0  0
    3.0355    2.6964   -1.1523 C   0  0  0  0  0  0  0  0  0  0  0  0
    4.1140    2.6121    0.9179 C   0  0  0  0  0  0  0  0  0  0  0  0
    3.3613    3.3436    0.0220 C   0  0  0  0  0  0  0  0  0  0  0  0
    2.0730   -0.1890    1.7963 H   0  0  0  0  0  0  0  0  0  0  0  0
    1.9162   -2.7321   -1.6934 H   0  0  0  0  0  0  0  0  0  0  0  0
   -0.2628    0.2156    1.6360 H   0  0  0  0  0  0  0  0  0  0  0  0
   -0.4949   -2.3305   -1.8705 H   0  0  0  0  0  0  0  0  0  0  0  0
    4.6195   -0.7161   -1.7630 H   0  0  0  0  0  0  0  0  0  0  0  0
   -2.4011   -1.2796   -1.0302 H   0  0  0  0  0  0  0  0  0  0  0  0
   -4.3305   -2.1624    0.4475 H   0  0  0  0  0  0  0  0  0  0  0  0
   -6.7725    2.0106   -0.6753 H   0  0  0  0  0  0  0  0  0  0  0  0
   -6.7195   -2.2439   -0.1464 H   0  0  0  0  0  0  0  0  0  0  0  0
   -7.9408   -0.1584   -0.7049 H   0  0  0  0  0  0  0  0  0  0  0  0
    2.4452    3.1905   -1.9166 H   0  0  0  0  0  0  0  0  0  0  0  0
    4.4175    3.0366    1.8689 H   0  0  0  0  0  0  0  0  0  0  0  0
    3.0463    4.3578    0.2274 H   0  0  0  0  0  0  0  0  0  0  0  0
  1 19  1  0  0  0  0
  2  3  2  0  0  0  0
  2  4  2  0  0  0  0
  2  6  1  0  0  0  0
  2 10  1  0  0  0  0
  5 16  2  0  0  0  0
  6 18  1  0  0  0  0
  6 31  1  0  0  0  0
  7 11  1  0  0  0  0
  7 16  1  0  0  0  0
  7 32  1  0  0  0  0
  8 18  1  0  0  0  0
  8 24  2  0  0  0  0
  9 18  2  0  0  0  0
  9 25  1  0  0  0  0
 10 12  2  0  0  0  0
 10 13  1  0  0  0  0
 11 14  2  0  0  0  0
 11 15  1  0  0  0  0
 12 14  1  0  0  0  0
 12 27  1  0  0  0  0
 13 15  2  0  0  0  0
 13 28  1  0  0  0  0
 14 29  1  0  0  0  0
 15 30  1  0  0  0  0
 16 17  1  0  0  0  0
 17 19  1  0  0  0  0
 17 20  2  0  0  0  0
 19 21  2  0  0  0  0
 20 22  1  0  0  0  0
 20 33  1  0  0  0  0
 21 23  1  0  0  0  0
 21 34  1  0  0  0  0
 22 23  2  0  0  0  0
 22 35  1  0  0  0  0
 23 36  1  0  0  0  0
 24 26  1  0  0  0  0
 24 37  1  0  0  0  0
 25 26  2  0  0  0  0
 25 38  1  0  0  0  0
 26 39  1  0  0  0  0
M  END
> <PUBCHEM_COMPOUND_CID>
1084464

> <PUBCHEM_CONFORMER_RMSD>
0.8

> <PUBCHEM_CONFORMER_DIVERSEORDER>
1
40
4
28
54
32
10
46
56
12
41
21
31
27
52
33
49
23
39
2
55
50
20
24
3
19
43
42
22
15
16
37
53
30
48
34
38
8
36
13
17
51
14
44
45
5
25
7
29
6
35
18
26
9
47
11

> <PUBCHEM_MMFF94_PARTIAL_CHARGES>
39
1 -0.11
10 -0.01
11 0.12
12 -0.15
13 -0.15
14 -0.15
15 -0.15
16 0.54
17 0.09
18 0.82
19 0.11
2 1.45
20 -0.15
21 -0.15
22 -0.15
23 -0.15
24 0.16
25 0.16
26 -0.15
27 0.15
28 0.15
29 0.15
3 -0.65
30 0.15
31 0.42
32 0.37
33 0.15
34 0.15
35 0.15
36 0.15
37 0.15
38 0.15
39 0.15
4 -0.65
5 -0.57
6 -0.76
7 -0.55
8 -0.62
9 -0.62

> <PUBCHEM_EFFECTIVE_ROTOR_COUNT>
6

> <PUBCHEM_PHARMACOPHORE_FEATURES>
10
1 1 hydrophobe
1 3 acceptor
1 4 acceptor
1 5 acceptor
1 6 donor
1 7 donor
1 8 acceptor
6 10 11 12 13 14 15 rings
6 17 19 20 21 22 23 rings
6 8 9 18 24 25 26 rings

> <PUBCHEM_HEAVY_ATOM_COUNT>
26

> <PUBCHEM_ATOM_DEF_STEREO_COUNT>
0

> <PUBCHEM_ATOM_UDEF_STEREO_COUNT>
0

> <PUBCHEM_BOND_DEF_STEREO_COUNT>
0

> <PUBCHEM_BOND_UDEF_STEREO_COUNT>
0

> <PUBCHEM_ISOTOPIC_ATOM_COUNT>
0

> <PUBCHEM_COMPONENT_COUNT>
1

> <PUBCHEM_CACTVS_TAUTO_COUNT>
4

> <PUBCHEM_CONFORMER_ID>
00108C3000000001

> <PUBCHEM_MMFF94_ENERGY>
72.4499

> <PUBCHEM_FEATURE_SELFOVERLAP>
50.765

> <PUBCHEM_SHAPE_FINGERPRINT>
10670039 82 17846232020330122064
10763959 59 18339929203647278014
11045977 3 17967541172229030210
11089746 13 17895194368057289299
11101153 10 18412261762256880477
11796584 16 9367350336018005113
12166972 35 18200876167153266642
12403259 118 18340478968103919587
13583140 156 18187661218466911298
13617811 41 15626226814945857505
13878862 14 18189034478266593917
14251764 38 18334582313114843501
14528608 73 18412265060174007231
15419008 145 18189319222410287896
15849732 13 18130503051363942798
15961568 22 18259703423790251789
17844677 252 18338803321168328179
18681886 176 18271523100932486098
20157964 124 18410575119028092043
21033648 29 16805311194060476031
21315763 129 18337670806795480909
21315764 268 18334289834568486133
21344244 78 18192693585051711202
21641784 216 17132126723207783169
21709351 56 18340765919264335007
22149856 69 17704083902081361987
23522609 53 17630912519970311537
23559900 14 18198342853882855171
23569914 2 17540199485989982933
245318 6 17752219532427295749
249057 3 18412266125569379878
25269216 80 15338258208413605605
3004659 81 18412544284361358866
34797466 226 17989214754589609647
4144715 1 18262245408615639435
474 4 18189057650089733272
508706 21 17095806521379971765
5104073 3 18334019389299809603
6669772 16 17415264298427367464
67856867 119 18410572877487868587
9849439 229 17977101589722138756

> <PUBCHEM_SHAPE_MULTIPOLES>
507.33
15.65
3.44
1.14
18.11
1.99
-0.08
2.7
0.81
-4.1
0.45
-0.89
0.04
-0.13

> <PUBCHEM_SHAPE_SELFOVERLAP>
1072.891

> <PUBCHEM_SHAPE_VOLUME>
287.4

> <PUBCHEM_COORDINATE_TYPE>
2
5
10

$$$$
