631429
  -OEChem-01171811413D

 48 51  0     0  0  0  0  0  0999 V2000
    1.9935    2.2505    0.6420 O   0  0  0  0  0  0  0  0  0  0  0  0
    0.7848   -2.6703   -1.0354 O   0  0  0  0  0  0  0  0  0  0  0  0
   -0.5428    1.8313   -0.1909 N   0  0  0  0  0  0  0  0  0  0  0  0
   -1.2014   -0.8361   -1.1024 N   0  0  0  0  0  0  0  0  0  0  0  0
   -0.7180    2.7408   -1.3245 C   0  0  0  0  0  0  0  0  0  0  0  0
   -1.4471    2.0558    0.9382 C   0  0  0  0  0  0  0  0  0  0  0  0
   -0.5645    4.1876   -0.8592 C   0  0  0  0  0  0  0  0  0  0  0  0
   -1.3063    3.4913    1.4404 C   0  0  0  0  0  0  0  0  0  0  0  0
   -1.5003    4.4978    0.3078 C   0  0  0  0  0  0  0  0  0  0  0  0
    0.3364    0.7882   -0.2236 C   0  0  0  0  0  0  0  0  0  0  0  0
    0.0316   -0.4532   -0.6468 C   0  0  0  0  0  0  0  0  0  0  0  0
    1.7105    1.1202    0.2574 C   0  0  0  0  0  0  0  0  0  0  0  0
    2.7299    0.0587    0.2632 C   0  0  0  0  0  0  0  0  0  0  0  0
    1.0573   -1.5382   -0.6482 C   0  0  0  0  0  0  0  0  0  0  0  0
    2.4146   -1.2243   -0.1737 C   0  0  0  0  0  0  0  0  0  0  0  0
   -2.2275   -1.3559   -0.2629 C   0  0  0  0  0  0  0  0  0  0  0  0
    4.0256    0.3452    0.7122 C   0  0  0  0  0  0  0  0  0  0  0  0
    3.3939   -2.2258   -0.1632 C   0  0  0  0  0  0  0  0  0  0  0  0
   -1.5341   -0.6660   -2.5205 C   0  0  0  0  0  0  0  0  0  0  0  0
    4.9989   -0.6541    0.7214 C   0  0  0  0  0  0  0  0  0  0  0  0
    4.6835   -1.9382    0.2843 C   0  0  0  0  0  0  0  0  0  0  0  0
   -1.8825   -2.0679    0.8777 C   0  0  0  0  0  0  0  0  0  0  0  0
   -3.5581   -1.1425   -0.5963 C   0  0  0  0  0  0  0  0  0  0  0  0
   -2.8873   -2.5763    1.7009 C   0  0  0  0  0  0  0  0  0  0  0  0
   -4.5629   -1.6509    0.2269 C   0  0  0  0  0  0  0  0  0  0  0  0
   -4.2275   -2.3678    1.3755 C   0  0  0  0  0  0  0  0  0  0  0  0
   -1.7121    2.5888   -1.7618 H   0  0  0  0  0  0  0  0  0  0  0  0
    0.0162    2.5339   -2.1127 H   0  0  0  0  0  0  0  0  0  0  0  0
   -1.2299    1.3630    1.7604 H   0  0  0  0  0  0  0  0  0  0  0  0
   -2.4794    1.8661    0.6206 H   0  0  0  0  0  0  0  0  0  0  0  0
   -0.7713    4.8688   -1.6919 H   0  0  0  0  0  0  0  0  0  0  0  0
    0.4720    4.3657   -0.5472 H   0  0  0  0  0  0  0  0  0  0  0  0
   -0.3103    3.6303    1.8788 H   0  0  0  0  0  0  0  0  0  0  0  0
   -2.0371    3.6801    2.2345 H   0  0  0  0  0  0  0  0  0  0  0  0
   -1.3139    5.5129    0.6753 H   0  0  0  0  0  0  0  0  0  0  0  0
   -2.5408    4.4649   -0.0377 H   0  0  0  0  0  0  0  0  0  0  0  0
    4.2966    1.3391    1.0583 H   0  0  0  0  0  0  0  0  0  0  0  0
    3.1727   -3.2355   -0.4991 H   0  0  0  0  0  0  0  0  0  0  0  0
   -2.1556    0.2220   -2.6780 H   0  0  0  0  0  0  0  0  0  0  0  0
   -2.0447   -1.5491   -2.9219 H   0  0  0  0  0  0  0  0  0  0  0  0
   -0.6259   -0.5311   -3.1211 H   0  0  0  0  0  0  0  0  0  0  0  0
    6.0030   -0.4304    1.0698 H   0  0  0  0  0  0  0  0  0  0  0  0
    5.4415   -2.7160    0.2917 H   0  0  0  0  0  0  0  0  0  0  0  0
   -0.8529   -2.2516    1.1664 H   0  0  0  0  0  0  0  0  0  0  0  0
   -3.8631   -0.5751   -1.4696 H   0  0  0  0  0  0  0  0  0  0  0  0
   -2.6266   -3.1341    2.5956 H   0  0  0  0  0  0  0  0  0  0  0  0
   -5.6067   -1.4851   -0.0236 H   0  0  0  0  0  0  0  0  0  0  0  0
   -5.0098   -2.7625    2.0171 H   0  0  0  0  0  0  0  0  0  0  0  0
  1 12  2  0  0  0  0
  2 14  2  0  0  0  0
  3  5  1  0  0  0  0
  3  6  1  0  0  0  0
  3 10  1  0  0  0  0
  4 11  1  0  0  0  0
  4 16  1  0  0  0  0
  4 19  1  0  0  0  0
  5  7  1  0  0  0  0
  5 27  1  0  0  0  0
  5 28  1  0  0  0  0
  6  8  1  0  0  0  0
  6 29  1  0  0  0  0
  6 30  1  0  0  0  0
  7  9  1  0  0  0  0
  7 31  1  0  0  0  0
  7 32  1  0  0  0  0
  8  9  1  0  0  0  0
  8 33  1  0  0  0  0
  8 34  1  0  0  0  0
  9 35  1  0  0  0  0
  9 36  1  0  0  0  0
 10 11  2  0  0  0  0
 10 12  1  0  0  0  0
 11 14  1  0  0  0  0
 12 13  1  0  0  0  0
 13 15  1  0  0  0  0
 13 17  2  0  0  0  0
 14 15  1  0  0  0  0
 15 18  2  0  0  0  0
 16 22  2  0  0  0  0
 16 23  1  0  0  0  0
 17 20  1  0  0  0  0
 17 37  1  0  0  0  0
 18 21  1  0  0  0  0
 18 38  1  0  0  0  0
 19 39  1  0  0  0  0
 19 40  1  0  0  0  0
 19 41  1  0  0  0  0
 20 21  2  0  0  0  0
 20 42  1  0  0  0  0
 21 43  1  0  0  0  0
 22 24  1  0  0  0  0
 22 44  1  0  0  0  0
 23 25  2  0  0  0  0
 23 45  1  0  0  0  0
 24 26  2  0  0  0  0
 24 46  1  0  0  0  0
 25 26  1  0  0  0  0
 25 47  1  0  0  0  0
 26 48  1  0  0  0  0
M  END
> <PUBCHEM_COMPOUND_CID>
631429

> <PUBCHEM_CONFORMER_RMSD>
0.8

> <PUBCHEM_CONFORMER_DIVERSEORDER>
1
3
2

> <PUBCHEM_MMFF94_PARTIAL_CHARGES>
32
1 -0.57
10 0.11
11 0.11
12 0.47
13 0.09
14 0.47
15 0.09
16 0.1
17 -0.15
18 -0.15
19 0.37
2 -0.57
20 -0.15
21 -0.15
22 -0.15
23 -0.15
24 -0.15
25 -0.15
26 -0.15
3 -0.84
37 0.15
38 0.15
4 -0.57
42 0.15
43 0.15
44 0.15
45 0.15
46 0.15
47 0.15
48 0.15
5 0.37
6 0.37

> <PUBCHEM_EFFECTIVE_ROTOR_COUNT>
4.2

> <PUBCHEM_PHARMACOPHORE_FEATURES>
8
1 1 acceptor
1 2 acceptor
1 3 cation
1 4 cation
6 10 11 12 13 14 15 rings
6 13 15 17 18 20 21 rings
6 16 22 23 24 25 26 rings
6 3 5 6 7 8 9 rings

> <PUBCHEM_HEAVY_ATOM_COUNT>
26

> <PUBCHEM_ATOM_DEF_STEREO_COUNT>
0

> <PUBCHEM_ATOM_UDEF_STEREO_COUNT>
0

> <PUBCHEM_BOND_DEF_STEREO_COUNT>
0

> <PUBCHEM_BOND_UDEF_STEREO_COUNT>
0

> <PUBCHEM_ISOTOPIC_ATOM_COUNT>
0

> <PUBCHEM_COMPONENT_COUNT>
1

> <PUBCHEM_CACTVS_TAUTO_COUNT>
1

> <PUBCHEM_CONFORMER_ID>
0009A28500000001

> <PUBCHEM_MMFF94_ENERGY>
99.6361

> <PUBCHEM_FEATURE_SELFOVERLAP>
40.62

> <PUBCHEM_SHAPE_FINGERPRINT>
10165383 225 16964091951822550309
10688039 33 18335138699998760689
1100329 8 17183617694102197146
11578080 2 12545145798732510391
12160290 23 18127706932373701589
12293681 4 18337106774916567391
12422481 6 18058188145412896571
12553582 1 18269828878157298902
12730499 353 16967455885894066469
12788726 201 18193538005153741921
13004483 165 18410570695401902507
13134695 92 18196933486239322077
13135754 10 18269292174305794990
13140716 1 18411703192368079009
13149001 5 17121722924794320030
133893 2 17548111777477724245
13540713 4 17986387794621344598
13965767 371 17129894688807466419
14178342 30 18190736445611308346
14363568 33 17975704101214672612
14790565 3 17400363841628839484
14866123 147 17975694991752665971
14955137 171 17833279988140072280
15927050 60 17617096902147122371
17138139 8 17550340148620129685
17980427 23 17774455953288079851
1813 80 18271256026521611638
19319366 153 14455061839162993324
19591789 44 16823063118317801572
20600515 1 17968105230611159191
20739085 24 18268723881244414640
21041028 32 18411701014676955676
21049683 118 17690533322420676241
21120745 212 18265639665583208812
21641784 216 18262534658000231484
23175994 123 18334853969933023815
23558518 356 18193555554073576254
23559900 14 17676482886910393806
23845131 108 17543916702937984241
283562 15 18337663131620773450
3380486 145 18054764411774005869
3383291 50 16250266385673285759
350125 39 18342735209404665600
3886686 26 17397792741388191794
5104073 3 18196637520660627810
6004065 56 18195796586979971239
70251023 43 18057858347379811118
7097593 13 17979640357332295651
79837 15 17908142079658055904
81228 2 18264222313437112503
9981440 41 17626069020393495170

> <PUBCHEM_SHAPE_MULTIPOLES>
513.37
7.58
5.07
1.49
4.8
6.52
-0.39
-7.28
2.62
-3.63
0.79
-1.11
-0.14
0.81

> <PUBCHEM_SHAPE_SELFOVERLAP>
1127.135

> <PUBCHEM_SHAPE_VOLUME>
275.9

> <PUBCHEM_COORDINATE_TYPE>
2
5
10

$$$$
