6521640
  -OEChem-01171811483D

 53 56  0     0  0  0  0  0  0999 V2000
    6.1665   -1.7182    0.1741 S   0  0  0  0  0  0  0  0  0  0  0  0
   -4.8999   -1.0750    1.0296 S   0  0  0  0  0  0  0  0  0  0  0  0
  -10.8060    0.4601   -0.9571 F   0  0  0  0  0  0  0  0  0  0  0  0
    6.1440   -1.7132    1.6312 O   0  0  0  0  0  0  0  0  0  0  0  0
    6.9367   -2.7393   -0.5235 O   0  0  0  0  0  0  0  0  0  0  0  0
    7.4841    2.4729   -1.1050 O   0  0  0  0  0  0  0  0  0  0  0  0
   -0.7765   -1.3157   -0.6296 O   0  0  0  0  0  0  0  0  0  0  0  0
   -2.5229    1.8111    0.2453 O   0  0  0  0  0  0  0  0  0  0  0  0
   -2.9232   -2.4566    2.0747 O   0  0  0  0  0  0  0  0  0  0  0  0
    6.6799   -0.1813   -0.3695 N   0  0  0  0  0  0  0  0  0  0  0  0
   -2.4547   -0.3167    1.2325 N   0  0  0  0  0  0  0  0  0  0  0  0
    1.1156   -0.9322    0.7089 N   0  0  0  0  0  0  0  0  0  0  0  0
    4.5240   -1.7957   -0.4129 C   0  0  0  0  0  0  0  0  0  0  0  0
    2.1790   -1.4020   -0.0980 C   0  0  0  0  0  0  0  0  0  0  0  0
    3.4761   -1.3325    0.3825 C   0  0  0  0  0  0  0  0  0  0  0  0
   -1.0375   -0.3284    1.5508 C   0  0  0  0  0  0  0  0  0  0  0  0
    5.9703    1.0270    0.0746 C   0  0  0  0  0  0  0  0  0  0  0  0
    4.2599   -2.3219   -1.6775 C   0  0  0  0  0  0  0  0  0  0  0  0
   -0.2421   -0.9195    0.4010 C   0  0  0  0  0  0  0  0  0  0  0  0
    1.8998   -1.9216   -1.3512 C   0  0  0  0  0  0  0  0  0  0  0  0
    2.9477   -2.3847   -2.1467 C   0  0  0  0  0  0  0  0  0  0  0  0
   -3.0546    0.7694    0.6042 C   0  0  0  0  0  0  0  0  0  0  0  0
   -4.4970    0.4792    0.4181 C   0  0  0  0  0  0  0  0  0  0  0  0
    6.9291    2.1800    0.0852 C   0  0  0  0  0  0  0  0  0  0  0  0
   -3.2494   -1.4073    1.5395 C   0  0  0  0  0  0  0  0  0  0  0  0
   -5.3494    1.3309   -0.1540 C   0  0  0  0  0  0  0  0  0  0  0  0
    7.3552    3.0003    1.0758 C   0  0  0  0  0  0  0  0  0  0  0  0
   -6.7905    1.0997   -0.3665 C   0  0  0  0  0  0  0  0  0  0  0  0
    8.2616    3.8923    0.4547 C   0  0  0  0  0  0  0  0  0  0  0  0
    8.3053    3.5303   -0.8715 C   0  0  0  0  0  0  0  0  0  0  0  0
   -7.2174    0.5269   -1.5527 C   0  0  0  0  0  0  0  0  0  0  0  0
   -7.6867    1.4614    0.6252 C   0  0  0  0  0  0  0  0  0  0  0  0
   -8.5805    0.3093   -1.7530 C   0  0  0  0  0  0  0  0  0  0  0  0
   -9.0499    1.2436    0.4249 C   0  0  0  0  0  0  0  0  0  0  0  0
   -9.4968    0.6675   -0.7642 C   0  0  0  0  0  0  0  0  0  0  0  0
    3.6697   -0.9179    1.3680 H   0  0  0  0  0  0  0  0  0  0  0  0
   -0.6955    0.6970    1.7280 H   0  0  0  0  0  0  0  0  0  0  0  0
   -0.8669   -0.9313    2.4492 H   0  0  0  0  0  0  0  0  0  0  0  0
    7.1275   -0.1249   -1.2932 H   0  0  0  0  0  0  0  0  0  0  0  0
    5.5585    0.8907    1.0793 H   0  0  0  0  0  0  0  0  0  0  0  0
    5.1500    1.2433   -0.6173 H   0  0  0  0  0  0  0  0  0  0  0  0
    5.0607   -2.6818   -2.3173 H   0  0  0  0  0  0  0  0  0  0  0  0
    1.3925   -0.5635    1.6164 H   0  0  0  0  0  0  0  0  0  0  0  0
    0.9142   -2.0035   -1.7845 H   0  0  0  0  0  0  0  0  0  0  0  0
    2.7435   -2.7929   -3.1324 H   0  0  0  0  0  0  0  0  0  0  0  0
   -5.0003    2.2962   -0.5142 H   0  0  0  0  0  0  0  0  0  0  0  0
    7.0644    2.9767    2.1161 H   0  0  0  0  0  0  0  0  0  0  0  0
    8.8140    4.6983    0.9159 H   0  0  0  0  0  0  0  0  0  0  0  0
    8.8417    3.9042   -1.7313 H   0  0  0  0  0  0  0  0  0  0  0  0
   -6.5132    0.2442   -2.3307 H   0  0  0  0  0  0  0  0  0  0  0  0
   -7.3509    1.9119    1.5555 H   0  0  0  0  0  0  0  0  0  0  0  0
   -8.9290   -0.1388   -2.6788 H   0  0  0  0  0  0  0  0  0  0  0  0
   -9.7636    1.5229    1.1943 H   0  0  0  0  0  0  0  0  0  0  0  0
  1  4  2  0  0  0  0
  1  5  2  0  0  0  0
  1 10  1  0  0  0  0
  1 13  1  0  0  0  0
  2 23  1  0  0  0  0
  2 25  1  0  0  0  0
  3 35  1  0  0  0  0
  6 24  1  0  0  0  0
  6 30  1  0  0  0  0
  7 19  2  0  0  0  0
  8 22  2  0  0  0  0
  9 25  2  0  0  0  0
 10 17  1  0  0  0  0
 10 39  1  0  0  0  0
 11 16  1  0  0  0  0
 11 22  1  0  0  0  0
 11 25  1  0  0  0  0
 12 14  1  0  0  0  0
 12 19  1  0  0  0  0
 12 43  1  0  0  0  0
 13 15  1  0  0  0  0
 13 18  2  0  0  0  0
 14 15  2  0  0  0  0
 14 20  1  0  0  0  0
 15 36  1  0  0  0  0
 16 19  1  0  0  0  0
 16 37  1  0  0  0  0
 16 38  1  0  0  0  0
 17 24  1  0  0  0  0
 17 40  1  0  0  0  0
 17 41  1  0  0  0  0
 18 21  1  0  0  0  0
 18 42  1  0  0  0  0
 20 21  2  0  0  0  0
 20 44  1  0  0  0  0
 21 45  1  0  0  0  0
 22 23  1  0  0  0  0
 23 26  2  0  0  0  0
 24 27  2  0  0  0  0
 26 28  1  0  0  0  0
 26 46  1  0  0  0  0
 27 29  1  0  0  0  0
 27 47  1  0  0  0  0
 28 31  2  0  0  0  0
 28 32  1  0  0  0  0
 29 30  2  0  0  0  0
 29 48  1  0  0  0  0
 30 49  1  0  0  0  0
 31 33  1  0  0  0  0
 31 50  1  0  0  0  0
 32 34  2  0  0  0  0
 32 51  1  0  0  0  0
 33 35  2  0  0  0  0
 33 52  1  0  0  0  0
 34 35  1  0  0  0  0
 34 53  1  0  0  0  0
M  END
> <PUBCHEM_COMPOUND_CID>
6521640

> <PUBCHEM_CONFORMER_RMSD>
1

> <PUBCHEM_CONFORMER_DIVERSEORDER>
2
293
241
131
138
126
124
228
188
80
145
104
203
329
320
41
38
247
74
282
73
308
139
251
336
51
229
177
125
344
236
43
19
60
266
214
239
48
233
113
173
269
208
202
121
321
99
272
330
217
27
231
273
127
84
297
69
278
205
348
193
130
87
212
98
220
30
101
343
184
50
179
192
206
166
347
161
56
300
175
118
224
210
314
156
211
148
288
221
306
95
332
18
168
261
256
158
307
311
215
68
304
258
100
191
318
246
151
242
120
92
16
274
61
1
289
115
53
255
44
154
334
284
244
182
164
301
262
197
263
150
21
286
218
94
159
155
312
89
294
346
55
270
243
324
57
72
253
260
146
93
326
313
333
76
305
135
85
216
116
303
204
187
279
14
298
257
309
149
132
137
106
183
345
46
96
189
147
315
180
152
250
79
91
230
328
136
337
194
105
142
123
276
341
66
317
325
103
227
226
77
167
223
271
185
83
267
25
165
240
339
163
277
109
143
117
52
209
107
122
181
316
196
97
114
265
338
35
174
322
275
12
176
112
64
110
75
200
254
111
29
11
299
108
160
129
141
24
342
199
8
169
190
23
133
232
291
170
5
102
310
207
295
285
290
40
264
86
237
248
245
302
153
67
172
70
198
178
39
88
171
283
78
195
280
128
62
157
9
59
292
252
340
225
335
65
162
71
249
119
34
6
26
140
287
219
36
238
32
331
323
3
10
134
213
22
42
7
234
259
20
222
4
90
82
13
54
201
186
235
45
63
281
31
15
327
49
47
319
81
296
37
28
144
17
33
268
58

> <PUBCHEM_MMFF94_PARTIAL_CHARGES>
49
1 1.45
10 -0.91
11 -0.42
12 -0.55
13 -0.01
14 0.12
15 -0.15
16 0.36
17 0.54
18 -0.15
19 0.57
2 -0.24
20 -0.15
21 -0.15
22 0.62
23 0.12
24 -0.04
25 0.77
26 -0.18
27 -0.15
28 0.03
29 -0.15
3 -0.19
30 -0.01
31 -0.15
32 -0.15
33 -0.15
34 -0.15
35 0.19
36 0.15
39 0.42
4 -0.65
42 0.15
43 0.37
44 0.15
45 0.15
46 0.15
47 0.15
48 0.15
49 0.15
5 -0.65
50 0.15
51 0.15
52 0.15
53 0.15
6 -0.28
7 -0.57
8 -0.57
9 -0.57

> <PUBCHEM_EFFECTIVE_ROTOR_COUNT>
9.4

> <PUBCHEM_PHARMACOPHORE_FEATURES>
11
1 10 donor
1 12 donor
1 4 acceptor
1 5 acceptor
1 6 acceptor
1 7 acceptor
1 8 acceptor
5 2 11 22 23 25 rings
5 6 24 27 29 30 rings
6 13 14 15 18 20 21 rings
6 28 31 32 33 34 35 rings

> <PUBCHEM_HEAVY_ATOM_COUNT>
35

> <PUBCHEM_ATOM_DEF_STEREO_COUNT>
0

> <PUBCHEM_ATOM_UDEF_STEREO_COUNT>
0

> <PUBCHEM_BOND_DEF_STEREO_COUNT>
1

> <PUBCHEM_BOND_UDEF_STEREO_COUNT>
0

> <PUBCHEM_ISOTOPIC_ATOM_COUNT>
0

> <PUBCHEM_COMPONENT_COUNT>
1

> <PUBCHEM_CACTVS_TAUTO_COUNT>
2

> <PUBCHEM_CONFORMER_ID>
0063832800000002

> <PUBCHEM_MMFF94_ENERGY>
60.2787

> <PUBCHEM_FEATURE_SELFOVERLAP>
55.842

> <PUBCHEM_SHAPE_FINGERPRINT>
10533779 1 18128250276941503912
10533779 47 9223226382457497101
10577160 103 18338797922637010947
10835480 77 18408608084315629016
11135609 127 18342454851319515634
11456790 92 12612752410997725077
11607047 141 17313651665438138320
11693224 71 18187639224086964658
11828042 226 17917147320434109985
12758862 11 18259989271433267521
12838862 33 16877935041456688623
13383668 254 18340503175579305289
13911987 19 17704080602960422282
14142895 15 18272369789135829077
14400156 162 9511471043474964005
14400156 266 14908190733609963291
15131766 46 18197772401217244812
15350500 55 18335140951511546868
15419008 145 12540963085170912591
15840311 113 18409731747166756020
16991971 28 14476961211917462523
16993089 31 10952056645322030113
17852330 162 18200306758181169623
20105231 36 13110959834421445749
20554085 129 16950563276684952161
20737093 133 17831022691223040148
21033648 29 17676205810459917234
21362857 166 16200161937547937668
21585482 111 18263086669088966580
21792965 25 10738098254289729367
23522609 53 16772697436844013747
23528521 120 18409158927938040957
25269216 80 14907909284076248129
4258327 124 18060701714555870975
437795 160 16805611408438415675
4403749 210 18263931097280305587
44880568 143 18128259991471198581
45270241 37 17988085487133313455
45377200 153 13326276139937466997
4561138 5 18261669265155331162
4625314 4 18342178856283933046
54583773 228 18201154460192194375
5470011 282 18060136514424565615

> <PUBCHEM_SHAPE_MULTIPOLES>
670.55
34.86
3.69
1.63
30.34
2.09
0.12
27.97
8.83
-12.9
0.41
0.85
-0.8
1.51

> <PUBCHEM_SHAPE_SELFOVERLAP>
1432.798

> <PUBCHEM_SHAPE_VOLUME>
374.9

> <PUBCHEM_COORDINATE_TYPE>
2
5
10

$$$$
