890662
  -OEChem-01171811493D

 33 35  0     0  0  0  0  0  0999 V2000
   -2.8128   -0.4503    2.1750 O   0  0  0  0  0  0  0  0  0  0  0  0
   -0.2683   -0.2392   -0.1140 N   0  0  0  0  0  0  0  0  0  0  0  0
    1.8240    1.5868    0.0235 N   0  0  0  0  0  0  0  0  0  0  0  0
    1.0842   -0.6644   -0.1012 C   0  0  0  0  0  0  0  0  0  0  0  0
   -1.3614   -1.1526   -0.1841 C   0  0  0  0  0  0  0  0  0  0  0  0
    2.1115    0.2725   -0.0320 C   0  0  0  0  0  0  0  0  0  0  0  0
   -2.6680   -0.4095   -0.2174 C   0  0  0  0  0  0  0  0  0  0  0  0
    3.4408   -0.1997   -0.0222 C   0  0  0  0  0  0  0  0  0  0  0  0
    1.3460   -2.0354   -0.1600 C   0  0  0  0  0  0  0  0  0  0  0  0
    3.7043   -1.5787   -0.0812 C   0  0  0  0  0  0  0  0  0  0  0  0
   -3.3285   -0.0963    0.9644 C   0  0  0  0  0  0  0  0  0  0  0  0
    2.6575   -2.4935   -0.1500 C   0  0  0  0  0  0  0  0  0  0  0  0
   -3.2016   -0.0441   -1.4476 C   0  0  0  0  0  0  0  0  0  0  0  0
    4.4753    0.7430    0.0476 C   0  0  0  0  0  0  0  0  0  0  0  0
   -4.5405    0.5923    0.9155 C   0  0  0  0  0  0  0  0  0  0  0  0
   -4.4135    0.6446   -1.4965 C   0  0  0  0  0  0  0  0  0  0  0  0
    4.1822    2.0979    0.1049 C   0  0  0  0  0  0  0  0  0  0  0  0
    2.8516    2.4640    0.0901 C   0  0  0  0  0  0  0  0  0  0  0  0
   -5.0830    0.9627   -0.3149 C   0  0  0  0  0  0  0  0  0  0  0  0
   -1.3542   -1.8744    0.6418 H   0  0  0  0  0  0  0  0  0  0  0  0
   -1.2948   -1.7549   -1.1007 H   0  0  0  0  0  0  0  0  0  0  0  0
   -0.4354    0.7600   -0.0614 H   0  0  0  0  0  0  0  0  0  0  0  0
    0.5619   -2.7838   -0.2147 H   0  0  0  0  0  0  0  0  0  0  0  0
    4.7275   -1.9480   -0.0739 H   0  0  0  0  0  0  0  0  0  0  0  0
    2.8659   -3.5581   -0.1955 H   0  0  0  0  0  0  0  0  0  0  0  0
   -2.6891   -0.2837   -2.3753 H   0  0  0  0  0  0  0  0  0  0  0  0
    5.5157    0.4263    0.0578 H   0  0  0  0  0  0  0  0  0  0  0  0
   -5.0671    0.8434    1.8323 H   0  0  0  0  0  0  0  0  0  0  0  0
   -4.8357    0.9338   -2.4545 H   0  0  0  0  0  0  0  0  0  0  0  0
    4.9697    2.8403    0.1594 H   0  0  0  0  0  0  0  0  0  0  0  0
    2.5619    3.5088    0.1327 H   0  0  0  0  0  0  0  0  0  0  0  0
   -6.0266    1.4992   -0.3530 H   0  0  0  0  0  0  0  0  0  0  0  0
   -1.8549   -0.5901    2.1034 H   0  0  0  0  0  0  0  0  0  0  0  0
  1 11  1  0  0  0  0
  1 33  1  0  0  0  0
  2  4  1  0  0  0  0
  2  5  1  0  0  0  0
  2 22  1  0  0  0  0
  3  6  1  0  0  0  0
  3 18  2  0  0  0  0
  4  6  1  0  0  0  0
  4  9  2  0  0  0  0
  5  7  1  0  0  0  0
  5 20  1  0  0  0  0
  5 21  1  0  0  0  0
  6  8  2  0  0  0  0
  7 11  1  0  0  0  0
  7 13  2  0  0  0  0
  8 10  1  0  0  0  0
  8 14  1  0  0  0  0
  9 12  1  0  0  0  0
  9 23  1  0  0  0  0
 10 12  2  0  0  0  0
 10 24  1  0  0  0  0
 11 15  2  0  0  0  0
 12 25  1  0  0  0  0
 13 16  1  0  0  0  0
 13 26  1  0  0  0  0
 14 17  2  0  0  0  0
 14 27  1  0  0  0  0
 15 19  1  0  0  0  0
 15 28  1  0  0  0  0
 16 19  2  0  0  0  0
 16 29  1  0  0  0  0
 17 18  1  0  0  0  0
 17 30  1  0  0  0  0
 18 31  1  0  0  0  0
 19 32  1  0  0  0  0
M  END
> <PUBCHEM_COMPOUND_CID>
890662

> <PUBCHEM_CONFORMER_RMSD>
0.6

> <PUBCHEM_CONFORMER_DIVERSEORDER>
2
27
31
22
26
23
9
17
29
4
28
30
5
16
10
32
19
14
35
7
1
36
25
21
12
6
18
33
37
3
13
34
8
24
15
20
11

> <PUBCHEM_MMFF94_PARTIAL_CHARGES>
30
1 -0.53
10 -0.15
11 0.08
12 -0.15
13 -0.15
14 -0.15
15 -0.15
16 -0.15
17 -0.15
18 0.16
19 -0.15
2 -0.87
22 0.4
23 0.15
24 0.15
25 0.15
26 0.15
27 0.15
28 0.15
29 0.15
3 -0.62
30 0.15
31 0.15
32 0.15
33 0.45
4 0.1
5 0.51
6 0.31
7 -0.14
9 -0.15

> <PUBCHEM_EFFECTIVE_ROTOR_COUNT>
3

> <PUBCHEM_PHARMACOPHORE_FEATURES>
7
1 1 donor
1 2 cation
1 2 donor
1 3 acceptor
6 3 6 8 14 17 18 rings
6 4 6 8 9 10 12 rings
6 7 11 13 15 16 19 rings

> <PUBCHEM_HEAVY_ATOM_COUNT>
19

> <PUBCHEM_ATOM_DEF_STEREO_COUNT>
0

> <PUBCHEM_ATOM_UDEF_STEREO_COUNT>
0

> <PUBCHEM_BOND_DEF_STEREO_COUNT>
0

> <PUBCHEM_BOND_UDEF_STEREO_COUNT>
0

> <PUBCHEM_ISOTOPIC_ATOM_COUNT>
0

> <PUBCHEM_COMPONENT_COUNT>
1

> <PUBCHEM_CACTVS_TAUTO_COUNT>
3

> <PUBCHEM_CONFORMER_ID>
000D972600000002

> <PUBCHEM_MMFF94_ENERGY>
67.4753

> <PUBCHEM_FEATURE_SELFOVERLAP>
35.553

> <PUBCHEM_SHAPE_FINGERPRINT>
10411042 1 17907296547101543558
11370993 144 18261116214785138221
11471102 20 18411979148580625214
12236239 1 17632856408344432151
12403259 415 17967533429151587941
13134695 92 18337669694626064694
13631057 29 17913196839901929271
13675066 3 17967256398970227743
14178342 30 16443349814302294931
14790565 3 18047478013285718516
14848178 96 18127967710172265568
15375358 24 18113334210938105155
1601671 61 18260831544595723172
17818456 19 16555385440451039059
1813 80 17628087698115025206
18186145 218 18342183301468991574
19862831 5 17346600798131237617
20157964 124 18411978032194914549
20612939 158 18413671292670190846
20645477 56 18113053840121456615
20645477 70 18412261701330695030
21033648 29 17676198040542215501
21033650 10 15553908635955749682
21065201 7 16515691009294044107
212916 134 16298378025427642269
22289505 5 18337383838634954228
231179 274 18334573555549166238
23402655 69 18201435917561709308
23557571 272 17530690935138208793
23559900 14 18341047441612630466
3268164 11 15195283089172590969
335352 9 18411698799449829358
34797466 226 14548729659782058089
3545911 37 18409732884795064143
4409770 3 15177311249125274183
474 4 18412824715681894546
5104073 3 18335699463888058947
543358 83 18343021056230438790
57724786 102 18336558148299796293
602551 16 16226056620869785130
633830 44 18059587879085529654
8272917 22 18343022155610477406
9971528 1 17988076691372664910

> <PUBCHEM_SHAPE_MULTIPOLES>
375.18
11.04
2.23
1.14
6.5
0.06
-0.22
3.93
0.34
-3.48
0.06
1.84
0
0.36

> <PUBCHEM_SHAPE_SELFOVERLAP>
827.923

> <PUBCHEM_SHAPE_VOLUME>
200.8

> <PUBCHEM_COORDINATE_TYPE>
2
5
10

$$$$
