4998861
  -OEChem-01171811503D

 30 31  0     0  0  0  0  0  0999 V2000
   -0.4445   -1.9494    0.2148 O   0  0  0  0  0  0  0  0  0  0  0  0
    0.2707    0.3094   -0.0343 N   0  0  0  0  0  0  0  0  0  0  0  0
   -0.3379    1.5553   -0.1686 N   0  0  0  0  0  0  0  0  0  0  0  0
   -1.9416   -0.0663    0.0130 C   0  0  0  0  0  0  0  0  0  0  0  0
   -1.6266    1.3539   -0.1413 C   0  0  0  0  0  0  0  0  0  0  0  0
   -0.6386   -0.7561    0.0849 C   0  0  0  0  0  0  0  0  0  0  0  0
   -3.1371   -0.6474    0.0786 C   0  0  0  0  0  0  0  0  0  0  0  0
    1.6459    0.1363   -0.0196 C   0  0  0  0  0  0  0  0  0  0  0  0
   -2.6504    2.4306   -0.2555 C   0  0  0  0  0  0  0  0  0  0  0  0
   -3.2995   -2.1353    0.2398 C   0  0  0  0  0  0  0  0  0  0  0  0
   -4.4181    0.1392   -0.0043 C   0  0  0  0  0  0  0  0  0  0  0  0
    2.2138   -1.0492   -0.4995 C   0  0  0  0  0  0  0  0  0  0  0  0
    2.4799    1.1452    0.4755 C   0  0  0  0  0  0  0  0  0  0  0  0
    3.5977   -1.2236   -0.4843 C   0  0  0  0  0  0  0  0  0  0  0  0
    3.8637    0.9709    0.4904 C   0  0  0  0  0  0  0  0  0  0  0  0
    4.4226   -0.2135    0.0104 C   0  0  0  0  0  0  0  0  0  0  0  0
   -3.2792    2.2891   -1.1351 H   0  0  0  0  0  0  0  0  0  0  0  0
   -2.1337    3.3879   -0.3898 H   0  0  0  0  0  0  0  0  0  0  0  0
   -3.2345    2.5163    0.6616 H   0  0  0  0  0  0  0  0  0  0  0  0
   -3.0660   -2.4383    1.2655 H   0  0  0  0  0  0  0  0  0  0  0  0
   -4.3255   -2.4551    0.0287 H   0  0  0  0  0  0  0  0  0  0  0  0
   -2.6700   -2.6911   -0.4618 H   0  0  0  0  0  0  0  0  0  0  0  0
   -4.5446    0.6047   -0.9846 H   0  0  0  0  0  0  0  0  0  0  0  0
   -5.2861   -0.5203    0.1165 H   0  0  0  0  0  0  0  0  0  0  0  0
   -4.5069    0.8631    0.8083 H   0  0  0  0  0  0  0  0  0  0  0  0
    1.6173   -1.8447   -0.9348 H   0  0  0  0  0  0  0  0  0  0  0  0
    2.0678    2.0745    0.8612 H   0  0  0  0  0  0  0  0  0  0  0  0
    4.0343   -2.1415   -0.8673 H   0  0  0  0  0  0  0  0  0  0  0  0
    4.5062    1.7569    0.8767 H   0  0  0  0  0  0  0  0  0  0  0  0
    5.5002   -0.3484    0.0200 H   0  0  0  0  0  0  0  0  0  0  0  0
  1  6  2  0  0  0  0
  2  3  1  0  0  0  0
  2  6  1  0  0  0  0
  2  8  1  0  0  0  0
  3  5  2  0  0  0  0
  4  5  1  0  0  0  0
  4  6  1  0  0  0  0
  4  7  2  0  0  0  0
  5  9  1  0  0  0  0
  7 10  1  0  0  0  0
  7 11  1  0  0  0  0
  8 12  2  0  0  0  0
  8 13  1  0  0  0  0
  9 17  1  0  0  0  0
  9 18  1  0  0  0  0
  9 19  1  0  0  0  0
 10 20  1  0  0  0  0
 10 21  1  0  0  0  0
 10 22  1  0  0  0  0
 11 23  1  0  0  0  0
 11 24  1  0  0  0  0
 11 25  1  0  0  0  0
 12 14  1  0  0  0  0
 12 26  1  0  0  0  0
 13 15  2  0  0  0  0
 13 27  1  0  0  0  0
 14 16  2  0  0  0  0
 14 28  1  0  0  0  0
 15 16  1  0  0  0  0
 15 29  1  0  0  0  0
 16 30  1  0  0  0  0
M  END
> <PUBCHEM_COMPOUND_CID>
4998861

> <PUBCHEM_CONFORMER_RMSD>
0.6

> <PUBCHEM_CONFORMER_DIVERSEORDER>
1

> <PUBCHEM_MMFF94_PARTIAL_CHARGES>
21
1 -0.57
10 0.14
11 0.14
12 -0.15
13 -0.15
14 -0.15
15 -0.15
16 -0.15
2 -0.11
26 0.15
27 0.15
28 0.15
29 0.15
3 -0.51
30 0.15
4 0.03
5 0.37
6 0.62
7 -0.28
8 0.12
9 0.06

> <PUBCHEM_EFFECTIVE_ROTOR_COUNT>
1.2

> <PUBCHEM_PHARMACOPHORE_FEATURES>
5
1 1 acceptor
1 3 acceptor
3 7 10 11 hydrophobe
5 2 3 4 5 6 rings
6 8 12 13 14 15 16 rings

> <PUBCHEM_HEAVY_ATOM_COUNT>
16

> <PUBCHEM_ATOM_DEF_STEREO_COUNT>
0

> <PUBCHEM_ATOM_UDEF_STEREO_COUNT>
0

> <PUBCHEM_BOND_DEF_STEREO_COUNT>
0

> <PUBCHEM_BOND_UDEF_STEREO_COUNT>
0

> <PUBCHEM_ISOTOPIC_ATOM_COUNT>
0

> <PUBCHEM_COMPONENT_COUNT>
1

> <PUBCHEM_CACTVS_TAUTO_COUNT>
1

> <PUBCHEM_CONFORMER_ID>
004C46CD00000001

> <PUBCHEM_MMFF94_ENERGY>
63.2292

> <PUBCHEM_FEATURE_SELFOVERLAP>
25.371

> <PUBCHEM_SHAPE_FINGERPRINT>
10608611 8 18413384332999488280
11132069 177 18410012156501018283
12032990 46 18337394941014611739
12236239 1 17167863058628395784
13214271 11 18341891935156276535
13296908 3 18413107238815196244
13581323 91 18408602582689148478
14144814 61 18410291393915792850
14325111 11 18411418376006908716
14614273 12 18041552530200253549
14866123 147 16472351280521491370
15196674 1 18411138073329423066
15219456 202 18272086072170332916
15536298 74 18343302561229741890
16945 1 18336554926831068557
17802600 8 18413103957407493024
17804303 29 18412268358350233221
17834074 16 18413390929821107670
18186145 218 18201444610443679808
19141452 34 18273218638267618479
200 152 17561078107640106645
20510252 161 18342457019450202137
20528008 55 18342736346942920114
20645477 56 18336267821537744549
20645477 70 17917993832628423430
21029758 11 18342733031618947489
21267235 1 18410583876835940054
21501502 16 18119242866251241179
221490 88 18412832386968433694
22943178 12 18343298128955426292
23402539 116 18337663204492520046
23557571 272 18343028752754136028
23559900 14 18269272362270745166
2748010 2 18411419470938635372
2871803 45 18409162207995335647
4214541 1 18411137991893907940
43471831 8 18187360974293290867
474 4 16517107318221412916
5104073 3 18341330011889781314
69090 78 18201715167318371967
7364860 26 18267026248709338932
77779 3 18412546500764767976
8809292 202 18335143119641785059
9709674 26 18412831282824501502

> <PUBCHEM_SHAPE_MULTIPOLES>
313.44
8.19
2.1
0.68
2.27
0.19
0
-0.71
0.2
-1.47
-0.03
0.15
0
0.7

> <PUBCHEM_SHAPE_SELFOVERLAP>
669.534

> <PUBCHEM_SHAPE_VOLUME>
175.1

> <PUBCHEM_COORDINATE_TYPE>
2
5
10

$$$$
