785812
  -OEChem-01171811583D

 31 32  0     0  0  0  0  0  0999 V2000
   -4.2529    1.1067    0.4555 S   0  0  0  0  0  0  0  0  0  0  0  0
   -1.5748   -0.4717   -0.2613 N   0  0  0  0  0  0  0  0  0  0  0  0
   -1.5586    0.5657    0.7814 C   0  0  0  0  0  0  0  0  0  0  0  0
   -2.8717   -1.1631   -0.3196 C   0  0  0  0  0  0  0  0  0  0  0  0
   -0.5011   -1.4392   -0.0231 C   0  0  0  0  0  0  0  0  0  0  0  0
   -2.5405    1.7001    0.4978 C   0  0  0  0  0  0  0  0  0  0  0  0
   -4.0135   -0.2385   -0.7358 C   0  0  0  0  0  0  0  0  0  0  0  0
    0.8557   -0.7865   -0.0385 C   0  0  0  0  0  0  0  0  0  0  0  0
    1.1648    0.1245   -1.0389 C   0  0  0  0  0  0  0  0  0  0  0  0
    1.7781   -1.1053    0.9483 C   0  0  0  0  0  0  0  0  0  0  0  0
    3.3569    0.4162   -0.0664 C   0  0  0  0  0  0  0  0  0  0  0  0
    2.4219    0.7288   -1.0529 C   0  0  0  0  0  0  0  0  0  0  0  0
    3.0351   -0.5009    0.9343 C   0  0  0  0  0  0  0  0  0  0  0  0
    4.7005    1.0632   -0.0808 C   0  0  0  0  0  0  0  0  0  0  0  0
   -0.5795    1.0496    0.8612 H   0  0  0  0  0  0  0  0  0  0  0  0
   -1.7633    0.1289    1.7691 H   0  0  0  0  0  0  0  0  0  0  0  0
   -3.1047   -1.6495    0.6375 H   0  0  0  0  0  0  0  0  0  0  0  0
   -2.8175   -1.9613   -1.0712 H   0  0  0  0  0  0  0  0  0  0  0  0
   -0.4998   -2.2030   -0.8119 H   0  0  0  0  0  0  0  0  0  0  0  0
   -0.6631   -1.9633    0.9287 H   0  0  0  0  0  0  0  0  0  0  0  0
   -2.4640    2.4607    1.2816 H   0  0  0  0  0  0  0  0  0  0  0  0
   -2.3084    2.1888   -0.4549 H   0  0  0  0  0  0  0  0  0  0  0  0
   -3.8255    0.1925   -1.7254 H   0  0  0  0  0  0  0  0  0  0  0  0
   -4.9461   -0.8082   -0.8002 H   0  0  0  0  0  0  0  0  0  0  0  0
    0.4562    0.3720   -1.8243 H   0  0  0  0  0  0  0  0  0  0  0  0
    1.5397   -1.8182    1.7325 H   0  0  0  0  0  0  0  0  0  0  0  0
    2.6614    1.4410   -1.8381 H   0  0  0  0  0  0  0  0  0  0  0  0
    3.7545   -0.7512    1.7095 H   0  0  0  0  0  0  0  0  0  0  0  0
    5.4618    0.4032    0.3488 H   0  0  0  0  0  0  0  0  0  0  0  0
    5.0171    1.2936   -1.1038 H   0  0  0  0  0  0  0  0  0  0  0  0
    4.6761    1.9926    0.4966 H   0  0  0  0  0  0  0  0  0  0  0  0
  1  6  1  0  0  0  0
  1  7  1  0  0  0  0
  2  3  1  0  0  0  0
  2  4  1  0  0  0  0
  2  5  1  0  0  0  0
  3  6  1  0  0  0  0
  3 15  1  0  0  0  0
  3 16  1  0  0  0  0
  4  7  1  0  0  0  0
  4 17  1  0  0  0  0
  4 18  1  0  0  0  0
  5  8  1  0  0  0  0
  5 19  1  0  0  0  0
  5 20  1  0  0  0  0
  6 21  1  0  0  0  0
  6 22  1  0  0  0  0
  7 23  1  0  0  0  0
  7 24  1  0  0  0  0
  8  9  2  0  0  0  0
  8 10  1  0  0  0  0
  9 12  1  0  0  0  0
  9 25  1  0  0  0  0
 10 13  2  0  0  0  0
 10 26  1  0  0  0  0
 11 12  2  0  0  0  0
 11 13  1  0  0  0  0
 11 14  1  0  0  0  0
 12 27  1  0  0  0  0
 13 28  1  0  0  0  0
 14 29  1  0  0  0  0
 14 30  1  0  0  0  0
 14 31  1  0  0  0  0
M  END
> <PUBCHEM_COMPOUND_CID>
785812

> <PUBCHEM_CONFORMER_RMSD>
0.6

> <PUBCHEM_CONFORMER_DIVERSEORDER>
1
3
5
4
2

> <PUBCHEM_MMFF94_PARTIAL_CHARGES>
18
1 -0.46
10 -0.15
11 -0.14
12 -0.15
13 -0.15
14 0.14
2 -0.81
25 0.15
26 0.15
27 0.15
28 0.15
3 0.27
4 0.27
5 0.41
6 0.23
7 0.23
8 -0.14
9 -0.15

> <PUBCHEM_EFFECTIVE_ROTOR_COUNT>
3.2

> <PUBCHEM_PHARMACOPHORE_FEATURES>
3
1 2 cation
6 1 2 3 4 6 7 rings
6 8 9 10 11 12 13 rings

> <PUBCHEM_HEAVY_ATOM_COUNT>
14

> <PUBCHEM_ATOM_DEF_STEREO_COUNT>
0

> <PUBCHEM_ATOM_UDEF_STEREO_COUNT>
0

> <PUBCHEM_BOND_DEF_STEREO_COUNT>
0

> <PUBCHEM_BOND_UDEF_STEREO_COUNT>
0

> <PUBCHEM_ISOTOPIC_ATOM_COUNT>
0

> <PUBCHEM_COMPONENT_COUNT>
1

> <PUBCHEM_CACTVS_TAUTO_COUNT>
1

> <PUBCHEM_CONFORMER_ID>
000BFD9400000001

> <PUBCHEM_MMFF94_ENERGY>
31.9932

> <PUBCHEM_FEATURE_SELFOVERLAP>
15.223

> <PUBCHEM_SHAPE_FINGERPRINT>
10465860 228 18265055742955840434
10498660 4 18131351873649554361
10646746 165 18273213101590394336
10980938 120 17822006497899338542
11471102 22 16298385760278717942
12236239 1 18334009501588832663
12251169 10 17385730200628752916
124424 183 14490183934004402967
14144814 61 18187364315772013271
14252887 29 16008744689423578920
14739800 52 18127954486521752352
14897335 6 18408604751278614615
15669948 3 18201428203753343095
15775835 57 18409452470432812512
18186145 218 18040436555625442303
19107657 47 17312818260434114269
200 152 18187357775011815583
20233049 118 18272931626735061712
20279233 1 16271922701362527479
20300324 65 18060699515859428797
20645477 70 16878485861383859562
20711983 171 18272650138741307166
20871999 31 17060328652789897781
21713013 43 13973668525989218437
22169311 14 13767927939873738669
23048698 100 18040992925551556426
23402539 116 18059850692502964876
23402655 69 12679471871376571146
23557571 272 17417815079941538023
23559900 14 17846222120630672598
2838139 119 17701811310241488416
3268164 11 17846487141577246301
3472631 163 18202005400213817181
42 15 11458421336383494485
474 4 17895197761350432852
7364860 26 18127977399365160614
77492 1 18333728026638586707

> <PUBCHEM_SHAPE_MULTIPOLES>
286.98
8.54
1.49
1.03
0.25
0.08
0.02
3.09
-0.01
0.57
-0.15
-0.23
0.01
-0.92

> <PUBCHEM_SHAPE_SELFOVERLAP>
577.337

> <PUBCHEM_SHAPE_VOLUME>
169.9

> <PUBCHEM_COORDINATE_TYPE>
2
5
10

$$$$
