1072882
  -OEChem-01171811503D

 51 55  0     0  0  0  0  0  0999 V2000
    6.2190   -0.5246    1.9685 S   0  0  0  0  0  0  0  0  0  0  0  0
    5.0876    2.0904   -2.1778 O   0  0  0  0  0  0  0  0  0  0  0  0
    4.7301    0.3470   -0.0176 N   0  0  0  0  0  0  0  0  0  0  0  0
    4.0207   -1.6489    1.0213 N   0  0  0  0  0  0  0  0  0  0  0  0
   -0.2823    0.4228    0.6398 N   0  0  0  0  0  0  0  0  0  0  0  0
   -1.3786   -1.9954   -0.1786 N   0  0  0  0  0  0  0  0  0  0  0  0
   -2.8938    1.7204    1.7053 N   0  0  0  0  0  0  0  0  0  0  0  0
   -3.8354   -0.8449   -1.6883 N   0  0  0  0  0  0  0  0  0  0  0  0
    5.0439    1.7489    0.2219 C   0  0  0  0  0  0  0  0  0  0  0  0
    4.1238    0.0430   -1.3063 C   0  0  0  0  0  0  0  0  0  0  0  0
    5.8095    2.3212   -0.9629 C   0  0  0  0  0  0  0  0  0  0  0  0
    4.9275    0.6893   -2.4264 C   0  0  0  0  0  0  0  0  0  0  0  0
    4.8974   -0.5988    0.9378 C   0  0  0  0  0  0  0  0  0  0  0  0
    2.6415   -1.7391    0.7127 C   0  0  0  0  0  0  0  0  0  0  0  0
    0.4852   -0.6755    0.5289 C   0  0  0  0  0  0  0  0  0  0  0  0
    1.8451   -0.6137    0.8244 C   0  0  0  0  0  0  0  0  0  0  0  0
   -0.0699   -1.9001    0.1143 C   0  0  0  0  0  0  0  0  0  0  0  0
    2.1150   -2.9447    0.3086 C   0  0  0  0  0  0  0  0  0  0  0  0
    0.7554   -3.0174    0.0106 C   0  0  0  0  0  0  0  0  0  0  0  0
   -1.5890    0.3066    0.3422 C   0  0  0  0  0  0  0  0  0  0  0  0
   -2.1294   -0.8854   -0.0611 C   0  0  0  0  0  0  0  0  0  0  0  0
   -2.3517    1.5251    0.4828 C   0  0  0  0  0  0  0  0  0  0  0  0
   -3.5243   -1.0617   -0.3910 C   0  0  0  0  0  0  0  0  0  0  0  0
   -2.4941    2.4028   -0.5792 C   0  0  0  0  0  0  0  0  0  0  0  0
   -4.4449   -1.4260    0.5779 C   0  0  0  0  0  0  0  0  0  0  0  0
   -3.2417    3.5568   -0.3730 C   0  0  0  0  0  0  0  0  0  0  0  0
   -5.7714   -1.5782    0.1899 C   0  0  0  0  0  0  0  0  0  0  0  0
   -3.6139    2.8529    1.8683 C   0  0  0  0  0  0  0  0  0  0  0  0
   -5.1345   -1.0023   -2.0281 C   0  0  0  0  0  0  0  0  0  0  0  0
   -3.8157    3.7937    0.8713 C   0  0  0  0  0  0  0  0  0  0  0  0
   -6.1310   -1.3641   -1.1362 C   0  0  0  0  0  0  0  0  0  0  0  0
    5.5745    1.9409    1.1564 H   0  0  0  0  0  0  0  0  0  0  0  0
    4.0751    2.2588    0.3025 H   0  0  0  0  0  0  0  0  0  0  0  0
    3.1157    0.4704   -1.3060 H   0  0  0  0  0  0  0  0  0  0  0  0
    4.0642   -1.0345   -1.4837 H   0  0  0  0  0  0  0  0  0  0  0  0
    5.9303    3.4027   -0.8461 H   0  0  0  0  0  0  0  0  0  0  0  0
    6.8088    1.8781   -1.0469 H   0  0  0  0  0  0  0  0  0  0  0  0
    5.9169    0.2273   -2.5262 H   0  0  0  0  0  0  0  0  0  0  0  0
    4.4056    0.5736   -3.3813 H   0  0  0  0  0  0  0  0  0  0  0  0
    4.4210   -2.5132    1.3803 H   0  0  0  0  0  0  0  0  0  0  0  0
    2.2575    0.3320    1.1697 H   0  0  0  0  0  0  0  0  0  0  0  0
    2.7336   -3.8326    0.2173 H   0  0  0  0  0  0  0  0  0  0  0  0
    0.3392   -3.9707   -0.3092 H   0  0  0  0  0  0  0  0  0  0  0  0
   -2.0431    2.2105   -1.5474 H   0  0  0  0  0  0  0  0  0  0  0  0
   -4.1563   -1.5910    1.6110 H   0  0  0  0  0  0  0  0  0  0  0  0
   -3.3773    4.2701   -1.1803 H   0  0  0  0  0  0  0  0  0  0  0  0
   -6.5237   -1.8627    0.9194 H   0  0  0  0  0  0  0  0  0  0  0  0
   -4.0406    2.9902    2.8563 H   0  0  0  0  0  0  0  0  0  0  0  0
   -5.3629   -0.8232   -3.0735 H   0  0  0  0  0  0  0  0  0  0  0  0
   -4.4027    4.6863    1.0546 H   0  0  0  0  0  0  0  0  0  0  0  0
   -7.1590   -1.4766   -1.4611 H   0  0  0  0  0  0  0  0  0  0  0  0
  1 13  2  0  0  0  0
  2 11  1  0  0  0  0
  2 12  1  0  0  0  0
  3  9  1  0  0  0  0
  3 10  1  0  0  0  0
  3 13  1  0  0  0  0
  4 13  1  0  0  0  0
  4 14  1  0  0  0  0
  4 40  1  0  0  0  0
  5 15  1  0  0  0  0
  5 20  2  0  0  0  0
  6 17  1  0  0  0  0
  6 21  2  0  0  0  0
  7 22  1  0  0  0  0
  7 28  2  0  0  0  0
  8 23  1  0  0  0  0
  8 29  2  0  0  0  0
  9 11  1  0  0  0  0
  9 32  1  0  0  0  0
  9 33  1  0  0  0  0
 10 12  1  0  0  0  0
 10 34  1  0  0  0  0
 10 35  1  0  0  0  0
 11 36  1  0  0  0  0
 11 37  1  0  0  0  0
 12 38  1  0  0  0  0
 12 39  1  0  0  0  0
 14 16  2  0  0  0  0
 14 18  1  0  0  0  0
 15 16  1  0  0  0  0
 15 17  2  0  0  0  0
 16 41  1  0  0  0  0
 17 19  1  0  0  0  0
 18 19  2  0  0  0  0
 18 42  1  0  0  0  0
 19 43  1  0  0  0  0
 20 21  1  0  0  0  0
 20 22  1  0  0  0  0
 21 23  1  0  0  0  0
 22 24  2  0  0  0  0
 23 25  2  0  0  0  0
 24 26  1  0  0  0  0
 24 44  1  0  0  0  0
 25 27  1  0  0  0  0
 25 45  1  0  0  0  0
 26 30  2  0  0  0  0
 26 46  1  0  0  0  0
 27 31  2  0  0  0  0
 27 47  1  0  0  0  0
 28 30  1  0  0  0  0
 28 48  1  0  0  0  0
 29 31  1  0  0  0  0
 29 49  1  0  0  0  0
 30 50  1  0  0  0  0
 31 51  1  0  0  0  0
M  END
> <PUBCHEM_COMPOUND_CID>
1072882

> <PUBCHEM_CONFORMER_RMSD>
0.8

> <PUBCHEM_CONFORMER_DIVERSEORDER>
1
30
66
39
71
75
93
80
31
121
51
108
79
33
73
67
96
72
107
3
114
91
85
55
109
56
58
120
45
46
7
74
68
10
106
64
76
60
116
53
127
126
102
113
117
23
70
20
124
82
16
34
52
26
29
122
94
131
88
36
119
128
69
59
84
87
32
35
40
54
62
57
97
89
115
4
129
101
92
21
110
22
6
5
95
37
77
123
105
43
50
9
38
47
86
25
83
65
78
104
19
99
90
8
18
2
81
49
41
44
103
100
130
111
42
98
61
48
27
15
63
28
118
11
17
14
112
24
13
125
12

> <PUBCHEM_MMFF94_PARTIAL_CHARGES>
43
1 -0.38
10 0.3
11 0.28
12 0.28
13 0.5
14 0.12
15 0.31
16 -0.15
17 0.31
18 -0.15
19 -0.15
2 -0.56
20 0.31
21 0.31
22 0.31
23 0.31
24 -0.15
25 -0.15
26 -0.15
27 -0.15
28 0.16
29 0.16
3 -0.66
30 -0.15
31 -0.15
4 -0.55
40 0.37
41 0.15
42 0.15
43 0.15
44 0.15
45 0.15
46 0.15
47 0.15
48 0.15
49 0.15
5 -0.62
50 0.15
51 0.15
6 -0.62
7 -0.62
8 -0.62
9 0.3

> <PUBCHEM_EFFECTIVE_ROTOR_COUNT>
6.2

> <PUBCHEM_PHARMACOPHORE_FEATURES>
12
1 1 acceptor
1 2 acceptor
1 4 donor
1 5 acceptor
1 6 acceptor
1 7 acceptor
1 8 acceptor
6 14 15 16 17 18 19 rings
6 2 3 9 10 11 12 rings
6 5 6 15 17 20 21 rings
6 7 22 24 26 28 30 rings
6 8 23 25 27 29 31 rings

> <PUBCHEM_HEAVY_ATOM_COUNT>
31

> <PUBCHEM_ATOM_DEF_STEREO_COUNT>
0

> <PUBCHEM_ATOM_UDEF_STEREO_COUNT>
0

> <PUBCHEM_BOND_DEF_STEREO_COUNT>
0

> <PUBCHEM_BOND_UDEF_STEREO_COUNT>
0

> <PUBCHEM_ISOTOPIC_ATOM_COUNT>
0

> <PUBCHEM_COMPONENT_COUNT>
1

> <PUBCHEM_CACTVS_TAUTO_COUNT>
4

> <PUBCHEM_CONFORMER_ID>
00105EF200000001

> <PUBCHEM_MMFF94_ENERGY>
122.2029

> <PUBCHEM_FEATURE_SELFOVERLAP>
60.944

> <PUBCHEM_SHAPE_FINGERPRINT>
10670039 82 18410022026747386492
10906281 52 18411992351637666979
11101153 10 18409166636138337793
12403259 118 18261387802799719170
12422481 6 17749948831169070868
12788726 201 18342459265928691343
13140716 1 18124866013603183539
13540713 5 18268425733568898291
13617811 41 18264760129210769237
13782708 43 12895072938109965423
13911987 19 18336259146041638047
14068700 675 18269823363329880141
14556957 393 18412252940082766981
14767858 380 18339917229284089023
14840074 17 18201720695511078847
14910302 57 16845576443403551606
14950920 106 16588314839173063848
15082195 135 18337659820179558181
15289351 153 18336827598570955408
15575132 122 18343022194570780973
19377110 9 18408326566315321099
21033648 29 14273458093769243148
21033650 10 17988098728907623370
21049683 271 18191863634382671887
21120745 212 18271814527738863617
21236236 1 18270672078831860611
21641784 216 18410858759090794197
22149856 69 18343311361924479851
249057 25 18259700086837298746
25147074 1 18266733593647628115
283562 15 18340756054299741755
350125 39 18343015588921980137
4258327 124 18263653875028008253
46194498 28 16773508997254004376
469060 322 18411707586562475265
5104073 3 18195797479984971210
550186 72 18410858759202077009
6086070 43 17316173875802467450
6371009 1 18336250319746025168
7237137 82 18272930510233494489

> <PUBCHEM_SHAPE_MULTIPOLES>
606.06
15.51
3.95
1.8
8.7
2.74
-0.62
2.64
-2.79
-3.11
0.47
1.26
0.67
-3.79

> <PUBCHEM_SHAPE_SELFOVERLAP>
1336.219

> <PUBCHEM_SHAPE_VOLUME>
328.5

> <PUBCHEM_COORDINATE_TYPE>
2
5
10

$$$$
