660552
  -OEChem-01171811373D

 48 50  0     0  0  0  0  0  0999 V2000
    6.2312    0.6486    1.1114 O   0  0  0  0  0  0  0  0  0  0  0  0
   -2.6685    1.7728    0.3288 O   0  0  0  0  0  0  0  0  0  0  0  0
   -1.3772    3.6334   -0.0272 O   0  0  0  0  0  0  0  0  0  0  0  0
   -5.2740    0.9128   -0.2480 O   0  0  0  0  0  0  0  0  0  0  0  0
    1.6695    0.7321   -0.6419 N   0  0  0  0  0  0  0  0  0  0  0  0
    1.2609   -1.6480   -0.4757 N   0  0  0  0  0  0  0  0  0  0  0  0
   -1.3964   -0.7937    0.1133 N   0  0  0  0  0  0  0  0  0  0  0  0
    1.4663    3.0914   -0.6673 N   0  0  0  0  0  0  0  0  0  0  0  0
    3.0799    0.6853   -0.9659 C   0  0  0  0  0  0  0  0  0  0  0  0
    0.8806   -0.3638   -0.4265 C   0  0  0  0  0  0  0  0  0  0  0  0
    0.9114    1.8690   -0.5017 C   0  0  0  0  0  0  0  0  0  0  0  0
   -0.3975    0.0794   -0.1445 C   0  0  0  0  0  0  0  0  0  0  0  0
   -0.3794    1.4919   -0.1920 C   0  0  0  0  0  0  0  0  0  0  0  0
    3.9947    0.7070    0.2582 C   0  0  0  0  0  0  0  0  0  0  0  0
    5.4738    0.5968   -0.0908 C   0  0  0  0  0  0  0  0  0  0  0  0
    0.2679   -2.5122   -0.2197 C   0  0  0  0  0  0  0  0  0  0  0  0
   -1.0508   -2.0888    0.0730 C   0  0  0  0  0  0  0  0  0  0  0  0
   -1.4722    2.3953    0.0328 C   0  0  0  0  0  0  0  0  0  0  0  0
    0.5463   -3.8755   -0.2428 C   0  0  0  0  0  0  0  0  0  0  0  0
   -2.0249   -3.0494    0.3279 C   0  0  0  0  0  0  0  0  0  0  0  0
   -0.4400   -4.8262    0.0142 C   0  0  0  0  0  0  0  0  0  0  0  0
   -1.7308   -4.4114    0.3011 C   0  0  0  0  0  0  0  0  0  0  0  0
   -3.8015    2.6161    0.5651 C   0  0  0  0  0  0  0  0  0  0  0  0
   -5.0081    1.7498    0.8709 C   0  0  0  0  0  0  0  0  0  0  0  0
    7.6237    0.5268    0.8557 C   0  0  0  0  0  0  0  0  0  0  0  0
   -6.3851    0.0604   -0.0082 C   0  0  0  0  0  0  0  0  0  0  0  0
    3.2512   -0.2341   -1.5397 H   0  0  0  0  0  0  0  0  0  0  0  0
    3.3139    1.5084   -1.6493 H   0  0  0  0  0  0  0  0  0  0  0  0
    3.7268   -0.1091    0.9421 H   0  0  0  0  0  0  0  0  0  0  0  0
    3.8275    1.6267    0.8337 H   0  0  0  0  0  0  0  0  0  0  0  0
    5.6665   -0.3501   -0.6084 H   0  0  0  0  0  0  0  0  0  0  0  0
    5.7677    1.4256   -0.7453 H   0  0  0  0  0  0  0  0  0  0  0  0
    0.9166    3.9399   -0.5719 H   0  0  0  0  0  0  0  0  0  0  0  0
    2.4496    3.2404   -0.8665 H   0  0  0  0  0  0  0  0  0  0  0  0
    1.5548   -4.2194   -0.4660 H   0  0  0  0  0  0  0  0  0  0  0  0
   -3.0442   -2.7411    0.5546 H   0  0  0  0  0  0  0  0  0  0  0  0
   -0.1972   -5.8841   -0.0100 H   0  0  0  0  0  0  0  0  0  0  0  0
   -2.5086   -5.1412    0.5034 H   0  0  0  0  0  0  0  0  0  0  0  0
   -3.9876    3.2090   -0.3377 H   0  0  0  0  0  0  0  0  0  0  0  0
   -3.5929    3.2810    1.4100 H   0  0  0  0  0  0  0  0  0  0  0  0
   -4.7988    1.1197    1.7431 H   0  0  0  0  0  0  0  0  0  0  0  0
   -5.8790    2.3810    1.0785 H   0  0  0  0  0  0  0  0  0  0  0  0
    7.9704    1.3476    0.2203 H   0  0  0  0  0  0  0  0  0  0  0  0
    7.8444   -0.4353    0.3832 H   0  0  0  0  0  0  0  0  0  0  0  0
    8.1546    0.5764    1.8102 H   0  0  0  0  0  0  0  0  0  0  0  0
   -7.2881    0.6498    0.1779 H   0  0  0  0  0  0  0  0  0  0  0  0
   -6.1848   -0.6015    0.8399 H   0  0  0  0  0  0  0  0  0  0  0  0
   -6.5464   -0.5534   -0.8984 H   0  0  0  0  0  0  0  0  0  0  0  0
  1 15  1  0  0  0  0
  1 25  1  0  0  0  0
  2 18  1  0  0  0  0
  2 23  1  0  0  0  0
  3 18  2  0  0  0  0
  4 24  1  0  0  0  0
  4 26  1  0  0  0  0
  5  9  1  0  0  0  0
  5 10  1  0  0  0  0
  5 11  1  0  0  0  0
  6 10  2  0  0  0  0
  6 16  1  0  0  0  0
  7 12  2  0  0  0  0
  7 17  1  0  0  0  0
  8 11  1  0  0  0  0
  8 33  1  0  0  0  0
  8 34  1  0  0  0  0
  9 14  1  0  0  0  0
  9 27  1  0  0  0  0
  9 28  1  0  0  0  0
 10 12  1  0  0  0  0
 11 13  2  0  0  0  0
 12 13  1  0  0  0  0
 13 18  1  0  0  0  0
 14 15  1  0  0  0  0
 14 29  1  0  0  0  0
 14 30  1  0  0  0  0
 15 31  1  0  0  0  0
 15 32  1  0  0  0  0
 16 17  1  0  0  0  0
 16 19  2  0  0  0  0
 17 20  2  0  0  0  0
 19 21  1  0  0  0  0
 19 35  1  0  0  0  0
 20 22  1  0  0  0  0
 20 36  1  0  0  0  0
 21 22  2  0  0  0  0
 21 37  1  0  0  0  0
 22 38  1  0  0  0  0
 23 24  1  0  0  0  0
 23 39  1  0  0  0  0
 23 40  1  0  0  0  0
 24 41  1  0  0  0  0
 24 42  1  0  0  0  0
 25 43  1  0  0  0  0
 25 44  1  0  0  0  0
 25 45  1  0  0  0  0
 26 46  1  0  0  0  0
 26 47  1  0  0  0  0
 26 48  1  0  0  0  0
M  END
> <PUBCHEM_COMPOUND_CID>
660552

> <PUBCHEM_CONFORMER_RMSD>
1

> <PUBCHEM_CONFORMER_DIVERSEORDER>
1
67
37
48
68
17
51
19
75
5
28
23
47
72
78
55
33
7
80
43
6
56
40
27
74
86
58
79
64
53
21
2
35
16
70
29
41
3
71
9
39
60
77
45
83
31
50
14
42
54
69
61
81
65
52
32
4
66
76
13
30
24
84
73
25
20
34
62
46
15
26
12
63
22
11
49
59
36
44
85
18
57
38
82
8
10

> <PUBCHEM_MMFF94_PARTIAL_CHARGES>
31
1 -0.56
10 0.11
11 -0.07
12 0.26
13 -0.09
15 0.28
16 0.31
17 0.31
18 0.81
19 -0.15
2 -0.43
20 -0.15
21 -0.15
22 -0.15
23 0.28
24 0.28
25 0.28
26 0.28
3 -0.57
33 0.4
34 0.4
35 0.15
36 0.15
37 0.15
38 0.15
4 -0.56
5 0.05
6 -0.57
7 -0.57
8 -0.88
9 0.26

> <PUBCHEM_EFFECTIVE_ROTOR_COUNT>
9

> <PUBCHEM_PHARMACOPHORE_FEATURES>
10
1 1 acceptor
1 3 acceptor
1 4 acceptor
1 7 acceptor
1 8 cation
1 8 donor
3 5 6 10 cation
5 5 10 11 12 13 rings
6 16 17 19 20 21 22 rings
6 6 7 10 12 16 17 rings

> <PUBCHEM_HEAVY_ATOM_COUNT>
26

> <PUBCHEM_ATOM_DEF_STEREO_COUNT>
0

> <PUBCHEM_ATOM_UDEF_STEREO_COUNT>
0

> <PUBCHEM_BOND_DEF_STEREO_COUNT>
0

> <PUBCHEM_BOND_UDEF_STEREO_COUNT>
0

> <PUBCHEM_ISOTOPIC_ATOM_COUNT>
0

> <PUBCHEM_COMPONENT_COUNT>
1

> <PUBCHEM_CACTVS_TAUTO_COUNT>
4

> <PUBCHEM_CONFORMER_ID>
000A144800000001

> <PUBCHEM_MMFF94_ENERGY>
58.8912

> <PUBCHEM_FEATURE_SELFOVERLAP>
50.919

> <PUBCHEM_SHAPE_FINGERPRINT>
10074138 170 18266723835676909434
10319688 67 18271507767988261144
10319926 262 18270382994112027216
10411042 1 17834395996827442118
1100329 8 18338236088795214429
11135926 11 18337669716670821301
11136131 41 18189049794368742019
11719270 70 18336825291223503413
12838862 33 18339347605658507469
12839892 36 18264762173535827865
12925494 130 17984971846836058232
12969540 37 17686626740638113399
13052359 8 18409733996927862711
13140716 1 18267024040742525916
13540713 5 17970637509507180108
13692114 37 18272079561042253295
138480 1 17688881830501962847
14787075 74 18060133219889750281
14790565 3 18410020918039695077
14844126 61 18335980982320734186
14863182 85 18118990021447528109
14866123 147 18410571829310464578
15042514 8 18337391655696803214
15230672 131 18265334998912078310
15927050 60 18341049614861035030
16728300 4 17460574945459344816
16994733 274 15913330152143081601
19591789 44 18121792633505122246
20028762 73 18343585157482970311
21796203 349 16755265573787618339
221490 88 17831035533084115745
22224240 67 18343018865671160585
23558518 356 18045788055117513760
283562 15 18270683048078919793
3178227 256 18336841852796959745
352729 6 18266199359919296685
4409770 3 18262223521235413334
474229 33 18409450263073070197
9981440 41 18337116648529657241

> <PUBCHEM_SHAPE_MULTIPOLES>
491.67
11.77
5.75
0.82
12.64
6.96
-0.05
-8.33
-4.11
-4.69
-0.13
0.47
-0.16
-0.25

> <PUBCHEM_SHAPE_SELFOVERLAP>
1052.818

> <PUBCHEM_SHAPE_VOLUME>
272.8

> <PUBCHEM_COORDINATE_TYPE>
2
5
10

$$$$
