2323972
  -OEChem-01171811423D

 30 32  0     0  0  0  0  0  0999 V2000
    5.9556    0.9573    0.5653 F   0  0  0  0  0  0  0  0  0  0  0  0
   -1.5531    2.5528   -0.7025 O   0  0  0  0  0  0  0  0  0  0  0  0
   -0.3270    0.6105   -0.5453 N   0  0  0  0  0  0  0  0  0  0  0  0
    1.0142   -1.3520   -0.4034 N   0  0  0  0  0  0  0  0  0  0  0  0
   -2.6168   -0.7858    0.1275 C   0  0  0  0  0  0  0  0  0  0  0  0
   -2.7213    0.5891   -0.1192 C   0  0  0  0  0  0  0  0  0  0  0  0
   -0.2099   -0.7469   -0.3044 C   0  0  0  0  0  0  0  0  0  0  0  0
   -1.3143   -1.4443    0.0248 C   0  0  0  0  0  0  0  0  0  0  0  0
   -1.4996    1.3472   -0.4805 C   0  0  0  0  0  0  0  0  0  0  0  0
   -3.7645   -1.5090    0.4692 C   0  0  0  0  0  0  0  0  0  0  0  0
   -3.9563    1.2377   -0.0268 C   0  0  0  0  0  0  0  0  0  0  0  0
    2.2589   -0.7700   -0.1597 C   0  0  0  0  0  0  0  0  0  0  0  0
   -4.9986   -0.8628    0.5619 C   0  0  0  0  0  0  0  0  0  0  0  0
   -5.0938    0.5066    0.3145 C   0  0  0  0  0  0  0  0  0  0  0  0
    3.3985   -1.2111   -0.8478 C   0  0  0  0  0  0  0  0  0  0  0  0
    2.3902    0.2649    0.7775 C   0  0  0  0  0  0  0  0  0  0  0  0
    4.6427   -0.6298   -0.6037 C   0  0  0  0  0  0  0  0  0  0  0  0
    3.6344    0.8464    1.0216 C   0  0  0  0  0  0  0  0  0  0  0  0
    4.7607    0.3991    0.3310 C   0  0  0  0  0  0  0  0  0  0  0  0
   -1.2664   -2.5109    0.2229 H   0  0  0  0  0  0  0  0  0  0  0  0
    0.5152    1.1067   -0.8193 H   0  0  0  0  0  0  0  0  0  0  0  0
    1.0163   -2.3565   -0.5455 H   0  0  0  0  0  0  0  0  0  0  0  0
   -3.7120   -2.5771    0.6659 H   0  0  0  0  0  0  0  0  0  0  0  0
   -4.0512    2.3032   -0.2155 H   0  0  0  0  0  0  0  0  0  0  0  0
   -5.8872   -1.4283    0.8276 H   0  0  0  0  0  0  0  0  0  0  0  0
   -6.0564    1.0045    0.3880 H   0  0  0  0  0  0  0  0  0  0  0  0
    3.3213   -2.0119   -1.5796 H   0  0  0  0  0  0  0  0  0  0  0  0
    1.5425    0.6186    1.3589 H   0  0  0  0  0  0  0  0  0  0  0  0
    5.5199   -0.9776   -1.1412 H   0  0  0  0  0  0  0  0  0  0  0  0
    3.7282    1.6426    1.7542 H   0  0  0  0  0  0  0  0  0  0  0  0
  1 19  1  0  0  0  0
  2  9  2  0  0  0  0
  3  7  1  0  0  0  0
  3  9  1  0  0  0  0
  3 21  1  0  0  0  0
  4  7  1  0  0  0  0
  4 12  1  0  0  0  0
  4 22  1  0  0  0  0
  5  6  1  0  0  0  0
  5  8  1  0  0  0  0
  5 10  2  0  0  0  0
  6  9  1  0  0  0  0
  6 11  2  0  0  0  0
  7  8  2  0  0  0  0
  8 20  1  0  0  0  0
 10 13  1  0  0  0  0
 10 23  1  0  0  0  0
 11 14  1  0  0  0  0
 11 24  1  0  0  0  0
 12 15  2  0  0  0  0
 12 16  1  0  0  0  0
 13 14  2  0  0  0  0
 13 25  1  0  0  0  0
 14 26  1  0  0  0  0
 15 17  1  0  0  0  0
 15 27  1  0  0  0  0
 16 18  2  0  0  0  0
 16 28  1  0  0  0  0
 17 19  2  0  0  0  0
 17 29  1  0  0  0  0
 18 19  1  0  0  0  0
 18 30  1  0  0  0  0
M  END
> <PUBCHEM_COMPOUND_CID>
2323972

> <PUBCHEM_CONFORMER_RMSD>
0.6

> <PUBCHEM_CONFORMER_DIVERSEORDER>
1
4
8
7
2
3
5
6

> <PUBCHEM_MMFF94_PARTIAL_CHARGES>
30
1 -0.19
10 -0.15
11 -0.15
12 0.1
13 -0.15
14 -0.15
15 -0.15
16 -0.15
17 -0.15
18 -0.15
19 0.19
2 -0.57
20 0.15
21 0.37
22 0.4
23 0.15
24 0.15
25 0.15
26 0.15
27 0.15
28 0.15
29 0.15
3 -0.54
30 0.15
4 -0.6
5 0.03
6 0.09
7 0.21
8 -0.18
9 0.54

> <PUBCHEM_EFFECTIVE_ROTOR_COUNT>
2

> <PUBCHEM_PHARMACOPHORE_FEATURES>
7
1 2 acceptor
1 3 donor
1 4 cation
1 4 donor
6 12 15 16 17 18 19 rings
6 3 5 6 7 8 9 rings
6 5 6 10 11 13 14 rings

> <PUBCHEM_HEAVY_ATOM_COUNT>
19

> <PUBCHEM_ATOM_DEF_STEREO_COUNT>
0

> <PUBCHEM_ATOM_UDEF_STEREO_COUNT>
0

> <PUBCHEM_BOND_DEF_STEREO_COUNT>
0

> <PUBCHEM_BOND_UDEF_STEREO_COUNT>
0

> <PUBCHEM_ISOTOPIC_ATOM_COUNT>
0

> <PUBCHEM_COMPONENT_COUNT>
1

> <PUBCHEM_CACTVS_TAUTO_COUNT>
6

> <PUBCHEM_CONFORMER_ID>
0023760400000001

> <PUBCHEM_MMFF94_ENERGY>
63.8648

> <PUBCHEM_FEATURE_SELFOVERLAP>
35.58

> <PUBCHEM_SHAPE_FINGERPRINT>
10 15 18339069498057262472
10319926 262 18264193735125872978
10498660 4 18261951851679556220
11045977 3 18342176669939201297
11132069 177 18408325475699439647
11370993 144 17916600730211130315
11578080 2 13756700741518957377
11595378 159 17676758786792278624
12107183 9 17321249118280522408
12236239 1 16732985323121738686
12390115 104 18127423254490412913
12403259 415 18339927008729157244
12596602 18 16877946074515677776
12730499 353 18131639989051860486
13081056 2 18342739598544347638
13214271 11 18411417315513925303
13402501 40 18342455954556612992
14341114 176 18413113848748739856
15048467 5 17846503612924214243
15163728 17 14691188842366988913
15196674 1 18411982433797972902
1813 80 17385447626224824189
19141452 34 18201440320051302927
19784866 170 18410013225948082779
200 152 17203605973918301795
20510252 161 18339924809943401841
20645477 56 18272927245810189294
20645477 70 17489595515756572830
21033648 29 18059280002934457105
21267235 1 18334588962077229707
21637258 2 15213596649687296337
21652331 79 18410854352237686972
22122407 14 16414931832681616443
22854114 59 18272370871187986562
2297311 6 18337403672624849158
23402539 116 18409443713495837863
23402655 69 17489586766675698390
23557571 272 18338245881309671437
23559900 14 18263652770630245174
23845131 108 17402060998420234017
3009799 131 18260535741882088431
34934 24 18262231132777245959
3545911 37 18202566194024479970
3759504 43 13758070809973575549
5104073 3 18337394820639542115
542803 24 17022906748178107982
6442390 28 18410857672506493310

> <PUBCHEM_SHAPE_MULTIPOLES>
367.91
12.02
1.74
0.86
5.54
0.42
0.04
0.85
2.12
-0.91
-0.23
0.4
0.06
1.16

> <PUBCHEM_SHAPE_SELFOVERLAP>
814.985

> <PUBCHEM_SHAPE_VOLUME>
196.4

> <PUBCHEM_COORDINATE_TYPE>
2
5
10

$$$$
