22431305
  -OEChem-01171812053D

 35 38  0     0  0  0  0  0  0999 V2000
    3.7056   -2.2419    1.2505 Cl  0  0  0  0  0  0  0  0  0  0  0  0
    5.7038   -0.3667    0.0135 O   0  0  0  0  0  0  0  0  0  0  0  0
   -3.1289    0.8294    0.0074 N   0  0  0  0  0  0  0  0  0  0  0  0
    0.5059    1.5659    0.0949 N   0  0  0  0  0  0  0  0  0  0  0  0
   -0.6542   -0.4564   -0.0461 N   0  0  0  0  0  0  0  0  0  0  0  0
   -2.1894    2.8059    0.1440 N   0  0  0  0  0  0  0  0  0  0  0  0
   -3.5650    2.9651    0.1389 N   0  0  0  0  0  0  0  0  0  0  0  0
   -3.1416   -0.5635   -0.0806 C   0  0  0  0  0  0  0  0  0  0  0  0
   -1.9513    1.5171    0.0642 C   0  0  0  0  0  0  0  0  0  0  0  0
   -0.6691    0.8547    0.0366 C   0  0  0  0  0  0  0  0  0  0  0  0
   -1.8743   -1.1835   -0.1052 C   0  0  0  0  0  0  0  0  0  0  0  0
   -4.3270   -1.2941   -0.1389 C   0  0  0  0  0  0  0  0  0  0  0  0
    1.8095    1.0736    0.0782 C   0  0  0  0  0  0  0  0  0  0  0  0
   -4.1115    1.7689    0.0560 C   0  0  0  0  0  0  0  0  0  0  0  0
   -1.8286   -2.5772   -0.1908 C   0  0  0  0  0  0  0  0  0  0  0  0
   -4.2521   -2.6832   -0.2239 C   0  0  0  0  0  0  0  0  0  0  0  0
   -3.0101   -3.3223   -0.2493 C   0  0  0  0  0  0  0  0  0  0  0  0
    2.0862   -0.1871    0.6071 C   0  0  0  0  0  0  0  0  0  0  0  0
    2.8377    1.8421   -0.4675 C   0  0  0  0  0  0  0  0  0  0  0  0
    3.3913   -0.6794    0.5901 C   0  0  0  0  0  0  0  0  0  0  0  0
    4.1427    1.3499   -0.4845 C   0  0  0  0  0  0  0  0  0  0  0  0
    4.4195    0.0892    0.0442 C   0  0  0  0  0  0  0  0  0  0  0  0
    6.1007   -1.1065   -1.1390 C   0  0  0  0  0  0  0  0  0  0  0  0
    0.4430    2.5784    0.0238 H   0  0  0  0  0  0  0  0  0  0  0  0
   -5.3013   -0.8168   -0.1198 H   0  0  0  0  0  0  0  0  0  0  0  0
   -5.1703    1.5540    0.0307 H   0  0  0  0  0  0  0  0  0  0  0  0
   -0.8723   -3.0943   -0.2119 H   0  0  0  0  0  0  0  0  0  0  0  0
   -5.1635   -3.2727   -0.2703 H   0  0  0  0  0  0  0  0  0  0  0  0
   -2.9619   -4.4057   -0.3154 H   0  0  0  0  0  0  0  0  0  0  0  0
    1.3284   -0.7862    1.1010 H   0  0  0  0  0  0  0  0  0  0  0  0
    2.6357    2.8258   -0.8838 H   0  0  0  0  0  0  0  0  0  0  0  0
    4.9384    1.9548   -0.9110 H   0  0  0  0  0  0  0  0  0  0  0  0
    7.1217   -1.4644   -0.9810 H   0  0  0  0  0  0  0  0  0  0  0  0
    6.0895   -0.4634   -2.0246 H   0  0  0  0  0  0  0  0  0  0  0  0
    5.4484   -1.9708   -1.2974 H   0  0  0  0  0  0  0  0  0  0  0  0
  1 20  1  0  0  0  0
  2 22  1  0  0  0  0
  2 23  1  0  0  0  0
  3  8  1  0  0  0  0
  3  9  1  0  0  0  0
  3 14  1  0  0  0  0
  4 10  1  0  0  0  0
  4 13  1  0  0  0  0
  4 24  1  0  0  0  0
  5 10  2  0  0  0  0
  5 11  1  0  0  0  0
  6  7  1  0  0  0  0
  6  9  2  0  0  0  0
  7 14  2  0  0  0  0
  8 11  1  0  0  0  0
  8 12  2  0  0  0  0
  9 10  1  0  0  0  0
 11 15  2  0  0  0  0
 12 16  1  0  0  0  0
 12 25  1  0  0  0  0
 13 18  2  0  0  0  0
 13 19  1  0  0  0  0
 14 26  1  0  0  0  0
 15 17  1  0  0  0  0
 15 27  1  0  0  0  0
 16 17  2  0  0  0  0
 16 28  1  0  0  0  0
 17 29  1  0  0  0  0
 18 20  1  0  0  0  0
 18 30  1  0  0  0  0
 19 21  2  0  0  0  0
 19 31  1  0  0  0  0
 20 22  2  0  0  0  0
 21 22  1  0  0  0  0
 21 32  1  0  0  0  0
 23 33  1  0  0  0  0
 23 34  1  0  0  0  0
 23 35  1  0  0  0  0
M  END
> <PUBCHEM_COMPOUND_CID>
22431305

> <PUBCHEM_CONFORMER_RMSD>
0.6

> <PUBCHEM_CONFORMER_DIVERSEORDER>
5
14
42
34
13
50
18
49
16
19
26
7
29
31
40
21
8
48
37
11
45
12
47
2
20
1
44
51
36
27
35
22
10
43
6
28
9
32
46
33
24
23
3
30
38
15
25
41
4
39
17

> <PUBCHEM_MMFF94_PARTIAL_CHARGES>
32
1 -0.18
10 0.58
11 0.18
12 -0.15
13 0.1
14 0.04
15 -0.15
16 -0.15
17 -0.15
18 -0.15
19 -0.15
2 -0.36
20 0.18
21 -0.15
22 0.08
23 0.28
24 0.4
25 0.15
26 0.15
27 0.15
28 0.15
29 0.15
3 0.33
30 0.15
31 0.15
32 0.15
4 -0.55
5 -0.63
6 -0.34
7 -0.34
8 -0.02
9 0.1

> <PUBCHEM_EFFECTIVE_ROTOR_COUNT>
3

> <PUBCHEM_PHARMACOPHORE_FEATURES>
9
1 2 acceptor
1 4 donor
3 3 6 9 cation
3 3 7 14 cation
3 4 5 10 cation
5 3 6 7 9 14 rings
6 13 18 19 20 21 22 rings
6 3 5 8 9 10 11 rings
6 8 11 12 15 16 17 rings

> <PUBCHEM_HEAVY_ATOM_COUNT>
23

> <PUBCHEM_ATOM_DEF_STEREO_COUNT>
0

> <PUBCHEM_ATOM_UDEF_STEREO_COUNT>
0

> <PUBCHEM_BOND_DEF_STEREO_COUNT>
0

> <PUBCHEM_BOND_UDEF_STEREO_COUNT>
0

> <PUBCHEM_ISOTOPIC_ATOM_COUNT>
0

> <PUBCHEM_COMPONENT_COUNT>
1

> <PUBCHEM_CACTVS_TAUTO_COUNT>
2

> <PUBCHEM_CONFORMER_ID>
0156464900000005

> <PUBCHEM_MMFF94_ENERGY>
82.8404

> <PUBCHEM_FEATURE_SELFOVERLAP>
48.332

> <PUBCHEM_SHAPE_FINGERPRINT>
10319926 262 18199164288316568336
10369192 42 16696368493931308056
10411042 1 18123469642895308095
10595046 47 18335705000802347468
10616163 171 18411418423172694054
11796584 16 18271247115187139038
12107183 9 17975688394745793682
12553582 1 18051120686454296123
12643181 29 18268714901423055334
12788726 201 18336258029070274043
13167823 11 18408885161435543900
13631057 29 18268429212486853728
138480 1 16465864136242533817
14178342 30 18264746858035586152
14420673 8 18268435629442794406
14790565 3 17835806296209190809
14866123 147 18341619235399183851
15042514 8 18338803411726430425
15196674 1 18410856590158429700
15230672 131 18049167675015977718
15250474 111 18334847299759460850
15510800 12 17129882526072144782
15537594 2 18114469963716274474
16752209 62 18340471336179136579
17492 89 18338800134239498966
17804303 29 18342737437864827761
17844677 252 18411989087277489732
20281475 54 18334003978677459160
21033648 29 17203029834278616178
21054139 6 18260265279117303674
21133410 171 17402552806182215386
21267235 1 18337116751482271107
221490 88 18266182906189580184
22393880 68 18411138031054846882
23402539 116 18272365430245105711
23557571 272 18202006525151701308
23559900 14 18341885346339315064
23598288 3 18272650190217696301
2871803 45 18261949773342685194
3004659 81 18115579477969656014
312423 11 18189627192364591788
335352 9 18411417337315601679
350125 39 18409728427051735521
4214541 1 18410855456007553668
44062 13 18341898476370388870
463206 1 17904197383988166035
5104073 3 18343017813678097008
5309563 4 17976545240790761715
559249 180 18337388249661253858
58051976 100 18408602548039539204
59755656 215 18411981339040658047
6823239 73 18129955481572364198
7970288 3 18053097621019729415
9709674 26 18343024384656163062

> <PUBCHEM_SHAPE_MULTIPOLES>
444.42
11.91
3.51
0.8
11.25
0.46
-0.03
3.6
1.62
-4.21
-0.03
0.79
0.27
-0.91

> <PUBCHEM_SHAPE_SELFOVERLAP>
982.22

> <PUBCHEM_SHAPE_VOLUME>
239.8

> <PUBCHEM_COORDINATE_TYPE>
2
5
10

$$$$
