3126626
  -OEChem-01171811493D

 26 27  0     1  0  0  0  0  0999 V2000
   -2.9863    0.2438    0.3163 S   0  0  0  0  0  0  0  0  0  0  0  0
   -3.7737   -0.8508    0.8440 O   0  0  0  0  0  0  0  0  0  0  0  0
   -3.4126    1.6239    0.4184 O   0  0  0  0  0  0  0  0  0  0  0  0
    1.9082   -2.4361    0.1712 O   0  0  0  0  0  0  0  0  0  0  0  0
    0.8933   -0.3249   -0.0339 N   0  0  0  0  0  0  0  0  0  0  0  0
    1.4016    0.9338   -0.0952 N   0  0  0  0  0  0  0  0  0  0  0  0
   -0.5183   -0.5516   -0.1699 C   0  0  1  0  0  0  0  0  0  0  0  0
   -1.3198    0.1130    0.9486 C   0  0  0  0  0  0  0  0  0  0  0  0
   -1.0698    0.0177   -1.4794 C   0  0  0  0  0  0  0  0  0  0  0  0
   -2.5858   -0.1108   -1.3885 C   0  0  0  0  0  0  0  0  0  0  0  0
    1.9328   -1.2188    0.1051 C   0  0  0  0  0  0  0  0  0  0  0  0
    2.7597    0.8676    0.0623 C   0  0  0  0  0  0  0  0  0  0  0  0
    3.1796   -0.4023    0.1717 C   0  0  0  0  0  0  0  0  0  0  0  0
    3.5911    2.0954    0.1293 C   0  0  0  0  0  0  0  0  0  0  0  0
   -0.6952   -1.6348   -0.1483 H   0  0  0  0  0  0  0  0  0  0  0  0
   -1.3215   -0.4819    1.8655 H   0  0  0  0  0  0  0  0  0  0  0  0
   -0.9789    1.1268    1.1778 H   0  0  0  0  0  0  0  0  0  0  0  0
   -0.6764   -0.5105   -2.3543 H   0  0  0  0  0  0  0  0  0  0  0  0
   -0.8045    1.0763   -1.5930 H   0  0  0  0  0  0  0  0  0  0  0  0
   -3.1067    0.5889   -2.0451 H   0  0  0  0  0  0  0  0  0  0  0  0
   -2.9059   -1.1349   -1.6016 H   0  0  0  0  0  0  0  0  0  0  0  0
    0.8610    1.7670    0.0880 H   0  0  0  0  0  0  0  0  0  0  0  0
    4.1748   -0.7844    0.3127 H   0  0  0  0  0  0  0  0  0  0  0  0
    3.5038    2.6678   -0.7998 H   0  0  0  0  0  0  0  0  0  0  0  0
    4.6491    1.8568    0.2795 H   0  0  0  0  0  0  0  0  0  0  0  0
    3.2688    2.7324    0.9592 H   0  0  0  0  0  0  0  0  0  0  0  0
  1  2  2  0  0  0  0
  1  3  2  0  0  0  0
  1  8  1  0  0  0  0
  1 10  1  0  0  0  0
  4 11  2  0  0  0  0
  5  6  1  0  0  0  0
  5  7  1  0  0  0  0
  5 11  1  0  0  0  0
  6 12  1  0  0  0  0
  6 22  1  0  0  0  0
  7  8  1  0  0  0  0
  7  9  1  0  0  0  0
  7 15  1  0  0  0  0
  8 16  1  0  0  0  0
  8 17  1  0  0  0  0
  9 10  1  0  0  0  0
  9 18  1  0  0  0  0
  9 19  1  0  0  0  0
 10 20  1  0  0  0  0
 10 21  1  0  0  0  0
 11 13  1  0  0  0  0
 12 13  2  0  0  0  0
 12 14  1  0  0  0  0
 13 23  1  0  0  0  0
 14 24  1  0  0  0  0
 14 25  1  0  0  0  0
 14 26  1  0  0  0  0
M  END
> <PUBCHEM_COMPOUND_CID>
3126626

> <PUBCHEM_CONFORMER_RMSD>
0.6

> <PUBCHEM_CONFORMER_DIVERSEORDER>
1
12
14
15
8
6
17
5
10
16
9
2
4
3
13
7
11

> <PUBCHEM_MMFF94_PARTIAL_CHARGES>
15
1 1.09
10 0.11
11 0.62
12 -0.04
13 -0.14
14 0.14
2 -0.65
22 0.4
23 0.15
3 -0.65
4 -0.57
5 -0.34
6 -0.52
7 0.3
8 0.11

> <PUBCHEM_EFFECTIVE_ROTOR_COUNT>
1.8

> <PUBCHEM_PHARMACOPHORE_FEATURES>
6
1 2 acceptor
1 3 acceptor
1 4 acceptor
1 6 donor
5 1 7 8 9 10 rings
5 5 6 11 12 13 rings

> <PUBCHEM_HEAVY_ATOM_COUNT>
14

> <PUBCHEM_ATOM_DEF_STEREO_COUNT>
0

> <PUBCHEM_ATOM_UDEF_STEREO_COUNT>
1

> <PUBCHEM_BOND_DEF_STEREO_COUNT>
0

> <PUBCHEM_BOND_UDEF_STEREO_COUNT>
0

> <PUBCHEM_ISOTOPIC_ATOM_COUNT>
0

> <PUBCHEM_COMPONENT_COUNT>
1

> <PUBCHEM_CACTVS_TAUTO_COUNT>
3

> <PUBCHEM_CONFORMER_ID>
002FB56200000001

> <PUBCHEM_MMFF94_ENERGY>
31.4069

> <PUBCHEM_FEATURE_SELFOVERLAP>
30.462

> <PUBCHEM_SHAPE_FINGERPRINT>
10608611 8 18333729091843321141
107287 299 18114187436456764822
10857977 72 16515405161955950671
10980938 120 18412546513554711448
11031198 65 18409453604631050956
11132069 177 17167860876800905293
12346645 44 18340485676879791452
12932764 1 17561356296924637977
13538477 17 17489579065314131079
13581323 91 15285354033220245304
14144814 61 18411417293469227033
14289901 80 18412263947825151939
14325111 11 18411139125754490841
15219456 202 18040709264473376358
15342168 16 18117564148166516508
15442244 35 17980764839799320832
15669948 3 17203036469855193839
15775835 57 18060421343248708800
16945 1 18337380565964702966
170605 34 18273220828315401748
17844478 74 17821729407720266557
18186145 218 18113617846077585410
19049666 15 17461145574355276806
19422 9 17917708023934596446
200 152 18339349868831654367
201361 129 18341897376784855888
20279233 1 17313094237989829679
204376 136 18191864737719820080
20645464 45 17458057166599683169
20645476 183 17703784825600022519
20645477 70 18339064996071900959
20715346 28 17749103370486812255
21499 59 18339637975074235580
21730867 7 18259983760515582790
22854114 111 18413669123479766552
23402539 116 16733532957432973963
23557571 272 17167861946052602975
23598291 2 18059565888984654806
25 1 18410575115345158420
3248919 1 18337658755064598315
53748568 43 17988639726755635222
6049 1 17750512888537856526
77492 1 17847053385221827254
81228 2 16009585742672690757
9882013 296 17677335042475170569

> <PUBCHEM_SHAPE_MULTIPOLES>
264.39
6.66
1.72
1.05
0.75
0.12
-0.3
-2.01
0.91
-1.54
0.21
0.89
0.02
-0.13

> <PUBCHEM_SHAPE_SELFOVERLAP>
540.21

> <PUBCHEM_SHAPE_VOLUME>
155.5

> <PUBCHEM_COORDINATE_TYPE>
2
5
10

$$$$
