966568
  -OEChem-01171811583D

 34 35  0     0  0  0  0  0  0999 V2000
   -2.9954    1.8871   -0.2953 O   0  0  0  0  0  0  0  0  0  0  0  0
   -0.5081    1.4807    0.6815 O   0  0  0  0  0  0  0  0  0  0  0  0
    0.3245   -0.5727   -0.0245 N   0  0  0  0  0  0  0  0  0  0  0  0
    2.4911   -1.3703   -0.4003 N   0  0  0  0  0  0  0  0  0  0  0  0
    2.1119    0.8887    0.3486 N   0  0  0  0  0  0  0  0  0  0  0  0
   -2.0488   -0.2478    0.2537 C   0  0  0  0  0  0  0  0  0  0  0  0
   -3.1481    0.5552   -0.0502 C   0  0  0  0  0  0  0  0  0  0  0  0
   -0.7070    0.3146    0.3171 C   0  0  0  0  0  0  0  0  0  0  0  0
    1.7227   -0.3383   -0.0251 C   0  0  0  0  0  0  0  0  0  0  0  0
    3.8153   -1.1119   -0.3904 C   0  0  0  0  0  0  0  0  0  0  0  0
    3.4478    1.0776    0.3355 C   0  0  0  0  0  0  0  0  0  0  0  0
   -2.2266   -1.6088    0.5021 C   0  0  0  0  0  0  0  0  0  0  0  0
    4.3563    0.1047   -0.0281 C   0  0  0  0  0  0  0  0  0  0  0  0
   -4.4252   -0.0029   -0.1057 C   0  0  0  0  0  0  0  0  0  0  0  0
   -3.5038   -2.1668    0.4465 C   0  0  0  0  0  0  0  0  0  0  0  0
   -4.6031   -1.3639    0.1426 C   0  0  0  0  0  0  0  0  0  0  0  0
    4.7185   -2.2259   -0.8013 C   0  0  0  0  0  0  0  0  0  0  0  0
    3.9391    2.4267    0.7409 C   0  0  0  0  0  0  0  0  0  0  0  0
   -2.7609    2.2739   -1.6476 C   0  0  0  0  0  0  0  0  0  0  0  0
    0.0878   -1.5043   -0.3535 H   0  0  0  0  0  0  0  0  0  0  0  0
   -1.4080   -2.2657    0.7815 H   0  0  0  0  0  0  0  0  0  0  0  0
    5.4245    0.2845   -0.0299 H   0  0  0  0  0  0  0  0  0  0  0  0
   -5.2866    0.6167   -0.3404 H   0  0  0  0  0  0  0  0  0  0  0  0
   -3.6442   -3.2247    0.6488 H   0  0  0  0  0  0  0  0  0  0  0  0
   -5.5978   -1.7980    0.1017 H   0  0  0  0  0  0  0  0  0  0  0  0
    5.3036   -1.9372   -1.6803 H   0  0  0  0  0  0  0  0  0  0  0  0
    5.4014   -2.4831    0.0146 H   0  0  0  0  0  0  0  0  0  0  0  0
    4.1455   -3.1232   -1.0572 H   0  0  0  0  0  0  0  0  0  0  0  0
    4.4944    2.8922   -0.0795 H   0  0  0  0  0  0  0  0  0  0  0  0
    3.1051    3.0869    1.0013 H   0  0  0  0  0  0  0  0  0  0  0  0
    4.5922    2.3472    1.6157 H   0  0  0  0  0  0  0  0  0  0  0  0
   -3.6252    2.0232   -2.2708 H   0  0  0  0  0  0  0  0  0  0  0  0
   -1.8618    1.7902   -2.0423 H   0  0  0  0  0  0  0  0  0  0  0  0
   -2.6142    3.3571   -1.6732 H   0  0  0  0  0  0  0  0  0  0  0  0
  1  7  1  0  0  0  0
  1 19  1  0  0  0  0
  2  8  2  0  0  0  0
  3  8  1  0  0  0  0
  3  9  1  0  0  0  0
  3 20  1  0  0  0  0
  4  9  1  0  0  0  0
  4 10  2  0  0  0  0
  5  9  2  0  0  0  0
  5 11  1  0  0  0  0
  6  7  1  0  0  0  0
  6  8  1  0  0  0  0
  6 12  2  0  0  0  0
  7 14  2  0  0  0  0
 10 13  1  0  0  0  0
 10 17  1  0  0  0  0
 11 13  2  0  0  0  0
 11 18  1  0  0  0  0
 12 15  1  0  0  0  0
 12 21  1  0  0  0  0
 13 22  1  0  0  0  0
 14 16  1  0  0  0  0
 14 23  1  0  0  0  0
 15 16  2  0  0  0  0
 15 24  1  0  0  0  0
 16 25  1  0  0  0  0
 17 26  1  0  0  0  0
 17 27  1  0  0  0  0
 17 28  1  0  0  0  0
 18 29  1  0  0  0  0
 18 30  1  0  0  0  0
 18 31  1  0  0  0  0
 19 32  1  0  0  0  0
 19 33  1  0  0  0  0
 19 34  1  0  0  0  0
M  END
> <PUBCHEM_COMPOUND_CID>
966568

> <PUBCHEM_CONFORMER_RMSD>
0.6

> <PUBCHEM_CONFORMER_DIVERSEORDER>
1
16
12
15
11
14
7
13
4
9
8
10
2
6
5
3

> <PUBCHEM_MMFF94_PARTIAL_CHARGES>
25
1 -0.36
10 0.17
11 0.17
12 -0.15
13 -0.15
14 -0.15
15 -0.15
16 -0.15
17 0.14
18 0.14
19 0.28
2 -0.57
20 0.37
21 0.15
22 0.15
23 0.15
24 0.15
25 0.15
3 -0.55
4 -0.62
5 -0.62
6 0.09
7 0.08
8 0.54
9 0.74

> <PUBCHEM_EFFECTIVE_ROTOR_COUNT>
4

> <PUBCHEM_PHARMACOPHORE_FEATURES>
6
1 1 acceptor
1 2 acceptor
1 3 donor
1 4 acceptor
6 4 5 9 10 11 13 rings
6 6 7 12 14 15 16 rings

> <PUBCHEM_HEAVY_ATOM_COUNT>
19

> <PUBCHEM_ATOM_DEF_STEREO_COUNT>
0

> <PUBCHEM_ATOM_UDEF_STEREO_COUNT>
0

> <PUBCHEM_BOND_DEF_STEREO_COUNT>
0

> <PUBCHEM_BOND_UDEF_STEREO_COUNT>
0

> <PUBCHEM_ISOTOPIC_ATOM_COUNT>
0

> <PUBCHEM_COMPONENT_COUNT>
1

> <PUBCHEM_CACTVS_TAUTO_COUNT>
3

> <PUBCHEM_CONFORMER_ID>
000EBFA800000001

> <PUBCHEM_MMFF94_ENERGY>
64.8393

> <PUBCHEM_FEATURE_SELFOVERLAP>
30.454

> <PUBCHEM_SHAPE_FINGERPRINT>
10608611 8 18410290315663002952
10680689 15 18113909225496826563
11405975 8 18340488872119032880
11615757 297 17418100952648294338
12403259 226 18410853244183954652
12403259 415 18408321064404439069
12507560 40 18413106169394752308
12916754 54 18343026583616017515
13167823 11 18342457045104064926
13296908 3 18342458144652180786
15196674 1 18413390955627867299
15961568 22 17750234884396771332
17492 89 18411983576592336578
17844677 252 18342748407116245848
1813 80 17240764033887826261
18186145 218 18334011653393769864
19141452 34 18270686476000398187
1986462 14 18335706005202040103
200 152 17775566420517805299
20645477 56 18189055313696394941
20645477 70 18059860541374989294
20681677 76 18411976966584374860
20693207 138 18411146809503802766
21065198 57 18412546491953202890
21065201 7 18114177519171511154
21267235 1 18341623615400935010
221490 88 18412832391210569066
22393880 68 18261388893389531142
22943178 12 18411415116126555728
23402539 116 18334286605043203775
23557571 272 18186797002121672693
23559900 14 18340764854159749226
2871803 45 18335136505365905307
312423 11 17774460316632129840
3268164 11 17603296051543695231
3545911 37 18412828018849426736
4214541 1 18410857629123569593
5104073 3 18412829083584566146
5281201 14 18410859850001651884
559249 180 18044089060354859250
77779 3 18413110571361736306
9709674 26 18337113465879827554

> <PUBCHEM_SHAPE_MULTIPOLES>
364.33
10.83
2.54
0.9
3.08
0.4
-0.22
-2.29
-0.7
0.38
-0.32
-0.11
0.32
2.12

> <PUBCHEM_SHAPE_SELFOVERLAP>
776.376

> <PUBCHEM_SHAPE_VOLUME>
202.3

> <PUBCHEM_COORDINATE_TYPE>
2
5
10

$$$$
