245736
  -OEChem-01171812163D

 30 32  0     0  0  0  0  0  0999 V2000
    1.3641   -2.8262    0.1998 O   0  0  0  0  0  0  0  0  0  0  0  0
    1.0828   -0.4705    0.0263 N   0  0  0  0  0  0  0  0  0  0  0  0
   -0.0626    0.2898    0.0198 N   0  0  0  0  0  0  0  0  0  0  0  0
   -1.1599   -0.5342    0.0882 C   0  0  0  0  0  0  0  0  0  0  0  0
    2.3650    0.1168   -0.0275 C   0  0  0  0  0  0  0  0  0  0  0  0
   -2.5311   -0.0073    0.0287 C   0  0  0  0  0  0  0  0  0  0  0  0
    0.6988   -1.8058    0.1383 C   0  0  0  0  0  0  0  0  0  0  0  0
   -0.7925   -1.8211    0.1841 C   0  0  0  0  0  0  0  0  0  0  0  0
    3.5169   -0.6807    0.0342 C   0  0  0  0  0  0  0  0  0  0  0  0
    2.5077    1.5071   -0.1438 C   0  0  0  0  0  0  0  0  0  0  0  0
   -3.5485   -0.7735   -0.5403 C   0  0  0  0  0  0  0  0  0  0  0  0
   -2.8148    1.2587    0.5411 C   0  0  0  0  0  0  0  0  0  0  0  0
    4.7843   -0.1006   -0.0193 C   0  0  0  0  0  0  0  0  0  0  0  0
    3.7751    2.0873   -0.1973 C   0  0  0  0  0  0  0  0  0  0  0  0
   -4.8496   -0.2736   -0.5971 C   0  0  0  0  0  0  0  0  0  0  0  0
   -4.1159    1.7584    0.4844 C   0  0  0  0  0  0  0  0  0  0  0  0
    4.9134    1.2833   -0.1350 C   0  0  0  0  0  0  0  0  0  0  0  0
   -5.1332    0.9922   -0.0846 C   0  0  0  0  0  0  0  0  0  0  0  0
   -0.1183    1.1578   -0.4973 H   0  0  0  0  0  0  0  0  0  0  0  0
   -1.3956   -2.7098    0.2526 H   0  0  0  0  0  0  0  0  0  0  0  0
    3.4682   -1.7601    0.1249 H   0  0  0  0  0  0  0  0  0  0  0  0
    1.6525    2.1747   -0.1897 H   0  0  0  0  0  0  0  0  0  0  0  0
   -3.3558   -1.7592   -0.9559 H   0  0  0  0  0  0  0  0  0  0  0  0
   -2.0421    1.8732    0.9965 H   0  0  0  0  0  0  0  0  0  0  0  0
    5.6710   -0.7260    0.0294 H   0  0  0  0  0  0  0  0  0  0  0  0
    3.8765    3.1651   -0.2860 H   0  0  0  0  0  0  0  0  0  0  0  0
   -5.6414   -0.8690   -1.0420 H   0  0  0  0  0  0  0  0  0  0  0  0
   -4.3375    2.7435    0.8846 H   0  0  0  0  0  0  0  0  0  0  0  0
    5.9001    1.7351   -0.1763 H   0  0  0  0  0  0  0  0  0  0  0  0
   -6.1462    1.3814   -0.1289 H   0  0  0  0  0  0  0  0  0  0  0  0
  1  7  2  0  0  0  0
  2  3  1  0  0  0  0
  2  5  1  0  0  0  0
  2  7  1  0  0  0  0
  3  4  1  0  0  0  0
  3 19  1  0  0  0  0
  4  6  1  0  0  0  0
  4  8  2  0  0  0  0
  5  9  2  0  0  0  0
  5 10  1  0  0  0  0
  6 11  2  0  0  0  0
  6 12  1  0  0  0  0
  7  8  1  0  0  0  0
  8 20  1  0  0  0  0
  9 13  1  0  0  0  0
  9 21  1  0  0  0  0
 10 14  2  0  0  0  0
 10 22  1  0  0  0  0
 11 15  1  0  0  0  0
 11 23  1  0  0  0  0
 12 16  2  0  0  0  0
 12 24  1  0  0  0  0
 13 17  2  0  0  0  0
 13 25  1  0  0  0  0
 14 17  1  0  0  0  0
 14 26  1  0  0  0  0
 15 18  2  0  0  0  0
 15 27  1  0  0  0  0
 16 18  1  0  0  0  0
 16 28  1  0  0  0  0
 17 29  1  0  0  0  0
 18 30  1  0  0  0  0
M  END
> <PUBCHEM_COMPOUND_CID>
245736

> <PUBCHEM_CONFORMER_RMSD>
0.6

> <PUBCHEM_CONFORMER_DIVERSEORDER>
1
2
3
4

> <PUBCHEM_MMFF94_PARTIAL_CHARGES>
30
1 -0.57
10 -0.15
11 -0.15
12 -0.15
13 -0.15
14 -0.15
15 -0.15
16 -0.15
17 -0.15
18 -0.15
19 0.4
2 -0.16
20 0.15
21 0.15
22 0.15
23 0.15
24 0.15
25 0.15
26 0.15
27 0.15
28 0.15
29 0.15
3 -0.52
30 0.15
4 0.07
5 0.12
6 0.03
7 0.62
8 -0.14
9 -0.15

> <PUBCHEM_EFFECTIVE_ROTOR_COUNT>
2

> <PUBCHEM_PHARMACOPHORE_FEATURES>
5
1 1 acceptor
1 3 donor
5 2 3 4 7 8 rings
6 5 9 10 13 14 17 rings
6 6 11 12 15 16 18 rings

> <PUBCHEM_HEAVY_ATOM_COUNT>
18

> <PUBCHEM_ATOM_DEF_STEREO_COUNT>
0

> <PUBCHEM_ATOM_UDEF_STEREO_COUNT>
0

> <PUBCHEM_BOND_DEF_STEREO_COUNT>
0

> <PUBCHEM_BOND_UDEF_STEREO_COUNT>
0

> <PUBCHEM_ISOTOPIC_ATOM_COUNT>
0

> <PUBCHEM_COMPONENT_COUNT>
1

> <PUBCHEM_CACTVS_TAUTO_COUNT>
3

> <PUBCHEM_CONFORMER_ID>
0003BFE800000001

> <PUBCHEM_MMFF94_ENERGY>
66.4024

> <PUBCHEM_FEATURE_SELFOVERLAP>
25.373

> <PUBCHEM_SHAPE_FINGERPRINT>
10411042 1 17545038204355639258
11471102 20 18409729539142219070
12107183 9 17620195334624709065
12236239 1 18131067125701509437
12644460 14 17968372343206435698
12916748 109 18412552028139680185
13544653 18 10735882789328823578
13583140 156 16950562228923804753
14251764 18 18334570257715877048
14252887 29 11602814671290145920
14528608 73 18411979174070828285
15196674 1 18411138051828271272
18186145 218 18409164402955472772
18222031 100 8358254792015154377
19784866 9 18410572847085383890
200 152 18202279212989236677
20300324 65 18060418041009461477
204376 136 18334297586588861619
20645477 70 18130230359199635862
21033648 29 16660911236430584693
212847 35 18335139804459814828
21524375 3 18409729581796648770
21709351 56 18411131420440925869
2255824 54 18266176119825358523
22950370 63 9295292754748869544
231179 274 17821721715328181766
23402539 116 18272927245472618469
23402655 69 18272931622038914253
23558518 356 17682398401359524306
23559900 14 18200876171638625022
245318 6 17461738469064325764
2916195 48 18059565949462746240
335352 9 18409450281012276686
34797466 226 16486976253474707936
351380 180 18341893008660911860
3545911 37 18408887322088884901
4214541 1 18411701006108243501
474 4 18334296478444990769
495365 180 17417522627418835072
4990 188 17917998269376729390
5104073 3 18335138704288538610
6138700 20 18267308638904428358
6328613 192 18262246633552010316
633830 44 18412544310204950934
67856867 119 18339349773751692579
7364860 26 18268431230974173030
8272917 22 18339927013298723302
9981440 41 18336263526354197419

> <PUBCHEM_SHAPE_MULTIPOLES>
354.6
11.28
2.22
0.68
1.43
0.56
-0.01
-5.49
-0.99
-0.78
0.18
0.25
-0.04
-0.62

> <PUBCHEM_SHAPE_SELFOVERLAP>
780.941

> <PUBCHEM_SHAPE_VOLUME>
189.2

> <PUBCHEM_COORDINATE_TYPE>
2
5
10

$$$$
