598633
  -OEChem-01171811383D

 20 21  0     0  0  0  0  0  0999 V2000
    3.1527    2.3350    0.3003 Cl  0  0  0  0  0  0  0  0  0  0  0  0
    4.6425   -0.5087   -0.1096 Cl  0  0  0  0  0  0  0  0  0  0  0  0
   -4.4979    1.0690   -0.3111 O   0  0  0  0  0  0  0  0  0  0  0  0
   -2.0999   -1.2266    0.4654 N   0  0  0  0  0  0  0  0  0  0  0  0
   -3.4104   -0.8720    0.4422 N   0  0  0  0  0  0  0  0  0  0  0  0
   -1.3354   -0.1869   -0.0002 C   0  0  0  0  0  0  0  0  0  0  0  0
    0.1331   -0.2485   -0.0265 C   0  0  0  0  0  0  0  0  0  0  0  0
   -2.1085    0.8420   -0.3889 C   0  0  0  0  0  0  0  0  0  0  0  0
    0.8839    0.9165    0.1297 C   0  0  0  0  0  0  0  0  0  0  0  0
    0.7756   -1.4736   -0.2060 C   0  0  0  0  0  0  0  0  0  0  0  0
   -3.5017    0.3993   -0.0988 C   0  0  0  0  0  0  0  0  0  0  0  0
    2.2774    0.8566    0.1063 C   0  0  0  0  0  0  0  0  0  0  0  0
    2.1689   -1.5335   -0.2294 C   0  0  0  0  0  0  0  0  0  0  0  0
    2.9198   -0.3686   -0.0732 C   0  0  0  0  0  0  0  0  0  0  0  0
   -1.7489   -1.9341    1.0958 H   0  0  0  0  0  0  0  0  0  0  0  0
   -1.8371    1.7990   -0.7986 H   0  0  0  0  0  0  0  0  0  0  0  0
    0.3939    1.8764    0.2796 H   0  0  0  0  0  0  0  0  0  0  0  0
    0.2145   -2.3954   -0.3380 H   0  0  0  0  0  0  0  0  0  0  0  0
   -4.1336   -1.5033    0.7599 H   0  0  0  0  0  0  0  0  0  0  0  0
    2.6531   -2.4964   -0.3720 H   0  0  0  0  0  0  0  0  0  0  0  0
  1 12  1  0  0  0  0
  2 14  1  0  0  0  0
  3 11  2  0  0  0  0
  4  5  1  0  0  0  0
  4  6  1  0  0  0  0
  4 15  1  0  0  0  0
  5 11  1  0  0  0  0
  5 19  1  0  0  0  0
  6  7  1  0  0  0  0
  6  8  2  0  0  0  0
  7  9  2  0  0  0  0
  7 10  1  0  0  0  0
  8 11  1  0  0  0  0
  8 16  1  0  0  0  0
  9 12  1  0  0  0  0
  9 17  1  0  0  0  0
 10 13  2  0  0  0  0
 10 18  1  0  0  0  0
 12 14  2  0  0  0  0
 13 14  1  0  0  0  0
 13 20  1  0  0  0  0
M  END
> <PUBCHEM_COMPOUND_CID>
598633

> <PUBCHEM_CONFORMER_RMSD>
0.4

> <PUBCHEM_CONFORMER_DIVERSEORDER>
1
5
4
2
6
3

> <PUBCHEM_MMFF94_PARTIAL_CHARGES>
20
1 -0.18
10 -0.15
11 0.62
12 0.18
13 -0.15
14 0.18
15 0.4
16 0.15
17 0.15
18 0.15
19 0.37
2 -0.18
20 0.15
3 -0.57
4 -0.52
5 -0.41
6 0.07
7 0.03
8 -0.14
9 -0.15

> <PUBCHEM_EFFECTIVE_ROTOR_COUNT>
1

> <PUBCHEM_PHARMACOPHORE_FEATURES>
5
1 3 acceptor
1 4 donor
1 5 donor
5 4 5 6 8 11 rings
6 7 9 10 12 13 14 rings

> <PUBCHEM_HEAVY_ATOM_COUNT>
14

> <PUBCHEM_ATOM_DEF_STEREO_COUNT>
0

> <PUBCHEM_ATOM_UDEF_STEREO_COUNT>
0

> <PUBCHEM_BOND_DEF_STEREO_COUNT>
0

> <PUBCHEM_BOND_UDEF_STEREO_COUNT>
0

> <PUBCHEM_ISOTOPIC_ATOM_COUNT>
0

> <PUBCHEM_COMPONENT_COUNT>
1

> <PUBCHEM_CACTVS_TAUTO_COUNT>
5

> <PUBCHEM_CONFORMER_ID>
0009226900000001

> <PUBCHEM_MMFF94_ENERGY>
45.6706

> <PUBCHEM_FEATURE_SELFOVERLAP>
26.977

> <PUBCHEM_SHAPE_FINGERPRINT>
10608611 8 18408601465834452485
11401426 45 18272927211592901670
11471102 20 18413387614285527940
12032990 46 18341338795209014910
12500047 106 18186518795852340507
12932764 1 17385712591331450083
13380535 76 18410573968214740271
13922767 16 18413666911824660768
14325111 11 18410855511673135065
14415576 193 18410577301045863732
14911166 2 18341621399830456046
15196674 1 18410574023806169796
15219456 202 18408886269247027433
15442244 35 18053386491823569672
15536298 74 18343021129413869672
15775835 57 18130226080952993404
16945 1 18343028761512641470
17802600 8 18410006611492848612
17834072 33 18272646879151221719
18175812 5 18334576862463007294
18186145 218 18130519625004122568
200 152 17917704695735641015
20201158 50 18411139095521180971
20279233 1 18408327670311943087
20528008 55 18335417963520942687
20645477 56 18186801336492539765
20645477 70 18272651233715498398
21267235 1 18411428306013599039
21501502 16 18197773521660350982
22854114 111 18412261770165956196
23402539 116 18187357718871136415
23402655 69 18270673156969008581
23557571 272 17458061539203399773
23558518 356 17973157624264631458
23559900 14 18411417268195717674
2748010 2 18267873972157932270
3060560 45 18059858325113894630
5104073 3 18408887364590295825
53812653 166 18334857190804963930
69090 78 18410851058451659599
7364860 26 18342739602934279902
8809292 202 18260272961880145826
9709674 26 18411142437190775871

> <PUBCHEM_SHAPE_MULTIPOLES>
276.02
7.94
1.79
0.66
2.61
0.51
0
1.25
0.16
-1.27
-0.07
0.02
0
0.55

> <PUBCHEM_SHAPE_SELFOVERLAP>
580.794

> <PUBCHEM_SHAPE_VOLUME>
157.9

> <PUBCHEM_COORDINATE_TYPE>
2
5
10

$$$$
