3252210
  -OEChem-01171811423D

 70 74  0     1  0  0  0  0  0999 V2000
   -1.2077   -1.1292    1.2853 O   0  0  0  0  0  0  0  0  0  0  0  0
    1.9709   -1.7443    0.1663 O   0  0  0  0  0  0  0  0  0  0  0  0
   -2.5253    3.5287    2.0974 O   0  0  0  0  0  0  0  0  0  0  0  0
   -2.6867   -0.9969   -0.5606 N   0  0  0  0  0  0  0  0  0  0  0  0
    3.4546    0.0883    0.3951 N   0  0  0  0  0  0  0  0  0  0  0  0
   -2.5931   -0.7558   -1.9126 N   0  0  0  0  0  0  0  0  0  0  0  0
    3.3564    1.4457    0.6005 N   0  0  0  0  0  0  0  0  0  0  0  0
    0.2733    0.6615   -0.7001 C   0  0  0  0  0  0  0  0  0  0  0  0
   -0.4449   -0.6431   -0.9810 C   0  0  2  0  0  0  0  0  0  0  0  0
    1.1951    0.5415    0.5231 C   0  0  2  0  0  0  0  0  0  0  0  0
   -0.6950    1.8263   -0.5406 C   0  0  0  0  0  0  0  0  0  0  0  0
   -1.3416   -0.5601   -2.1812 C   0  0  0  0  0  0  0  0  0  0  0  0
    2.0960    1.7305    0.6842 C   0  0  0  0  0  0  0  0  0  0  0  0
   -1.4496   -0.9589    0.1018 C   0  0  0  0  0  0  0  0  0  0  0  0
    2.2111   -0.5606    0.3368 C   0  0  0  0  0  0  0  0  0  0  0  0
   -1.1627    2.1356    0.7194 C   0  0  0  0  0  0  0  0  0  0  0  0
   -1.0743    2.5340   -1.6619 C   0  0  0  0  0  0  0  0  0  0  0  0
   -0.8236   -0.2799   -3.5500 C   0  0  0  0  0  0  0  0  0  0  0  0
    1.5728    3.1056    0.9208 C   0  0  0  0  0  0  0  0  0  0  0  0
   -3.9283   -1.2448    0.0025 C   0  0  0  0  0  0  0  0  0  0  0  0
    4.7064   -0.4929    0.2708 C   0  0  0  0  0  0  0  0  0  0  0  0
   -2.0503    3.2018    0.8648 C   0  0  0  0  0  0  0  0  0  0  0  0
   -1.9619    3.6002   -1.5165 C   0  0  0  0  0  0  0  0  0  0  0  0
   -2.4500    3.9340   -0.2531 C   0  0  0  0  0  0  0  0  0  0  0  0
   -5.0790   -1.2478   -0.7944 C   0  0  0  0  0  0  0  0  0  0  0  0
    5.8623    0.2923    0.3506 C   0  0  0  0  0  0  0  0  0  0  0  0
   -4.0442   -1.4933    1.3750 C   0  0  0  0  0  0  0  0  0  0  0  0
    4.8273   -1.8716    0.0626 C   0  0  0  0  0  0  0  0  0  0  0  0
   -6.3287   -1.4959   -0.2263 C   0  0  0  0  0  0  0  0  0  0  0  0
    7.1219   -0.2934    0.2237 C   0  0  0  0  0  0  0  0  0  0  0  0
   -5.2938   -1.7414    1.9430 C   0  0  0  0  0  0  0  0  0  0  0  0
    6.0869   -2.4573   -0.0641 C   0  0  0  0  0  0  0  0  0  0  0  0
   -6.4360   -1.7427    1.1424 C   0  0  0  0  0  0  0  0  0  0  0  0
    7.2343   -1.6681    0.0165 C   0  0  0  0  0  0  0  0  0  0  0  0
   -7.5376   -1.4917   -1.1036 C   0  0  0  0  0  0  0  0  0  0  0  0
    8.3361    0.5720    0.3130 C   0  0  0  0  0  0  0  0  0  0  0  0
   -7.7633   -2.0109    1.7729 C   0  0  0  0  0  0  0  0  0  0  0  0
    8.5722   -2.3174   -0.1223 C   0  0  0  0  0  0  0  0  0  0  0  0
    0.9203    0.8967   -1.5577 H   0  0  0  0  0  0  0  0  0  0  0  0
    0.1987   -1.5047   -1.1569 H   0  0  0  0  0  0  0  0  0  0  0  0
    0.7056    0.3530    1.4811 H   0  0  0  0  0  0  0  0  0  0  0  0
   -0.9106    1.5676    1.6064 H   0  0  0  0  0  0  0  0  0  0  0  0
   -0.6830    2.3098   -2.6475 H   0  0  0  0  0  0  0  0  0  0  0  0
    0.1569    0.1971   -3.5236 H   0  0  0  0  0  0  0  0  0  0  0  0
   -1.5261    0.3611   -4.0894 H   0  0  0  0  0  0  0  0  0  0  0  0
   -0.7308   -1.2281   -4.0873 H   0  0  0  0  0  0  0  0  0  0  0  0
    2.4208    3.7517    1.1788 H   0  0  0  0  0  0  0  0  0  0  0  0
    0.9040    3.1287    1.7812 H   0  0  0  0  0  0  0  0  0  0  0  0
    1.1323    3.5354    0.0224 H   0  0  0  0  0  0  0  0  0  0  0  0
   -2.2677    4.1747   -2.3860 H   0  0  0  0  0  0  0  0  0  0  0  0
   -3.1398    4.7667   -0.1460 H   0  0  0  0  0  0  0  0  0  0  0  0
   -5.0194   -1.0572   -1.8633 H   0  0  0  0  0  0  0  0  0  0  0  0
    5.7991    1.3659    0.5113 H   0  0  0  0  0  0  0  0  0  0  0  0
   -3.2088   -1.5088    2.0611 H   0  0  0  0  0  0  0  0  0  0  0  0
    3.9884   -2.5496   -0.0114 H   0  0  0  0  0  0  0  0  0  0  0  0
   -5.3609   -1.9317    3.0110 H   0  0  0  0  0  0  0  0  0  0  0  0
    6.1577   -3.5298   -0.2253 H   0  0  0  0  0  0  0  0  0  0  0  0
   -2.1430    2.9233    2.7557 H   0  0  0  0  0  0  0  0  0  0  0  0
   -8.2432   -0.7182   -0.7836 H   0  0  0  0  0  0  0  0  0  0  0  0
   -7.2825   -1.2829   -2.1483 H   0  0  0  0  0  0  0  0  0  0  0  0
   -8.0329   -2.4679   -1.0818 H   0  0  0  0  0  0  0  0  0  0  0  0
    8.0762    1.6236    0.4771 H   0  0  0  0  0  0  0  0  0  0  0  0
    8.9693    0.2622    1.1507 H   0  0  0  0  0  0  0  0  0  0  0  0
    8.9127    0.5240   -0.6165 H   0  0  0  0  0  0  0  0  0  0  0  0
   -8.4338   -1.1559    1.6388 H   0  0  0  0  0  0  0  0  0  0  0  0
   -8.2222   -2.9056    1.3399 H   0  0  0  0  0  0  0  0  0  0  0  0
   -7.6727   -2.1841    2.8510 H   0  0  0  0  0  0  0  0  0  0  0  0
    9.1682   -2.1705    0.7842 H   0  0  0  0  0  0  0  0  0  0  0  0
    8.4844   -3.3982   -0.2792 H   0  0  0  0  0  0  0  0  0  0  0  0
    9.1115   -1.9092   -0.9832 H   0  0  0  0  0  0  0  0  0  0  0  0
  1 14  2  0  0  0  0
  2 15  2  0  0  0  0
  3 22  1  0  0  0  0
  3 58  1  0  0  0  0
  4  6  1  0  0  0  0
  4 14  1  0  0  0  0
  4 20  1  0  0  0  0
  5  7  1  0  0  0  0
  5 15  1  0  0  0  0
  5 21  1  0  0  0  0
  6 12  2  0  0  0  0
  7 13  2  0  0  0  0
  8  9  1  0  0  0  0
  8 10  1  0  0  0  0
  8 11  1  0  0  0  0
  8 39  1  0  0  0  0
  9 12  1  0  0  0  0
  9 14  1  0  0  0  0
  9 40  1  0  0  0  0
 10 13  1  0  0  0  0
 10 15  1  0  0  0  0
 10 41  1  0  0  0  0
 11 16  2  0  0  0  0
 11 17  1  0  0  0  0
 12 18  1  0  0  0  0
 13 19  1  0  0  0  0
 16 22  1  0  0  0  0
 16 42  1  0  0  0  0
 17 23  2  0  0  0  0
 17 43  1  0  0  0  0
 18 44  1  0  0  0  0
 18 45  1  0  0  0  0
 18 46  1  0  0  0  0
 19 47  1  0  0  0  0
 19 48  1  0  0  0  0
 19 49  1  0  0  0  0
 20 25  2  0  0  0  0
 20 27  1  0  0  0  0
 21 26  2  0  0  0  0
 21 28  1  0  0  0  0
 22 24  2  0  0  0  0
 23 24  1  0  0  0  0
 23 50  1  0  0  0  0
 24 51  1  0  0  0  0
 25 29  1  0  0  0  0
 25 52  1  0  0  0  0
 26 30  1  0  0  0  0
 26 53  1  0  0  0  0
 27 31  2  0  0  0  0
 27 54  1  0  0  0  0
 28 32  2  0  0  0  0
 28 55  1  0  0  0  0
 29 33  2  0  0  0  0
 29 35  1  0  0  0  0
 30 34  2  0  0  0  0
 30 36  1  0  0  0  0
 31 33  1  0  0  0  0
 31 56  1  0  0  0  0
 32 34  1  0  0  0  0
 32 57  1  0  0  0  0
 33 37  1  0  0  0  0
 34 38  1  0  0  0  0
 35 59  1  0  0  0  0
 35 60  1  0  0  0  0
 35 61  1  0  0  0  0
 36 62  1  0  0  0  0
 36 63  1  0  0  0  0
 36 64  1  0  0  0  0
 37 65  1  0  0  0  0
 37 66  1  0  0  0  0
 37 67  1  0  0  0  0
 38 68  1  0  0  0  0
 38 69  1  0  0  0  0
 38 70  1  0  0  0  0
M  END
> <PUBCHEM_COMPOUND_CID>
3252210

> <PUBCHEM_CONFORMER_RMSD>
1

> <PUBCHEM_CONFORMER_DIVERSEORDER>
1
43
12
24
29
46
16
8
36
47
6
10
17
41
25
15
2
42
18
11
7
44
40
13
4
20
26
14
48
5
19
9
31
45
34
21
3
28
22
37
30
23
38
32
35
27
33
39

> <PUBCHEM_MMFF94_PARTIAL_CHARGES>
49
1 -0.57
10 0.12
11 -0.14
12 0.33
13 0.33
14 0.57
15 0.57
16 -0.15
17 -0.15
18 0.06
19 0.06
2 -0.57
20 0.12
21 0.12
22 0.08
23 -0.15
24 -0.15
25 -0.15
26 -0.15
27 -0.15
28 -0.15
29 -0.14
3 -0.53
30 -0.14
31 -0.15
32 -0.15
33 -0.14
34 -0.14
35 0.14
36 0.14
37 0.14
38 0.14
4 -0.11
42 0.15
43 0.15
5 -0.11
50 0.15
51 0.15
52 0.15
53 0.15
54 0.15
55 0.15
56 0.15
57 0.15
58 0.45
6 -0.51
7 -0.51
8 0.14
9 0.12

> <PUBCHEM_EFFECTIVE_ROTOR_COUNT>
5.8

> <PUBCHEM_PHARMACOPHORE_FEATURES>
10
1 1 acceptor
1 2 acceptor
1 3 donor
1 6 acceptor
1 7 acceptor
5 4 6 9 12 14 rings
5 5 7 10 13 15 rings
6 11 16 17 22 23 24 rings
6 20 25 27 29 31 33 rings
6 21 26 28 30 32 34 rings

> <PUBCHEM_HEAVY_ATOM_COUNT>
38

> <PUBCHEM_ATOM_DEF_STEREO_COUNT>
0

> <PUBCHEM_ATOM_UDEF_STEREO_COUNT>
2

> <PUBCHEM_BOND_DEF_STEREO_COUNT>
0

> <PUBCHEM_BOND_UDEF_STEREO_COUNT>
0

> <PUBCHEM_ISOTOPIC_ATOM_COUNT>
0

> <PUBCHEM_COMPONENT_COUNT>
1

> <PUBCHEM_CACTVS_TAUTO_COUNT>
54

> <PUBCHEM_CONFORMER_ID>
00319FF200000001

> <PUBCHEM_MMFF94_ENERGY>
138.5201

> <PUBCHEM_FEATURE_SELFOVERLAP>
50.75

> <PUBCHEM_SHAPE_FINGERPRINT>
10076449 9 17968099750121937282
10190108 129 18334585620207311867
10369192 42 10951780672826199171
11456790 92 18189353385254763995
12107698 1 18343018900119965488
12422481 6 17917441904083056113
12608794 3 17489015054540510263
12760667 363 18411417323660832483
13673619 4 18260266356515700654
13811026 1 18409442609293383056
14068700 675 17894918450920863717
14118638 360 18335419042185734722
14767858 380 12829481567222371991
14955137 171 18189342436639593347
15064981 194 18194131724902725268
15064986 266 18335144159820046366
15131766 46 15694877172456555608
15198563 99 17968088686418234645
15276724 80 18272085046026895412
16090146 7 16660939802263442674
18608769 82 18409163316492517410
21236236 1 18339359665551680112
21927370 108 18186810161980335421
24893992 56 18040991874893394095
25269216 80 18337690620345223262
2747138 104 18335423491318342074
283562 15 18261670377056247619
335507 130 18272366491613503134
350125 39 18413386527759515976
3552219 110 17821740445818139013
437815 12 18113616828766649547
469060 322 17095526145402640044
497634 4 17895189957563466622
5104073 3 18268981013475263162
513202 73 18412824664305778415
54039377 194 18342461409946197174
6058803 2 13336943480820898468
6081469 158 18334855035190213255
70251023 43 17985237885219167492
9896288 288 18127978516135441401

> <PUBCHEM_SHAPE_MULTIPOLES>
744.49
20.47
3.96
1.91
21.27
4.49
-1.16
-20.84
4.83
-2.57
0.75
-2.97
0.19
1.42

> <PUBCHEM_SHAPE_SELFOVERLAP>
1645.235

> <PUBCHEM_SHAPE_VOLUME>
400.8

> <PUBCHEM_COORDINATE_TYPE>
2
5
10

$$$$
