18579496
  -OEChem-01171812113D

 46 48  0     0  0  0  0  0  0999 V2000
    1.3081   -0.6891   -2.2593 Cl  0  0  0  0  0  0  0  0  0  0  0  0
    1.0898    3.6021    0.4289 S   0  0  0  0  0  0  0  0  0  0  0  0
   -2.4547   -1.9648    0.1612 O   0  0  0  0  0  0  0  0  0  0  0  0
   -1.3346    2.7113   -0.5651 O   0  0  0  0  0  0  0  0  0  0  0  0
    2.8934    2.2819   -1.7754 O   0  0  0  0  0  0  0  0  0  0  0  0
   -1.5644    0.6835    0.6228 N   0  0  0  0  0  0  0  0  0  0  0  0
    3.6283    0.9581   -0.0119 N   0  0  0  0  0  0  0  0  0  0  0  0
    1.0678    1.1990    1.5961 N   0  0  0  0  0  0  0  0  0  0  0  0
   -2.9087    0.3913    0.1707 C   0  0  0  0  0  0  0  0  0  0  0  0
    3.9735   -0.2139   -0.7842 C   0  0  0  0  0  0  0  0  0  0  0  0
    3.1549   -1.4086   -0.3883 C   0  0  0  0  0  0  0  0  0  0  0  0
   -3.3108   -0.9241   -0.0453 C   0  0  0  0  0  0  0  0  0  0  0  0
   -0.9199    1.8816    0.2331 C   0  0  0  0  0  0  0  0  0  0  0  0
   -3.7955    1.4428   -0.0452 C   0  0  0  0  0  0  0  0  0  0  0  0
    0.4508    2.0533    0.8554 C   0  0  0  0  0  0  0  0  0  0  0  0
   -0.8575   -0.2116    1.4152 C   0  0  0  0  0  0  0  0  0  0  0  0
    2.8535    3.2006    0.4387 C   0  0  0  0  0  0  0  0  0  0  0  0
   -4.6090   -1.1900   -0.4808 C   0  0  0  0  0  0  0  0  0  0  0  0
    3.1143    2.1136   -0.5773 C   0  0  0  0  0  0  0  0  0  0  0  0
    1.9406   -1.6928   -1.0056 C   0  0  0  0  0  0  0  0  0  0  0  0
    3.6433   -2.2326    0.6214 C   0  0  0  0  0  0  0  0  0  0  0  0
   -5.0938    1.1770   -0.4805 C   0  0  0  0  0  0  0  0  0  0  0  0
   -5.5005   -0.1394   -0.6985 C   0  0  0  0  0  0  0  0  0  0  0  0
    0.3793    0.0490    1.8502 C   0  0  0  0  0  0  0  0  0  0  0  0
    1.2074   -2.8112   -0.6093 C   0  0  0  0  0  0  0  0  0  0  0  0
    2.9101   -3.3510    1.0176 C   0  0  0  0  0  0  0  0  0  0  0  0
    1.6921   -3.6403    0.4024 C   0  0  0  0  0  0  0  0  0  0  0  0
   -2.9579   -3.2756   -0.0870 C   0  0  0  0  0  0  0  0  0  0  0  0
    3.9137   -0.0086   -1.8579 H   0  0  0  0  0  0  0  0  0  0  0  0
    5.0350   -0.4101   -0.5881 H   0  0  0  0  0  0  0  0  0  0  0  0
   -3.5427    2.4772    0.1636 H   0  0  0  0  0  0  0  0  0  0  0  0
   -1.3404   -1.1027    1.7899 H   0  0  0  0  0  0  0  0  0  0  0  0
    3.7877    0.9217    0.9907 H   0  0  0  0  0  0  0  0  0  0  0  0
    3.1752    2.9194    1.4457 H   0  0  0  0  0  0  0  0  0  0  0  0
    3.4265    4.0858    0.1454 H   0  0  0  0  0  0  0  0  0  0  0  0
   -4.9965   -2.1848   -0.6708 H   0  0  0  0  0  0  0  0  0  0  0  0
    4.5887   -2.0182    1.1124 H   0  0  0  0  0  0  0  0  0  0  0  0
   -5.7924    1.9936   -0.6378 H   0  0  0  0  0  0  0  0  0  0  0  0
   -6.5126   -0.3452   -1.0348 H   0  0  0  0  0  0  0  0  0  0  0  0
    0.8815   -0.6598    2.5004 H   0  0  0  0  0  0  0  0  0  0  0  0
    0.2563   -3.0498   -1.0783 H   0  0  0  0  0  0  0  0  0  0  0  0
    3.2866   -3.9960    1.8062 H   0  0  0  0  0  0  0  0  0  0  0  0
    1.1204   -4.5103    0.7118 H   0  0  0  0  0  0  0  0  0  0  0  0
   -2.1459   -3.9777    0.1301 H   0  0  0  0  0  0  0  0  0  0  0  0
   -3.7823   -3.5273    0.5889 H   0  0  0  0  0  0  0  0  0  0  0  0
   -3.2226   -3.4141   -1.1408 H   0  0  0  0  0  0  0  0  0  0  0  0
  1 20  1  0  0  0  0
  2 15  1  0  0  0  0
  2 17  1  0  0  0  0
  3 12  1  0  0  0  0
  3 28  1  0  0  0  0
  4 13  2  0  0  0  0
  5 19  2  0  0  0  0
  6  9  1  0  0  0  0
  6 13  1  0  0  0  0
  6 16  1  0  0  0  0
  7 10  1  0  0  0  0
  7 19  1  0  0  0  0
  7 33  1  0  0  0  0
  8 15  2  0  0  0  0
  8 24  1  0  0  0  0
  9 12  1  0  0  0  0
  9 14  2  0  0  0  0
 10 11  1  0  0  0  0
 10 29  1  0  0  0  0
 10 30  1  0  0  0  0
 11 20  1  0  0  0  0
 11 21  2  0  0  0  0
 12 18  2  0  0  0  0
 13 15  1  0  0  0  0
 14 22  1  0  0  0  0
 14 31  1  0  0  0  0
 16 24  2  0  0  0  0
 16 32  1  0  0  0  0
 17 19  1  0  0  0  0
 17 34  1  0  0  0  0
 17 35  1  0  0  0  0
 18 23  1  0  0  0  0
 18 36  1  0  0  0  0
 20 25  2  0  0  0  0
 21 26  1  0  0  0  0
 21 37  1  0  0  0  0
 22 23  2  0  0  0  0
 22 38  1  0  0  0  0
 23 39  1  0  0  0  0
 24 40  1  0  0  0  0
 25 27  1  0  0  0  0
 25 41  1  0  0  0  0
 26 27  2  0  0  0  0
 26 42  1  0  0  0  0
 27 43  1  0  0  0  0
 28 44  1  0  0  0  0
 28 45  1  0  0  0  0
 28 46  1  0  0  0  0
M  END
> <PUBCHEM_COMPOUND_CID>
18579496

> <PUBCHEM_CONFORMER_RMSD>
1.4

> <PUBCHEM_CONFORMER_DIVERSEORDER>
25
41
23
110
69
125
126
133
55
77
18
34
89
10
35
68
116
131
24
11
70
64
22
15
113
102
120
47
87
81
130
117
51
3
43
105
71
96
127
109
33
95
111
8
1
4
48
56
139
119
101
128
13
54
62
45
6
88
52
135
50
40
26
27
12
20
21
44
85
137
2
86
83
93
107
79
108
103
28
46
91
132
76
7
58
121
115
17
39
100
92
37
61
97
118
67
80
104
112
5
90
124
82
138
38
57
75
63
9
84
94
32
16
36
99
136
29
72
134
30
60
53
31
19
59
66
98
14
65
78
122
49
123
73
42
129
106
114
74

> <PUBCHEM_MMFF94_PARTIAL_CHARGES>
39
1 -0.18
10 0.44
11 -0.14
12 0.08
13 0.63
14 -0.15
15 0.59
16 -0.04
17 0.29
18 -0.15
19 0.57
2 -0.37
20 0.18
21 -0.15
22 -0.15
23 -0.15
24 0.02
25 -0.15
26 -0.15
27 -0.15
28 0.28
3 -0.36
31 0.15
32 0.15
33 0.37
36 0.15
37 0.15
38 0.15
39 0.15
4 -0.57
40 0.15
41 0.15
42 0.15
43 0.15
5 -0.57
6 -0.29
7 -0.73
8 -0.62
9 0.12

> <PUBCHEM_EFFECTIVE_ROTOR_COUNT>
8

> <PUBCHEM_PHARMACOPHORE_FEATURES>
8
1 3 acceptor
1 4 acceptor
1 5 acceptor
1 7 donor
1 8 acceptor
6 11 20 21 25 26 27 rings
6 6 8 13 15 16 24 rings
6 9 12 14 18 22 23 rings

> <PUBCHEM_HEAVY_ATOM_COUNT>
28

> <PUBCHEM_ATOM_DEF_STEREO_COUNT>
0

> <PUBCHEM_ATOM_UDEF_STEREO_COUNT>
0

> <PUBCHEM_BOND_DEF_STEREO_COUNT>
0

> <PUBCHEM_BOND_UDEF_STEREO_COUNT>
0

> <PUBCHEM_ISOTOPIC_ATOM_COUNT>
0

> <PUBCHEM_COMPONENT_COUNT>
1

> <PUBCHEM_CACTVS_TAUTO_COUNT>
2

> <PUBCHEM_CONFORMER_ID>
011B802800000019

> <PUBCHEM_MMFF94_ENERGY>
99.7853

> <PUBCHEM_FEATURE_SELFOVERLAP>
40.598

> <PUBCHEM_SHAPE_FINGERPRINT>
1100329 8 18339640161502934398
11370993 70 18265615561983318838
11796584 16 17203054088170225317
12156800 1 14402052700240268324
12553582 1 18197516029300986322
12788726 201 18052548668200103737
13004483 165 17903343815304451554
1361 2 18120373417471009189
13617811 41 17901101142976538087
14068700 675 18195523684757827594
14117953 113 17982449304482379047
14251757 17 17970056756328715501
17093844 170 18268706289380351040
17492 54 18340502165617891676
18681886 176 18343015563253006674
19930381 70 18409446951399681109
20600515 1 17697031436166789600
20715895 44 17686616849634165157
20764821 26 18339630261276659215
21315764 371 15123210136030763735
22393880 68 18269284610868354468
23559900 14 18411694357472508611
238 59 18338531844896601264
3298306 158 18197216064526716593
3680242 22 18195533588814989499
4066623 53 18045198485110215405
4280585 95 18268991995068808990
460360 51 18265630801007826913
463206 1 18410863144093796778
6433294 58 18411418401639517111
6669772 16 18054783146954542560

> <PUBCHEM_SHAPE_MULTIPOLES>
549.4
8.95
4.77
1.42
9.57
0.35
-0.19
1.52
-2.11
-3.61
0.49
-0.86
-0.01
-0.52

> <PUBCHEM_SHAPE_SELFOVERLAP>
1159.54

> <PUBCHEM_SHAPE_VOLUME>
309.4

> <PUBCHEM_COORDINATE_TYPE>
2
5
10

$$$$
