7206043
  -OEChem-01171812113D

 45 47  0     0  0  0  0  0  0999 V2000
   -2.7750    3.0178    0.1416 S   0  0  0  0  0  0  0  0  0  0  0  0
   -3.9542    0.5632   -1.3599 O   0  0  0  0  0  0  0  0  0  0  0  0
    1.8582   -1.2274   -1.2741 O   0  0  0  0  0  0  0  0  0  0  0  0
   -3.1300   -0.6652    0.4334 N   0  0  0  0  0  0  0  0  0  0  0  0
   -0.8783    1.3523    1.0339 N   0  0  0  0  0  0  0  0  0  0  0  0
    0.3530    0.7750    1.0525 N   0  0  0  0  0  0  0  0  0  0  0  0
   -2.9033   -1.9035   -0.2700 C   0  0  0  0  0  0  0  0  0  0  0  0
   -1.4795   -2.0012   -0.8050 C   0  0  0  0  0  0  0  0  0  0  0  0
   -2.9967   -3.1048    0.6620 C   0  0  0  0  0  0  0  0  0  0  0  0
   -0.6481   -2.5037    0.3741 C   0  0  0  0  0  0  0  0  0  0  0  0
   -1.6291   -3.1751    1.3357 C   0  0  0  0  0  0  0  0  0  0  0  0
   -3.6400    0.4725   -0.1743 C   0  0  0  0  0  0  0  0  0  0  0  0
   -3.7662    1.6427    0.7727 C   0  0  0  0  0  0  0  0  0  0  0  0
   -1.1353    2.2983    0.1131 C   0  0  0  0  0  0  0  0  0  0  0  0
    2.5535    0.5032    0.2426 C   0  0  0  0  0  0  0  0  0  0  0  0
    1.2771    1.1672    0.1501 C   0  0  0  0  0  0  0  0  0  0  0  0
   -0.2208    2.7234   -0.8212 C   0  0  0  0  0  0  0  0  0  0  0  0
    1.0322    2.1362   -0.8022 C   0  0  0  0  0  0  0  0  0  0  0  0
    2.8098   -0.6725   -0.4704 C   0  0  0  0  0  0  0  0  0  0  0  0
    3.5517    1.0445    1.0588 C   0  0  0  0  0  0  0  0  0  0  0  0
    4.0512   -1.3003   -0.3678 C   0  0  0  0  0  0  0  0  0  0  0  0
    4.7931    0.4166    1.1614 C   0  0  0  0  0  0  0  0  0  0  0  0
    5.0429   -0.7557    0.4481 C   0  0  0  0  0  0  0  0  0  0  0  0
    1.8338   -0.8036   -2.6351 C   0  0  0  0  0  0  0  0  0  0  0  0
   -3.6320   -1.9775   -1.0843 H   0  0  0  0  0  0  0  0  0  0  0  0
   -1.0992   -1.0542   -1.1998 H   0  0  0  0  0  0  0  0  0  0  0  0
   -1.4386   -2.7420   -1.6131 H   0  0  0  0  0  0  0  0  0  0  0  0
   -3.1558   -4.0173    0.0743 H   0  0  0  0  0  0  0  0  0  0  0  0
   -3.8090   -3.0278    1.3917 H   0  0  0  0  0  0  0  0  0  0  0  0
   -0.1403   -1.6849    0.8858 H   0  0  0  0  0  0  0  0  0  0  0  0
    0.1238   -3.2035    0.0374 H   0  0  0  0  0  0  0  0  0  0  0  0
   -1.6456   -2.6314    2.2875 H   0  0  0  0  0  0  0  0  0  0  0  0
   -1.3433   -4.2087    1.5551 H   0  0  0  0  0  0  0  0  0  0  0  0
   -2.8483   -0.6164    1.4082 H   0  0  0  0  0  0  0  0  0  0  0  0
   -4.8184    1.9422    0.8047 H   0  0  0  0  0  0  0  0  0  0  0  0
   -3.4637    1.3908    1.7932 H   0  0  0  0  0  0  0  0  0  0  0  0
   -0.4512    3.4889   -1.5544 H   0  0  0  0  0  0  0  0  0  0  0  0
    1.7883    2.4426   -1.5177 H   0  0  0  0  0  0  0  0  0  0  0  0
    3.3753    1.9576    1.6230 H   0  0  0  0  0  0  0  0  0  0  0  0
    4.2528   -2.2145   -0.9196 H   0  0  0  0  0  0  0  0  0  0  0  0
    5.5653    0.8405    1.7967 H   0  0  0  0  0  0  0  0  0  0  0  0
    6.0094   -1.2445    0.5282 H   0  0  0  0  0  0  0  0  0  0  0  0
    2.1364    0.2412   -2.7529 H   0  0  0  0  0  0  0  0  0  0  0  0
    2.5015   -1.4416   -3.2219 H   0  0  0  0  0  0  0  0  0  0  0  0
    0.8154   -0.9209   -3.0151 H   0  0  0  0  0  0  0  0  0  0  0  0
  1 13  1  0  0  0  0
  1 14  1  0  0  0  0
  2 12  2  0  0  0  0
  3 19  1  0  0  0  0
  3 24  1  0  0  0  0
  4  7  1  0  0  0  0
  4 12  1  0  0  0  0
  4 34  1  0  0  0  0
  5  6  1  0  0  0  0
  5 14  2  0  0  0  0
  6 16  2  0  0  0  0
  7  8  1  0  0  0  0
  7  9  1  0  0  0  0
  7 25  1  0  0  0  0
  8 10  1  0  0  0  0
  8 26  1  0  0  0  0
  8 27  1  0  0  0  0
  9 11  1  0  0  0  0
  9 28  1  0  0  0  0
  9 29  1  0  0  0  0
 10 11  1  0  0  0  0
 10 30  1  0  0  0  0
 10 31  1  0  0  0  0
 11 32  1  0  0  0  0
 11 33  1  0  0  0  0
 12 13  1  0  0  0  0
 13 35  1  0  0  0  0
 13 36  1  0  0  0  0
 14 17  1  0  0  0  0
 15 16  1  0  0  0  0
 15 19  1  0  0  0  0
 15 20  2  0  0  0  0
 16 18  1  0  0  0  0
 17 18  2  0  0  0  0
 17 37  1  0  0  0  0
 18 38  1  0  0  0  0
 19 21  2  0  0  0  0
 20 22  1  0  0  0  0
 20 39  1  0  0  0  0
 21 23  1  0  0  0  0
 21 40  1  0  0  0  0
 22 23  2  0  0  0  0
 22 41  1  0  0  0  0
 23 42  1  0  0  0  0
 24 43  1  0  0  0  0
 24 44  1  0  0  0  0
 24 45  1  0  0  0  0
M  END
> <PUBCHEM_COMPOUND_CID>
7206043

> <PUBCHEM_CONFORMER_RMSD>
1

> <PUBCHEM_CONFORMER_DIVERSEORDER>
1
118
10
18
140
105
160
31
161
89
131
81
102
85
143
175
94
60
47
125
128
71
93
124
138
66
152
109
103
119
159
164
88
174
27
34
170
76
137
67
144
116
2
108
180
149
154
155
6
127
171
21
133
41
23
113
130
167
111
22
162
79
122
72
121
87
82
156
58
177
104
107
73
64
136
153
61
62
29
46
139
163
45
112
117
126
19
84
146
91
90
15
39
134
86
115
100
158
99
54
48
166
55
176
78
74
96
3
43
165
4
50
142
20
7
178
52
150
132
59
36
141
11
151
80
110
98
28
68
26
25
129
5
147
172
51
75
168
12
57
101
65
17
53
63
173
157
123
8
97
9
148
179
69
169
70
14
106
13
42
33
32
44
135
114
145
49
30
120
83
16
92
56
37
38
35
77
24
95
40

> <PUBCHEM_MMFF94_PARTIAL_CHARGES>
26
1 -0.33
12 0.57
13 0.29
14 0.41
16 0.31
17 -0.15
18 -0.15
19 0.08
2 -0.57
20 -0.15
21 -0.15
22 -0.15
23 -0.15
24 0.28
3 -0.36
34 0.37
37 0.15
38 0.15
39 0.15
4 -0.73
40 0.15
41 0.15
42 0.15
5 -0.31
6 -0.31
7 0.3

> <PUBCHEM_EFFECTIVE_ROTOR_COUNT>
8

> <PUBCHEM_PHARMACOPHORE_FEATURES>
8
1 2 acceptor
1 3 acceptor
1 4 donor
1 5 acceptor
1 6 acceptor
5 7 8 9 10 11 rings
6 15 19 20 21 22 23 rings
6 5 6 14 16 17 18 rings

> <PUBCHEM_HEAVY_ATOM_COUNT>
24

> <PUBCHEM_ATOM_DEF_STEREO_COUNT>
0

> <PUBCHEM_ATOM_UDEF_STEREO_COUNT>
0

> <PUBCHEM_BOND_DEF_STEREO_COUNT>
0

> <PUBCHEM_BOND_UDEF_STEREO_COUNT>
0

> <PUBCHEM_ISOTOPIC_ATOM_COUNT>
0

> <PUBCHEM_COMPONENT_COUNT>
1

> <PUBCHEM_CACTVS_TAUTO_COUNT>
2

> <PUBCHEM_CONFORMER_ID>
006DF49B00000001

> <PUBCHEM_MMFF94_ENERGY>
69.1165

> <PUBCHEM_FEATURE_SELFOVERLAP>
42.193

> <PUBCHEM_SHAPE_FINGERPRINT>
10366900 7 17846773027169066632
108634 29 18341899562654496286
11045977 3 18131063793424443152
11370993 70 18199745851772292585
12422481 6 18126877999939109643
12553582 1 17836093642700905351
12633257 1 18410859866865191613
13140716 1 18338803441332473705
13402501 40 18272649043524627203
13726171 33 17977705122199100108
14251745 187 18272641355353878027
14251757 5 18188503470317443590
17093844 170 18339359660787246812
19591789 44 17976821982359200626
19930381 70 8178965724598164530
20600515 1 18410300189803665148
20775438 99 16399673050898789319
23559900 14 18342450474452974976
3052486 1 18333456443377747154
445580 42 18113902684098364939
57091435 65 17829327986698852627
602551 16 18337106774832249464
81228 2 18267888140943915978
9709674 26 18130791126992730636

> <PUBCHEM_SHAPE_MULTIPOLES>
471.08
8.47
3.85
1.45
5.45
0.79
0.7
0.8
-1.47
-4.14
-0.5
0.63
0.32
0.75

> <PUBCHEM_SHAPE_SELFOVERLAP>
986.116

> <PUBCHEM_SHAPE_VOLUME>
268.5

> <PUBCHEM_COORDINATE_TYPE>
2
5
10

$$$$
