5811072
  -OEChem-01171812093D

 46 50  0     1  0  0  0  0  0999 V2000
    4.6507    0.3934   -0.7137 S   0  0  0  0  0  0  0  0  0  0  0  0
    3.0601   -2.0677   -1.9733 F   0  0  0  0  0  0  0  0  0  0  0  0
   -0.6037   -1.6438   -1.7910 O   0  0  0  0  0  0  0  0  0  0  0  0
   -1.0837    1.9140    0.6796 O   0  0  0  0  0  0  0  0  0  0  0  0
    1.4148    3.0682    1.1761 O   0  0  0  0  0  0  0  0  0  0  0  0
   -4.9530   -0.8513    1.5102 O   0  0  0  0  0  0  0  0  0  0  0  0
   -6.2855    0.7993   -0.4418 O   0  0  0  0  0  0  0  0  0  0  0  0
    2.2500    1.1776   -0.0117 N   0  0  0  0  0  0  0  0  0  0  0  0
    4.1244    2.5772    0.5655 N   0  0  0  0  0  0  0  0  0  0  0  0
    1.6432   -0.0177   -0.6412 C   0  0  2  0  0  0  0  0  0  0  0  0
    0.1623    0.2085   -0.5086 C   0  0  0  0  0  0  0  0  0  0  0  0
    2.0896   -1.2690    0.0405 C   0  0  0  0  0  0  0  0  0  0  0  0
   -0.0486    1.4227    0.2898 C   0  0  0  0  0  0  0  0  0  0  0  0
    1.3003    2.0241    0.5657 C   0  0  0  0  0  0  0  0  0  0  0  0
   -0.8596   -0.5120   -1.0244 C   0  0  0  0  0  0  0  0  0  0  0  0
   -2.2639   -0.1742   -0.8515 C   0  0  0  0  0  0  0  0  0  0  0  0
    3.5782    1.5091    0.0281 C   0  0  0  0  0  0  0  0  0  0  0  0
    2.7861   -2.2430   -0.6731 C   0  0  0  0  0  0  0  0  0  0  0  0
    1.8076   -1.4599    1.3924 C   0  0  0  0  0  0  0  0  0  0  0  0
   -2.9721   -0.6765    0.2403 C   0  0  0  0  0  0  0  0  0  0  0  0
   -4.3166   -0.3443    0.4075 C   0  0  0  0  0  0  0  0  0  0  0  0
   -2.8990    0.6560   -1.7757 C   0  0  0  0  0  0  0  0  0  0  0  0
   -4.9597    0.4647   -0.5326 C   0  0  0  0  0  0  0  0  0  0  0  0
    3.2018   -3.4108   -0.0333 C   0  0  0  0  0  0  0  0  0  0  0  0
    2.2232   -2.6278    2.0321 C   0  0  0  0  0  0  0  0  0  0  0  0
   -4.2472    0.9777   -1.6169 C   0  0  0  0  0  0  0  0  0  0  0  0
    2.9202   -3.6032    1.3193 C   0  0  0  0  0  0  0  0  0  0  0  0
   -6.1912   -0.1827    1.7659 C   0  0  0  0  0  0  0  0  0  0  0  0
   -6.9852   -0.0388    0.4821 C   0  0  0  0  0  0  0  0  0  0  0  0
    5.9642    1.4109   -0.2889 C   0  0  0  0  0  0  0  0  0  0  0  0
    5.4923    2.5191    0.3828 C   0  0  0  0  0  0  0  0  0  0  0  0
    1.9031    0.0036   -1.7074 H   0  0  0  0  0  0  0  0  0  0  0  0
    1.2704   -0.7152    1.9729 H   0  0  0  0  0  0  0  0  0  0  0  0
   -2.4807   -1.3175    0.9692 H   0  0  0  0  0  0  0  0  0  0  0  0
   -2.3572    1.0572   -2.6290 H   0  0  0  0  0  0  0  0  0  0  0  0
    3.7446   -4.1699   -0.5886 H   0  0  0  0  0  0  0  0  0  0  0  0
    2.0051   -2.7772    3.0855 H   0  0  0  0  0  0  0  0  0  0  0  0
   -4.7363    1.6178   -2.3460 H   0  0  0  0  0  0  0  0  0  0  0  0
    3.2442   -4.5124    1.8174 H   0  0  0  0  0  0  0  0  0  0  0  0
   -1.4557   -2.0194   -2.0732 H   0  0  0  0  0  0  0  0  0  0  0  0
   -5.9755    0.7927    2.2193 H   0  0  0  0  0  0  0  0  0  0  0  0
   -6.7488   -0.7815    2.4927 H   0  0  0  0  0  0  0  0  0  0  0  0
   -7.1644   -1.0111    0.0066 H   0  0  0  0  0  0  0  0  0  0  0  0
   -7.9548    0.4264    0.6850 H   0  0  0  0  0  0  0  0  0  0  0  0
    6.9841    1.1588   -0.5417 H   0  0  0  0  0  0  0  0  0  0  0  0
    6.1094    3.3215    0.7639 H   0  0  0  0  0  0  0  0  0  0  0  0
  1 17  1  0  0  0  0
  1 30  1  0  0  0  0
  2 18  1  0  0  0  0
  3 15  1  0  0  0  0
  3 40  1  0  0  0  0
  4 13  2  0  0  0  0
  5 14  2  0  0  0  0
  6 21  1  0  0  0  0
  6 28  1  0  0  0  0
  7 23  1  0  0  0  0
  7 29  1  0  0  0  0
  8 10  1  0  0  0  0
  8 14  1  0  0  0  0
  8 17  1  0  0  0  0
  9 17  2  0  0  0  0
  9 31  1  0  0  0  0
 10 11  1  0  0  0  0
 10 12  1  0  0  0  0
 10 32  1  0  0  0  0
 11 13  1  0  0  0  0
 11 15  2  0  0  0  0
 12 18  1  0  0  0  0
 12 19  2  0  0  0  0
 13 14  1  0  0  0  0
 15 16  1  0  0  0  0
 16 20  2  0  0  0  0
 16 22  1  0  0  0  0
 18 24  2  0  0  0  0
 19 25  1  0  0  0  0
 19 33  1  0  0  0  0
 20 21  1  0  0  0  0
 20 34  1  0  0  0  0
 21 23  2  0  0  0  0
 22 26  2  0  0  0  0
 22 35  1  0  0  0  0
 23 26  1  0  0  0  0
 24 27  1  0  0  0  0
 24 36  1  0  0  0  0
 25 27  2  0  0  0  0
 25 37  1  0  0  0  0
 26 38  1  0  0  0  0
 27 39  1  0  0  0  0
 28 29  1  0  0  0  0
 28 41  1  0  0  0  0
 28 42  1  0  0  0  0
 29 43  1  0  0  0  0
 29 44  1  0  0  0  0
 30 31  2  0  0  0  0
 30 45  1  0  0  0  0
 31 46  1  0  0  0  0
M  END
> <PUBCHEM_COMPOUND_CID>
5811072

> <PUBCHEM_CONFORMER_RMSD>
0.8

> <PUBCHEM_CONFORMER_DIVERSEORDER>
1
9
12
10
3
5
4
6
7
11
2
8

> <PUBCHEM_MMFF94_PARTIAL_CHARGES>
41
1 -0.08
10 0.58
11 -0.12
12 -0.14
13 0.56
14 0.63
15 0.05
16 0.03
17 0.44
18 0.19
19 -0.15
2 -0.19
20 -0.15
21 0.08
22 -0.15
23 0.08
24 -0.15
25 -0.15
26 -0.15
27 -0.15
28 0.28
29 0.28
3 -0.53
30 -0.11
31 0.08
33 0.15
34 0.15
35 0.15
36 0.15
37 0.15
38 0.15
39 0.15
4 -0.57
40 0.45
45 0.15
46 0.15
5 -0.57
6 -0.36
7 -0.36
8 -0.42
9 -0.57

> <PUBCHEM_EFFECTIVE_ROTOR_COUNT>
4.2

> <PUBCHEM_PHARMACOPHORE_FEATURES>
10
1 3 donor
1 4 acceptor
1 5 acceptor
1 6 acceptor
1 7 acceptor
5 1 9 17 30 31 rings
5 8 10 11 13 14 rings
6 12 18 19 24 25 27 rings
6 16 20 21 22 23 26 rings
6 6 7 21 23 28 29 rings

> <PUBCHEM_HEAVY_ATOM_COUNT>
31

> <PUBCHEM_ATOM_DEF_STEREO_COUNT>
0

> <PUBCHEM_ATOM_UDEF_STEREO_COUNT>
1

> <PUBCHEM_BOND_DEF_STEREO_COUNT>
1

> <PUBCHEM_BOND_UDEF_STEREO_COUNT>
0

> <PUBCHEM_ISOTOPIC_ATOM_COUNT>
0

> <PUBCHEM_COMPONENT_COUNT>
1

> <PUBCHEM_CACTVS_TAUTO_COUNT>
3

> <PUBCHEM_CONFORMER_ID>
0058AB8000000001

> <PUBCHEM_MMFF94_ENERGY>
89.2249

> <PUBCHEM_FEATURE_SELFOVERLAP>
50.795

> <PUBCHEM_SHAPE_FINGERPRINT>
10369192 42 17895755231168386156
11135926 11 18411407428304011684
11421498 54 17775294854447307184
11475781 23 16299203763251021679
11578080 2 17678163898634347140
12236239 1 16917073282754565613
12633257 1 18271528616066028927
12644460 14 18343016687937566319
12730499 353 18333734619745611006
12788726 201 17632581509321686273
13140716 1 18054218006261728208
13533116 47 18409165485793724555
13583140 156 18339080505810326675
14114211 68 18188228558583472702
14347424 109 18338237047253118073
14790565 3 18123468538608691196
14910302 57 17168142291906842055
1577012 14 17847062169643361281
15927050 60 18338232781729003406
16994733 274 16199862990591603784
17349148 13 17632568315588009519
17913733 40 18336545009930891690
18681886 176 16414912075389000309
19319366 153 18409445921098277174
21033648 29 17821725010522932253
21033650 10 15575560107139471797
21421861 104 18411131407935734338
21521721 280 18338801242626274856
21927370 108 17977659811138152730
23559900 14 17459187391807943455
25222932 49 18340208617425399783
3178227 256 18408320012997320904
32027 91 16591091019975453803
3411729 13 18411138052075937934
345986 75 17917428658066305913
34934 24 18272647991262869350
376196 1 17055821904651721776
38695281 34 18272368724179300518
4073 2 18262242235193820995
4093350 32 17918000446883184071
4340502 62 18040718077841382058
437795 51 18334867116722558190
460360 51 18194111928406271568
5104073 3 18115306662269461113
513532 50 11674886563443378018
5265222 85 17825964890415744172
59755656 215 18335423482243045348
70251023 43 18127141775355703126

> <PUBCHEM_SHAPE_MULTIPOLES>
595.23
14.09
3.4
1.61
17.59
1.84
-0.09
-3.78
2.11
-6.59
1.2
0.73
0.57
0.92

> <PUBCHEM_SHAPE_SELFOVERLAP>
1326.253

> <PUBCHEM_SHAPE_VOLUME>
319.5

> <PUBCHEM_COORDINATE_TYPE>
2
5
10

$$$$
