5710537
  -OEChem-01171811543D

 49 51  0     0  0  0  0  0  0999 V2000
    0.3181    0.4003    0.0276 O   0  0  0  0  0  0  0  0  0  0  0  0
    6.7016    0.6145    0.0890 O   0  0  0  0  0  0  0  0  0  0  0  0
   -5.2623    1.1361    0.0228 N   0  0  0  0  0  0  0  0  0  0  0  0
    2.3632   -0.8264   -0.0279 N   0  0  0  0  0  0  0  0  0  0  0  0
    2.7472   -2.1570   -0.1038 N   0  0  0  0  0  0  0  0  0  0  0  0
    2.9153    1.4445    0.1080 N   0  0  0  0  0  0  0  0  0  0  0  0
    4.5746   -0.2437    0.0234 N   0  0  0  0  0  0  0  0  0  0  0  0
    3.7472    2.5087    0.1750 N   0  0  0  0  0  0  0  0  0  0  0  0
   -4.1556    0.2626   -0.0193 C   0  0  0  0  0  0  0  0  0  0  0  0
   -5.8636    1.4982    1.2908 C   0  0  0  0  0  0  0  0  0  0  0  0
   -5.8037    1.6939   -1.2006 C   0  0  0  0  0  0  0  0  0  0  0  0
   -1.9833   -1.4502   -0.1016 C   0  0  0  0  0  0  0  0  0  0  0  0
    0.4567   -2.0044   -0.1130 C   0  0  0  0  0  0  0  0  0  0  0  0
   -3.6331   -0.2586    1.1644 C   0  0  0  0  0  0  0  0  0  0  0  0
   -3.5832   -0.0795   -1.2444 C   0  0  0  0  0  0  0  0  0  0  0  0
   -0.8243   -2.3641   -0.1457 C   0  0  0  0  0  0  0  0  0  0  0  0
   -2.5382   -1.1219    1.1229 C   0  0  0  0  0  0  0  0  0  0  0  0
   -2.4884   -0.9428   -1.2860 C   0  0  0  0  0  0  0  0  0  0  0  0
    1.6473   -2.8598   -0.1534 C   0  0  0  0  0  0  0  0  0  0  0  0
   -6.8015    0.4009    1.7562 C   0  0  0  0  0  0  0  0  0  0  0  0
   -4.9725    2.8818   -1.6455 C   0  0  0  0  0  0  0  0  0  0  0  0
    0.9684   -0.6252   -0.0271 C   0  0  0  0  0  0  0  0  0  0  0  0
    3.3245    0.1299    0.0355 C   0  0  0  0  0  0  0  0  0  0  0  0
    1.6029   -4.3469   -0.2429 C   0  0  0  0  0  0  0  0  0  0  0  0
    5.0102    2.2206    0.1675 C   0  0  0  0  0  0  0  0  0  0  0  0
    5.4877    0.7839    0.0898 C   0  0  0  0  0  0  0  0  0  0  0  0
    6.0447    3.3046    0.2384 C   0  0  0  0  0  0  0  0  0  0  0  0
   -5.1204    1.7519    2.0549 H   0  0  0  0  0  0  0  0  0  0  0  0
   -6.4519    2.4176    1.1723 H   0  0  0  0  0  0  0  0  0  0  0  0
   -5.9101    0.9484   -1.9964 H   0  0  0  0  0  0  0  0  0  0  0  0
   -6.8286    2.0457   -1.0239 H   0  0  0  0  0  0  0  0  0  0  0  0
   -4.0276   -0.0304    2.1481 H   0  0  0  0  0  0  0  0  0  0  0  0
   -3.9415    0.2879   -2.1995 H   0  0  0  0  0  0  0  0  0  0  0  0
   -1.0927   -3.4159   -0.2091 H   0  0  0  0  0  0  0  0  0  0  0  0
   -2.1382   -1.5217    2.0509 H   0  0  0  0  0  0  0  0  0  0  0  0
   -2.0504   -1.2034   -2.2458 H   0  0  0  0  0  0  0  0  0  0  0  0
   -7.2843    0.6934    2.6944 H   0  0  0  0  0  0  0  0  0  0  0  0
   -7.5900    0.2227    1.0165 H   0  0  0  0  0  0  0  0  0  0  0  0
   -6.2933   -0.5520    1.9273 H   0  0  0  0  0  0  0  0  0  0  0  0
   -5.4066    3.3267   -2.5467 H   0  0  0  0  0  0  0  0  0  0  0  0
   -4.9497    3.6548   -0.8693 H   0  0  0  0  0  0  0  0  0  0  0  0
   -3.9363    2.6161   -1.8723 H   0  0  0  0  0  0  0  0  0  0  0  0
    1.0955   -4.6463   -1.1639 H   0  0  0  0  0  0  0  0  0  0  0  0
    1.0649   -4.7532    0.6179 H   0  0  0  0  0  0  0  0  0  0  0  0
    2.6180   -4.7533   -0.2497 H   0  0  0  0  0  0  0  0  0  0  0  0
    1.9242    1.6639    0.1128 H   0  0  0  0  0  0  0  0  0  0  0  0
    6.6781    3.2660   -0.6519 H   0  0  0  0  0  0  0  0  0  0  0  0
    6.6609    3.1656    1.1308 H   0  0  0  0  0  0  0  0  0  0  0  0
    5.5653    4.2862    0.2889 H   0  0  0  0  0  0  0  0  0  0  0  0
  1 22  2  0  0  0  0
  2 26  2  0  0  0  0
  3  9  1  0  0  0  0
  3 10  1  0  0  0  0
  3 11  1  0  0  0  0
  4  5  1  0  0  0  0
  4 22  1  0  0  0  0
  4 23  1  0  0  0  0
  5 19  2  0  0  0  0
  6  8  1  0  0  0  0
  6 23  1  0  0  0  0
  6 46  1  0  0  0  0
  7 23  2  0  0  0  0
  7 26  1  0  0  0  0
  8 25  2  0  0  0  0
  9 14  2  0  0  0  0
  9 15  1  0  0  0  0
 10 20  1  0  0  0  0
 10 28  1  0  0  0  0
 10 29  1  0  0  0  0
 11 21  1  0  0  0  0
 11 30  1  0  0  0  0
 11 31  1  0  0  0  0
 12 16  1  0  0  0  0
 12 17  2  0  0  0  0
 12 18  1  0  0  0  0
 13 16  2  0  0  0  0
 13 19  1  0  0  0  0
 13 22  1  0  0  0  0
 14 17  1  0  0  0  0
 14 32  1  0  0  0  0
 15 18  2  0  0  0  0
 15 33  1  0  0  0  0
 16 34  1  0  0  0  0
 17 35  1  0  0  0  0
 18 36  1  0  0  0  0
 19 24  1  0  0  0  0
 20 37  1  0  0  0  0
 20 38  1  0  0  0  0
 20 39  1  0  0  0  0
 21 40  1  0  0  0  0
 21 41  1  0  0  0  0
 21 42  1  0  0  0  0
 24 43  1  0  0  0  0
 24 44  1  0  0  0  0
 24 45  1  0  0  0  0
 25 26  1  0  0  0  0
 25 27  1  0  0  0  0
 27 47  1  0  0  0  0
 27 48  1  0  0  0  0
 27 49  1  0  0  0  0
M  END
> <PUBCHEM_COMPOUND_CID>
5710537

> <PUBCHEM_CONFORMER_RMSD>
0.8

> <PUBCHEM_CONFORMER_DIVERSEORDER>
2
7
4
3
8
5
6
1

> <PUBCHEM_MMFF94_PARTIAL_CHARGES>
31
1 -0.57
10 0.37
11 0.37
12 0.03
13 0.03
14 -0.15
15 -0.15
16 -0.18
17 -0.15
18 -0.15
19 0.37
2 -0.57
22 0.62
23 0.56
24 0.06
25 0.39
26 0.78
27 0.06
3 -0.84
32 0.15
33 0.15
34 0.15
35 0.15
36 0.15
4 -0.06
46 0.4
5 -0.51
6 -0.41
7 -0.66
8 -0.49
9 0.1

> <PUBCHEM_EFFECTIVE_ROTOR_COUNT>
5.2

> <PUBCHEM_PHARMACOPHORE_FEATURES>
10
1 1 acceptor
1 2 acceptor
1 3 cation
1 5 acceptor
1 6 donor
1 7 donor
1 8 acceptor
5 4 5 13 19 22 rings
6 6 7 8 23 25 26 rings
6 9 12 14 15 17 18 rings

> <PUBCHEM_HEAVY_ATOM_COUNT>
27

> <PUBCHEM_ATOM_DEF_STEREO_COUNT>
0

> <PUBCHEM_ATOM_UDEF_STEREO_COUNT>
0

> <PUBCHEM_BOND_DEF_STEREO_COUNT>
1

> <PUBCHEM_BOND_UDEF_STEREO_COUNT>
0

> <PUBCHEM_ISOTOPIC_ATOM_COUNT>
0

> <PUBCHEM_COMPONENT_COUNT>
1

> <PUBCHEM_CACTVS_TAUTO_COUNT>
3

> <PUBCHEM_CONFORMER_ID>
005722C900000002

> <PUBCHEM_MMFF94_ENERGY>
91.2878

> <PUBCHEM_FEATURE_SELFOVERLAP>
50.784

> <PUBCHEM_SHAPE_FINGERPRINT>
10 15 18040438802162207809
10411042 1 17691691087138981446
11135609 201 18339358681824750259
11796584 16 12247387957205243159
12293681 160 17775010128190896570
12403259 415 18115878395605036807
12422481 6 17603583036784449668
12769317 202 18342167847796865536
12788726 201 16773244964123665681
13402501 40 18334571334988478981
13947920 75 15985112885828506691
13955234 65 18264210214293629370
14251764 75 18342179993974863009
14739800 52 17388244647153370665
14790565 3 18337672035425633812
14848178 96 18343015614359305360
15081414 286 18339367353269034781
15475509 35 16588867846050588906
15519825 34 16226900007066724001
1813 80 11025789856584420530
18222031 100 8935004741767884198
18608769 82 18339924948031513675
19784866 34 18412825819573229846
20567600 70 9799687108516226356
20715895 44 18341893022220871816
21033648 144 18410857621346226375
21033648 29 18268986660840617312
21279426 13 18271533078441538956
21307412 95 11167940243773704017
21401589 2 18260828237148801131
22122407 14 18053678984198841505
23559900 14 18267585714938056466
23569914 2 17390466832819963013
2748736 6 18341321266957142472
2838139 119 18408877438746807244
2916195 48 18186801362146006585
335352 9 18412263952790058222
376196 1 18411132563250976962
397830 11 18262252058037403819
474 4 18413670205616632139
5104073 3 18187643626180724722
5385378 56 18410858724852491906
57724786 102 18128543669739219131
633830 44 18272369802189841614
636775 72 17765990985234596016
6608658 132 16486703455165061545
6697151 62 17540513740241219015
7970288 3 9079127656469306508

> <PUBCHEM_SHAPE_MULTIPOLES>
514.02
16.77
3.93
1.19
0.09
1.49
0.01
-17.22
2.62
-4.01
-0.66
2.73
-0.41
1.3

> <PUBCHEM_SHAPE_SELFOVERLAP>
1099.18

> <PUBCHEM_SHAPE_VOLUME>
282.8

> <PUBCHEM_COORDINATE_TYPE>
2
5
10

$$$$
