3152412
  -OEChem-01171811403D

 44 47  0     0  0  0  0  0  0999 V2000
    7.4523    0.6412    0.5197 Cl  0  0  0  0  0  0  0  0  0  0  0  0
    0.8634   -0.2497    0.3871 O   0  0  0  0  0  0  0  0  0  0  0  0
   -2.7569   -0.8493   -2.0251 O   0  0  0  0  0  0  0  0  0  0  0  0
   -0.4822    0.8971   -2.0807 O   0  0  0  0  0  0  0  0  0  0  0  0
   -4.8043   -1.7544    0.5413 N   0  0  0  0  0  0  0  0  0  0  0  0
   -1.7407    3.5466   -0.3503 N   0  0  0  0  0  0  0  0  0  0  0  0
   -4.5711   -1.6803   -0.7912 N   0  0  0  0  0  0  0  0  0  0  0  0
   -1.1220    3.0661   -1.4556 N   0  0  0  0  0  0  0  0  0  0  0  0
   -1.5224   -0.0542    0.5998 C   0  0  0  0  0  0  0  0  0  0  0  0
   -2.8133   -0.7427    0.3850 C   0  0  0  0  0  0  0  0  0  0  0  0
   -1.5323    1.3526    0.0437 C   0  0  0  0  0  0  0  0  0  0  0  0
   -0.2984   -0.8530    0.1397 C   0  0  0  0  0  0  0  0  0  0  0  0
   -3.7717   -1.1712    1.2255 C   0  0  0  0  0  0  0  0  0  0  0  0
   -1.9523    2.5293    0.5413 C   0  0  0  0  0  0  0  0  0  0  0  0
   -3.3359   -1.0804   -0.9773 C   0  0  0  0  0  0  0  0  0  0  0  0
   -0.9725    1.6972   -1.3021 C   0  0  0  0  0  0  0  0  0  0  0  0
   -0.1989   -2.0395   -0.4610 C   0  0  0  0  0  0  0  0  0  0  0  0
    1.7967   -1.1138   -0.0916 C   0  0  0  0  0  0  0  0  0  0  0  0
   -3.8241   -1.0589    2.7073 C   0  0  0  0  0  0  0  0  0  0  0  0
   -2.5542    2.8124    1.8712 C   0  0  0  0  0  0  0  0  0  0  0  0
    1.1940   -2.2299   -0.6236 C   0  0  0  0  0  0  0  0  0  0  0  0
    3.1607   -0.6904    0.0556 C   0  0  0  0  0  0  0  0  0  0  0  0
    4.2032   -1.5019   -0.4021 C   0  0  0  0  0  0  0  0  0  0  0  0
    3.4561    0.5363    0.6580 C   0  0  0  0  0  0  0  0  0  0  0  0
    5.5283   -1.0908   -0.2588 C   0  0  0  0  0  0  0  0  0  0  0  0
    4.7813    0.9475    0.8013 C   0  0  0  0  0  0  0  0  0  0  0  0
    5.8174    0.1340    0.3430 C   0  0  0  0  0  0  0  0  0  0  0  0
   -1.3700    0.0479    1.6834 H   0  0  0  0  0  0  0  0  0  0  0  0
   -0.9809   -2.7225   -0.7576 H   0  0  0  0  0  0  0  0  0  0  0  0
   -5.7258   -1.8980    0.9287 H   0  0  0  0  0  0  0  0  0  0  0  0
   -1.7267    4.5238   -0.0962 H   0  0  0  0  0  0  0  0  0  0  0  0
   -5.2285   -2.0501   -1.4645 H   0  0  0  0  0  0  0  0  0  0  0  0
   -0.8719    3.6706   -2.2266 H   0  0  0  0  0  0  0  0  0  0  0  0
   -4.6835   -0.4530    3.0123 H   0  0  0  0  0  0  0  0  0  0  0  0
   -2.9260   -0.5976    3.1260 H   0  0  0  0  0  0  0  0  0  0  0  0
   -3.9263   -2.0510    3.1594 H   0  0  0  0  0  0  0  0  0  0  0  0
   -2.6399    1.9117    2.4850 H   0  0  0  0  0  0  0  0  0  0  0  0
   -3.5583    3.2324    1.7529 H   0  0  0  0  0  0  0  0  0  0  0  0
   -1.9417    3.5337    2.4219 H   0  0  0  0  0  0  0  0  0  0  0  0
    1.6820   -3.0830   -1.0735 H   0  0  0  0  0  0  0  0  0  0  0  0
    4.0111   -2.4616   -0.8753 H   0  0  0  0  0  0  0  0  0  0  0  0
    2.6771    1.1987    1.0274 H   0  0  0  0  0  0  0  0  0  0  0  0
    6.3258   -1.7348   -0.6207 H   0  0  0  0  0  0  0  0  0  0  0  0
    4.9920    1.9045    1.2720 H   0  0  0  0  0  0  0  0  0  0  0  0
  1 27  1  0  0  0  0
  2 12  1  0  0  0  0
  2 18  1  0  0  0  0
  3 15  2  0  0  0  0
  4 16  2  0  0  0  0
  5  7  1  0  0  0  0
  5 13  1  0  0  0  0
  5 30  1  0  0  0  0
  6  8  1  0  0  0  0
  6 14  1  0  0  0  0
  6 31  1  0  0  0  0
  7 15  1  0  0  0  0
  7 32  1  0  0  0  0
  8 16  1  0  0  0  0
  8 33  1  0  0  0  0
  9 10  1  0  0  0  0
  9 11  1  0  0  0  0
  9 12  1  0  0  0  0
  9 28  1  0  0  0  0
 10 13  2  0  0  0  0
 10 15  1  0  0  0  0
 11 14  2  0  0  0  0
 11 16  1  0  0  0  0
 12 17  2  0  0  0  0
 13 19  1  0  0  0  0
 14 20  1  0  0  0  0
 17 21  1  0  0  0  0
 17 29  1  0  0  0  0
 18 21  2  0  0  0  0
 18 22  1  0  0  0  0
 19 34  1  0  0  0  0
 19 35  1  0  0  0  0
 19 36  1  0  0  0  0
 20 37  1  0  0  0  0
 20 38  1  0  0  0  0
 20 39  1  0  0  0  0
 21 40  1  0  0  0  0
 22 23  2  0  0  0  0
 22 24  1  0  0  0  0
 23 25  1  0  0  0  0
 23 41  1  0  0  0  0
 24 26  2  0  0  0  0
 24 42  1  0  0  0  0
 25 27  2  0  0  0  0
 25 43  1  0  0  0  0
 26 27  1  0  0  0  0
 26 44  1  0  0  0  0
M  END
> <PUBCHEM_COMPOUND_CID>
3152412

> <PUBCHEM_CONFORMER_RMSD>
0.8

> <PUBCHEM_CONFORMER_DIVERSEORDER>
1
55
59
81
61
29
80
45
41
19
71
25
79
20
74
73
54
33
62
64
47
17
68
34
49
27
57
44
53
39
36
70
66
43
9
78
63
69
8
38
76
23
30
42
72
26
46
65
28
16
82
32
31
58
24
52
56
15
48
35
14
6
22
12
60
5
50
18
11
77
10
67
21
51
75
4
2
13
3
37
7
40

> <PUBCHEM_MMFF94_PARTIAL_CHARGES>
37
1 -0.18
10 -0.12
11 -0.12
12 -0.04
13 -0.04
14 -0.04
15 0.62
16 0.62
17 -0.15
18 0.09
19 0.14
2 -0.28
20 0.14
21 -0.15
22 0.05
23 -0.15
24 -0.15
25 -0.15
26 -0.15
27 0.18
29 0.15
3 -0.57
30 0.4
31 0.4
32 0.37
33 0.37
4 -0.57
40 0.15
41 0.15
42 0.15
43 0.15
44 0.15
5 -0.52
6 -0.52
7 -0.41
8 -0.41
9 0.46

> <PUBCHEM_EFFECTIVE_ROTOR_COUNT>
4

> <PUBCHEM_PHARMACOPHORE_FEATURES>
11
1 2 acceptor
1 3 acceptor
1 4 acceptor
1 5 donor
1 6 donor
1 7 donor
1 8 donor
5 2 12 17 18 21 rings
5 5 7 10 13 15 rings
5 6 8 11 14 16 rings
6 22 23 24 25 26 27 rings

> <PUBCHEM_HEAVY_ATOM_COUNT>
27

> <PUBCHEM_ATOM_DEF_STEREO_COUNT>
0

> <PUBCHEM_ATOM_UDEF_STEREO_COUNT>
0

> <PUBCHEM_BOND_DEF_STEREO_COUNT>
0

> <PUBCHEM_BOND_UDEF_STEREO_COUNT>
0

> <PUBCHEM_ISOTOPIC_ATOM_COUNT>
0

> <PUBCHEM_COMPONENT_COUNT>
1

> <PUBCHEM_CACTVS_TAUTO_COUNT>
15

> <PUBCHEM_CONFORMER_ID>
00301A1C00000001

> <PUBCHEM_MMFF94_ENERGY>
70.0428

> <PUBCHEM_FEATURE_SELFOVERLAP>
59.062

> <PUBCHEM_SHAPE_FINGERPRINT>
10369192 42 17060344058916936796
10670039 82 18262534636852143828
11101153 10 18335144249856864228
11315181 36 13767926823889298646
11578080 2 17843698676735541681
11595378 159 18188756306694733562
12390115 104 18200606800063981088
12403259 415 17917983984974912136
12403814 3 18272651251080113403
12422481 6 18267608852321928145
12596602 18 16732980964526434064
12616971 3 13614231599785692218
13073987 5 18340763759592091322
13140716 1 18122628520283077162
13782708 43 18338524028558049158
13911987 19 18115594879759563247
14142880 1 18337107852589712725
14840074 17 18270687578925733279
14856354 85 15482392057457489878
14955137 171 18124598832525274203
15849732 13 18130505314953989847
17349148 13 17530974578836326046
17357779 13 18337657698486799965
17844677 252 18271530806372456902
1813 80 18340504342976484887
18393751 57 18268992149840619298
19489759 90 15791723114081821110
20600515 1 17677348189808206039
21033648 29 18201143392061596232
21236236 1 18412261705778370080
21304303 282 16806709687073233709
21756936 100 15339121217113085442
22956985 138 16959027557761485899
23227448 37 18268147556768517565
23402539 116 18335137604967197291
23557571 272 18114467777288023743
283562 15 18409725141037939243
350125 39 18342175579270949616
376196 1 16017741735155139061
469060 322 17603874381332164204
497634 4 17132112467826165702
5104073 3 18337952265262502538
5265222 85 11743547860805093504
550186 7 14691752947023086731
58260988 521 11959172012191171077
81228 2 18044106665841822169

> <PUBCHEM_SHAPE_MULTIPOLES>
519.99
12.39
3.06
1.64
21.94
2.6
0.2
-2.16
3.65
-3.01
-0.36
-2.25
0.3
0.6

> <PUBCHEM_SHAPE_SELFOVERLAP>
1148.22

> <PUBCHEM_SHAPE_VOLUME>
281.5

> <PUBCHEM_COORDINATE_TYPE>
2
5
10

$$$$
