5771297
  -OEChem-01171811383D

 51 54  0     1  0  0  0  0  0999 V2000
   -4.6224    1.3583    0.6691 O   0  0  0  0  0  0  0  0  0  0  0  0
    3.6822   -0.5712   -0.0428 O   0  0  0  0  0  0  0  0  0  0  0  0
   -0.7842    2.4592   -0.1286 O   0  0  0  0  0  0  0  0  0  0  0  0
    0.5578   -3.5428    0.6830 O   0  0  0  0  0  0  0  0  0  0  0  0
    0.6736   -3.4356   -1.6042 O   0  0  0  0  0  0  0  0  0  0  0  0
   -2.2063    0.3352   -0.4507 N   0  0  0  0  0  0  0  0  0  0  0  0
   -4.6129    0.6420   -0.5772 C   0  0  2  0  0  0  0  0  0  0  0  0
   -5.9817   -0.0039   -0.7044 C   0  0  0  0  0  0  0  0  0  0  0  0
   -6.8613    1.0214   -0.0339 C   0  0  0  0  0  0  0  0  0  0  0  0
   -3.4701   -0.3546   -0.5896 C   0  0  0  0  0  0  0  0  0  0  0  0
   -5.9831    1.4886    1.1074 C   0  0  0  0  0  0  0  0  0  0  0  0
    1.4412   -0.4376   -0.2185 C   0  0  0  0  0  0  0  0  0  0  0  0
    0.2030    0.2648   -0.2549 C   0  0  0  0  0  0  0  0  0  0  0  0
    2.6114    0.2584   -0.0539 C   0  0  0  0  0  0  0  0  0  0  0  0
   -1.0083   -0.2912   -0.4102 C   0  0  0  0  0  0  0  0  0  0  0  0
    2.7611    1.6838    0.0958 C   0  0  0  0  0  0  0  0  0  0  0  0
    1.8007   -1.7979   -0.3171 C   0  0  0  0  0  0  0  0  0  0  0  0
    1.5725    2.4436    0.0696 C   0  0  0  0  0  0  0  0  0  0  0  0
    0.2347    1.7765   -0.1070 C   0  0  0  0  0  0  0  0  0  0  0  0
    3.1768   -1.8284   -0.2046 C   0  0  0  0  0  0  0  0  0  0  0  0
    3.9945    2.3174    0.2615 C   0  0  0  0  0  0  0  0  0  0  0  0
    1.6351    3.8336    0.2101 C   0  0  0  0  0  0  0  0  0  0  0  0
    0.9852   -2.9640   -0.4960 C   0  0  0  0  0  0  0  0  0  0  0  0
    4.1663   -2.9173   -0.2246 C   0  0  0  0  0  0  0  0  0  0  0  0
    4.0461    3.7046    0.4013 C   0  0  0  0  0  0  0  0  0  0  0  0
    2.8722    4.4589    0.3757 C   0  0  0  0  0  0  0  0  0  0  0  0
   -0.2619   -4.7123    0.5769 C   0  0  0  0  0  0  0  0  0  0  0  0
   -0.6220   -5.1899    1.9677 C   0  0  0  0  0  0  0  0  0  0  0  0
   -4.4760    1.3884   -1.3706 H   0  0  0  0  0  0  0  0  0  0  0  0
   -6.2621   -0.2052   -1.7420 H   0  0  0  0  0  0  0  0  0  0  0  0
   -6.0263   -0.9473   -0.1468 H   0  0  0  0  0  0  0  0  0  0  0  0
   -7.8230    0.6252    0.3019 H   0  0  0  0  0  0  0  0  0  0  0  0
   -7.0542    1.8528   -0.7223 H   0  0  0  0  0  0  0  0  0  0  0  0
   -3.4830   -0.9278   -1.5238 H   0  0  0  0  0  0  0  0  0  0  0  0
   -3.5798   -1.0575    0.2453 H   0  0  0  0  0  0  0  0  0  0  0  0
   -6.1099    0.8534    1.9904 H   0  0  0  0  0  0  0  0  0  0  0  0
   -6.1810    2.5257    1.3921 H   0  0  0  0  0  0  0  0  0  0  0  0
   -2.2248    1.3439   -0.3559 H   0  0  0  0  0  0  0  0  0  0  0  0
   -1.1176   -1.3639   -0.5203 H   0  0  0  0  0  0  0  0  0  0  0  0
    4.9204    1.7490    0.2845 H   0  0  0  0  0  0  0  0  0  0  0  0
    0.7374    4.4453    0.1942 H   0  0  0  0  0  0  0  0  0  0  0  0
    3.8716   -3.7198    0.4586 H   0  0  0  0  0  0  0  0  0  0  0  0
    5.1569   -2.5649    0.0801 H   0  0  0  0  0  0  0  0  0  0  0  0
    4.2507   -3.3370   -1.2317 H   0  0  0  0  0  0  0  0  0  0  0  0
    5.0043    4.2000    0.5307 H   0  0  0  0  0  0  0  0  0  0  0  0
    2.9216    5.5387    0.4853 H   0  0  0  0  0  0  0  0  0  0  0  0
    0.2898   -5.4958    0.0461 H   0  0  0  0  0  0  0  0  0  0  0  0
   -1.1733   -4.4673    0.0207 H   0  0  0  0  0  0  0  0  0  0  0  0
   -1.1575   -4.4083    2.5165 H   0  0  0  0  0  0  0  0  0  0  0  0
    0.2816   -5.4195    2.5421 H   0  0  0  0  0  0  0  0  0  0  0  0
   -1.2497   -6.0842    1.9239 H   0  0  0  0  0  0  0  0  0  0  0  0
  1  7  1  0  0  0  0
  1 11  1  0  0  0  0
  2 14  1  0  0  0  0
  2 20  1  0  0  0  0
  3 19  2  0  0  0  0
  4 23  1  0  0  0  0
  4 27  1  0  0  0  0
  5 23  2  0  0  0  0
  6 10  1  0  0  0  0
  6 15  1  0  0  0  0
  6 38  1  0  0  0  0
  7  8  1  0  0  0  0
  7 10  1  0  0  0  0
  7 29  1  0  0  0  0
  8  9  1  0  0  0  0
  8 30  1  0  0  0  0
  8 31  1  0  0  0  0
  9 11  1  0  0  0  0
  9 32  1  0  0  0  0
  9 33  1  0  0  0  0
 10 34  1  0  0  0  0
 10 35  1  0  0  0  0
 11 36  1  0  0  0  0
 11 37  1  0  0  0  0
 12 13  1  0  0  0  0
 12 14  2  0  0  0  0
 12 17  1  0  0  0  0
 13 15  2  0  0  0  0
 13 19  1  0  0  0  0
 14 16  1  0  0  0  0
 15 39  1  0  0  0  0
 16 18  1  0  0  0  0
 16 21  2  0  0  0  0
 17 20  2  0  0  0  0
 17 23  1  0  0  0  0
 18 19  1  0  0  0  0
 18 22  2  0  0  0  0
 20 24  1  0  0  0  0
 21 25  1  0  0  0  0
 21 40  1  0  0  0  0
 22 26  1  0  0  0  0
 22 41  1  0  0  0  0
 24 42  1  0  0  0  0
 24 43  1  0  0  0  0
 24 44  1  0  0  0  0
 25 26  2  0  0  0  0
 25 45  1  0  0  0  0
 26 46  1  0  0  0  0
 27 28  1  0  0  0  0
 27 47  1  0  0  0  0
 27 48  1  0  0  0  0
 28 49  1  0  0  0  0
 28 50  1  0  0  0  0
 28 51  1  0  0  0  0
M  END
> <PUBCHEM_COMPOUND_CID>
5771297

> <PUBCHEM_CONFORMER_RMSD>
0.8

> <PUBCHEM_CONFORMER_DIVERSEORDER>
1
34
70
48
59
41
60
14
62
61
42
63
68
27
55
57
71
45
24
15
49
69
29
31
40
21
36
35
13
11
33
10
39
26
7
30
64
51
37
50
56
58
47
32
22
54
43
9
19
38
65
53
4
44
52
6
16
12
28
25
23
20
67
3
2
18
46
5
8
17
66

> <PUBCHEM_MMFF94_PARTIAL_CHARGES>
31
1 -0.56
10 0.37
11 0.28
12 -0.05
13 0.06
14 0.09
15 -0.05
16 0.05
17 -0.09
18 0.09
19 0.47
2 -0.28
20 -0.04
21 -0.15
22 -0.15
23 0.81
24 0.18
25 -0.15
26 -0.15
27 0.28
3 -0.57
38 0.4
39 0.15
4 -0.43
40 0.15
41 0.15
45 0.15
46 0.15
5 -0.57
6 -0.87
7 0.28

> <PUBCHEM_EFFECTIVE_ROTOR_COUNT>
7

> <PUBCHEM_PHARMACOPHORE_FEATURES>
10
1 1 acceptor
1 2 acceptor
1 3 acceptor
1 5 acceptor
1 6 cation
1 6 donor
5 1 7 8 9 11 rings
5 2 12 14 17 20 rings
6 12 13 14 16 18 19 rings
6 16 18 21 22 25 26 rings

> <PUBCHEM_HEAVY_ATOM_COUNT>
28

> <PUBCHEM_ATOM_DEF_STEREO_COUNT>
0

> <PUBCHEM_ATOM_UDEF_STEREO_COUNT>
1

> <PUBCHEM_BOND_DEF_STEREO_COUNT>
1

> <PUBCHEM_BOND_UDEF_STEREO_COUNT>
0

> <PUBCHEM_ISOTOPIC_ATOM_COUNT>
0

> <PUBCHEM_COMPONENT_COUNT>
1

> <PUBCHEM_CACTVS_TAUTO_COUNT>
3

> <PUBCHEM_CONFORMER_ID>
0058102100000001

> <PUBCHEM_MMFF94_ENERGY>
67.5429

> <PUBCHEM_FEATURE_SELFOVERLAP>
50.863

> <PUBCHEM_SHAPE_FINGERPRINT>
10411042 1 18124313796920578390
10595046 47 18200871885830761605
1100329 8 18410284844391742970
114674 6 18335423405070855699
12107183 9 17912091547533093921
12553582 1 18123457298499643815
12788726 201 16896541792612026923
13140716 1 18410009953040688847
13540713 4 17982463895303811284
13692114 37 17910094034919586747
13785724 45 17697330512346779967
138480 1 18268427932597298500
14790565 3 18123190366209097804
14910700 183 18336251358991572138
15081414 286 18198627618724958431
15142526 21 18410008884005321363
15439362 3 18339643446826316508
15484559 13 18413674599373081111
15664445 248 18058181535131206454
15927050 60 18197214956910717694
16728300 4 17463096108848252082
16993438 75 17831862721978381443
19427546 62 18337670944387811485
20028762 73 18272647900868687158
20157964 124 18412823591213320557
20511986 3 17774707698464886881
20739085 24 18334581234888167821
21197605 99 18267590289859006815
21421861 104 17903076634047324323
23559900 14 18411695466138378465
23845131 108 18263639722814829723
23929065 36 16906348873670221384
24771293 8 18058710474008763002
283562 15 17905333931978291286
3178227 256 18336270037434810434
335352 9 18340485677460599276
3882209 13 17036938488413746387
4058900 60 18337120045896468361
5104073 3 18336266825484757289
5309563 4 18123469367220264095
6443956 14 18338801087463698052
653340 110 17475791430167772768
79837 15 18049438437937394569
8272917 22 18342458153284709893
86090 222 17460910339920044827
9777508 108 17977946009660185403

> <PUBCHEM_SHAPE_MULTIPOLES>
541.9
11.13
6.9
0.99
23.37
5.99
0.2
-9.05
0.42
-6.32
2.52
0.56
0.95
0.83

> <PUBCHEM_SHAPE_SELFOVERLAP>
1181.304

> <PUBCHEM_SHAPE_VOLUME>
298.1

> <PUBCHEM_COORDINATE_TYPE>
2
5
10

$$$$
