4542013
  -OEChem-01171811523D

 37 39  0     1  0  0  0  0  0999 V2000
   -3.9561   -1.8566    1.9980 Cl  0  0  0  0  0  0  0  0  0  0  0  0
   -3.4182   -1.1095   -3.3281 Cl  0  0  0  0  0  0  0  0  0  0  0  0
   -0.6958    2.7073   -0.0487 O   0  0  0  0  0  0  0  0  0  0  0  0
    0.0586    1.7793    2.7113 O   0  0  0  0  0  0  0  0  0  0  0  0
    5.5123   -2.4462    0.4343 O   0  0  0  0  0  0  0  0  0  0  0  0
   -1.6132    0.2597    2.0629 N   0  0  0  0  0  0  0  0  0  0  0  0
    2.5942   -0.3954   -0.5436 N   0  0  0  0  0  0  0  0  0  0  0  0
    2.8661    0.7425   -1.2048 N   0  0  0  0  0  0  0  0  0  0  0  0
    0.9642   -1.4422    0.8219 N   0  0  0  0  0  0  0  0  0  0  0  0
   -0.4463    1.3758    0.3327 C   0  0  2  0  0  0  0  0  0  0  0  0
    0.8449    0.8523   -0.1436 C   0  0  0  0  0  0  0  0  0  0  0  0
   -1.4965    0.4400   -0.2098 C   0  0  0  0  0  0  0  0  0  0  0  0
   -0.5925    1.1969    1.8571 C   0  0  0  0  0  0  0  0  0  0  0  0
   -2.1464   -0.1838    0.8564 C   0  0  0  0  0  0  0  0  0  0  0  0
    1.3962   -0.3813    0.1083 C   0  0  0  0  0  0  0  0  0  0  0  0
    1.7947    1.5006   -0.9570 C   0  0  0  0  0  0  0  0  0  0  0  0
   -1.8818    0.1735   -1.5127 C   0  0  0  0  0  0  0  0  0  0  0  0
    3.5572   -1.4727   -0.5798 C   0  0  0  0  0  0  0  0  0  0  0  0
   -3.1689   -1.0937    0.6773 C   0  0  0  0  0  0  0  0  0  0  0  0
    1.7194    2.8579   -1.5259 C   0  0  0  0  0  0  0  0  0  0  0  0
   -2.9153   -0.7455   -1.7206 C   0  0  0  0  0  0  0  0  0  0  0  0
   -3.5515   -1.3749   -0.6352 C   0  0  0  0  0  0  0  0  0  0  0  0
    4.5746   -1.3839    0.5497 C   0  0  0  0  0  0  0  0  0  0  0  0
   -1.9361   -0.0584    2.9690 H   0  0  0  0  0  0  0  0  0  0  0  0
   -1.3904    0.6668   -2.3453 H   0  0  0  0  0  0  0  0  0  0  0  0
   -0.1188    3.2854    0.4790 H   0  0  0  0  0  0  0  0  0  0  0  0
    3.0305   -2.4327   -0.5648 H   0  0  0  0  0  0  0  0  0  0  0  0
    4.0677   -1.4351   -1.5505 H   0  0  0  0  0  0  0  0  0  0  0  0
    1.7454    3.6158   -0.7371 H   0  0  0  0  0  0  0  0  0  0  0  0
    2.5660    3.0581   -2.1925 H   0  0  0  0  0  0  0  0  0  0  0  0
    0.8091    2.9877   -2.1197 H   0  0  0  0  0  0  0  0  0  0  0  0
   -4.3540   -2.0862   -0.8227 H   0  0  0  0  0  0  0  0  0  0  0  0
    1.5045   -2.2948    0.9257 H   0  0  0  0  0  0  0  0  0  0  0  0
    0.0889   -1.4355    1.3331 H   0  0  0  0  0  0  0  0  0  0  0  0
    5.1194   -0.4346    0.5110 H   0  0  0  0  0  0  0  0  0  0  0  0
    4.0825   -1.4587    1.5253 H   0  0  0  0  0  0  0  0  0  0  0  0
    6.1404   -2.3533    1.1707 H   0  0  0  0  0  0  0  0  0  0  0  0
  1 19  1  0  0  0  0
  2 21  1  0  0  0  0
  3 10  1  0  0  0  0
  3 26  1  0  0  0  0
  4 13  2  0  0  0  0
  5 23  1  0  0  0  0
  5 37  1  0  0  0  0
  6 13  1  0  0  0  0
  6 14  1  0  0  0  0
  6 24  1  0  0  0  0
  7  8  1  0  0  0  0
  7 15  1  0  0  0  0
  7 18  1  0  0  0  0
  8 16  2  0  0  0  0
  9 15  1  0  0  0  0
  9 33  1  0  0  0  0
  9 34  1  0  0  0  0
 10 11  1  0  0  0  0
 10 12  1  0  0  0  0
 10 13  1  0  0  0  0
 11 15  2  0  0  0  0
 11 16  1  0  0  0  0
 12 14  2  0  0  0  0
 12 17  1  0  0  0  0
 14 19  1  0  0  0  0
 16 20  1  0  0  0  0
 17 21  2  0  0  0  0
 17 25  1  0  0  0  0
 18 23  1  0  0  0  0
 18 27  1  0  0  0  0
 18 28  1  0  0  0  0
 19 22  2  0  0  0  0
 20 29  1  0  0  0  0
 20 30  1  0  0  0  0
 20 31  1  0  0  0  0
 21 22  1  0  0  0  0
 22 32  1  0  0  0  0
 23 35  1  0  0  0  0
 23 36  1  0  0  0  0
M  END
> <PUBCHEM_COMPOUND_CID>
4542013

> <PUBCHEM_CONFORMER_RMSD>
0.6

> <PUBCHEM_CONFORMER_DIVERSEORDER>
9
21
2
16
18
10
11
22
15
6
3
1
20
14
19
8
17
4
5
12
7
13

> <PUBCHEM_MMFF94_PARTIAL_CHARGES>
30
1 -0.18
10 0.67
11 -0.18
12 -0.14
13 0.57
14 0.12
15 -0.07
16 0.11
17 -0.15
18 0.26
19 0.18
2 -0.18
20 0.18
21 0.18
22 -0.15
23 0.28
24 0.37
25 0.15
26 0.4
3 -0.68
32 0.15
33 0.4
34 0.4
37 0.4
4 -0.57
5 -0.68
6 -0.55
7 0.31
8 -0.71
9 -0.88

> <PUBCHEM_EFFECTIVE_ROTOR_COUNT>
3.4

> <PUBCHEM_PHARMACOPHORE_FEATURES>
12
1 3 acceptor
1 3 donor
1 4 acceptor
1 5 acceptor
1 5 donor
1 6 donor
1 8 acceptor
1 9 cation
1 9 donor
5 6 10 12 13 14 rings
5 7 8 11 15 16 rings
6 12 14 17 19 21 22 rings

> <PUBCHEM_HEAVY_ATOM_COUNT>
23

> <PUBCHEM_ATOM_DEF_STEREO_COUNT>
0

> <PUBCHEM_ATOM_UDEF_STEREO_COUNT>
1

> <PUBCHEM_BOND_DEF_STEREO_COUNT>
0

> <PUBCHEM_BOND_UDEF_STEREO_COUNT>
0

> <PUBCHEM_ISOTOPIC_ATOM_COUNT>
0

> <PUBCHEM_COMPONENT_COUNT>
1

> <PUBCHEM_CACTVS_TAUTO_COUNT>
6

> <PUBCHEM_CONFORMER_ID>
00454E3D00000009

> <PUBCHEM_MMFF94_ENERGY>
45.5163

> <PUBCHEM_FEATURE_SELFOVERLAP>
60.986

> <PUBCHEM_SHAPE_FINGERPRINT>
10498660 4 15213844065352108735
11221954 11 9509815144288043619
11578080 2 17988064673796331969
11582403 64 16669055546612270677
11725454 13 16811499464160725173
12363563 72 18113905914462273750
12553582 1 17346330339898674383
12892183 10 14045745936657850535
13083527 12 14547304740431782765
13544653 18 18272078401448374078
13583140 156 15983680136763854434
13911987 19 17464564244286651340
14341114 328 16630522960275195714
14787075 74 17558543866899411368
15210252 30 14140533464194507079
15375462 189 17843983634899061209
15534591 1 10809636899875715612
16752209 62 17274002197676676825
16945 1 18053671557614771493
17349148 13 18412829079980902278
1813 80 18342189834130080014
18186145 218 16950557809497473861
18915476 22 17897731091885791700
200 152 18409727344197828414
20361792 2 18201718500534571717
20600515 1 16272214093745707721
20671657 53 18260550017609477670
20693207 138 17458635561081785086
21421861 104 16197328727768967927
21713013 43 17386007307967128223
21731516 1 17560805497576128461
22112679 90 17489318532845836445
22393880 68 16877653557262808786
22907989 373 13696742258477834339
23114952 82 17097227235930435772
23402539 116 18336543803446397398
23419403 2 17413827116692149708
23526113 38 17969492887378438117
23557571 272 15841285782700126608
23559900 14 16443345437661710206
23598288 3 17917445184989716293
27216 239 12823003205909136515
392239 28 17560786737560504138
90316 7 17060069116010418689

> <PUBCHEM_SHAPE_MULTIPOLES>
439.54
7.63
2.56
2.49
5.16
0.4
0.2
-4.97
-5.7
0.72
0.08
-1.53
0.44
2.49

> <PUBCHEM_SHAPE_SELFOVERLAP>
948.515

> <PUBCHEM_SHAPE_VOLUME>
246.7

> <PUBCHEM_COORDINATE_TYPE>
2
5
10

$$$$
