9661382
  -OEChem-01171811413D

 42 44  0     1  0  0  0  0  0999 V2000
    1.0397    2.2482    1.7623 O   0  0  0  0  0  0  0  0  0  0  0  0
   -1.5521    0.9299    0.5024 N   0  0  0  0  0  0  0  0  0  0  0  0
    1.4158    1.0332   -0.1750 N   0  0  0  0  0  0  0  0  0  0  0  0
    2.6753    0.7037    0.1916 N   0  0  0  0  0  0  0  0  0  0  0  0
    5.2335   -0.0878    0.7032 N   0  0  0  0  0  0  0  0  0  0  0  0
   -0.7478    2.0503    0.1371 C   0  0  1  0  0  0  0  0  0  0  0  0
   -2.7375    0.5808   -0.1905 C   0  0  0  0  0  0  0  0  0  0  0  0
   -3.5119   -0.5277    0.1893 C   0  0  0  0  0  0  0  0  0  0  0  0
   -4.6873   -0.8325   -0.5376 C   0  0  0  0  0  0  0  0  0  0  0  0
   -3.1161    1.3769   -1.2717 C   0  0  0  0  0  0  0  0  0  0  0  0
   -1.3292    3.3478    0.6769 C   0  0  0  0  0  0  0  0  0  0  0  0
   -3.1457   -1.3398    1.2751 C   0  0  0  0  0  0  0  0  0  0  0  0
   -5.0534   -0.0201   -1.6230 C   0  0  0  0  0  0  0  0  0  0  0  0
   -4.2719    1.0770   -1.9866 C   0  0  0  0  0  0  0  0  0  0  0  0
    0.6564    1.8170    0.6766 C   0  0  0  0  0  0  0  0  0  0  0  0
   -5.4615   -1.9410   -0.1577 C   0  0  0  0  0  0  0  0  0  0  0  0
   -3.9268   -2.4371    1.6385 C   0  0  0  0  0  0  0  0  0  0  0  0
   -5.0823   -2.7373    0.9233 C   0  0  0  0  0  0  0  0  0  0  0  0
    3.2983   -0.0297   -0.6726 C   0  0  0  0  0  0  0  0  0  0  0  0
    4.6811   -0.4887   -0.4534 C   0  0  0  0  0  0  0  0  0  0  0  0
    5.2959   -1.2660   -1.4070 C   0  0  0  0  0  0  0  0  0  0  0  0
    6.6011   -1.6711   -1.1506 C   0  0  0  0  0  0  0  0  0  0  0  0
    7.2233   -1.2854    0.0317 C   0  0  0  0  0  0  0  0  0  0  0  0
    6.5029   -0.5007    0.9177 C   0  0  0  0  0  0  0  0  0  0  0  0
   -0.6254    2.1398   -0.9497 H   0  0  0  0  0  0  0  0  0  0  0  0
   -1.3542    0.4745    1.3835 H   0  0  0  0  0  0  0  0  0  0  0  0
   -2.5600    2.2419   -1.6138 H   0  0  0  0  0  0  0  0  0  0  0  0
   -0.6647    4.1907    0.4558 H   0  0  0  0  0  0  0  0  0  0  0  0
   -2.3107    3.5788    0.2534 H   0  0  0  0  0  0  0  0  0  0  0  0
   -1.4509    3.3056    1.7660 H   0  0  0  0  0  0  0  0  0  0  0  0
   -2.2539   -1.1636    1.8683 H   0  0  0  0  0  0  0  0  0  0  0  0
   -5.9527   -0.2357   -2.1962 H   0  0  0  0  0  0  0  0  0  0  0  0
   -4.5671    1.6962   -2.8288 H   0  0  0  0  0  0  0  0  0  0  0  0
   -6.3688   -2.1944   -0.7022 H   0  0  0  0  0  0  0  0  0  0  0  0
   -3.6321   -3.0588    2.4791 H   0  0  0  0  0  0  0  0  0  0  0  0
   -5.6897   -3.5920    1.2065 H   0  0  0  0  0  0  0  0  0  0  0  0
    1.0633    0.6807   -1.0597 H   0  0  0  0  0  0  0  0  0  0  0  0
    2.8210   -0.3457   -1.6193 H   0  0  0  0  0  0  0  0  0  0  0  0
    4.8009   -1.5605   -2.3255 H   0  0  0  0  0  0  0  0  0  0  0  0
    7.1325   -2.2861   -1.8706 H   0  0  0  0  0  0  0  0  0  0  0  0
    8.2401   -1.5894    0.2525 H   0  0  0  0  0  0  0  0  0  0  0  0
    6.9428   -0.1732    1.8539 H   0  0  0  0  0  0  0  0  0  0  0  0
  1 15  2  0  0  0  0
  2  6  1  0  0  0  0
  2  7  1  0  0  0  0
  2 26  1  0  0  0  0
  3  4  1  0  0  0  0
  3 15  1  0  0  0  0
  3 37  1  0  0  0  0
  4 19  2  0  0  0  0
  5 20  1  0  0  0  0
  5 24  2  0  0  0  0
  6 11  1  0  0  0  0
  6 15  1  0  0  0  0
  6 25  1  0  0  0  0
  7  8  1  0  0  0  0
  7 10  2  0  0  0  0
  8  9  1  0  0  0  0
  8 12  2  0  0  0  0
  9 13  1  0  0  0  0
  9 16  2  0  0  0  0
 10 14  1  0  0  0  0
 10 27  1  0  0  0  0
 11 28  1  0  0  0  0
 11 29  1  0  0  0  0
 11 30  1  0  0  0  0
 12 17  1  0  0  0  0
 12 31  1  0  0  0  0
 13 14  2  0  0  0  0
 13 32  1  0  0  0  0
 14 33  1  0  0  0  0
 16 18  1  0  0  0  0
 16 34  1  0  0  0  0
 17 18  2  0  0  0  0
 17 35  1  0  0  0  0
 18 36  1  0  0  0  0
 19 20  1  0  0  0  0
 19 38  1  0  0  0  0
 20 21  2  0  0  0  0
 21 22  1  0  0  0  0
 21 39  1  0  0  0  0
 22 23  2  0  0  0  0
 22 40  1  0  0  0  0
 23 24  1  0  0  0  0
 23 41  1  0  0  0  0
 24 42  1  0  0  0  0
M  END
> <PUBCHEM_COMPOUND_CID>
9661382

> <PUBCHEM_CONFORMER_RMSD>
0.8

> <PUBCHEM_CONFORMER_DIVERSEORDER>
4
155
12
1
121
107
135
64
2
146
110
69
53
49
167
169
120
9
68
101
24
44
122
27
72
115
91
119
21
29
54
38
42
89
58
11
123
125
75
113
7
166
142
161
16
127
116
158
41
168
112
143
87
109
95
159
105
31
8
92
43
10
170
144
100
15
82
28
63
88
55
3
139
85
118
140
129
99
136
32
47
59
14
73
45
30
124
153
50
165
77
37
60
150
104
61
132
94
83
48
56
79
40
131
134
133
34
36
26
70
164
97
74
151
102
78
138
163
76
66
154
84
23
130
90
81
141
5
6
106
156
86
93
148
51
149
57
71
62
96
162
18
46
80
20
52
67
25
22
65
114
137
160
19
157
117
126
108
39
152
111
17
147
145
128
103
35
98
33
13

> <PUBCHEM_MMFF94_PARTIAL_CHARGES>
35
1 -0.57
10 -0.15
12 -0.15
13 -0.15
14 -0.15
15 0.57
16 -0.15
17 -0.15
18 -0.15
19 0.3
2 -0.87
20 0.4
21 -0.15
22 -0.15
23 -0.15
24 0.16
26 0.4
27 0.15
3 -0.37
31 0.15
32 0.15
33 0.15
34 0.15
35 0.15
36 0.15
37 0.37
38 0.06
39 0.15
4 -0.51
40 0.15
41 0.15
42 0.15
5 -0.62
6 0.43
7 0.1

> <PUBCHEM_EFFECTIVE_ROTOR_COUNT>
6

> <PUBCHEM_PHARMACOPHORE_FEATURES>
9
1 1 acceptor
1 2 cation
1 2 donor
1 3 donor
1 4 acceptor
1 5 acceptor
6 5 20 21 22 23 24 rings
6 7 8 9 10 13 14 rings
6 8 9 12 16 17 18 rings

> <PUBCHEM_HEAVY_ATOM_COUNT>
24

> <PUBCHEM_ATOM_DEF_STEREO_COUNT>
0

> <PUBCHEM_ATOM_UDEF_STEREO_COUNT>
1

> <PUBCHEM_BOND_DEF_STEREO_COUNT>
1

> <PUBCHEM_BOND_UDEF_STEREO_COUNT>
0

> <PUBCHEM_ISOTOPIC_ATOM_COUNT>
0

> <PUBCHEM_COMPONENT_COUNT>
1

> <PUBCHEM_CACTVS_TAUTO_COUNT>
2

> <PUBCHEM_CONFORMER_ID>
00936BC600000004

> <PUBCHEM_MMFF94_ENERGY>
79.0808

> <PUBCHEM_FEATURE_SELFOVERLAP>
45.709

> <PUBCHEM_SHAPE_FINGERPRINT>
10165383 225 17968651598603244589
10369192 42 11819278819811577209
10674148 151 18334573526028123833
11796584 16 18261386724509791288
11809386 21 18337952264798167888
12342043 65 18191870248336837331
12403259 118 11743833685850400059
12760667 363 18341896290300444321
13103583 49 14908178664013492488
13673619 4 18187935036075601891
13761468 95 15793959392067932957
14251740 79 17967536774493242403
14251751 18 18260268585445465246
14341114 328 14189577446660162522
14647877 103 12031794677754342354
14848160 23 18411978053569537108
14931854 50 17967802843602259507
14950920 106 14404603459283363487
15183329 4 15791727499633742482
15510800 12 18342182154486364358
16990350 14 16677517955199478764
17686467 74 18410570683656834056
17780758 139 17632583734108957387
17870717 6 18186236234591399207
18927931 339 18201444644486939988
19377110 9 16128657474862191048
193927 3 18343309158505438372
20281389 69 8862938377712504572
21033650 10 17168135720280299125
21307412 95 18115019844770730671
21401589 2 10375882870254325927
21623969 137 17988927764980827750
22393880 68 17894622669239466664
23198884 109 15936411143346700623
23428019 142 17458065984030964490
23559900 14 18188764071679567373
25025965 108 17629178452294312374
25122255 55 18411985762730151142
2838139 119 14273451462155050790
3004659 81 18040433317430746920
314194 84 17846494863785993460
329604 57 18408891762953427668
3663271 9 14333404545863392670
4073 2 18270686342803313712
4280585 95 18040709260495479068
437815 12 18413106191217839321
484985 159 18409739443716547435
4938544 92 15769503019055341329
5718773 13 18269552909361018431
58902169 19 16443064972329816798
6431902 208 18272653415922965950
70634741 139 18041289863133147700
7918774 8 18272658960656848162
9862886 166 18333448738063863486

> <PUBCHEM_SHAPE_MULTIPOLES>
468.12
18.54
2.97
1.58
29.74
0.68
-0.21
-14.62
-3.89
-3.34
1.2
-0.89
0.04
2.69

> <PUBCHEM_SHAPE_SELFOVERLAP>
1013.281

> <PUBCHEM_SHAPE_VOLUME>
254.7

> <PUBCHEM_COORDINATE_TYPE>
2
5
10

$$$$
