800760
  -OEChem-01171811413D

 33 34  0     0  0  0  0  0  0999 V2000
   -4.0928   -1.4353    1.2157 O   0  0  0  0  0  0  0  0  0  0  0  0
   -3.2111    2.5952    0.2191 O   0  0  0  0  0  0  0  0  0  0  0  0
   -0.2180   -0.1992   -0.8694 N   0  0  0  0  0  0  0  0  0  0  0  0
   -0.8449   -1.3133   -0.4055 C   0  0  0  0  0  0  0  0  0  0  0  0
   -0.9744    0.9091   -0.6493 C   0  0  0  0  0  0  0  0  0  0  0  0
    1.0977   -0.1928   -1.5173 C   0  0  0  0  0  0  0  0  0  0  0  0
   -2.0475   -0.9100    0.1315 C   0  0  0  0  0  0  0  0  0  0  0  0
   -2.1294    0.4961   -0.0226 C   0  0  0  0  0  0  0  0  0  0  0  0
    2.2025   -0.0181   -0.5307 C   0  0  0  0  0  0  0  0  0  0  0  0
   -0.2496   -2.6631   -0.5117 C   0  0  0  0  0  0  0  0  0  0  0  0
   -0.5373    2.2640   -1.0516 C   0  0  0  0  0  0  0  0  0  0  0  0
   -3.0114   -1.7906    0.7296 C   0  0  0  0  0  0  0  0  0  0  0  0
   -3.1968    1.3681    0.3809 C   0  0  0  0  0  0  0  0  0  0  0  0
    2.0973    0.9472    0.4707 C   0  0  0  0  0  0  0  0  0  0  0  0
    3.3411   -0.8200   -0.6097 C   0  0  0  0  0  0  0  0  0  0  0  0
    3.1308    1.1106    1.3931 C   0  0  0  0  0  0  0  0  0  0  0  0
    4.3745   -0.6566    0.3129 C   0  0  0  0  0  0  0  0  0  0  0  0
    4.2694    0.3087    1.3143 C   0  0  0  0  0  0  0  0  0  0  0  0
    1.1212    0.5824   -2.2885 H   0  0  0  0  0  0  0  0  0  0  0  0
    1.1934   -1.1402   -2.0603 H   0  0  0  0  0  0  0  0  0  0  0  0
   -0.7961   -3.4095    0.0702 H   0  0  0  0  0  0  0  0  0  0  0  0
   -0.2459   -3.0002   -1.5535 H   0  0  0  0  0  0  0  0  0  0  0  0
    0.7794   -2.6752   -0.1387 H   0  0  0  0  0  0  0  0  0  0  0  0
   -0.5691    2.9430   -0.1922 H   0  0  0  0  0  0  0  0  0  0  0  0
    0.4639    2.3408   -1.4759 H   0  0  0  0  0  0  0  0  0  0  0  0
   -1.2256    2.6599   -1.8073 H   0  0  0  0  0  0  0  0  0  0  0  0
   -2.7588   -2.8623    0.7464 H   0  0  0  0  0  0  0  0  0  0  0  0
   -4.0628    0.8996    0.8700 H   0  0  0  0  0  0  0  0  0  0  0  0
    1.2429    1.5954    0.5928 H   0  0  0  0  0  0  0  0  0  0  0  0
    3.4369   -1.5754   -1.3851 H   0  0  0  0  0  0  0  0  0  0  0  0
    3.0492    1.8609    2.1743 H   0  0  0  0  0  0  0  0  0  0  0  0
    5.2611   -1.2809    0.2515 H   0  0  0  0  0  0  0  0  0  0  0  0
    5.0738    0.4355    2.0328 H   0  0  0  0  0  0  0  0  0  0  0  0
  1 12  2  0  0  0  0
  2 13  2  0  0  0  0
  3  4  1  0  0  0  0
  3  5  1  0  0  0  0
  3  6  1  0  0  0  0
  4  7  2  0  0  0  0
  4 10  1  0  0  0  0
  5  8  2  0  0  0  0
  5 11  1  0  0  0  0
  6  9  1  0  0  0  0
  6 19  1  0  0  0  0
  6 20  1  0  0  0  0
  7  8  1  0  0  0  0
  7 12  1  0  0  0  0
  8 13  1  0  0  0  0
  9 14  2  0  0  0  0
  9 15  1  0  0  0  0
 10 21  1  0  0  0  0
 10 22  1  0  0  0  0
 10 23  1  0  0  0  0
 11 24  1  0  0  0  0
 11 25  1  0  0  0  0
 11 26  1  0  0  0  0
 12 27  1  0  0  0  0
 13 28  1  0  0  0  0
 14 16  1  0  0  0  0
 14 29  1  0  0  0  0
 15 17  2  0  0  0  0
 15 30  1  0  0  0  0
 16 18  2  0  0  0  0
 16 31  1  0  0  0  0
 17 18  1  0  0  0  0
 17 32  1  0  0  0  0
 18 33  1  0  0  0  0
M  END
> <PUBCHEM_COMPOUND_CID>
800760

> <PUBCHEM_CONFORMER_RMSD>
0.6

> <PUBCHEM_CONFORMER_DIVERSEORDER>
2
5
1
7
6
3
4

> <PUBCHEM_MMFF94_PARTIAL_CHARGES>
25
1 -0.57
10 0.18
11 0.18
12 0.6
13 0.6
14 -0.15
15 -0.15
16 -0.15
17 -0.15
18 -0.15
2 -0.57
27 0.06
28 0.06
29 0.15
3 0.05
30 0.15
31 0.15
32 0.15
33 0.15
4 -0.33
5 -0.33
6 0.4
7 -0.09
8 -0.09
9 -0.14

> <PUBCHEM_EFFECTIVE_ROTOR_COUNT>
4

> <PUBCHEM_PHARMACOPHORE_FEATURES>
5
1 1 acceptor
1 2 acceptor
1 3 cation
5 3 4 5 7 8 rings
6 9 14 15 16 17 18 rings

> <PUBCHEM_HEAVY_ATOM_COUNT>
18

> <PUBCHEM_ATOM_DEF_STEREO_COUNT>
0

> <PUBCHEM_ATOM_UDEF_STEREO_COUNT>
0

> <PUBCHEM_BOND_DEF_STEREO_COUNT>
0

> <PUBCHEM_BOND_UDEF_STEREO_COUNT>
0

> <PUBCHEM_ISOTOPIC_ATOM_COUNT>
0

> <PUBCHEM_COMPONENT_COUNT>
1

> <PUBCHEM_CACTVS_TAUTO_COUNT>
1

> <PUBCHEM_CONFORMER_ID>
000C37F800000002

> <PUBCHEM_MMFF94_ENERGY>
38.4426

> <PUBCHEM_FEATURE_SELFOVERLAP>
25.371

> <PUBCHEM_SHAPE_FINGERPRINT>
1100329 8 15242558141896555330
11127187 94 7925637729951242089
11132069 177 18335143051075081149
11640471 11 14045744828835615622
11796584 16 16444192096408113419
12077114 3 18272083885863167720
12251169 10 18270678800434443038
12507560 40 18272650160453475072
12633257 1 18339062810339495240
12670546 177 9727626202810690922
12824470 246 16661215882982704027
12892183 10 18409442605362425730
13004483 165 17340659179298618510
13140716 1 18335991925665659005
13581323 91 18336265734077909750
14178342 30 18335715892686221353
14420673 8 17902505996545990210
15219456 202 18131913749987238830
15295992 7 17988914536022509664
15653759 3 18411417310991955104
16945 1 18126848424160903253
17349148 13 18260545632817179231
17804303 29 18410863122882925438
1813 80 16660650622363419950
18186145 218 16845580815954526126
18219364 16 17704351074046063800
19049666 15 18127128568193702246
19422 9 17822299002246408014
20361792 2 16298376985739738318
20510252 161 18272092720653015921
20645477 70 14273450409819621346
21065199 12 18341609330687465714
21421861 104 16965213461840715419
21713013 43 11025803054876151984
22112679 90 17749683951201908117
22182313 1 18266477420877120183
23402539 116 18341883126447514479
23419403 2 16481025821684532367
23503958 8 18113337522300089650
23559900 14 18268158561234021974
23598291 2 17385737901758530836
2748010 2 18194423120889204303
4072396 5 18334580170347883051
4340502 62 18195535801229743817
465052 167 17751094706805485203
5104073 3 18409721847225031936
58807428 26 18188777119821582099
7097593 13 18041549227407267626
77492 1 17240493510908856748
81228 2 18193824058296811582
84936 182 17549542903731533777
90316 7 17894909590192907325

> <PUBCHEM_SHAPE_MULTIPOLES>
353.71
7.46
2.38
1.25
3.43
0.08
0.03
-0.05
3.54
-2.24
-0.1
0.46
0.08
0.94

> <PUBCHEM_SHAPE_SELFOVERLAP>
760.342

> <PUBCHEM_SHAPE_VOLUME>
196.7

> <PUBCHEM_COORDINATE_TYPE>
2
5
10

$$$$
