3393623
  -OEChem-01171811583D

 33 35  0     0  0  0  0  0  0999 V2000
   -1.3768    3.3835   -0.0180 O   0  0  0  0  0  0  0  0  0  0  0  0
   -3.4431    1.7046   -0.0184 O   0  0  0  0  0  0  0  0  0  0  0  0
    1.6953   -0.1852    0.0156 N   0  0  0  0  0  0  0  0  0  0  0  0
    2.4166   -0.4500    1.2590 C   0  0  0  0  0  0  0  0  0  0  0  0
    2.3902   -0.5634   -1.2134 C   0  0  0  0  0  0  0  0  0  0  0  0
    3.7731    0.2506    1.2322 C   0  0  0  0  0  0  0  0  0  0  0  0
    3.7463    0.1354   -1.2796 C   0  0  0  0  0  0  0  0  0  0  0  0
    4.5671   -0.1244   -0.0178 C   0  0  0  0  0  0  0  0  0  0  0  0
    0.4286    0.2897    0.0073 C   0  0  0  0  0  0  0  0  0  0  0  0
   -0.7111   -0.6724    0.0083 C   0  0  0  0  0  0  0  0  0  0  0  0
    0.1963    1.6140   -0.0013 C   0  0  0  0  0  0  0  0  0  0  0  0
   -2.0415   -0.2123   -0.0009 C   0  0  0  0  0  0  0  0  0  0  0  0
   -0.5216   -2.0672    0.0189 C   0  0  0  0  0  0  0  0  0  0  0  0
   -1.1601    2.1818   -0.0097 C   0  0  0  0  0  0  0  0  0  0  0  0
   -2.3167    1.2342   -0.0105 C   0  0  0  0  0  0  0  0  0  0  0  0
   -3.1299   -1.0967   -0.0011 C   0  0  0  0  0  0  0  0  0  0  0  0
   -1.6052   -2.9534    0.0199 C   0  0  0  0  0  0  0  0  0  0  0  0
   -2.9073   -2.4689    0.0094 C   0  0  0  0  0  0  0  0  0  0  0  0
    2.5539   -1.5318    1.3774 H   0  0  0  0  0  0  0  0  0  0  0  0
    1.8476   -0.1019    2.1300 H   0  0  0  0  0  0  0  0  0  0  0  0
    1.8027   -0.2951   -2.1002 H   0  0  0  0  0  0  0  0  0  0  0  0
    2.5275   -1.6513   -1.2361 H   0  0  0  0  0  0  0  0  0  0  0  0
    4.3452   -0.0119    2.1290 H   0  0  0  0  0  0  0  0  0  0  0  0
    3.6235    1.3375    1.2507 H   0  0  0  0  0  0  0  0  0  0  0  0
    3.5950    1.2162   -1.3940 H   0  0  0  0  0  0  0  0  0  0  0  0
    4.2993   -0.2083   -2.1606 H   0  0  0  0  0  0  0  0  0  0  0  0
    5.4983    0.4516   -0.0542 H   0  0  0  0  0  0  0  0  0  0  0  0
    4.8443   -1.1846    0.0278 H   0  0  0  0  0  0  0  0  0  0  0  0
    1.0163    2.3265   -0.0021 H   0  0  0  0  0  0  0  0  0  0  0  0
    0.4764   -2.4986    0.0296 H   0  0  0  0  0  0  0  0  0  0  0  0
   -4.1537   -0.7323   -0.0086 H   0  0  0  0  0  0  0  0  0  0  0  0
   -1.4253   -4.0248    0.0290 H   0  0  0  0  0  0  0  0  0  0  0  0
   -3.7462   -3.1581    0.0099 H   0  0  0  0  0  0  0  0  0  0  0  0
  1 14  2  0  0  0  0
  2 15  2  0  0  0  0
  3  4  1  0  0  0  0
  3  5  1  0  0  0  0
  3  9  1  0  0  0  0
  4  6  1  0  0  0  0
  4 19  1  0  0  0  0
  4 20  1  0  0  0  0
  5  7  1  0  0  0  0
  5 21  1  0  0  0  0
  5 22  1  0  0  0  0
  6  8  1  0  0  0  0
  6 23  1  0  0  0  0
  6 24  1  0  0  0  0
  7  8  1  0  0  0  0
  7 25  1  0  0  0  0
  7 26  1  0  0  0  0
  8 27  1  0  0  0  0
  8 28  1  0  0  0  0
  9 10  1  0  0  0  0
  9 11  2  0  0  0  0
 10 12  1  0  0  0  0
 10 13  2  0  0  0  0
 11 14  1  0  0  0  0
 11 29  1  0  0  0  0
 12 15  1  0  0  0  0
 12 16  2  0  0  0  0
 13 17  1  0  0  0  0
 13 30  1  0  0  0  0
 14 15  1  0  0  0  0
 16 18  1  0  0  0  0
 16 31  1  0  0  0  0
 17 18  2  0  0  0  0
 17 32  1  0  0  0  0
 18 33  1  0  0  0  0
M  END
> <PUBCHEM_COMPOUND_CID>
3393623

> <PUBCHEM_CONFORMER_RMSD>
0.6

> <PUBCHEM_CONFORMER_DIVERSEORDER>
1
2

> <PUBCHEM_MMFF94_PARTIAL_CHARGES>
20
1 -0.57
10 0.03
11 -0.14
12 0.09
13 -0.15
14 0.56
15 0.48
16 -0.15
17 -0.15
18 -0.15
2 -0.57
29 0.15
3 -0.84
30 0.15
31 0.15
32 0.15
33 0.15
4 0.37
5 0.37
9 0.07

> <PUBCHEM_EFFECTIVE_ROTOR_COUNT>
2.2

> <PUBCHEM_PHARMACOPHORE_FEATURES>
6
1 1 acceptor
1 2 acceptor
1 3 cation
6 10 12 13 16 17 18 rings
6 3 4 5 6 7 8 rings
6 9 10 11 12 14 15 rings

> <PUBCHEM_HEAVY_ATOM_COUNT>
18

> <PUBCHEM_ATOM_DEF_STEREO_COUNT>
0

> <PUBCHEM_ATOM_UDEF_STEREO_COUNT>
0

> <PUBCHEM_BOND_DEF_STEREO_COUNT>
0

> <PUBCHEM_BOND_UDEF_STEREO_COUNT>
0

> <PUBCHEM_ISOTOPIC_ATOM_COUNT>
0

> <PUBCHEM_COMPONENT_COUNT>
1

> <PUBCHEM_CACTVS_TAUTO_COUNT>
1

> <PUBCHEM_CONFORMER_ID>
0033C85700000001

> <PUBCHEM_MMFF94_ENERGY>
50.83

> <PUBCHEM_FEATURE_SELFOVERLAP>
30.476

> <PUBCHEM_SHAPE_FINGERPRINT>
10319926 262 18269812304384705344
10411042 1 18122344854810151059
10493431 412 18270128894518765881
10498660 4 18409729543210528084
10616163 171 18410013234712532410
10967382 1 18194401091495131171
10989021 7 18123471845690700363
11132069 177 18413390916793768041
11582403 64 16619485894951784768
12173636 292 18266456507895372444
12236239 1 17676204684803757322
12403814 3 17313101926171265357
12553582 1 18265337394211164299
13140716 1 18410858806414477745
13538477 17 18260263032274108960
14081887 123 18341037580261678472
14420673 8 17905313041284309794
14790565 3 18195543514464110281
15042514 8 18408609158200033555
15219456 202 17847059982803147266
15375462 189 17968374649355895154
15669948 3 18335138691667438370
16752209 62 18335974333368597851
16945 1 18410573946771175497
17357779 13 18129365159380577439
17804303 29 18341896354487745987
19049666 15 17988087669087449462
19591789 44 17907590133621394707
19868273 325 18337675312084234247
20510252 161 18343021060272361201
20645476 183 18040722432938064431
20645477 70 17330549260276049351
20871999 31 18410581716134873310
21029758 27 18188500197715595275
21452121 199 17764579220128697779
21650355 55 18338222868769417281
2297311 6 18340218487191284318
23184049 29 18193835066218531874
2334 1 18266458904914300137
23366157 5 17538561410920926261
23402539 116 18271232907145485607
23419403 2 17557677425919057793
23526113 38 17488188089074675958
23557571 272 18271249412820614412
23559900 14 18271249322868992214
23598291 2 17749395836807085870
23598294 1 18335976527906872139
2748010 2 18268137833405326629
3091708 16 9275148580942100137
43471831 8 18263077734538794819
458136 41 17692832397092238721
5902787 121 18119807173208846538
6049 1 17917715712469251624
7097593 13 17827054248572125218
7364860 26 17620760921619380225
77492 1 17675924304985645898
81228 2 18411711992581689947
84936 182 17406826285444895857
9709674 26 18272093751767401230

> <PUBCHEM_SHAPE_MULTIPOLES>
353.71
6.74
2.95
0.96
5.87
0.82
0
-1.11
-0.02
-3.67
-0.01
1.11
-0.11
0.07

> <PUBCHEM_SHAPE_SELFOVERLAP>
768.929

> <PUBCHEM_SHAPE_VOLUME>
191.6

> <PUBCHEM_COORDINATE_TYPE>
2
5
10

$$$$
