3754677
  -OEChem-01171812093D

 76 79  0     1  0  0  0  0  0999 V2000
    4.1858   -1.1385    0.3448 O   0  0  0  0  0  0  0  0  0  0  0  0
    1.0696    1.7706   -1.3427 O   0  0  0  0  0  0  0  0  0  0  0  0
    3.2721    2.6447   -2.7958 O   0  0  0  0  0  0  0  0  0  0  0  0
    0.0004   -2.5129   -0.3799 N   0  0  2  0  0  0  0  0  0  0  0  0
   -3.9568   -1.0147   -0.7810 N   0  0  0  0  0  0  0  0  0  0  0  0
    3.1902   -0.9103    2.4327 N   0  0  0  0  0  0  0  0  0  0  0  0
   -1.1287   -1.7549   -0.9144 C   0  0  0  0  0  0  0  0  0  0  0  0
    1.0483   -1.6028    0.1042 C   0  0  0  0  0  0  0  0  0  0  0  0
   -2.2422   -2.6925   -1.3905 C   0  0  0  0  0  0  0  0  0  0  0  0
   -1.6726   -0.7954    0.1471 C   0  0  0  0  0  0  0  0  0  0  0  0
    2.2162   -2.3842    0.7166 C   0  0  1  0  0  0  0  0  0  0  0  0
    0.5264   -3.4360   -1.3951 C   0  0  0  0  0  0  0  0  0  0  0  0
    2.7864   -3.3948   -0.2768 C   0  0  0  0  0  0  0  0  0  0  0  0
    1.6743   -4.2765   -0.8340 C   0  0  0  0  0  0  0  0  0  0  0  0
   -3.4689   -1.8992   -1.8482 C   0  0  0  0  0  0  0  0  0  0  0  0
   -2.9179   -0.0638   -0.3611 C   0  0  0  0  0  0  0  0  0  0  0  0
    3.2864   -1.4252    1.1394 C   0  0  0  0  0  0  0  0  0  0  0  0
   -5.1574   -0.3016   -1.2161 C   0  0  0  0  0  0  0  0  0  0  0  0
   -5.7335    0.5502   -0.1163 C   0  0  0  0  0  0  0  0  0  0  0  0
    4.1656    0.0335    2.9725 C   0  0  0  0  0  0  0  0  0  0  0  0
    2.1095   -1.2768    3.3391 C   0  0  0  0  0  0  0  0  0  0  0  0
    3.7850    1.4873    2.7034 C   0  0  0  0  0  0  0  0  0  0  0  0
   -6.6778    0.0082    0.7445 C   0  0  0  0  0  0  0  0  0  0  0  0
   -5.3123    1.8654    0.0211 C   0  0  0  0  0  0  0  0  0  0  0  0
    3.6441    1.7965    1.2332 C   0  0  0  0  0  0  0  0  0  0  0  0
   -7.2118    0.7975    1.7631 C   0  0  0  0  0  0  0  0  0  0  0  0
   -5.8462    2.6547    1.0398 C   0  0  0  0  0  0  0  0  0  0  0  0
   -6.7960    2.1207    1.9107 C   0  0  0  0  0  0  0  0  0  0  0  0
    2.4109    1.6389    0.6204 C   0  0  0  0  0  0  0  0  0  0  0  0
    4.7509    2.2318    0.5212 C   0  0  0  0  0  0  0  0  0  0  0  0
    2.2810    1.9239   -0.7388 C   0  0  0  0  0  0  0  0  0  0  0  0
    4.6211    2.5168   -0.8380 C   0  0  0  0  0  0  0  0  0  0  0  0
    3.3862    2.3628   -1.4681 C   0  0  0  0  0  0  0  0  0  0  0  0
    0.2007    2.9017   -1.3486 C   0  0  0  0  0  0  0  0  0  0  0  0
    3.5108    1.5749   -3.7084 C   0  0  0  0  0  0  0  0  0  0  0  0
   -0.7983   -1.1550   -1.7755 H   0  0  0  0  0  0  0  0  0  0  0  0
    0.6790   -0.9362    0.8821 H   0  0  0  0  0  0  0  0  0  0  0  0
    1.4117   -0.9727   -0.7179 H   0  0  0  0  0  0  0  0  0  0  0  0
   -2.5320   -3.3852   -0.5892 H   0  0  0  0  0  0  0  0  0  0  0  0
   -1.9349   -3.2939   -2.2519 H   0  0  0  0  0  0  0  0  0  0  0  0
   -0.9586   -0.0055    0.4004 H   0  0  0  0  0  0  0  0  0  0  0  0
   -1.9147   -1.3367    1.0716 H   0  0  0  0  0  0  0  0  0  0  0  0
    1.8687   -2.9779    1.5693 H   0  0  0  0  0  0  0  0  0  0  0  0
   -0.2230   -4.1661   -1.7120 H   0  0  0  0  0  0  0  0  0  0  0  0
    0.8650   -2.8930   -2.2872 H   0  0  0  0  0  0  0  0  0  0  0  0
    3.5520   -4.0158    0.2038 H   0  0  0  0  0  0  0  0  0  0  0  0
    3.2773   -2.8866   -1.1170 H   0  0  0  0  0  0  0  0  0  0  0  0
    2.0774   -4.9253   -1.6200 H   0  0  0  0  0  0  0  0  0  0  0  0
    1.2967   -4.9338   -0.0402 H   0  0  0  0  0  0  0  0  0  0  0  0
   -4.2534   -2.6145   -2.1242 H   0  0  0  0  0  0  0  0  0  0  0  0
   -3.2208   -1.3236   -2.7499 H   0  0  0  0  0  0  0  0  0  0  0  0
   -2.6418    0.6129   -1.1805 H   0  0  0  0  0  0  0  0  0  0  0  0
   -3.2399    0.5419    0.4898 H   0  0  0  0  0  0  0  0  0  0  0  0
   -5.9243   -1.0208   -1.5340 H   0  0  0  0  0  0  0  0  0  0  0  0
   -4.9549    0.3230   -2.0977 H   0  0  0  0  0  0  0  0  0  0  0  0
    4.2796   -0.1452    4.0478 H   0  0  0  0  0  0  0  0  0  0  0  0
    5.1356   -0.1789    2.5066 H   0  0  0  0  0  0  0  0  0  0  0  0
    2.4396   -2.1386    3.9269 H   0  0  0  0  0  0  0  0  0  0  0  0
    1.9028   -0.4442    4.0194 H   0  0  0  0  0  0  0  0  0  0  0  0
    1.1729   -1.5215    2.8422 H   0  0  0  0  0  0  0  0  0  0  0  0
    4.5407    2.1485    3.1464 H   0  0  0  0  0  0  0  0  0  0  0  0
    2.8447    1.7315    3.2144 H   0  0  0  0  0  0  0  0  0  0  0  0
   -7.0073   -1.0216    0.6398 H   0  0  0  0  0  0  0  0  0  0  0  0
   -4.5855    2.3010   -0.6588 H   0  0  0  0  0  0  0  0  0  0  0  0
   -7.9510    0.3817    2.4416 H   0  0  0  0  0  0  0  0  0  0  0  0
   -5.5251    3.6861    1.1526 H   0  0  0  0  0  0  0  0  0  0  0  0
   -7.2122    2.7355    2.7033 H   0  0  0  0  0  0  0  0  0  0  0  0
    1.5446    1.3117    1.1886 H   0  0  0  0  0  0  0  0  0  0  0  0
    5.7171    2.3522    1.0026 H   0  0  0  0  0  0  0  0  0  0  0  0
    5.4863    2.8583   -1.3999 H   0  0  0  0  0  0  0  0  0  0  0  0
   -0.7180    2.6240   -1.8726 H   0  0  0  0  0  0  0  0  0  0  0  0
   -0.0554    3.1928   -0.3250 H   0  0  0  0  0  0  0  0  0  0  0  0
    0.6643    3.7419   -1.8748 H   0  0  0  0  0  0  0  0  0  0  0  0
    3.3681    1.9529   -4.7244 H   0  0  0  0  0  0  0  0  0  0  0  0
    4.5383    1.2105   -3.6111 H   0  0  0  0  0  0  0  0  0  0  0  0
    2.8041    0.7567   -3.5367 H   0  0  0  0  0  0  0  0  0  0  0  0
  1 17  2  0  0  0  0
  2 31  1  0  0  0  0
  2 34  1  0  0  0  0
  3 33  1  0  0  0  0
  3 35  1  0  0  0  0
  4  7  1  0  0  0  0
  4  8  1  0  0  0  0
  4 12  1  0  0  0  0
  5 15  1  0  0  0  0
  5 16  1  0  0  0  0
  5 18  1  0  0  0  0
  6 17  1  0  0  0  0
  6 20  1  0  0  0  0
  6 21  1  0  0  0  0
  7  9  1  0  0  0  0
  7 10  1  0  0  0  0
  7 36  1  0  0  0  0
  8 11  1  0  0  0  0
  8 37  1  0  0  0  0
  8 38  1  0  0  0  0
  9 15  1  0  0  0  0
  9 39  1  0  0  0  0
  9 40  1  0  0  0  0
 10 16  1  0  0  0  0
 10 41  1  0  0  0  0
 10 42  1  0  0  0  0
 11 13  1  0  0  0  0
 11 17  1  0  0  0  0
 11 43  1  0  0  0  0
 12 14  1  0  0  0  0
 12 44  1  0  0  0  0
 12 45  1  0  0  0  0
 13 14  1  0  0  0  0
 13 46  1  0  0  0  0
 13 47  1  0  0  0  0
 14 48  1  0  0  0  0
 14 49  1  0  0  0  0
 15 50  1  0  0  0  0
 15 51  1  0  0  0  0
 16 52  1  0  0  0  0
 16 53  1  0  0  0  0
 18 19  1  0  0  0  0
 18 54  1  0  0  0  0
 18 55  1  0  0  0  0
 19 23  2  0  0  0  0
 19 24  1  0  0  0  0
 20 22  1  0  0  0  0
 20 56  1  0  0  0  0
 20 57  1  0  0  0  0
 21 58  1  0  0  0  0
 21 59  1  0  0  0  0
 21 60  1  0  0  0  0
 22 25  1  0  0  0  0
 22 61  1  0  0  0  0
 22 62  1  0  0  0  0
 23 26  1  0  0  0  0
 23 63  1  0  0  0  0
 24 27  2  0  0  0  0
 24 64  1  0  0  0  0
 25 29  2  0  0  0  0
 25 30  1  0  0  0  0
 26 28  2  0  0  0  0
 26 65  1  0  0  0  0
 27 28  1  0  0  0  0
 27 66  1  0  0  0  0
 28 67  1  0  0  0  0
 29 31  1  0  0  0  0
 29 68  1  0  0  0  0
 30 32  2  0  0  0  0
 30 69  1  0  0  0  0
 31 33  2  0  0  0  0
 32 33  1  0  0  0  0
 32 70  1  0  0  0  0
 34 71  1  0  0  0  0
 34 72  1  0  0  0  0
 34 73  1  0  0  0  0
 35 74  1  0  0  0  0
 35 75  1  0  0  0  0
 35 76  1  0  0  0  0
M  END
> <PUBCHEM_COMPOUND_CID>
3754677

> <PUBCHEM_CONFORMER_RMSD>
1.6

> <PUBCHEM_CONFORMER_DIVERSEORDER>
1
7
167
171
47
65
163
95
138
38
49
87
54
58
129
179
52
114
142
30
44
86
160
147
61
128
105
68
104
141
43
75
126
56
132
6
35
32
135
188
39
60
76
175
118
185
37
187
152
121
156
131
96
162
190
53
178
99
4
177
148
182
94
189
123
22
84
55
73
116
81
63
88
62
115
165
133
191
100
46
14
146
28
124
172
51
164
137
110
98
20
119
154
103
143
158
140
70
144
5
139
136
174
78
27
130
74
79
155
72
170
101
31
71
17
184
11
16
180
159
40
18
59
90
181
186
10
109
66
50
45
69
80
15
108
151
93
83
25
145
34
161
64
12
33
153
2
176
8
149
157
183
106
19
127
122
173
13
91
134
57
29
67
102
85
97
112
89
92
107
26
113
23
41
166
24
125
42
168
82
3
111
9
77
169
117
48
36
150
120
21

> <PUBCHEM_MMFF94_PARTIAL_CHARGES>
39
1 -0.57
11 0.06
12 0.27
15 0.27
16 0.27
17 0.57
18 0.41
19 -0.14
2 -0.36
20 0.3
21 0.3
22 0.14
23 -0.15
24 -0.15
25 -0.14
26 -0.15
27 -0.15
28 -0.15
29 -0.15
3 -0.36
30 -0.15
31 0.08
32 -0.15
33 0.08
34 0.28
35 0.28
4 -0.81
5 -0.81
6 -0.66
63 0.15
64 0.15
65 0.15
66 0.15
67 0.15
68 0.15
69 0.15
7 0.27
70 0.15
8 0.27

> <PUBCHEM_EFFECTIVE_ROTOR_COUNT>
12.4

> <PUBCHEM_PHARMACOPHORE_FEATURES>
9
1 1 acceptor
1 2 acceptor
1 3 acceptor
1 4 cation
1 5 cation
6 19 23 24 26 27 28 rings
6 25 29 30 31 32 33 rings
6 4 8 11 12 13 14 rings
6 5 7 9 10 15 16 rings

> <PUBCHEM_HEAVY_ATOM_COUNT>
35

> <PUBCHEM_ATOM_DEF_STEREO_COUNT>
0

> <PUBCHEM_ATOM_UDEF_STEREO_COUNT>
1

> <PUBCHEM_BOND_DEF_STEREO_COUNT>
0

> <PUBCHEM_BOND_UDEF_STEREO_COUNT>
0

> <PUBCHEM_ISOTOPIC_ATOM_COUNT>
0

> <PUBCHEM_COMPONENT_COUNT>
1

> <PUBCHEM_CACTVS_TAUTO_COUNT>
1

> <PUBCHEM_CONFORMER_ID>
00394AB500000001

> <PUBCHEM_MMFF94_ENERGY>
104.0592

> <PUBCHEM_FEATURE_SELFOVERLAP>
45.677

> <PUBCHEM_SHAPE_FINGERPRINT>
10190108 129 17895178967295849746
10483366 6 18264793012208050902
10674148 151 18339647841321509660
10721379 63 18058746701451620198
11331351 85 17270880524598094646
11399939 17 17410512990914423625
1200032 147 18260840340545988904
12047536 79 17168145603669766213
12422481 6 18262790762525950709
12788726 201 17108755787410330238
13782708 43 13841079518260035312
13965767 371 18051093095927129266
14790565 3 18058999692326426099
15001296 14 18336831977970807261
15297060 5 18201718496371434498
15406563 185 17774170118245220093
15781502 13 16619569328590936262
15840311 113 17845088473109113201
1979834 28 18410852140329555713
20691028 202 17774155688104054825
21421861 104 18113891655012835692
21703447 108 11530779119051476351
21772528 278 16085053201467931916
21796203 349 17024283389146863520
245318 6 18412827984494872311
3411729 13 18113912575624117085
394071 54 18259983751994090145
397830 11 17968106339482568923
42767 46 18411427241051834965
44280116 191 14686425650536626099
513532 50 16917349234028657148
5223283 242 15266522655117583507
5951187 136 17417810686021637832
6609424 69 18043526105900353469

> <PUBCHEM_SHAPE_MULTIPOLES>
687.73
15.28
4.74
3.03
30.74
2.86
0.33
-11.51
6.14
-3.08
-1.82
-3.94
-1.26
-3.73

> <PUBCHEM_SHAPE_SELFOVERLAP>
1443.915

> <PUBCHEM_SHAPE_VOLUME>
387.3

> <PUBCHEM_COORDINATE_TYPE>
2
5
10

$$$$
