2397106
  -OEChem-01171812053D

 35 38  0     0  0  0  0  0  0999 V2000
   -4.0673    2.8457   -0.3211 S   0  0  0  0  0  0  0  0  0  0  0  0
    0.4377   -2.2280    0.4307 O   0  0  0  0  0  0  0  0  0  0  0  0
    4.7488   -1.4421   -0.6637 O   0  0  0  0  0  0  0  0  0  0  0  0
   -1.9833    0.9723   -0.0747 N   0  0  0  0  0  0  0  0  0  0  0  0
    0.2235    0.0865    0.1018 N   0  0  0  0  0  0  0  0  0  0  0  0
   -0.2656    2.4138   -0.1574 N   0  0  0  0  0  0  0  0  0  0  0  0
   -1.4208    3.1061   -0.2630 N   0  0  0  0  0  0  0  0  0  0  0  0
   -2.5702   -0.3113   -0.0212 C   0  0  0  0  0  0  0  0  0  0  0  0
   -0.6330    1.1704   -0.0304 C   0  0  0  0  0  0  0  0  0  0  0  0
   -1.7191   -1.4190    0.1004 C   0  0  0  0  0  0  0  0  0  0  0  0
   -0.2523   -1.2353    0.2040 C   0  0  0  0  0  0  0  0  0  0  0  0
    1.6514    0.3013    0.1686 C   0  0  0  0  0  0  0  0  0  0  0  0
   -2.5205    2.2467   -0.2138 C   0  0  0  0  0  0  0  0  0  0  0  0
   -3.9478   -0.5547   -0.0942 C   0  0  0  0  0  0  0  0  0  0  0  0
   -2.2333   -2.7260    0.1450 C   0  0  0  0  0  0  0  0  0  0  0  0
    2.5162   -0.6866   -0.2865 C   0  0  0  0  0  0  0  0  0  0  0  0
    2.1432    1.4924    0.6885 C   0  0  0  0  0  0  0  0  0  0  0  0
   -4.4601   -1.8563   -0.0490 C   0  0  0  0  0  0  0  0  0  0  0  0
   -3.6042   -2.9419    0.0693 C   0  0  0  0  0  0  0  0  0  0  0  0
    3.8942   -0.4801   -0.2206 C   0  0  0  0  0  0  0  0  0  0  0  0
    3.5209    1.6988    0.7544 C   0  0  0  0  0  0  0  0  0  0  0  0
    4.3965    0.7127    0.2998 C   0  0  0  0  0  0  0  0  0  0  0  0
    6.1451   -1.1653   -0.5667 C   0  0  0  0  0  0  0  0  0  0  0  0
   -4.6791    0.2348   -0.1899 H   0  0  0  0  0  0  0  0  0  0  0  0
   -1.5801   -3.5896    0.2388 H   0  0  0  0  0  0  0  0  0  0  0  0
   -1.4144    4.1130   -0.3643 H   0  0  0  0  0  0  0  0  0  0  0  0
    2.1813   -1.5938   -0.7777 H   0  0  0  0  0  0  0  0  0  0  0  0
    1.5296    2.2522    1.1572 H   0  0  0  0  0  0  0  0  0  0  0  0
   -5.5331   -2.0160   -0.1084 H   0  0  0  0  0  0  0  0  0  0  0  0
   -4.0019   -3.9514    0.1037 H   0  0  0  0  0  0  0  0  0  0  0  0
    3.9128    2.6173    1.1823 H   0  0  0  0  0  0  0  0  0  0  0  0
    5.4543    0.9364    0.3855 H   0  0  0  0  0  0  0  0  0  0  0  0
    6.4605   -1.0478    0.4756 H   0  0  0  0  0  0  0  0  0  0  0  0
    6.4293   -0.3075   -1.1857 H   0  0  0  0  0  0  0  0  0  0  0  0
    6.6757   -2.0364   -0.9649 H   0  0  0  0  0  0  0  0  0  0  0  0
  1 13  2  0  0  0  0
  2 11  2  0  0  0  0
  3 20  1  0  0  0  0
  3 23  1  0  0  0  0
  4  8  1  0  0  0  0
  4  9  1  0  0  0  0
  4 13  1  0  0  0  0
  5  9  1  0  0  0  0
  5 11  1  0  0  0  0
  5 12  1  0  0  0  0
  6  7  1  0  0  0  0
  6  9  2  0  0  0  0
  7 13  1  0  0  0  0
  7 26  1  0  0  0  0
  8 10  1  0  0  0  0
  8 14  2  0  0  0  0
 10 11  1  0  0  0  0
 10 15  2  0  0  0  0
 12 16  2  0  0  0  0
 12 17  1  0  0  0  0
 14 18  1  0  0  0  0
 14 24  1  0  0  0  0
 15 19  1  0  0  0  0
 15 25  1  0  0  0  0
 16 20  1  0  0  0  0
 16 27  1  0  0  0  0
 17 21  2  0  0  0  0
 17 28  1  0  0  0  0
 18 19  2  0  0  0  0
 18 29  1  0  0  0  0
 19 30  1  0  0  0  0
 20 22  2  0  0  0  0
 21 22  1  0  0  0  0
 21 31  1  0  0  0  0
 22 32  1  0  0  0  0
 23 33  1  0  0  0  0
 23 34  1  0  0  0  0
 23 35  1  0  0  0  0
M  END
> <PUBCHEM_COMPOUND_CID>
2397106

> <PUBCHEM_CONFORMER_RMSD>
0.6

> <PUBCHEM_CONFORMER_DIVERSEORDER>
1
4
5
6
3
2

> <PUBCHEM_MMFF94_PARTIAL_CHARGES>
32
1 -0.38
10 0.09
11 0.54
12 0.12
13 0.5
14 -0.15
15 -0.15
16 -0.15
17 -0.15
18 -0.15
19 -0.15
2 -0.57
20 0.08
21 -0.15
22 -0.15
23 0.28
24 0.15
25 0.15
26 0.37
27 0.15
28 0.15
29 0.15
3 -0.36
30 0.15
31 0.15
32 0.15
4 -0.24
5 -0.24
6 -0.51
7 -0.37
8 0.12
9 0.57

> <PUBCHEM_EFFECTIVE_ROTOR_COUNT>
2

> <PUBCHEM_PHARMACOPHORE_FEATURES>
8
1 1 acceptor
1 2 acceptor
1 3 acceptor
1 7 donor
5 4 6 7 9 13 rings
6 12 16 17 20 21 22 rings
6 4 5 8 9 10 11 rings
6 8 10 14 15 18 19 rings

> <PUBCHEM_HEAVY_ATOM_COUNT>
23

> <PUBCHEM_ATOM_DEF_STEREO_COUNT>
0

> <PUBCHEM_ATOM_UDEF_STEREO_COUNT>
0

> <PUBCHEM_BOND_DEF_STEREO_COUNT>
0

> <PUBCHEM_BOND_UDEF_STEREO_COUNT>
0

> <PUBCHEM_ISOTOPIC_ATOM_COUNT>
0

> <PUBCHEM_COMPONENT_COUNT>
1

> <PUBCHEM_CACTVS_TAUTO_COUNT>
2

> <PUBCHEM_CONFORMER_ID>
002493B200000001

> <PUBCHEM_MMFF94_ENERGY>
107.9024

> <PUBCHEM_FEATURE_SELFOVERLAP>
40.733

> <PUBCHEM_SHAPE_FINGERPRINT>
10165383 225 18119816802504750077
10319926 262 18268123445797402224
10411042 1 18193278718253070819
10493431 412 18268717113236273529
10616163 171 18410575063336377286
10693767 8 17984965245281303295
10967382 1 17760928846019661921
1100329 8 17832700167233651459
11578080 2 13969523405833245313
116883 192 18337954613744332420
12403259 226 18341890831323359616
12403259 415 18201716263136269848
12553582 1 18335691797830552883
12623949 98 17630062661147310574
12788726 201 18261669397582073880
12954195 1 18341054012490034998
13140716 1 18339348687251638768
138480 1 16392957710543056673
14790565 3 17547861754294087281
14866123 147 18339928121748172651
15042514 8 18409452483808350721
15196674 1 18411699889775494592
15927050 60 18196369209431293199
16087824 20 18336828582070863701
16752209 62 18334851718900564946
17357779 13 18266722757666329213
17804303 29 18412266116762446100
1813 80 17604140557624693980
19141452 34 18129947909307722007
19591789 44 18411135844236199747
20510252 161 18341328967843768081
21236236 1 18412546491863480109
21267235 1 18337398239839989723
21279426 13 18340204077064166966
221357 26 18342175591892029254
221490 88 18342458162517904112
22182313 1 18268129019705336256
2297311 6 18410020961047234446
2334 1 17615969246188557387
23402539 116 18341889731833012831
23419403 2 17488446628694060833
23557571 272 18342746208240592516
23558518 356 18261114101271046472
23559900 14 18341889663498488840
23845131 108 17835254350737448897
2748010 2 18267008630505064081
2871803 45 18336539503572106922
335352 9 18410575089712401127
350125 39 18410579456945080600
4214541 1 18411700959206390604
5104073 3 18343297064014553784
559249 180 18264204717352278834
59755656 215 18337389348983218263
59755656 520 18191303784699507365
7164475 11 18335985380019241268
81228 2 18260831556852773537
9709674 26 18341328976549590916

> <PUBCHEM_SHAPE_MULTIPOLES>
445.52
10.23
3.59
0.71
10.55
0.81
0.01
-3.07
-1.32
-4.26
-0.09
0.29
0.04
1.13

> <PUBCHEM_SHAPE_SELFOVERLAP>
990.004

> <PUBCHEM_SHAPE_VOLUME>
239.7

> <PUBCHEM_COORDINATE_TYPE>
2
5
10

$$$$
