2187659
  -OEChem-01171811413D

 40 40  0     0  0  0  0  0  0999 V2000
   -3.3994   -1.1671   -1.3240 O   0  0  0  0  0  0  0  0  0  0  0  0
   -0.1626    1.0537    0.1728 N   0  0  0  0  0  0  0  0  0  0  0  0
    5.2317   -0.4771   -0.0140 N   0  0  0  0  0  0  0  0  0  0  0  0
   -4.9866   -0.1416    0.2039 C   0  0  0  0  0  0  0  0  0  0  0  0
   -5.5718    1.2481   -0.0855 C   0  0  0  0  0  0  0  0  0  0  0  0
   -5.9540   -1.2031   -0.3529 C   0  0  0  0  0  0  0  0  0  0  0  0
   -4.8461   -0.3597    1.7171 C   0  0  0  0  0  0  0  0  0  0  0  0
   -3.6125   -0.2923   -0.4840 C   0  0  0  0  0  0  0  0  0  0  0  0
   -2.5295    0.6636   -0.0997 C   0  0  0  0  0  0  0  0  0  0  0  0
    3.8755   -0.0925    0.0319 C   0  0  0  0  0  0  0  0  0  0  0  0
    1.1853    0.6712    0.1259 C   0  0  0  0  0  0  0  0  0  0  0  0
   -1.2442    0.2958   -0.1449 C   0  0  0  0  0  0  0  0  0  0  0  0
    3.5209    1.2397   -0.1808 C   0  0  0  0  0  0  0  0  0  0  0  0
    2.8892   -1.0439    0.2916 C   0  0  0  0  0  0  0  0  0  0  0  0
    2.1799    1.6204   -0.1339 C   0  0  0  0  0  0  0  0  0  0  0  0
    1.5481   -0.6630    0.3385 C   0  0  0  0  0  0  0  0  0  0  0  0
    6.2643    0.5041   -0.2814 C   0  0  0  0  0  0  0  0  0  0  0  0
    5.6117   -1.8563    0.2195 C   0  0  0  0  0  0  0  0  0  0  0  0
   -6.6060    1.3225    0.2697 H   0  0  0  0  0  0  0  0  0  0  0  0
   -5.0066    2.0451    0.4084 H   0  0  0  0  0  0  0  0  0  0  0  0
   -5.5694    1.4609   -1.1607 H   0  0  0  0  0  0  0  0  0  0  0  0
   -6.9417   -1.1277    0.1160 H   0  0  0  0  0  0  0  0  0  0  0  0
   -5.5776   -2.2171   -0.1744 H   0  0  0  0  0  0  0  0  0  0  0  0
   -6.0888   -1.0887   -1.4348 H   0  0  0  0  0  0  0  0  0  0  0  0
   -4.3874   -1.3314    1.9335 H   0  0  0  0  0  0  0  0  0  0  0  0
   -5.8213   -0.3268    2.2156 H   0  0  0  0  0  0  0  0  0  0  0  0
   -4.2144    0.4072    2.1789 H   0  0  0  0  0  0  0  0  0  0  0  0
   -2.8103    1.6424    0.2697 H   0  0  0  0  0  0  0  0  0  0  0  0
   -0.9962   -0.7021   -0.4919 H   0  0  0  0  0  0  0  0  0  0  0  0
   -0.3418    2.0376    0.3432 H   0  0  0  0  0  0  0  0  0  0  0  0
    4.2503    2.0169   -0.3860 H   0  0  0  0  0  0  0  0  0  0  0  0
    3.1144   -2.0909    0.4685 H   0  0  0  0  0  0  0  0  0  0  0  0
    1.9170    2.6620   -0.3021 H   0  0  0  0  0  0  0  0  0  0  0  0
    0.8095   -1.4271    0.5654 H   0  0  0  0  0  0  0  0  0  0  0  0
    6.1264    0.9662   -1.2653 H   0  0  0  0  0  0  0  0  0  0  0  0
    7.2618    0.0504   -0.2885 H   0  0  0  0  0  0  0  0  0  0  0  0
    6.2812    1.2814    0.4907 H   0  0  0  0  0  0  0  0  0  0  0  0
    5.3179   -2.1834    1.2232 H   0  0  0  0  0  0  0  0  0  0  0  0
    6.6966   -1.9943    0.1523 H   0  0  0  0  0  0  0  0  0  0  0  0
    5.1670   -2.5216   -0.5289 H   0  0  0  0  0  0  0  0  0  0  0  0
  1  8  2  0  0  0  0
  2 11  1  0  0  0  0
  2 12  1  0  0  0  0
  2 30  1  0  0  0  0
  3 10  1  0  0  0  0
  3 17  1  0  0  0  0
  3 18  1  0  0  0  0
  4  5  1  0  0  0  0
  4  6  1  0  0  0  0
  4  7  1  0  0  0  0
  4  8  1  0  0  0  0
  5 19  1  0  0  0  0
  5 20  1  0  0  0  0
  5 21  1  0  0  0  0
  6 22  1  0  0  0  0
  6 23  1  0  0  0  0
  6 24  1  0  0  0  0
  7 25  1  0  0  0  0
  7 26  1  0  0  0  0
  7 27  1  0  0  0  0
  8  9  1  0  0  0  0
  9 12  2  0  0  0  0
  9 28  1  0  0  0  0
 10 13  2  0  0  0  0
 10 14  1  0  0  0  0
 11 15  2  0  0  0  0
 11 16  1  0  0  0  0
 12 29  1  0  0  0  0
 13 15  1  0  0  0  0
 13 31  1  0  0  0  0
 14 16  2  0  0  0  0
 14 32  1  0  0  0  0
 15 33  1  0  0  0  0
 16 34  1  0  0  0  0
 17 35  1  0  0  0  0
 17 36  1  0  0  0  0
 17 37  1  0  0  0  0
 18 38  1  0  0  0  0
 18 39  1  0  0  0  0
 18 40  1  0  0  0  0
M  END
> <PUBCHEM_COMPOUND_CID>
2187659

> <PUBCHEM_CONFORMER_RMSD>
0.6

> <PUBCHEM_CONFORMER_DIVERSEORDER>
15
44
27
30
46
1
29
26
18
23
10
13
43
48
22
14
17
2
19
16
11
24
31
4
5
21
25
35
3
38
49
20
12
36
50
7
51
47
28
9
39
34
41
37
6
45
40
33
32
42
8

> <PUBCHEM_MMFF94_PARTIAL_CHARGES>
22
1 -0.57
10 0.1
11 0.1
12 -0.05
13 -0.15
14 -0.15
15 -0.15
16 -0.15
17 0.37
18 0.37
2 -0.6
28 0.15
29 0.15
3 -0.84
30 0.4
31 0.15
32 0.15
33 0.15
34 0.15
4 0.06
8 0.49
9 -0.14

> <PUBCHEM_EFFECTIVE_ROTOR_COUNT>
5

> <PUBCHEM_PHARMACOPHORE_FEATURES>
6
1 1 acceptor
1 2 cation
1 2 donor
1 3 cation
4 4 5 6 7 hydrophobe
6 10 11 13 14 15 16 rings

> <PUBCHEM_HEAVY_ATOM_COUNT>
18

> <PUBCHEM_ATOM_DEF_STEREO_COUNT>
0

> <PUBCHEM_ATOM_UDEF_STEREO_COUNT>
0

> <PUBCHEM_BOND_DEF_STEREO_COUNT>
1

> <PUBCHEM_BOND_UDEF_STEREO_COUNT>
0

> <PUBCHEM_ISOTOPIC_ATOM_COUNT>
0

> <PUBCHEM_COMPONENT_COUNT>
1

> <PUBCHEM_CACTVS_TAUTO_COUNT>
3

> <PUBCHEM_CONFORMER_ID>
0021618B0000000F

> <PUBCHEM_MMFF94_ENERGY>
71.1029

> <PUBCHEM_FEATURE_SELFOVERLAP>
30.446

> <PUBCHEM_SHAPE_FINGERPRINT>
10 15 12822999921008345182
11089746 13 16343978092367127857
11287383 113 17095246946832481364
11315181 36 17561083631474516705
12091667 2 18335422370183924473
12107183 9 17692818086345319057
12236239 1 18344146985869821088
12516196 113 18272650160263902496
12596602 18 17561362919991276539
12616971 3 18342454867555249965
12916748 109 11819275520685837216
13167823 11 18412542137193948959
13288520 33 18343300388588070549
13533116 47 18272651217332305010
13862211 1 18335698313432876506
1420 363 17821452356501731450
14251718 22 15430038772651199120
14251752 14 18041272150123815469
14251764 18 18343867715129140153
14350574 20 18113620092366619220
14455015 7 18187088355665108275
15188451 53 15625644129559312621
15788980 27 18411981368925768837
17093844 174 18410569583517114617
17834072 33 18341612637364059316
17844677 252 18335708256118915717
200 152 18412825780686194968
20645477 70 18335136483864519562
21150785 3 16443357455671671142
21267235 1 18411706482196664758
21623969 137 18335994120193461499
220451 1 18202285818564626518
23035841 295 18130790049246310470
23402539 116 18412541007549160269
23522609 53 18196964173401766400
23536379 177 18411418401586847553
23557571 272 16732978691871510959
23559900 14 17603868948298911049
26918003 58 18260551130148562025
2767999 5 8502372217795494662
2916195 48 12319732549041577715
314194 84 18411133624144458530
34797466 226 15285654166089167582
351380 3 18412259532324594582
4073 2 18041845137653080722
4214541 1 18411417302718908317
4340502 62 16515680057760091568
4463277 17 18412262831086344220
465052 167 18341897381412301726
5104073 3 17774438407735103291
542803 24 17240202136006310709
559249 180 18273209795051087111
7495541 125 16877951571994747156

> <PUBCHEM_SHAPE_MULTIPOLES>
354.6
16.85
1.51
0.89
1.73
0.07
0.15
3.72
0.02
-0.87
-0.06
1.15
0.18
-0.41

> <PUBCHEM_SHAPE_SELFOVERLAP>
717.658

> <PUBCHEM_SHAPE_VOLUME>
208.2

> <PUBCHEM_COORDINATE_TYPE>
2
5
10

$$$$
