7152105
  -OEChem-01171812043D

 45 48  0     0  0  0  0  0  0999 V2000
    7.2387   -0.3044    0.6015 S   0  0  0  0  0  0  0  0  0  0  0  0
    8.1970   -1.1858   -0.0501 O   0  0  0  0  0  0  0  0  0  0  0  0
    7.4088    1.1395    0.5135 O   0  0  0  0  0  0  0  0  0  0  0  0
    2.5949    2.0608   -0.4616 O   0  0  0  0  0  0  0  0  0  0  0  0
   -4.9818    0.8937    0.5765 N   0  0  0  0  0  0  0  0  0  0  0  0
   -4.1224   -0.8599   -0.4850 N   0  0  0  0  0  0  0  0  0  0  0  0
    0.9837    0.3578   -0.2831 N   0  0  0  0  0  0  0  0  0  0  0  0
   -3.8844    0.3505   -0.0316 C   0  0  0  0  0  0  0  0  0  0  0  0
   -2.6357    1.0662   -0.1349 C   0  0  0  0  0  0  0  0  0  0  0  0
   -5.9954   -0.0277    0.5116 C   0  0  0  0  0  0  0  0  0  0  0  0
   -5.4341   -1.1132   -0.1555 C   0  0  0  0  0  0  0  0  0  0  0  0
   -0.2230    1.0577   -0.2592 C   0  0  0  0  0  0  0  0  0  0  0  0
    5.6447   -0.7225    0.0245 C   0  0  0  0  0  0  0  0  0  0  0  0
   -1.4299    0.3655   -0.1583 C   0  0  0  0  0  0  0  0  0  0  0  0
    3.3718   -0.1311   -0.4093 C   0  0  0  0  0  0  0  0  0  0  0  0
    4.6215    0.2252    0.0526 C   0  0  0  0  0  0  0  0  0  0  0  0
   -2.6350    2.4589   -0.2122 C   0  0  0  0  0  0  0  0  0  0  0  0
   -7.3147   -0.0055    0.9652 C   0  0  0  0  0  0  0  0  0  0  0  0
    2.2810    0.8782   -0.3796 C   0  0  0  0  0  0  0  0  0  0  0  0
   -0.2223    2.4506   -0.3366 C   0  0  0  0  0  0  0  0  0  0  0  0
    5.3945   -2.0046   -0.4645 C   0  0  0  0  0  0  0  0  0  0  0  0
   -6.2213   -2.2526   -0.3928 C   0  0  0  0  0  0  0  0  0  0  0  0
   -1.4283    3.1510   -0.3130 C   0  0  0  0  0  0  0  0  0  0  0  0
    3.0982   -1.3916   -0.8979 C   0  0  0  0  0  0  0  0  0  0  0  0
    4.1212   -2.3391   -0.9258 C   0  0  0  0  0  0  0  0  0  0  0  0
   -8.0838   -1.1481    0.7206 C   0  0  0  0  0  0  0  0  0  0  0  0
    7.2047   -0.7174    2.3312 C   0  0  0  0  0  0  0  0  0  0  0  0
   -7.5487   -2.2526    0.0537 C   0  0  0  0  0  0  0  0  0  0  0  0
   -5.0451    1.8039    1.0133 H   0  0  0  0  0  0  0  0  0  0  0  0
   -1.4233   -0.7210   -0.0957 H   0  0  0  0  0  0  0  0  0  0  0  0
    4.8081    1.2207    0.4447 H   0  0  0  0  0  0  0  0  0  0  0  0
   -3.5570    3.0348   -0.2101 H   0  0  0  0  0  0  0  0  0  0  0  0
    0.8755   -0.6467   -0.1759 H   0  0  0  0  0  0  0  0  0  0  0  0
   -7.7277    0.8531    1.4824 H   0  0  0  0  0  0  0  0  0  0  0  0
    0.6680    3.0579   -0.4172 H   0  0  0  0  0  0  0  0  0  0  0  0
    6.1746   -2.7603   -0.4911 H   0  0  0  0  0  0  0  0  0  0  0  0
   -5.8150   -3.1159   -0.9099 H   0  0  0  0  0  0  0  0  0  0  0  0
   -1.4288    4.2354   -0.3762 H   0  0  0  0  0  0  0  0  0  0  0  0
    2.1357   -1.6829   -1.3046 H   0  0  0  0  0  0  0  0  0  0  0  0
    3.9291   -3.3352   -1.3139 H   0  0  0  0  0  0  0  0  0  0  0  0
    6.4326   -0.1231    2.8234 H   0  0  0  0  0  0  0  0  0  0  0  0
    7.0006   -1.7845    2.4374 H   0  0  0  0  0  0  0  0  0  0  0  0
    8.1831   -0.4817    2.7551 H   0  0  0  0  0  0  0  0  0  0  0  0
   -9.1176   -1.1759    1.0560 H   0  0  0  0  0  0  0  0  0  0  0  0
   -8.1712   -3.1262   -0.1219 H   0  0  0  0  0  0  0  0  0  0  0  0
  1  2  2  0  0  0  0
  1  3  2  0  0  0  0
  1 13  1  0  0  0  0
  1 27  1  0  0  0  0
  4 19  2  0  0  0  0
  5  8  1  0  0  0  0
  5 10  1  0  0  0  0
  5 29  1  0  0  0  0
  6  8  2  0  0  0  0
  6 11  1  0  0  0  0
  7 12  1  0  0  0  0
  7 19  1  0  0  0  0
  7 33  1  0  0  0  0
  8  9  1  0  0  0  0
  9 14  2  0  0  0  0
  9 17  1  0  0  0  0
 10 11  1  0  0  0  0
 10 18  2  0  0  0  0
 11 22  2  0  0  0  0
 12 14  1  0  0  0  0
 12 20  2  0  0  0  0
 13 16  1  0  0  0  0
 13 21  2  0  0  0  0
 14 30  1  0  0  0  0
 15 16  2  0  0  0  0
 15 19  1  0  0  0  0
 15 24  1  0  0  0  0
 16 31  1  0  0  0  0
 17 23  2  0  0  0  0
 17 32  1  0  0  0  0
 18 26  1  0  0  0  0
 18 34  1  0  0  0  0
 20 23  1  0  0  0  0
 20 35  1  0  0  0  0
 21 25  1  0  0  0  0
 21 36  1  0  0  0  0
 22 28  1  0  0  0  0
 22 37  1  0  0  0  0
 23 38  1  0  0  0  0
 24 25  2  0  0  0  0
 24 39  1  0  0  0  0
 25 40  1  0  0  0  0
 26 28  2  0  0  0  0
 26 44  1  0  0  0  0
 27 41  1  0  0  0  0
 27 42  1  0  0  0  0
 27 43  1  0  0  0  0
 28 45  1  0  0  0  0
M  END
> <PUBCHEM_COMPOUND_CID>
7152105

> <PUBCHEM_CONFORMER_RMSD>
0.8

> <PUBCHEM_CONFORMER_DIVERSEORDER>
3
15
28
29
31
22
12
27
30
8
4
16
11
32
19
13
6
18
25
2
24
23
9
7
20
26
14
1
10
5
17
21

> <PUBCHEM_MMFF94_PARTIAL_CHARGES>
42
1 1.2
10 -0.15
11 0.23
12 0.12
13 -0.01
14 -0.15
15 0.09
16 -0.15
17 -0.15
18 -0.15
19 0.54
2 -0.65
20 -0.15
21 -0.15
22 -0.15
23 -0.15
24 -0.15
25 -0.15
26 -0.15
27 0.11
28 -0.15
29 0.27
3 -0.65
30 0.15
31 0.15
32 0.15
33 0.37
34 0.15
35 0.15
36 0.15
37 0.15
38 0.15
39 0.15
4 -0.57
40 0.15
44 0.15
45 0.15
5 0.03
6 -0.57
7 -0.55
8 0.13
9 0.05

> <PUBCHEM_EFFECTIVE_ROTOR_COUNT>
5

> <PUBCHEM_PHARMACOPHORE_FEATURES>
10
1 2 acceptor
1 3 acceptor
1 4 acceptor
1 5 donor
1 7 donor
3 5 6 8 cation
5 5 6 8 10 11 rings
6 10 11 18 22 26 28 rings
6 13 15 16 21 24 25 rings
6 9 12 14 17 20 23 rings

> <PUBCHEM_HEAVY_ATOM_COUNT>
28

> <PUBCHEM_ATOM_DEF_STEREO_COUNT>
0

> <PUBCHEM_ATOM_UDEF_STEREO_COUNT>
0

> <PUBCHEM_BOND_DEF_STEREO_COUNT>
0

> <PUBCHEM_BOND_UDEF_STEREO_COUNT>
0

> <PUBCHEM_ISOTOPIC_ATOM_COUNT>
0

> <PUBCHEM_COMPONENT_COUNT>
1

> <PUBCHEM_CACTVS_TAUTO_COUNT>
2

> <PUBCHEM_CONFORMER_ID>
006D21E900000003

> <PUBCHEM_MMFF94_ENERGY>
71.536

> <PUBCHEM_FEATURE_SELFOVERLAP>
50.871

> <PUBCHEM_SHAPE_FINGERPRINT>
10 15 15985106314628705003
10299344 5 18411705404349816559
10391435 84 18411129217576422077
10625338 86 14620801479189767627
106641 1 18411132555361967432
10670039 82 12829478243287067727
10674148 151 17821729430229402849
10939801 23 18342737459861994806
11211813 128 18341896278054209902
11386260 185 12757158974335907630
11410812 94 16516233059656866676
11973863 73 17749389201267490097
11991303 11 14490767787827444651
12107183 9 18270697381281195769
12166972 35 17458348554187236765
12516196 113 18413673508435601857
12760667 363 18334581244073467065
13073987 5 17988083270998630016
13150687 139 11458422440807561177
1361 4 18337955588961235450
13685833 64 18409169917477163829
14150022 121 17632583712492489289
14251764 18 18130788983835893343
14347332 77 18261114036999680565
14394314 77 18337676317713580985
14556957 393 15864364497597220783
15064981 113 14201392751041095227
15064981 194 9222651359123736991
15188451 53 18040151799557104380
15347590 135 18272922809536345466
15350500 55 12894804601754906483
15392192 104 15410896279812529341
15510800 12 18114191864489179611
15728490 51 18342455967620843590
16992779 147 16557604513294684616
1754911 235 7997973441377901371
17780758 139 17989490702344518705
18335252 114 7853577890004302738
18608769 82 18342736330011276078
190975 80 18413668024178908024
20028762 73 18411703179304290286
20105231 36 17774730779914412278
2026 5 17096356255629346554
21049683 271 18412547643823135608
21095123 293 13614241507700582682
21130935 74 18271528572673192426
21197605 99 18412826889705986414
21267235 1 18409172107831565020
21585482 111 10015045135967806171
21792934 111 18342452647817378217
22149856 69 18131079190797576104
22224240 67 16773793701444696063
22864921 47 18115571687316148306
23522609 53 18048916002005275452
2838139 119 7997966860717454283
3004659 81 18040435516438327717
3383291 50 18260834825819297691
3663271 9 17774728567014373563
406291 66 17532077312191105194
4066623 53 15357698604641950950
4461854 278 18059861692215956246
474113 269 11458967769264826816
5104073 3 18057883542105803488
5219985 9 18260550034911237797
559249 180 18412267242924735287
5718773 13 18408603691033570263
57303763 176 11387180654432735990
59682541 35 18272927246337567514
59682541 52 12829481524789482336
5969126 39 17240476992644368269
6201320 221 16952222392555860658
6691757 9 15913326923588684999
7970288 3 18410576214989168383
9953998 17 17346596387701166415
9962374 69 18268986656730116567

> <PUBCHEM_SHAPE_MULTIPOLES>
547.53
26.05
2.74
1.02
1.44
0.9
0.46
-16.88
8.53
-1.65
-0.62
1.37
-0.27
0.28

> <PUBCHEM_SHAPE_SELFOVERLAP>
1203.057

> <PUBCHEM_SHAPE_VOLUME>
296.4

> <PUBCHEM_COORDINATE_TYPE>
2
5
10

$$$$
