3764790
  -OEChem-01171812013D

 51 54  0     1  0  0  0  0  0999 V2000
   -2.1086    0.9904   -1.3951 O   0  0  0  0  0  0  0  0  0  0  0  0
    1.9605    2.0041   -0.6406 O   0  0  0  0  0  0  0  0  0  0  0  0
    4.5867    1.9459    0.4299 O   0  0  0  0  0  0  0  0  0  0  0  0
    5.6702   -0.0712    1.1788 O   0  0  0  0  0  0  0  0  0  0  0  0
   -0.1199   -1.7568   -1.1083 N   0  0  2  0  0  0  0  0  0  0  0  0
    0.3731   -0.4131   -0.7344 C   0  0  2  0  0  0  0  0  0  0  0  0
    1.8063   -0.3804   -0.2253 C   0  0  0  0  0  0  0  0  0  0  0  0
   -0.5776    0.2070    0.3024 C   0  0  0  0  0  0  0  0  0  0  0  0
    0.2419   -2.7700   -0.1098 C   0  0  0  0  0  0  0  0  0  0  0  0
    2.4455   -1.5648    0.2223 C   0  0  0  0  0  0  0  0  0  0  0  0
    1.7491   -2.8972    0.1195 C   0  0  0  0  0  0  0  0  0  0  0  0
   -2.0216    0.2341   -0.1881 C   0  0  1  0  0  0  0  0  0  0  0  0
    2.4940    0.8454   -0.1746 C   0  0  0  0  0  0  0  0  0  0  0  0
    0.2961   -2.1392   -2.4580 C   0  0  0  0  0  0  0  0  0  0  0  0
    3.7636   -1.5187    0.7052 C   0  0  0  0  0  0  0  0  0  0  0  0
   -2.9138    0.9058    0.8651 C   0  0  0  0  0  0  0  0  0  0  0  0
    3.7843    0.8529    0.3130 C   0  0  0  0  0  0  0  0  0  0  0  0
    4.4015   -0.2967    0.7414 C   0  0  0  0  0  0  0  0  0  0  0  0
   -4.3770    0.5892    0.6625 C   0  0  0  0  0  0  0  0  0  0  0  0
    5.7806    1.3529    0.9799 C   0  0  0  0  0  0  0  0  0  0  0  0
   -5.1452    1.4165   -0.1404 C   0  0  0  0  0  0  0  0  0  0  0  0
   -4.9229   -0.5224    1.2838 C   0  0  0  0  0  0  0  0  0  0  0  0
    2.6642    2.6688   -1.6895 C   0  0  0  0  0  0  0  0  0  0  0  0
   -6.4963    1.1241   -0.3274 C   0  0  0  0  0  0  0  0  0  0  0  0
   -6.2740   -0.8148    1.0967 C   0  0  0  0  0  0  0  0  0  0  0  0
   -7.0607    0.0085    0.2911 C   0  0  0  0  0  0  0  0  0  0  0  0
    0.3330    0.2173   -1.6337 H   0  0  0  0  0  0  0  0  0  0  0  0
   -0.5148   -0.3257    1.2599 H   0  0  0  0  0  0  0  0  0  0  0  0
   -0.2627    1.2384    0.5080 H   0  0  0  0  0  0  0  0  0  0  0  0
   -0.1696   -3.7464   -0.3950 H   0  0  0  0  0  0  0  0  0  0  0  0
   -0.2479   -2.5274    0.8415 H   0  0  0  0  0  0  0  0  0  0  0  0
    2.2035   -3.4587   -0.7061 H   0  0  0  0  0  0  0  0  0  0  0  0
    1.9162   -3.4717    1.0388 H   0  0  0  0  0  0  0  0  0  0  0  0
   -2.3777   -0.7819   -0.3933 H   0  0  0  0  0  0  0  0  0  0  0  0
   -0.1156   -1.4390   -3.1936 H   0  0  0  0  0  0  0  0  0  0  0  0
   -0.1008   -3.1269   -2.7177 H   0  0  0  0  0  0  0  0  0  0  0  0
    1.3836   -2.1615   -2.5841 H   0  0  0  0  0  0  0  0  0  0  0  0
    4.2702   -2.4196    1.0361 H   0  0  0  0  0  0  0  0  0  0  0  0
   -2.7749    1.9950    0.8492 H   0  0  0  0  0  0  0  0  0  0  0  0
   -2.6307    0.5763    1.8735 H   0  0  0  0  0  0  0  0  0  0  0  0
   -2.9937    0.8487   -1.7704 H   0  0  0  0  0  0  0  0  0  0  0  0
    5.9955    1.8266    1.9446 H   0  0  0  0  0  0  0  0  0  0  0  0
    6.6158    1.5483    0.2976 H   0  0  0  0  0  0  0  0  0  0  0  0
   -4.7164    2.2887   -0.6253 H   0  0  0  0  0  0  0  0  0  0  0  0
   -4.3178   -1.1709    1.9108 H   0  0  0  0  0  0  0  0  0  0  0  0
    3.2047    1.9655   -2.3328 H   0  0  0  0  0  0  0  0  0  0  0  0
    3.3499    3.4112   -1.2716 H   0  0  0  0  0  0  0  0  0  0  0  0
    1.9291    3.1963   -2.3044 H   0  0  0  0  0  0  0  0  0  0  0  0
   -7.1090    1.7653   -0.9543 H   0  0  0  0  0  0  0  0  0  0  0  0
   -6.7132   -1.6838    1.5778 H   0  0  0  0  0  0  0  0  0  0  0  0
   -8.1126   -0.2192    0.1453 H   0  0  0  0  0  0  0  0  0  0  0  0
  1 12  1  0  0  0  0
  1 41  1  0  0  0  0
  2 13  1  0  0  0  0
  2 23  1  0  0  0  0
  3 17  1  0  0  0  0
  3 20  1  0  0  0  0
  4 18  1  0  0  0  0
  4 20  1  0  0  0  0
  5  6  1  0  0  0  0
  5  9  1  0  0  0  0
  5 14  1  0  0  0  0
  6  7  1  0  0  0  0
  6  8  1  0  0  0  0
  6 27  1  0  0  0  0
  7 10  1  0  0  0  0
  7 13  2  0  0  0  0
  8 12  1  0  0  0  0
  8 28  1  0  0  0  0
  8 29  1  0  0  0  0
  9 11  1  0  0  0  0
  9 30  1  0  0  0  0
  9 31  1  0  0  0  0
 10 11  1  0  0  0  0
 10 15  2  0  0  0  0
 11 32  1  0  0  0  0
 11 33  1  0  0  0  0
 12 16  1  0  0  0  0
 12 34  1  0  0  0  0
 13 17  1  0  0  0  0
 14 35  1  0  0  0  0
 14 36  1  0  0  0  0
 14 37  1  0  0  0  0
 15 18  1  0  0  0  0
 15 38  1  0  0  0  0
 16 19  1  0  0  0  0
 16 39  1  0  0  0  0
 16 40  1  0  0  0  0
 17 18  2  0  0  0  0
 19 21  2  0  0  0  0
 19 22  1  0  0  0  0
 20 42  1  0  0  0  0
 20 43  1  0  0  0  0
 21 24  1  0  0  0  0
 21 44  1  0  0  0  0
 22 25  2  0  0  0  0
 22 45  1  0  0  0  0
 23 46  1  0  0  0  0
 23 47  1  0  0  0  0
 23 48  1  0  0  0  0
 24 26  2  0  0  0  0
 24 49  1  0  0  0  0
 25 26  1  0  0  0  0
 25 50  1  0  0  0  0
 26 51  1  0  0  0  0
M  END
> <PUBCHEM_COMPOUND_CID>
3764790

> <PUBCHEM_CONFORMER_RMSD>
0.8

> <PUBCHEM_CONFORMER_DIVERSEORDER>
1
26
23
40
30
31
32
4
35
21
12
19
17
7
25
9
10
33
37
3
14
34
6
13
27
16
2
18
22
20
5
11
29
8
24
15
39
36
28
38

> <PUBCHEM_MMFF94_PARTIAL_CHARGES>
32
1 -0.68
10 -0.14
11 0.14
12 0.28
13 0.08
14 0.27
15 -0.15
16 0.14
17 0.08
18 0.08
19 -0.14
2 -0.36
20 0.56
21 -0.15
22 -0.15
23 0.28
24 -0.15
25 -0.15
26 -0.15
3 -0.36
38 0.15
4 -0.36
41 0.4
44 0.15
45 0.15
49 0.15
5 -0.81
50 0.15
51 0.15
6 0.41
7 -0.14
9 0.27

> <PUBCHEM_EFFECTIVE_ROTOR_COUNT>
6.4

> <PUBCHEM_PHARMACOPHORE_FEATURES>
10
1 1 acceptor
1 1 donor
1 2 acceptor
1 3 acceptor
1 4 acceptor
1 5 cation
5 3 4 17 18 20 rings
6 19 21 22 24 25 26 rings
6 5 6 7 9 10 11 rings
6 7 10 13 15 17 18 rings

> <PUBCHEM_HEAVY_ATOM_COUNT>
26

> <PUBCHEM_ATOM_DEF_STEREO_COUNT>
0

> <PUBCHEM_ATOM_UDEF_STEREO_COUNT>
2

> <PUBCHEM_BOND_DEF_STEREO_COUNT>
0

> <PUBCHEM_BOND_UDEF_STEREO_COUNT>
0

> <PUBCHEM_ISOTOPIC_ATOM_COUNT>
0

> <PUBCHEM_COMPONENT_COUNT>
1

> <PUBCHEM_CACTVS_TAUTO_COUNT>
1

> <PUBCHEM_CONFORMER_ID>
0039723600000001

> <PUBCHEM_MMFF94_ENERGY>
81.4113

> <PUBCHEM_FEATURE_SELFOVERLAP>
50.925

> <PUBCHEM_SHAPE_FINGERPRINT>
10 15 18334008419700290176
10090160 65 18412260623594324003
10162869 55 18338226159774662789
10411042 1 17764307237563279662
10835480 77 18337386034059860109
11045977 3 18186526492391511387
11421498 54 16773242782101223179
11719270 70 18409729560580281835
11724838 91 18412541046151033887
12236239 1 17703785891068409437
12516196 113 12251903706809855437
12596602 18 17632582626281851203
12633257 1 17530683242588096264
12788726 201 17692538127339472750
13140716 1 18264485273179367544
13540713 5 17973438004277272324
13583140 156 16878764059279021415
13631057 29 17273963805417809655
14341114 176 18408608037007522715
14341114 328 17989487411977628643
146900 427 17918278645279662539
14955137 171 18408046200088940796
15183329 4 9295296036668334187
15475509 35 16733813174522461762
15849732 13 18409168818651442348
16990366 60 17977670809801019186
17349148 13 14634877427201146061
18222031 100 13912324585809732746
19377110 9 17988092114874259321
19784866 140 8646774395427566725
1979834 28 18410578366060375636
20157964 124 18410292480758764011
20511986 3 18340474605060835295
21049683 271 18196383511910467734
21197605 99 18337115682515878419
21315763 129 18040716961725209997
21623969 137 18409448077008095451
21859007 373 17024016078939893485
22149856 69 17845397526176807587
22224240 67 18413101788211612491
23558518 356 17624120999010231372
23559900 14 18189344489581024731
239999 70 18270691861362042391
3009799 131 9511456719790777242
335352 9 18342176657914246422
3472631 163 17131545154544889024
4073 2 17822300093521627179
42630746 31 18342459218399402942
4325135 7 18412823604008090327
4340502 62 18411138034690671763
465052 167 17821450162042481608
5104073 3 18265061241368275545
5283173 99 17968937471389050053
59755656 215 18340212899206736614
59755656 520 17988918998445895222

> <PUBCHEM_SHAPE_MULTIPOLES>
506.61
15.43
2.64
1.4
19.72
0.87
-0.66
-5.64
6.35
-2.58
-0.9
-0.28
0.19
0.22

> <PUBCHEM_SHAPE_SELFOVERLAP>
1098.577

> <PUBCHEM_SHAPE_VOLUME>
277.1

> <PUBCHEM_COORDINATE_TYPE>
2
5
10

$$$$
