4784326
  -OEChem-01171812133D

 43 45  0     0  0  0  0  0  0999 V2000
    5.6835    1.2490    0.2354 S   0  0  0  0  0  0  0  0  0  0  0  0
    0.2830   -1.8573   -0.4752 O   0  0  0  0  0  0  0  0  0  0  0  0
    2.0065   -0.0352   -0.1048 O   0  0  0  0  0  0  0  0  0  0  0  0
    2.8346    2.0862    0.2328 O   0  0  0  0  0  0  0  0  0  0  0  0
    8.8736   -0.9183    0.0667 O   0  5  0  0  0  0  0  0  0  0  0  0
    8.5671    1.2408    0.3527 O   0  0  0  0  0  0  0  0  0  0  0  0
   -4.4470   -0.1113   -0.0798 N   0  0  0  0  0  0  0  0  0  0  0  0
   -1.5852   -0.4868   -0.2990 N   0  0  0  0  0  0  0  0  0  0  0  0
    8.1065    0.0790    0.1723 N   0  3  0  0  0  0  0  0  0  0  0  0
   -3.8187   -1.3855    0.2806 C   0  0  0  0  0  0  0  0  0  0  0  0
   -3.5978    0.9470   -0.6324 C   0  0  0  0  0  0  0  0  0  0  0  0
   -2.5227   -1.5885   -0.5013 C   0  0  0  0  0  0  0  0  0  0  0  0
   -2.1729    0.8382   -0.0890 C   0  0  0  0  0  0  0  0  0  0  0  0
   -5.8204    0.0699    0.0651 C   0  0  0  0  0  0  0  0  0  0  0  0
   -0.2133   -0.7411   -0.3062 C   0  0  0  0  0  0  0  0  0  0  0  0
    0.6869    0.4518   -0.0964 C   0  0  0  0  0  0  0  0  0  0  0  0
   -6.5517   -0.6094    1.0682 C   0  0  0  0  0  0  0  0  0  0  0  0
   -6.5428    0.9408   -0.7849 C   0  0  0  0  0  0  0  0  0  0  0  0
   -7.9273   -0.4279    1.2134 C   0  0  0  0  0  0  0  0  0  0  0  0
   -7.9183    1.1220   -0.6399 C   0  0  0  0  0  0  0  0  0  0  0  0
   -8.6106    0.4379    0.3595 C   0  0  0  0  0  0  0  0  0  0  0  0
    3.0016    0.8874    0.0710 C   0  0  0  0  0  0  0  0  0  0  0  0
    4.3417    0.2487    0.0406 C   0  0  0  0  0  0  0  0  0  0  0  0
    4.6086   -1.0552   -0.1315 C   0  0  0  0  0  0  0  0  0  0  0  0
    6.7190   -0.1066    0.0872 C   0  0  0  0  0  0  0  0  0  0  0  0
    6.0160   -1.2756   -0.1051 C   0  0  0  0  0  0  0  0  0  0  0  0
   -4.4858   -2.2265    0.0554 H   0  0  0  0  0  0  0  0  0  0  0  0
   -3.6095   -1.3936    1.3572 H   0  0  0  0  0  0  0  0  0  0  0  0
   -3.9829    1.9392   -0.3676 H   0  0  0  0  0  0  0  0  0  0  0  0
   -3.5887    0.8678   -1.7264 H   0  0  0  0  0  0  0  0  0  0  0  0
   -2.0565   -2.5374   -0.2156 H   0  0  0  0  0  0  0  0  0  0  0  0
   -2.7280   -1.6365   -1.5778 H   0  0  0  0  0  0  0  0  0  0  0  0
   -2.1663    1.0152    0.9935 H   0  0  0  0  0  0  0  0  0  0  0  0
   -1.5498    1.6079   -0.5521 H   0  0  0  0  0  0  0  0  0  0  0  0
    0.5533    1.1578   -0.9219 H   0  0  0  0  0  0  0  0  0  0  0  0
    0.4597    0.9188    0.8674 H   0  0  0  0  0  0  0  0  0  0  0  0
   -6.0502   -1.2824    1.7601 H   0  0  0  0  0  0  0  0  0  0  0  0
   -6.0394    1.4803   -1.5840 H   0  0  0  0  0  0  0  0  0  0  0  0
   -8.4661   -0.9585    1.9931 H   0  0  0  0  0  0  0  0  0  0  0  0
   -8.4513    1.7935   -1.3066 H   0  0  0  0  0  0  0  0  0  0  0  0
   -9.6815    0.5791    0.4724 H   0  0  0  0  0  0  0  0  0  0  0  0
    3.8771   -1.8404   -0.2721 H   0  0  0  0  0  0  0  0  0  0  0  0
    6.4769   -2.2486   -0.2226 H   0  0  0  0  0  0  0  0  0  0  0  0
  1 23  1  0  0  0  0
  1 25  1  0  0  0  0
  2 15  2  0  0  0  0
  3 16  1  0  0  0  0
  3 22  1  0  0  0  0
  4 22  2  0  0  0  0
  5  9  1  0  0  0  0
  6  9  2  0  0  0  0
  7 10  1  0  0  0  0
  7 11  1  0  0  0  0
  7 14  1  0  0  0  0
  8 12  1  0  0  0  0
  8 13  1  0  0  0  0
  8 15  1  0  0  0  0
  9 25  1  0  0  0  0
 10 12  1  0  0  0  0
 10 27  1  0  0  0  0
 10 28  1  0  0  0  0
 11 13  1  0  0  0  0
 11 29  1  0  0  0  0
 11 30  1  0  0  0  0
 12 31  1  0  0  0  0
 12 32  1  0  0  0  0
 13 33  1  0  0  0  0
 13 34  1  0  0  0  0
 14 17  2  0  0  0  0
 14 18  1  0  0  0  0
 15 16  1  0  0  0  0
 16 35  1  0  0  0  0
 16 36  1  0  0  0  0
 17 19  1  0  0  0  0
 17 37  1  0  0  0  0
 18 20  2  0  0  0  0
 18 38  1  0  0  0  0
 19 21  2  0  0  0  0
 19 39  1  0  0  0  0
 20 21  1  0  0  0  0
 20 40  1  0  0  0  0
 21 41  1  0  0  0  0
 22 23  1  0  0  0  0
 23 24  2  0  0  0  0
 24 26  1  0  0  0  0
 24 42  1  0  0  0  0
 25 26  2  0  0  0  0
 26 43  1  0  0  0  0
M  CHG  2   5  -1   9   1
M  END
> <PUBCHEM_COMPOUND_CID>
4784326

> <PUBCHEM_CONFORMER_RMSD>
1

> <PUBCHEM_CONFORMER_DIVERSEORDER>
1
92
78
23
29
26
55
27
46
16
43
62
44
45
11
37
17
61
85
50
88
63
59
32
57
13
18
28
19
53
54
64
87
42
69
89
70
25
93
41
40
21
47
22
81
77
35
3
12
9
67
72
48
90
2
75
24
94
4
36
33
30
38
91
52
82
76
83
39
74
34
14
49
7
86
60
80
20
56
95
5
96
58
8
71
10
65
31
51
79
68
15
84
73
66
6

> <PUBCHEM_MMFF94_PARTIAL_CHARGES>
33
1 -0.08
10 0.37
11 0.37
12 0.3
13 0.3
14 0.1
15 0.57
16 0.34
17 -0.15
18 -0.15
19 -0.15
2 -0.57
20 -0.15
21 -0.15
22 0.81
23 -0.05
24 -0.15
25 0.12
26 -0.15
3 -0.43
37 0.15
38 0.15
39 0.15
4 -0.57
40 0.15
41 0.15
42 0.15
43 0.15
5 -0.52
6 -0.52
7 -0.84
8 -0.66
9 0.96

> <PUBCHEM_EFFECTIVE_ROTOR_COUNT>
8.2

> <PUBCHEM_PHARMACOPHORE_FEATURES>
9
1 2 acceptor
1 4 acceptor
1 5 acceptor
1 5 anion
1 6 acceptor
1 7 cation
5 1 23 24 25 26 rings
6 14 17 18 19 20 21 rings
6 7 8 10 11 12 13 rings

> <PUBCHEM_HEAVY_ATOM_COUNT>
26

> <PUBCHEM_ATOM_DEF_STEREO_COUNT>
0

> <PUBCHEM_ATOM_UDEF_STEREO_COUNT>
0

> <PUBCHEM_BOND_DEF_STEREO_COUNT>
0

> <PUBCHEM_BOND_UDEF_STEREO_COUNT>
0

> <PUBCHEM_ISOTOPIC_ATOM_COUNT>
0

> <PUBCHEM_COMPONENT_COUNT>
1

> <PUBCHEM_CACTVS_TAUTO_COUNT>
1

> <PUBCHEM_CONFORMER_ID>
004900C600000001

> <PUBCHEM_MMFF94_ENERGY>
70.1357

> <PUBCHEM_FEATURE_SELFOVERLAP>
45.752

> <PUBCHEM_SHAPE_FINGERPRINT>
10 15 18261110777087522691
100830 39 18336544928685975277
10299344 5 14345794950559096417
10883706 142 17132119052912987167
11315181 36 17846500348828300803
12082328 90 9295021145528601947
12089408 11 16200431368845382124
12516196 113 11386367049602403015
13533116 47 16486979440809940606
13885169 127 18113617859432278077
14150022 121 16298659496051572557
14251764 18 17989208135908044560
14251764 46 18410855455838469251
14933364 13 18260830401654075309
15183329 4 18201999919344235666
15247644 1 14851606587731331289
15301273 46 17822008696822185655
15419008 47 18113892754461764821
15461852 350 15554443033140504445
15510794 2 18187649089257681987
15840311 113 18261115201816799028
15849732 13 18186521007543843863
16120349 18 18271520988093386904
18608769 82 18040999570019249651
19611394 137 17968954105786468121
19841028 212 17603862240219632098
21095086 128 15285356219585394162
21267235 1 18260832596171581412
21792934 111 18201992232466197168
23035841 295 14923944556959741891
232437 2 18334576837268476098
246663 6 15864072074347814850
249057 3 18341895216126058252
28498 318 18342176648807301678
335352 9 18341891909291475413
33684 2 18410855451538227202
4073 2 18041282183695076346
437795 83 18199740359717903541
59755656 520 17749385997137783211
6201320 215 15768944433010115867
6691757 9 16271933752709630111
67123 10 18259985980786711069
8209 1 18410855455833201004

> <PUBCHEM_SHAPE_MULTIPOLES>
494.63
30.13
1.53
0.8
10.21
0.05
-0.07
-3.44
-4.47
0.62
0.09
-1.12
0.02
1.15

> <PUBCHEM_SHAPE_SELFOVERLAP>
1040.678

> <PUBCHEM_SHAPE_VOLUME>
278

> <PUBCHEM_COORDINATE_TYPE>
2
5
10

$$$$
