945634
  -OEChem-01171812093D

 43 44  0     0  0  0  0  0  0999 V2000
   -4.0509   -1.2141   -0.2181 S   0  0  0  0  0  0  0  0  0  0  0  0
    3.1180   -2.0206   -0.2072 O   0  0  0  0  0  0  0  0  0  0  0  0
   -0.2808    1.4944   -0.3700 O   0  0  0  0  0  0  0  0  0  0  0  0
    4.6178   -0.2477   -0.2795 N   0  0  0  0  0  0  0  0  0  0  0  0
   -1.5177   -0.5035   -0.2479 N   0  0  0  0  0  0  0  0  0  0  0  0
   -3.2225    1.2058   -0.3737 N   0  0  0  0  0  0  0  0  0  0  0  0
   -4.6043    1.2819   -0.3872 N   0  0  0  0  0  0  0  0  0  0  0  0
    7.1116    0.7525    0.7889 C   0  0  0  0  0  0  0  0  0  0  0  0
    5.8537    1.6191    0.7534 C   0  0  0  0  0  0  0  0  0  0  0  0
    6.7513   -0.7307    0.8549 C   0  0  0  0  0  0  0  0  0  0  0  0
    4.9137    1.1877   -0.3702 C   0  0  0  0  0  0  0  0  0  0  0  0
    5.7960   -1.1174   -0.2708 C   0  0  0  0  0  0  0  0  0  0  0  0
    3.3413   -0.8078   -0.2454 C   0  0  0  0  0  0  0  0  0  0  0  0
    2.1806    0.1548   -0.2543 C   0  0  0  0  0  0  0  0  0  0  0  0
    0.8733   -0.6162   -0.2140 C   0  0  0  0  0  0  0  0  0  0  0  0
   -0.3634    0.2736   -0.2902 C   0  0  0  0  0  0  0  0  0  0  0  0
   -6.6122   -0.1726   -0.3052 C   0  0  0  0  0  0  0  0  0  0  0  0
   -7.2062   -0.1836    1.1177 C   0  0  0  0  0  0  0  0  0  0  0  0
   -2.8310   -0.0288   -0.2893 C   0  0  0  0  0  0  0  0  0  0  0  0
   -5.1596    0.0914   -0.3119 C   0  0  0  0  0  0  0  0  0  0  0  0
   -8.7086   -0.4179    1.1201 C   0  0  0  0  0  0  0  0  0  0  0  0
    7.7131    0.9436   -0.1082 H   0  0  0  0  0  0  0  0  0  0  0  0
    7.7268    1.0248    1.6536 H   0  0  0  0  0  0  0  0  0  0  0  0
    6.1303    2.6712    0.6246 H   0  0  0  0  0  0  0  0  0  0  0  0
    5.3325    1.5351    1.7152 H   0  0  0  0  0  0  0  0  0  0  0  0
    6.2788   -0.9426    1.8221 H   0  0  0  0  0  0  0  0  0  0  0  0
    7.6610   -1.3384    0.7976 H   0  0  0  0  0  0  0  0  0  0  0  0
    5.3839    1.3583   -1.3461 H   0  0  0  0  0  0  0  0  0  0  0  0
    4.0099    1.7981   -0.3382 H   0  0  0  0  0  0  0  0  0  0  0  0
    5.5055   -2.1673   -0.1636 H   0  0  0  0  0  0  0  0  0  0  0  0
    6.2878   -1.0112   -1.2449 H   0  0  0  0  0  0  0  0  0  0  0  0
    2.2241    0.7615   -1.1657 H   0  0  0  0  0  0  0  0  0  0  0  0
    2.2484    0.8155    0.6171 H   0  0  0  0  0  0  0  0  0  0  0  0
    0.8087   -1.2025    0.7118 H   0  0  0  0  0  0  0  0  0  0  0  0
    0.8214   -1.3202   -1.0551 H   0  0  0  0  0  0  0  0  0  0  0  0
   -1.4312   -1.5143   -0.1795 H   0  0  0  0  0  0  0  0  0  0  0  0
   -7.1142    0.6062   -0.8935 H   0  0  0  0  0  0  0  0  0  0  0  0
   -6.8392   -1.1230   -0.8042 H   0  0  0  0  0  0  0  0  0  0  0  0
   -6.9919    0.7711    1.6139 H   0  0  0  0  0  0  0  0  0  0  0  0
   -6.7224   -0.9649    1.7165 H   0  0  0  0  0  0  0  0  0  0  0  0
   -9.0915   -0.4183    2.1453 H   0  0  0  0  0  0  0  0  0  0  0  0
   -8.9542   -1.3822    0.6641 H   0  0  0  0  0  0  0  0  0  0  0  0
   -9.2276    0.3683    0.5627 H   0  0  0  0  0  0  0  0  0  0  0  0
  1 19  1  0  0  0  0
  1 20  1  0  0  0  0
  2 13  2  0  0  0  0
  3 16  2  0  0  0  0
  4 11  1  0  0  0  0
  4 12  1  0  0  0  0
  4 13  1  0  0  0  0
  5 16  1  0  0  0  0
  5 19  1  0  0  0  0
  5 36  1  0  0  0  0
  6  7  1  0  0  0  0
  6 19  2  0  0  0  0
  7 20  2  0  0  0  0
  8  9  1  0  0  0  0
  8 10  1  0  0  0  0
  8 22  1  0  0  0  0
  8 23  1  0  0  0  0
  9 11  1  0  0  0  0
  9 24  1  0  0  0  0
  9 25  1  0  0  0  0
 10 12  1  0  0  0  0
 10 26  1  0  0  0  0
 10 27  1  0  0  0  0
 11 28  1  0  0  0  0
 11 29  1  0  0  0  0
 12 30  1  0  0  0  0
 12 31  1  0  0  0  0
 13 14  1  0  0  0  0
 14 15  1  0  0  0  0
 14 32  1  0  0  0  0
 14 33  1  0  0  0  0
 15 16  1  0  0  0  0
 15 34  1  0  0  0  0
 15 35  1  0  0  0  0
 17 18  1  0  0  0  0
 17 20  1  0  0  0  0
 17 37  1  0  0  0  0
 17 38  1  0  0  0  0
 18 21  1  0  0  0  0
 18 39  1  0  0  0  0
 18 40  1  0  0  0  0
 21 41  1  0  0  0  0
 21 42  1  0  0  0  0
 21 43  1  0  0  0  0
M  END
> <PUBCHEM_COMPOUND_CID>
945634

> <PUBCHEM_CONFORMER_RMSD>
0.8

> <PUBCHEM_CONFORMER_DIVERSEORDER>
1
262
242
396
233
248
400
413
148
39
473
84
53
355
246
441
70
304
226
435
429
426
231
125
457
432
239
325
298
251
165
341
365
466
204
176
225
190
230
2
451
326
184
318
185
126
223
144
92
369
152
105
438
30
330
288
370
96
36
208
373
401
31
43
399
352
91
295
141
418
259
85
462
300
465
443
244
448
289
333
143
22
236
41
275
464
271
61
136
217
470
93
216
209
139
119
249
269
28
420
392
423
459
120
25
13
241
260
169
279
340
188
313
415
220
469
334
299
19
445
69
172
287
390
110
235
350
276
442
446
78
411
422
384
343
205
65
234
16
245
452
194
131
310
436
277
315
11
285
213
327
471
112
227
358
293
379
263
95
207
137
256
366
252
90
147
5
449
378
158
218
393
113
284
405
360
407
201
357
62
3
163
374
320
15
254
261
250
306
437
467
202
20
463
474
6
149
122
76
381
409
427
229
425
156
283
359
303
33
421
272
391
273
447
433
363
361
12
115
101
116
232
55
296
439
403
179
453
157
168
351
72
49
338
50
89
34
364
8
68
356
337
376
258
4
402
132
412
107
347
312
71
268
45
282
431
81
214
224
57
94
314
54
29
278
345
308
183
319
38
140
155
151
419
240
153
18
102
353
210
472
181
302
162
66
138
332
124
265
56
434
450
206
385
118
26
146
322
394
417
331
316
88
108
280
416
129
198
178
305
380
297
175
372
346
97
388
309
266
324
145
187
154
182
82
212
37
292
430
14
362
339
23
42
424
59
253
460
104
335
255
73
461
247
367
133
328
134
164
408
456
281
52
80
257
468
404
27
197
159
410
414
77
323
270
170
150
455
51
375
189
228
222
371
243
166
186
32
130
406
211
274
127
24
368
264
171
9
191
203
344
291
387
58
174
237
111
389
238
354
221
142
160
377
329
286
180
444
63
86
17
458
219
397
382
428
307
161
348
342
173
35
106
99
294
7
311
21
167
74
67
100
114
301
215
290
193
317
454
64
349
398
109
395
196
267
48
60
135
10
117
336
123
192
47
103
199
98
128
79
383
121
75
440
46
83
386
87
321
195
44
177
200
40

> <PUBCHEM_MMFF94_PARTIAL_CHARGES>
17
1 -0.08
11 0.3
12 0.3
13 0.57
14 0.06
15 0.06
16 0.57
17 0.18
19 0.44
2 -0.57
20 0.2
3 -0.57
36 0.37
4 -0.66
5 -0.49
6 -0.34
7 -0.34

> <PUBCHEM_EFFECTIVE_ROTOR_COUNT>
9.2

> <PUBCHEM_PHARMACOPHORE_FEATURES>
7
1 2 acceptor
1 21 hydrophobe
1 3 acceptor
1 5 donor
1 7 acceptor
5 1 6 7 19 20 rings
6 4 8 9 10 11 12 rings

> <PUBCHEM_HEAVY_ATOM_COUNT>
21

> <PUBCHEM_ATOM_DEF_STEREO_COUNT>
0

> <PUBCHEM_ATOM_UDEF_STEREO_COUNT>
0

> <PUBCHEM_BOND_DEF_STEREO_COUNT>
0

> <PUBCHEM_BOND_UDEF_STEREO_COUNT>
0

> <PUBCHEM_ISOTOPIC_ATOM_COUNT>
0

> <PUBCHEM_COMPONENT_COUNT>
1

> <PUBCHEM_CACTVS_TAUTO_COUNT>
3

> <PUBCHEM_CONFORMER_ID>
000E6DE200000001

> <PUBCHEM_MMFF94_ENERGY>
21.5317

> <PUBCHEM_FEATURE_SELFOVERLAP>
35.522

> <PUBCHEM_SHAPE_FINGERPRINT>
10 15 18259987106268667776
10066227 49 12180114372309011513
10299344 5 17846498140898716311
106641 1 18272937146342855019
11315181 36 17489867160032748615
11638347 137 17822287964507778274
12166972 35 12324243862562627134
125118 31 18335420144974783684
12516196 113 18273494572045303753
13073987 5 18336546002258240549
13533116 47 16630248000431784798
13668630 136 15213018236944371314
13685833 64 18261114071569947305
14251757 52 15482668000785089202
14251764 18 18059856182019775519
14251764 46 17095523997934750955
14461889 52 18186804702976896930
14849402 71 17917429890712072049
14933364 13 18344145895037818064
15183329 4 9295294945208506164
15461852 350 10087631603782814537
15690457 1 14779262029568938008
15716309 27 18413671314345571647
16120349 18 18272365412796509657
17093844 174 18260548906210200713
18608769 82 18334577988578518995
20157964 124 18272651247512977470
20281389 69 18412543206219104744
21095123 145 15051451665923984871
21150785 3 16343695564838593133
21267235 1 18410860923975461054
21315763 28 18411416189884165020
21521721 280 18201439207158693378
21792934 111 18334012801036871949
220451 1 16630239247520089407
221357 26 9223234044420774134
22224240 67 18201719561623946671
23035841 295 18408885140050534083
23559900 14 18340477993331252057
28498 318 8286207149374168921
34797466 226 17704078399684462468
3545911 37 18410292505927304622
4073 2 18186804729321778338
4325135 7 18343581854721743076
4340502 62 18113616785732879594
5104073 3 18264206915699768969
5283156 175 13551187797523875891
5758199 1 17917993884025605567
59682541 35 18334858358888349841
59755656 520 10735871755991149353

> <PUBCHEM_SHAPE_MULTIPOLES>
404.36
25
1.44
0.88
15.72
0.02
-0.2
0.23
-8.72
-1.58
0.05
0.44
0.03
0.63

> <PUBCHEM_SHAPE_SELFOVERLAP>
802.758

> <PUBCHEM_SHAPE_VOLUME>
240.3

> <PUBCHEM_COORDINATE_TYPE>
2
5
10

$$$$
