2016176
  -OEChem-01171811413D

 55 59  0     0  0  0  0  0  0999 V2000
    4.4704   -3.7705   -0.6206 S   0  0  0  0  0  0  0  0  0  0  0  0
   -0.8784   -1.8339    2.7646 O   0  0  0  0  0  0  0  0  0  0  0  0
    2.7826   -0.7841    0.9237 N   0  0  0  0  0  0  0  0  0  0  0  0
   -1.5648    0.2643    2.0998 N   0  0  0  0  0  0  0  0  0  0  0  0
    3.1616    1.3631   -0.1277 N   0  0  0  0  0  0  0  0  0  0  0  0
    0.4655    1.8364    0.6754 N   0  0  0  0  0  0  0  0  0  0  0  0
    1.8524   -2.6424    2.0593 N   0  0  0  0  0  0  0  0  0  0  0  0
    0.6725   -0.5024    1.5912 C   0  0  0  0  0  0  0  0  0  0  0  0
    2.4087    0.4711    0.5309 C   0  0  0  0  0  0  0  0  0  0  0  0
    1.1019    0.6721    0.9325 C   0  0  0  0  0  0  0  0  0  0  0  0
    1.7318   -1.3866    1.5714 C   0  0  0  0  0  0  0  0  0  0  0  0
    4.0848   -1.3715    0.6870 C   0  0  0  0  0  0  0  0  0  0  0  0
   -0.6103   -0.7636    2.1804 C   0  0  0  0  0  0  0  0  0  0  0  0
   -2.8895    0.1653    2.6694 C   0  0  0  0  0  0  0  0  0  0  0  0
   -3.9084   -0.4155    1.6906 C   0  0  0  0  0  0  0  0  0  0  0  0
    2.5280    2.5174   -0.3813 C   0  0  0  0  0  0  0  0  0  0  0  0
    4.1121   -2.1082   -0.6236 C   0  0  0  0  0  0  0  0  0  0  0  0
    1.1899    2.7527    0.0166 C   0  0  0  0  0  0  0  0  0  0  0  0
   -4.1055    0.4116    0.4132 C   0  0  0  0  0  0  0  0  0  0  0  0
   -5.1404   -0.1540   -0.5264 C   0  0  0  0  0  0  0  0  0  0  0  0
    3.2127    3.5199   -1.0616 C   0  0  0  0  0  0  0  0  0  0  0  0
    0.6037    3.9781   -0.2854 C   0  0  0  0  0  0  0  0  0  0  0  0
    3.8799   -1.6034   -1.8678 C   0  0  0  0  0  0  0  0  0  0  0  0
    2.6125    4.7427   -1.3568 C   0  0  0  0  0  0  0  0  0  0  0  0
    1.3025    4.9726   -0.9673 C   0  0  0  0  0  0  0  0  0  0  0  0
   -4.7518   -1.0583   -1.5033 C   0  0  0  0  0  0  0  0  0  0  0  0
   -6.4640    0.2395   -0.3985 C   0  0  0  0  0  0  0  0  0  0  0  0
    3.9979   -2.6138   -2.8653 C   0  0  0  0  0  0  0  0  0  0  0  0
    4.3157   -3.8403   -2.3245 C   0  0  0  0  0  0  0  0  0  0  0  0
   -5.7090   -1.5811   -2.3729 C   0  0  0  0  0  0  0  0  0  0  0  0
   -7.4213   -0.2834   -1.2679 C   0  0  0  0  0  0  0  0  0  0  0  0
   -7.0437   -1.1938   -2.2551 C   0  0  0  0  0  0  0  0  0  0  0  0
    4.3558   -1.9958    1.5445 H   0  0  0  0  0  0  0  0  0  0  0  0
    4.8216   -0.5589    0.6629 H   0  0  0  0  0  0  0  0  0  0  0  0
   -2.8469   -0.4561    3.5702 H   0  0  0  0  0  0  0  0  0  0  0  0
   -3.1875    1.1749    2.9716 H   0  0  0  0  0  0  0  0  0  0  0  0
   -3.6037   -1.4334    1.4148 H   0  0  0  0  0  0  0  0  0  0  0  0
   -4.8703   -0.5116    2.2100 H   0  0  0  0  0  0  0  0  0  0  0  0
   -1.3313    1.1294    1.6226 H   0  0  0  0  0  0  0  0  0  0  0  0
   -4.3862    1.4384    0.6828 H   0  0  0  0  0  0  0  0  0  0  0  0
   -3.1526    0.5043   -0.1239 H   0  0  0  0  0  0  0  0  0  0  0  0
    1.0856   -3.0984    2.5444 H   0  0  0  0  0  0  0  0  0  0  0  0
    2.6875   -3.2084    1.9538 H   0  0  0  0  0  0  0  0  0  0  0  0
    4.2422    3.3564   -1.3754 H   0  0  0  0  0  0  0  0  0  0  0  0
   -0.4244    4.1756    0.0132 H   0  0  0  0  0  0  0  0  0  0  0  0
    3.6429   -0.5702   -2.0826 H   0  0  0  0  0  0  0  0  0  0  0  0
    3.1684    5.5087   -1.8886 H   0  0  0  0  0  0  0  0  0  0  0  0
    0.8227    5.9204   -1.1911 H   0  0  0  0  0  0  0  0  0  0  0  0
   -3.7151   -1.3677   -1.6015 H   0  0  0  0  0  0  0  0  0  0  0  0
   -6.7682    0.9462    0.3682 H   0  0  0  0  0  0  0  0  0  0  0  0
    3.8584   -2.4493   -3.9258 H   0  0  0  0  0  0  0  0  0  0  0  0
    4.4647   -4.7738   -2.8486 H   0  0  0  0  0  0  0  0  0  0  0  0
   -5.4152   -2.2904   -3.1411 H   0  0  0  0  0  0  0  0  0  0  0  0
   -8.4607    0.0177   -1.1759 H   0  0  0  0  0  0  0  0  0  0  0  0
   -7.7891   -1.6011   -2.9318 H   0  0  0  0  0  0  0  0  0  0  0  0
  1 17  1  0  0  0  0
  1 29  1  0  0  0  0
  2 13  2  0  0  0  0
  3  9  1  0  0  0  0
  3 11  1  0  0  0  0
  3 12  1  0  0  0  0
  4 13  1  0  0  0  0
  4 14  1  0  0  0  0
  4 39  1  0  0  0  0
  5  9  2  0  0  0  0
  5 16  1  0  0  0  0
  6 10  2  0  0  0  0
  6 18  1  0  0  0  0
  7 11  1  0  0  0  0
  7 42  1  0  0  0  0
  7 43  1  0  0  0  0
  8 10  1  0  0  0  0
  8 11  2  0  0  0  0
  8 13  1  0  0  0  0
  9 10  1  0  0  0  0
 12 17  1  0  0  0  0
 12 33  1  0  0  0  0
 12 34  1  0  0  0  0
 14 15  1  0  0  0  0
 14 35  1  0  0  0  0
 14 36  1  0  0  0  0
 15 19  1  0  0  0  0
 15 37  1  0  0  0  0
 15 38  1  0  0  0  0
 16 18  1  0  0  0  0
 16 21  2  0  0  0  0
 17 23  2  0  0  0  0
 18 22  2  0  0  0  0
 19 20  1  0  0  0  0
 19 40  1  0  0  0  0
 19 41  1  0  0  0  0
 20 26  2  0  0  0  0
 20 27  1  0  0  0  0
 21 24  1  0  0  0  0
 21 44  1  0  0  0  0
 22 25  1  0  0  0  0
 22 45  1  0  0  0  0
 23 28  1  0  0  0  0
 23 46  1  0  0  0  0
 24 25  2  0  0  0  0
 24 47  1  0  0  0  0
 25 48  1  0  0  0  0
 26 30  1  0  0  0  0
 26 49  1  0  0  0  0
 27 31  2  0  0  0  0
 27 50  1  0  0  0  0
 28 29  2  0  0  0  0
 28 51  1  0  0  0  0
 29 52  1  0  0  0  0
 30 32  2  0  0  0  0
 30 53  1  0  0  0  0
 31 32  1  0  0  0  0
 31 54  1  0  0  0  0
 32 55  1  0  0  0  0
M  END
> <PUBCHEM_COMPOUND_CID>
2016176

> <PUBCHEM_CONFORMER_RMSD>
1

> <PUBCHEM_CONFORMER_DIVERSEORDER>
2
177
29
221
71
250
184
83
203
197
165
228
225
48
9
45
96
89
229
175
248
194
155
135
51
130
219
205
25
204
4
237
162
172
111
36
80
181
58
238
209
212
107
188
208
179
158
21
240
233
67
244
227
99
62
146
74
242
143
189
246
236
122
65
15
235
6
23
217
185
131
100
117
3
70
202
141
102
59
206
112
20
213
147
150
81
116
157
64
30
26
128
152
159
37
166
195
140
93
201
200
123
138
192
182
171
105
24
82
134
167
10
56
224
186
129
44
245
85
196
31
42
1
92
178
54
66
226
151
16
169
11
76
145
249
156
124
180
120
55
211
113
97
133
164
35
18
218
41
119
127
190
132
220
126
230
154
160
118
149
153
216
170
87
243
136
121
72
174
73
191
28
187
77
234
104
199
95
14
173
13
106
207
8
50
108
33
114
32
38
52
27
144
34
198
75
22
57
168
103
47
183
49
86
17
88
101
69
84
60
90
232
161
241
137
139
223
68
125
109
148
39
5
78
222
53
43
63
247
214
46
19
142
40
91
239
231
79
110
7
210
94
215
12
193
115
176
98
163
61

> <PUBCHEM_MMFF94_PARTIAL_CHARGES>
46
1 -0.08
10 0.26
11 -0.07
12 0.44
13 0.72
14 0.3
16 0.31
17 -0.14
18 0.31
19 0.14
2 -0.57
20 -0.14
21 -0.15
22 -0.15
23 -0.15
24 -0.15
25 -0.15
26 -0.15
27 -0.15
28 -0.15
29 -0.11
3 0.05
30 -0.15
31 -0.15
32 -0.15
39 0.37
4 -0.73
42 0.4
43 0.4
44 0.15
45 0.15
46 0.15
47 0.15
48 0.15
49 0.15
5 -0.57
50 0.15
51 0.15
52 0.15
53 0.15
54 0.15
55 0.15
6 -0.57
7 -0.88
8 -0.09
9 0.11

> <PUBCHEM_EFFECTIVE_ROTOR_COUNT>
8

> <PUBCHEM_PHARMACOPHORE_FEATURES>
11
1 2 acceptor
1 4 donor
1 6 acceptor
1 7 cation
1 7 donor
3 3 5 9 cation
5 1 17 23 28 29 rings
5 3 8 9 10 11 rings
6 16 18 21 22 24 25 rings
6 20 26 27 30 31 32 rings
6 5 6 9 10 16 18 rings

> <PUBCHEM_HEAVY_ATOM_COUNT>
32

> <PUBCHEM_ATOM_DEF_STEREO_COUNT>
0

> <PUBCHEM_ATOM_UDEF_STEREO_COUNT>
0

> <PUBCHEM_BOND_DEF_STEREO_COUNT>
0

> <PUBCHEM_BOND_UDEF_STEREO_COUNT>
0

> <PUBCHEM_ISOTOPIC_ATOM_COUNT>
0

> <PUBCHEM_COMPONENT_COUNT>
1

> <PUBCHEM_CACTVS_TAUTO_COUNT>
7

> <PUBCHEM_CONFORMER_ID>
001EC3B000000002

> <PUBCHEM_MMFF94_ENERGY>
66.7409

> <PUBCHEM_FEATURE_SELFOVERLAP>
55.995

> <PUBCHEM_SHAPE_FINGERPRINT>
10556698 54 17605530220870409733
11135609 149 18267008488781563526
11331351 85 17985557662561925513
11377469 6 18054817016786766219
11578080 2 16878789456079837142
12166972 35 18131064922995417735
14040221 178 17535743324364846429
14114206 34 17751657445687985669
14289585 56 18193845838376532991
14347329 18 15647059252813681059
14674994 50 17839472080871745129
16989378 47 17987820556254608654
18365409 1 17342924152187878910
20587220 46 17488173984444703199
20775438 99 18411416254261909806
21304303 282 16978410866028856176
21315764 119 17917703558139052199
23536364 44 17898017827980927772
24771293 8 18411697682579407016
376196 1 17682961355328806216
4066623 53 17968376745753538508
4173938 77 18334864913889450341
46194498 28 18335692867303263829
469060 322 17913506644366678710
5081480 168 18041861561560748861
59025328 239 18342464694841291004
6086070 43 18040431122444425546
66674814 147 18130787806831127967
7808743 9 14634877444386589379

> <PUBCHEM_SHAPE_MULTIPOLES>
631.62
14.68
5.75
2.93
32.41
6.46
-0.5
-11.75
11.61
-11.29
4.27
1.18
-2.17
-0.62

> <PUBCHEM_SHAPE_SELFOVERLAP>
1387.994

> <PUBCHEM_SHAPE_VOLUME>
344.6

> <PUBCHEM_COORDINATE_TYPE>
2
5
10

$$$$
