16280850
  -OEChem-01171812123D

 55 57  0     0  0  0  0  0  0999 V2000
    3.6645   -0.5190   -2.7479 Cl  0  0  0  0  0  0  0  0  0  0  0  0
   -3.0607   -1.6592    1.6948 S   0  0  0  0  0  0  0  0  0  0  0  0
    4.7138    0.3597    2.1654 F   0  0  0  0  0  0  0  0  0  0  0  0
   -3.8085   -2.6254   -2.6357 O   0  0  0  0  0  0  0  0  0  0  0  0
   -1.9731   -2.4431    2.2402 O   0  0  0  0  0  0  0  0  0  0  0  0
   -4.2694   -1.4294    2.4573 O   0  0  0  0  0  0  0  0  0  0  0  0
   -0.8993    3.6181    0.1133 O   0  0  0  0  0  0  0  0  0  0  0  0
    1.6428   -0.7745    0.5929 O   0  0  0  0  0  0  0  0  0  0  0  0
   -3.4830   -2.2822    0.1570 N   0  0  0  0  0  0  0  0  0  0  0  0
    0.8235    1.4064    0.2681 N   0  0  0  0  0  0  0  0  0  0  0  0
   -2.3373   -2.6820   -0.7113 C   0  0  0  0  0  0  0  0  0  0  0  0
   -4.4811   -1.4800   -0.6094 C   0  0  0  0  0  0  0  0  0  0  0  0
   -2.8778   -3.4378   -1.9172 C   0  0  0  0  0  0  0  0  0  0  0  0
   -4.9316   -2.2867   -1.8191 C   0  0  0  0  0  0  0  0  0  0  0  0
   -2.4093   -0.0877    1.2227 C   0  0  0  0  0  0  0  0  0  0  0  0
   -1.0518    0.0461    0.9311 C   0  0  0  0  0  0  0  0  0  0  0  0
   -3.2527    1.0203    1.1411 C   0  0  0  0  0  0  0  0  0  0  0  0
   -0.5378    1.2879    0.5576 C   0  0  0  0  0  0  0  0  0  0  0  0
   -1.3812    2.3958    0.4760 C   0  0  0  0  0  0  0  0  0  0  0  0
   -2.7387    2.2620    0.7677 C   0  0  0  0  0  0  0  0  0  0  0  0
   -1.4567    4.2125   -1.0567 C   0  0  0  0  0  0  0  0  0  0  0  0
    1.8070    0.4051    0.2987 C   0  0  0  0  0  0  0  0  0  0  0  0
    3.1673    0.9643   -0.0880 C   0  0  0  0  0  0  0  0  0  0  0  0
   -0.3579    4.4113   -2.0897 C   0  0  0  0  0  0  0  0  0  0  0  0
   -2.1254    5.5261   -0.6809 C   0  0  0  0  0  0  0  0  0  0  0  0
    4.2550   -0.0770   -0.1237 C   0  0  0  0  0  0  0  0  0  0  0  0
    4.5421   -0.7916   -1.2866 C   0  0  0  0  0  0  0  0  0  0  0  0
    4.9821   -0.3201    1.0416 C   0  0  0  0  0  0  0  0  0  0  0  0
    5.5562   -1.7493   -1.2843 C   0  0  0  0  0  0  0  0  0  0  0  0
    5.9961   -1.2778    1.0439 C   0  0  0  0  0  0  0  0  0  0  0  0
    6.2833   -1.9925   -0.1189 C   0  0  0  0  0  0  0  0  0  0  0  0
   -1.8052   -1.7904   -1.0574 H   0  0  0  0  0  0  0  0  0  0  0  0
   -1.6461   -3.3293   -0.1639 H   0  0  0  0  0  0  0  0  0  0  0  0
   -5.3487   -1.2471    0.0147 H   0  0  0  0  0  0  0  0  0  0  0  0
   -4.0223   -0.5527   -0.9658 H   0  0  0  0  0  0  0  0  0  0  0  0
   -2.0594   -3.6908   -2.5985 H   0  0  0  0  0  0  0  0  0  0  0  0
   -3.3669   -4.3732   -1.6199 H   0  0  0  0  0  0  0  0  0  0  0  0
   -5.4524   -3.2041   -1.5198 H   0  0  0  0  0  0  0  0  0  0  0  0
   -5.6215   -1.6947   -2.4287 H   0  0  0  0  0  0  0  0  0  0  0  0
   -0.4490   -0.8456    1.0068 H   0  0  0  0  0  0  0  0  0  0  0  0
   -4.3127    0.9401    1.3645 H   0  0  0  0  0  0  0  0  0  0  0  0
   -3.4101    3.1143    0.7204 H   0  0  0  0  0  0  0  0  0  0  0  0
    1.1266    2.3414    0.0032 H   0  0  0  0  0  0  0  0  0  0  0  0
   -2.2144    3.5605   -1.5126 H   0  0  0  0  0  0  0  0  0  0  0  0
    3.0867    1.4950   -1.0432 H   0  0  0  0  0  0  0  0  0  0  0  0
    3.4287    1.7397    0.6448 H   0  0  0  0  0  0  0  0  0  0  0  0
    0.1008    3.4510   -2.3494 H   0  0  0  0  0  0  0  0  0  0  0  0
   -0.7468    4.8704   -3.0036 H   0  0  0  0  0  0  0  0  0  0  0  0
    0.4428    5.0443   -1.6916 H   0  0  0  0  0  0  0  0  0  0  0  0
   -2.5629    6.0142   -1.5572 H   0  0  0  0  0  0  0  0  0  0  0  0
   -1.4046    6.2123   -0.2227 H   0  0  0  0  0  0  0  0  0  0  0  0
   -2.9170    5.3660    0.0578 H   0  0  0  0  0  0  0  0  0  0  0  0
    5.7924   -2.3148   -2.1822 H   0  0  0  0  0  0  0  0  0  0  0  0
    6.5617   -1.4672    1.9514 H   0  0  0  0  0  0  0  0  0  0  0  0
    7.0728   -2.7382   -0.1167 H   0  0  0  0  0  0  0  0  0  0  0  0
  1 27  1  0  0  0  0
  2  5  2  0  0  0  0
  2  6  2  0  0  0  0
  2  9  1  0  0  0  0
  2 15  1  0  0  0  0
  3 28  1  0  0  0  0
  4 13  1  0  0  0  0
  4 14  1  0  0  0  0
  7 19  1  0  0  0  0
  7 21  1  0  0  0  0
  8 22  2  0  0  0  0
  9 11  1  0  0  0  0
  9 12  1  0  0  0  0
 10 18  1  0  0  0  0
 10 22  1  0  0  0  0
 10 43  1  0  0  0  0
 11 13  1  0  0  0  0
 11 32  1  0  0  0  0
 11 33  1  0  0  0  0
 12 14  1  0  0  0  0
 12 34  1  0  0  0  0
 12 35  1  0  0  0  0
 13 36  1  0  0  0  0
 13 37  1  0  0  0  0
 14 38  1  0  0  0  0
 14 39  1  0  0  0  0
 15 16  2  0  0  0  0
 15 17  1  0  0  0  0
 16 18  1  0  0  0  0
 16 40  1  0  0  0  0
 17 20  2  0  0  0  0
 17 41  1  0  0  0  0
 18 19  2  0  0  0  0
 19 20  1  0  0  0  0
 20 42  1  0  0  0  0
 21 24  1  0  0  0  0
 21 25  1  0  0  0  0
 21 44  1  0  0  0  0
 22 23  1  0  0  0  0
 23 26  1  0  0  0  0
 23 45  1  0  0  0  0
 23 46  1  0  0  0  0
 24 47  1  0  0  0  0
 24 48  1  0  0  0  0
 24 49  1  0  0  0  0
 25 50  1  0  0  0  0
 25 51  1  0  0  0  0
 25 52  1  0  0  0  0
 26 27  1  0  0  0  0
 26 28  2  0  0  0  0
 27 29  2  0  0  0  0
 28 30  1  0  0  0  0
 29 31  1  0  0  0  0
 29 53  1  0  0  0  0
 30 31  2  0  0  0  0
 30 54  1  0  0  0  0
 31 55  1  0  0  0  0
M  END
> <PUBCHEM_COMPOUND_CID>
16280850

> <PUBCHEM_CONFORMER_RMSD>
1

> <PUBCHEM_CONFORMER_DIVERSEORDER>
1
105
147
164
70
89
44
52
181
96
155
62
118
182
173
57
88
124
158
45
170
166
139
127
153
171
71
163
92
25
91
150
40
115
111
78
191
142
188
168
82
128
174
108
117
137
116
187
178
179
165
143
140
101
47
65
192
160
83
85
49
72
148
106
159
195
11
51
122
172
48
24
119
36
193
183
196
74
75
15
175
68
58
112
87
157
63
131
55
104
77
176
156
167
20
50
130
8
162
34
190
151
138
95
113
86
123
37
53
30
103
61
64
99
26
76
125
81
39
177
134
38
23
149
100
169
197
10
129
198
32
120
152
21
22
114
154
80
19
146
133
59
79
199
189
35
184
121
194
9
27
93
67
31
186
16
84
42
161
13
102
43
132
33
136
109
28
12
126
94
14
185
2
90
18
60
46
107
54
141
110
5
41
98
145
135
144
69
97
4
3
180
17
66
6
7
29
73
56

> <PUBCHEM_MMFF94_PARTIAL_CHARGES>
36
1 -0.18
10 -0.55
11 0.36
12 0.36
13 0.28
14 0.28
15 -0.01
16 -0.15
17 -0.15
18 0.12
19 0.08
2 1.45
20 -0.15
21 0.28
22 0.57
23 0.2
26 -0.14
27 0.18
28 0.19
29 -0.15
3 -0.19
30 -0.15
31 -0.15
4 -0.56
40 0.15
41 0.15
42 0.15
43 0.37
5 -0.65
53 0.15
54 0.15
55 0.15
6 -0.65
7 -0.36
8 -0.57
9 -0.85

> <PUBCHEM_EFFECTIVE_ROTOR_COUNT>
9.2

> <PUBCHEM_PHARMACOPHORE_FEATURES>
10
1 10 donor
1 4 acceptor
1 5 acceptor
1 6 acceptor
1 7 acceptor
1 8 acceptor
3 21 24 25 hydrophobe
6 15 16 17 18 19 20 rings
6 26 27 28 29 30 31 rings
6 4 9 11 12 13 14 rings

> <PUBCHEM_HEAVY_ATOM_COUNT>
31

> <PUBCHEM_ATOM_DEF_STEREO_COUNT>
0

> <PUBCHEM_ATOM_UDEF_STEREO_COUNT>
0

> <PUBCHEM_BOND_DEF_STEREO_COUNT>
0

> <PUBCHEM_BOND_UDEF_STEREO_COUNT>
0

> <PUBCHEM_ISOTOPIC_ATOM_COUNT>
0

> <PUBCHEM_COMPONENT_COUNT>
1

> <PUBCHEM_CACTVS_TAUTO_COUNT>
2

> <PUBCHEM_CONFORMER_ID>
00F86D1200000001

> <PUBCHEM_MMFF94_ENERGY>
74.6931

> <PUBCHEM_FEATURE_SELFOVERLAP>
50.766

> <PUBCHEM_SHAPE_FINGERPRINT>
10483366 6 18271226246215361559
11477941 20 18188793707402303652
11720765 8 18053080007991364245
11796584 16 17975983060464187010
12160290 23 18266473013491711665
12422481 6 17560539355401199071
12553582 1 18335711588527981347
12633046 712 17752218429111082891
12788726 201 18189035526660561433
13690498 29 18338817628047114076
14114206 34 18040149617434143491
14347329 18 11386370357381433326
14674994 50 18271522014490447909
14910302 57 18058460819827511758
15131766 46 15721969035479675900
15361156 5 18337122198149311108
15484559 13 15102960842784198398
16628084 112 18117272554621428803
1813 80 18267314294600208541
23536364 44 18187910790832176743
255183 313 18198919024125370593
397830 11 17703210881538340442
44062 13 18265621992034664120
44880168 125 18057618572578160966
46194498 28 17613131376739455095
5080951 261 18269258093682402096
508706 21 18340782455015622558
57527293 21 18060148669129102848
59025328 239 17983836050806541797
5924683 9 17632296804302832051
613672 6 18189045568125223162
6677587 24 15817837873047260669

> <PUBCHEM_SHAPE_MULTIPOLES>
597.1
12.8
5.68
2.39
19.9
7.92
-0.7
-11.12
-0.44
-8.59
-3.52
-0.94
-1.3
-0.53

> <PUBCHEM_SHAPE_SELFOVERLAP>
1238.874

> <PUBCHEM_SHAPE_VOLUME>
344

> <PUBCHEM_COORDINATE_TYPE>
2
5
10

$$$$
