3498135
  -OEChem-01171811593D

 45 46  0     0  0  0  0  0  0999 V2000
    3.8776    2.3260   -1.3137 F   0  0  0  0  0  0  0  0  0  0  0  0
   -2.3612   -1.0117   -2.1999 O   0  0  0  0  0  0  0  0  0  0  0  0
   -0.2071   -3.1553   -0.5970 O   0  0  0  0  0  0  0  0  0  0  0  0
   -2.6162    0.1748   -0.2196 N   0  0  0  0  0  0  0  0  0  0  0  0
    0.4392   -2.1976    1.4180 N   0  0  0  0  0  0  0  0  0  0  0  0
   -2.3601    1.4909   -0.7612 C   0  0  0  0  0  0  0  0  0  0  0  0
   -0.8618    1.8124   -0.7428 C   0  0  0  0  0  0  0  0  0  0  0  0
   -3.1666    2.5597   -0.0159 C   0  0  0  0  0  0  0  0  0  0  0  0
   -0.3358    2.0679    0.6696 C   0  0  0  0  0  0  0  0  0  0  0  0
   -2.6368    2.8142    1.3952 C   0  0  0  0  0  0  0  0  0  0  0  0
   -1.1469    3.1428    1.3866 C   0  0  0  0  0  0  0  0  0  0  0  0
   -2.5943   -0.9757   -0.9948 C   0  0  0  0  0  0  0  0  0  0  0  0
   -2.9036   -2.2127   -0.1666 C   0  0  0  0  0  0  0  0  0  0  0  0
   -1.9112   -2.4390    0.9694 C   0  0  0  0  0  0  0  0  0  0  0  0
   -0.4847   -2.6488    0.4866 C   0  0  0  0  0  0  0  0  0  0  0  0
    1.8667   -2.2762    1.2093 C   0  0  0  0  0  0  0  0  0  0  0  0
    2.4044   -1.0473    0.5350 C   0  0  0  0  0  0  0  0  0  0  0  0
    2.4642   -0.9946   -0.8525 C   0  0  0  0  0  0  0  0  0  0  0  0
    2.8364    0.0257    1.3056 C   0  0  0  0  0  0  0  0  0  0  0  0
    2.9634    0.1476   -1.4785 C   0  0  0  0  0  0  0  0  0  0  0  0
    3.3355    1.1680    0.6795 C   0  0  0  0  0  0  0  0  0  0  0  0
    3.3989    1.2289   -0.7125 C   0  0  0  0  0  0  0  0  0  0  0  0
   -2.6925    1.4814   -1.8068 H   0  0  0  0  0  0  0  0  0  0  0  0
   -0.6825    2.7076   -1.3518 H   0  0  0  0  0  0  0  0  0  0  0  0
   -0.2883    0.9983   -1.2014 H   0  0  0  0  0  0  0  0  0  0  0  0
   -4.2229    2.2700    0.0395 H   0  0  0  0  0  0  0  0  0  0  0  0
   -3.1236    3.4985   -0.5828 H   0  0  0  0  0  0  0  0  0  0  0  0
   -0.3603    1.1381    1.2503 H   0  0  0  0  0  0  0  0  0  0  0  0
    0.7088    2.3880    0.6161 H   0  0  0  0  0  0  0  0  0  0  0  0
   -3.1907    3.6449    1.8475 H   0  0  0  0  0  0  0  0  0  0  0  0
   -2.8154    1.9377    2.0290 H   0  0  0  0  0  0  0  0  0  0  0  0
   -0.9904    4.1084    0.8903 H   0  0  0  0  0  0  0  0  0  0  0  0
   -0.7868    3.2517    2.4158 H   0  0  0  0  0  0  0  0  0  0  0  0
   -2.8095    0.0993    0.7737 H   0  0  0  0  0  0  0  0  0  0  0  0
   -2.9105   -3.0759   -0.8425 H   0  0  0  0  0  0  0  0  0  0  0  0
   -3.9169   -2.1096    0.2387 H   0  0  0  0  0  0  0  0  0  0  0  0
   -1.9462   -1.6099    1.6842 H   0  0  0  0  0  0  0  0  0  0  0  0
   -2.1970   -3.3432    1.5203 H   0  0  0  0  0  0  0  0  0  0  0  0
    0.1147   -1.7820    2.2862 H   0  0  0  0  0  0  0  0  0  0  0  0
    2.3357   -2.4142    2.1903 H   0  0  0  0  0  0  0  0  0  0  0  0
    2.1005   -3.1699    0.6183 H   0  0  0  0  0  0  0  0  0  0  0  0
    2.1306   -1.8302   -1.4609 H   0  0  0  0  0  0  0  0  0  0  0  0
    2.7885   -0.0096    2.3905 H   0  0  0  0  0  0  0  0  0  0  0  0
    3.0127    0.1956   -2.5623 H   0  0  0  0  0  0  0  0  0  0  0  0
    3.6731    2.0106    1.2756 H   0  0  0  0  0  0  0  0  0  0  0  0
  1 22  1  0  0  0  0
  2 12  2  0  0  0  0
  3 15  2  0  0  0  0
  4  6  1  0  0  0  0
  4 12  1  0  0  0  0
  4 34  1  0  0  0  0
  5 15  1  0  0  0  0
  5 16  1  0  0  0  0
  5 39  1  0  0  0  0
  6  7  1  0  0  0  0
  6  8  1  0  0  0  0
  6 23  1  0  0  0  0
  7  9  1  0  0  0  0
  7 24  1  0  0  0  0
  7 25  1  0  0  0  0
  8 10  1  0  0  0  0
  8 26  1  0  0  0  0
  8 27  1  0  0  0  0
  9 11  1  0  0  0  0
  9 28  1  0  0  0  0
  9 29  1  0  0  0  0
 10 11  1  0  0  0  0
 10 30  1  0  0  0  0
 10 31  1  0  0  0  0
 11 32  1  0  0  0  0
 11 33  1  0  0  0  0
 12 13  1  0  0  0  0
 13 14  1  0  0  0  0
 13 35  1  0  0  0  0
 13 36  1  0  0  0  0
 14 15  1  0  0  0  0
 14 37  1  0  0  0  0
 14 38  1  0  0  0  0
 16 17  1  0  0  0  0
 16 40  1  0  0  0  0
 16 41  1  0  0  0  0
 17 18  2  0  0  0  0
 17 19  1  0  0  0  0
 18 20  1  0  0  0  0
 18 42  1  0  0  0  0
 19 21  2  0  0  0  0
 19 43  1  0  0  0  0
 20 22  2  0  0  0  0
 20 44  1  0  0  0  0
 21 22  1  0  0  0  0
 21 45  1  0  0  0  0
M  END
> <PUBCHEM_COMPOUND_CID>
3498135

> <PUBCHEM_CONFORMER_RMSD>
1

> <PUBCHEM_CONFORMER_DIVERSEORDER>
1
52
121
53
107
74
94
16
29
104
140
44
116
161
96
119
82
24
142
92
41
57
120
7
133
34
117
11
27
166
20
5
90
159
87
110
146
51
40
30
59
9
152
164
83
155
105
135
8
145
141
31
10
115
114
66
65
64
73
163
143
153
71
157
106
85
15
126
149
154
3
86
72
2
22
89
99
101
144
39
77
98
131
50
151
58
123
19
42
25
75
165
109
102
134
45
130
137
4
76
97
37
112
48
69
93
148
21
113
138
129
17
68
122
54
63
127
12
60
36
91
125
56
100
62
46
147
139
108
79
156
23
38
88
70
84
160
55
28
150
132
124
162
43
26
158
47
6
111
136
128
95
61
103
49
81
13
78
118
14
80
35
32
18
67
33

> <PUBCHEM_MMFF94_PARTIAL_CHARGES>
23
1 -0.19
12 0.57
13 0.06
14 0.06
15 0.57
16 0.44
17 -0.14
18 -0.15
19 -0.15
2 -0.57
20 -0.15
21 -0.15
22 0.19
3 -0.57
34 0.37
39 0.37
4 -0.73
42 0.15
43 0.15
44 0.15
45 0.15
5 -0.73
6 0.3

> <PUBCHEM_EFFECTIVE_ROTOR_COUNT>
9.2

> <PUBCHEM_PHARMACOPHORE_FEATURES>
6
1 2 acceptor
1 3 acceptor
1 4 donor
1 5 donor
6 17 18 19 20 21 22 rings
6 6 7 8 9 10 11 rings

> <PUBCHEM_HEAVY_ATOM_COUNT>
22

> <PUBCHEM_ATOM_DEF_STEREO_COUNT>
0

> <PUBCHEM_ATOM_UDEF_STEREO_COUNT>
0

> <PUBCHEM_BOND_DEF_STEREO_COUNT>
0

> <PUBCHEM_BOND_UDEF_STEREO_COUNT>
0

> <PUBCHEM_ISOTOPIC_ATOM_COUNT>
0

> <PUBCHEM_COMPONENT_COUNT>
1

> <PUBCHEM_CACTVS_TAUTO_COUNT>
4

> <PUBCHEM_CONFORMER_ID>
0035609700000001

> <PUBCHEM_MMFF94_ENERGY>
27.0311

> <PUBCHEM_FEATURE_SELFOVERLAP>
30.446

> <PUBCHEM_SHAPE_FINGERPRINT>
104564 63 18338524152161670730
10498660 4 18263080075211341111
10759866 29 17532363369844450880
12054548 360 17905609161312391704
12156800 1 16463698432852342321
12539773 59 18198599087204256157
12553582 1 18126282184468404181
12788726 201 18342176695893900585
128993 33 18267034859701496832
13027679 85 18048883197550314191
13122387 1 16969698889307669912
13899415 154 18266181815579591035
14081887 123 18268984465785073176
14123250 116 18410582781308095192
20465049 17 17694249684496235589
20510252 161 18189621720513141294
20715895 44 17608052457362479663
20905425 154 16894838133545985150
21141583 151 18196096762069520248
22749437 52 18188755198113155214
23557571 272 18130772461086149706
23558518 356 18408889516590742306
238 59 17975433316501025176
2637199 183 17839479785947212085
35225 105 17982770460746144841
3524813 1 17610336417353459934
469060 322 16734692976306561809
5048184 11 18336270028903118724
5312544 6 17979355262130840185
6287921 2 17408806515098238739
6438718 38 18059869380132568299

> <PUBCHEM_SHAPE_MULTIPOLES>
423.78
6.33
4.37
1.63
2.31
0.61
0.2
-3.02
1.05
-2.27
-1.09
0.16
-0.07
-1.55

> <PUBCHEM_SHAPE_SELFOVERLAP>
868.872

> <PUBCHEM_SHAPE_VOLUME>
243.6

> <PUBCHEM_COORDINATE_TYPE>
2
5
10

$$$$
