16745624
  -OEChem-01171811563D

 60 63  0     1  0  0  0  0  0999 V2000
   -2.6924    0.8223    1.5499 O   0  0  0  0  0  0  0  0  0  0  0  0
   -0.6434   -0.9194    1.7682 O   0  0  0  0  0  0  0  0  0  0  0  0
   -2.2740    3.2069    0.2982 O   0  0  0  0  0  0  0  0  0  0  0  0
   -2.4075    0.2310   -0.6618 O   0  0  0  0  0  0  0  0  0  0  0  0
   -6.8799   -1.7879   -1.9102 O   0  0  0  0  0  0  0  0  0  0  0  0
   -7.1281   -1.3191    0.3348 O   0  0  0  0  0  0  0  0  0  0  0  0
    3.0682   -0.0721   -0.0768 N   0  0  0  0  0  0  0  0  0  0  0  0
    4.5139    1.3950   -1.4935 C   0  0  0  0  0  0  0  0  0  0  0  0
    4.5295    2.3276   -2.6690 C   0  0  0  0  0  0  0  0  0  0  0  0
    4.6922    0.8509   -2.8804 C   0  0  0  0  0  0  0  0  0  0  0  0
    3.2260    1.1519   -0.7870 C   0  0  0  0  0  0  0  0  0  0  0  0
    4.1215   -1.0633   -0.0302 C   0  0  0  0  0  0  0  0  0  0  0  0
    4.5629   -1.2794    1.4194 C   0  0  0  0  0  0  0  0  0  0  0  0
    3.6233   -2.3652   -0.6613 C   0  0  0  0  0  0  0  0  0  0  0  0
    5.6047   -2.3902    1.5272 C   0  0  0  0  0  0  0  0  0  0  0  0
    4.6649   -3.4758   -0.5503 C   0  0  0  0  0  0  0  0  0  0  0  0
    5.1100   -3.6878    0.8941 C   0  0  0  0  0  0  0  0  0  0  0  0
    2.2241    2.0664   -0.8157 C   0  0  0  0  0  0  0  0  0  0  0  0
    1.8611   -0.3147    0.5917 C   0  0  0  0  0  0  0  0  0  0  0  0
    0.9673    1.8029   -0.1117 C   0  0  0  0  0  0  0  0  0  0  0  0
    0.8253    0.5421    0.6089 C   0  0  0  0  0  0  0  0  0  0  0  0
   -0.4224    0.2144    1.3478 C   0  0  0  0  0  0  0  0  0  0  0  0
   -1.3835    1.3668    1.5818 C   0  0  1  0  0  0  0  0  0  0  0  0
   -0.0280    2.7029   -0.1629 C   0  0  0  0  0  0  0  0  0  0  0  0
   -1.3161    2.4744    0.5420 C   0  0  0  0  0  0  0  0  0  0  0  0
   -1.1151    1.9565    2.9672 C   0  0  0  0  0  0  0  0  0  0  0  0
   -3.0878    0.2783    0.3538 C   0  0  0  0  0  0  0  0  0  0  0  0
   -4.4947   -0.2631    0.4905 C   0  0  0  0  0  0  0  0  0  0  0  0
   -5.0443   -0.8191   -0.8214 C   0  0  0  0  0  0  0  0  0  0  0  0
   -6.4659   -1.3230   -0.6938 C   0  0  0  0  0  0  0  0  0  0  0  0
   -8.2119   -2.3100   -1.9492 C   0  0  0  0  0  0  0  0  0  0  0  0
    5.3819    1.4510   -0.8438 H   0  0  0  0  0  0  0  0  0  0  0  0
    3.6276    2.7660   -3.0763 H   0  0  0  0  0  0  0  0  0  0  0  0
    5.4068    2.9513   -2.8016 H   0  0  0  0  0  0  0  0  0  0  0  0
    5.6742    0.4851   -3.1549 H   0  0  0  0  0  0  0  0  0  0  0  0
    3.8727    0.3142   -3.3432 H   0  0  0  0  0  0  0  0  0  0  0  0
    5.0135   -0.7637   -0.5896 H   0  0  0  0  0  0  0  0  0  0  0  0
    4.9826   -0.3491    1.8225 H   0  0  0  0  0  0  0  0  0  0  0  0
    3.7239   -1.5443    2.0729 H   0  0  0  0  0  0  0  0  0  0  0  0
    3.3841   -2.1982   -1.7191 H   0  0  0  0  0  0  0  0  0  0  0  0
    2.7007   -2.7268   -0.1932 H   0  0  0  0  0  0  0  0  0  0  0  0
    6.5301   -2.0720    1.0313 H   0  0  0  0  0  0  0  0  0  0  0  0
    5.8518   -2.5641    2.5806 H   0  0  0  0  0  0  0  0  0  0  0  0
    4.2538   -4.4094   -0.9509 H   0  0  0  0  0  0  0  0  0  0  0  0
    5.5361   -3.2214   -1.1667 H   0  0  0  0  0  0  0  0  0  0  0  0
    5.9050   -4.4412    0.9282 H   0  0  0  0  0  0  0  0  0  0  0  0
    4.2703   -4.0819    1.4798 H   0  0  0  0  0  0  0  0  0  0  0  0
    2.3223    3.0173   -1.3281 H   0  0  0  0  0  0  0  0  0  0  0  0
    1.8061   -1.2610    1.1160 H   0  0  0  0  0  0  0  0  0  0  0  0
    0.0564    3.6275   -0.7258 H   0  0  0  0  0  0  0  0  0  0  0  0
   -1.8390    2.7453    3.2021 H   0  0  0  0  0  0  0  0  0  0  0  0
   -0.1094    2.3842    3.0408 H   0  0  0  0  0  0  0  0  0  0  0  0
   -1.2189    1.1917    3.7457 H   0  0  0  0  0  0  0  0  0  0  0  0
   -5.1397    0.5507    0.8420 H   0  0  0  0  0  0  0  0  0  0  0  0
   -4.4851   -1.0515    1.2519 H   0  0  0  0  0  0  0  0  0  0  0  0
   -4.4148   -1.6499   -1.1609 H   0  0  0  0  0  0  0  0  0  0  0  0
   -5.0274   -0.0354   -1.5879 H   0  0  0  0  0  0  0  0  0  0  0  0
   -8.3030   -3.1660   -1.2737 H   0  0  0  0  0  0  0  0  0  0  0  0
   -8.9323   -1.5300   -1.6849 H   0  0  0  0  0  0  0  0  0  0  0  0
   -8.4160   -2.6449   -2.9697 H   0  0  0  0  0  0  0  0  0  0  0  0
  1 23  1  0  0  0  0
  1 27  1  0  0  0  0
  2 22  2  0  0  0  0
  3 25  2  0  0  0  0
  4 27  2  0  0  0  0
  5 30  1  0  0  0  0
  5 31  1  0  0  0  0
  6 30  2  0  0  0  0
  7 11  1  0  0  0  0
  7 12  1  0  0  0  0
  7 19  1  0  0  0  0
  8  9  1  0  0  0  0
  8 10  1  0  0  0  0
  8 11  1  0  0  0  0
  8 32  1  0  0  0  0
  9 10  1  0  0  0  0
  9 33  1  0  0  0  0
  9 34  1  0  0  0  0
 10 35  1  0  0  0  0
 10 36  1  0  0  0  0
 11 18  2  0  0  0  0
 12 13  1  0  0  0  0
 12 14  1  0  0  0  0
 12 37  1  0  0  0  0
 13 15  1  0  0  0  0
 13 38  1  0  0  0  0
 13 39  1  0  0  0  0
 14 16  1  0  0  0  0
 14 40  1  0  0  0  0
 14 41  1  0  0  0  0
 15 17  1  0  0  0  0
 15 42  1  0  0  0  0
 15 43  1  0  0  0  0
 16 17  1  0  0  0  0
 16 44  1  0  0  0  0
 16 45  1  0  0  0  0
 17 46  1  0  0  0  0
 17 47  1  0  0  0  0
 18 20  1  0  0  0  0
 18 48  1  0  0  0  0
 19 21  2  0  0  0  0
 19 49  1  0  0  0  0
 20 21  1  0  0  0  0
 20 24  2  0  0  0  0
 21 22  1  0  0  0  0
 22 23  1  0  0  0  0
 23 25  1  0  0  0  0
 23 26  1  0  0  0  0
 24 25  1  0  0  0  0
 24 50  1  0  0  0  0
 26 51  1  0  0  0  0
 26 52  1  0  0  0  0
 26 53  1  0  0  0  0
 27 28  1  0  0  0  0
 28 29  1  0  0  0  0
 28 54  1  0  0  0  0
 28 55  1  0  0  0  0
 29 30  1  0  0  0  0
 29 56  1  0  0  0  0
 29 57  1  0  0  0  0
 31 58  1  0  0  0  0
 31 59  1  0  0  0  0
 31 60  1  0  0  0  0
M  END
> <PUBCHEM_COMPOUND_CID>
16745624

> <PUBCHEM_CONFORMER_RMSD>
1

> <PUBCHEM_CONFORMER_DIVERSEORDER>
2
26
53
1
57
52
34
18
40
24
54
33
55
39
5
4
16
44
41
15
21
51
48
28
43
25
20
49
47
29
56
37
23
35
31
45
22
38
32
11
10
30
50
36
13
9
3
12
46
14
7
8
19
6
17
27
42

> <PUBCHEM_MMFF94_PARTIAL_CHARGES>
32
1 -0.43
10 -0.2
11 0.06
12 0.37
18 -0.15
19 -0.05
2 -0.57
21 0.01
22 0.49
23 0.4
24 -0.14
25 0.49
27 0.66
28 0.06
29 0.06
3 -0.57
30 0.66
31 0.28
32 0.1
33 0.1
34 0.1
35 0.1
36 0.1
4 -0.57
48 0.15
49 0.15
5 -0.43
50 0.15
6 -0.57
7 -0.57
8 -0.06
9 -0.2

> <PUBCHEM_EFFECTIVE_ROTOR_COUNT>
10.2

> <PUBCHEM_PHARMACOPHORE_FEATURES>
8
1 2 acceptor
1 3 acceptor
1 4 acceptor
1 6 acceptor
1 7 cation
6 12 13 14 15 16 17 rings
6 20 21 22 23 24 25 rings
6 7 11 18 19 20 21 rings

> <PUBCHEM_HEAVY_ATOM_COUNT>
31

> <PUBCHEM_ATOM_DEF_STEREO_COUNT>
0

> <PUBCHEM_ATOM_UDEF_STEREO_COUNT>
1

> <PUBCHEM_BOND_DEF_STEREO_COUNT>
0

> <PUBCHEM_BOND_UDEF_STEREO_COUNT>
0

> <PUBCHEM_ISOTOPIC_ATOM_COUNT>
0

> <PUBCHEM_COMPONENT_COUNT>
1

> <PUBCHEM_CACTVS_TAUTO_COUNT>
1

> <PUBCHEM_CONFORMER_ID>
00FF849800000002

> <PUBCHEM_MMFF94_ENERGY>
73.5899

> <PUBCHEM_FEATURE_SELFOVERLAP>
40.622

> <PUBCHEM_SHAPE_FINGERPRINT>
10622 236 18339075982640370103
10693767 8 18338223951776993595
11135926 11 17970371367310339188
11475781 23 15791728637446284325
11607047 403 17914032442700060976
12342043 65 14835586655959366940
12390115 104 9727046786084272104
12661589 4 17418102009595884894
13540713 5 18264788574942960864
13782708 43 17275384322600198399
14347332 77 18411981321797205653
14400156 96 12103839082232631867
15082195 135 17895196644532946733
15183329 4 18341335578510229237
17134984 74 18268710696043274639
17349148 13 18337680689910933290
17492 89 18268993090237710894
19315092 285 18201152175048144608
20028762 73 18342453690946168566
20775438 99 18120922065404802875
21344244 78 14979675568010641403
21585481 104 17894903002725373509
23522609 53 18196683789895297353
23559900 14 17970641692884206952
23569914 2 13841128016724787198
23622692 118 18335983061005725064
25147074 1 18264225624915569896
2838139 119 14562796807775011877
3388396 114 18041578995773693988
34797466 226 16805607023044729903
3633792 109 17676203559358808596
4066623 53 16878214295291794644
4408954 87 17416942050736268782
46194498 28 17749101201454650550
5951187 136 13334747864118192078
59682541 52 18186515531808843959
60123966 16 16877948265202213278
6058803 2 18193579782618089412
70251023 43 18114179679782602144

> <PUBCHEM_SHAPE_MULTIPOLES>
597.77
16.87
3.91
2.36
29.76
1.33
-0.37
17.98
-10.01
-3.74
-0.35
-0.63
-0.73
-5.66

> <PUBCHEM_SHAPE_SELFOVERLAP>
1272.689

> <PUBCHEM_SHAPE_VOLUME>
328.7

> <PUBCHEM_COORDINATE_TYPE>
2
5
10

$$$$
