1370241
  -OEChem-01171811433D

 28 29  0     0  0  0  0  0  0999 V2000
   -1.6127    1.2496    0.1392 S   0  0  0  0  0  0  0  0  0  0  0  0
   -4.4126    2.3874    0.4741 S   0  0  0  0  0  0  0  0  0  0  0  0
   -2.9080   -2.2872   -0.5310 O   0  0  0  0  0  0  0  0  0  0  0  0
    3.0076    0.1416    0.4594 N   0  0  0  0  0  0  0  0  0  0  0  0
   -3.7361   -0.1618   -0.0675 N   0  0  0  0  0  0  0  0  0  0  0  0
    1.8178   -0.4403    0.8115 C   0  0  0  0  0  0  0  0  0  0  0  0
    1.0679   -0.5098   -0.3189 C   0  0  0  0  0  0  0  0  0  0  0  0
    2.9985    0.4313   -0.8801 C   0  0  0  0  0  0  0  0  0  0  0  0
    1.7840    0.0291   -1.3905 C   0  0  0  0  0  0  0  0  0  0  0  0
   -0.2660   -1.0617   -0.3808 C   0  0  0  0  0  0  0  0  0  0  0  0
    1.5399   -0.8632    2.2022 C   0  0  0  0  0  0  0  0  0  0  0  0
    4.1068    0.4093    1.3631 C   0  0  0  0  0  0  0  0  0  0  0  0
    4.1470    1.0668   -1.5587 C   0  0  0  0  0  0  0  0  0  0  0  0
   -1.4265   -0.4278   -0.2084 C   0  0  0  0  0  0  0  0  0  0  0  0
   -2.7456   -1.0993   -0.2951 C   0  0  0  0  0  0  0  0  0  0  0  0
   -3.3619    1.1360    0.1816 C   0  0  0  0  0  0  0  0  0  0  0  0
    1.4710    0.1232   -2.4217 H   0  0  0  0  0  0  0  0  0  0  0  0
   -0.2943   -2.1287   -0.5973 H   0  0  0  0  0  0  0  0  0  0  0  0
    2.3549   -1.4771    2.5996 H   0  0  0  0  0  0  0  0  0  0  0  0
    1.4094    0.0087    2.8515 H   0  0  0  0  0  0  0  0  0  0  0  0
    0.6258   -1.4620    2.2673 H   0  0  0  0  0  0  0  0  0  0  0  0
    4.6935    1.2562    1.0014 H   0  0  0  0  0  0  0  0  0  0  0  0
    3.7165    0.6635    2.3514 H   0  0  0  0  0  0  0  0  0  0  0  0
    4.7270   -0.4889    1.4155 H   0  0  0  0  0  0  0  0  0  0  0  0
    4.2842    2.0962   -1.2125 H   0  0  0  0  0  0  0  0  0  0  0  0
    5.0716    0.5081   -1.3807 H   0  0  0  0  0  0  0  0  0  0  0  0
    3.9886    1.1015   -2.6418 H   0  0  0  0  0  0  0  0  0  0  0  0
   -4.7154   -0.4272   -0.0848 H   0  0  0  0  0  0  0  0  0  0  0  0
  1 14  1  0  0  0  0
  1 16  1  0  0  0  0
  2 16  2  0  0  0  0
  3 15  2  0  0  0  0
  4  6  1  0  0  0  0
  4  8  1  0  0  0  0
  4 12  1  0  0  0  0
  5 15  1  0  0  0  0
  5 16  1  0  0  0  0
  5 28  1  0  0  0  0
  6  7  2  0  0  0  0
  6 11  1  0  0  0  0
  7  9  1  0  0  0  0
  7 10  1  0  0  0  0
  8  9  2  0  0  0  0
  8 13  1  0  0  0  0
  9 17  1  0  0  0  0
 10 14  2  0  0  0  0
 10 18  1  0  0  0  0
 11 19  1  0  0  0  0
 11 20  1  0  0  0  0
 11 21  1  0  0  0  0
 12 22  1  0  0  0  0
 12 23  1  0  0  0  0
 12 24  1  0  0  0  0
 13 25  1  0  0  0  0
 13 26  1  0  0  0  0
 13 27  1  0  0  0  0
 14 15  1  0  0  0  0
M  END
> <PUBCHEM_COMPOUND_CID>
1370241

> <PUBCHEM_CONFORMER_RMSD>
0.6

> <PUBCHEM_CONFORMER_DIVERSEORDER>
1
3
4
2

> <PUBCHEM_MMFF94_PARTIAL_CHARGES>
19
1 -0.24
10 -0.1
11 0.18
12 0.26
13 0.18
14 0.12
15 0.62
16 0.58
17 0.15
18 0.15
2 -0.38
28 0.37
3 -0.57
4 0.05
5 -0.49
6 -0.33
7 -0.05
8 -0.33
9 -0.15

> <PUBCHEM_EFFECTIVE_ROTOR_COUNT>
1.4

> <PUBCHEM_PHARMACOPHORE_FEATURES>
6
1 2 acceptor
1 3 acceptor
1 4 cation
1 5 donor
5 1 5 14 15 16 rings
5 4 6 7 8 9 rings

> <PUBCHEM_HEAVY_ATOM_COUNT>
16

> <PUBCHEM_ATOM_DEF_STEREO_COUNT>
0

> <PUBCHEM_ATOM_UDEF_STEREO_COUNT>
0

> <PUBCHEM_BOND_DEF_STEREO_COUNT>
1

> <PUBCHEM_BOND_UDEF_STEREO_COUNT>
0

> <PUBCHEM_ISOTOPIC_ATOM_COUNT>
0

> <PUBCHEM_COMPONENT_COUNT>
1

> <PUBCHEM_CACTVS_TAUTO_COUNT>
3

> <PUBCHEM_CONFORMER_ID>
0014E88100000001

> <PUBCHEM_MMFF94_ENERGY>
25.6942

> <PUBCHEM_FEATURE_SELFOVERLAP>
30.446

> <PUBCHEM_SHAPE_FINGERPRINT>
10465860 228 18189055304578913602
10498660 4 18130788915195940705
10646746 165 18272647957003552360
11132069 177 18412262818069515165
11471102 20 15267344033105414482
11471102 22 15864342528691606034
11578080 2 17609173013850549205
11640471 11 18187365385451017777
12173636 292 18199185092932797829
12186901 62 18131082544913755223
12236239 1 18040712584451512526
12403814 3 17749390335075630293
12500047 106 18202282476974640263
12654215 9 16773795875135867306
12788726 201 18044942509227804947
13764800 53 18272938193866339449
13965767 371 18045216038145434145
14252887 29 14490197089658243284
15219456 202 17131834295832098190
15375358 24 17561074787530446033
15669948 3 18411133654256553015
15775835 57 18187090541634962116
15806764 133 17417818386897726569
1741750 31 18272091539911451665
18186145 218 17203337718734948646
19026448 4 17561086933850738574
19026448 5 18186517735026839558
19050596 39 17894910719753130793
19422 9 18187362151335596250
200 152 17168128079480277359
201361 129 17967534545357729650
20279233 1 17346596374209531775
204376 136 16226620713833029054
20645477 56 18273221876530196901
20645477 70 15791993602558608042
21503847 285 17822865169156896268
21618674 53 18187378631140571649
21756936 100 17533245139404712268
23048698 100 17603581937035151991
23402539 116 18130779062667076908
23493267 7 18412833477447060667
23557571 272 17989205987965415073
23559900 14 18131078087096320284
25 1 15410609346011603330
3268164 11 18059563707674141813
4028521 119 17703790267614022265
474 4 17386580183526576556
6049 1 17203328969960419923
633830 44 17749683938702101838
7615 1 18114444726277472167
77492 1 18040711489271859750
7808743 9 18412270514619670213
88987 49 18271515442789058035

> <PUBCHEM_SHAPE_MULTIPOLES>
321.14
8.55
1.8
1.48
1.73
0.06
-0.47
4.23
-0.21
2.35
0.08
-1.85
-0.06
-1.36

> <PUBCHEM_SHAPE_SELFOVERLAP>
661.308

> <PUBCHEM_SHAPE_VOLUME>
189.7

> <PUBCHEM_COORDINATE_TYPE>
2
5
10

$$$$
