2833927
  -OEChem-01171811543D

 51 54  0     0  0  0  0  0  0999 V2000
   -0.1555   -4.6761    0.8974 O   0  0  0  0  0  0  0  0  0  0  0  0
   -3.0828   -1.5167    1.4077 O   0  0  0  0  0  0  0  0  0  0  0  0
   -0.8972    2.4757   -1.3800 O   0  0  0  0  0  0  0  0  0  0  0  0
    1.5424   -0.4339   -3.3499 O   0  0  0  0  0  0  0  0  0  0  0  0
    6.3654    0.5796    0.8036 O   0  0  0  0  0  0  0  0  0  0  0  0
    5.4681    2.1536    2.1762 O   0  0  0  0  0  0  0  0  0  0  0  0
   -0.7287   -2.0229    0.1918 N   0  0  0  0  0  0  0  0  0  0  0  0
    0.4640    0.1038   -1.3110 N   0  0  0  0  0  0  0  0  0  0  0  0
   -1.2745   -0.7801    0.0581 C   0  0  0  0  0  0  0  0  0  0  0  0
    0.3302   -2.3143    1.1582 C   0  0  0  0  0  0  0  0  0  0  0  0
   -1.0189   -3.1110   -0.7423 C   0  0  0  0  0  0  0  0  0  0  0  0
   -0.7240    0.2276   -0.6452 C   0  0  0  0  0  0  0  0  0  0  0  0
    0.0246   -3.6329    1.8584 C   0  0  0  0  0  0  0  0  0  0  0  0
   -1.2650   -4.3953    0.0405 C   0  0  0  0  0  0  0  0  0  0  0  0
   -2.5754   -0.6004    0.7686 C   0  0  0  0  0  0  0  0  0  0  0  0
   -3.2468    0.7069    0.6880 C   0  0  0  0  0  0  0  0  0  0  0  0
   -2.6777    1.7484   -0.0383 C   0  0  0  0  0  0  0  0  0  0  0  0
   -1.3964    1.5578   -0.7368 C   0  0  0  0  0  0  0  0  0  0  0  0
    1.7233    0.4195   -0.6412 C   0  0  0  0  0  0  0  0  0  0  0  0
   -4.4671    0.9006    1.3481 C   0  0  0  0  0  0  0  0  0  0  0  0
   -3.3266    2.9879   -0.1074 C   0  0  0  0  0  0  0  0  0  0  0  0
    0.5157   -0.2979   -2.6771 C   0  0  0  0  0  0  0  0  0  0  0  0
   -5.1114    2.1360    1.2777 C   0  0  0  0  0  0  0  0  0  0  0  0
   -4.5418    3.1784    0.5508 C   0  0  0  0  0  0  0  0  0  0  0  0
    1.6991    1.3714    0.3343 C   0  0  0  0  0  0  0  0  0  0  0  0
    2.8364   -0.2609   -1.0365 C   0  0  0  0  0  0  0  0  0  0  0  0
   -0.8149   -0.5382   -3.3600 C   0  0  0  0  0  0  0  0  0  0  0  0
    2.9012    1.6711    0.9749 C   0  0  0  0  0  0  0  0  0  0  0  0
    4.0386    0.0389   -0.3957 C   0  0  0  0  0  0  0  0  0  0  0  0
    4.0711    1.0049    0.6099 C   0  0  0  0  0  0  0  0  0  0  0  0
    5.3248    1.3185    1.2770 C   0  0  0  0  0  0  0  0  0  0  0  0
    1.2828   -2.3959    0.6226 H   0  0  0  0  0  0  0  0  0  0  0  0
    0.4259   -1.5147    1.9018 H   0  0  0  0  0  0  0  0  0  0  0  0
   -1.9038   -2.8929   -1.3499 H   0  0  0  0  0  0  0  0  0  0  0  0
   -0.1620   -3.2372   -1.4144 H   0  0  0  0  0  0  0  0  0  0  0  0
    0.8594   -3.9148    2.5077 H   0  0  0  0  0  0  0  0  0  0  0  0
   -0.8737   -3.5566    2.4829 H   0  0  0  0  0  0  0  0  0  0  0  0
   -2.1794   -4.3300    0.6423 H   0  0  0  0  0  0  0  0  0  0  0  0
   -1.3791   -5.2380   -0.6484 H   0  0  0  0  0  0  0  0  0  0  0  0
   -4.9320    0.1031    1.9217 H   0  0  0  0  0  0  0  0  0  0  0  0
   -2.9025    3.8168   -0.6680 H   0  0  0  0  0  0  0  0  0  0  0  0
   -6.0574    2.2846    1.7900 H   0  0  0  0  0  0  0  0  0  0  0  0
   -5.0436    4.1401    0.4962 H   0  0  0  0  0  0  0  0  0  0  0  0
    0.8160    1.9131    0.6480 H   0  0  0  0  0  0  0  0  0  0  0  0
    2.8528   -1.0885   -1.7335 H   0  0  0  0  0  0  0  0  0  0  0  0
   -0.6369   -0.9062   -4.3756 H   0  0  0  0  0  0  0  0  0  0  0  0
   -1.3728    0.3989   -3.4330 H   0  0  0  0  0  0  0  0  0  0  0  0
   -1.4088   -1.2857   -2.8375 H   0  0  0  0  0  0  0  0  0  0  0  0
    2.9059    2.4272    1.7558 H   0  0  0  0  0  0  0  0  0  0  0  0
    4.9216   -0.5191   -0.6947 H   0  0  0  0  0  0  0  0  0  0  0  0
    7.2057    0.7983    1.2601 H   0  0  0  0  0  0  0  0  0  0  0  0
  1 13  1  0  0  0  0
  1 14  1  0  0  0  0
  2 15  2  0  0  0  0
  3 18  2  0  0  0  0
  4 22  2  0  0  0  0
  5 31  1  0  0  0  0
  5 51  1  0  0  0  0
  6 31  2  0  0  0  0
  7  9  1  0  0  0  0
  7 10  1  0  0  0  0
  7 11  1  0  0  0  0
  8 12  1  0  0  0  0
  8 19  1  0  0  0  0
  8 22  1  0  0  0  0
  9 12  2  0  0  0  0
  9 15  1  0  0  0  0
 10 13  1  0  0  0  0
 10 32  1  0  0  0  0
 10 33  1  0  0  0  0
 11 14  1  0  0  0  0
 11 34  1  0  0  0  0
 11 35  1  0  0  0  0
 12 18  1  0  0  0  0
 13 36  1  0  0  0  0
 13 37  1  0  0  0  0
 14 38  1  0  0  0  0
 14 39  1  0  0  0  0
 15 16  1  0  0  0  0
 16 17  1  0  0  0  0
 16 20  2  0  0  0  0
 17 18  1  0  0  0  0
 17 21  2  0  0  0  0
 19 25  2  0  0  0  0
 19 26  1  0  0  0  0
 20 23  1  0  0  0  0
 20 40  1  0  0  0  0
 21 24  1  0  0  0  0
 21 41  1  0  0  0  0
 22 27  1  0  0  0  0
 23 24  2  0  0  0  0
 23 42  1  0  0  0  0
 24 43  1  0  0  0  0
 25 28  1  0  0  0  0
 25 44  1  0  0  0  0
 26 29  2  0  0  0  0
 26 45  1  0  0  0  0
 27 46  1  0  0  0  0
 27 47  1  0  0  0  0
 27 48  1  0  0  0  0
 28 30  2  0  0  0  0
 28 49  1  0  0  0  0
 29 30  1  0  0  0  0
 29 50  1  0  0  0  0
 30 31  1  0  0  0  0
M  END
> <PUBCHEM_COMPOUND_CID>
2833927

> <PUBCHEM_CONFORMER_RMSD>
0.8

> <PUBCHEM_CONFORMER_DIVERSEORDER>
1
5
4
2
3

> <PUBCHEM_MMFF94_PARTIAL_CHARGES>
40
1 -0.56
10 0.37
11 0.37
12 0.12
13 0.28
14 0.28
15 0.47
16 0.09
17 0.09
18 0.47
19 0.12
2 -0.57
20 -0.15
21 -0.15
22 0.57
23 -0.15
24 -0.15
25 -0.15
26 -0.15
27 0.06
28 -0.15
29 -0.15
3 -0.57
30 0.09
31 0.63
4 -0.57
40 0.15
41 0.15
42 0.15
43 0.15
44 0.15
45 0.15
49 0.15
5 -0.65
50 0.15
51 0.5
6 -0.57
7 -0.84
8 -0.29
9 0.11

> <PUBCHEM_EFFECTIVE_ROTOR_COUNT>
6.2

> <PUBCHEM_PHARMACOPHORE_FEATURES>
12
1 1 acceptor
1 2 acceptor
1 3 acceptor
1 4 acceptor
1 5 acceptor
1 6 acceptor
1 7 cation
3 5 6 31 anion
6 1 7 10 11 13 14 rings
6 16 17 20 21 23 24 rings
6 19 25 26 28 29 30 rings
6 9 12 15 16 17 18 rings

> <PUBCHEM_HEAVY_ATOM_COUNT>
31

> <PUBCHEM_ATOM_DEF_STEREO_COUNT>
0

> <PUBCHEM_ATOM_UDEF_STEREO_COUNT>
0

> <PUBCHEM_BOND_DEF_STEREO_COUNT>
0

> <PUBCHEM_BOND_UDEF_STEREO_COUNT>
0

> <PUBCHEM_ISOTOPIC_ATOM_COUNT>
0

> <PUBCHEM_COMPONENT_COUNT>
1

> <PUBCHEM_CACTVS_TAUTO_COUNT>
1

> <PUBCHEM_CONFORMER_ID>
002B3E0700000001

> <PUBCHEM_MMFF94_ENERGY>
141.1905

> <PUBCHEM_FEATURE_SELFOVERLAP>
60.979

> <PUBCHEM_SHAPE_FINGERPRINT>
10074138 170 18264763431887340907
1100329 8 17903643230839475595
11443803 9 17416374659263448861
11578080 2 16693919778013221041
11582403 64 18059849524356373303
11725454 13 17988644069046724981
12422481 6 17386841712706364808
12633257 1 18334856177551644496
12788726 201 17756729767947624547
12930653 34 18336268955519367499
13004483 165 17764020668037444042
13009979 54 17535475047670102906
131258 38 15730117765103510786
13140716 1 18263362486527787299
14739800 52 17983017739552616785
14863182 85 17897472530912785719
15230672 131 18335423410363147394
15338160 23 18123467452345955800
15420108 30 18337666421887482419
15927050 60 18411981330387939158
17980427 26 18125427627557434342
1813 80 15719683060742882748
18681886 176 17608130586579876484
20554085 129 18264785267611973157
20600515 1 18337123344600293397
21033648 29 18340497698287992648
21756936 100 18342726443265579848
22956985 138 17388265528873310723
23559900 14 17391091243991908381
376196 1 17846214423632851888
5104073 3 17757857537109922625
5265222 85 18118154449041255110
58807428 26 18334017155336514571
59755656 520 18411129226029057244
6371380 46 18340492145628274310
6669772 16 18201442411283618942
9981440 41 16988853786586937122

> <PUBCHEM_SHAPE_MULTIPOLES>
592.79
9.39
4.59
2.36
7.45
5.86
2.16
-10.9
-6.36
-2.71
-2.07
0.94
0.49
0.98

> <PUBCHEM_SHAPE_SELFOVERLAP>
1309.372

> <PUBCHEM_SHAPE_VOLUME>
314.7

> <PUBCHEM_COORDINATE_TYPE>
2
5
10

$$$$
