2110271
  -OEChem-01171811523D

 51 51  0     1  0  0  0  0  0999 V2000
    2.3850   -0.5500    1.9974 O   0  0  0  0  0  0  0  0  0  0  0  0
    2.1991    2.7619    0.6682 O   0  0  0  0  0  0  0  0  0  0  0  0
   -2.7571    2.0921   -0.8737 O   0  0  0  0  0  0  0  0  0  0  0  0
   -5.0182    0.5566   -1.3803 O   0  0  0  0  0  0  0  0  0  0  0  0
    3.4935    0.9245    0.0679 N   0  0  0  0  0  0  0  0  0  0  0  0
    0.7242   -1.3802    0.6040 N   0  0  0  0  0  0  0  0  0  0  0  0
    4.4838    2.8353    0.8804 N   0  0  0  0  0  0  0  0  0  0  0  0
    2.8469   -0.9346   -1.4620 C   0  0  2  0  0  0  0  0  0  0  0  0
    2.4222    0.0566   -0.3516 C   0  0  1  0  0  0  0  0  0  0  0  0
    3.9233   -1.9305   -0.9760 C   0  0  0  0  0  0  0  0  0  0  0  0
    3.3078   -0.1664   -2.7078 C   0  0  0  0  0  0  0  0  0  0  0  0
    1.8713   -0.6519    0.8851 C   0  0  0  0  0  0  0  0  0  0  0  0
    4.2887   -2.9837   -2.0143 C   0  0  0  0  0  0  0  0  0  0  0  0
   -0.0127   -2.1169    1.6054 C   0  0  0  0  0  0  0  0  0  0  0  0
   -1.0990   -1.2753    2.2708 C   0  0  0  0  0  0  0  0  0  0  0  0
   -2.1418   -0.7839    1.2972 C   0  0  0  0  0  0  0  0  0  0  0  0
    3.2936    2.2143    0.5466 C   0  0  0  0  0  0  0  0  0  0  0  0
   -1.9712    0.4407    0.6513 C   0  0  0  0  0  0  0  0  0  0  0  0
   -3.2765   -1.5544    1.0428 C   0  0  0  0  0  0  0  0  0  0  0  0
   -2.9351    0.8946   -0.2491 C   0  0  0  0  0  0  0  0  0  0  0  0
   -4.2404   -1.1001    0.1428 C   0  0  0  0  0  0  0  0  0  0  0  0
   -4.0697    0.1243   -0.5032 C   0  0  0  0  0  0  0  0  0  0  0  0
   -1.5703    2.8176   -0.5583 C   0  0  0  0  0  0  0  0  0  0  0  0
   -6.1474   -0.2906   -1.5836 C   0  0  0  0  0  0  0  0  0  0  0  0
    1.9681   -1.5207   -1.7597 H   0  0  0  0  0  0  0  0  0  0  0  0
    1.6113    0.6909   -0.7352 H   0  0  0  0  0  0  0  0  0  0  0  0
    3.5659   -2.4547   -0.0824 H   0  0  0  0  0  0  0  0  0  0  0  0
    4.8387   -1.4016   -0.6879 H   0  0  0  0  0  0  0  0  0  0  0  0
    4.2683    0.3325   -2.5423 H   0  0  0  0  0  0  0  0  0  0  0  0
    2.5721    0.5951   -2.9888 H   0  0  0  0  0  0  0  0  0  0  0  0
    3.4186   -0.8357   -3.5667 H   0  0  0  0  0  0  0  0  0  0  0  0
    4.4384    0.5558    0.1006 H   0  0  0  0  0  0  0  0  0  0  0  0
    4.8019   -2.5420   -2.8732 H   0  0  0  0  0  0  0  0  0  0  0  0
    4.9647   -3.7240   -1.5738 H   0  0  0  0  0  0  0  0  0  0  0  0
    3.3980   -3.5099   -2.3715 H   0  0  0  0  0  0  0  0  0  0  0  0
    0.3472   -1.3729   -0.3387 H   0  0  0  0  0  0  0  0  0  0  0  0
    0.6878   -2.4797    2.3655 H   0  0  0  0  0  0  0  0  0  0  0  0
   -0.4485   -2.9884    1.1046 H   0  0  0  0  0  0  0  0  0  0  0  0
   -1.5863   -1.8671    3.0560 H   0  0  0  0  0  0  0  0  0  0  0  0
   -0.6482   -0.4156    2.7833 H   0  0  0  0  0  0  0  0  0  0  0  0
   -1.0715    0.9979    0.8900 H   0  0  0  0  0  0  0  0  0  0  0  0
   -3.4185   -2.5109    1.5390 H   0  0  0  0  0  0  0  0  0  0  0  0
   -5.0950   -1.7512   -0.0057 H   0  0  0  0  0  0  0  0  0  0  0  0
    4.4980    3.7819    1.2448 H   0  0  0  0  0  0  0  0  0  0  0  0
    5.3777    2.3684    0.7711 H   0  0  0  0  0  0  0  0  0  0  0  0
   -1.5926    3.7421   -1.1447 H   0  0  0  0  0  0  0  0  0  0  0  0
   -0.6704    2.2715   -0.8618 H   0  0  0  0  0  0  0  0  0  0  0  0
   -1.5444    3.1116    0.4965 H   0  0  0  0  0  0  0  0  0  0  0  0
   -5.8576   -1.2508   -2.0238 H   0  0  0  0  0  0  0  0  0  0  0  0
   -6.7314   -0.4121   -0.6650 H   0  0  0  0  0  0  0  0  0  0  0  0
   -6.7979    0.2082   -2.3098 H   0  0  0  0  0  0  0  0  0  0  0  0
  1 12  2  0  0  0  0
  2 17  2  0  0  0  0
  3 20  1  0  0  0  0
  3 23  1  0  0  0  0
  4 22  1  0  0  0  0
  4 24  1  0  0  0  0
  5  9  1  0  0  0  0
  5 17  1  0  0  0  0
  5 32  1  0  0  0  0
  6 12  1  0  0  0  0
  6 14  1  0  0  0  0
  6 36  1  0  0  0  0
  7 17  1  0  0  0  0
  7 44  1  0  0  0  0
  7 45  1  0  0  0  0
  8  9  1  0  0  0  0
  8 10  1  0  0  0  0
  8 11  1  0  0  0  0
  8 25  1  0  0  0  0
  9 12  1  0  0  0  0
  9 26  1  0  0  0  0
 10 13  1  0  0  0  0
 10 27  1  0  0  0  0
 10 28  1  0  0  0  0
 11 29  1  0  0  0  0
 11 30  1  0  0  0  0
 11 31  1  0  0  0  0
 13 33  1  0  0  0  0
 13 34  1  0  0  0  0
 13 35  1  0  0  0  0
 14 15  1  0  0  0  0
 14 37  1  0  0  0  0
 14 38  1  0  0  0  0
 15 16  1  0  0  0  0
 15 39  1  0  0  0  0
 15 40  1  0  0  0  0
 16 18  2  0  0  0  0
 16 19  1  0  0  0  0
 18 20  1  0  0  0  0
 18 41  1  0  0  0  0
 19 21  2  0  0  0  0
 19 42  1  0  0  0  0
 20 22  2  0  0  0  0
 21 22  1  0  0  0  0
 21 43  1  0  0  0  0
 23 46  1  0  0  0  0
 23 47  1  0  0  0  0
 23 48  1  0  0  0  0
 24 49  1  0  0  0  0
 24 50  1  0  0  0  0
 24 51  1  0  0  0  0
M  END
> <PUBCHEM_COMPOUND_CID>
2110271

> <PUBCHEM_CONFORMER_RMSD>
1

> <PUBCHEM_CONFORMER_DIVERSEORDER>
1
146
119
49
210
79
45
9
199
195
3
20
137
105
66
106
219
89
134
133
23
204
202
50
194
73
115
141
149
189
198
179
41
225
212
224
29
81
59
71
197
171
42
35
151
217
207
121
162
36
216
128
167
160
57
22
181
27
78
112
186
84
94
11
65
97
180
32
34
174
8
30
215
98
124
131
46
176
177
39
13
14
218
183
31
154
4
21
213
220
144
161
155
64
123
17
118
61
102
37
168
80
182
187
206
52
88
201
15
191
69
184
221
83
60
19
12
58
214
70
125
192
188
209
136
75
116
92
2
51
178
130
120
175
33
85
126
91
86
103
62
111
158
44
200
101
170
117
74
10
145
56
100
135
43
72
77
142
203
7
6
205
87
104
114
148
48
93
138
18
55
169
164
113
108
38
99
196
90
127
147
67
173
5
109
82
172
156
26
166
159
40
153
208
139
165
132
190
152
157
150
63
24
122
163
223
129
140
47
68
53
211
16
25
28
54
185
95
96
222
110
143
76
193
107

> <PUBCHEM_MMFF94_PARTIAL_CHARGES>
27
1 -0.57
12 0.57
14 0.3
15 0.14
16 -0.14
17 0.69
18 -0.15
19 -0.15
2 -0.57
20 0.08
21 -0.15
22 0.08
23 0.28
24 0.28
3 -0.36
32 0.37
36 0.37
4 -0.36
41 0.15
42 0.15
43 0.15
44 0.37
45 0.37
5 -0.73
6 -0.73
7 -0.8
9 0.36

> <PUBCHEM_EFFECTIVE_ROTOR_COUNT>
11

> <PUBCHEM_PHARMACOPHORE_FEATURES>
10
1 1 acceptor
1 11 hydrophobe
1 13 hydrophobe
1 2 acceptor
1 3 acceptor
1 4 acceptor
1 5 donor
1 6 donor
1 7 donor
6 16 18 19 20 21 22 rings

> <PUBCHEM_HEAVY_ATOM_COUNT>
24

> <PUBCHEM_ATOM_DEF_STEREO_COUNT>
2

> <PUBCHEM_ATOM_UDEF_STEREO_COUNT>
0

> <PUBCHEM_BOND_DEF_STEREO_COUNT>
0

> <PUBCHEM_BOND_UDEF_STEREO_COUNT>
0

> <PUBCHEM_ISOTOPIC_ATOM_COUNT>
0

> <PUBCHEM_COMPONENT_COUNT>
1

> <PUBCHEM_CACTVS_TAUTO_COUNT>
6

> <PUBCHEM_CONFORMER_ID>
0020333F00000001

> <PUBCHEM_MMFF94_ENERGY>
65.6326

> <PUBCHEM_FEATURE_SELFOVERLAP>
50.802

> <PUBCHEM_SHAPE_FINGERPRINT>
10498660 4 17967820465567608217
10670039 82 17241055283835796878
10764073 3 17897697931276424288
108634 29 18334015020970032840
13402501 40 18263356061183242672
14251757 17 18340773650321304336
14790565 3 18046333142998595237
15475509 8 18272088237657023405
15635459 17 18412828018528004588
1813 80 14836118888469762987
20715895 44 16661745706290954965
20775438 99 18125983083178715103
21864079 5 16371585802410928238
221357 26 18339367357331666191
22182313 1 18189626110391321811
22393880 68 18260261902592215423
23557571 272 18041851742906716947
23559900 14 18187374224425076430
341906 21 17386006233934731562
34797466 226 18342450478969072415
44802255 64 17546750587401677444
46194498 28 18272651225315455006
474 4 16443344226665822011
5262128 65 18130519543315393592
5281201 14 18272939297240385066
9709674 26 18410855460334416405
9981440 41 17530957038342773611

> <PUBCHEM_SHAPE_MULTIPOLES>
455.49
11.11
3.09
2.2
6.44
1.61
0.37
-0.66
6.38
-3.38
-0.11
-0.88
-1.02
2.99

> <PUBCHEM_SHAPE_SELFOVERLAP>
917.481

> <PUBCHEM_SHAPE_VOLUME>
266.9

> <PUBCHEM_COORDINATE_TYPE>
2
5
10

$$$$
