2401195
  -OEChem-01171811463D

 31 32  0     0  0  0  0  0  0999 V2000
   -4.2238   -1.0879   -0.0012 S   0  0  0  0  0  0  0  0  0  0  0  0
   -0.3578   -0.4428    0.0012 O   0  0  0  0  0  0  0  0  0  0  0  0
    1.7904    1.0342    0.0006 O   0  0  0  0  0  0  0  0  0  0  0  0
   -1.5271   -2.4157    0.0001 O   0  0  0  0  0  0  0  0  0  0  0  0
   -6.9864    1.6121    0.0008 O   0  5  0  0  0  0  0  0  0  0  0  0
   -7.0707   -0.5815   -0.0072 O   0  0  0  0  0  0  0  0  0  0  0  0
    3.2543   -0.8126   -0.0001 N   0  0  0  0  0  0  0  0  0  0  0  0
   -6.4034    0.4912   -0.0024 N   0  3  0  0  0  0  0  0  0  0  0  0
    4.5216   -0.2288    0.0002 C   0  0  0  0  0  0  0  0  0  0  0  0
   -2.7046   -0.3367    0.0046 C   0  0  0  0  0  0  0  0  0  0  0  0
    0.8593   -1.1599   -0.0022 C   0  0  0  0  0  0  0  0  0  0  0  0
    2.0072   -0.1739   -0.0027 C   0  0  0  0  0  0  0  0  0  0  0  0
   -2.7514    1.0172    0.0067 C   0  0  0  0  0  0  0  0  0  0  0  0
    5.6606   -1.0340    0.0030 C   0  0  0  0  0  0  0  0  0  0  0  0
    4.6494    1.1601   -0.0033 C   0  0  0  0  0  0  0  0  0  0  0  0
   -5.0020    0.4374   -0.0010 C   0  0  0  0  0  0  0  0  0  0  0  0
   -4.0996    1.4782    0.0036 C   0  0  0  0  0  0  0  0  0  0  0  0
   -1.5147   -1.1890    0.0021 C   0  0  0  0  0  0  0  0  0  0  0  0
    6.9275   -0.4502    0.0023 C   0  0  0  0  0  0  0  0  0  0  0  0
    5.9161    1.7439   -0.0041 C   0  0  0  0  0  0  0  0  0  0  0  0
    7.0552    0.9388   -0.0012 C   0  0  0  0  0  0  0  0  0  0  0  0
    0.9292   -1.7809   -0.9022 H   0  0  0  0  0  0  0  0  0  0  0  0
    0.9321   -1.7840    0.8955 H   0  0  0  0  0  0  0  0  0  0  0  0
    3.2447   -1.8304    0.0008 H   0  0  0  0  0  0  0  0  0  0  0  0
   -1.8902    1.6731    0.0097 H   0  0  0  0  0  0  0  0  0  0  0  0
    5.5759   -2.1178    0.0055 H   0  0  0  0  0  0  0  0  0  0  0  0
    3.8158    1.8484   -0.0062 H   0  0  0  0  0  0  0  0  0  0  0  0
   -4.3797    2.5244    0.0050 H   0  0  0  0  0  0  0  0  0  0  0  0
    7.8144   -1.0771    0.0045 H   0  0  0  0  0  0  0  0  0  0  0  0
    6.0171    2.8255   -0.0070 H   0  0  0  0  0  0  0  0  0  0  0  0
    8.0415    1.3934   -0.0018 H   0  0  0  0  0  0  0  0  0  0  0  0
  1 10  1  0  0  0  0
  1 16  1  0  0  0  0
  2 11  1  0  0  0  0
  2 18  1  0  0  0  0
  3 12  2  0  0  0  0
  4 18  2  0  0  0  0
  5  8  1  0  0  0  0
  6  8  2  0  0  0  0
  7  9  1  0  0  0  0
  7 12  1  0  0  0  0
  7 24  1  0  0  0  0
  8 16  1  0  0  0  0
  9 14  2  0  0  0  0
  9 15  1  0  0  0  0
 10 13  2  0  0  0  0
 10 18  1  0  0  0  0
 11 12  1  0  0  0  0
 11 22  1  0  0  0  0
 11 23  1  0  0  0  0
 13 17  1  0  0  0  0
 13 25  1  0  0  0  0
 14 19  1  0  0  0  0
 14 26  1  0  0  0  0
 15 20  2  0  0  0  0
 15 27  1  0  0  0  0
 16 17  2  0  0  0  0
 17 28  1  0  0  0  0
 19 21  2  0  0  0  0
 19 29  1  0  0  0  0
 20 21  1  0  0  0  0
 20 30  1  0  0  0  0
 21 31  1  0  0  0  0
M  CHG  2   5  -1   8   1
M  END
> <PUBCHEM_COMPOUND_CID>
2401195

> <PUBCHEM_CONFORMER_RMSD>
0.8

> <PUBCHEM_CONFORMER_DIVERSEORDER>
1
135
83
41
33
132
54
78
126
92
37
143
103
51
124
59
127
121
140
29
20
118
87
12
57
104
115
63
25
138
4
133
3
81
24
74
27
112
116
39
72
84
123
88
2
109
85
91
93
65
26
80
69
111
97
28
76
105
71
79
122
139
117
46
134
110
58
64
129
108
106
95
42
114
86
82
67
44
113
18
47
99
142
136
52
119
30
60
36
11
15
22
128
100
48
10
61
50
16
9
55
107
137
40
94
19
23
13
90
66
120
43
89
17
125
62
32
6
38
130
56
75
70
49
96
77
5
21
7
141
14
98
31
53
8
45
73
131
102
35
101
34
68

> <PUBCHEM_MMFF94_PARTIAL_CHARGES>
29
1 -0.08
10 -0.05
11 0.34
12 0.57
13 -0.15
14 -0.15
15 -0.15
16 0.12
17 -0.15
18 0.81
19 -0.15
2 -0.43
20 -0.15
21 -0.15
24 0.37
25 0.15
26 0.15
27 0.15
28 0.15
29 0.15
3 -0.57
30 0.15
31 0.15
4 -0.57
5 -0.52
6 -0.52
7 -0.55
8 0.96
9 0.12

> <PUBCHEM_EFFECTIVE_ROTOR_COUNT>
7

> <PUBCHEM_PHARMACOPHORE_FEATURES>
8
1 3 acceptor
1 4 acceptor
1 5 acceptor
1 5 anion
1 6 acceptor
1 7 donor
5 1 10 13 16 17 rings
6 9 14 15 19 20 21 rings

> <PUBCHEM_HEAVY_ATOM_COUNT>
21

> <PUBCHEM_ATOM_DEF_STEREO_COUNT>
0

> <PUBCHEM_ATOM_UDEF_STEREO_COUNT>
0

> <PUBCHEM_BOND_DEF_STEREO_COUNT>
0

> <PUBCHEM_BOND_UDEF_STEREO_COUNT>
0

> <PUBCHEM_ISOTOPIC_ATOM_COUNT>
0

> <PUBCHEM_COMPONENT_COUNT>
1

> <PUBCHEM_CACTVS_TAUTO_COUNT>
2

> <PUBCHEM_CONFORMER_ID>
0024A3AB00000001

> <PUBCHEM_MMFF94_ENERGY>
47.5479

> <PUBCHEM_FEATURE_SELFOVERLAP>
40.679

> <PUBCHEM_SHAPE_FINGERPRINT>
10 15 17968096451861204712
10066227 49 17059785412278433198
10354089 29 17385723595612623372
10411042 1 17906172108000669483
106641 1 17603591850505350089
10730089 173 18342457041309711841
11315181 36 17703793643341863363
11719270 70 17917991647096997486
12236239 1 18334011700569994194
125118 31 18187649085110563804
13167372 99 18411419480225045024
13533116 47 17560520599822329734
13668630 136 12247679378714651596
13968360 50 16486977254507797374
14123256 10 10375870775599916356
1420 363 8502655913539030354
14251764 18 18408602573803853814
14251764 46 16415480450276071414
14933364 13 18410576188712390552
15048467 5 18410011048615772628
15183329 4 18272092686636214368
18335252 98 18272375291485287999
20157964 124 18273217478673836982
20281389 69 18187362117112936580
21033648 29 18129368458252856698
21150785 3 13901906735376302504
21315763 28 18410855443454694834
21315764 268 18334289860317684580
220451 1 16732699463389841602
22224240 67 15357698603971958984
23198884 109 16200435762755253011
23402539 116 18272083916186479887
23536379 177 18410292510749838090
23559900 14 18200867491166620953
23622692 88 16081091488994585511
29717793 49 17703796912429127998
3004659 81 18409731747441120546
34797466 226 17489595584407353948
3545911 37 18411136935104885450
4073 2 18041002899188739898
4214541 1 18410575110939382306
5283156 175 10519990369710948211
59682541 35 18261684744507531355
59755656 520 18040992960339186339

> <PUBCHEM_SHAPE_MULTIPOLES>
396.71
21.59
1.74
0.59
1.66
0.05
0
-6.54
0.02
-0.32
0
0.06
0
-0.01

> <PUBCHEM_SHAPE_SELFOVERLAP>
832.787

> <PUBCHEM_SHAPE_VOLUME>
223

> <PUBCHEM_COORDINATE_TYPE>
2
5
10

$$$$
