5733460
  -OEChem-01171811583D

 60 62  0     0  0  0  0  0  0999 V2000
    1.5308   -1.7169    0.3544 O   0  0  0  0  0  0  0  0  0  0  0  0
   -3.4175   -1.4884    1.8097 O   0  0  0  0  0  0  0  0  0  0  0  0
   -2.6528    1.0671    0.6319 O   0  0  0  0  0  0  0  0  0  0  0  0
    3.0641   -1.1876   -2.9698 O   0  5  0  0  0  0  0  0  0  0  0  0
    1.8353    0.2679   -1.8787 O   0  0  0  0  0  0  0  0  0  0  0  0
   -6.9573   -0.2421   -0.8583 N   0  0  0  0  0  0  0  0  0  0  0  0
   -3.4943   -1.5659   -0.5036 N   0  0  0  0  0  0  0  0  0  0  0  0
   -0.7405   -0.2530    0.5418 N   0  0  0  0  0  0  0  0  0  0  0  0
    2.8694   -0.4304   -1.9911 N   0  3  0  0  0  0  0  0  0  0  0  0
   -5.5084   -0.1891   -0.7121 C   0  0  0  0  0  0  0  0  0  0  0  0
   -4.9342   -1.5953   -0.6208 C   0  0  0  0  0  0  0  0  0  0  0  0
   -1.3533   -1.4738    0.6140 C   0  0  0  0  0  0  0  0  0  0  0  0
    2.7987   -2.2019    0.2910 C   0  0  0  0  0  0  0  0  0  0  0  0
   -2.8490   -1.5142    0.7202 C   0  0  0  0  0  0  0  0  0  0  0  0
    0.7109   -2.7905    0.5011 C   0  0  0  0  0  0  0  0  0  0  0  0
    3.8286   -1.2142    0.1343 C   0  0  0  0  0  0  0  0  0  0  0  0
   -0.7081   -2.6545    0.6030 C   0  0  0  0  0  0  0  0  0  0  0  0
   -7.4627    1.0001   -1.4461 C   0  0  0  0  0  0  0  0  0  0  0  0
   -7.5981   -0.4883    0.4350 C   0  0  0  0  0  0  0  0  0  0  0  0
    2.7972   -3.5733    0.3953 C   0  0  0  0  0  0  0  0  0  0  0  0
    1.4414   -3.9556    0.5319 C   0  0  0  0  0  0  0  0  0  0  0  0
    3.8588   -0.3612   -0.9691 C   0  0  0  0  0  0  0  0  0  0  0  0
   -0.5927    2.1722    0.4918 C   0  0  0  0  0  0  0  0  0  0  0  0
   -1.4324    0.9478    0.5553 C   0  0  0  0  0  0  0  0  0  0  0  0
    4.8140   -1.1185    1.1170 C   0  0  0  0  0  0  0  0  0  0  0  0
    4.8744    0.5874   -1.0895 C   0  0  0  0  0  0  0  0  0  0  0  0
   -1.1128    3.3474   -0.0507 C   0  0  0  0  0  0  0  0  0  0  0  0
    0.7151    2.1467    0.9760 C   0  0  0  0  0  0  0  0  0  0  0  0
    0.9827    4.4716    0.3751 C   0  0  0  0  0  0  0  0  0  0  0  0
    5.8296   -0.1699    0.9962 C   0  0  0  0  0  0  0  0  0  0  0  0
    5.8598    0.6830   -0.1070 C   0  0  0  0  0  0  0  0  0  0  0  0
   -0.3252    4.4970   -0.1090 C   0  0  0  0  0  0  0  0  0  0  0  0
    1.5030    3.2964    0.9177 C   0  0  0  0  0  0  0  0  0  0  0  0
    1.8257    5.7000    0.3133 C   0  0  0  0  0  0  0  0  0  0  0  0
   -5.0548    0.2894   -1.5911 H   0  0  0  0  0  0  0  0  0  0  0  0
   -5.2118    0.4204    0.1509 H   0  0  0  0  0  0  0  0  0  0  0  0
   -5.1675   -2.1672   -1.5260 H   0  0  0  0  0  0  0  0  0  0  0  0
   -5.3328   -2.1465    0.2365 H   0  0  0  0  0  0  0  0  0  0  0  0
   -2.9458   -1.5711   -1.3589 H   0  0  0  0  0  0  0  0  0  0  0  0
   -1.2849   -3.5745    0.6740 H   0  0  0  0  0  0  0  0  0  0  0  0
   -8.5494    0.9500   -1.5777 H   0  0  0  0  0  0  0  0  0  0  0  0
   -7.2293    1.8741   -0.8272 H   0  0  0  0  0  0  0  0  0  0  0  0
   -7.0360    1.1574   -2.4431 H   0  0  0  0  0  0  0  0  0  0  0  0
   -7.3666    0.2929    1.1685 H   0  0  0  0  0  0  0  0  0  0  0  0
   -8.6873   -0.5283    0.3169 H   0  0  0  0  0  0  0  0  0  0  0  0
   -7.3065   -1.4552    0.8558 H   0  0  0  0  0  0  0  0  0  0  0  0
    3.6618   -4.2218    0.3754 H   0  0  0  0  0  0  0  0  0  0  0  0
    1.0544   -4.9595    0.6387 H   0  0  0  0  0  0  0  0  0  0  0  0
    0.2684   -0.2531    0.4375 H   0  0  0  0  0  0  0  0  0  0  0  0
    4.8073   -1.7722    1.9863 H   0  0  0  0  0  0  0  0  0  0  0  0
    4.9114    1.2600   -1.9431 H   0  0  0  0  0  0  0  0  0  0  0  0
   -2.1281    3.3855   -0.4366 H   0  0  0  0  0  0  0  0  0  0  0  0
    1.1500    1.2647    1.4365 H   0  0  0  0  0  0  0  0  0  0  0  0
    6.5965   -0.0946    1.7616 H   0  0  0  0  0  0  0  0  0  0  0  0
    6.6502    1.4219   -0.2005 H   0  0  0  0  0  0  0  0  0  0  0  0
   -0.7421    5.4067   -0.5332 H   0  0  0  0  0  0  0  0  0  0  0  0
    2.5180    3.2665    1.3052 H   0  0  0  0  0  0  0  0  0  0  0  0
    1.5424    6.3322   -0.5352 H   0  0  0  0  0  0  0  0  0  0  0  0
    2.8835    5.4465    0.1842 H   0  0  0  0  0  0  0  0  0  0  0  0
    1.7134    6.2796    1.2350 H   0  0  0  0  0  0  0  0  0  0  0  0
  1 13  1  0  0  0  0
  1 15  1  0  0  0  0
  2 14  2  0  0  0  0
  3 24  2  0  0  0  0
  4  9  1  0  0  0  0
  5  9  2  0  0  0  0
  6 10  1  0  0  0  0
  6 18  1  0  0  0  0
  6 19  1  0  0  0  0
  7 11  1  0  0  0  0
  7 14  1  0  0  0  0
  7 39  1  0  0  0  0
  8 12  1  0  0  0  0
  8 24  1  0  0  0  0
  8 49  1  0  0  0  0
  9 22  1  0  0  0  0
 10 11  1  0  0  0  0
 10 35  1  0  0  0  0
 10 36  1  0  0  0  0
 11 37  1  0  0  0  0
 11 38  1  0  0  0  0
 12 14  1  0  0  0  0
 12 17  2  0  0  0  0
 13 16  1  0  0  0  0
 13 20  2  0  0  0  0
 15 17  1  0  0  0  0
 15 21  2  0  0  0  0
 16 22  1  0  0  0  0
 16 25  2  0  0  0  0
 17 40  1  0  0  0  0
 18 41  1  0  0  0  0
 18 42  1  0  0  0  0
 18 43  1  0  0  0  0
 19 44  1  0  0  0  0
 19 45  1  0  0  0  0
 19 46  1  0  0  0  0
 20 21  1  0  0  0  0
 20 47  1  0  0  0  0
 21 48  1  0  0  0  0
 22 26  2  0  0  0  0
 23 24  1  0  0  0  0
 23 27  2  0  0  0  0
 23 28  1  0  0  0  0
 25 30  1  0  0  0  0
 25 50  1  0  0  0  0
 26 31  1  0  0  0  0
 26 51  1  0  0  0  0
 27 32  1  0  0  0  0
 27 52  1  0  0  0  0
 28 33  2  0  0  0  0
 28 53  1  0  0  0  0
 29 32  2  0  0  0  0
 29 33  1  0  0  0  0
 29 34  1  0  0  0  0
 30 31  2  0  0  0  0
 30 54  1  0  0  0  0
 31 55  1  0  0  0  0
 32 56  1  0  0  0  0
 33 57  1  0  0  0  0
 34 58  1  0  0  0  0
 34 59  1  0  0  0  0
 34 60  1  0  0  0  0
M  CHG  2   4  -1   9   1
M  END
> <PUBCHEM_COMPOUND_CID>
5733460

> <PUBCHEM_CONFORMER_RMSD>
1

> <PUBCHEM_CONFORMER_DIVERSEORDER>
1
130
132
72
116
181
147
126
114
185
184
84
91
174
183
159
136
100
75
86
166
150
161
149
163
158
53
109
81
12
160
118
168
157
133
170
128
80
93
153
165
71
64
104
66
105
121
146
138
122
179
123
125
52
156
175
139
110
33
38
134
137
142
145
172
45
111
127
60
141
176
65
39
103
187
143
151
82
162
178
20
35
62
32
94
101
112
131
43
171
155
30
106
96
18
92
90
55
164
14
74
102
129
144
21
140
169
19
41
48
10
113
70
182
87
31
98
154
63
61
167
51
152
54
76
34
13
29
50
186
95
24
25
115
89
173
28
124
177
47
26
59
57
69
4
36
2
77
120
58
85
108
46
40
23
148
180
117
119
99
79
6
107
8
49
7
78
44
27
15
188
73
135
5
83
68
17
9
37
88
56
42
97
3
11
67
22
16

> <PUBCHEM_MMFF94_PARTIAL_CHARGES>
47
1 -0.28
10 0.27
11 0.3
12 0.12
13 0.09
14 0.62
15 0.09
16 0.05
17 -0.11
18 0.27
19 0.27
2 -0.57
20 -0.15
21 -0.15
22 0.13
23 0.09
24 0.54
25 -0.15
26 -0.15
27 -0.15
28 -0.15
29 -0.14
3 -0.57
30 -0.15
31 -0.15
32 -0.15
33 -0.15
34 0.14
39 0.37
4 -0.52
40 0.15
47 0.15
48 0.15
49 0.37
5 -0.52
50 0.15
51 0.15
52 0.15
53 0.15
54 0.15
55 0.15
56 0.15
57 0.15
6 -0.81
7 -0.73
8 -0.54
9 0.91

> <PUBCHEM_EFFECTIVE_ROTOR_COUNT>
11

> <PUBCHEM_PHARMACOPHORE_FEATURES>
12
1 1 acceptor
1 2 acceptor
1 3 acceptor
1 4 acceptor
1 4 anion
1 5 acceptor
1 6 cation
1 7 donor
1 8 donor
5 1 13 15 20 21 rings
6 16 22 25 26 30 31 rings
6 23 27 28 29 32 33 rings

> <PUBCHEM_HEAVY_ATOM_COUNT>
34

> <PUBCHEM_ATOM_DEF_STEREO_COUNT>
0

> <PUBCHEM_ATOM_UDEF_STEREO_COUNT>
0

> <PUBCHEM_BOND_DEF_STEREO_COUNT>
1

> <PUBCHEM_BOND_UDEF_STEREO_COUNT>
0

> <PUBCHEM_ISOTOPIC_ATOM_COUNT>
0

> <PUBCHEM_COMPONENT_COUNT>
1

> <PUBCHEM_CACTVS_TAUTO_COUNT>
4

> <PUBCHEM_CONFORMER_ID>
00577C5400000001

> <PUBCHEM_MMFF94_ENERGY>
94.4175

> <PUBCHEM_FEATURE_SELFOVERLAP>
60.981

> <PUBCHEM_SHAPE_FINGERPRINT>
10006869 2 18340479063437342112
10670039 82 18336842909733187950
10675989 125 18334297582262518788
10816530 90 18188755181587654089
1100329 8 18122350339862611786
11621639 179 18043792206113177261
12156800 1 16229096740841365580
12788726 201 18336562568337511068
14394314 77 18267308638498447977
14725015 67 18341038671663699064
14849402 71 18410298008893559113
15420108 30 17626126148123037993
15439362 3 18050844721557019408
15664445 248 18343308080088741686
15775530 1 17536324974711772035
15927050 60 17619912094411118894
19319366 153 18186794747823687259
20642791 13 18131079203308477216
20715895 44 17894910715574591327
20764821 26 18409734001745517896
2132832 1 17899399905724003114
23559900 14 18339071713838302825
24771293 8 18202281415859535096
24771750 20 18046073915371735853
3298306 158 17620763120732865356
3534868 343 18119249459111112327
469060 322 18267048140083229522
5265222 85 16966334963722470492
532947 4 18123468538439392593
6004065 56 18340482378392290051
9961470 85 17910102852915181736

> <PUBCHEM_SHAPE_MULTIPOLES>
650.43
14.17
6.06
1.47
23.35
8.13
0.9
-4.14
3.7
-3.64
-1.56
-0.66
-0.33
0.45

> <PUBCHEM_SHAPE_SELFOVERLAP>
1394.795

> <PUBCHEM_SHAPE_VOLUME>
360

> <PUBCHEM_COORDINATE_TYPE>
2
5
10

$$$$
