2918507
  -OEChem-01171812143D

 60 64  0     0  0  0  0  0  0999 V2000
   -0.9275   -1.1055    0.2440 O   0  0  0  0  0  0  0  0  0  0  0  0
    1.6952    0.1745    0.5522 O   0  0  0  0  0  0  0  0  0  0  0  0
    1.8276    5.3613    1.0987 O   0  0  0  0  0  0  0  0  0  0  0  0
   -0.8392    2.7882    2.8032 O   0  5  0  0  0  0  0  0  0  0  0  0
    0.3971    4.5954    2.9600 O   0  0  0  0  0  0  0  0  0  0  0  0
   -3.1485   -0.6136   -0.3839 N   0  0  0  0  0  0  0  0  0  0  0  0
    2.5186   -1.6376   -0.7159 N   0  0  0  0  0  0  0  0  0  0  0  0
   -3.6539    0.2824   -1.2920 N   0  0  0  0  0  0  0  0  0  0  0  0
    2.1989   -2.0791   -1.9751 N   0  0  0  0  0  0  0  0  0  0  0  0
   -0.0198    3.6031    2.3171 N   0  3  0  0  0  0  0  0  0  0  0  0
   -0.0416    0.8952   -1.8030 C   0  0  0  0  0  0  0  0  0  0  0  0
   -1.4316    0.5254   -1.4580 C   0  0  0  0  0  0  0  0  0  0  0  0
    0.9148   -0.2645   -1.6861 C   0  0  0  0  0  0  0  0  0  0  0  0
    0.4590    2.1002   -1.0131 C   0  0  0  0  0  0  0  0  0  0  0  0
   -2.6232    0.9221   -1.9323 C   0  0  0  0  0  0  0  0  0  0  0  0
    1.2723   -1.2387   -2.5378 C   0  0  0  0  0  0  0  0  0  0  0  0
   -1.7580   -0.5071   -0.4201 C   0  0  0  0  0  0  0  0  0  0  0  0
    1.7400   -0.5092   -0.4575 C   0  0  0  0  0  0  0  0  0  0  0  0
   -0.0055    2.2927    0.2702 C   0  0  0  0  0  0  0  0  0  0  0  0
    1.3595    2.9561   -1.6095 C   0  0  0  0  0  0  0  0  0  0  0  0
   -2.9112    1.8928   -3.0214 C   0  0  0  0  0  0  0  0  0  0  0  0
    0.8169   -1.4612   -3.9359 C   0  0  0  0  0  0  0  0  0  0  0  0
   -3.8817   -1.4644    0.4185 C   0  0  0  0  0  0  0  0  0  0  0  0
    3.4415   -2.2059    0.1388 C   0  0  0  0  0  0  0  0  0  0  0  0
    0.4531    3.3947    0.9921 C   0  0  0  0  0  0  0  0  0  0  0  0
    1.8181    4.0581   -0.8876 C   0  0  0  0  0  0  0  0  0  0  0  0
    1.3649    4.2773    0.4133 C   0  0  0  0  0  0  0  0  0  0  0  0
   -3.2373   -2.3354    1.3089 C   0  0  0  0  0  0  0  0  0  0  0  0
    3.6741   -1.6521    1.4061 C   0  0  0  0  0  0  0  0  0  0  0  0
   -5.2826   -1.4723    0.3559 C   0  0  0  0  0  0  0  0  0  0  0  0
    4.1620   -3.3457   -0.2463 C   0  0  0  0  0  0  0  0  0  0  0  0
   -3.9779   -3.1956    2.1194 C   0  0  0  0  0  0  0  0  0  0  0  0
    4.6072   -2.2259    2.2697 C   0  0  0  0  0  0  0  0  0  0  0  0
   -6.0233   -2.3326    1.1665 C   0  0  0  0  0  0  0  0  0  0  0  0
    5.0950   -3.9195    0.6173 C   0  0  0  0  0  0  0  0  0  0  0  0
   -5.3710   -3.1942    2.0483 C   0  0  0  0  0  0  0  0  0  0  0  0
    5.3177   -3.3596    1.8753 C   0  0  0  0  0  0  0  0  0  0  0  0
   -0.0465    1.1969   -2.8602 H   0  0  0  0  0  0  0  0  0  0  0  0
   -4.5530    0.1569   -1.7368 H   0  0  0  0  0  0  0  0  0  0  0  0
    2.8437   -2.6093   -2.5453 H   0  0  0  0  0  0  0  0  0  0  0  0
   -0.7045    1.6059    0.7315 H   0  0  0  0  0  0  0  0  0  0  0  0
    1.7189    2.7920   -2.6207 H   0  0  0  0  0  0  0  0  0  0  0  0
   -3.4367    1.3983   -3.8446 H   0  0  0  0  0  0  0  0  0  0  0  0
   -1.9997    2.3416   -3.4269 H   0  0  0  0  0  0  0  0  0  0  0  0
   -3.5427    2.7058   -2.6486 H   0  0  0  0  0  0  0  0  0  0  0  0
    0.3660   -2.4539   -4.0356 H   0  0  0  0  0  0  0  0  0  0  0  0
    1.6624   -1.3953   -4.6283 H   0  0  0  0  0  0  0  0  0  0  0  0
    0.0701   -0.7250   -4.2476 H   0  0  0  0  0  0  0  0  0  0  0  0
    2.5287    4.7415   -1.3446 H   0  0  0  0  0  0  0  0  0  0  0  0
   -2.1653   -2.4043    1.4275 H   0  0  0  0  0  0  0  0  0  0  0  0
    3.1717   -0.7762    1.7914 H   0  0  0  0  0  0  0  0  0  0  0  0
   -5.8279   -0.8136   -0.3143 H   0  0  0  0  0  0  0  0  0  0  0  0
    4.0146   -3.8140   -1.2155 H   0  0  0  0  0  0  0  0  0  0  0  0
   -3.4714   -3.8676    2.8063 H   0  0  0  0  0  0  0  0  0  0  0  0
    4.7819   -1.7908    3.2495 H   0  0  0  0  0  0  0  0  0  0  0  0
   -7.1080   -2.3311    1.1121 H   0  0  0  0  0  0  0  0  0  0  0  0
    5.6478   -4.8028    0.3112 H   0  0  0  0  0  0  0  0  0  0  0  0
   -5.9477   -3.8639    2.6795 H   0  0  0  0  0  0  0  0  0  0  0  0
    6.0441   -3.8065    2.5478 H   0  0  0  0  0  0  0  0  0  0  0  0
    1.2058    5.6150    1.7975 H   0  0  0  0  0  0  0  0  0  0  0  0
  1 17  2  0  0  0  0
  2 18  2  0  0  0  0
  3 27  1  0  0  0  0
  3 60  1  0  0  0  0
  4 10  1  0  0  0  0
  5 10  2  0  0  0  0
  6  8  1  0  0  0  0
  6 17  1  0  0  0  0
  6 23  1  0  0  0  0
  7  9  1  0  0  0  0
  7 18  1  0  0  0  0
  7 24  1  0  0  0  0
  8 15  1  0  0  0  0
  8 39  1  0  0  0  0
  9 16  1  0  0  0  0
  9 40  1  0  0  0  0
 10 25  1  0  0  0  0
 11 12  1  0  0  0  0
 11 13  1  0  0  0  0
 11 14  1  0  0  0  0
 11 38  1  0  0  0  0
 12 15  2  0  0  0  0
 12 17  1  0  0  0  0
 13 16  2  0  0  0  0
 13 18  1  0  0  0  0
 14 19  2  0  0  0  0
 14 20  1  0  0  0  0
 15 21  1  0  0  0  0
 16 22  1  0  0  0  0
 19 25  1  0  0  0  0
 19 41  1  0  0  0  0
 20 26  2  0  0  0  0
 20 42  1  0  0  0  0
 21 43  1  0  0  0  0
 21 44  1  0  0  0  0
 21 45  1  0  0  0  0
 22 46  1  0  0  0  0
 22 47  1  0  0  0  0
 22 48  1  0  0  0  0
 23 28  2  0  0  0  0
 23 30  1  0  0  0  0
 24 29  2  0  0  0  0
 24 31  1  0  0  0  0
 25 27  2  0  0  0  0
 26 27  1  0  0  0  0
 26 49  1  0  0  0  0
 28 32  1  0  0  0  0
 28 50  1  0  0  0  0
 29 33  1  0  0  0  0
 29 51  1  0  0  0  0
 30 34  2  0  0  0  0
 30 52  1  0  0  0  0
 31 35  2  0  0  0  0
 31 53  1  0  0  0  0
 32 36  2  0  0  0  0
 32 54  1  0  0  0  0
 33 37  2  0  0  0  0
 33 55  1  0  0  0  0
 34 36  1  0  0  0  0
 34 56  1  0  0  0  0
 35 37  1  0  0  0  0
 35 57  1  0  0  0  0
 36 58  1  0  0  0  0
 37 59  1  0  0  0  0
M  CHG  2   4  -1  10   1
M  END
> <PUBCHEM_COMPOUND_CID>
2918507

> <PUBCHEM_CONFORMER_RMSD>
1

> <PUBCHEM_CONFORMER_DIVERSEORDER>
1
27
28
24
14
37
36
19
9
11
2
15
33
17
20
12
4
23
10
30
34
5
29
13
7
6
18
38
8
3
21
16
32
25
22
31
26
35

> <PUBCHEM_MMFF94_PARTIAL_CHARGES>
53
1 -0.57
10 0.91
11 0.42
12 -0.12
13 -0.12
14 -0.14
15 -0.04
16 -0.04
17 0.62
18 0.62
19 -0.15
2 -0.57
20 -0.15
21 0.14
22 0.14
23 0.12
24 0.12
25 0.13
26 -0.15
27 0.08
28 -0.15
29 -0.15
3 -0.53
30 -0.15
31 -0.15
32 -0.15
33 -0.15
34 -0.15
35 -0.15
36 -0.15
37 -0.15
39 0.4
4 -0.52
40 0.4
41 0.15
42 0.15
49 0.15
5 -0.52
50 0.15
51 0.15
52 0.15
53 0.15
54 0.15
55 0.15
56 0.15
57 0.15
58 0.15
59 0.15
6 -0.16
60 0.45
7 -0.16
8 -0.52
9 -0.52

> <PUBCHEM_EFFECTIVE_ROTOR_COUNT>
6

> <PUBCHEM_PHARMACOPHORE_FEATURES>
13
1 1 acceptor
1 2 acceptor
1 3 donor
1 4 acceptor
1 4 anion
1 5 acceptor
1 8 donor
1 9 donor
5 6 8 12 15 17 rings
5 7 9 13 16 18 rings
6 14 19 20 25 26 27 rings
6 23 28 30 32 34 36 rings
6 24 29 31 33 35 37 rings

> <PUBCHEM_HEAVY_ATOM_COUNT>
37

> <PUBCHEM_ATOM_DEF_STEREO_COUNT>
0

> <PUBCHEM_ATOM_UDEF_STEREO_COUNT>
0

> <PUBCHEM_BOND_DEF_STEREO_COUNT>
0

> <PUBCHEM_BOND_UDEF_STEREO_COUNT>
0

> <PUBCHEM_ISOTOPIC_ATOM_COUNT>
0

> <PUBCHEM_COMPONENT_COUNT>
1

> <PUBCHEM_CACTVS_TAUTO_COUNT>
24

> <PUBCHEM_CONFORMER_ID>
002C886B00000001

> <PUBCHEM_MMFF94_ENERGY>
144.0514

> <PUBCHEM_FEATURE_SELFOVERLAP>
66.057

> <PUBCHEM_SHAPE_FINGERPRINT>
10074138 170 17835806300440231152
10165383 225 17619649298342962645
10305334 12 16035168938536248338
11070050 100 17765164151777397121
11477941 20 11278709357191617883
11534866 41 17400667290249100867
11763715 3 17898313623164639422
12160290 23 17624421878659982228
12293681 160 17471259904763615245
12608794 3 17976828575214056533
12788726 201 17618473520726833044
12977781 61 17825921966465381847
131258 38 17322732638286079467
131258 43 18268168508579064598
13636023 51 18189618422689966639
14028597 1 18127994077071506176
140371 6 18049158861288749846
14068700 675 17822577097364275922
14955137 171 18058466454998735940
15775530 1 18189034543160809613
15968369 26 16810116261870189075
19315092 285 18055640774772736075
20600515 1 18192147088310924580
21033648 29 16988010362685164123
21049683 118 16472875755788506808
21120745 212 18124338037889752132
21344244 78 17846790602581209555
21796203 349 18268167472600713542
22956985 138 18115020952180689682
23559900 14 17749387122508742567
24893989 43 14450336512134019864
25019877 29 10857064381374819544
32027 91 18186798119636485611
3380486 145 17914584264429692846
3380486 77 17682973093231703485
3418910 222 18335420107712053746
376196 1 17121164841012282414
44802255 64 11793538075710936611
4616759 239 17829017972403302658
484985 159 17828203190398261739
5219985 13 10879697793572293258
57527306 92 17555150477864149333
57527452 28 16954786320748776085
57527585 103 18050856519842166148
6679774 75 17681827751025776320
6703917 75 17541402557320456716
7288768 16 16835432057532475448
81228 2 17767691550731071172

> <PUBCHEM_SHAPE_MULTIPOLES>
707.19
9.86
6.96
3.3
5.13
6.16
0.9
-18
-5.21
-4.52
-5.38
-0.02
1.33
2.07

> <PUBCHEM_SHAPE_SELFOVERLAP>
1578.483

> <PUBCHEM_SHAPE_VOLUME>
377.4

> <PUBCHEM_COORDINATE_TYPE>
2
5
10

$$$$
