4049660
  -OEChem-01171812043D

 38 39  0     0  0  0  0  0  0999 V2000
   -2.8219    1.5580   -0.5485 O   0  0  0  0  0  0  0  0  0  0  0  0
   -3.5829   -1.3935   -0.7467 O   0  0  0  0  0  0  0  0  0  0  0  0
   -3.5385    0.7905    1.5117 O   0  0  0  0  0  0  0  0  0  0  0  0
    0.8077   -0.8244    0.9975 N   0  0  0  0  0  0  0  0  0  0  0  0
    1.4618   -5.1675   -0.9830 N   0  0  0  0  0  0  0  0  0  0  0  0
    1.7209    0.0808    1.6878 C   0  0  0  0  0  0  0  0  0  0  0  0
   -0.9766   -2.5851   -0.4534 C   0  0  0  0  0  0  0  0  0  0  0  0
   -1.3752   -1.2290    0.0726 C   0  0  0  0  0  0  0  0  0  0  0  0
   -0.5077   -0.4494    0.7374 C   0  0  0  0  0  0  0  0  0  0  0  0
    1.2493   -2.0549    0.5146 C   0  0  0  0  0  0  0  0  0  0  0  0
    0.4758   -2.9239   -0.1639 C   0  0  0  0  0  0  0  0  0  0  0  0
    2.3650    1.0558    0.7452 C   0  0  0  0  0  0  0  0  0  0  0  0
   -2.7358   -0.7420   -0.1481 C   0  0  0  0  0  0  0  0  0  0  0  0
    3.5674    0.7260    0.1308 C   0  0  0  0  0  0  0  0  0  0  0  0
    1.7524    2.2783    0.4964 C   0  0  0  0  0  0  0  0  0  0  0  0
    4.1657    1.6319   -0.7449 C   0  0  0  0  0  0  0  0  0  0  0  0
    2.3509    3.1842   -0.3794 C   0  0  0  0  0  0  0  0  0  0  0  0
   -3.0890    0.6300    0.3934 C   0  0  0  0  0  0  0  0  0  0  0  0
    1.0190   -4.1602   -0.6152 C   0  0  0  0  0  0  0  0  0  0  0  0
    3.5574    2.8609   -1.0000 C   0  0  0  0  0  0  0  0  0  0  0  0
   -3.1080    2.9092   -0.1752 C   0  0  0  0  0  0  0  0  0  0  0  0
   -2.7576    3.8244   -1.3291 C   0  0  0  0  0  0  0  0  0  0  0  0
    2.4964   -0.4850    2.2229 H   0  0  0  0  0  0  0  0  0  0  0  0
    1.1899    0.6260    2.4807 H   0  0  0  0  0  0  0  0  0  0  0  0
   -1.1374   -2.6098   -1.5384 H   0  0  0  0  0  0  0  0  0  0  0  0
   -1.6188   -3.3499    0.0008 H   0  0  0  0  0  0  0  0  0  0  0  0
   -0.7449    0.5276    1.1381 H   0  0  0  0  0  0  0  0  0  0  0  0
    2.2909   -2.2638    0.7376 H   0  0  0  0  0  0  0  0  0  0  0  0
    4.0510   -0.2279    0.3218 H   0  0  0  0  0  0  0  0  0  0  0  0
    0.8137    2.5438    0.9747 H   0  0  0  0  0  0  0  0  0  0  0  0
    5.1052    1.3804   -1.2283 H   0  0  0  0  0  0  0  0  0  0  0  0
    1.8772    4.1412   -0.5780 H   0  0  0  0  0  0  0  0  0  0  0  0
    4.0233    3.5663   -1.6819 H   0  0  0  0  0  0  0  0  0  0  0  0
   -4.1732    3.0049    0.0636 H   0  0  0  0  0  0  0  0  0  0  0  0
   -2.5127    3.1784    0.7046 H   0  0  0  0  0  0  0  0  0  0  0  0
   -2.9647    4.8682   -1.0773 H   0  0  0  0  0  0  0  0  0  0  0  0
   -1.6984    3.7268   -1.5895 H   0  0  0  0  0  0  0  0  0  0  0  0
   -3.3308    3.5553   -2.2224 H   0  0  0  0  0  0  0  0  0  0  0  0
  1 18  1  0  0  0  0
  1 21  1  0  0  0  0
  2 13  2  0  0  0  0
  3 18  2  0  0  0  0
  4  6  1  0  0  0  0
  4  9  1  0  0  0  0
  4 10  1  0  0  0  0
  5 19  3  0  0  0  0
  6 12  1  0  0  0  0
  6 23  1  0  0  0  0
  6 24  1  0  0  0  0
  7  8  1  0  0  0  0
  7 11  1  0  0  0  0
  7 25  1  0  0  0  0
  7 26  1  0  0  0  0
  8  9  2  0  0  0  0
  8 13  1  0  0  0  0
  9 27  1  0  0  0  0
 10 11  2  0  0  0  0
 10 28  1  0  0  0  0
 11 19  1  0  0  0  0
 12 14  2  0  0  0  0
 12 15  1  0  0  0  0
 13 18  1  0  0  0  0
 14 16  1  0  0  0  0
 14 29  1  0  0  0  0
 15 17  2  0  0  0  0
 15 30  1  0  0  0  0
 16 20  2  0  0  0  0
 16 31  1  0  0  0  0
 17 20  1  0  0  0  0
 17 32  1  0  0  0  0
 20 33  1  0  0  0  0
 21 22  1  0  0  0  0
 21 34  1  0  0  0  0
 21 35  1  0  0  0  0
 22 36  1  0  0  0  0
 22 37  1  0  0  0  0
 22 38  1  0  0  0  0
M  END
> <PUBCHEM_COMPOUND_CID>
4049660

> <PUBCHEM_CONFORMER_RMSD>
0.8

> <PUBCHEM_CONFORMER_DIVERSEORDER>
1
157
179
164
120
97
33
86
111
12
4
114
15
46
101
89
131
130
174
90
73
156
138
102
82
148
45
75
26
94
7
168
93
25
122
22
51
60
55
137
81
58
30
125
113
38
107
117
167
71
37
66
43
123
49
108
52
92
159
116
170
141
161
31
32
158
129
176
106
50
134
68
67
65
59
109
162
11
57
21
150
160
152
44
39
144
70
153
154
121
14
53
24
99
63
110
36
91
62
104
185
163
47
149
34
143
124
54
115
140
105
88
136
42
103
100
177
79
28
180
182
78
29
165
183
64
169
166
173
41
85
96
8
23
155
151
119
19
95
87
74
40
16
145
83
118
126
178
98
35
184
13
69
20
27
146
56
76
171
77
172
80
132
175
139
181
5
135
3
142
147
9
48
128
133
18
112
72
127
2
84
10
61
6
17

> <PUBCHEM_MMFF94_PARTIAL_CHARGES>
28
1 -0.43
10 -0.05
11 -0.07
12 -0.14
13 0.56
14 -0.15
15 -0.15
16 -0.15
17 -0.15
18 0.72
19 0.49
2 -0.57
20 -0.15
21 0.28
27 0.15
28 0.15
29 0.15
3 -0.57
30 0.15
31 0.15
32 0.15
33 0.15
4 -0.57
5 -0.56
6 0.51
7 0.28
8 -0.12
9 -0.05

> <PUBCHEM_EFFECTIVE_ROTOR_COUNT>
6.4

> <PUBCHEM_PHARMACOPHORE_FEATURES>
6
1 2 acceptor
1 3 acceptor
1 4 cation
1 5 acceptor
6 12 14 15 16 17 20 rings
6 4 7 8 9 10 11 rings

> <PUBCHEM_HEAVY_ATOM_COUNT>
22

> <PUBCHEM_ATOM_DEF_STEREO_COUNT>
0

> <PUBCHEM_ATOM_UDEF_STEREO_COUNT>
0

> <PUBCHEM_BOND_DEF_STEREO_COUNT>
0

> <PUBCHEM_BOND_UDEF_STEREO_COUNT>
0

> <PUBCHEM_ISOTOPIC_ATOM_COUNT>
0

> <PUBCHEM_COMPONENT_COUNT>
1

> <PUBCHEM_CACTVS_TAUTO_COUNT>
1

> <PUBCHEM_CONFORMER_ID>
003DCAFC00000001

> <PUBCHEM_MMFF94_ENERGY>
42.138

> <PUBCHEM_FEATURE_SELFOVERLAP>
30.447

> <PUBCHEM_SHAPE_FINGERPRINT>
10498660 4 18045771540720373389
10871710 139 18263644146657758973
11221954 11 18115020780361184817
11582403 64 15692874841296171160
12156800 1 15972173536514099108
12173636 292 18196645418028941246
12422481 6 17903325171357250834
12539773 59 17101458251031257037
12788726 201 17471563808212675506
13761468 95 17750231568676497604
14251751 93 18409166627585560388
14251757 17 18056784069006548700
14790565 3 18124321760121728393
15210252 30 16602946877511051492
15463212 79 18047463711048838730
18785283 64 18266193759123934355
21421566 26 16831796526424226182
21524375 3 18263075677370337778
22907989 373 17549265186682168574
23366157 5 18336262319537348091
23557571 272 17264960080010531776
23558518 356 18263064545232065123
238 59 17901627602080704301
26353 1 16471753768554770262
2637199 183 18261964049798055592
458136 41 18270414844550686219
81228 2 17402887216381728218

> <PUBCHEM_SHAPE_MULTIPOLES>
425.18
6.71
6.12
1.2
3.2
4.2
-0.2
-6.24
1
-2.13
3.14
0.1
-0.18
-0.33

> <PUBCHEM_SHAPE_SELFOVERLAP>
894.706

> <PUBCHEM_SHAPE_VOLUME>
235.9

> <PUBCHEM_COORDINATE_TYPE>
2
5
10

$$$$
