17582903
  -OEChem-01171812103D

 58 61  0     0  0  0  0  0  0999 V2000
    1.6230   -2.0959    0.7246 S   0  0  0  0  0  0  0  0  0  0  0  0
    0.4678    1.5225   -0.0428 O   0  0  0  0  0  0  0  0  0  0  0  0
    5.6575    3.6620   -0.2755 O   0  0  0  0  0  0  0  0  0  0  0  0
    1.8057   -2.1478    2.1714 O   0  0  0  0  0  0  0  0  0  0  0  0
    2.7677   -2.2019   -0.1768 O   0  0  0  0  0  0  0  0  0  0  0  0
   -5.2481   -0.0053   -1.2837 O   0  0  0  0  0  0  0  0  0  0  0  0
    2.7553    0.9819   -0.1071 N   0  0  0  0  0  0  0  0  0  0  0  0
    7.1792    2.2330    0.6921 N   0  0  0  0  0  0  0  0  0  0  0  0
   -0.5010   -0.4453    0.5087 N   0  0  0  0  0  0  0  0  0  0  0  0
    5.5393    1.3383   -0.8304 C   0  0  0  0  0  0  0  0  0  0  0  0
    5.0902    0.2791    0.1771 C   0  0  0  0  0  0  0  0  0  0  0  0
    4.4011    1.7430   -1.7674 C   0  0  0  0  0  0  0  0  0  0  0  0
    3.7879    0.6556    0.8816 C   0  0  0  0  0  0  0  0  0  0  0  0
    3.0932    2.0611   -1.0377 C   0  0  0  0  0  0  0  0  0  0  0  0
    1.4513    0.5906    0.0966 C   0  0  0  0  0  0  0  0  0  0  0  0
    6.1097    2.5305   -0.1191 C   0  0  0  0  0  0  0  0  0  0  0  0
    0.8592   -0.6017    0.4314 C   0  0  0  0  0  0  0  0  0  0  0  0
   -0.6712    0.8251    0.2198 C   0  0  0  0  0  0  0  0  0  0  0  0
    0.4956   -3.3799    0.2558 C   0  0  0  0  0  0  0  0  0  0  0  0
   -1.9336    1.4664    0.1730 C   0  0  0  0  0  0  0  0  0  0  0  0
    0.5044   -3.8739   -1.0487 C   0  0  0  0  0  0  0  0  0  0  0  0
   -0.4009   -3.8968    1.1912 C   0  0  0  0  0  0  0  0  0  0  0  0
   -3.1093    0.8441    0.4205 C   0  0  0  0  0  0  0  0  0  0  0  0
   -0.3835   -4.8844   -1.4179 C   0  0  0  0  0  0  0  0  0  0  0  0
   -1.2886   -4.9075    0.8219 C   0  0  0  0  0  0  0  0  0  0  0  0
   -1.2798   -5.4011   -0.4826 C   0  0  0  0  0  0  0  0  0  0  0  0
   -4.4295    1.5001    0.4017 C   0  0  0  0  0  0  0  0  0  0  0  0
   -5.4434    1.0524   -0.4455 C   0  0  0  0  0  0  0  0  0  0  0  0
   -4.6568    2.5847    1.2489 C   0  0  0  0  0  0  0  0  0  0  0  0
   -6.6844    1.6895   -0.4452 C   0  0  0  0  0  0  0  0  0  0  0  0
   -5.8978    3.2217    1.2490 C   0  0  0  0  0  0  0  0  0  0  0  0
   -6.9115    2.7742    0.4019 C   0  0  0  0  0  0  0  0  0  0  0  0
   -4.7487    0.2859   -2.5869 C   0  0  0  0  0  0  0  0  0  0  0  0
    6.3539    0.9230   -1.4391 H   0  0  0  0  0  0  0  0  0  0  0  0
    5.8535    0.0606    0.9308 H   0  0  0  0  0  0  0  0  0  0  0  0
    4.9337   -0.6585   -0.3712 H   0  0  0  0  0  0  0  0  0  0  0  0
    4.6870    2.5944   -2.3967 H   0  0  0  0  0  0  0  0  0  0  0  0
    4.2126    0.9044   -2.4516 H   0  0  0  0  0  0  0  0  0  0  0  0
    3.4929   -0.1586    1.5480 H   0  0  0  0  0  0  0  0  0  0  0  0
    3.9490    1.5285    1.5269 H   0  0  0  0  0  0  0  0  0  0  0  0
    3.1659    3.0064   -0.4885 H   0  0  0  0  0  0  0  0  0  0  0  0
    2.3045    2.1885   -1.7897 H   0  0  0  0  0  0  0  0  0  0  0  0
    7.6434    2.9617    1.2242 H   0  0  0  0  0  0  0  0  0  0  0  0
    7.5792    1.3030    0.7603 H   0  0  0  0  0  0  0  0  0  0  0  0
   -1.9356    2.5278   -0.0631 H   0  0  0  0  0  0  0  0  0  0  0  0
    1.1885   -3.4806   -1.7952 H   0  0  0  0  0  0  0  0  0  0  0  0
   -0.4284   -3.5218    2.2103 H   0  0  0  0  0  0  0  0  0  0  0  0
   -3.1354   -0.2213    0.6393 H   0  0  0  0  0  0  0  0  0  0  0  0
   -0.3783   -5.2675   -2.4342 H   0  0  0  0  0  0  0  0  0  0  0  0
   -1.9879   -5.3088    1.5496 H   0  0  0  0  0  0  0  0  0  0  0  0
   -1.9718   -6.1872   -0.7704 H   0  0  0  0  0  0  0  0  0  0  0  0
   -3.8820    2.9467    1.9206 H   0  0  0  0  0  0  0  0  0  0  0  0
   -7.4795    1.3462   -1.1015 H   0  0  0  0  0  0  0  0  0  0  0  0
   -6.0752    4.0655    1.9094 H   0  0  0  0  0  0  0  0  0  0  0  0
   -7.8779    3.2699    0.4024 H   0  0  0  0  0  0  0  0  0  0  0  0
   -5.4675    0.8959   -3.1432 H   0  0  0  0  0  0  0  0  0  0  0  0
   -3.7847    0.8009   -2.5322 H   0  0  0  0  0  0  0  0  0  0  0  0
   -4.6088   -0.6593   -3.1186 H   0  0  0  0  0  0  0  0  0  0  0  0
  1  4  2  0  0  0  0
  1  5  2  0  0  0  0
  1 17  1  0  0  0  0
  1 19  1  0  0  0  0
  2 15  1  0  0  0  0
  2 18  1  0  0  0  0
  3 16  2  0  0  0  0
  6 28  1  0  0  0  0
  6 33  1  0  0  0  0
  7 13  1  0  0  0  0
  7 14  1  0  0  0  0
  7 15  1  0  0  0  0
  8 16  1  0  0  0  0
  8 43  1  0  0  0  0
  8 44  1  0  0  0  0
  9 17  1  0  0  0  0
  9 18  2  0  0  0  0
 10 11  1  0  0  0  0
 10 12  1  0  0  0  0
 10 16  1  0  0  0  0
 10 34  1  0  0  0  0
 11 13  1  0  0  0  0
 11 35  1  0  0  0  0
 11 36  1  0  0  0  0
 12 14  1  0  0  0  0
 12 37  1  0  0  0  0
 12 38  1  0  0  0  0
 13 39  1  0  0  0  0
 13 40  1  0  0  0  0
 14 41  1  0  0  0  0
 14 42  1  0  0  0  0
 15 17  2  0  0  0  0
 18 20  1  0  0  0  0
 19 21  2  0  0  0  0
 19 22  1  0  0  0  0
 20 23  2  0  0  0  0
 20 45  1  0  0  0  0
 21 24  1  0  0  0  0
 21 46  1  0  0  0  0
 22 25  2  0  0  0  0
 22 47  1  0  0  0  0
 23 27  1  0  0  0  0
 23 48  1  0  0  0  0
 24 26  2  0  0  0  0
 24 49  1  0  0  0  0
 25 26  1  0  0  0  0
 25 50  1  0  0  0  0
 26 51  1  0  0  0  0
 27 28  1  0  0  0  0
 27 29  2  0  0  0  0
 28 30  2  0  0  0  0
 29 31  1  0  0  0  0
 29 52  1  0  0  0  0
 30 32  1  0  0  0  0
 30 53  1  0  0  0  0
 31 32  2  0  0  0  0
 31 54  1  0  0  0  0
 32 55  1  0  0  0  0
 33 56  1  0  0  0  0
 33 57  1  0  0  0  0
 33 58  1  0  0  0  0
M  END
> <PUBCHEM_COMPOUND_CID>
17582903

> <PUBCHEM_CONFORMER_RMSD>
1

> <PUBCHEM_CONFORMER_DIVERSEORDER>
1
22
44
50
47
59
54
31
69
19
20
64
14
16
49
15
57
53
26
32
72
60
18
25
42
71
45
56
40
41
68
55
74
65
51
52
34
36
39
11
33
48
8
67
7
29
46
21
23
5
73
6
30
61
37
43
35
13
66
17
62
2
27
3
28
58
10
63
9
4
24
38
70
12

> <PUBCHEM_MMFF94_PARTIAL_CHARGES>
44
1 1.37
10 0.06
13 0.37
14 0.37
15 0.22
16 0.57
17 0.16
18 0.43
19 -0.01
2 -0.28
20 -0.11
21 -0.15
22 -0.15
23 -0.18
24 -0.15
25 -0.15
26 -0.15
27 0.03
28 0.08
29 -0.15
3 -0.57
30 -0.15
31 -0.15
32 -0.15
33 0.28
4 -0.65
43 0.37
44 0.37
45 0.15
46 0.15
47 0.15
48 0.15
49 0.15
5 -0.65
50 0.15
51 0.15
52 0.15
53 0.15
54 0.15
55 0.15
6 -0.36
7 -0.82
8 -0.8
9 -0.57

> <PUBCHEM_EFFECTIVE_ROTOR_COUNT>
8.2

> <PUBCHEM_PHARMACOPHORE_FEATURES>
10
1 3 acceptor
1 4 acceptor
1 5 acceptor
1 6 acceptor
1 7 cation
1 8 donor
5 2 9 15 17 18 rings
6 19 21 22 24 25 26 rings
6 27 28 29 30 31 32 rings
6 7 10 11 12 13 14 rings

> <PUBCHEM_HEAVY_ATOM_COUNT>
33

> <PUBCHEM_ATOM_DEF_STEREO_COUNT>
0

> <PUBCHEM_ATOM_UDEF_STEREO_COUNT>
0

> <PUBCHEM_BOND_DEF_STEREO_COUNT>
1

> <PUBCHEM_BOND_UDEF_STEREO_COUNT>
0

> <PUBCHEM_ISOTOPIC_ATOM_COUNT>
0

> <PUBCHEM_COMPONENT_COUNT>
1

> <PUBCHEM_CACTVS_TAUTO_COUNT>
2

> <PUBCHEM_CONFORMER_ID>
010C4B3700000001

> <PUBCHEM_MMFF94_ENERGY>
87.2596

> <PUBCHEM_FEATURE_SELFOVERLAP>
50.764

> <PUBCHEM_SHAPE_FINGERPRINT>
10554248 39 17838326395095074645
10675989 125 18196664985963394713
10721379 63 17910410385025186791
11135926 11 18336823109517280429
11181472 205 17981326691365727825
11991303 11 18187370981730471526
12788726 201 17615141300837197286
12977781 61 17843994600388737190
13150687 139 18410019814897433166
13692114 37 18270950340767248091
14004853 49 18268408197022262625
14068700 686 18262522468693439469
14190465 44 18196922482866147184
14294032 229 18266755755694388026
14790565 3 18411420574776774841
15250474 111 18128518394405458055
15276724 80 17906743849054826102
15400415 2 18411420566757104729
15439362 3 18340492171324023886
15484559 13 18196385723164309158
15664445 248 17908153074658262694
15927050 60 18411703205501400726
16993438 75 18264214784607895747
17138139 8 17914870223653252839
18365409 1 18268148837338497047
19319366 153 18270116808184895197
19427546 62 18409736136000898328
20505436 4 17988929921413034797
20554085 129 18201708566729209136
20775438 99 18202002106010987950
21033648 144 18113334189980253101
21424621 283 18342455963004583952
23516275 137 17058957509839673095
23929065 36 17909820273988905360
27425 322 18342461460641792812
38695281 34 18409172099267757192
4073 2 18336554816317330425
4409770 3 18195247947709731259
4516262 110 18339642231894085509
504843 32 18187650257894929395
6057620 51 18342451535821580053
6058803 2 17769936775973095433
6691757 9 18343023324442637560
6898599 12 18193004944036450452
9658208 31 18271519901154938016

> <PUBCHEM_SHAPE_MULTIPOLES>
638.68
15.98
6.96
1.5
6.36
12.47
-0.48
-26.14
-1.34
-0.34
-0.02
0.79
0.38
-2.01

> <PUBCHEM_SHAPE_SELFOVERLAP>
1367.636

> <PUBCHEM_SHAPE_VOLUME>
353.6

> <PUBCHEM_COORDINATE_TYPE>
2
5
10

$$$$
