24979452
  -OEChem-01171812123D

 62 64  0     0  0  0  0  0  0999 V2000
    3.3174   -0.3700    1.5757 S   0  0  0  0  0  0  0  0  0  0  0  0
    3.0077   -0.6799    2.9545 O   0  0  0  0  0  0  0  0  0  0  0  0
    4.6810   -0.3929    1.0930 O   0  0  0  0  0  0  0  0  0  0  0  0
    0.6626    2.4855   -2.0554 O   0  0  0  0  0  0  0  0  0  0  0  0
   -4.5750   -2.2131    1.4470 O   0  0  0  0  0  0  0  0  0  0  0  0
    2.6105    1.1381    1.1705 N   0  0  0  0  0  0  0  0  0  0  0  0
   -1.0982    3.3142   -0.7778 N   0  0  0  0  0  0  0  0  0  0  0  0
   -3.9952    0.1625   -0.0096 N   0  0  0  0  0  0  0  0  0  0  0  0
    1.1311    3.4122    0.0960 C   0  0  0  0  0  0  0  0  0  0  0  0
    0.7312    2.7221    1.4015 C   0  0  0  0  0  0  0  0  0  0  0  0
    2.5916    3.1393   -0.2683 C   0  0  0  0  0  0  0  0  0  0  0  0
    1.1525    1.2553    1.4582 C   0  0  0  0  0  0  0  0  0  0  0  0
    2.9538    1.6589   -0.1834 C   0  0  0  0  0  0  0  0  0  0  0  0
    0.2276    3.0078   -1.0323 C   0  0  0  0  0  0  0  0  0  0  0  0
   -2.1650    3.0478   -1.7153 C   0  0  0  0  0  0  0  0  0  0  0  0
    2.3594   -1.4424    0.5521 C   0  0  0  0  0  0  0  0  0  0  0  0
   -2.7825    1.6655   -1.5234 C   0  0  0  0  0  0  0  0  0  0  0  0
   -3.4039    1.4930   -0.1364 C   0  0  0  0  0  0  0  0  0  0  0  0
   -5.0092    0.1413    1.0538 C   0  0  0  0  0  0  0  0  0  0  0  0
   -2.9601   -0.8447    0.2616 C   0  0  0  0  0  0  0  0  0  0  0  0
   -5.6027   -1.2592    1.1760 C   0  0  0  0  0  0  0  0  0  0  0  0
   -3.6023   -2.2220    0.4015 C   0  0  0  0  0  0  0  0  0  0  0  0
    2.7823   -1.7306   -0.7455 C   0  0  0  0  0  0  0  0  0  0  0  0
    1.1789   -2.0019    1.0413 C   0  0  0  0  0  0  0  0  0  0  0  0
    2.0250   -2.5783   -1.5537 C   0  0  0  0  0  0  0  0  0  0  0  0
    0.4215   -2.8496    0.2330 C   0  0  0  0  0  0  0  0  0  0  0  0
    0.8446   -3.1377   -1.0645 C   0  0  0  0  0  0  0  0  0  0  0  0
    2.4983   -2.8731   -2.9393 C   0  0  0  0  0  0  0  0  0  0  0  0
    0.0170   -4.0482   -1.9109 C   0  0  0  0  0  0  0  0  0  0  0  0
    1.0069    4.4968    0.2190 H   0  0  0  0  0  0  0  0  0  0  0  0
   -0.3410    2.7924    1.6097 H   0  0  0  0  0  0  0  0  0  0  0  0
    1.2319    3.2500    2.2249 H   0  0  0  0  0  0  0  0  0  0  0  0
    3.2281    3.6916    0.4362 H   0  0  0  0  0  0  0  0  0  0  0  0
    2.8328    3.5233   -1.2668 H   0  0  0  0  0  0  0  0  0  0  0  0
    0.5674    0.6896    0.7261 H   0  0  0  0  0  0  0  0  0  0  0  0
    0.9317    0.8701    2.4590 H   0  0  0  0  0  0  0  0  0  0  0  0
    4.0303    1.5665   -0.3608 H   0  0  0  0  0  0  0  0  0  0  0  0
    2.4331    1.0857   -0.9552 H   0  0  0  0  0  0  0  0  0  0  0  0
   -1.3472    3.8015    0.0773 H   0  0  0  0  0  0  0  0  0  0  0  0
   -2.9214    3.8279   -1.5780 H   0  0  0  0  0  0  0  0  0  0  0  0
   -1.7721    3.1368   -2.7341 H   0  0  0  0  0  0  0  0  0  0  0  0
   -3.5496    1.5134   -2.2930 H   0  0  0  0  0  0  0  0  0  0  0  0
   -2.0024    0.9157   -1.6968 H   0  0  0  0  0  0  0  0  0  0  0  0
   -2.6760    1.6831    0.6621 H   0  0  0  0  0  0  0  0  0  0  0  0
   -4.1843    2.2590   -0.0363 H   0  0  0  0  0  0  0  0  0  0  0  0
   -5.8169    0.8466    0.8268 H   0  0  0  0  0  0  0  0  0  0  0  0
   -4.5599    0.4339    2.0119 H   0  0  0  0  0  0  0  0  0  0  0  0
   -2.4232   -0.6013    1.1880 H   0  0  0  0  0  0  0  0  0  0  0  0
   -2.2270   -0.8953   -0.5491 H   0  0  0  0  0  0  0  0  0  0  0  0
   -6.3139   -1.2913    2.0076 H   0  0  0  0  0  0  0  0  0  0  0  0
   -6.1423   -1.5509    0.2666 H   0  0  0  0  0  0  0  0  0  0  0  0
   -4.0735   -2.5453   -0.5348 H   0  0  0  0  0  0  0  0  0  0  0  0
   -2.8455   -2.9666    0.6635 H   0  0  0  0  0  0  0  0  0  0  0  0
    3.6998   -1.2950   -1.1327 H   0  0  0  0  0  0  0  0  0  0  0  0
    0.8295   -1.7922    2.0482 H   0  0  0  0  0  0  0  0  0  0  0  0
   -0.4901   -3.2830    0.6329 H   0  0  0  0  0  0  0  0  0  0  0  0
    2.6760   -3.9458   -3.0662 H   0  0  0  0  0  0  0  0  0  0  0  0
    1.7635   -2.5356   -3.6773 H   0  0  0  0  0  0  0  0  0  0  0  0
    3.4404   -2.3612   -3.1646 H   0  0  0  0  0  0  0  0  0  0  0  0
   -0.3214   -3.5326   -2.8155 H   0  0  0  0  0  0  0  0  0  0  0  0
    0.5878   -4.9395   -2.1910 H   0  0  0  0  0  0  0  0  0  0  0  0
   -0.8790   -4.3907   -1.3815 H   0  0  0  0  0  0  0  0  0  0  0  0
  1  2  2  0  0  0  0
  1  3  2  0  0  0  0
  1  6  1  0  0  0  0
  1 16  1  0  0  0  0
  4 14  2  0  0  0  0
  5 21  1  0  0  0  0
  5 22  1  0  0  0  0
  6 12  1  0  0  0  0
  6 13  1  0  0  0  0
  7 14  1  0  0  0  0
  7 15  1  0  0  0  0
  7 39  1  0  0  0  0
  8 18  1  0  0  0  0
  8 19  1  0  0  0  0
  8 20  1  0  0  0  0
  9 10  1  0  0  0  0
  9 11  1  0  0  0  0
  9 14  1  0  0  0  0
  9 30  1  0  0  0  0
 10 12  1  0  0  0  0
 10 31  1  0  0  0  0
 10 32  1  0  0  0  0
 11 13  1  0  0  0  0
 11 33  1  0  0  0  0
 11 34  1  0  0  0  0
 12 35  1  0  0  0  0
 12 36  1  0  0  0  0
 13 37  1  0  0  0  0
 13 38  1  0  0  0  0
 15 17  1  0  0  0  0
 15 40  1  0  0  0  0
 15 41  1  0  0  0  0
 16 23  2  0  0  0  0
 16 24  1  0  0  0  0
 17 18  1  0  0  0  0
 17 42  1  0  0  0  0
 17 43  1  0  0  0  0
 18 44  1  0  0  0  0
 18 45  1  0  0  0  0
 19 21  1  0  0  0  0
 19 46  1  0  0  0  0
 19 47  1  0  0  0  0
 20 22  1  0  0  0  0
 20 48  1  0  0  0  0
 20 49  1  0  0  0  0
 21 50  1  0  0  0  0
 21 51  1  0  0  0  0
 22 52  1  0  0  0  0
 22 53  1  0  0  0  0
 23 25  1  0  0  0  0
 23 54  1  0  0  0  0
 24 26  2  0  0  0  0
 24 55  1  0  0  0  0
 25 27  2  0  0  0  0
 25 28  1  0  0  0  0
 26 27  1  0  0  0  0
 26 56  1  0  0  0  0
 27 29  1  0  0  0  0
 28 57  1  0  0  0  0
 28 58  1  0  0  0  0
 28 59  1  0  0  0  0
 29 60  1  0  0  0  0
 29 61  1  0  0  0  0
 29 62  1  0  0  0  0
M  END
> <PUBCHEM_COMPOUND_CID>
24979452

> <PUBCHEM_CONFORMER_RMSD>
1.4

> <PUBCHEM_CONFORMER_DIVERSEORDER>
1
82
33
19
40
2
71
41
28
75
26
74
63
13
21
81
48
42
3
31
54
7
70
36
43
80
52
56
47
38
49
18
72
60
17
57
61
64
66
55
16
78
51
46
65
76
69
45
9
27
6
58
77
34
8
67
22
11
44
12
79
35
73
50
68
32
14
29
25
5
62
30
53
4
59
37
10
20
15
23
39
24

> <PUBCHEM_MMFF94_PARTIAL_CHARGES>
30
1 1.45
12 0.36
13 0.36
14 0.57
15 0.3
16 -0.01
18 0.27
19 0.27
2 -0.65
20 0.27
21 0.28
22 0.28
23 -0.15
24 -0.15
25 -0.14
26 -0.15
27 -0.14
28 0.14
29 0.14
3 -0.65
39 0.37
4 -0.57
5 -0.56
54 0.15
55 0.15
56 0.15
6 -0.85
7 -0.73
8 -0.81
9 0.06

> <PUBCHEM_EFFECTIVE_ROTOR_COUNT>
10.4

> <PUBCHEM_PHARMACOPHORE_FEATURES>
9
1 2 acceptor
1 3 acceptor
1 4 acceptor
1 5 acceptor
1 7 donor
1 8 cation
6 16 23 24 25 26 27 rings
6 5 8 19 20 21 22 rings
6 6 9 10 11 12 13 rings

> <PUBCHEM_HEAVY_ATOM_COUNT>
29

> <PUBCHEM_ATOM_DEF_STEREO_COUNT>
0

> <PUBCHEM_ATOM_UDEF_STEREO_COUNT>
0

> <PUBCHEM_BOND_DEF_STEREO_COUNT>
0

> <PUBCHEM_BOND_UDEF_STEREO_COUNT>
0

> <PUBCHEM_ISOTOPIC_ATOM_COUNT>
0

> <PUBCHEM_COMPONENT_COUNT>
1

> <PUBCHEM_CACTVS_TAUTO_COUNT>
2

> <PUBCHEM_CONFORMER_ID>
017D27FC00000001

> <PUBCHEM_MMFF94_ENERGY>
41.7773

> <PUBCHEM_FEATURE_SELFOVERLAP>
45.69

> <PUBCHEM_SHAPE_FINGERPRINT>
10838868 158 17975143045690593242
108634 29 17905029374981843975
11374522 58 17910700691399092603
12422481 6 18268686429762376128
12712778 12 16821352780504866099
13122387 1 17762610699262097749
13402501 40 18337945689134477435
13773456 22 17907060289228555119
14681488 357 18340221729823027639
15297060 5 17268091441871800139
15975801 100 18041002898824659164
17921350 177 18262780900637344042
17977149 70 18123489420744530908
17980427 26 15481515687130771162
19026451 147 7925370471727932681
19301679 30 18188220909631651961
1979834 28 18343024419432496475
20764821 26 17830160325675045499
20775438 99 17691661417350809733
23428019 142 16252248817874953311
238918 7 18128231438412420906
35225 105 17269757201834295757
394071 54 18337688490004326099
445580 102 18336820914282544181
5081480 168 17766609824768563055
508706 21 18262227803971603677
5309563 4 18334572486503593469
57091435 65 18116152366524808125
6287921 2 18200042857862695375
6823239 73 18338527321810793878

> <PUBCHEM_SHAPE_MULTIPOLES>
562.24
8.49
5.72
2.32
11.19
0.34
0.35
-2.87
-3.87
-1.41
3.22
-1.33
-0.72
2.67

> <PUBCHEM_SHAPE_SELFOVERLAP>
1146.405

> <PUBCHEM_SHAPE_VOLUME>
326.9

> <PUBCHEM_COORDINATE_TYPE>
2
5
10

$$$$
