893610
  -OEChem-01171811383D

 42 45  0     0  0  0  0  0  0999 V2000
   -5.7108   -1.5030   -0.2724 O   0  0  0  0  0  0  0  0  0  0  0  0
   -0.9741    2.5677    0.4760 O   0  0  0  0  0  0  0  0  0  0  0  0
    1.2368    1.9669   -0.0425 N   0  0  0  0  0  0  0  0  0  0  0  0
   -0.5822    0.4180   -0.3140 N   0  0  0  0  0  0  0  0  0  0  0  0
   -5.4595    0.6457    0.4036 N   0  0  0  0  0  0  0  0  0  0  0  0
    2.2093    0.9888    0.1689 C   0  0  0  0  0  0  0  0  0  0  0  0
    4.4174    0.0843   -0.3046 C   0  0  0  0  0  0  0  0  0  0  0  0
    4.1665   -0.9801    0.5938 C   0  0  0  0  0  0  0  0  0  0  0  0
    3.4284    1.0608   -0.5058 C   0  0  0  0  0  0  0  0  0  0  0  0
    1.9626   -0.0578    1.0524 C   0  0  0  0  0  0  0  0  0  0  0  0
   -1.8909   -0.1226   -0.3201 C   0  0  0  0  0  0  0  0  0  0  0  0
    2.9339   -1.0365    1.2645 C   0  0  0  0  0  0  0  0  0  0  0  0
   -4.2332    0.1236    0.0698 C   0  0  0  0  0  0  0  0  0  0  0  0
   -0.1930    1.7100    0.0610 C   0  0  0  0  0  0  0  0  0  0  0  0
   -4.3831   -1.1917   -0.3443 C   0  0  0  0  0  0  0  0  0  0  0  0
   -2.9491    0.6867    0.0864 C   0  0  0  0  0  0  0  0  0  0  0  0
    5.6500    0.1407   -0.9753 C   0  0  0  0  0  0  0  0  0  0  0  0
    5.1556   -1.9566    0.7950 C   0  0  0  0  0  0  0  0  0  0  0  0
   -2.0681   -1.4394   -0.7312 C   0  0  0  0  0  0  0  0  0  0  0  0
    1.6591    3.3792   -0.3070 C   0  0  0  0  0  0  0  0  0  0  0  0
   -3.3425   -2.0165   -0.7535 C   0  0  0  0  0  0  0  0  0  0  0  0
    6.6213   -0.8381   -0.7633 C   0  0  0  0  0  0  0  0  0  0  0  0
    6.3746   -1.8848    0.1201 C   0  0  0  0  0  0  0  0  0  0  0  0
   -6.2846   -0.3539    0.1826 C   0  0  0  0  0  0  0  0  0  0  0  0
   -7.7443   -0.3915    0.3600 C   0  0  0  0  0  0  0  0  0  0  0  0
    3.6278    1.8662   -1.2094 H   0  0  0  0  0  0  0  0  0  0  0  0
    1.0437   -0.1240    1.6284 H   0  0  0  0  0  0  0  0  0  0  0  0
    2.7234   -1.8407    1.9666 H   0  0  0  0  0  0  0  0  0  0  0  0
   -2.8908    1.7099    0.4132 H   0  0  0  0  0  0  0  0  0  0  0  0
    0.1356   -0.1999   -0.6820 H   0  0  0  0  0  0  0  0  0  0  0  0
    5.8651    0.9496   -1.6704 H   0  0  0  0  0  0  0  0  0  0  0  0
    4.9845   -2.7837    1.4809 H   0  0  0  0  0  0  0  0  0  0  0  0
   -1.2176   -2.0426   -1.0415 H   0  0  0  0  0  0  0  0  0  0  0  0
    2.0097    3.4523   -1.3403 H   0  0  0  0  0  0  0  0  0  0  0  0
    2.4510    3.6588    0.3941 H   0  0  0  0  0  0  0  0  0  0  0  0
    0.8143    4.0617   -0.1834 H   0  0  0  0  0  0  0  0  0  0  0  0
   -3.5044   -3.0394   -1.0695 H   0  0  0  0  0  0  0  0  0  0  0  0
    7.5705   -0.7828   -1.2884 H   0  0  0  0  0  0  0  0  0  0  0  0
    7.1312   -2.6465    0.2846 H   0  0  0  0  0  0  0  0  0  0  0  0
   -8.2416   -0.6079   -0.5901 H   0  0  0  0  0  0  0  0  0  0  0  0
   -8.0240   -1.1640    1.0824 H   0  0  0  0  0  0  0  0  0  0  0  0
   -8.1154    0.5698    0.7280 H   0  0  0  0  0  0  0  0  0  0  0  0
  1 15  1  0  0  0  0
  1 24  1  0  0  0  0
  2 14  2  0  0  0  0
  3  6  1  0  0  0  0
  3 14  1  0  0  0  0
  3 20  1  0  0  0  0
  4 11  1  0  0  0  0
  4 14  1  0  0  0  0
  4 30  1  0  0  0  0
  5 13  1  0  0  0  0
  5 24  2  0  0  0  0
  6  9  2  0  0  0  0
  6 10  1  0  0  0  0
  7  8  1  0  0  0  0
  7  9  1  0  0  0  0
  7 17  2  0  0  0  0
  8 12  1  0  0  0  0
  8 18  2  0  0  0  0
  9 26  1  0  0  0  0
 10 12  2  0  0  0  0
 10 27  1  0  0  0  0
 11 16  2  0  0  0  0
 11 19  1  0  0  0  0
 12 28  1  0  0  0  0
 13 15  2  0  0  0  0
 13 16  1  0  0  0  0
 15 21  1  0  0  0  0
 16 29  1  0  0  0  0
 17 22  1  0  0  0  0
 17 31  1  0  0  0  0
 18 23  1  0  0  0  0
 18 32  1  0  0  0  0
 19 21  2  0  0  0  0
 19 33  1  0  0  0  0
 20 34  1  0  0  0  0
 20 35  1  0  0  0  0
 20 36  1  0  0  0  0
 21 37  1  0  0  0  0
 22 23  2  0  0  0  0
 22 38  1  0  0  0  0
 23 39  1  0  0  0  0
 24 25  1  0  0  0  0
 25 40  1  0  0  0  0
 25 41  1  0  0  0  0
 25 42  1  0  0  0  0
M  END
> <PUBCHEM_COMPOUND_CID>
893610

> <PUBCHEM_CONFORMER_RMSD>
0.8

> <PUBCHEM_CONFORMER_DIVERSEORDER>
2
35
23
16
58
70
55
33
84
45
36
41
10
34
15
29
67
18
21
57
66
79
68
71
39
32
22
17
72
82
43
38
44
24
65
5
52
8
61
73
47
60
7
42
51
78
3
40
80
81
13
26
20
37
1
75
25
14
74
11
48
76
53
28
46
4
31
63
83
69
62
30
6
56
64
12
77
50
19
9
27
59
49
54

> <PUBCHEM_MMFF94_PARTIAL_CHARGES>
34
1 -0.28
10 -0.15
11 0.12
12 -0.15
13 0.23
14 0.69
15 0.14
16 -0.15
17 -0.15
18 -0.15
19 -0.15
2 -0.57
20 0.3
21 -0.15
22 -0.15
23 -0.15
24 0.3
25 0.18
26 0.15
27 0.15
28 0.15
29 0.15
3 -0.48
30 0.37
31 0.15
32 0.15
33 0.15
37 0.15
38 0.15
39 0.15
4 -0.55
5 -0.57
6 0.12
9 -0.15

> <PUBCHEM_EFFECTIVE_ROTOR_COUNT>
4

> <PUBCHEM_PHARMACOPHORE_FEATURES>
6
1 2 acceptor
1 4 donor
5 1 5 13 15 24 rings
6 11 13 15 16 19 21 rings
6 6 7 8 9 10 12 rings
6 7 8 17 18 22 23 rings

> <PUBCHEM_HEAVY_ATOM_COUNT>
25

> <PUBCHEM_ATOM_DEF_STEREO_COUNT>
0

> <PUBCHEM_ATOM_UDEF_STEREO_COUNT>
0

> <PUBCHEM_BOND_DEF_STEREO_COUNT>
0

> <PUBCHEM_BOND_UDEF_STEREO_COUNT>
0

> <PUBCHEM_ISOTOPIC_ATOM_COUNT>
0

> <PUBCHEM_COMPONENT_COUNT>
1

> <PUBCHEM_CACTVS_TAUTO_COUNT>
2

> <PUBCHEM_CONFORMER_ID>
000DA2AA00000002

> <PUBCHEM_MMFF94_ENERGY>
87.3008

> <PUBCHEM_FEATURE_SELFOVERLAP>
30.593

> <PUBCHEM_SHAPE_FINGERPRINT>
10 15 12391506495002369470
10299344 5 18408045100023684939
10622 236 17462265955952481034
11135609 187 17973453388830151572
11456790 92 17846230973286108403
11524674 6 16845852395427158655
12107183 9 18341619166395137001
12166972 35 18202564007775610441
12236239 1 18334016081484037460
12516196 113 18410854361059834176
12553582 1 18337093619062396618
12592606 108 18412823616961940927
12760667 363 18342171155111464085
12788726 201 18337953376836164248
13533116 47 18339923821906108665
13673619 4 18040714757842335597
13685833 64 18411138038916820322
13690498 29 18113894931687657349
14251764 18 18201721773357497935
14341114 176 18412826918989665321
14347332 77 18116992179430372882
14420673 8 18411984654771416311
14576447 43 18261392218384840586
14617045 38 18334577936189559011
14767858 380 18041572390682768860
15183329 4 18411700980507348675
15188451 53 16414899964076767391
15348495 7 16056586707648246299
15537594 2 18334572443042438586
15927050 60 17837772597193967940
17134984 74 17022623087369142562
17492 89 18052534671466753791
19319366 153 17676480649480599906
1979834 28 17489875920795797006
20157964 124 10087647000264591716
20832881 197 18408885157014073849
21150785 3 11891336470121852347
21267235 1 18410578374608027659
21365058 113 16950570995189647741
21403212 168 11959733733736569956
21781055 127 16987184715552016929
221357 26 18113897156691576228
22950370 63 18409729556311467294
23016692 55 18413112762264503950
23035841 295 18410575076126223227
23522609 53 18193025701244672300
23559900 14 18269548498070461025
23569917 315 18201721808488630695
24893992 56 17632579371603898331
2767999 5 9079113358417332242
3004659 81 18333449850581647428
335352 9 18412824690645327133
3411729 13 17702373156388119984
351380 3 18409445882169303618
4073 2 18117842333266291424
4098825 35 16009580262014767478
4325135 7 18409451402051507868
439807 62 18113336384001873818
44880168 125 17632289026460061678
46194498 28 16950282944649434356
465052 167 18413111683789940639
5104073 3 17986959733787959363
53794403 172 8141212330749142374
54039377 194 18262236604655862674
559249 180 18341331115817785673
59682541 35 9439111084013678501
6138700 20 18411702071750886207
7970288 3 18411132524575172158
8863177 126 17970357116503525571
999808 66 17895487994208650347

> <PUBCHEM_SHAPE_MULTIPOLES>
487.81
18.47
2.48
0.92
10.66
1.57
-0.06
-10.07
0.52
-1.4
0.07
-0.66
-0.2
-1.13

> <PUBCHEM_SHAPE_SELFOVERLAP>
1085.677

> <PUBCHEM_SHAPE_VOLUME>
260.7

> <PUBCHEM_COORDINATE_TYPE>
2
5
10

$$$$
