2315023
  -OEChem-01171811463D

 26 27  0     0  0  0  0  0  0999 V2000
    4.1407    1.7975    0.0244 S   0  0  0  0  0  0  0  0  0  0  0  0
   -3.1621    0.7568   -0.0268 O   0  0  0  0  0  0  0  0  0  0  0  0
    1.2257   -1.8138   -0.0304 O   0  0  0  0  0  0  0  0  0  0  0  0
    1.8985    0.4402    0.0007 N   0  0  0  0  0  0  0  0  0  0  0  0
    3.9753   -0.7821   -0.0068 N   0  0  0  0  0  0  0  0  0  0  0  0
   -2.8176   -0.5468    0.0007 C   0  0  0  0  0  0  0  0  0  0  0  0
   -4.5203    0.7839   -0.0007 C   0  0  0  0  0  0  0  0  0  0  0  0
   -3.9102   -1.3615    0.0433 C   0  0  0  0  0  0  0  0  0  0  0  0
   -5.0282   -0.4937    0.0426 C   0  0  0  0  0  0  0  0  0  0  0  0
   -1.4440   -0.9571   -0.0156 C   0  0  0  0  0  0  0  0  0  0  0  0
   -5.1447    2.1141   -0.0227 C   0  0  0  0  0  0  0  0  0  0  0  0
   -0.4142   -0.0967   -0.0175 C   0  0  0  0  0  0  0  0  0  0  0  0
    0.9918   -0.6113   -0.0161 C   0  0  0  0  0  0  0  0  0  0  0  0
    3.2918    0.3203    0.0046 C   0  0  0  0  0  0  0  0  0  0  0  0
    5.6019    0.8996    0.0191 C   0  0  0  0  0  0  0  0  0  0  0  0
    5.3157   -0.4494    0.0012 C   0  0  0  0  0  0  0  0  0  0  0  0
   -3.9225   -2.4422    0.0717 H   0  0  0  0  0  0  0  0  0  0  0  0
   -6.0730   -0.7682    0.0704 H   0  0  0  0  0  0  0  0  0  0  0  0
   -1.2588   -2.0284   -0.0159 H   0  0  0  0  0  0  0  0  0  0  0  0
   -4.8270    2.7022    0.8437 H   0  0  0  0  0  0  0  0  0  0  0  0
   -4.8616    2.6568   -0.9299 H   0  0  0  0  0  0  0  0  0  0  0  0
   -6.2363    2.0388    0.0005 H   0  0  0  0  0  0  0  0  0  0  0  0
   -0.5690    0.9776   -0.0124 H   0  0  0  0  0  0  0  0  0  0  0  0
    1.5599    1.3990    0.0110 H   0  0  0  0  0  0  0  0  0  0  0  0
    6.5676    1.3842    0.0283 H   0  0  0  0  0  0  0  0  0  0  0  0
    6.0549   -1.2391   -0.0060 H   0  0  0  0  0  0  0  0  0  0  0  0
  1 14  1  0  0  0  0
  1 15  1  0  0  0  0
  2  6  1  0  0  0  0
  2  7  1  0  0  0  0
  3 13  2  0  0  0  0
  4 13  1  0  0  0  0
  4 14  1  0  0  0  0
  4 24  1  0  0  0  0
  5 14  2  0  0  0  0
  5 16  1  0  0  0  0
  6  8  2  0  0  0  0
  6 10  1  0  0  0  0
  7  9  2  0  0  0  0
  7 11  1  0  0  0  0
  8  9  1  0  0  0  0
  8 17  1  0  0  0  0
  9 18  1  0  0  0  0
 10 12  2  0  0  0  0
 10 19  1  0  0  0  0
 11 20  1  0  0  0  0
 11 21  1  0  0  0  0
 11 22  1  0  0  0  0
 12 13  1  0  0  0  0
 12 23  1  0  0  0  0
 15 16  2  0  0  0  0
 15 25  1  0  0  0  0
 16 26  1  0  0  0  0
M  END
> <PUBCHEM_COMPOUND_CID>
2315023

> <PUBCHEM_CONFORMER_RMSD>
0.6

> <PUBCHEM_CONFORMER_DIVERSEORDER>
1
12
7
13
16
19
14
9
17
15
6
5
20
2
3
10
8
11
4
18

> <PUBCHEM_MMFF94_PARTIAL_CHARGES>
23
1 -0.08
10 -0.11
11 0.18
12 -0.14
13 0.62
14 0.44
15 -0.11
16 0.08
17 0.15
18 0.15
19 0.15
2 -0.28
23 0.15
24 0.37
25 0.15
26 0.15
3 -0.57
4 -0.49
5 -0.57
6 0.09
7 -0.04
8 -0.15
9 -0.15

> <PUBCHEM_EFFECTIVE_ROTOR_COUNT>
4

> <PUBCHEM_PHARMACOPHORE_FEATURES>
5
1 2 acceptor
1 3 acceptor
1 4 donor
5 1 5 14 15 16 rings
5 2 6 7 8 9 rings

> <PUBCHEM_HEAVY_ATOM_COUNT>
16

> <PUBCHEM_ATOM_DEF_STEREO_COUNT>
0

> <PUBCHEM_ATOM_UDEF_STEREO_COUNT>
0

> <PUBCHEM_BOND_DEF_STEREO_COUNT>
1

> <PUBCHEM_BOND_UDEF_STEREO_COUNT>
0

> <PUBCHEM_ISOTOPIC_ATOM_COUNT>
0

> <PUBCHEM_COMPONENT_COUNT>
1

> <PUBCHEM_CACTVS_TAUTO_COUNT>
3

> <PUBCHEM_CONFORMER_ID>
0023530F00000001

> <PUBCHEM_MMFF94_ENERGY>
18.9113

> <PUBCHEM_FEATURE_SELFOVERLAP>
25.371

> <PUBCHEM_SHAPE_FINGERPRINT>
10014705 185 18409165494315054645
100836 57 18408327682943546476
10912923 1 17822004341561927762
11287383 113 18411984697430529722
117890 112 18411418406066444040
12091667 2 18411982485332500595
12107183 9 17759799243444705536
12596602 18 13334740128412476324
13081056 2 18410011056884064340
13167372 99 18410856530023833856
13167823 11 18410289241858193674
13533116 47 14117530801279713614
13740256 8 9007052474386632061
13785724 45 17833546800447393338
14251764 18 18259980492741556064
14252887 29 13334729107821423344
14528608 73 18413106186442746294
15196674 1 18410575106164672416
15501527 16 18411984642012660329
15778101 99 18340773650632774393
17834072 33 18271524281610213726
17844677 252 18337680805252713593
19433438 28 18335702775555484153
20281389 69 18334293154298916537
20645477 56 18335421228081319877
20645477 70 17775014449181606430
212847 35 18411699907277214672
21315763 129 18411699902322831924
21426921 1 18341330089537185239
21709351 56 18411131463427437653
23402539 116 18272083911479854501
23402655 69 18273213084125480670
23536379 177 18409166606358078698
23559900 14 18199750245777414262
2916195 48 18271800285146794624
300161 21 18113611266683618555
34797466 226 17632024146745955932
351380 180 18411418427604558096
3545911 37 18411420596821284507
4073 2 17968383445950246314
4214541 1 18410575093490500769
42788 4 18410856572698862210
441001 317 18342176648680889521
49783359 22 7853852780659063601
5104073 3 18333448733484001907
542803 24 18410292523064917130
54446538 1 18409447020114149501
633830 44 18334571378249037406
7062679 6 18335145275641735581
77779 3 18410293626903375079
8272917 22 18410575046726382718
90127 26 18334867133748992040

> <PUBCHEM_SHAPE_MULTIPOLES>
311.42
14.64
1.72
0.6
3
0.55
0
4.74
0.11
-0.85
0
0
0.02
0.06

> <PUBCHEM_SHAPE_SELFOVERLAP>
649.475

> <PUBCHEM_SHAPE_VOLUME>
178.6

> <PUBCHEM_COORDINATE_TYPE>
2
5
10

$$$$
