652578
  -OEChem-01171811373D

 42 44  0     0  0  0  0  0  0999 V2000
    1.8900    2.6075   -0.0810 O   0  0  0  0  0  0  0  0  0  0  0  0
    0.5017    2.3333    1.7237 O   0  0  0  0  0  0  0  0  0  0  0  0
    0.2774   -0.4779    0.7571 N   0  0  0  0  0  0  0  0  0  0  0  0
    2.4210   -2.7840   -0.5801 N   0  0  0  0  0  0  0  0  0  0  0  0
    0.7234   -1.7036    0.3440 C   0  0  0  0  0  0  0  0  0  0  0  0
    1.9749   -1.5585   -0.1669 C   0  0  0  0  0  0  0  0  0  0  0  0
   -1.0135   -0.2416    1.3547 C   0  0  0  0  0  0  0  0  0  0  0  0
    1.2717    0.4342    0.4956 C   0  0  0  0  0  0  0  0  0  0  0  0
    2.3557   -0.1972   -0.0841 C   0  0  0  0  0  0  0  0  0  0  0  0
    0.3426   -3.0649    0.2610 C   0  0  0  0  0  0  0  0  0  0  0  0
   -2.0509    0.0779    0.3124 C   0  0  0  0  0  0  0  0  0  0  0  0
    1.4267   -3.6963   -0.3185 C   0  0  0  0  0  0  0  0  0  0  0  0
   -3.3056   -0.5164    0.3592 C   0  0  0  0  0  0  0  0  0  0  0  0
    3.7081   -3.0342   -1.1769 C   0  0  0  0  0  0  0  0  0  0  0  0
    1.1614    1.8315    0.7958 C   0  0  0  0  0  0  0  0  0  0  0  0
   -1.7270    0.9780   -0.6951 C   0  0  0  0  0  0  0  0  0  0  0  0
   -4.2519   -0.2058   -0.6173 C   0  0  0  0  0  0  0  0  0  0  0  0
   -3.6669   -1.4856    1.4365 C   0  0  0  0  0  0  0  0  0  0  0  0
   -2.6733    1.2888   -1.6717 C   0  0  0  0  0  0  0  0  0  0  0  0
   -3.9357    0.6969   -1.6327 C   0  0  0  0  0  0  0  0  0  0  0  0
    1.8576    4.0252    0.1201 C   0  0  0  0  0  0  0  0  0  0  0  0
    2.7126    4.6927   -0.9358 C   0  0  0  0  0  0  0  0  0  0  0  0
   -0.9516    0.5644    2.0888 H   0  0  0  0  0  0  0  0  0  0  0  0
   -1.2456   -1.1445    1.9280 H   0  0  0  0  0  0  0  0  0  0  0  0
    3.2865    0.2522   -0.4001 H   0  0  0  0  0  0  0  0  0  0  0  0
   -0.5829   -3.5255    0.5742 H   0  0  0  0  0  0  0  0  0  0  0  0
    1.5686   -4.7394   -0.5683 H   0  0  0  0  0  0  0  0  0  0  0  0
    3.7855   -2.4455   -2.0945 H   0  0  0  0  0  0  0  0  0  0  0  0
    4.4837   -2.7410   -0.4651 H   0  0  0  0  0  0  0  0  0  0  0  0
    3.8003   -4.0981   -1.4093 H   0  0  0  0  0  0  0  0  0  0  0  0
   -0.7744    1.4801   -0.7723 H   0  0  0  0  0  0  0  0  0  0  0  0
   -5.2399   -0.6583   -0.6025 H   0  0  0  0  0  0  0  0  0  0  0  0
   -3.5191   -1.0425    2.4269 H   0  0  0  0  0  0  0  0  0  0  0  0
   -4.7216   -1.7772    1.3774 H   0  0  0  0  0  0  0  0  0  0  0  0
   -3.0743   -2.4018    1.3463 H   0  0  0  0  0  0  0  0  0  0  0  0
   -2.4291    1.9940   -2.4609 H   0  0  0  0  0  0  0  0  0  0  0  0
   -4.6726    0.9393   -2.3929 H   0  0  0  0  0  0  0  0  0  0  0  0
    0.8241    4.3794    0.0399 H   0  0  0  0  0  0  0  0  0  0  0  0
    2.2472    4.2598    1.1167 H   0  0  0  0  0  0  0  0  0  0  0  0
    2.7104    5.7791   -0.8116 H   0  0  0  0  0  0  0  0  0  0  0  0
    3.7451    4.3322   -0.8800 H   0  0  0  0  0  0  0  0  0  0  0  0
    2.3453    4.4503   -1.9385 H   0  0  0  0  0  0  0  0  0  0  0  0
  1 15  1  0  0  0  0
  1 21  1  0  0  0  0
  2 15  2  0  0  0  0
  3  5  1  0  0  0  0
  3  7  1  0  0  0  0
  3  8  1  0  0  0  0
  4  6  1  0  0  0  0
  4 12  1  0  0  0  0
  4 14  1  0  0  0  0
  5  6  2  0  0  0  0
  5 10  1  0  0  0  0
  6  9  1  0  0  0  0
  7 11  1  0  0  0  0
  7 23  1  0  0  0  0
  7 24  1  0  0  0  0
  8  9  2  0  0  0  0
  8 15  1  0  0  0  0
  9 25  1  0  0  0  0
 10 12  2  0  0  0  0
 10 26  1  0  0  0  0
 11 13  1  0  0  0  0
 11 16  2  0  0  0  0
 12 27  1  0  0  0  0
 13 17  2  0  0  0  0
 13 18  1  0  0  0  0
 14 28  1  0  0  0  0
 14 29  1  0  0  0  0
 14 30  1  0  0  0  0
 16 19  1  0  0  0  0
 16 31  1  0  0  0  0
 17 20  1  0  0  0  0
 17 32  1  0  0  0  0
 18 33  1  0  0  0  0
 18 34  1  0  0  0  0
 18 35  1  0  0  0  0
 19 20  2  0  0  0  0
 19 36  1  0  0  0  0
 20 37  1  0  0  0  0
 21 22  1  0  0  0  0
 21 38  1  0  0  0  0
 21 39  1  0  0  0  0
 22 40  1  0  0  0  0
 22 41  1  0  0  0  0
 22 42  1  0  0  0  0
M  END
> <PUBCHEM_COMPOUND_CID>
652578

> <PUBCHEM_CONFORMER_RMSD>
0.8

> <PUBCHEM_CONFORMER_DIVERSEORDER>
1
43
19
2
42
32
5
37
35
39
36
15
4
33
23
10
20
12
22
6
34
27
13
29
7
18
3
31
14
9
30
25
17
21
24
40
16
8
11
38
26
28
41

> <PUBCHEM_MMFF94_PARTIAL_CHARGES>
28
1 -0.43
10 -0.16
11 -0.14
12 -0.3
13 -0.14
14 0.26
15 0.81
16 -0.15
17 -0.15
18 0.14
19 -0.15
2 -0.57
20 -0.15
21 0.28
25 0.15
26 0.15
27 0.15
3 -0.04
31 0.15
32 0.15
36 0.15
37 0.15
4 -0.04
5 -0.05
6 -0.05
7 0.4
8 -0.24
9 -0.16

> <PUBCHEM_EFFECTIVE_ROTOR_COUNT>
5

> <PUBCHEM_PHARMACOPHORE_FEATURES>
6
1 2 acceptor
1 3 cation
1 4 cation
5 3 5 6 8 9 rings
5 4 5 6 10 12 rings
6 11 13 16 17 19 20 rings

> <PUBCHEM_HEAVY_ATOM_COUNT>
22

> <PUBCHEM_ATOM_DEF_STEREO_COUNT>
0

> <PUBCHEM_ATOM_UDEF_STEREO_COUNT>
0

> <PUBCHEM_BOND_DEF_STEREO_COUNT>
0

> <PUBCHEM_BOND_UDEF_STEREO_COUNT>
0

> <PUBCHEM_ISOTOPIC_ATOM_COUNT>
0

> <PUBCHEM_COMPONENT_COUNT>
1

> <PUBCHEM_CACTVS_TAUTO_COUNT>
1

> <PUBCHEM_CONFORMER_ID>
0009F52200000001

> <PUBCHEM_MMFF94_ENERGY>
43.9662

> <PUBCHEM_FEATURE_SELFOVERLAP>
30.724

> <PUBCHEM_SHAPE_FINGERPRINT>
10165383 225 17763200419726141585
12160290 23 17046549271816405650
12553582 1 18051979108487732139
12788726 201 17329140274198588747
13533116 47 18272649083081503883
13583140 156 16881279827967497736
13681431 1 18341322289079873880
13911987 19 18336845099776528374
15210252 30 17753611243812871196
17539 30 17548128931677356942
1813 80 17630901403634879263
21285901 2 16907767840670169125
21524375 3 17902220444943227912
2255824 54 18341325660660615653
22713019 5 17472969610852802821
23114952 82 18407757049552394429
23419403 2 17465993510269618498
23557571 272 17531535390381252635
23559900 14 18335409150427392989
23566358 27 18341900718654573015
238 59 18265871684016176695
23929065 36 17473240104342332842
2748010 2 18118408568912126019
3057174 1 18125151890778408964
3729539 64 18193305042328895628
458136 41 18124891298011623955
46194498 28 18335406977153037589
6049 1 18187369809694613491
621550 34 18189622825057890179
6287921 2 18189629409015979621
6438718 38 16980675365590765627
6669772 16 18126859424274074020
81228 2 17548968966839728376
9709674 26 18335691733616793023

> <PUBCHEM_SHAPE_MULTIPOLES>
431.05
6.33
5.37
1.4
5.47
3.65
0.05
-0.77
2.25
-8.13
1.07
0.86
0.29
1.54

> <PUBCHEM_SHAPE_SELFOVERLAP>
937.449

> <PUBCHEM_SHAPE_VOLUME>
239.3

> <PUBCHEM_COORDINATE_TYPE>
2
5
10

$$$$
