24982730
  -OEChem-01171812123D

 52 54  0     1  0  0  0  0  0999 V2000
   -4.6170    0.9032   -0.9697 S   0  0  0  0  0  0  0  0  0  0  0  0
   -2.5098   -4.0663    1.4101 F   0  0  0  0  0  0  0  0  0  0  0  0
    2.9614   -1.8331    0.4601 O   0  0  0  0  0  0  0  0  0  0  0  0
    2.2685    2.3745    1.7538 O   0  0  0  0  0  0  0  0  0  0  0  0
   -6.0482    0.9101   -0.7306 O   0  0  0  0  0  0  0  0  0  0  0  0
   -4.1130    0.9924   -2.3266 O   0  0  0  0  0  0  0  0  0  0  0  0
    5.8488   -0.0872   -0.1946 N   0  0  0  0  0  0  0  0  0  0  0  0
    2.5204    1.5702   -0.4070 N   0  0  0  0  0  0  0  0  0  0  0  0
   -3.8780    2.1085    0.0147 N   0  0  0  0  0  0  0  0  0  0  0  0
    4.4295    0.0914    0.1095 C   0  0  1  0  0  0  0  0  0  0  0  0
    3.9563    1.4674   -0.3843 C   0  0  0  0  0  0  0  0  0  0  0  0
    3.6102   -1.0591   -0.4488 C   0  0  0  0  0  0  0  0  0  0  0  0
    6.6237    1.0527    0.2941 C   0  0  0  0  0  0  0  0  0  0  0  0
    6.3446   -1.3316    0.3925 C   0  0  0  0  0  0  0  0  0  0  0  0
    3.3700   -1.5098   -1.7261 C   0  0  0  0  0  0  0  0  0  0  0  0
    1.7852    2.0223    0.6810 C   0  0  0  0  0  0  0  0  0  0  0  0
    0.3100    2.0445    0.5075 C   0  0  0  0  0  0  0  0  0  0  0  0
    2.5191   -2.6328   -1.5932 C   0  0  0  0  0  0  0  0  0  0  0  0
    2.2997   -2.7884   -0.2443 C   0  0  0  0  0  0  0  0  0  0  0  0
   -2.4602    2.0863    0.1814 C   0  0  0  0  0  0  0  0  0  0  0  0
   -0.5248    1.9243    1.6184 C   0  0  0  0  0  0  0  0  0  0  0  0
   -0.2403    2.1857   -0.7665 C   0  0  0  0  0  0  0  0  0  0  0  0
   -1.9100    1.9452    1.4553 C   0  0  0  0  0  0  0  0  0  0  0  0
   -1.6253    2.2065   -0.9296 C   0  0  0  0  0  0  0  0  0  0  0  0
   -3.9851   -0.5879   -0.2555 C   0  0  0  0  0  0  0  0  0  0  0  0
   -4.6785   -1.2138    0.7803 C   0  0  0  0  0  0  0  0  0  0  0  0
   -2.7934   -1.1368   -0.7287 C   0  0  0  0  0  0  0  0  0  0  0  0
   -4.1803   -2.3889    1.3430 C   0  0  0  0  0  0  0  0  0  0  0  0
   -2.2950   -2.3118   -0.1660 C   0  0  0  0  0  0  0  0  0  0  0  0
   -2.9885   -2.9378    0.8699 C   0  0  0  0  0  0  0  0  0  0  0  0
    4.2820    0.0811    1.2009 H   0  0  0  0  0  0  0  0  0  0  0  0
    4.3424    2.2796    0.2414 H   0  0  0  0  0  0  0  0  0  0  0  0
    4.2806    1.6453   -1.4173 H   0  0  0  0  0  0  0  0  0  0  0  0
    2.0527    1.2393   -1.2441 H   0  0  0  0  0  0  0  0  0  0  0  0
    6.4484    1.9561   -0.2988 H   0  0  0  0  0  0  0  0  0  0  0  0
    7.6977    0.8558    0.1873 H   0  0  0  0  0  0  0  0  0  0  0  0
    6.4333    1.2685    1.3520 H   0  0  0  0  0  0  0  0  0  0  0  0
    5.8786   -2.2172   -0.0515 H   0  0  0  0  0  0  0  0  0  0  0  0
    6.1989   -1.3659    1.4786 H   0  0  0  0  0  0  0  0  0  0  0  0
    7.4179   -1.4426    0.1964 H   0  0  0  0  0  0  0  0  0  0  0  0
    3.7578   -1.0835   -2.6402 H   0  0  0  0  0  0  0  0  0  0  0  0
    2.1151   -3.2509   -2.3819 H   0  0  0  0  0  0  0  0  0  0  0  0
    1.7273   -3.4905    0.3441 H   0  0  0  0  0  0  0  0  0  0  0  0
   -0.1155    1.8080    2.6184 H   0  0  0  0  0  0  0  0  0  0  0  0
    0.3728    2.3197   -1.6527 H   0  0  0  0  0  0  0  0  0  0  0  0
   -4.4074    2.3921    0.8496 H   0  0  0  0  0  0  0  0  0  0  0  0
   -2.5508    1.8477    2.3277 H   0  0  0  0  0  0  0  0  0  0  0  0
   -2.0272    2.3528   -1.9274 H   0  0  0  0  0  0  0  0  0  0  0  0
   -5.6043   -0.7998    1.1694 H   0  0  0  0  0  0  0  0  0  0  0  0
   -2.2388   -0.6728   -1.5388 H   0  0  0  0  0  0  0  0  0  0  0  0
   -4.7188   -2.8757    2.1507 H   0  0  0  0  0  0  0  0  0  0  0  0
   -1.3675   -2.7400   -0.5346 H   0  0  0  0  0  0  0  0  0  0  0  0
  1  5  2  0  0  0  0
  1  6  2  0  0  0  0
  1  9  1  0  0  0  0
  1 25  1  0  0  0  0
  2 30  1  0  0  0  0
  3 12  1  0  0  0  0
  3 19  1  0  0  0  0
  4 16  2  0  0  0  0
  7 10  1  0  0  0  0
  7 13  1  0  0  0  0
  7 14  1  0  0  0  0
  8 11  1  0  0  0  0
  8 16  1  0  0  0  0
  8 34  1  0  0  0  0
  9 20  1  0  0  0  0
  9 46  1  0  0  0  0
 10 11  1  0  0  0  0
 10 12  1  0  0  0  0
 10 31  1  0  0  0  0
 11 32  1  0  0  0  0
 11 33  1  0  0  0  0
 12 15  2  0  0  0  0
 13 35  1  0  0  0  0
 13 36  1  0  0  0  0
 13 37  1  0  0  0  0
 14 38  1  0  0  0  0
 14 39  1  0  0  0  0
 14 40  1  0  0  0  0
 15 18  1  0  0  0  0
 15 41  1  0  0  0  0
 16 17  1  0  0  0  0
 17 21  2  0  0  0  0
 17 22  1  0  0  0  0
 18 19  2  0  0  0  0
 18 42  1  0  0  0  0
 19 43  1  0  0  0  0
 20 23  2  0  0  0  0
 20 24  1  0  0  0  0
 21 23  1  0  0  0  0
 21 44  1  0  0  0  0
 22 24  2  0  0  0  0
 22 45  1  0  0  0  0
 23 47  1  0  0  0  0
 24 48  1  0  0  0  0
 25 26  2  0  0  0  0
 25 27  1  0  0  0  0
 26 28  1  0  0  0  0
 26 49  1  0  0  0  0
 27 29  2  0  0  0  0
 27 50  1  0  0  0  0
 28 30  2  0  0  0  0
 28 51  1  0  0  0  0
 29 30  1  0  0  0  0
 29 52  1  0  0  0  0
M  END
> <PUBCHEM_COMPOUND_CID>
24982730

> <PUBCHEM_CONFORMER_RMSD>
1

> <PUBCHEM_CONFORMER_DIVERSEORDER>
1
173
243
160
62
118
15
24
169
229
92
174
106
170
5
125
163
58
44
178
3
228
159
128
28
166
193
77
187
76
197
70
86
38
124
145
249
200
221
258
138
266
119
98
63
137
259
212
27
83
35
143
224
108
241
153
148
251
257
245
117
79
110
270
61
227
162
167
195
22
255
235
147
216
94
116
134
242
17
208
99
262
43
2
188
264
127
190
142
149
267
8
33
183
263
85
231
225
253
261
196
80
82
9
211
67
151
199
91
164
32
240
112
150
144
141
130
88
189
42
4
237
101
66
179
250
36
103
114
194
234
11
123
155
239
31
132
109
268
152
19
180
57
161
210
45
214
201
202
69
96
23
60
14
21
84
55
220
168
217
177
186
223
207
203
236
254
129
157
198
73
47
154
156
205
171
222
184
213
209
20
256
120
100
7
191
139
248
252
133
25
46
51
165
226
72
181
126
206
122
87
50
95
121
146
115
10
219
238
64
26
172
18
247
12
158
107
135
49
182
185
113
104
260
59
54
71
233
204
68
74
218
102
89
13
131
232
16
136
56
269
176
40
52
97
53
34
37
192
30
90
244
230
75
175
81
111
265
246
39
93
215
6
65
29
105
140
48
78
41

> <PUBCHEM_MMFF94_PARTIAL_CHARGES>
43
1 1.45
10 0.45
11 0.3
12 -0.04
13 0.27
14 0.27
15 -0.15
16 0.54
17 0.09
18 -0.15
19 -0.01
2 -0.19
20 0.2
21 -0.15
22 -0.15
23 -0.15
24 -0.15
25 -0.01
26 -0.15
27 -0.15
28 -0.15
29 -0.15
3 -0.28
30 0.19
34 0.37
4 -0.57
41 0.15
42 0.15
43 0.15
44 0.15
45 0.15
46 0.42
47 0.15
48 0.15
49 0.15
5 -0.65
50 0.15
51 0.15
52 0.15
6 -0.65
7 -0.81
8 -0.73
9 -0.76

> <PUBCHEM_EFFECTIVE_ROTOR_COUNT>
9

> <PUBCHEM_PHARMACOPHORE_FEATURES>
10
1 3 acceptor
1 4 acceptor
1 5 acceptor
1 6 acceptor
1 7 cation
1 8 donor
1 9 donor
5 3 12 15 18 19 rings
6 17 20 21 22 23 24 rings
6 25 26 27 28 29 30 rings

> <PUBCHEM_HEAVY_ATOM_COUNT>
30

> <PUBCHEM_ATOM_DEF_STEREO_COUNT>
0

> <PUBCHEM_ATOM_UDEF_STEREO_COUNT>
1

> <PUBCHEM_BOND_DEF_STEREO_COUNT>
0

> <PUBCHEM_BOND_UDEF_STEREO_COUNT>
0

> <PUBCHEM_ISOTOPIC_ATOM_COUNT>
0

> <PUBCHEM_COMPONENT_COUNT>
1

> <PUBCHEM_CACTVS_TAUTO_COUNT>
3

> <PUBCHEM_CONFORMER_ID>
017D34CA00000001

> <PUBCHEM_MMFF94_ENERGY>
62.0433

> <PUBCHEM_FEATURE_SELFOVERLAP>
50.765

> <PUBCHEM_SHAPE_FINGERPRINT>
10290309 65 18337118873502837047
10675989 125 17259337770141795764
11135609 12 18261120724289978241
11135609 99 18263638486523982362
11488393 25 16915960461302962014
11828532 37 17317897102671270483
12788726 201 17987512615800208945
13402501 40 18411698794210726614
14251751 18 18334298690548424472
14251757 17 18408321077695302083
14931854 50 18340481162800468847
16067689 391 17555766234340398486
16112460 7 18128266579802941985
17627616 140 17901387788118329691
21315759 227 18409733984085301959
23559900 14 18340477971450753473
329604 57 18336271236152373534
339767 52 18413103935879805034
373842 8 18267861688726325106
4073 2 18413672392156055512
445580 102 18270407203587529966
463206 1 18410017611136345192
469060 322 17532396247529367563
484989 97 18341904043497245816
5309563 4 17979079610892425451
6433294 58 18411702054180587966
9862886 166 18408602582678806872

> <PUBCHEM_SHAPE_MULTIPOLES>
575.54
13.77
4.18
1.52
10.27
2.17
0.16
2.5
0.83
-1.72
-1
-0.93
0.03
2.39

> <PUBCHEM_SHAPE_SELFOVERLAP>
1216.535

> <PUBCHEM_SHAPE_VOLUME>
327.1

> <PUBCHEM_COORDINATE_TYPE>
2
5
10

$$$$
