2802851
  -OEChem-01171811403D

 41 44  0     1  0  0  0  0  0999 V2000
   -5.1118   -2.3079   -1.9927 F   0  0  0  0  0  0  0  0  0  0  0  0
    1.1271    1.5287   -0.1350 O   0  0  0  0  0  0  0  0  0  0  0  0
    1.9557   -0.6389    0.3986 N   0  0  0  0  0  0  0  0  0  0  0  0
    1.5554   -1.7829    0.9906 N   0  0  0  0  0  0  0  0  0  0  0  0
    0.2466    3.6453   -0.5095 N   0  0  0  0  0  0  0  0  0  0  0  0
   -3.1389    3.6396    0.7700 N   0  0  0  0  0  0  0  0  0  0  0  0
   -1.3765    0.5526    1.0823 C   0  0  2  0  0  0  0  0  0  0  0  0
   -0.1271   -0.2404    0.9520 C   0  0  0  0  0  0  0  0  0  0  0  0
    0.9833    0.3088    0.3673 C   0  0  0  0  0  0  0  0  0  0  0  0
    0.2850   -1.5303    1.3331 C   0  0  0  0  0  0  0  0  0  0  0  0
   -2.3688   -0.2083    0.2651 C   0  0  0  0  0  0  0  0  0  0  0  0
   -1.1630    1.9774    0.5392 C   0  0  0  0  0  0  0  0  0  0  0  0
    0.0142    2.3888   -0.0184 C   0  0  0  0  0  0  0  0  0  0  0  0
    3.2537   -0.5171   -0.0934 C   0  0  0  0  0  0  0  0  0  0  0  0
   -0.4983   -2.5638    2.0318 C   0  0  0  0  0  0  0  0  0  0  0  0
   -3.1560   -1.1898    0.8642 C   0  0  0  0  0  0  0  0  0  0  0  0
   -2.5053    0.0661   -1.0945 C   0  0  0  0  0  0  0  0  0  0  0  0
   -4.0830   -1.8997    0.1009 C   0  0  0  0  0  0  0  0  0  0  0  0
   -3.4323   -0.6437   -1.8576 C   0  0  0  0  0  0  0  0  0  0  0  0
   -2.2546    2.8958    0.6668 C   0  0  0  0  0  0  0  0  0  0  0  0
    3.5016    0.3150   -1.1783 C   0  0  0  0  0  0  0  0  0  0  0  0
    4.2855   -1.2284    0.5069 C   0  0  0  0  0  0  0  0  0  0  0  0
   -4.2211   -1.6266   -1.2599 C   0  0  0  0  0  0  0  0  0  0  0  0
    4.8010    0.4379   -1.6704 C   0  0  0  0  0  0  0  0  0  0  0  0
    5.5849   -1.1055    0.0149 C   0  0  0  0  0  0  0  0  0  0  0  0
    5.8426   -0.2724   -1.0738 C   0  0  0  0  0  0  0  0  0  0  0  0
   -1.6790    0.6131    2.1354 H   0  0  0  0  0  0  0  0  0  0  0  0
   -1.1067   -2.1280    2.8295 H   0  0  0  0  0  0  0  0  0  0  0  0
    0.1589   -3.3025    2.5049 H   0  0  0  0  0  0  0  0  0  0  0  0
   -1.1433   -3.1045    1.3336 H   0  0  0  0  0  0  0  0  0  0  0  0
   -3.0889   -1.3925    1.9287 H   0  0  0  0  0  0  0  0  0  0  0  0
   -1.8966    0.8023   -1.6101 H   0  0  0  0  0  0  0  0  0  0  0  0
   -4.7027   -2.6597    0.5675 H   0  0  0  0  0  0  0  0  0  0  0  0
   -3.5367   -0.4357   -2.9184 H   0  0  0  0  0  0  0  0  0  0  0  0
    2.7207    0.8476   -1.7108 H   0  0  0  0  0  0  0  0  0  0  0  0
    4.1182   -1.8769    1.3629 H   0  0  0  0  0  0  0  0  0  0  0  0
   -0.4731    4.3558   -0.4851 H   0  0  0  0  0  0  0  0  0  0  0  0
    1.1551    3.8540   -0.9037 H   0  0  0  0  0  0  0  0  0  0  0  0
    5.0004    1.0771   -2.5256 H   0  0  0  0  0  0  0  0  0  0  0  0
    6.3967   -1.6569    0.4803 H   0  0  0  0  0  0  0  0  0  0  0  0
    6.8540   -0.1786   -1.4584 H   0  0  0  0  0  0  0  0  0  0  0  0
  1 23  1  0  0  0  0
  2  9  1  0  0  0  0
  2 13  1  0  0  0  0
  3  4  1  0  0  0  0
  3  9  1  0  0  0  0
  3 14  1  0  0  0  0
  4 10  2  0  0  0  0
  5 13  1  0  0  0  0
  5 37  1  0  0  0  0
  5 38  1  0  0  0  0
  6 20  3  0  0  0  0
  7  8  1  0  0  0  0
  7 11  1  0  0  0  0
  7 12  1  0  0  0  0
  7 27  1  0  0  0  0
  8  9  2  0  0  0  0
  8 10  1  0  0  0  0
 10 15  1  0  0  0  0
 11 16  2  0  0  0  0
 11 17  1  0  0  0  0
 12 13  2  0  0  0  0
 12 20  1  0  0  0  0
 14 21  2  0  0  0  0
 14 22  1  0  0  0  0
 15 28  1  0  0  0  0
 15 29  1  0  0  0  0
 15 30  1  0  0  0  0
 16 18  1  0  0  0  0
 16 31  1  0  0  0  0
 17 19  2  0  0  0  0
 17 32  1  0  0  0  0
 18 23  2  0  0  0  0
 18 33  1  0  0  0  0
 19 23  1  0  0  0  0
 19 34  1  0  0  0  0
 21 24  1  0  0  0  0
 21 35  1  0  0  0  0
 22 25  2  0  0  0  0
 22 36  1  0  0  0  0
 24 26  2  0  0  0  0
 24 39  1  0  0  0  0
 25 26  1  0  0  0  0
 25 40  1  0  0  0  0
 26 41  1  0  0  0  0
M  END
> <PUBCHEM_COMPOUND_CID>
2802851

> <PUBCHEM_CONFORMER_RMSD>
0.6

> <PUBCHEM_CONFORMER_DIVERSEORDER>
3
1
2
4

> <PUBCHEM_MMFF94_PARTIAL_CHARGES>
37
1 -0.19
10 0.11
11 -0.14
12 -0.07
13 0.18
14 -0.02
15 0.18
16 -0.15
17 -0.15
18 -0.15
19 -0.15
2 -0.14
20 0.49
21 -0.15
22 -0.15
23 0.19
24 -0.15
25 -0.15
26 -0.15
3 0.59
31 0.15
32 0.15
33 0.15
34 0.15
35 0.15
36 0.15
37 0.4
38 0.4
39 0.15
4 -0.71
40 0.15
41 0.15
5 -0.9
6 -0.56
7 0.46
8 -0.18
9 -0.09

> <PUBCHEM_EFFECTIVE_ROTOR_COUNT>
2.4

> <PUBCHEM_PHARMACOPHORE_FEATURES>
9
1 2 acceptor
1 4 acceptor
1 5 cation
1 5 donor
1 6 acceptor
5 3 4 8 9 10 rings
6 11 16 17 18 19 23 rings
6 14 21 22 24 25 26 rings
6 2 7 8 9 12 13 rings

> <PUBCHEM_HEAVY_ATOM_COUNT>
26

> <PUBCHEM_ATOM_DEF_STEREO_COUNT>
0

> <PUBCHEM_ATOM_UDEF_STEREO_COUNT>
1

> <PUBCHEM_BOND_DEF_STEREO_COUNT>
0

> <PUBCHEM_BOND_UDEF_STEREO_COUNT>
0

> <PUBCHEM_ISOTOPIC_ATOM_COUNT>
0

> <PUBCHEM_COMPONENT_COUNT>
1

> <PUBCHEM_CACTVS_TAUTO_COUNT>
2

> <PUBCHEM_CONFORMER_ID>
002AC4A300000003

> <PUBCHEM_MMFF94_ENERGY>
76.1599

> <PUBCHEM_FEATURE_SELFOVERLAP>
45.771

> <PUBCHEM_SHAPE_FINGERPRINT>
10042902 136 17130978940136748487
10871710 139 18335991861103700673
11115154 58 18129928084355446549
11445158 3 16808460242544061637
11578080 2 17489289933091597929
12035759 4 18187638059775864803
12166972 35 17530973513953260894
12403260 363 18408039603119375064
12553582 1 18410572916137533803
12714826 92 17489304161732120851
12788726 201 18411135818450799419
13009979 54 17488471956612096419
13149001 5 18045783643727087139
13540713 5 18117833300749965538
13583140 156 17202471205357582710
13782708 43 17845940641897604198
13911987 19 18114472252876243062
14790565 3 17762065341226826016
15131766 46 16012456708966509412
15420108 30 16746470558991371288
16752209 62 18335420149743881194
17349148 13 18187368710230614322
17980427 23 18188224126066537916
1813 80 17988928919741136565
200 152 18261111872325360078
20600515 1 15050916194644037139
20775438 99 17261845150737966463
21033648 29 14562819880270747836
21033650 10 18053695536881207604
221357 26 18261383499190072231
22182313 1 17755304817846458067
22620623 9 17917427579992636141
23379529 103 17914053367575414127
23402539 116 18409735041000664994
23536364 44 18335129891543174077
23557571 272 18059014973772410288
23559900 14 18188500206722495132
238 59 17400610094152937431
25147074 1 18117269259800764082
2838139 119 15213287647532436926
3388396 114 18118419559776499428
34934 24 18119253861293997465
3633792 109 17241311496622116882
5171179 24 18201995568912461960
6669772 16 17833834150659244412
70251023 43 18270954769479449087
7471813 234 18411417358105123124
7970288 3 18129937996191322951
9709674 26 18263381217713718634

> <PUBCHEM_SHAPE_MULTIPOLES>
502
10.33
3.34
1.64
10.36
3.06
-0.45
-4.92
-5.72
-3.5
0.86
-0.97
-0.82
-1.97

> <PUBCHEM_SHAPE_SELFOVERLAP>
1125.348

> <PUBCHEM_SHAPE_VOLUME>
266.6

> <PUBCHEM_COORDINATE_TYPE>
2
5
10

$$$$
