53383741
  -OEChem-01171812183D

 31 33  0     0  0  0  0  0  0999 V2000
   -2.5458    1.8516   -0.7553 S   0  0  0  0  0  0  0  0  0  0  0  0
   -0.7847   -3.3016   -0.2357 O   0  0  0  0  0  0  0  0  0  0  0  0
   -2.2487   -1.6943    0.8068 O   0  0  0  0  0  0  0  0  0  0  0  0
    2.4113   -2.1222   -0.0041 N   0  0  0  0  0  0  0  0  0  0  0  0
    1.5532   -3.1769   -0.0338 N   0  0  0  0  0  0  0  0  0  0  0  0
   -0.6687   -0.3641   -0.2671 N   0  0  0  0  0  0  0  0  0  0  0  0
    1.7041   -0.9465   -0.0448 C   0  0  0  0  0  0  0  0  0  0  0  0
    0.3901   -1.1967   -0.1610 C   0  0  0  0  0  0  0  0  0  0  0  0
    2.3893    0.3463    0.0399 C   0  0  0  0  0  0  0  0  0  0  0  0
    0.2619   -2.6825   -0.1541 C   0  0  0  0  0  0  0  0  0  0  0  0
    2.0958    1.2241    1.0833 C   0  0  0  0  0  0  0  0  0  0  0  0
    3.3348    0.6988   -0.9230 C   0  0  0  0  0  0  0  0  0  0  0  0
   -1.9414   -0.6568    0.2249 C   0  0  0  0  0  0  0  0  0  0  0  0
   -2.9749    0.3938    0.0338 C   0  0  0  0  0  0  0  0  0  0  0  0
    2.7478    2.4547    1.1639 C   0  0  0  0  0  0  0  0  0  0  0  0
    3.9869    1.9292   -0.8425 C   0  0  0  0  0  0  0  0  0  0  0  0
    3.6934    2.8072    0.2010 C   0  0  0  0  0  0  0  0  0  0  0  0
   -4.2996    0.3812    0.4118 C   0  0  0  0  0  0  0  0  0  0  0  0
   -4.9710    1.5843    0.0487 C   0  0  0  0  0  0  0  0  0  0  0  0
   -4.1340    2.4705   -0.5929 C   0  0  0  0  0  0  0  0  0  0  0  0
    3.3511   -2.1983    0.3588 H   0  0  0  0  0  0  0  0  0  0  0  0
    1.8891   -4.1301    0.0018 H   0  0  0  0  0  0  0  0  0  0  0  0
   -0.4752    0.5981   -0.5334 H   0  0  0  0  0  0  0  0  0  0  0  0
    1.3641    0.9653    1.8450 H   0  0  0  0  0  0  0  0  0  0  0  0
    3.5740    0.0280   -1.7447 H   0  0  0  0  0  0  0  0  0  0  0  0
    2.5197    3.1381    1.9767 H   0  0  0  0  0  0  0  0  0  0  0  0
    4.7227    2.2041   -1.5926 H   0  0  0  0  0  0  0  0  0  0  0  0
    4.2011    3.7652    0.2636 H   0  0  0  0  0  0  0  0  0  0  0  0
   -4.7716   -0.4474    0.9244 H   0  0  0  0  0  0  0  0  0  0  0  0
   -6.0147    1.7894    0.2480 H   0  0  0  0  0  0  0  0  0  0  0  0
   -4.3792    3.4518   -0.9739 H   0  0  0  0  0  0  0  0  0  0  0  0
  1 14  1  0  0  0  0
  1 20  1  0  0  0  0
  2 10  2  0  0  0  0
  3 13  2  0  0  0  0
  4  5  1  0  0  0  0
  4  7  1  0  0  0  0
  4 21  1  0  0  0  0
  5 10  1  0  0  0  0
  5 22  1  0  0  0  0
  6  8  1  0  0  0  0
  6 13  1  0  0  0  0
  6 23  1  0  0  0  0
  7  8  2  0  0  0  0
  7  9  1  0  0  0  0
  8 10  1  0  0  0  0
  9 11  2  0  0  0  0
  9 12  1  0  0  0  0
 11 15  1  0  0  0  0
 11 24  1  0  0  0  0
 12 16  2  0  0  0  0
 12 25  1  0  0  0  0
 13 14  1  0  0  0  0
 14 18  2  0  0  0  0
 15 17  2  0  0  0  0
 15 26  1  0  0  0  0
 16 17  1  0  0  0  0
 16 27  1  0  0  0  0
 17 28  1  0  0  0  0
 18 19  1  0  0  0  0
 18 29  1  0  0  0  0
 19 20  2  0  0  0  0
 19 30  1  0  0  0  0
 20 31  1  0  0  0  0
M  END
> <PUBCHEM_COMPOUND_CID>
53383741

> <PUBCHEM_CONFORMER_RMSD>
0.6

> <PUBCHEM_CONFORMER_DIVERSEORDER>
1
19
6
13
26
28
18
7
16
4
10
20
12
35
14
17
22
8
24
2
5
27
15
25
36
3
29
33
9
11
31
34
23
21
32
30

> <PUBCHEM_MMFF94_PARTIAL_CHARGES>
31
1 -0.08
10 0.62
11 -0.15
12 -0.15
13 0.71
14 -0.05
15 -0.15
16 -0.15
17 -0.15
18 -0.15
19 -0.15
2 -0.57
20 -0.11
21 0.4
22 0.37
23 0.37
24 0.15
25 0.15
26 0.15
27 0.15
28 0.15
29 0.15
3 -0.57
30 0.15
31 0.15
4 -0.52
5 -0.41
6 -0.54
7 0.07
8 0.12
9 0.03

> <PUBCHEM_EFFECTIVE_ROTOR_COUNT>
4

> <PUBCHEM_PHARMACOPHORE_FEATURES>
8
1 2 acceptor
1 3 acceptor
1 4 donor
1 5 donor
1 6 donor
5 1 14 18 19 20 rings
5 4 5 7 8 10 rings
6 9 11 12 15 16 17 rings

> <PUBCHEM_HEAVY_ATOM_COUNT>
20

> <PUBCHEM_ATOM_DEF_STEREO_COUNT>
0

> <PUBCHEM_ATOM_UDEF_STEREO_COUNT>
0

> <PUBCHEM_BOND_DEF_STEREO_COUNT>
0

> <PUBCHEM_BOND_UDEF_STEREO_COUNT>
0

> <PUBCHEM_ISOTOPIC_ATOM_COUNT>
0

> <PUBCHEM_COMPONENT_COUNT>
1

> <PUBCHEM_CACTVS_TAUTO_COUNT>
10

> <PUBCHEM_CONFORMER_ID>
032E923D00000001

> <PUBCHEM_MMFF94_ENERGY>
67.6128

> <PUBCHEM_FEATURE_SELFOVERLAP>
42.222

> <PUBCHEM_SHAPE_FINGERPRINT>
10165383 225 18337964466589642476
10411042 1 17546447773988423807
10498660 4 18411418453264001269
10608611 8 18335702676955767935
10670039 82 18117006687434280140
10871710 139 17905892826796322095
11595378 159 16009030532192632597
12107183 9 18264751303907675008
12173636 292 18122904497727737086
12403259 226 17828763941755383447
12730499 353 18411146822747413585
12769317 202 18341324505230510713
13134695 92 17906159655755705527
13140716 1 18335696130951297162
13294875 104 18201144525726980522
138480 1 17978791203378868062
13878862 14 18047172074296453461
13965767 371 18115569544127291556
14123255 52 18411418457426697052
14466204 15 17829881032283473026
14468879 13 18260272970918324289
14508225 48 17551247172788251846
14848178 96 18410571743664494917
14955137 171 18193831553574289218
151778 21 18410296874062467081
15422964 175 8358273526678492936
17134986 127 18411983580939265476
17868525 174 17683514040262533633
17980427 23 17912889895579196646
1798214 55 18411135870032688988
18186145 218 17987251086825460000
18785283 64 18335139735212512130
19930381 70 18411133602822823737
21524375 3 18341612646138818190
21709351 56 18268138761128949063
21860390 5 17839739266617946853
23536364 44 17838636461093458060
23558518 356 18117836822976848394
23559900 14 18194114115003138963
345986 75 16233911244234565026
350125 39 18336267855791487652
43658 37 18413101771306101553
44555599 121 17769373826273674249
474 4 18339637846183005697
49207404 50 18333739004986387209
495365 180 18269260301511915545
5048184 11 18412543249332314541
5104073 3 18261681368325795609
54672768 99 18191019015161464924
5939293 188 18049153371967311930
6442390 28 18338239378618480206
7364860 26 18267584602535654326
7808743 9 18120094141855274444
81228 2 17404016423672117498
84936 182 18342737369066268881
9981440 41 18337101371325457355

> <PUBCHEM_SHAPE_MULTIPOLES>
388.76
8.68
3.94
0.92
6.05
2.01
0.05
-8.24
-0.42
-1.64
-0.06
-0.37
-0.42
0.78

> <PUBCHEM_SHAPE_SELFOVERLAP>
843.482

> <PUBCHEM_SHAPE_VOLUME>
212.2

> <PUBCHEM_COORDINATE_TYPE>
2
5
10

$$$$
