1902314
  -OEChem-01171811423D

 56 60  0     0  0  0  0  0  0999 V2000
    0.2770   -3.5196    0.1757 O   0  0  0  0  0  0  0  0  0  0  0  0
   -1.5715   -2.8090   -0.9791 O   0  0  0  0  0  0  0  0  0  0  0  0
   -2.8527   -1.8716    0.7872 O   0  0  0  0  0  0  0  0  0  0  0  0
   -4.6280    0.8525   -0.4590 O   0  0  0  0  0  0  0  0  0  0  0  0
    0.1346    1.0088   -0.0824 N   0  0  0  0  0  0  0  0  0  0  0  0
   -2.0867    0.1077   -0.2364 N   0  0  0  0  0  0  0  0  0  0  0  0
    2.5366    1.2876    0.0253 N   0  0  0  0  0  0  0  0  0  0  0  0
    2.5237   -1.5550   -0.2131 N   0  0  0  0  0  0  0  0  0  0  0  0
   -0.2566    2.4205    0.0222 C   0  0  0  0  0  0  0  0  0  0  0  0
    0.2479    3.2548   -1.1670 C   0  0  0  0  0  0  0  0  0  0  0  0
    0.1583    3.0427    1.3659 C   0  0  0  0  0  0  0  0  0  0  0  0
   -0.1973    4.7115   -1.0524 C   0  0  0  0  0  0  0  0  0  0  0  0
   -0.2864    4.5007    1.4639 C   0  0  0  0  0  0  0  0  0  0  0  0
    0.2182    5.3246    0.2821 C   0  0  0  0  0  0  0  0  0  0  0  0
   -0.7243   -0.0565   -0.2019 C   0  0  0  0  0  0  0  0  0  0  0  0
    1.4224    0.5496   -0.0752 C   0  0  0  0  0  0  0  0  0  0  0  0
    0.0276   -1.2116   -0.2721 C   0  0  0  0  0  0  0  0  0  0  0  0
    1.3852   -0.8268   -0.1920 C   0  0  0  0  0  0  0  0  0  0  0  0
   -0.5040   -2.5387   -0.4021 C   0  0  0  0  0  0  0  0  0  0  0  0
    3.6646    0.5627    0.0040 C   0  0  0  0  0  0  0  0  0  0  0  0
    3.6587   -0.8480   -0.1140 C   0  0  0  0  0  0  0  0  0  0  0  0
   -3.0506   -0.7881    0.2487 C   0  0  0  0  0  0  0  0  0  0  0  0
    4.8853    1.2235    0.1014 C   0  0  0  0  0  0  0  0  0  0  0  0
    4.8732   -1.5269   -0.1289 C   0  0  0  0  0  0  0  0  0  0  0  0
   -4.4612   -0.3390    0.1080 C   0  0  0  0  0  0  0  0  0  0  0  0
    6.0941    0.5300    0.0852 C   0  0  0  0  0  0  0  0  0  0  0  0
    6.0880   -0.8510   -0.0305 C   0  0  0  0  0  0  0  0  0  0  0  0
   -0.1954   -4.8684    0.0829 C   0  0  0  0  0  0  0  0  0  0  0  0
   -5.5878   -0.9562    0.4674 C   0  0  0  0  0  0  0  0  0  0  0  0
    0.7929   -5.7855    0.7713 C   0  0  0  0  0  0  0  0  0  0  0  0
   -6.6105   -0.0550    0.0869 C   0  0  0  0  0  0  0  0  0  0  0  0
   -5.9753    1.0296   -0.4718 C   0  0  0  0  0  0  0  0  0  0  0  0
   -1.3483    2.4675   -0.0039 H   0  0  0  0  0  0  0  0  0  0  0  0
    1.3418    3.2283   -1.2292 H   0  0  0  0  0  0  0  0  0  0  0  0
   -0.1276    2.8319   -2.1069 H   0  0  0  0  0  0  0  0  0  0  0  0
    1.2454    3.0000    1.4990 H   0  0  0  0  0  0  0  0  0  0  0  0
   -0.2790    2.4715    2.1942 H   0  0  0  0  0  0  0  0  0  0  0  0
   -1.2878    4.7690   -1.1569 H   0  0  0  0  0  0  0  0  0  0  0  0
    0.2328    5.2936   -1.8753 H   0  0  0  0  0  0  0  0  0  0  0  0
    0.0815    4.9356    2.4000 H   0  0  0  0  0  0  0  0  0  0  0  0
   -1.3818    4.5466    1.4997 H   0  0  0  0  0  0  0  0  0  0  0  0
   -0.1698    6.3469    0.3540 H   0  0  0  0  0  0  0  0  0  0  0  0
    1.3121    5.3937    0.3266 H   0  0  0  0  0  0  0  0  0  0  0  0
   -2.4343    1.0218   -0.5071 H   0  0  0  0  0  0  0  0  0  0  0  0
    4.9087    2.3081    0.1928 H   0  0  0  0  0  0  0  0  0  0  0  0
    4.8870   -2.6118   -0.2192 H   0  0  0  0  0  0  0  0  0  0  0  0
    7.0332    1.0692    0.1626 H   0  0  0  0  0  0  0  0  0  0  0  0
    7.0223   -1.4037   -0.0445 H   0  0  0  0  0  0  0  0  0  0  0  0
   -1.1741   -4.9444    0.5691 H   0  0  0  0  0  0  0  0  0  0  0  0
   -0.2896   -5.1484   -0.9720 H   0  0  0  0  0  0  0  0  0  0  0  0
   -5.7056   -1.9206    0.9399 H   0  0  0  0  0  0  0  0  0  0  0  0
    0.9111   -5.5043    1.8230 H   0  0  0  0  0  0  0  0  0  0  0  0
    1.7817   -5.7036    0.3077 H   0  0  0  0  0  0  0  0  0  0  0  0
    0.4628   -6.8266    0.7187 H   0  0  0  0  0  0  0  0  0  0  0  0
   -7.6772   -0.1801    0.2051 H   0  0  0  0  0  0  0  0  0  0  0  0
   -6.3205    1.9584   -0.9022 H   0  0  0  0  0  0  0  0  0  0  0  0
  1 19  1  0  0  0  0
  1 28  1  0  0  0  0
  2 19  2  0  0  0  0
  3 22  2  0  0  0  0
  4 25  1  0  0  0  0
  4 32  1  0  0  0  0
  5  9  1  0  0  0  0
  5 15  1  0  0  0  0
  5 16  1  0  0  0  0
  6 15  1  0  0  0  0
  6 22  1  0  0  0  0
  6 44  1  0  0  0  0
  7 16  2  0  0  0  0
  7 20  1  0  0  0  0
  8 18  2  0  0  0  0
  8 21  1  0  0  0  0
  9 10  1  0  0  0  0
  9 11  1  0  0  0  0
  9 33  1  0  0  0  0
 10 12  1  0  0  0  0
 10 34  1  0  0  0  0
 10 35  1  0  0  0  0
 11 13  1  0  0  0  0
 11 36  1  0  0  0  0
 11 37  1  0  0  0  0
 12 14  1  0  0  0  0
 12 38  1  0  0  0  0
 12 39  1  0  0  0  0
 13 14  1  0  0  0  0
 13 40  1  0  0  0  0
 13 41  1  0  0  0  0
 14 42  1  0  0  0  0
 14 43  1  0  0  0  0
 15 17  2  0  0  0  0
 16 18  1  0  0  0  0
 17 18  1  0  0  0  0
 17 19  1  0  0  0  0
 20 21  1  0  0  0  0
 20 23  2  0  0  0  0
 21 24  2  0  0  0  0
 22 25  1  0  0  0  0
 23 26  1  0  0  0  0
 23 45  1  0  0  0  0
 24 27  1  0  0  0  0
 24 46  1  0  0  0  0
 25 29  2  0  0  0  0
 26 27  2  0  0  0  0
 26 47  1  0  0  0  0
 27 48  1  0  0  0  0
 28 30  1  0  0  0  0
 28 49  1  0  0  0  0
 28 50  1  0  0  0  0
 29 31  1  0  0  0  0
 29 51  1  0  0  0  0
 30 52  1  0  0  0  0
 30 53  1  0  0  0  0
 30 54  1  0  0  0  0
 31 32  2  0  0  0  0
 31 55  1  0  0  0  0
 32 56  1  0  0  0  0
M  END
> <PUBCHEM_COMPOUND_CID>
1902314

> <PUBCHEM_CONFORMER_RMSD>
1

> <PUBCHEM_CONFORMER_DIVERSEORDER>
1
4
5
3
6
9
2
10
8
7

> <PUBCHEM_MMFF94_PARTIAL_CHARGES>
34
1 -0.43
15 -0.09
16 0.11
17 -0.09
18 0.26
19 0.81
2 -0.57
20 0.31
21 0.31
22 0.71
23 -0.15
24 -0.15
25 0.05
26 -0.15
27 -0.15
28 0.28
29 -0.15
3 -0.57
31 -0.15
32 -0.01
4 -0.28
44 0.37
45 0.15
46 0.15
47 0.15
48 0.15
5 0.05
51 0.15
55 0.15
56 0.15
6 -0.49
7 -0.57
8 -0.57
9 0.26

> <PUBCHEM_EFFECTIVE_ROTOR_COUNT>
8.2

> <PUBCHEM_PHARMACOPHORE_FEATURES>
11
1 2 acceptor
1 3 acceptor
1 4 acceptor
1 6 donor
1 8 acceptor
3 5 7 16 cation
5 4 25 29 31 32 rings
5 5 15 16 17 18 rings
6 20 21 23 24 26 27 rings
6 7 8 16 18 20 21 rings
6 9 10 11 12 13 14 rings

> <PUBCHEM_HEAVY_ATOM_COUNT>
32

> <PUBCHEM_ATOM_DEF_STEREO_COUNT>
0

> <PUBCHEM_ATOM_UDEF_STEREO_COUNT>
0

> <PUBCHEM_BOND_DEF_STEREO_COUNT>
0

> <PUBCHEM_BOND_UDEF_STEREO_COUNT>
0

> <PUBCHEM_ISOTOPIC_ATOM_COUNT>
0

> <PUBCHEM_COMPONENT_COUNT>
1

> <PUBCHEM_CACTVS_TAUTO_COUNT>
5

> <PUBCHEM_CONFORMER_ID>
001D06EA00000001

> <PUBCHEM_MMFF94_ENERGY>
73.2754

> <PUBCHEM_FEATURE_SELFOVERLAP>
56.032

> <PUBCHEM_SHAPE_FINGERPRINT>
10006869 2 18267011765604525247
10190108 129 17978541674558887577
102385 1 17690001137164722094
10930396 42 18196625537427175776
1100329 8 18267586994795229017
11049842 53 17543066140009567012
11646440 116 18342185470416978857
12058002 1 17485689031824529303
12166972 35 18272089456995167041
12516196 113 18413107272932497361
12788726 201 18335698283167405432
13004483 165 18409722950783901320
13140716 1 18339367374532601890
13402501 40 18409165502620094245
13617811 41 18335999583913712254
13911987 19 18262537947274831766
14068700 675 17917989495212841577
14394314 77 18410851083883606658
14415360 78 18192691548883713381
14466204 15 18409449189615686755
14725015 67 18341044109023756138
14790565 3 18410578378993029612
14849402 71 18267875050448555033
14955137 171 18410017671260177229
15131766 46 14906461300783171536
15439362 3 18123745620018838209
15815584 197 18267045898153167111
15927050 60 17764872789807524532
16087824 20 18410857616803923701
18681886 176 18341043116669864155
20600515 1 18200048316307036764
20642791 105 18193829350382640768
20642791 239 17975719469109168636
20775438 99 17116023494513144119
21033648 29 18200020867376393825
21285901 2 17988092088619119852
21641784 216 18263381221608175820
23558518 356 17615976508566895867
23559900 14 18337666529720399169
23845131 108 17475236799387584681
24771293 8 18057590152853468512
266924 87 18122623859931934919
283562 15 18268150864241098896
3178227 256 18338249253634725267
335352 9 18411700998172690406
3380486 77 18338253633815746532
350125 39 18268148669924455456
469060 322 18265626385217307945
5385378 56 18338525127800255291
5486654 2 18410298021229828110
59755656 215 18337393734055312638
6004065 56 18341887541589323023

> <PUBCHEM_SHAPE_MULTIPOLES>
615.14
11.64
7.03
0.91
4.45
0.23
-0.1
-2.06
0.11
-0.45
-1.17
0.19
0.62
0.18

> <PUBCHEM_SHAPE_SELFOVERLAP>
1363.816

> <PUBCHEM_SHAPE_VOLUME>
323.7

> <PUBCHEM_COORDINATE_TYPE>
2
5
10

$$$$
