289745
  -OEChem-01171811553D

 50 53  0     1  0  0  0  0  0999 V2000
    7.0335    1.1101   -0.0637 Cl  0  0  0  0  0  0  0  0  0  0  0  0
   -3.5747    3.2565    1.3368 O   0  0  0  0  0  0  0  0  0  0  0  0
   -4.5424   -2.5818   -0.1407 O   0  0  0  0  0  0  0  0  0  0  0  0
   -1.5166    1.0863   -0.7911 N   0  0  0  0  0  0  0  0  0  0  0  0
    0.6161   -0.5948   -0.1932 N   0  0  0  0  0  0  0  0  0  0  0  0
   -2.4777    2.1368   -0.5105 C   0  0  1  0  0  0  0  0  0  0  0  0
   -2.3986    2.5330    0.9713 C   0  0  1  0  0  0  0  0  0  0  0  0
   -2.2355    3.3263   -1.4495 C   0  0  0  0  0  0  0  0  0  0  0  0
   -1.1574    3.3653    1.3073 C   0  0  0  0  0  0  0  0  0  0  0  0
   -0.9703    4.1080   -1.0993 C   0  0  0  0  0  0  0  0  0  0  0  0
   -0.9647    4.5484    0.3604 C   0  0  0  0  0  0  0  0  0  0  0  0
   -1.7114   -0.2248   -0.4825 C   0  0  0  0  0  0  0  0  0  0  0  0
   -0.6326   -1.0982   -0.1751 C   0  0  0  0  0  0  0  0  0  0  0  0
   -3.0284   -0.7682   -0.4599 C   0  0  0  0  0  0  0  0  0  0  0  0
   -0.8858   -2.4502    0.1372 C   0  0  0  0  0  0  0  0  0  0  0  0
   -3.2703   -2.1010   -0.1515 C   0  0  0  0  0  0  0  0  0  0  0  0
   -2.2021   -2.9420    0.1470 C   0  0  0  0  0  0  0  0  0  0  0  0
    0.2078   -3.2747    0.4338 C   0  0  0  0  0  0  0  0  0  0  0  0
    1.6442   -1.4240    0.0991 C   0  0  0  0  0  0  0  0  0  0  0  0
    1.4958   -2.7590    0.4161 C   0  0  0  0  0  0  0  0  0  0  0  0
    2.9498   -0.8097    0.0587 C   0  0  0  0  0  0  0  0  0  0  0  0
    4.0711   -1.5690   -0.2826 C   0  0  0  0  0  0  0  0  0  0  0  0
    3.0964    0.5458    0.3616 C   0  0  0  0  0  0  0  0  0  0  0  0
   -4.7139   -3.9607    0.1853 C   0  0  0  0  0  0  0  0  0  0  0  0
    5.3330   -0.9757   -0.3207 C   0  0  0  0  0  0  0  0  0  0  0  0
    4.3583    1.1390    0.3233 C   0  0  0  0  0  0  0  0  0  0  0  0
    5.4766    0.3784   -0.0178 C   0  0  0  0  0  0  0  0  0  0  0  0
   -3.4986    1.8144   -0.7386 H   0  0  0  0  0  0  0  0  0  0  0  0
   -2.3954    1.6343    1.5998 H   0  0  0  0  0  0  0  0  0  0  0  0
   -3.0939    4.0079   -1.3914 H   0  0  0  0  0  0  0  0  0  0  0  0
   -2.1745    2.9842   -2.4899 H   0  0  0  0  0  0  0  0  0  0  0  0
   -0.2680    2.7247    1.2581 H   0  0  0  0  0  0  0  0  0  0  0  0
   -1.2251    3.7454    2.3334 H   0  0  0  0  0  0  0  0  0  0  0  0
   -0.8990    4.9906   -1.7455 H   0  0  0  0  0  0  0  0  0  0  0  0
   -0.0813    3.5000   -1.3036 H   0  0  0  0  0  0  0  0  0  0  0  0
   -0.0195    5.0533    0.5899 H   0  0  0  0  0  0  0  0  0  0  0  0
   -1.7644    5.2813    0.5232 H   0  0  0  0  0  0  0  0  0  0  0  0
   -0.5499    1.3746   -0.9044 H   0  0  0  0  0  0  0  0  0  0  0  0
   -3.5095    3.4652    2.2843 H   0  0  0  0  0  0  0  0  0  0  0  0
   -3.8917   -0.1572   -0.7086 H   0  0  0  0  0  0  0  0  0  0  0  0
   -2.3317   -3.9913    0.3951 H   0  0  0  0  0  0  0  0  0  0  0  0
    0.0621   -4.3227    0.6861 H   0  0  0  0  0  0  0  0  0  0  0  0
    2.3228   -3.4111    0.6741 H   0  0  0  0  0  0  0  0  0  0  0  0
    4.0024   -2.6197   -0.5515 H   0  0  0  0  0  0  0  0  0  0  0  0
    2.2474    1.1651    0.6418 H   0  0  0  0  0  0  0  0  0  0  0  0
   -5.7879   -4.1705    0.1458 H   0  0  0  0  0  0  0  0  0  0  0  0
   -4.3838   -4.1768    1.2069 H   0  0  0  0  0  0  0  0  0  0  0  0
   -4.2342   -4.6117   -0.5536 H   0  0  0  0  0  0  0  0  0  0  0  0
    6.1951   -1.5790   -0.5936 H   0  0  0  0  0  0  0  0  0  0  0  0
    4.4558    2.1945    0.5640 H   0  0  0  0  0  0  0  0  0  0  0  0
  1 27  1  0  0  0  0
  2  7  1  0  0  0  0
  2 39  1  0  0  0  0
  3 16  1  0  0  0  0
  3 24  1  0  0  0  0
  4  6  1  0  0  0  0
  4 12  1  0  0  0  0
  4 38  1  0  0  0  0
  5 13  1  0  0  0  0
  5 19  2  0  0  0  0
  6  7  1  0  0  0  0
  6  8  1  0  0  0  0
  6 28  1  0  0  0  0
  7  9  1  0  0  0  0
  7 29  1  0  0  0  0
  8 10  1  0  0  0  0
  8 30  1  0  0  0  0
  8 31  1  0  0  0  0
  9 11  1  0  0  0  0
  9 32  1  0  0  0  0
  9 33  1  0  0  0  0
 10 11  1  0  0  0  0
 10 34  1  0  0  0  0
 10 35  1  0  0  0  0
 11 36  1  0  0  0  0
 11 37  1  0  0  0  0
 12 13  2  0  0  0  0
 12 14  1  0  0  0  0
 13 15  1  0  0  0  0
 14 16  2  0  0  0  0
 14 40  1  0  0  0  0
 15 17  2  0  0  0  0
 15 18  1  0  0  0  0
 16 17  1  0  0  0  0
 17 41  1  0  0  0  0
 18 20  2  0  0  0  0
 18 42  1  0  0  0  0
 19 20  1  0  0  0  0
 19 21  1  0  0  0  0
 20 43  1  0  0  0  0
 21 22  2  0  0  0  0
 21 23  1  0  0  0  0
 22 25  1  0  0  0  0
 22 44  1  0  0  0  0
 23 26  2  0  0  0  0
 23 45  1  0  0  0  0
 24 46  1  0  0  0  0
 24 47  1  0  0  0  0
 24 48  1  0  0  0  0
 25 27  2  0  0  0  0
 25 49  1  0  0  0  0
 26 27  1  0  0  0  0
 26 50  1  0  0  0  0
M  END
> <PUBCHEM_COMPOUND_CID>
289745

> <PUBCHEM_CONFORMER_RMSD>
0.8

> <PUBCHEM_CONFORMER_DIVERSEORDER>
4
23
24
51
15
34
47
38
46
22
31
49
35
18
45
3
30
52
44
53
25
28
41
43
40
29
37
48
17
21
5
33
19
32
16
39
36
10
42
9
13
50
14
8
7
27
1
6
20
26
2
11
12

> <PUBCHEM_MMFF94_PARTIAL_CHARGES>
31
1 -0.18
12 0.1
13 0.31
14 -0.15
16 0.08
17 -0.15
18 -0.15
19 0.31
2 -0.68
20 -0.15
22 -0.15
23 -0.15
24 0.28
25 -0.15
26 -0.15
27 0.18
3 -0.36
38 0.4
39 0.4
4 -0.87
40 0.15
41 0.15
42 0.15
43 0.15
44 0.15
45 0.15
49 0.15
5 -0.62
50 0.15
6 0.37
7 0.28

> <PUBCHEM_EFFECTIVE_ROTOR_COUNT>
5.2

> <PUBCHEM_PHARMACOPHORE_FEATURES>
10
1 2 acceptor
1 2 donor
1 3 acceptor
1 4 cation
1 4 donor
1 5 acceptor
6 12 13 14 15 16 17 rings
6 21 22 23 25 26 27 rings
6 5 13 15 18 19 20 rings
6 6 7 8 9 10 11 rings

> <PUBCHEM_HEAVY_ATOM_COUNT>
27

> <PUBCHEM_ATOM_DEF_STEREO_COUNT>
0

> <PUBCHEM_ATOM_UDEF_STEREO_COUNT>
2

> <PUBCHEM_BOND_DEF_STEREO_COUNT>
0

> <PUBCHEM_BOND_UDEF_STEREO_COUNT>
0

> <PUBCHEM_ISOTOPIC_ATOM_COUNT>
0

> <PUBCHEM_COMPONENT_COUNT>
1

> <PUBCHEM_CACTVS_TAUTO_COUNT>
1

> <PUBCHEM_CONFORMER_ID>
00046BD100000004

> <PUBCHEM_MMFF94_ENERGY>
93.7039

> <PUBCHEM_FEATURE_SELFOVERLAP>
50.778

> <PUBCHEM_SHAPE_FINGERPRINT>
10006869 2 18266171748054761075
10411042 1 18265614479778907655
10670039 82 18336277816533083532
1100329 8 18193562396589741155
11045515 52 18336823220938295631
12156800 1 16267476345265312665
12390115 104 18339935826840289174
12788726 201 18261946435979211818
12978246 48 17977099059637800400
13583140 156 16810958079453582625
138480 1 16104728416190191261
14713325 29 18341335500409897138
14955137 171 18120945168176611635
15131766 46 15265350738730822074
151778 21 17618787959604447080
16087824 20 18408601441187976447
17980427 23 17845389893840632523
19315092 285 13554905228446030324
19611394 137 17609505173942412154
20510252 161 18410569604343149882
21033650 10 18189642509220354422
21049683 271 17901107739539662063
21304253 13 18268716181138394059
21641784 216 18262815071929966444
21927370 108 18116449196157451435
221357 26 18271807964801676558
22182937 141 18341333275653546744
22440779 20 17034228389635834154
22956985 138 17034732266276152402
23559900 14 17763457718294922003
23845131 108 17905336130864254337
25019877 29 16915674784883151095
283562 15 18408038528739903739
350125 39 18411139155956431450
3886686 26 17614243742788136722
469060 322 18337118941962961609
474 4 17114935596861816601
5048184 11 18122059797914669828
5104073 3 18338509756333628530
5252454 2 18196934370755074848
550186 7 18343310266881119806
6004065 56 17908133623062940375
6371009 1 17615663173238128644
6677587 24 15366362549999626183
7399639 24 18130500942218476270
7808743 9 18338516331553953392

> <PUBCHEM_SHAPE_MULTIPOLES>
535.82
10.9
6.31
0.97
18.54
4.34
0.03
-2.49
-0.2
-8.83
0.52
-0.59
0.94
-0.08

> <PUBCHEM_SHAPE_SELFOVERLAP>
1160.066

> <PUBCHEM_SHAPE_VOLUME>
294.5

> <PUBCHEM_COORDINATE_TYPE>
2
5
10

$$$$
