738951
  -OEChem-01171812003D

 37 39  0     0  0  0  0  0  0999 V2000
   -2.9202    2.0944   -0.4499 O   0  0  0  0  0  0  0  0  0  0  0  0
    1.1449   -0.0225    0.2001 N   0  0  0  0  0  0  0  0  0  0  0  0
    0.3684    1.1110    0.3250 N   0  0  0  0  0  0  0  0  0  0  0  0
    1.4431   -2.4545    0.3693 N   0  0  0  0  0  0  0  0  0  0  0  0
   -1.8067   -3.8725    0.1285 N   0  0  0  0  0  0  0  0  0  0  0  0
   -3.7394    0.9356   -0.2406 C   0  0  0  0  0  0  0  0  0  0  0  0
   -1.5792   -0.3506    0.0314 C   0  0  0  0  0  0  0  0  0  0  0  0
   -2.9087   -0.3258   -0.1545 C   0  0  0  0  0  0  0  0  0  0  0  0
   -0.9152    0.9607    0.2375 C   0  0  0  0  0  0  0  0  0  0  0  0
   -1.7913    2.1819    0.3958 C   0  0  0  0  0  0  0  0  0  0  0  0
   -4.6576    0.8576   -1.4668 C   0  0  0  0  0  0  0  0  0  0  0  0
   -4.5939    1.1091    1.0204 C   0  0  0  0  0  0  0  0  0  0  0  0
   -0.7252   -1.5201    0.1178 C   0  0  0  0  0  0  0  0  0  0  0  0
    0.6232   -1.3489    0.2137 C   0  0  0  0  0  0  0  0  0  0  0  0
    2.5350    0.2803    0.0277 C   0  0  0  0  0  0  0  0  0  0  0  0
   -1.3221   -2.8185    0.1238 C   0  0  0  0  0  0  0  0  0  0  0  0
    3.3559   -0.5666   -0.7270 C   0  0  0  0  0  0  0  0  0  0  0  0
    3.0880    1.4268    0.6113 C   0  0  0  0  0  0  0  0  0  0  0  0
    4.7089   -0.2716   -0.8956 C   0  0  0  0  0  0  0  0  0  0  0  0
    4.4408    1.7218    0.4427 C   0  0  0  0  0  0  0  0  0  0  0  0
    5.2513    0.8725   -0.3107 C   0  0  0  0  0  0  0  0  0  0  0  0
   -3.4595   -1.2585   -0.2571 H   0  0  0  0  0  0  0  0  0  0  0  0
   -2.0845    2.2968    1.4439 H   0  0  0  0  0  0  0  0  0  0  0  0
   -1.2254    3.0733    0.1063 H   0  0  0  0  0  0  0  0  0  0  0  0
   -5.2475    1.7761   -1.5702 H   0  0  0  0  0  0  0  0  0  0  0  0
   -4.0726    0.7619   -2.3896 H   0  0  0  0  0  0  0  0  0  0  0  0
   -5.3492    0.0098   -1.4095 H   0  0  0  0  0  0  0  0  0  0  0  0
   -3.9802    1.1215    1.9280 H   0  0  0  0  0  0  0  0  0  0  0  0
   -5.1326    2.0633    0.9955 H   0  0  0  0  0  0  0  0  0  0  0  0
   -5.3255    0.3002    1.1272 H   0  0  0  0  0  0  0  0  0  0  0  0
    2.3798   -2.3241    0.7284 H   0  0  0  0  0  0  0  0  0  0  0  0
    1.0474   -3.3858    0.3959 H   0  0  0  0  0  0  0  0  0  0  0  0
    2.9687   -1.4292   -1.2609 H   0  0  0  0  0  0  0  0  0  0  0  0
    2.4889    2.1020    1.2171 H   0  0  0  0  0  0  0  0  0  0  0  0
    5.3369   -0.9238   -1.4955 H   0  0  0  0  0  0  0  0  0  0  0  0
    4.8641    2.6112    0.9002 H   0  0  0  0  0  0  0  0  0  0  0  0
    6.3039    1.1039   -0.4444 H   0  0  0  0  0  0  0  0  0  0  0  0
  1  6  1  0  0  0  0
  1 10  1  0  0  0  0
  2  3  1  0  0  0  0
  2 14  1  0  0  0  0
  2 15  1  0  0  0  0
  3  9  2  0  0  0  0
  4 14  1  0  0  0  0
  4 31  1  0  0  0  0
  4 32  1  0  0  0  0
  5 16  3  0  0  0  0
  6  8  1  0  0  0  0
  6 11  1  0  0  0  0
  6 12  1  0  0  0  0
  7  8  2  0  0  0  0
  7  9  1  0  0  0  0
  7 13  1  0  0  0  0
  8 22  1  0  0  0  0
  9 10  1  0  0  0  0
 10 23  1  0  0  0  0
 10 24  1  0  0  0  0
 11 25  1  0  0  0  0
 11 26  1  0  0  0  0
 11 27  1  0  0  0  0
 12 28  1  0  0  0  0
 12 29  1  0  0  0  0
 12 30  1  0  0  0  0
 13 14  2  0  0  0  0
 13 16  1  0  0  0  0
 15 17  2  0  0  0  0
 15 18  1  0  0  0  0
 17 19  1  0  0  0  0
 17 33  1  0  0  0  0
 18 20  2  0  0  0  0
 18 34  1  0  0  0  0
 19 21  2  0  0  0  0
 19 35  1  0  0  0  0
 20 21  1  0  0  0  0
 20 36  1  0  0  0  0
 21 37  1  0  0  0  0
M  END
> <PUBCHEM_COMPOUND_CID>
738951

> <PUBCHEM_CONFORMER_RMSD>
0.6

> <PUBCHEM_CONFORMER_DIVERSEORDER>
1
2

> <PUBCHEM_MMFF94_PARTIAL_CHARGES>
27
1 -0.56
10 0.34
13 0.06
14 0.2
15 0.1
16 0.49
17 -0.15
18 -0.15
19 -0.15
2 -0.16
20 -0.15
21 -0.15
22 0.15
3 -0.49
31 0.4
32 0.4
33 0.15
34 0.15
35 0.15
36 0.15
37 0.15
4 -0.9
5 -0.56
6 0.42
7 0.01
8 -0.29
9 0.37

> <PUBCHEM_EFFECTIVE_ROTOR_COUNT>
1.8

> <PUBCHEM_PHARMACOPHORE_FEATURES>
9
1 1 acceptor
1 3 acceptor
1 4 cation
1 4 donor
1 5 acceptor
3 6 11 12 hydrophobe
6 1 6 7 8 9 10 rings
6 15 17 18 19 20 21 rings
6 2 3 7 9 13 14 rings

> <PUBCHEM_HEAVY_ATOM_COUNT>
21

> <PUBCHEM_ATOM_DEF_STEREO_COUNT>
0

> <PUBCHEM_ATOM_UDEF_STEREO_COUNT>
0

> <PUBCHEM_BOND_DEF_STEREO_COUNT>
0

> <PUBCHEM_BOND_UDEF_STEREO_COUNT>
0

> <PUBCHEM_ISOTOPIC_ATOM_COUNT>
0

> <PUBCHEM_COMPONENT_COUNT>
1

> <PUBCHEM_CACTVS_TAUTO_COUNT>
2

> <PUBCHEM_CONFORMER_ID>
000B468700000001

> <PUBCHEM_MMFF94_ENERGY>
77.7115

> <PUBCHEM_FEATURE_SELFOVERLAP>
45.701

> <PUBCHEM_SHAPE_FINGERPRINT>
10411042 1 17689436413385292851
10493431 412 18412552002902828041
10498660 4 18409443700199381652
10608611 8 18270680995463684624
10967382 1 18410854321967122721
11796584 16 14189574109165008877
12173636 292 18409445852041242461
12236239 1 17458341966545907608
12293681 160 18130498635678711417
12670546 177 17917705803383705093
12788726 201 17827633974530901394
12969540 114 18262784212479005885
13052359 8 18334572494666318723
13140716 1 18122068860211080417
13544592 145 18341905056597701718
13583140 156 16877652491957821697
138480 1 17473826121689439579
14790565 3 18269847406462221321
15042514 8 18264214780228343603
15196674 1 18412263938823591410
15375358 24 18272934942565611700
16945 1 18410005550683178483
18186145 218 18342736291050641344
19427546 20 18045509861569274502
19591789 44 18338238137431148746
200 152 16702304550876691396
20510252 161 18196938992260886346
20602899 9 15769774692980141959
20645477 56 18408888455586009996
20645477 70 17203056210026072420
21033648 29 18410282593127916185
21524375 3 18188493462843079826
21859007 373 17753024152312586988
22182313 1 18265354879075747795
22224240 67 18340499911181964033
23227448 37 18337673138894450092
23402539 116 18343015601353175164
23557571 272 18198070363950834558
23559900 14 18343305886241297812
2748010 2 17980751959218682875
3009799 131 9871468656684890897
335352 9 18411420571246978246
350125 39 18120375358943380576
3545911 37 18412831300383977260
3759504 43 17967533488817276659
4028521 119 18411416211164063148
5104073 3 18340202016307956064
53917941 68 18263626494035840615
58779409 54 18267859661010741823
633830 44 18057887952937203877
69090 78 18273494576561628956
9709674 26 18272376399290938262

> <PUBCHEM_SHAPE_MULTIPOLES>
406.38
9.83
2.98
0.9
5.12
2.87
0.16
-5.37
1.84
-1.7
-0.44
-0.4
-0.19
0.5

> <PUBCHEM_SHAPE_SELFOVERLAP>
882.062

> <PUBCHEM_SHAPE_VOLUME>
219.1

> <PUBCHEM_COORDINATE_TYPE>
2
5
10

$$$$
