80417
  -OEChem-01171812153D

 31 32  0     0  0  0  0  0  0999 V2000
   -3.9436   -0.3253    0.0705 S   0  0  0  0  0  0  0  0  0  0  0  0
    0.0062    2.8765    0.0041 O   0  0  0  0  0  0  0  0  0  0  0  0
   -4.3831   -0.4169   -1.5016 O   0  0  0  0  0  0  0  0  0  0  0  0
   -4.1444   -1.6476    0.6452 O   0  0  0  0  0  0  0  0  0  0  0  0
   -4.5877    0.8419    0.6523 O   0  0  0  0  0  0  0  0  0  0  0  0
    4.2100   -0.0357   -0.0211 N   0  0  0  0  0  0  0  0  0  0  0  0
    0.5320    0.5185    0.0151 C   0  0  0  0  0  0  0  0  0  0  0  0
    0.0642   -0.8171    0.0298 C   0  0  0  0  0  0  0  0  0  0  0  0
    2.8239   -0.2970   -0.0036 C   0  0  0  0  0  0  0  0  0  0  0  0
    1.9150    0.7616   -0.0016 C   0  0  0  0  0  0  0  0  0  0  0  0
   -2.2278   -0.0017    0.0487 C   0  0  0  0  0  0  0  0  0  0  0  0
   -1.3189   -1.0603    0.0465 C   0  0  0  0  0  0  0  0  0  0  0  0
   -0.3971    1.5716    0.0176 C   0  0  0  0  0  0  0  0  0  0  0  0
    0.9933   -1.8703    0.0274 C   0  0  0  0  0  0  0  0  0  0  0  0
    2.3639   -1.6103    0.0108 C   0  0  0  0  0  0  0  0  0  0  0  0
   -1.7677    1.3117    0.0342 C   0  0  0  0  0  0  0  0  0  0  0  0
    5.1625   -1.1280   -0.0241 C   0  0  0  0  0  0  0  0  0  0  0  0
    4.6992    1.3282   -0.0503 C   0  0  0  0  0  0  0  0  0  0  0  0
    2.2762    1.7834   -0.0322 H   0  0  0  0  0  0  0  0  0  0  0  0
   -1.6780   -2.0876    0.0502 H   0  0  0  0  0  0  0  0  0  0  0  0
    0.6558   -2.9047    0.0385 H   0  0  0  0  0  0  0  0  0  0  0  0
    3.0299   -2.4675    0.0095 H   0  0  0  0  0  0  0  0  0  0  0  0
   -2.4629    2.1471    0.0280 H   0  0  0  0  0  0  0  0  0  0  0  0
    6.1959   -0.7639   -0.0338 H   0  0  0  0  0  0  0  0  0  0  0  0
    5.0445   -1.7537   -0.9157 H   0  0  0  0  0  0  0  0  0  0  0  0
    5.0597   -1.7459    0.8750 H   0  0  0  0  0  0  0  0  0  0  0  0
    5.7945    1.3642   -0.0602 H   0  0  0  0  0  0  0  0  0  0  0  0
    4.3802    1.8839    0.8385 H   0  0  0  0  0  0  0  0  0  0  0  0
    4.3644    1.8508   -0.9534 H   0  0  0  0  0  0  0  0  0  0  0  0
    0.8433    2.9699    0.4855 H   0  0  0  0  0  0  0  0  0  0  0  0
   -3.9534   -1.1378   -2.0193 H   0  0  0  0  0  0  0  0  0  0  0  0
  1  3  1  0  0  0  0
  1  4  2  0  0  0  0
  1  5  2  0  0  0  0
  1 11  1  0  0  0  0
  2 13  1  0  0  0  0
  2 30  1  0  0  0  0
  3 31  1  0  0  0  0
  6  9  1  0  0  0  0
  6 17  1  0  0  0  0
  6 18  1  0  0  0  0
  7  8  1  0  0  0  0
  7 10  1  0  0  0  0
  7 13  2  0  0  0  0
  8 12  2  0  0  0  0
  8 14  1  0  0  0  0
  9 10  2  0  0  0  0
  9 15  1  0  0  0  0
 10 19  1  0  0  0  0
 11 12  1  0  0  0  0
 11 16  2  0  0  0  0
 12 20  1  0  0  0  0
 13 16  1  0  0  0  0
 14 15  2  0  0  0  0
 14 21  1  0  0  0  0
 15 22  1  0  0  0  0
 16 23  1  0  0  0  0
 17 24  1  0  0  0  0
 17 25  1  0  0  0  0
 17 26  1  0  0  0  0
 18 27  1  0  0  0  0
 18 28  1  0  0  0  0
 18 29  1  0  0  0  0
M  END
> <PUBCHEM_COMPOUND_CID>
80417

> <PUBCHEM_CONFORMER_RMSD>
0.6

> <PUBCHEM_CONFORMER_DIVERSEORDER>
1
2

> <PUBCHEM_MMFF94_PARTIAL_CHARGES>
23
1 1.49
10 -0.15
11 -0.01
12 -0.15
13 0.08
14 -0.15
15 -0.15
16 -0.15
17 0.37
18 0.37
19 0.15
2 -0.53
20 0.15
21 0.15
22 0.15
23 0.15
3 -0.68
30 0.45
31 0.5
4 -0.65
5 -0.65
6 -0.84
9 0.1

> <PUBCHEM_EFFECTIVE_ROTOR_COUNT>
2

> <PUBCHEM_PHARMACOPHORE_FEATURES>
8
1 2 donor
1 3 acceptor
1 4 acceptor
1 5 acceptor
1 6 cation
4 1 3 4 5 anion
6 7 8 11 12 13 16 rings
6 7 8 9 10 14 15 rings

> <PUBCHEM_HEAVY_ATOM_COUNT>
18

> <PUBCHEM_ATOM_DEF_STEREO_COUNT>
0

> <PUBCHEM_ATOM_UDEF_STEREO_COUNT>
0

> <PUBCHEM_BOND_DEF_STEREO_COUNT>
0

> <PUBCHEM_BOND_UDEF_STEREO_COUNT>
0

> <PUBCHEM_ISOTOPIC_ATOM_COUNT>
0

> <PUBCHEM_COMPONENT_COUNT>
1

> <PUBCHEM_CACTVS_TAUTO_COUNT>
3

> <PUBCHEM_CONFORMER_ID>
00013A2100000001

> <PUBCHEM_MMFF94_ENERGY>
58.9657

> <PUBCHEM_FEATURE_SELFOVERLAP>
40.678

> <PUBCHEM_SHAPE_FINGERPRINT>
10967382 1 18410575102286131226
11401426 45 18411697686377916605
11471102 20 18410007749827662334
11680986 33 18122062275794139465
11806522 49 18410293639756420599
12032990 46 18410015446161221315
12236239 1 17917994979874917963
12403259 226 18338231545447659520
13140716 1 18194405717079957321
13214271 11 18413108351401753471
13760787 5 18409166610283735317
13862211 1 18411131437853149910
14115302 16 17822303404651469318
14252887 29 18060150829097057494
14576447 43 18200578307098257839
14787075 74 18261957443927234250
14790565 3 18339371845641757200
15196674 1 18410576192986213418
15375358 24 18260830401379820859
15536298 74 18343023255301296998
16945 1 18410568500499313187
18769570 83 15719659971025204029
18785283 64 17825967080474732837
200 152 18202279208520267491
20510252 161 18270964540182128528
21029758 11 18413102879318324489
21029758 27 18334863843767392693
21267235 1 18410583876493172138
21421861 104 17825951420649185635
21501502 16 18194964028727200594
221490 88 18047194326131240115
23402539 116 18272083885741829103
23402655 69 18341888542253373525
23557571 272 18199192797639747292
23559900 14 18408887365244279728
2748010 2 18267298738286801677
2871803 45 18335698313063422830
3286 77 17346590889884461192
335352 9 18410294692535241301
34934 24 18337950091697612243
350125 39 18410295770936074584
474229 33 18410574002890762346
4990 188 17847068761684743070
5104073 3 18411138017700447578
5374978 207 18408879642829927736
537710 114 18336553797645352284
69090 78 18201997742160131758
9709674 26 18339648811171631078

> <PUBCHEM_SHAPE_MULTIPOLES>
345.82
9.52
2.06
0.73
1.13
0.67
-0.12
-1.4
-0.22
0.37
0.09
-0.56
-0.07
-0.05

> <PUBCHEM_SHAPE_SELFOVERLAP>
734.015

> <PUBCHEM_SHAPE_VOLUME>
195.6

> <PUBCHEM_COORDINATE_TYPE>
2
5
10

$$$$
