1205868
  -OEChem-01171811503D

 35 37  0     0  0  0  0  0  0999 V2000
    1.3274    1.5628    1.2382 S   0  0  0  0  0  0  0  0  0  0  0  0
   -0.3436   -1.6033   -0.6005 O   0  0  0  0  0  0  0  0  0  0  0  0
    1.4747    2.7800   -2.3843 O   0  0  0  0  0  0  0  0  0  0  0  0
    0.7810    4.0210    2.0260 O   0  0  0  0  0  0  0  0  0  0  0  0
    1.0943    3.6284   -0.2509 N   0  0  0  0  0  0  0  0  0  0  0  0
    2.0018   -1.1063   -0.4344 C   0  0  0  0  0  0  0  0  0  0  0  0
    0.9172   -1.9564   -0.2190 C   0  0  0  0  0  0  0  0  0  0  0  0
   -1.4227   -2.1244    0.1718 C   0  0  0  0  0  0  0  0  0  0  0  0
   -2.5755   -1.1658    0.1118 C   0  0  0  0  0  0  0  0  0  0  0  0
    1.8250    0.1895   -1.0758 C   0  0  0  0  0  0  0  0  0  0  0  0
    3.2809   -1.4925   -0.0340 C   0  0  0  0  0  0  0  0  0  0  0  0
    1.1116   -3.1926    0.3971 C   0  0  0  0  0  0  0  0  0  0  0  0
    1.5424    1.3531   -0.4576 C   0  0  0  0  0  0  0  0  0  0  0  0
    3.4753   -2.7288    0.5822 C   0  0  0  0  0  0  0  0  0  0  0  0
    2.3907   -3.5789    0.7977 C   0  0  0  0  0  0  0  0  0  0  0  0
   -2.6812   -0.1556    1.0613 C   0  0  0  0  0  0  0  0  0  0  0  0
   -3.5281   -1.2965   -0.8926 C   0  0  0  0  0  0  0  0  0  0  0  0
    1.3752    2.6392   -1.1746 C   0  0  0  0  0  0  0  0  0  0  0  0
   -3.7532    0.7353    1.0058 C   0  0  0  0  0  0  0  0  0  0  0  0
   -4.5999   -0.4056   -0.9483 C   0  0  0  0  0  0  0  0  0  0  0  0
   -4.7125    0.6103    0.0010 C   0  0  0  0  0  0  0  0  0  0  0  0
    1.0192    3.2871    1.0792 C   0  0  0  0  0  0  0  0  0  0  0  0
   -1.1516   -2.2608    1.2278 H   0  0  0  0  0  0  0  0  0  0  0  0
   -1.7238   -3.0993   -0.2319 H   0  0  0  0  0  0  0  0  0  0  0  0
    1.9410    0.1708   -2.1575 H   0  0  0  0  0  0  0  0  0  0  0  0
    4.1377   -0.8425   -0.1952 H   0  0  0  0  0  0  0  0  0  0  0  0
    0.3046   -3.9011    0.5574 H   0  0  0  0  0  0  0  0  0  0  0  0
    4.4715   -3.0304    0.8925 H   0  0  0  0  0  0  0  0  0  0  0  0
    2.5440   -4.5444    1.2710 H   0  0  0  0  0  0  0  0  0  0  0  0
   -1.9386   -0.0471    1.8470 H   0  0  0  0  0  0  0  0  0  0  0  0
   -3.4492   -2.0827   -1.6384 H   0  0  0  0  0  0  0  0  0  0  0  0
   -3.8402    1.5270    1.7443 H   0  0  0  0  0  0  0  0  0  0  0  0
   -5.3466   -0.5024   -1.7310 H   0  0  0  0  0  0  0  0  0  0  0  0
   -5.5468    1.3042   -0.0426 H   0  0  0  0  0  0  0  0  0  0  0  0
    0.9453    4.5868   -0.5492 H   0  0  0  0  0  0  0  0  0  0  0  0
  1 13  1  0  0  0  0
  1 22  1  0  0  0  0
  2  7  1  0  0  0  0
  2  8  1  0  0  0  0
  3 18  2  0  0  0  0
  4 22  2  0  0  0  0
  5 18  1  0  0  0  0
  5 22  1  0  0  0  0
  5 35  1  0  0  0  0
  6  7  1  0  0  0  0
  6 10  1  0  0  0  0
  6 11  2  0  0  0  0
  7 12  2  0  0  0  0
  8  9  1  0  0  0  0
  8 23  1  0  0  0  0
  8 24  1  0  0  0  0
  9 16  2  0  0  0  0
  9 17  1  0  0  0  0
 10 13  2  0  0  0  0
 10 25  1  0  0  0  0
 11 14  1  0  0  0  0
 11 26  1  0  0  0  0
 12 15  1  0  0  0  0
 12 27  1  0  0  0  0
 13 18  1  0  0  0  0
 14 15  2  0  0  0  0
 14 28  1  0  0  0  0
 15 29  1  0  0  0  0
 16 19  1  0  0  0  0
 16 30  1  0  0  0  0
 17 20  2  0  0  0  0
 17 31  1  0  0  0  0
 19 21  2  0  0  0  0
 19 32  1  0  0  0  0
 20 21  1  0  0  0  0
 20 33  1  0  0  0  0
 21 34  1  0  0  0  0
M  END
> <PUBCHEM_COMPOUND_CID>
1205868

> <PUBCHEM_CONFORMER_RMSD>
0.8

> <PUBCHEM_CONFORMER_DIVERSEORDER>
2
31
46
6
30
39
9
32
43
48
23
5
16
10
28
26
15
38
17
35
27
19
41
45
4
3
44
20
36
34
25
22
13
1
18
24
12
40
21
29
14
8
33
47
11
42
37
7

> <PUBCHEM_MMFF94_PARTIAL_CHARGES>
33
1 -0.24
10 -0.18
11 -0.15
12 -0.15
13 0.12
14 -0.15
15 -0.15
16 -0.15
17 -0.15
18 0.62
19 -0.15
2 -0.36
20 -0.15
21 -0.15
22 0.77
25 0.15
26 0.15
27 0.15
28 0.15
29 0.15
3 -0.57
30 0.15
31 0.15
32 0.15
33 0.15
34 0.15
35 0.37
4 -0.57
5 -0.49
6 0.03
7 0.08
8 0.42
9 -0.14

> <PUBCHEM_EFFECTIVE_ROTOR_COUNT>
4.4

> <PUBCHEM_PHARMACOPHORE_FEATURES>
6
1 2 acceptor
1 3 acceptor
1 5 donor
5 1 5 13 18 22 rings
6 6 7 11 12 14 15 rings
6 9 16 17 19 20 21 rings

> <PUBCHEM_HEAVY_ATOM_COUNT>
22

> <PUBCHEM_ATOM_DEF_STEREO_COUNT>
0

> <PUBCHEM_ATOM_UDEF_STEREO_COUNT>
0

> <PUBCHEM_BOND_DEF_STEREO_COUNT>
1

> <PUBCHEM_BOND_UDEF_STEREO_COUNT>
0

> <PUBCHEM_ISOTOPIC_ATOM_COUNT>
0

> <PUBCHEM_COMPONENT_COUNT>
1

> <PUBCHEM_CACTVS_TAUTO_COUNT>
3

> <PUBCHEM_CONFORMER_ID>
0012666C00000002

> <PUBCHEM_MMFF94_ENERGY>
61.4762

> <PUBCHEM_FEATURE_SELFOVERLAP>
30.447

> <PUBCHEM_SHAPE_FINGERPRINT>
10165383 225 17469925471177234689
104564 63 17908151975315205970
11370993 70 17909537699368944553
11582403 64 16267687593179050832
11725454 13 16050967301656437968
12035759 4 17901420838550523102
12156800 1 17032432719389886385
12422481 6 16754687196058352057
12553582 1 18266474113008542339
12788726 201 17901947444264397242
13004483 165 17976250244913514234
13134695 92 18338790126633390015
13294875 104 18269275845072399876
13965767 371 17828738949003441549
14081887 123 17908972219679500450
14466204 15 18267856358513142336
14713325 29 16531201042691331020
14790565 3 18189905399520387820
14866123 147 16315831371943718723
15420108 30 17986367062445051938
17980427 23 17917698094281528695
18335252 114 18048299065509572069
192875 21 18272926095001735447
20567600 299 18341887481338494069
20600515 1 18336834069788938742
20671657 1 18340766048092215631
21315764 21 18261114050349084949
21524375 3 17908997838959207662
21641784 216 17753914722360661790
21860390 5 18342741788777696567
2255824 54 18336552697743418935
22749437 52 18195240255475616421
23419403 2 17555130754756218896
23559900 14 18339349851752492451
238 59 18127703844492214243
2803657 2 17985856793958759425
283562 15 18120370952719138754
345986 75 17608915504728163754
350125 39 17974862970550960242
474 4 18263078967457834439
57124632 79 18195514003695586769
7808743 9 16966053488687257117
81228 2 17686917015812948266
84936 182 18196655309359592831
9981440 41 17762884859846382355

> <PUBCHEM_SHAPE_MULTIPOLES>
434.01
6.97
5.22
1.47
9.01
4.01
0.14
-4.22
0.14
-4.77
-1.09
-0.17
1.45
-1.11

> <PUBCHEM_SHAPE_SELFOVERLAP>
931.974

> <PUBCHEM_SHAPE_VOLUME>
240

> <PUBCHEM_COORDINATE_TYPE>
2
5
10

$$$$
