5824726
  -OEChem-01171812093D

 53 56  0     0  0  0  0  0  0999 V2000
   -1.4877    0.5033    0.5807 S   0  0  0  0  0  0  0  0  0  0  0  0
   -0.8713    1.3455   -0.4286 O   0  0  0  0  0  0  0  0  0  0  0  0
   -1.1338    0.6578    1.9805 O   0  0  0  0  0  0  0  0  0  0  0  0
    3.6850   -3.0161    0.2655 O   0  0  0  0  0  0  0  0  0  0  0  0
    1.6290    2.8236   -2.3943 O   0  0  0  0  0  0  0  0  0  0  0  0
    2.4220    4.8878   -1.8679 O   0  0  0  0  0  0  0  0  0  0  0  0
   -1.3685   -1.0681    0.1685 N   0  0  0  0  0  0  0  0  0  0  0  0
    3.2902   -0.3973    0.9261 N   0  0  0  0  0  0  0  0  0  0  0  0
    0.1046   -3.0109   -0.1781 C   0  0  0  0  0  0  0  0  0  0  0  0
   -0.1882   -1.6064    0.1674 C   0  0  0  0  0  0  0  0  0  0  0  0
    1.4180   -3.4831   -0.1442 C   0  0  0  0  0  0  0  0  0  0  0  0
   -3.2262    0.8175    0.4522 C   0  0  0  0  0  0  0  0  0  0  0  0
    2.2236   -1.1773    0.5815 C   0  0  0  0  0  0  0  0  0  0  0  0
    0.9574   -0.7449    0.5424 C   0  0  0  0  0  0  0  0  0  0  0  0
    2.5339   -2.5931    0.2357 C   0  0  0  0  0  0  0  0  0  0  0  0
   -3.8439    0.8464   -0.7858 C   0  0  0  0  0  0  0  0  0  0  0  0
   -0.9361   -3.8764   -0.5414 C   0  0  0  0  0  0  0  0  0  0  0  0
    1.6893   -4.8178   -0.4729 C   0  0  0  0  0  0  0  0  0  0  0  0
   -3.9372    1.0308    1.6213 C   0  0  0  0  0  0  0  0  0  0  0  0
   -5.2144    1.0961   -0.8580 C   0  0  0  0  0  0  0  0  0  0  0  0
   -5.9462    1.3131    0.3096 C   0  0  0  0  0  0  0  0  0  0  0  0
   -5.3077    1.2804    1.5492 C   0  0  0  0  0  0  0  0  0  0  0  0
   -0.6609   -5.2049   -0.8676 C   0  0  0  0  0  0  0  0  0  0  0  0
    3.4503    0.9814    0.7494 C   0  0  0  0  0  0  0  0  0  0  0  0
   -3.0892    0.6173   -2.0544 C   0  0  0  0  0  0  0  0  0  0  0  0
    0.6496   -5.6748   -0.8334 C   0  0  0  0  0  0  0  0  0  0  0  0
   -7.4117    1.5806    0.2328 C   0  0  0  0  0  0  0  0  0  0  0  0
    2.8330    1.6351   -0.3243 C   0  0  0  0  0  0  0  0  0  0  0  0
    4.2309    1.7245    1.6440 C   0  0  0  0  0  0  0  0  0  0  0  0
    2.9936    3.0095   -0.5008 C   0  0  0  0  0  0  0  0  0  0  0  0
    4.3915    3.0988    1.4677 C   0  0  0  0  0  0  0  0  0  0  0  0
    3.7729    3.7413    0.3953 C   0  0  0  0  0  0  0  0  0  0  0  0
    2.3481    3.6802   -1.6183 C   0  0  0  0  0  0  0  0  0  0  0  0
    0.8479    0.2798    0.8529 H   0  0  0  0  0  0  0  0  0  0  0  0
   -1.9666   -3.5330   -0.5757 H   0  0  0  0  0  0  0  0  0  0  0  0
    2.7029   -5.2094   -0.4541 H   0  0  0  0  0  0  0  0  0  0  0  0
   -3.4707    1.0083    2.6007 H   0  0  0  0  0  0  0  0  0  0  0  0
   -5.7177    1.1228   -1.8217 H   0  0  0  0  0  0  0  0  0  0  0  0
    4.0874   -0.8849    1.3215 H   0  0  0  0  0  0  0  0  0  0  0  0
   -5.8674    1.4454    2.4661 H   0  0  0  0  0  0  0  0  0  0  0  0
   -1.4699   -5.8729   -1.1485 H   0  0  0  0  0  0  0  0  0  0  0  0
   -3.7779    0.4565   -2.8929 H   0  0  0  0  0  0  0  0  0  0  0  0
   -2.4660   -0.2791   -2.0156 H   0  0  0  0  0  0  0  0  0  0  0  0
   -2.4853    1.4920   -2.3132 H   0  0  0  0  0  0  0  0  0  0  0  0
    0.8624   -6.7091   -1.0877 H   0  0  0  0  0  0  0  0  0  0  0  0
   -7.6625    2.1389   -0.6756 H   0  0  0  0  0  0  0  0  0  0  0  0
   -7.7505    2.1831    1.0825 H   0  0  0  0  0  0  0  0  0  0  0  0
   -7.9661    0.6368    0.2305 H   0  0  0  0  0  0  0  0  0  0  0  0
    2.2595    1.0535   -1.0407 H   0  0  0  0  0  0  0  0  0  0  0  0
    4.7182    1.2365    2.4847 H   0  0  0  0  0  0  0  0  0  0  0  0
    4.9981    3.6684    2.1656 H   0  0  0  0  0  0  0  0  0  0  0  0
    3.9104    4.8128    0.2758 H   0  0  0  0  0  0  0  0  0  0  0  0
    1.1976    3.2854   -3.1446 H   0  0  0  0  0  0  0  0  0  0  0  0
  1  2  2  0  0  0  0
  1  3  2  0  0  0  0
  1  7  1  0  0  0  0
  1 12  1  0  0  0  0
  4 15  2  0  0  0  0
  5 33  1  0  0  0  0
  5 53  1  0  0  0  0
  6 33  2  0  0  0  0
  7 10  2  0  0  0  0
  8 13  1  0  0  0  0
  8 24  1  0  0  0  0
  8 39  1  0  0  0  0
  9 10  1  0  0  0  0
  9 11  1  0  0  0  0
  9 17  2  0  0  0  0
 10 14  1  0  0  0  0
 11 15  1  0  0  0  0
 11 18  2  0  0  0  0
 12 16  2  0  0  0  0
 12 19  1  0  0  0  0
 13 14  2  0  0  0  0
 13 15  1  0  0  0  0
 14 34  1  0  0  0  0
 16 20  1  0  0  0  0
 16 25  1  0  0  0  0
 17 23  1  0  0  0  0
 17 35  1  0  0  0  0
 18 26  1  0  0  0  0
 18 36  1  0  0  0  0
 19 22  2  0  0  0  0
 19 37  1  0  0  0  0
 20 21  2  0  0  0  0
 20 38  1  0  0  0  0
 21 22  1  0  0  0  0
 21 27  1  0  0  0  0
 22 40  1  0  0  0  0
 23 26  2  0  0  0  0
 23 41  1  0  0  0  0
 24 28  1  0  0  0  0
 24 29  2  0  0  0  0
 25 42  1  0  0  0  0
 25 43  1  0  0  0  0
 25 44  1  0  0  0  0
 26 45  1  0  0  0  0
 27 46  1  0  0  0  0
 27 47  1  0  0  0  0
 27 48  1  0  0  0  0
 28 30  2  0  0  0  0
 28 49  1  0  0  0  0
 29 31  1  0  0  0  0
 29 50  1  0  0  0  0
 30 32  1  0  0  0  0
 30 33  1  0  0  0  0
 31 32  2  0  0  0  0
 31 51  1  0  0  0  0
 32 52  1  0  0  0  0
M  END
> <PUBCHEM_COMPOUND_CID>
5824726

> <PUBCHEM_CONFORMER_RMSD>
0.8

> <PUBCHEM_CONFORMER_DIVERSEORDER>
4
28
24
17
23
8
10
41
30
27
25
11
15
9
3
18
20
6
39
16
5
12
1
32
2
13
22
31
29
14
33
21
7
40
26
19
34
38
37
43
42
45
35
36
44

> <PUBCHEM_MMFF94_PARTIAL_CHARGES>
47
1 1.5
10 0.35
11 0.09
12 -0.01
13 0.11
14 -0.14
15 0.47
16 -0.14
17 -0.15
18 -0.15
19 -0.15
2 -0.65
20 -0.15
21 -0.14
22 -0.15
23 -0.15
24 0.1
25 0.14
26 -0.15
27 0.14
28 -0.15
29 -0.15
3 -0.65
30 0.09
31 -0.15
32 -0.15
33 0.63
34 0.15
35 0.15
36 0.15
37 0.15
38 0.15
39 0.4
4 -0.57
40 0.15
41 0.15
45 0.15
49 0.15
5 -0.65
50 0.15
51 0.15
52 0.15
53 0.5
6 -0.57
7 -0.64
8 -0.6
9 0.09

> <PUBCHEM_EFFECTIVE_ROTOR_COUNT>
5

> <PUBCHEM_PHARMACOPHORE_FEATURES>
14
1 2 acceptor
1 3 acceptor
1 4 acceptor
1 5 acceptor
1 6 acceptor
1 7 acceptor
1 7 donor
1 8 cation
1 8 donor
3 5 6 33 anion
6 12 16 19 20 21 22 rings
6 24 28 29 30 31 32 rings
6 9 10 11 13 14 15 rings
6 9 11 17 18 23 26 rings

> <PUBCHEM_HEAVY_ATOM_COUNT>
33

> <PUBCHEM_ATOM_DEF_STEREO_COUNT>
0

> <PUBCHEM_ATOM_UDEF_STEREO_COUNT>
0

> <PUBCHEM_BOND_DEF_STEREO_COUNT>
1

> <PUBCHEM_BOND_UDEF_STEREO_COUNT>
0

> <PUBCHEM_ISOTOPIC_ATOM_COUNT>
0

> <PUBCHEM_COMPONENT_COUNT>
1

> <PUBCHEM_CACTVS_TAUTO_COUNT>
3

> <PUBCHEM_CONFORMER_ID>
0058E0D600000004

> <PUBCHEM_MMFF94_ENERGY>
117.2818

> <PUBCHEM_FEATURE_SELFOVERLAP>
71.179

> <PUBCHEM_SHAPE_FINGERPRINT>
10673678 19 18413389848064589793
10937287 8 18341049739029302106
11045515 52 17474678243374740715
11763715 3 17331426185033429679
12107183 9 18265591335038050002
12422481 6 17821725074510046157
12608794 3 17979876568270906746
12788726 201 17400927895493435118
13583140 156 17023441110897779233
1361 2 18410852153362059649
13690498 29 16831232996287158831
13965767 371 18191001565405485584
14004853 49 18195269899630258387
14294032 229 17979364375417783889
14295345 954 18048307844085511077
14705955 166 16901553912362765992
14790565 3 18268710696222505435
15297060 5 18201437033878783752
15420108 30 18265033912507331384
15439362 3 18341893009357172752
19311894 1 17761236675106566988
19319366 153 18130781248921364715
19427546 62 18411979148734041411
1979834 28 18334295357585731217
20642791 105 17907277099388309514
20739085 24 18265337213785166520
21049683 271 18122916322100367542
22149856 69 18341348742906726161
23559900 14 18261970548062345627
23929065 36 17408220917698013376
283562 15 17689987256316069194
57527358 35 15335974475592082946
6034566 193 18118972631135827005
6058803 2 17684638115467957320
6287921 2 18337955584686613805
6523845 18 17980518781175765072
653340 110 17620462949847872592
6609424 69 17168137919097548269
6677587 24 16890538699531393661

> <PUBCHEM_SHAPE_MULTIPOLES>
643.67
11.15
7.79
1.65
19.44
9.35
-0.39
-12.9
2.91
-9.24
-3.44
0
-1.73
-0.86

> <PUBCHEM_SHAPE_SELFOVERLAP>
1411.966

> <PUBCHEM_SHAPE_VOLUME>
347.9

> <PUBCHEM_COORDINATE_TYPE>
2
5
10

$$$$
