3752897
  -OEChem-01171811593D

 42 43  0     1  0  0  0  0  0999 V2000
   -5.4154    0.4483    0.9545 O   0  0  0  0  0  0  0  0  0  0  0  0
    2.0641    0.7529   -0.0879 N   0  0  2  0  0  0  0  0  0  0  0  0
    4.9290   -0.6166    0.0658 N   0  0  1  0  0  0  0  0  0  0  0  0
   -4.0539   -0.8689   -0.4490 N   0  0  0  0  0  0  0  0  0  0  0  0
    1.8736    0.0099    1.1609 C   0  0  0  0  0  0  0  0  0  0  0  0
    3.3813    1.3741   -0.2127 C   0  0  0  0  0  0  0  0  0  0  0  0
    3.0683   -0.7834    1.7001 C   0  0  0  0  0  0  0  0  0  0  0  0
    4.3774    0.3924   -0.8463 C   0  0  0  0  0  0  0  0  0  0  0  0
    3.9094   -1.5019    0.6458 C   0  0  0  0  0  0  0  0  0  0  0  0
    0.9890    1.7305   -0.2603 C   0  0  0  0  0  0  0  0  0  0  0  0
    5.9411   -1.4128   -0.6362 C   0  0  0  0  0  0  0  0  0  0  0  0
   -0.3467    1.0419   -0.3104 C   0  0  0  0  0  0  0  0  0  0  0  0
   -0.5003   -0.1009   -1.0845 C   0  0  0  0  0  0  0  0  0  0  0  0
   -1.4111    1.5571    0.4183 C   0  0  0  0  0  0  0  0  0  0  0  0
   -1.7395   -0.7395   -1.1308 C   0  0  0  0  0  0  0  0  0  0  0  0
   -2.6502    0.9185    0.3720 C   0  0  0  0  0  0  0  0  0  0  0  0
   -2.8145   -0.2298   -0.4026 C   0  0  0  0  0  0  0  0  0  0  0  0
   -5.2382   -0.5088    0.2079 C   0  0  0  0  0  0  0  0  0  0  0  0
   -6.3632   -1.4631   -0.1046 C   0  0  0  0  0  0  0  0  0  0  0  0
    1.0658   -0.7196    1.0307 H   0  0  0  0  0  0  0  0  0  0  0  0
    1.5567    0.6837    1.9693 H   0  0  0  0  0  0  0  0  0  0  0  0
    3.7482    1.7857    0.7361 H   0  0  0  0  0  0  0  0  0  0  0  0
    3.3247    2.2270   -0.9029 H   0  0  0  0  0  0  0  0  0  0  0  0
    2.6811   -1.5311    2.4050 H   0  0  0  0  0  0  0  0  0  0  0  0
    3.7109   -0.1239    2.2987 H   0  0  0  0  0  0  0  0  0  0  0  0
    3.9243   -0.0821   -1.7282 H   0  0  0  0  0  0  0  0  0  0  0  0
    5.2120    0.9999   -1.2221 H   0  0  0  0  0  0  0  0  0  0  0  0
    4.4185   -2.3232    1.1674 H   0  0  0  0  0  0  0  0  0  0  0  0
    3.2783   -1.9628   -0.1246 H   0  0  0  0  0  0  0  0  0  0  0  0
    1.1060    2.2659   -1.2117 H   0  0  0  0  0  0  0  0  0  0  0  0
    1.0180    2.4837    0.5382 H   0  0  0  0  0  0  0  0  0  0  0  0
    5.5124   -1.9823   -1.4689 H   0  0  0  0  0  0  0  0  0  0  0  0
    6.4253   -2.1159    0.0508 H   0  0  0  0  0  0  0  0  0  0  0  0
    6.7364   -0.7695   -1.0295 H   0  0  0  0  0  0  0  0  0  0  0  0
    0.3181   -0.5067   -1.6728 H   0  0  0  0  0  0  0  0  0  0  0  0
   -1.2947    2.4513    1.0243 H   0  0  0  0  0  0  0  0  0  0  0  0
   -1.8542   -1.6317   -1.7413 H   0  0  0  0  0  0  0  0  0  0  0  0
   -3.4344    1.3717    0.9622 H   0  0  0  0  0  0  0  0  0  0  0  0
   -4.0923   -1.6997   -1.0359 H   0  0  0  0  0  0  0  0  0  0  0  0
   -6.5784   -1.4419   -1.1766 H   0  0  0  0  0  0  0  0  0  0  0  0
   -7.2621   -1.1691    0.4446 H   0  0  0  0  0  0  0  0  0  0  0  0
   -6.0828   -2.4776    0.1924 H   0  0  0  0  0  0  0  0  0  0  0  0
  1 18  2  0  0  0  0
  2  5  1  0  0  0  0
  2  6  1  0  0  0  0
  2 10  1  0  0  0  0
  3  8  1  0  0  0  0
  3  9  1  0  0  0  0
  3 11  1  0  0  0  0
  4 17  1  0  0  0  0
  4 18  1  0  0  0  0
  4 39  1  0  0  0  0
  5  7  1  0  0  0  0
  5 20  1  0  0  0  0
  5 21  1  0  0  0  0
  6  8  1  0  0  0  0
  6 22  1  0  0  0  0
  6 23  1  0  0  0  0
  7  9  1  0  0  0  0
  7 24  1  0  0  0  0
  7 25  1  0  0  0  0
  8 26  1  0  0  0  0
  8 27  1  0  0  0  0
  9 28  1  0  0  0  0
  9 29  1  0  0  0  0
 10 12  1  0  0  0  0
 10 30  1  0  0  0  0
 10 31  1  0  0  0  0
 11 32  1  0  0  0  0
 11 33  1  0  0  0  0
 11 34  1  0  0  0  0
 12 13  2  0  0  0  0
 12 14  1  0  0  0  0
 13 15  1  0  0  0  0
 13 35  1  0  0  0  0
 14 16  2  0  0  0  0
 14 36  1  0  0  0  0
 15 17  2  0  0  0  0
 15 37  1  0  0  0  0
 16 17  1  0  0  0  0
 16 38  1  0  0  0  0
 18 19  1  0  0  0  0
 19 40  1  0  0  0  0
 19 41  1  0  0  0  0
 19 42  1  0  0  0  0
M  END
> <PUBCHEM_COMPOUND_CID>
3752897

> <PUBCHEM_CONFORMER_RMSD>
0.8

> <PUBCHEM_CONFORMER_DIVERSEORDER>
1
25
19
30
26
16
5
28
12
17
21
24
29
13
18
27
31
8
4
2
3
14
7
9
15
10
11
20
6
22
23

> <PUBCHEM_MMFF94_PARTIAL_CHARGES>
23
1 -0.57
10 0.41
11 0.27
12 -0.14
13 -0.15
14 -0.15
15 -0.15
16 -0.15
17 0.12
18 0.57
19 0.06
2 -0.81
3 -0.81
35 0.15
36 0.15
37 0.15
38 0.15
39 0.37
4 -0.55
5 0.27
6 0.27
8 0.27
9 0.27

> <PUBCHEM_EFFECTIVE_ROTOR_COUNT>
5.4

> <PUBCHEM_PHARMACOPHORE_FEATURES>
6
1 1 acceptor
1 2 cation
1 3 cation
1 4 donor
6 12 13 14 15 16 17 rings
7 2 3 5 6 7 8 9 rings

> <PUBCHEM_HEAVY_ATOM_COUNT>
19

> <PUBCHEM_ATOM_DEF_STEREO_COUNT>
0

> <PUBCHEM_ATOM_UDEF_STEREO_COUNT>
0

> <PUBCHEM_BOND_DEF_STEREO_COUNT>
0

> <PUBCHEM_BOND_UDEF_STEREO_COUNT>
0

> <PUBCHEM_ISOTOPIC_ATOM_COUNT>
0

> <PUBCHEM_COMPONENT_COUNT>
1

> <PUBCHEM_CACTVS_TAUTO_COUNT>
2

> <PUBCHEM_CONFORMER_ID>
003943C100000001

> <PUBCHEM_MMFF94_ENERGY>
56.2862

> <PUBCHEM_FEATURE_SELFOVERLAP>
30.446

> <PUBCHEM_SHAPE_FINGERPRINT>
10366900 7 16370728114991135484
117890 112 8935001464491526782
12236239 1 18411423916351365641
12553582 1 18337093619125765158
12596602 18 17917711322580184995
12616999 72 16225758610780622568
12633257 1 15841543094148410974
12714333 28 7853857182947664527
13167823 11 18408040719262388633
13533116 47 18338518641803383140
13551218 46 18131354072477585895
13862211 1 18059855099767262071
14251764 18 17775566472220891356
14251764 30 18339926996398727766
14251764 38 12966860030422858067
14573314 32 16805313388894239621
14576447 43 18114461172324362290
15188451 53 16558452197983375359
15537594 2 18333725814904989922
17349148 13 17917712448457656565
17834072 33 18187366527664450404
17844677 252 17894912932051899693
1813 80 18260555497840295084
19422 9 18410013208989883100
19784866 240 18261116274650832549
200 152 17676203550631762812
20645477 70 18186517709425717492
20871999 31 15140957327481776061
21150785 3 13334739059682881595
21267235 1 18412550894685110566
21298829 104 9583517629116852458
21637258 2 18261101972188262154
2215653 11 17603859031868121519
22950370 63 18408041814278459101
23016692 55 18408326566310078534
23402539 116 15410890752332342029
23522609 53 18122377689597947132
23559900 14 17458912668345904357
2767999 5 9943805582094428859
2838139 119 11671780447242120131
2871803 45 17531243954974306488
3004659 81 18186799188291193952
3472631 163 10881692299359610506
34797466 226 14201408165841938547
351380 180 13398633852898370499
351380 3 18409727361203630735
4072396 5 17917994980075352277
465052 167 18341055206733763951
5104073 3 17774163534465849075
57724786 102 14045442493366630402
6327066 14 16229168351537922204
7970288 3 18335696101166594722

> <PUBCHEM_SHAPE_MULTIPOLES>
370.2
13.85
1.64
1.14
6.75
0.15
-0.19
-7.44
-0.09
-0.55
-0.01
-0.54
-0.19
-0.66

> <PUBCHEM_SHAPE_SELFOVERLAP>
757.214

> <PUBCHEM_SHAPE_VOLUME>
213.2

> <PUBCHEM_COORDINATE_TYPE>
2
5
10

$$$$
