1201178
  -OEChem-01171811553D

 24 24  0     0  0  0  0  0  0999 V2000
    5.5546   -0.2921    0.0017 O   0  0  0  0  0  0  0  0  0  0  0  0
   -0.8087   -1.5668   -0.0004 O   0  0  0  0  0  0  0  0  0  0  0  0
   -5.6591   -0.7597    0.0010 O   0  0  0  0  0  0  0  0  0  0  0  0
   -4.9167    1.3976    0.0002 O   0  0  0  0  0  0  0  0  0  0  0  0
    0.0819    0.6060   -0.0004 N   0  0  0  0  0  0  0  0  0  0  0  0
    1.4798    0.3765   -0.0004 C   0  0  0  0  0  0  0  0  0  0  0  0
    2.3424    1.4591   -0.0002 C   0  0  0  0  0  0  0  0  0  0  0  0
    1.9512   -0.9250   -0.0005 C   0  0  0  0  0  0  0  0  0  0  0  0
    3.7189    1.2331    0.0000 C   0  0  0  0  0  0  0  0  0  0  0  0
    3.3278   -1.1508   -0.0002 C   0  0  0  0  0  0  0  0  0  0  0  0
    4.2116   -0.0718   -0.0001 C   0  0  0  0  0  0  0  0  0  0  0  0
   -0.9281   -0.3472   -0.0004 C   0  0  0  0  0  0  0  0  0  0  0  0
   -2.2746    0.3004   -0.0004 C   0  0  0  0  0  0  0  0  0  0  0  0
   -3.3788   -0.4565   -0.0001 C   0  0  0  0  0  0  0  0  0  0  0  0
   -4.7021    0.1972    0.0002 C   0  0  0  0  0  0  0  0  0  0  0  0
    1.9691    2.4793   -0.0001 H   0  0  0  0  0  0  0  0  0  0  0  0
    1.3343   -1.8111   -0.0005 H   0  0  0  0  0  0  0  0  0  0  0  0
   -0.1866    1.5879   -0.0003 H   0  0  0  0  0  0  0  0  0  0  0  0
    4.3970    2.0824    0.0005 H   0  0  0  0  0  0  0  0  0  0  0  0
    3.7069   -2.1692    0.0001 H   0  0  0  0  0  0  0  0  0  0  0  0
   -2.3260    1.3843   -0.0003 H   0  0  0  0  0  0  0  0  0  0  0  0
   -3.3439   -1.5405   -0.0001 H   0  0  0  0  0  0  0  0  0  0  0  0
    6.0145    0.5649    0.0020 H   0  0  0  0  0  0  0  0  0  0  0  0
   -6.5620   -0.3763    0.0015 H   0  0  0  0  0  0  0  0  0  0  0  0
  1 11  1  0  0  0  0
  1 23  1  0  0  0  0
  2 12  2  0  0  0  0
  3 15  1  0  0  0  0
  3 24  1  0  0  0  0
  4 15  2  0  0  0  0
  5  6  1  0  0  0  0
  5 12  1  0  0  0  0
  5 18  1  0  0  0  0
  6  7  2  0  0  0  0
  6  8  1  0  0  0  0
  7  9  1  0  0  0  0
  7 16  1  0  0  0  0
  8 10  2  0  0  0  0
  8 17  1  0  0  0  0
  9 11  2  0  0  0  0
  9 19  1  0  0  0  0
 10 11  1  0  0  0  0
 10 20  1  0  0  0  0
 12 13  1  0  0  0  0
 13 14  2  0  0  0  0
 13 21  1  0  0  0  0
 14 15  1  0  0  0  0
 14 22  1  0  0  0  0
M  END
> <PUBCHEM_COMPOUND_CID>
1201178

> <PUBCHEM_CONFORMER_RMSD>
0.6

> <PUBCHEM_CONFORMER_DIVERSEORDER>
1
7
6
2
4
5
3

> <PUBCHEM_MMFF94_PARTIAL_CHARGES>
24
1 -0.53
10 -0.15
11 0.08
12 0.62
13 -0.14
14 -0.14
15 0.71
16 0.15
17 0.15
18 0.37
19 0.15
2 -0.57
20 0.15
21 0.15
22 0.15
23 0.45
24 0.5
3 -0.65
4 -0.57
5 -0.55
6 0.12
7 -0.15
8 -0.15
9 -0.15

> <PUBCHEM_EFFECTIVE_ROTOR_COUNT>
4

> <PUBCHEM_PHARMACOPHORE_FEATURES>
7
1 1 donor
1 2 acceptor
1 3 acceptor
1 4 acceptor
1 5 donor
3 3 4 15 anion
6 6 7 8 9 10 11 rings

> <PUBCHEM_HEAVY_ATOM_COUNT>
15

> <PUBCHEM_ATOM_DEF_STEREO_COUNT>
0

> <PUBCHEM_ATOM_UDEF_STEREO_COUNT>
0

> <PUBCHEM_BOND_DEF_STEREO_COUNT>
1

> <PUBCHEM_BOND_UDEF_STEREO_COUNT>
0

> <PUBCHEM_ISOTOPIC_ATOM_COUNT>
0

> <PUBCHEM_COMPONENT_COUNT>
1

> <PUBCHEM_CACTVS_TAUTO_COUNT>
4

> <PUBCHEM_CONFORMER_ID>
0012541A00000001

> <PUBCHEM_MMFF94_ENERGY>
38.5706

> <PUBCHEM_FEATURE_SELFOVERLAP>
35.576

> <PUBCHEM_SHAPE_FINGERPRINT>
11287383 113 18261677055651024587
11401426 45 18059852869982818257
11471102 20 18411138047965664748
12107183 9 17691408508143400033
12236239 1 17917712400511305082
13167823 11 18341890822839127959
13533116 47 14189303612894450542
14123238 8 18040997345241617999
1420 363 18041003964393051747
15196674 1 18338517550960603334
17834072 33 18343300405071711455
17834076 25 18408041818900467574
18186145 218 18040425616253743815
200 152 18059855060642992657
20279233 1 18040443195497046259
20645477 70 18340488876488411630
21267235 1 18412271622963299558
212847 35 18409450301864847964
23402539 116 18131626786042525445
23402655 69 18343018891276855812
23559900 14 18201434831061811376
26918003 58 18408323297750178602
3545911 37 18412546526265552907
366044 4 18409729569096571203
4047638 21 18408604781812591816
42 15 18333450936860213709
4214541 1 18410573990079538085
42788 4 18410855464433698085
4463277 17 18410013239318320396
4990 188 18202007624531531951
5104073 3 18337672022049667514
522135 26 18335138691841381730
542803 24 17240768380072976069
69090 78 18412260657616621175
7495541 125 17202761643794013675
77779 3 18410012148006016141

> <PUBCHEM_SHAPE_MULTIPOLES>
280.23
12.05
1.34
0.58
8.5
0.1
0
0.48
0
-0.35
0
-0.04
0
0

> <PUBCHEM_SHAPE_SELFOVERLAP>
584.599

> <PUBCHEM_SHAPE_VOLUME>
157.6

> <PUBCHEM_COORDINATE_TYPE>
2
5
10

$$$$
