79793
  -OEChem-01171812043D

 16 16  0     0  0  0  0  0  0999 V2000
    2.5629   -0.8204    0.4782 S   0  0  0  0  0  0  0  0  0  0  0  0
    0.3963   -2.7371   -0.3092 S   0  0  0  0  0  0  0  0  0  0  0  0
    0.5532    2.3408   -0.3638 O   0  0  0  0  0  0  0  0  0  0  0  0
   -1.5950    0.0908    1.4031 O   0  0  0  0  0  0  0  0  0  0  0  0
   -3.3191    0.0507   -0.0712 O   0  0  0  0  0  0  0  0  0  0  0  0
    0.2937    0.0138   -0.4103 N   0  0  0  0  0  0  0  0  0  0  0  0
   -1.0715    0.0147   -0.9322 C   0  0  0  0  0  0  0  0  0  0  0  0
    0.9778    1.2038   -0.1757 C   0  0  0  0  0  0  0  0  0  0  0  0
    2.3617    0.9612    0.3575 C   0  0  0  0  0  0  0  0  0  0  0  0
    0.9551   -1.1711   -0.1305 C   0  0  0  0  0  0  0  0  0  0  0  0
   -2.1151    0.0527    0.1543 C   0  0  0  0  0  0  0  0  0  0  0  0
   -1.2515   -0.8578   -1.5649 H   0  0  0  0  0  0  0  0  0  0  0  0
   -1.2053    0.9186   -1.5368 H   0  0  0  0  0  0  0  0  0  0  0  0
    3.0987    1.3805   -0.3319 H   0  0  0  0  0  0  0  0  0  0  0  0
    2.4602    1.4218    1.3436 H   0  0  0  0  0  0  0  0  0  0  0  0
   -2.2935    0.1158    2.0914 H   0  0  0  0  0  0  0  0  0  0  0  0
  1  9  1  0  0  0  0
  1 10  1  0  0  0  0
  2 10  2  0  0  0  0
  3  8  2  0  0  0  0
  4 11  1  0  0  0  0
  4 16  1  0  0  0  0
  5 11  2  0  0  0  0
  6  7  1  0  0  0  0
  6  8  1  0  0  0  0
  6 10  1  0  0  0  0
  7 11  1  0  0  0  0
  7 12  1  0  0  0  0
  7 13  1  0  0  0  0
  8  9  1  0  0  0  0
  9 14  1  0  0  0  0
  9 15  1  0  0  0  0
M  END
> <PUBCHEM_COMPOUND_CID>
79793

> <PUBCHEM_CONFORMER_RMSD>
0.6

> <PUBCHEM_CONFORMER_DIVERSEORDER>
2
5
3
6
4
1

> <PUBCHEM_MMFF94_PARTIAL_CHARGES>
12
1 -0.37
10 0.58
11 0.66
16 0.5
2 -0.38
3 -0.57
4 -0.65
5 -0.57
6 -0.42
7 0.36
8 0.57
9 0.29

> <PUBCHEM_EFFECTIVE_ROTOR_COUNT>
2.6

> <PUBCHEM_PHARMACOPHORE_FEATURES>
6
1 2 acceptor
1 3 acceptor
1 4 acceptor
1 5 acceptor
3 4 5 11 anion
5 1 6 8 9 10 rings

> <PUBCHEM_HEAVY_ATOM_COUNT>
11

> <PUBCHEM_ATOM_DEF_STEREO_COUNT>
0

> <PUBCHEM_ATOM_UDEF_STEREO_COUNT>
0

> <PUBCHEM_BOND_DEF_STEREO_COUNT>
0

> <PUBCHEM_BOND_UDEF_STEREO_COUNT>
0

> <PUBCHEM_ISOTOPIC_ATOM_COUNT>
0

> <PUBCHEM_COMPONENT_COUNT>
1

> <PUBCHEM_CACTVS_TAUTO_COUNT>
1

> <PUBCHEM_CONFORMER_ID>
000137B100000002

> <PUBCHEM_MMFF94_ENERGY>
12.1033

> <PUBCHEM_FEATURE_SELFOVERLAP>
30.507

> <PUBCHEM_SHAPE_FINGERPRINT>
10219947 1 18410290298372149570
14251717 144 18410845564961699823
14993402 34 18411981390442673590
161256 15 18055356829846340966
16945 1 18270957938611438558
193761 8 17833547178055355038
20201158 50 18115585942027188395
20871998 22 17981890744017325206
21040471 1 18195808694186096052
2748010 2 18193255418070755804
29004967 10 18334858268794081050
5084963 1 18059858384694472037
528862 383 18335133224158148914
53812653 11 18413108359923278902

> <PUBCHEM_SHAPE_MULTIPOLES>
211.48
3.6
2.27
0.9
1.74
0.81
0.14
-0.2
0.72
-1.04
-0.37
0.22
0
-0.03

> <PUBCHEM_SHAPE_SELFOVERLAP>
406.368

> <PUBCHEM_SHAPE_VOLUME>
130.4

> <PUBCHEM_COORDINATE_TYPE>
2
5
10

$$$$
