3170955
  -OEChem-01171812013D

 43 45  0     1  0  0  0  0  0999 V2000
    0.4224   -1.3405   -1.6049 O   0  0  0  0  0  0  0  0  0  0  0  0
   -0.6453   -0.6029    0.3494 N   0  0  0  0  0  0  0  0  0  0  0  0
    3.0510   -1.9673    1.5358 N   0  0  0  0  0  0  0  0  0  0  0  0
    3.1453   -2.2489   -0.7090 N   0  0  0  0  0  0  0  0  0  0  0  0
    3.8181   -2.9951    1.1461 N   0  0  0  0  0  0  0  0  0  0  0  0
    3.9028   -3.1996   -0.1758 N   0  0  0  0  0  0  0  0  0  0  0  0
    1.7596   -0.3804    0.1686 C   0  0  1  0  0  0  0  0  0  0  0  0
    2.4244    0.7698   -0.6356 C   0  0  0  0  0  0  0  0  0  0  0  0
    0.4456   -0.8463   -0.4812 C   0  0  0  0  0  0  0  0  0  0  0  0
    1.7805    2.0983   -0.4226 C   0  0  0  0  0  0  0  0  0  0  0  0
    2.6820   -1.5699    0.3448 C   0  0  0  0  0  0  0  0  0  0  0  0
   -2.0063   -0.8936    0.0933 C   0  0  0  0  0  0  0  0  0  0  0  0
   -3.0051   -0.0990    0.6333 C   0  0  0  0  0  0  0  0  0  0  0  0
   -4.3401   -0.4031    0.3672 C   0  0  0  0  0  0  0  0  0  0  0  0
    0.7322    2.5056   -1.2477 C   0  0  0  0  0  0  0  0  0  0  0  0
    2.2271    2.9336    0.6013 C   0  0  0  0  0  0  0  0  0  0  0  0
   -2.3086   -1.9850   -0.7065 C   0  0  0  0  0  0  0  0  0  0  0  0
   -2.6675    1.0766    1.4958 C   0  0  0  0  0  0  0  0  0  0  0  0
   -4.6594   -1.4981   -0.4359 C   0  0  0  0  0  0  0  0  0  0  0  0
   -3.6436   -2.2890   -0.9727 C   0  0  0  0  0  0  0  0  0  0  0  0
   -5.4473    0.4272    0.9295 C   0  0  0  0  0  0  0  0  0  0  0  0
    0.1302    3.7481   -1.0488 C   0  0  0  0  0  0  0  0  0  0  0  0
    1.6251    4.1762    0.8003 C   0  0  0  0  0  0  0  0  0  0  0  0
    0.5767    4.5833   -0.0249 C   0  0  0  0  0  0  0  0  0  0  0  0
    1.5465    0.0011    1.1776 H   0  0  0  0  0  0  0  0  0  0  0  0
    3.4856    0.8461   -0.3595 H   0  0  0  0  0  0  0  0  0  0  0  0
    2.4293    0.5298   -1.7077 H   0  0  0  0  0  0  0  0  0  0  0  0
   -0.4770    0.0049    1.1462 H   0  0  0  0  0  0  0  0  0  0  0  0
    0.3744    1.8651   -2.0494 H   0  0  0  0  0  0  0  0  0  0  0  0
    3.0413    2.6270    1.2527 H   0  0  0  0  0  0  0  0  0  0  0  0
   -1.5479   -2.6430   -1.1132 H   0  0  0  0  0  0  0  0  0  0  0  0
   -1.8662    1.6723    1.0437 H   0  0  0  0  0  0  0  0  0  0  0  0
   -3.4926    1.7779    1.6408 H   0  0  0  0  0  0  0  0  0  0  0  0
   -2.3435    0.7343    2.4843 H   0  0  0  0  0  0  0  0  0  0  0  0
   -5.6942   -1.7501   -0.6526 H   0  0  0  0  0  0  0  0  0  0  0  0
   -3.8928   -3.1462   -1.5915 H   0  0  0  0  0  0  0  0  0  0  0  0
   -5.4329    1.4340    0.4994 H   0  0  0  0  0  0  0  0  0  0  0  0
   -6.4285   -0.0047    0.7011 H   0  0  0  0  0  0  0  0  0  0  0  0
   -5.3783    0.4854    2.0208 H   0  0  0  0  0  0  0  0  0  0  0  0
   -0.6866    4.0647   -1.6906 H   0  0  0  0  0  0  0  0  0  0  0  0
    1.9720    4.8263    1.5982 H   0  0  0  0  0  0  0  0  0  0  0  0
    0.1077    5.5504    0.1304 H   0  0  0  0  0  0  0  0  0  0  0  0
    4.3059   -3.5843    1.8125 H   0  0  0  0  0  0  0  0  0  0  0  0
  1  9  2  0  0  0  0
  2  9  1  0  0  0  0
  2 12  1  0  0  0  0
  2 28  1  0  0  0  0
  3  5  1  0  0  0  0
  3 11  2  0  0  0  0
  4  6  2  0  0  0  0
  4 11  1  0  0  0  0
  5  6  1  0  0  0  0
  5 43  1  0  0  0  0
  7  8  1  0  0  0  0
  7  9  1  0  0  0  0
  7 11  1  0  0  0  0
  7 25  1  0  0  0  0
  8 10  1  0  0  0  0
  8 26  1  0  0  0  0
  8 27  1  0  0  0  0
 10 15  2  0  0  0  0
 10 16  1  0  0  0  0
 12 13  1  0  0  0  0
 12 17  2  0  0  0  0
 13 14  2  0  0  0  0
 13 18  1  0  0  0  0
 14 19  1  0  0  0  0
 14 21  1  0  0  0  0
 15 22  1  0  0  0  0
 15 29  1  0  0  0  0
 16 23  2  0  0  0  0
 16 30  1  0  0  0  0
 17 20  1  0  0  0  0
 17 31  1  0  0  0  0
 18 32  1  0  0  0  0
 18 33  1  0  0  0  0
 18 34  1  0  0  0  0
 19 20  2  0  0  0  0
 19 35  1  0  0  0  0
 20 36  1  0  0  0  0
 21 37  1  0  0  0  0
 21 38  1  0  0  0  0
 21 39  1  0  0  0  0
 22 24  2  0  0  0  0
 22 40  1  0  0  0  0
 23 24  1  0  0  0  0
 23 41  1  0  0  0  0
 24 42  1  0  0  0  0
M  END
> <PUBCHEM_COMPOUND_CID>
3170955

> <PUBCHEM_CONFORMER_RMSD>
0.8

> <PUBCHEM_CONFORMER_DIVERSEORDER>
2
5
33
57
62
31
47
35
68
18
30
27
64
53
41
15
49
50
4
24
32
52
23
67
69
26
63
65
60
39
66
11
9
46
42
20
36
48
34
40
59
55
13
10
70
7
56
58
22
45
14
28
37
51
16
44
17
29
8
21
12
6
38
54
19
3
1
61
43
25

> <PUBCHEM_MMFF94_PARTIAL_CHARGES>
34
1 -0.57
10 -0.14
11 0.34
12 0.12
13 -0.14
14 -0.14
15 -0.15
16 -0.15
17 -0.15
18 0.14
19 -0.15
2 -0.55
20 -0.15
21 0.14
22 -0.15
23 -0.15
24 -0.15
28 0.37
29 0.15
3 -0.71
30 0.15
31 0.15
35 0.15
36 0.15
4 -0.23
40 0.15
41 0.15
42 0.15
43 0.27
5 0.57
6 -0.42
7 0.24
8 0.14
9 0.57

> <PUBCHEM_EFFECTIVE_ROTOR_COUNT>
6

> <PUBCHEM_PHARMACOPHORE_FEATURES>
6
1 1 acceptor
1 2 donor
3 3 4 11 cation
5 3 4 5 6 11 rings
6 10 15 16 22 23 24 rings
6 12 13 14 17 19 20 rings

> <PUBCHEM_HEAVY_ATOM_COUNT>
24

> <PUBCHEM_ATOM_DEF_STEREO_COUNT>
0

> <PUBCHEM_ATOM_UDEF_STEREO_COUNT>
1

> <PUBCHEM_BOND_DEF_STEREO_COUNT>
0

> <PUBCHEM_BOND_UDEF_STEREO_COUNT>
0

> <PUBCHEM_ISOTOPIC_ATOM_COUNT>
0

> <PUBCHEM_COMPONENT_COUNT>
1

> <PUBCHEM_CACTVS_TAUTO_COUNT>
4

> <PUBCHEM_CONFORMER_ID>
0030628B00000002

> <PUBCHEM_MMFF94_ENERGY>
66.2645

> <PUBCHEM_FEATURE_SELFOVERLAP>
30.447

> <PUBCHEM_SHAPE_FINGERPRINT>
10074138 170 17326580650343099266
10090160 65 17545872085314418527
11370993 70 17618499226344086989
12166972 35 18271800212543657475
12553582 1 18262796255393866570
12788726 201 18046355136908725186
13004483 165 18264765450553416810
13009979 54 18059307482193148187
13052359 8 17397820186044147508
13134695 92 18407761434449850501
13533116 47 18261958565563129611
138480 1 18410575101996331660
13878862 14 18261936523880274317
14117953 113 17982459192214726613
14790565 3 18047475814225559100
15420108 30 18057871640841051148
17492 89 18340208600182538511
17980427 23 17989197149339341055
1813 80 18338801104686109286
18335252 114 18264759984067981581
18681886 176 17845942947434685790
20600515 1 18059299734061440483
20715895 44 18270965627616157633
21041028 32 18264485096758323124
2132832 1 18201141235708308335
21344244 78 18411689981037828897
21524375 3 17766566028897173804
2255824 54 18193841667889188692
22749437 52 17835243724587268821
22849341 161 18268166282952243067
23366157 5 18264207083530534091
23419403 2 17699818805670560360
23558518 356 17762619894771735166
23559900 14 18340483465040667051
3091708 16 9572922713669852896
345986 75 17751911420221352394
394222 165 18053944236345395034
4409770 3 17759517768473522420
474 4 17975412730912678909
67856867 119 18270110361486645163
7097593 13 18410572915852729319
79837 15 17400075773855301922
84936 182 17982735473879520761
90316 7 18195245520672952811
9981440 41 17689711287212625641

> <PUBCHEM_SHAPE_MULTIPOLES>
463.13
8.39
5.51
1.26
10.98
3.2
-0.05
-3.52
-1.47
-7.97
-0.17
-0.01
0
-1.59

> <PUBCHEM_SHAPE_SELFOVERLAP>
997.299

> <PUBCHEM_SHAPE_VOLUME>
256.6

> <PUBCHEM_COORDINATE_TYPE>
2
5
10

$$$$
