5377598
  -OEChem-01171812033D

 38 40  0     0  0  0  0  0  0999 V2000
    1.3430   -1.4943    1.4826 O   0  0  0  0  0  0  0  0  0  0  0  0
   -2.9735   -1.5414   -1.2907 O   0  0  0  0  0  0  0  0  0  0  0  0
    1.8848    0.2472   -0.0502 N   0  0  0  0  0  0  0  0  0  0  0  0
    1.1854    1.1909   -0.7991 N   0  0  0  0  0  0  0  0  0  0  0  0
   -0.2887   -0.0781    0.4056 C   0  0  0  0  0  0  0  0  0  0  0  0
   -0.0819    1.0157   -0.5436 C   0  0  0  0  0  0  0  0  0  0  0  0
    1.0600   -0.5840    0.7278 C   0  0  0  0  0  0  0  0  0  0  0  0
   -1.4349   -0.5441    0.8958 C   0  0  0  0  0  0  0  0  0  0  0  0
    3.2665    0.1378   -0.0701 C   0  0  0  0  0  0  0  0  0  0  0  0
   -2.7848   -0.0391    0.5746 C   0  0  0  0  0  0  0  0  0  0  0  0
   -1.1818    1.8230   -1.1428 C   0  0  0  0  0  0  0  0  0  0  0  0
   -3.4890   -0.5584   -0.4986 C   0  0  0  0  0  0  0  0  0  0  0  0
    3.8805   -1.1016    0.1426 C   0  0  0  0  0  0  0  0  0  0  0  0
    4.0610    1.2659   -0.3042 C   0  0  0  0  0  0  0  0  0  0  0  0
   -3.3178    0.9597    1.3730 C   0  0  0  0  0  0  0  0  0  0  0  0
   -4.7627   -0.0654   -0.7820 C   0  0  0  0  0  0  0  0  0  0  0  0
   -4.5916    1.4529    1.0895 C   0  0  0  0  0  0  0  0  0  0  0  0
    5.2709   -1.2116    0.1215 C   0  0  0  0  0  0  0  0  0  0  0  0
    5.4513    1.1558   -0.3254 C   0  0  0  0  0  0  0  0  0  0  0  0
   -5.3140    0.9403    0.0120 C   0  0  0  0  0  0  0  0  0  0  0  0
    6.0562   -0.0829   -0.1126 C   0  0  0  0  0  0  0  0  0  0  0  0
   -3.2389   -2.8881   -0.9058 C   0  0  0  0  0  0  0  0  0  0  0  0
   -1.4248   -1.3702    1.6033 H   0  0  0  0  0  0  0  0  0  0  0  0
   -1.7408    2.3563   -0.3734 H   0  0  0  0  0  0  0  0  0  0  0  0
   -1.8301    1.2012   -1.7608 H   0  0  0  0  0  0  0  0  0  0  0  0
   -0.7426    2.5805   -1.8014 H   0  0  0  0  0  0  0  0  0  0  0  0
    3.3117   -2.0151    0.2841 H   0  0  0  0  0  0  0  0  0  0  0  0
    3.6134    2.2433   -0.4664 H   0  0  0  0  0  0  0  0  0  0  0  0
   -2.7657    1.3678    2.2155 H   0  0  0  0  0  0  0  0  0  0  0  0
   -5.3312   -0.4587   -1.6204 H   0  0  0  0  0  0  0  0  0  0  0  0
   -5.0206    2.2361    1.7074 H   0  0  0  0  0  0  0  0  0  0  0  0
    5.7423   -2.1777    0.2770 H   0  0  0  0  0  0  0  0  0  0  0  0
    6.0632    2.0346   -0.5066 H   0  0  0  0  0  0  0  0  0  0  0  0
   -6.3054    1.3246   -0.2089 H   0  0  0  0  0  0  0  0  0  0  0  0
    7.1387   -0.1689   -0.1312 H   0  0  0  0  0  0  0  0  0  0  0  0
   -4.3137   -3.0917   -0.9465 H   0  0  0  0  0  0  0  0  0  0  0  0
   -2.8576   -3.0913    0.0997 H   0  0  0  0  0  0  0  0  0  0  0  0
   -2.7316   -3.5518   -1.6114 H   0  0  0  0  0  0  0  0  0  0  0  0
  1  7  2  0  0  0  0
  2 12  1  0  0  0  0
  2 22  1  0  0  0  0
  3  4  1  0  0  0  0
  3  7  1  0  0  0  0
  3  9  1  0  0  0  0
  4  6  2  0  0  0  0
  5  6  1  0  0  0  0
  5  7  1  0  0  0  0
  5  8  2  0  0  0  0
  6 11  1  0  0  0  0
  8 10  1  0  0  0  0
  8 23  1  0  0  0  0
  9 13  2  0  0  0  0
  9 14  1  0  0  0  0
 10 12  1  0  0  0  0
 10 15  2  0  0  0  0
 11 24  1  0  0  0  0
 11 25  1  0  0  0  0
 11 26  1  0  0  0  0
 12 16  2  0  0  0  0
 13 18  1  0  0  0  0
 13 27  1  0  0  0  0
 14 19  2  0  0  0  0
 14 28  1  0  0  0  0
 15 17  1  0  0  0  0
 15 29  1  0  0  0  0
 16 20  1  0  0  0  0
 16 30  1  0  0  0  0
 17 20  2  0  0  0  0
 17 31  1  0  0  0  0
 18 21  2  0  0  0  0
 18 32  1  0  0  0  0
 19 21  1  0  0  0  0
 19 33  1  0  0  0  0
 20 34  1  0  0  0  0
 21 35  1  0  0  0  0
 22 36  1  0  0  0  0
 22 37  1  0  0  0  0
 22 38  1  0  0  0  0
M  END
> <PUBCHEM_COMPOUND_CID>
5377598

> <PUBCHEM_CONFORMER_RMSD>
0.6

> <PUBCHEM_CONFORMER_DIVERSEORDER>
1
5
3
2
4

> <PUBCHEM_MMFF94_PARTIAL_CHARGES>
32
1 -0.57
10 0.03
11 0.06
12 0.08
13 -0.15
14 -0.15
15 -0.15
16 -0.15
17 -0.15
18 -0.15
19 -0.15
2 -0.36
20 -0.15
21 -0.15
22 0.28
23 0.15
27 0.15
28 0.15
29 0.15
3 -0.11
30 0.15
31 0.15
32 0.15
33 0.15
34 0.15
35 0.15
4 -0.51
5 0.03
6 0.37
7 0.62
8 -0.18
9 0.12

> <PUBCHEM_EFFECTIVE_ROTOR_COUNT>
3.2

> <PUBCHEM_PHARMACOPHORE_FEATURES>
6
1 1 acceptor
1 2 acceptor
1 4 acceptor
5 3 4 5 6 7 rings
6 10 12 15 16 17 20 rings
6 9 13 14 18 19 21 rings

> <PUBCHEM_HEAVY_ATOM_COUNT>
22

> <PUBCHEM_ATOM_DEF_STEREO_COUNT>
0

> <PUBCHEM_ATOM_UDEF_STEREO_COUNT>
0

> <PUBCHEM_BOND_DEF_STEREO_COUNT>
1

> <PUBCHEM_BOND_UDEF_STEREO_COUNT>
0

> <PUBCHEM_ISOTOPIC_ATOM_COUNT>
0

> <PUBCHEM_COMPONENT_COUNT>
1

> <PUBCHEM_CACTVS_TAUTO_COUNT>
1

> <PUBCHEM_CONFORMER_ID>
00520E3E00000001

> <PUBCHEM_MMFF94_ENERGY>
94.0076

> <PUBCHEM_FEATURE_SELFOVERLAP>
30.448

> <PUBCHEM_SHAPE_FINGERPRINT>
10366900 7 16343701019621125571
10595046 47 18271243923625439926
11315181 36 18202565098364772937
11796584 16 17775006791107250406
12107183 9 17480312166814706114
12236239 1 18411700976491703017
12616971 3 18113620101399665676
13167823 11 18272088331391890870
13583140 156 16415476051871020034
14528608 73 18341334483045830580
14840074 17 18187367614275345991
15183329 4 18342175544483748502
15788980 27 18410858771658807874
15849732 13 18333453136717010293
17349148 13 17385438826243080892
17834072 33 18272932738978421888
17844677 252 14189579637299335986
19141452 34 18411984658617549135
19489759 90 16988844956155197457
200 152 18411698781320484864
20511986 3 18341036467659322624
20681677 155 18341894082634747243
21033648 29 16660633094232658996
23175994 123 17022628576342679557
23402539 116 18187363250936609038
23536379 177 18059858337761061816
23557571 272 16702034049183005801
23559900 14 17774712155849162768
23569914 152 11378540532426021353
23569914 2 17125026016823605528
300161 21 18343580742045605936
34797466 226 17131840914445656320
34934 24 18186799154379848673
3633792 109 18127970811660463861
4073 2 18336267950755957338
4214541 1 18273215309034577969
5104073 3 18335983155452581048
542803 24 18411703175230180456
59755656 215 17676771960037438706
633830 44 17894633681788762794
7495541 125 17203322347379182672

> <PUBCHEM_SHAPE_MULTIPOLES>
431.05
13.29
1.92
1.16
9.42
0.88
-0.1
-0.87
0.54
-1.21
0.46
-0.95
0.03
-1.46

> <PUBCHEM_SHAPE_SELFOVERLAP>
941.045

> <PUBCHEM_SHAPE_VOLUME>
234.1

> <PUBCHEM_COORDINATE_TYPE>
2
5
10

$$$$
