5310645
  -OEChem-01171811393D

 21 22  0     0  0  0  0  0  0999 V2000
    0.9662    1.7250    0.0002 N   0  0  0  0  0  0  0  0  0  0  0  0
    2.1694    1.0730    0.0001 N   0  0  0  0  0  0  0  0  0  0  0  0
   -1.4439   -2.4874    0.0004 N   0  0  0  0  0  0  0  0  0  0  0  0
   -0.1911   -0.3664    0.0001 C   0  0  0  0  0  0  0  0  0  0  0  0
   -0.1895    1.0390    0.0001 C   0  0  0  0  0  0  0  0  0  0  0  0
   -1.4065   -1.0718   -0.0002 C   0  0  0  0  0  0  0  0  0  0  0  0
    1.0372   -1.0273    0.0001 C   0  0  0  0  0  0  0  0  0  0  0  0
    2.1888   -0.2706    0.0001 C   0  0  0  0  0  0  0  0  0  0  0  0
   -1.4134    1.7030    0.0000 C   0  0  0  0  0  0  0  0  0  0  0  0
   -2.6187   -0.3869   -0.0003 C   0  0  0  0  0  0  0  0  0  0  0  0
   -2.6218    1.0028   -0.0002 C   0  0  0  0  0  0  0  0  0  0  0  0
    3.5233   -0.9326   -0.0005 C   0  0  0  0  0  0  0  0  0  0  0  0
    1.1274   -2.1077   -0.0001 H   0  0  0  0  0  0  0  0  0  0  0  0
   -1.4393    2.7910    0.0001 H   0  0  0  0  0  0  0  0  0  0  0  0
   -3.5647   -0.9217   -0.0003 H   0  0  0  0  0  0  0  0  0  0  0  0
   -3.5626    1.5454   -0.0004 H   0  0  0  0  0  0  0  0  0  0  0  0
    3.6390   -1.5580    0.8905 H   0  0  0  0  0  0  0  0  0  0  0  0
    3.6390   -1.5564   -0.8925 H   0  0  0  0  0  0  0  0  0  0  0  0
    4.3299   -0.1920    0.0002 H   0  0  0  0  0  0  0  0  0  0  0  0
   -0.6057   -3.0481   -0.0012 H   0  0  0  0  0  0  0  0  0  0  0  0
   -2.3410   -2.9561   -0.0006 H   0  0  0  0  0  0  0  0  0  0  0  0
  1  2  2  0  0  0  0
  1  5  1  0  0  0  0
  2  8  1  0  0  0  0
  3  6  1  0  0  0  0
  3 20  1  0  0  0  0
  3 21  1  0  0  0  0
  4  5  1  0  0  0  0
  4  6  2  0  0  0  0
  4  7  1  0  0  0  0
  5  9  2  0  0  0  0
  6 10  1  0  0  0  0
  7  8  2  0  0  0  0
  7 13  1  0  0  0  0
  8 12  1  0  0  0  0
  9 11  1  0  0  0  0
  9 14  1  0  0  0  0
 10 11  2  0  0  0  0
 10 15  1  0  0  0  0
 11 16  1  0  0  0  0
 12 17  1  0  0  0  0
 12 18  1  0  0  0  0
 12 19  1  0  0  0  0
M  END
> <PUBCHEM_COMPOUND_CID>
5310645

> <PUBCHEM_CONFORMER_RMSD>
0.4

> <PUBCHEM_CONFORMER_DIVERSEORDER>
1

> <PUBCHEM_MMFF94_PARTIAL_CHARGES>
17
1 -0.31
10 -0.15
11 -0.15
12 0.14
13 0.15
14 0.15
15 0.15
16 0.15
2 -0.31
20 0.4
21 0.4
3 -0.9
5 0.31
6 0.1
7 -0.15
8 0.17
9 -0.15

> <PUBCHEM_EFFECTIVE_ROTOR_COUNT>
0

> <PUBCHEM_PHARMACOPHORE_FEATURES>
4
1 3 cation
1 3 donor
6 1 2 4 5 7 8 rings
6 4 5 6 9 10 11 rings

> <PUBCHEM_HEAVY_ATOM_COUNT>
12

> <PUBCHEM_ATOM_DEF_STEREO_COUNT>
0

> <PUBCHEM_ATOM_UDEF_STEREO_COUNT>
0

> <PUBCHEM_BOND_DEF_STEREO_COUNT>
0

> <PUBCHEM_BOND_UDEF_STEREO_COUNT>
0

> <PUBCHEM_ISOTOPIC_ATOM_COUNT>
0

> <PUBCHEM_COMPONENT_COUNT>
1

> <PUBCHEM_CACTVS_TAUTO_COUNT>
2

> <PUBCHEM_CONFORMER_ID>
005108B500000001

> <PUBCHEM_MMFF94_ENERGY>
46.7798

> <PUBCHEM_FEATURE_SELFOVERLAP>
20.328

> <PUBCHEM_SHAPE_FINGERPRINT>
13024252 1 15213309586198581553
13380535 76 18341328877533475007
14325111 11 18410855438759138656
16945 1 18410573972287693733
193761 8 18194402427161557349
19973954 147 18338237188232631844
20201158 50 18342737369103075094
20645476 183 17823159868169398734
20871998 184 18201441414851206135
21040471 1 18410575037476642817
21501502 16 18339644554494589108
2334 1 18122625221431260262
23402539 116 18271513218096011487
23402655 69 17979336587861139493
23463225 33 18263362478291169826
23552423 10 18116715303572014156
23559900 14 18270400478723694886
241688 4 15167976339533262081
25 1 17829313706286190133
2748010 2 18267020754907415069
369184 2 18411980264913367473
5084963 1 18202560644657597881
528886 8 18266734688790162513
7364860 26 18270119153443260832
8809292 202 18334581264862936674

> <PUBCHEM_SHAPE_MULTIPOLES>
232.01
4.32
2.02
0.6
2.24
0.38
0
0.39
0
-0.67
0
-0.01
0
0

> <PUBCHEM_SHAPE_SELFOVERLAP>
506.095

> <PUBCHEM_SHAPE_VOLUME>
125

> <PUBCHEM_COORDINATE_TYPE>
2
5
10

$$$$
