5405848
  -OEChem-01171811423D

 33 34  0     0  0  0  0  0  0999 V2000
   -4.9443    2.5635    0.1060 O   0  0  0  0  0  0  0  0  0  0  0  0
    2.6128   -2.2810    0.1480 O   0  0  0  0  0  0  0  0  0  0  0  0
   -1.6784   -1.9347   -0.0557 N   0  0  0  0  0  0  0  0  0  0  0  0
    4.8874    1.1867    0.5246 N   0  0  0  0  0  0  0  0  0  0  0  0
   -2.4989   -0.8036   -0.0146 C   0  0  0  0  0  0  0  0  0  0  0  0
   -0.3156   -1.9895   -0.1569 C   0  0  0  0  0  0  0  0  0  0  0  0
    0.5557   -1.0729    0.3063 C   0  0  0  0  0  0  0  0  0  0  0  0
   -3.7141   -0.8332    0.6820 C   0  0  0  0  0  0  0  0  0  0  0  0
   -2.1174    0.3744   -0.6701 C   0  0  0  0  0  0  0  0  0  0  0  0
    0.2133   -3.2170   -0.8551 C   0  0  0  0  0  0  0  0  0  0  0  0
    2.0363   -1.1999    0.1684 C   0  0  0  0  0  0  0  0  0  0  0  0
    2.8277    0.0519    0.0904 C   0  0  0  0  0  0  0  0  0  0  0  0
   -4.5332    0.2950    0.7225 C   0  0  0  0  0  0  0  0  0  0  0  0
   -2.9365    1.5027   -0.6298 C   0  0  0  0  0  0  0  0  0  0  0  0
   -4.1445    1.4630    0.0665 C   0  0  0  0  0  0  0  0  0  0  0  0
    2.2712    1.1824   -0.4597 C   0  0  0  0  0  0  0  0  0  0  0  0
    4.1122    0.0798    0.5658 C   0  0  0  0  0  0  0  0  0  0  0  0
    3.0376    2.3409   -0.5199 C   0  0  0  0  0  0  0  0  0  0  0  0
    4.3284    2.2913   -0.0186 C   0  0  0  0  0  0  0  0  0  0  0  0
   -2.1605   -2.8273   -0.0353 H   0  0  0  0  0  0  0  0  0  0  0  0
    0.2005   -0.1831    0.8179 H   0  0  0  0  0  0  0  0  0  0  0  0
   -4.0293   -1.7368    1.1984 H   0  0  0  0  0  0  0  0  0  0  0  0
   -1.1997    0.4326   -1.2490 H   0  0  0  0  0  0  0  0  0  0  0  0
    0.6044   -3.9394   -0.1312 H   0  0  0  0  0  0  0  0  0  0  0  0
   -0.5833   -3.7229   -1.4145 H   0  0  0  0  0  0  0  0  0  0  0  0
    0.9812   -2.9741   -1.5971 H   0  0  0  0  0  0  0  0  0  0  0  0
   -5.4718    0.2511    1.2685 H   0  0  0  0  0  0  0  0  0  0  0  0
   -2.6317    2.4076   -1.1484 H   0  0  0  0  0  0  0  0  0  0  0  0
    1.2664    1.2056   -0.8684 H   0  0  0  0  0  0  0  0  0  0  0  0
    4.5890   -0.7869    1.0113 H   0  0  0  0  0  0  0  0  0  0  0  0
    2.6392    3.2527   -0.9501 H   0  0  0  0  0  0  0  0  0  0  0  0
    4.9678    3.1677   -0.0434 H   0  0  0  0  0  0  0  0  0  0  0  0
   -5.7374    2.3580    0.6302 H   0  0  0  0  0  0  0  0  0  0  0  0
  1 15  1  0  0  0  0
  1 33  1  0  0  0  0
  2 11  2  0  0  0  0
  3  5  1  0  0  0  0
  3  6  1  0  0  0  0
  3 20  1  0  0  0  0
  4 17  1  0  0  0  0
  4 19  2  0  0  0  0
  5  8  2  0  0  0  0
  5  9  1  0  0  0  0
  6  7  2  0  0  0  0
  6 10  1  0  0  0  0
  7 11  1  0  0  0  0
  7 21  1  0  0  0  0
  8 13  1  0  0  0  0
  8 22  1  0  0  0  0
  9 14  2  0  0  0  0
  9 23  1  0  0  0  0
 10 24  1  0  0  0  0
 10 25  1  0  0  0  0
 10 26  1  0  0  0  0
 11 12  1  0  0  0  0
 12 16  1  0  0  0  0
 12 17  2  0  0  0  0
 13 15  2  0  0  0  0
 13 27  1  0  0  0  0
 14 15  1  0  0  0  0
 14 28  1  0  0  0  0
 16 18  2  0  0  0  0
 16 29  1  0  0  0  0
 17 30  1  0  0  0  0
 18 19  1  0  0  0  0
 18 31  1  0  0  0  0
 19 32  1  0  0  0  0
M  END
> <PUBCHEM_COMPOUND_CID>
5405848

> <PUBCHEM_CONFORMER_RMSD>
0.6

> <PUBCHEM_CONFORMER_DIVERSEORDER>
9
91
17
121
126
95
105
2
34
56
24
92
49
3
122
43
67
51
63
90
50
19
4
42
37
89
88
125
106
60
32
38
30
100
61
68
23
111
55
99
82
1
31
69
94
22
29
54
27
113
52
76
21
18
70
80
93
103
14
81
11
79
116
75
118
53
114
104
10
83
44
108
112
15
40
96
65
13
110
12
84
7
41
107
26
73
117
16
109
123
86
71
25
39
8
62
48
66
28
6
77
33
115
64
120
47
124
20
72
45
5
85
119
59
102
74
87
58
35
101
57
98
78
97
46
36

> <PUBCHEM_MMFF94_PARTIAL_CHARGES>
30
1 -0.53
10 0.14
11 0.47
12 0.09
13 -0.15
14 -0.15
15 0.08
16 -0.15
17 0.16
18 -0.15
19 0.16
2 -0.57
20 0.4
21 0.15
22 0.15
23 0.15
27 0.15
28 0.15
29 0.15
3 -0.6
30 0.15
31 0.15
32 0.15
33 0.45
4 -0.62
5 0.1
6 -0.04
7 -0.14
8 -0.15
9 -0.15

> <PUBCHEM_EFFECTIVE_ROTOR_COUNT>
4

> <PUBCHEM_PHARMACOPHORE_FEATURES>
7
1 1 donor
1 2 acceptor
1 3 cation
1 3 donor
1 4 acceptor
6 4 12 16 17 18 19 rings
6 5 8 9 13 14 15 rings

> <PUBCHEM_HEAVY_ATOM_COUNT>
19

> <PUBCHEM_ATOM_DEF_STEREO_COUNT>
0

> <PUBCHEM_ATOM_UDEF_STEREO_COUNT>
0

> <PUBCHEM_BOND_DEF_STEREO_COUNT>
1

> <PUBCHEM_BOND_UDEF_STEREO_COUNT>
0

> <PUBCHEM_ISOTOPIC_ATOM_COUNT>
0

> <PUBCHEM_COMPONENT_COUNT>
1

> <PUBCHEM_CACTVS_TAUTO_COUNT>
10

> <PUBCHEM_CONFORMER_ID>
00527C9800000009

> <PUBCHEM_MMFF94_ENERGY>
71.1771

> <PUBCHEM_FEATURE_SELFOVERLAP>
35.52

> <PUBCHEM_SHAPE_FINGERPRINT>
10411042 1 17258496643867833967
12107183 9 18336252467456793386
12173636 292 18269550709762340759
122479 349 18335703879161898386
12403259 118 18408876347983467219
12633257 1 18041830731968733768
12978246 48 18337112366347425553
13544653 18 9799690423924906454
13583140 156 17096345328752067730
14026960 21 18335989705256795975
14123255 52 18412263956024605134
14251764 75 18341907276796055313
15196674 1 18409448085255190529
15342168 16 18342177718306827877
16760501 71 18338809905849578745
1741750 31 18342740770865028914
17810953 82 18338520716373054245
17834072 32 18411136913914931045
1798214 55 18412826897520097008
18186145 218 18201730526190020094
18785283 64 18338519625514846590
193927 3 11241967044948988856
20715895 44 18121775028904090009
21524375 3 18339641243059512266
21652331 79 18334575788868980005
21864079 5 18411416202637360527
22182937 141 18337957899478697115
23227448 37 18411982502892119735
23559900 14 18051131393997857419
245318 6 17968957412078382061
27216 239 18334296504700149995
474 4 18339921515771914459
49207404 50 18260843600141427571
5048184 11 18412262865176959917
5104073 3 18260835843741461657
633830 44 18201156546934513559
636775 72 17547570835835007288
7064713 232 18408882970765430924
7808743 9 18194965373326615032
7970288 3 8574440815498145256

> <PUBCHEM_SHAPE_MULTIPOLES>
369.31
10.41
3.23
0.81
1.1
0.79
-0.03
-8.2
1.92
-0.36
-0.64
0.12
0.05
-0.05

> <PUBCHEM_SHAPE_SELFOVERLAP>
790.922

> <PUBCHEM_SHAPE_VOLUME>
203.5

> <PUBCHEM_COORDINATE_TYPE>
2
5
10

$$$$
