24789634
  -OEChem-01171812053D

 74 78  0     1  0  0  0  0  0999 V2000
   10.3783    0.6537   -0.5226 Br  0  0  0  0  0  0  0  0  0  0  0  0
    0.4283   -0.6061    1.7316 O   0  0  0  0  0  0  0  0  0  0  0  0
    0.2861   -2.0095   -1.9147 O   0  0  0  0  0  0  0  0  0  0  0  0
   -1.3863    1.8876   -1.3662 O   0  0  0  0  0  0  0  0  0  0  0  0
    3.3976    0.6410   -1.2508 O   0  0  0  0  0  0  0  0  0  0  0  0
   -1.3486   -0.8846   -0.6367 N   0  0  0  0  0  0  0  0  0  0  0  0
   -3.1255    1.8687    0.1809 N   0  0  0  0  0  0  0  0  0  0  0  0
    4.4929   -0.6401    0.3912 N   0  0  0  0  0  0  0  0  0  0  0  0
   -4.3536   -3.0707   -0.3303 N   0  0  0  0  0  0  0  0  0  0  0  0
    0.0372    0.3643    0.7135 C   0  0  1  0  0  0  0  0  0  0  0  0
    0.8748   -0.1333   -0.4847 C   0  0  1  0  0  0  0  0  0  0  0  0
    2.1203   -0.7089    0.2211 C   0  0  2  0  0  0  0  0  0  0  0  0
   -1.4096    0.2079    0.3264 C   0  0  1  0  0  0  0  0  0  0  0  0
    1.8505   -0.3103    1.6858 C   0  0  1  0  0  0  0  0  0  0  0  0
   -0.0580   -1.1502   -1.1162 C   0  0  0  0  0  0  0  0  0  0  0  0
    0.6508    1.5969    1.2941 C   0  0  0  0  0  0  0  0  0  0  0  0
    1.7870    1.1837    1.8746 C   0  0  0  0  0  0  0  0  0  0  0  0
   -1.9559    1.4007   -0.3931 C   0  0  0  0  0  0  0  0  0  0  0  0
    3.4002   -0.1468   -0.3103 C   0  0  0  0  0  0  0  0  0  0  0  0
   -2.5175   -1.6300   -1.0605 C   0  0  0  0  0  0  0  0  0  0  0  0
   -3.1656   -2.3518    0.1117 C   0  0  0  0  0  0  0  0  0  0  0  0
   -3.8410    3.0248   -0.3117 C   0  0  0  0  0  0  0  0  0  0  0  0
   -4.5411    3.7678    0.8312 C   0  0  0  0  0  0  0  0  0  0  0  0
   -4.8352    2.6306   -1.4092 C   0  0  0  0  0  0  0  0  0  0  0  0
   -5.7456    3.0004    1.3763 C   0  0  0  0  0  0  0  0  0  0  0  0
   -6.0392    1.8652   -0.8604 C   0  0  0  0  0  0  0  0  0  0  0  0
   -6.7257    2.6294    0.2677 C   0  0  0  0  0  0  0  0  0  0  0  0
    5.8593   -0.3394    0.1792 C   0  0  0  0  0  0  0  0  0  0  0  0
   -5.4924   -2.1587   -0.4551 C   0  0  0  0  0  0  0  0  0  0  0  0
   -4.6742   -4.1579    0.5966 C   0  0  0  0  0  0  0  0  0  0  0  0
    6.2298    0.5467   -0.8323 C   0  0  0  0  0  0  0  0  0  0  0  0
    6.8360   -0.9295    0.9817 C   0  0  0  0  0  0  0  0  0  0  0  0
   -6.7207   -2.8828   -0.9796 C   0  0  0  0  0  0  0  0  0  0  0  0
   -5.0059   -3.6211    1.9786 C   0  0  0  0  0  0  0  0  0  0  0  0
    7.5766    0.8430   -1.0413 C   0  0  0  0  0  0  0  0  0  0  0  0
    8.1829   -0.6334    0.7725 C   0  0  0  0  0  0  0  0  0  0  0  0
    8.5532    0.2529   -0.2390 C   0  0  0  0  0  0  0  0  0  0  0  0
    1.0564    0.6552   -1.2226 H   0  0  0  0  0  0  0  0  0  0  0  0
    2.1399   -1.8015    0.1198 H   0  0  0  0  0  0  0  0  0  0  0  0
   -2.0111   -0.0856    1.1897 H   0  0  0  0  0  0  0  0  0  0  0  0
    2.3881   -0.8608    2.4596 H   0  0  0  0  0  0  0  0  0  0  0  0
    0.3132    2.6150    1.1926 H   0  0  0  0  0  0  0  0  0  0  0  0
    2.5345    1.8041    2.3414 H   0  0  0  0  0  0  0  0  0  0  0  0
   -3.1934   -0.9078   -1.5285 H   0  0  0  0  0  0  0  0  0  0  0  0
   -2.2253   -2.3503   -1.8335 H   0  0  0  0  0  0  0  0  0  0  0  0
   -3.5389    1.3468    0.9475 H   0  0  0  0  0  0  0  0  0  0  0  0
   -3.4049   -1.6496    0.9176 H   0  0  0  0  0  0  0  0  0  0  0  0
   -2.4163   -3.0468    0.5152 H   0  0  0  0  0  0  0  0  0  0  0  0
   -3.0975    3.6999   -0.7535 H   0  0  0  0  0  0  0  0  0  0  0  0
    4.3122   -1.3015    1.1431 H   0  0  0  0  0  0  0  0  0  0  0  0
   -3.8350    3.9626    1.6473 H   0  0  0  0  0  0  0  0  0  0  0  0
   -4.8819    4.7447    0.4653 H   0  0  0  0  0  0  0  0  0  0  0  0
   -5.1943    3.5403   -1.9074 H   0  0  0  0  0  0  0  0  0  0  0  0
   -4.3403    2.0238   -2.1770 H   0  0  0  0  0  0  0  0  0  0  0  0
   -6.2585    3.6138    2.1261 H   0  0  0  0  0  0  0  0  0  0  0  0
   -5.4124    2.0916    1.8910 H   0  0  0  0  0  0  0  0  0  0  0  0
   -6.7556    1.6776   -1.6682 H   0  0  0  0  0  0  0  0  0  0  0  0
   -5.7147    0.8871   -0.4889 H   0  0  0  0  0  0  0  0  0  0  0  0
   -7.1816    3.5419   -0.1358 H   0  0  0  0  0  0  0  0  0  0  0  0
   -7.5391    2.0231    0.6821 H   0  0  0  0  0  0  0  0  0  0  0  0
   -5.7305   -1.6083    0.4620 H   0  0  0  0  0  0  0  0  0  0  0  0
   -5.2560   -1.3955   -1.2048 H   0  0  0  0  0  0  0  0  0  0  0  0
   -5.4847   -4.7924    0.2227 H   0  0  0  0  0  0  0  0  0  0  0  0
   -3.8133   -4.8351    0.6716 H   0  0  0  0  0  0  0  0  0  0  0  0
    5.5316    1.0421   -1.4923 H   0  0  0  0  0  0  0  0  0  0  0  0
    6.5608   -1.6217    1.7733 H   0  0  0  0  0  0  0  0  0  0  0  0
   -7.4741   -2.1488   -1.2876 H   0  0  0  0  0  0  0  0  0  0  0  0
   -6.4866   -3.4949   -1.8574 H   0  0  0  0  0  0  0  0  0  0  0  0
   -7.1918   -3.5158   -0.2217 H   0  0  0  0  0  0  0  0  0  0  0  0
   -5.1571   -4.4720    2.6541 H   0  0  0  0  0  0  0  0  0  0  0  0
   -5.9362   -3.0475    2.0100 H   0  0  0  0  0  0  0  0  0  0  0  0
   -4.2035   -3.0251    2.4224 H   0  0  0  0  0  0  0  0  0  0  0  0
    7.8497    1.5356   -1.8335 H   0  0  0  0  0  0  0  0  0  0  0  0
    8.9314   -1.1017    1.4065 H   0  0  0  0  0  0  0  0  0  0  0  0
  1 37  1  0  0  0  0
  2 10  1  0  0  0  0
  2 14  1  0  0  0  0
  3 15  2  0  0  0  0
  4 18  2  0  0  0  0
  5 19  2  0  0  0  0
  6 13  1  0  0  0  0
  6 15  1  0  0  0  0
  6 20  1  0  0  0  0
  7 18  1  0  0  0  0
  7 22  1  0  0  0  0
  7 46  1  0  0  0  0
  8 19  1  0  0  0  0
  8 28  1  0  0  0  0
  8 50  1  0  0  0  0
  9 21  1  0  0  0  0
  9 29  1  0  0  0  0
  9 30  1  0  0  0  0
 10 11  1  0  0  0  0
 10 13  1  0  0  0  0
 10 16  1  0  0  0  0
 11 12  1  0  0  0  0
 11 15  1  0  0  0  0
 11 38  1  0  0  0  0
 12 14  1  0  0  0  0
 12 19  1  0  0  0  0
 12 39  1  0  0  0  0
 13 18  1  0  0  0  0
 13 40  1  0  0  0  0
 14 17  1  0  0  0  0
 14 41  1  0  0  0  0
 16 17  2  0  0  0  0
 16 42  1  0  0  0  0
 17 43  1  0  0  0  0
 20 21  1  0  0  0  0
 20 44  1  0  0  0  0
 20 45  1  0  0  0  0
 21 47  1  0  0  0  0
 21 48  1  0  0  0  0
 22 23  1  0  0  0  0
 22 24  1  0  0  0  0
 22 49  1  0  0  0  0
 23 25  1  0  0  0  0
 23 51  1  0  0  0  0
 23 52  1  0  0  0  0
 24 26  1  0  0  0  0
 24 53  1  0  0  0  0
 24 54  1  0  0  0  0
 25 27  1  0  0  0  0
 25 55  1  0  0  0  0
 25 56  1  0  0  0  0
 26 27  1  0  0  0  0
 26 57  1  0  0  0  0
 26 58  1  0  0  0  0
 27 59  1  0  0  0  0
 27 60  1  0  0  0  0
 28 31  2  0  0  0  0
 28 32  1  0  0  0  0
 29 33  1  0  0  0  0
 29 61  1  0  0  0  0
 29 62  1  0  0  0  0
 30 34  1  0  0  0  0
 30 63  1  0  0  0  0
 30 64  1  0  0  0  0
 31 35  1  0  0  0  0
 31 65  1  0  0  0  0
 32 36  2  0  0  0  0
 32 66  1  0  0  0  0
 33 67  1  0  0  0  0
 33 68  1  0  0  0  0
 33 69  1  0  0  0  0
 34 70  1  0  0  0  0
 34 71  1  0  0  0  0
 34 72  1  0  0  0  0
 35 37  2  0  0  0  0
 35 73  1  0  0  0  0
 36 37  1  0  0  0  0
 36 74  1  0  0  0  0
M  END
> <PUBCHEM_COMPOUND_CID>
24789634

> <PUBCHEM_CONFORMER_RMSD>
1.4

> <PUBCHEM_CONFORMER_DIVERSEORDER>
1
20
77
112
48
22
109
71
27
86
39
142
82
137
120
85
41
73
68
114
28
3
92
89
138
104
18
110
123
72
37
46
105
5
116
62
53
78
16
66
97
36
61
14
38
84
90
74
44
125
83
30
17
56
122
50
87
99
115
140
132
63
26
24
121
102
15
127
19
10
35
47
32
95
91
96
81
70
23
108
65
29
34
59
141
103
45
113
124
42
88
134
101
9
8
69
144
21
2
129
60
126
130
11
133
33
100
117
79
13
143
58
94
7
6
75
131
67
135
57
118
12
4
139
40
55
119
93
31
128
107
52
25
111
98
49
51
43
64
136
106
76
80
54

> <PUBCHEM_MMFF94_PARTIAL_CHARGES>
38
1 -0.11
10 0.42
11 0.06
12 0.06
13 0.36
14 0.42
15 0.57
16 -0.29
17 -0.29
18 0.57
19 0.57
2 -0.56
20 0.3
21 0.27
22 0.3
28 0.12
29 0.27
3 -0.57
30 0.27
31 -0.15
32 -0.15
35 -0.15
36 -0.15
37 0.11
4 -0.57
42 0.15
43 0.15
46 0.37
5 -0.57
50 0.37
6 -0.66
65 0.15
66 0.15
7 -0.73
73 0.15
74 0.15
8 -0.55
9 -0.81

> <PUBCHEM_EFFECTIVE_ROTOR_COUNT>
13

> <PUBCHEM_PHARMACOPHORE_FEATURES>
12
1 1 hydrophobe
1 2 acceptor
1 3 acceptor
1 4 acceptor
1 5 acceptor
1 7 donor
1 8 donor
1 9 cation
5 6 10 11 13 15 rings
6 22 23 24 25 26 27 rings
6 28 31 32 35 36 37 rings
7 2 10 11 12 14 16 17 rings

> <PUBCHEM_HEAVY_ATOM_COUNT>
37

> <PUBCHEM_ATOM_DEF_STEREO_COUNT>
0

> <PUBCHEM_ATOM_UDEF_STEREO_COUNT>
5

> <PUBCHEM_BOND_DEF_STEREO_COUNT>
0

> <PUBCHEM_BOND_UDEF_STEREO_COUNT>
0

> <PUBCHEM_ISOTOPIC_ATOM_COUNT>
0

> <PUBCHEM_COMPONENT_COUNT>
1

> <PUBCHEM_CACTVS_TAUTO_COUNT>
4

> <PUBCHEM_CONFORMER_ID>
017A428200000001

> <PUBCHEM_MMFF94_ENERGY>
101.9681

> <PUBCHEM_FEATURE_SELFOVERLAP>
61.077

> <PUBCHEM_SHAPE_FINGERPRINT>
10 15 16732991882191421076
10050765 1 18339921644642805584
10165383 225 18271806761931570569
10190206 1 17822292426847209434
10290309 65 17917721162704597790
10906281 52 17702104664337252665
12082328 90 18410571795662675086
12539745 222 18130795589691131179
12645989 146 18056188306120580039
13383668 254 16081092584301041165
13540713 4 17986652947757045009
13673619 4 18201439250256104930
13690498 29 18341324591071607150
13692115 27 17971181767831552463
14294032 229 18188484670971691828
14856354 85 18343580716376704965
15064986 266 18260275161868875778
15328829 1 17530965778696055119
1577012 14 18186518792469554562
15876981 60 18041002855474013876
21792961 116 17775288244972724886
23576562 1 18410014373084899836
249057 25 17894921771247121228
25223398 141 18412543249152654831
25269216 80 18335137635379881490
395649 100 18408039628198374703
4058900 60 17910114608325034129
4073 2 18410858720452133326
563151 40 18261112937366668875
5912855 24 18186515493144043843
6009941 240 18341332210876327054

> <PUBCHEM_SHAPE_MULTIPOLES>
723.98
24.65
4.27
1.57
54.54
1.1
-0.31
-2.48
2.5
-15.08
-0.66
-0.52
0.13
-0.51

> <PUBCHEM_SHAPE_SELFOVERLAP>
1537.486

> <PUBCHEM_SHAPE_VOLUME>
412.2

> <PUBCHEM_COORDINATE_TYPE>
2
5
10

$$$$
