796726
  -OEChem-01171811583D

 25 26  0     0  0  0  0  0  0999 V2000
    3.5806    1.9031    0.4160 O   0  0  0  0  0  0  0  0  0  0  0  0
    2.5763   -1.5959    0.5939 N   0  0  0  0  0  0  0  0  0  0  0  0
   -0.3242   -0.3670   -1.4738 C   0  0  0  0  0  0  0  0  0  0  0  0
   -1.5352   -0.1079   -0.6426 C   0  0  0  0  0  0  0  0  0  0  0  0
    0.9664   -0.3646   -0.6785 C   0  0  0  0  0  0  0  0  0  0  0  0
   -1.9826    1.1993   -0.4504 C   0  0  0  0  0  0  0  0  0  0  0  0
   -2.2209   -1.1727   -0.0578 C   0  0  0  0  0  0  0  0  0  0  0  0
    1.6693    0.8063   -0.5113 C   0  0  0  0  0  0  0  0  0  0  0  0
    1.4337   -1.5289   -0.1257 C   0  0  0  0  0  0  0  0  0  0  0  0
    2.8497    0.7775    0.2230 C   0  0  0  0  0  0  0  0  0  0  0  0
   -3.1152    1.4418    0.3267 C   0  0  0  0  0  0  0  0  0  0  0  0
   -3.3536   -0.9302    0.7191 C   0  0  0  0  0  0  0  0  0  0  0  0
   -3.8008    0.3771    0.9114 C   0  0  0  0  0  0  0  0  0  0  0  0
    3.2563   -0.4379    0.7499 C   0  0  0  0  0  0  0  0  0  0  0  0
   -0.4270   -1.3262   -2.0001 H   0  0  0  0  0  0  0  0  0  0  0  0
   -0.2566    0.3742   -2.2823 H   0  0  0  0  0  0  0  0  0  0  0  0
    1.3193    1.7405   -0.9406 H   0  0  0  0  0  0  0  0  0  0  0  0
   -1.4587    2.0383   -0.9006 H   0  0  0  0  0  0  0  0  0  0  0  0
   -1.8840   -2.1962   -0.1997 H   0  0  0  0  0  0  0  0  0  0  0  0
    0.9095   -2.4723   -0.2355 H   0  0  0  0  0  0  0  0  0  0  0  0
   -3.4635    2.4596    0.4764 H   0  0  0  0  0  0  0  0  0  0  0  0
   -3.8876   -1.7591    1.1744 H   0  0  0  0  0  0  0  0  0  0  0  0
   -4.6827    0.5659    1.5164 H   0  0  0  0  0  0  0  0  0  0  0  0
    4.1687   -0.5246    1.3317 H   0  0  0  0  0  0  0  0  0  0  0  0
    4.3636    1.6815    0.9491 H   0  0  0  0  0  0  0  0  0  0  0  0
  1 10  1  0  0  0  0
  1 25  1  0  0  0  0
  2  9  2  0  0  0  0
  2 14  1  0  0  0  0
  3  4  1  0  0  0  0
  3  5  1  0  0  0  0
  3 15  1  0  0  0  0
  3 16  1  0  0  0  0
  4  6  2  0  0  0  0
  4  7  1  0  0  0  0
  5  8  2  0  0  0  0
  5  9  1  0  0  0  0
  6 11  1  0  0  0  0
  6 18  1  0  0  0  0
  7 12  2  0  0  0  0
  7 19  1  0  0  0  0
  8 10  1  0  0  0  0
  8 17  1  0  0  0  0
  9 20  1  0  0  0  0
 10 14  2  0  0  0  0
 11 13  2  0  0  0  0
 11 21  1  0  0  0  0
 12 13  1  0  0  0  0
 12 22  1  0  0  0  0
 13 23  1  0  0  0  0
 14 24  1  0  0  0  0
M  END
> <PUBCHEM_COMPOUND_CID>
796726

> <PUBCHEM_CONFORMER_RMSD>
0.6

> <PUBCHEM_CONFORMER_DIVERSEORDER>
2
4
6
5
1
3

> <PUBCHEM_MMFF94_PARTIAL_CHARGES>
23
1 -0.53
10 0.08
11 -0.15
12 -0.15
13 -0.15
14 0.16
17 0.15
18 0.15
19 0.15
2 -0.62
20 0.15
21 0.15
22 0.15
23 0.15
24 0.15
25 0.45
3 0.29
4 -0.14
5 -0.14
6 -0.15
7 -0.15
8 -0.15
9 0.16

> <PUBCHEM_EFFECTIVE_ROTOR_COUNT>
2

> <PUBCHEM_PHARMACOPHORE_FEATURES>
4
1 1 donor
1 2 acceptor
6 2 5 8 9 10 14 rings
6 4 6 7 11 12 13 rings

> <PUBCHEM_HEAVY_ATOM_COUNT>
14

> <PUBCHEM_ATOM_DEF_STEREO_COUNT>
0

> <PUBCHEM_ATOM_UDEF_STEREO_COUNT>
0

> <PUBCHEM_BOND_DEF_STEREO_COUNT>
0

> <PUBCHEM_BOND_UDEF_STEREO_COUNT>
0

> <PUBCHEM_ISOTOPIC_ATOM_COUNT>
0

> <PUBCHEM_COMPONENT_COUNT>
1

> <PUBCHEM_CACTVS_TAUTO_COUNT>
6

> <PUBCHEM_CONFORMER_ID>
000C283600000002

> <PUBCHEM_MMFF94_ENERGY>
36.2375

> <PUBCHEM_FEATURE_SELFOVERLAP>
20.297

> <PUBCHEM_SHAPE_FINGERPRINT>
10498660 4 14261073121731980339
10608611 8 18338233769554962229
10799339 124 18334296422742206953
11031198 65 15554455071807143591
11471102 22 18260829284988965178
12251169 10 18408324371650283935
12346645 44 18340485685559351460
12382932 28 18410858750336971569
12507560 40 18334012757342887245
12696612 119 18335143102393175380
12932764 1 18335423439171832647
13296908 3 16660639635451740423
13693222 15 18040715883123415917
13705890 14 8502653705793977868
13764800 53 16559037116436227415
13897977 13 18341896337439849353
14144814 61 18408323276438839663
14289901 80 18408885165503671227
15653759 3 18113901507287686221
15775835 57 18131633425777050328
17804303 29 18117568314152729679
18186145 218 13254800139677749975
19107657 9 16558760004919137601
200 152 18340190982384238335
201361 129 18412544319079520376
20279233 1 16878214320856050967
20281407 28 16298384630396506943
20361792 2 14996290218854889407
20528008 55 18407757032604198527
20653085 51 11743844668398449271
20871999 31 10375569479497211169
21065199 12 18334579018758136009
22169311 14 18261956228419762907
22802520 49 10375861996296490423
25 1 13326589461373457444
251288 83 17095527348098925648
5374978 207 18408609154226507849
7097593 13 18264483988340743370
81228 2 15431141479681890367
9882013 296 18261111927959273457

> <PUBCHEM_SHAPE_MULTIPOLES>
277.26
6.93
1.68
1.05
0.41
0.15
0.16
1.33
-2.7
-0.51
-0.19
0.15
-0.07
0.01

> <PUBCHEM_SHAPE_SELFOVERLAP>
597.253

> <PUBCHEM_SHAPE_VOLUME>
151.8

> <PUBCHEM_COORDINATE_TYPE>
2
5
10

$$$$
