5365509
  -OEChem-01171812173D

 26 27  0     0  0  0  0  0  0999 V2000
   -5.2520    0.7381   -1.2802 S   0  0  0  0  0  0  0  0  0  0  0  0
   -2.0077   -2.0567    0.2972 O   0  0  0  0  0  0  0  0  0  0  0  0
    2.6510   -2.6478   -0.2463 O   0  0  0  0  0  0  0  0  0  0  0  0
    4.4854    1.8178   -0.1978 O   0  0  0  0  0  0  0  0  0  0  0  0
   -1.7189    0.5810    0.4179 N   0  0  0  0  0  0  0  0  0  0  0  0
    3.0803    0.0017   -0.1456 N   0  0  0  0  0  0  0  0  0  0  0  0
   -2.7150    0.5362   -0.5156 N   0  0  0  0  0  0  0  0  0  0  0  0
   -4.2773    0.9344    1.1813 N   0  0  0  0  0  0  0  0  0  0  0  0
    0.6657    0.4232    0.1455 C   0  0  0  0  0  0  0  0  0  0  0  0
   -0.5601   -0.1390    0.2485 C   0  0  0  0  0  0  0  0  0  0  0  0
    1.8672   -0.4347   -0.0360 C   0  0  0  0  0  0  0  0  0  0  0  0
   -0.7070   -1.5955    0.1812 C   0  0  0  0  0  0  0  0  0  0  0  0
    1.6792   -1.9230   -0.0990 C   0  0  0  0  0  0  0  0  0  0  0  0
    0.9555    1.8366    0.1944 C   0  0  0  0  0  0  0  0  0  0  0  0
    0.3124   -2.4476    0.0205 C   0  0  0  0  0  0  0  0  0  0  0  0
    2.2087    2.2865    0.0814 C   0  0  0  0  0  0  0  0  0  0  0  0
    3.3529    1.3522   -0.0990 C   0  0  0  0  0  0  0  0  0  0  0  0
   -4.0206    0.7367   -0.1483 C   0  0  0  0  0  0  0  0  0  0  0  0
    0.1519    2.5536    0.3184 H   0  0  0  0  0  0  0  0  0  0  0  0
    0.1654   -3.5202   -0.0248 H   0  0  0  0  0  0  0  0  0  0  0  0
   -1.6061    1.5128    0.8057 H   0  0  0  0  0  0  0  0  0  0  0  0
    2.4273    3.3480    0.1155 H   0  0  0  0  0  0  0  0  0  0  0  0
   -2.4277    0.3944   -1.4782 H   0  0  0  0  0  0  0  0  0  0  0  0
   -2.5807   -1.3137    0.5472 H   0  0  0  0  0  0  0  0  0  0  0  0
   -3.5348    0.9273    1.8723 H   0  0  0  0  0  0  0  0  0  0  0  0
   -5.2211    1.0888    1.5196 H   0  0  0  0  0  0  0  0  0  0  0  0
  1 18  2  0  0  0  0
  2 12  1  0  0  0  0
  2 24  1  0  0  0  0
  3 13  2  0  0  0  0
  4 17  2  0  0  0  0
  5  7  1  0  0  0  0
  5 10  1  0  0  0  0
  5 21  1  0  0  0  0
  6 11  2  0  0  0  0
  6 17  1  0  0  0  0
  7 18  1  0  0  0  0
  7 23  1  0  0  0  0
  8 18  1  0  0  0  0
  8 25  1  0  0  0  0
  8 26  1  0  0  0  0
  9 10  2  0  0  0  0
  9 11  1  0  0  0  0
  9 14  1  0  0  0  0
 10 12  1  0  0  0  0
 11 13  1  0  0  0  0
 12 15  2  0  0  0  0
 13 15  1  0  0  0  0
 14 16  2  0  0  0  0
 14 19  1  0  0  0  0
 15 20  1  0  0  0  0
 16 17  1  0  0  0  0
 16 22  1  0  0  0  0
M  END
> <PUBCHEM_COMPOUND_CID>
5365509

> <PUBCHEM_CONFORMER_RMSD>
0.6

> <PUBCHEM_CONFORMER_DIVERSEORDER>
6
21
22
27
2
19
12
28
26
1
14
13
10
20
24
9
15
5
11
16
8
18
17
25
4
23
7
3

> <PUBCHEM_MMFF94_PARTIAL_CHARGES>
26
1 -0.38
10 0.1
11 0.44
12 0.08
13 0.56
14 -0.15
15 -0.14
16 -0.14
17 0.77
18 0.5
19 0.15
2 -0.53
20 0.15
21 0.4
22 0.15
23 0.37
24 0.45
25 0.37
26 0.37
3 -0.57
4 -0.57
5 -0.52
6 -0.66
7 -0.41
8 -0.8
9 0.01

> <PUBCHEM_EFFECTIVE_ROTOR_COUNT>
3

> <PUBCHEM_PHARMACOPHORE_FEATURES>
11
1 1 acceptor
1 2 donor
1 3 acceptor
1 4 acceptor
1 5 donor
1 6 acceptor
1 6 donor
1 7 donor
1 8 donor
6 6 9 11 14 16 17 rings
6 9 10 11 12 13 15 rings

> <PUBCHEM_HEAVY_ATOM_COUNT>
18

> <PUBCHEM_ATOM_DEF_STEREO_COUNT>
0

> <PUBCHEM_ATOM_UDEF_STEREO_COUNT>
0

> <PUBCHEM_BOND_DEF_STEREO_COUNT>
0

> <PUBCHEM_BOND_UDEF_STEREO_COUNT>
0

> <PUBCHEM_ISOTOPIC_ATOM_COUNT>
0

> <PUBCHEM_COMPONENT_COUNT>
1

> <PUBCHEM_CACTVS_TAUTO_COUNT>
63

> <PUBCHEM_CONFORMER_ID>
0051DF0500000006

> <PUBCHEM_MMFF94_ENERGY>
53.2376

> <PUBCHEM_FEATURE_SELFOVERLAP>
57.54

> <PUBCHEM_SHAPE_FINGERPRINT>
10411042 1 17762055437053080282
10693767 8 18059573521416522446
10756046 5 18342448270944828543
10967382 1 18410858737494293736
10980938 120 18410853235340546185
11471102 20 18410853235456603757
11680986 33 18409739451615813850
12236239 1 17775004558061638809
12644460 14 18261678082100755482
12730499 353 18408042918628340641
13140716 1 18338513166062836136
13380535 21 18337116747297904715
13380535 76 18409728495180336074
13464514 151 18412267250454470782
13583140 156 16950556723066115353
13897977 150 18410575106217108139
14251717 144 18339636746523574399
14897335 6 18411417332176758067
15196674 1 18410293648467908338
15219456 202 18334866021495120995
16945 1 18339933627642927874
18186145 218 18341899558749568061
20510252 161 17839186560003510968
20612939 158 18339921511566592205
20645477 70 18337382739339376727
21501502 16 18337946887066869186
21524375 3 18336261344489282483
21639500 275 18411409592898943877
221490 88 18409453570482874155
22182313 1 18266480830337458302
231179 274 17894904127231597397
2334 1 18051133893367688720
23402655 69 18343013389972518885
23419403 2 17171493525780578702
23558518 356 17684081766156323504
23559900 14 18129107883036128204
23598291 2 17916302749791074229
25 1 18410571803397865540
2748010 2 18267599059896602598
3060560 45 18412261731553358060
3071541 37 18408608045882326292
335352 9 18410292502402483822
350125 39 17977675529905565697
4072396 5 18336811036400998304
42630746 31 18412259511023552151
474 4 18410853278691321097
58051976 378 18413106164894303605
633830 44 18129111034982278853
7364860 26 18341051826699970798
81228 2 17471561600414121825
81539 233 18260265243791921812
8272917 22 18341616954265056421
84936 182 18131347509762393464

> <PUBCHEM_SHAPE_MULTIPOLES>
336.75
8.21
2.77
0.81
8.64
1.24
-0.02
-4.64
-1.71
-2.39
-0.01
0.85
-0.14
0.2

> <PUBCHEM_SHAPE_SELFOVERLAP>
716.659

> <PUBCHEM_SHAPE_VOLUME>
188.7

> <PUBCHEM_COORDINATE_TYPE>
2
5
10

$$$$
