9605239
  -OEChem-01171812163D

 41 44  0     0  0  0  0  0  0999 V2000
   -5.4827   -2.5828   -0.0025 O   0  0  0  0  0  0  0  0  0  0  0  0
   -7.7066   -1.6540    0.0005 O   0  0  0  0  0  0  0  0  0  0  0  0
    7.1949    0.9249    0.0036 O   0  0  0  0  0  0  0  0  0  0  0  0
    7.9179   -1.3740    0.0024 O   0  0  0  0  0  0  0  0  0  0  0  0
   -2.1815    1.4028   -0.0007 N   0  0  0  0  0  0  0  0  0  0  0  0
    1.9988    0.8825   -0.0035 N   0  0  0  0  0  0  0  0  0  0  0  0
   -1.2363    2.3722   -0.0026 N   0  0  0  0  0  0  0  0  0  0  0  0
    0.6076    0.8999   -0.0046 N   0  0  0  0  0  0  0  0  0  0  0  0
    0.8629    3.2792   -0.0029 N   0  0  0  0  0  0  0  0  0  0  0  0
   -5.4746   -1.2219    0.0007 C   0  0  0  0  0  0  0  0  0  0  0  0
   -6.7444   -0.6915    0.0023 C   0  0  0  0  0  0  0  0  0  0  0  0
    6.1491    0.0540    0.0025 C   0  0  0  0  0  0  0  0  0  0  0  0
    6.5620   -1.2587    0.0018 C   0  0  0  0  0  0  0  0  0  0  0  0
   -4.3524   -0.4191    0.0008 C   0  0  0  0  0  0  0  0  0  0  0  0
   -4.5601    0.9529    0.0025 C   0  0  0  0  0  0  0  0  0  0  0  0
    4.8120    0.3945    0.0010 C   0  0  0  0  0  0  0  0  0  0  0  0
    3.8784   -0.6445   -0.0018 C   0  0  0  0  0  0  0  0  0  0  0  0
   -6.9622    0.6708    0.0041 C   0  0  0  0  0  0  0  0  0  0  0  0
    5.6607   -2.3032   -0.0008 C   0  0  0  0  0  0  0  0  0  0  0  0
   -6.9001   -2.8496   -0.0020 C   0  0  0  0  0  0  0  0  0  0  0  0
   -5.8426    1.5063    0.0041 C   0  0  0  0  0  0  0  0  0  0  0  0
    8.3124    0.0131    0.0041 C   0  0  0  0  0  0  0  0  0  0  0  0
    4.3003   -1.9857   -0.0026 C   0  0  0  0  0  0  0  0  0  0  0  0
   -3.3938    1.8534    0.0019 C   0  0  0  0  0  0  0  0  0  0  0  0
    2.4566   -0.3372   -0.0044 C   0  0  0  0  0  0  0  0  0  0  0  0
    0.1236    2.1157   -0.0037 C   0  0  0  0  0  0  0  0  0  0  0  0
   -3.3650   -0.8666   -0.0008 H   0  0  0  0  0  0  0  0  0  0  0  0
    4.5193    1.4390    0.0013 H   0  0  0  0  0  0  0  0  0  0  0  0
   -7.9642    1.0845    0.0050 H   0  0  0  0  0  0  0  0  0  0  0  0
    5.9901   -3.3360   -0.0018 H   0  0  0  0  0  0  0  0  0  0  0  0
   -7.1457   -3.4404    0.8880 H   0  0  0  0  0  0  0  0  0  0  0  0
   -7.1469   -3.4374   -0.8937 H   0  0  0  0  0  0  0  0  0  0  0  0
   -5.9868    2.5836    0.0052 H   0  0  0  0  0  0  0  0  0  0  0  0
    8.9206    0.2039    0.8958 H   0  0  0  0  0  0  0  0  0  0  0  0
    8.9226    0.2055   -0.8858 H   0  0  0  0  0  0  0  0  0  0  0  0
    3.5717   -2.7931   -0.0049 H   0  0  0  0  0  0  0  0  0  0  0  0
   -3.6110    2.9381    0.0026 H   0  0  0  0  0  0  0  0  0  0  0  0
    1.7581   -1.1948   -0.0061 H   0  0  0  0  0  0  0  0  0  0  0  0
   -1.5392    3.3429   -0.0019 H   0  0  0  0  0  0  0  0  0  0  0  0
    0.4187    4.1908   -0.0029 H   0  0  0  0  0  0  0  0  0  0  0  0
    1.8769    3.2543   -0.0037 H   0  0  0  0  0  0  0  0  0  0  0  0
  1 10  1  0  0  0  0
  1 20  1  0  0  0  0
  2 11  1  0  0  0  0
  2 20  1  0  0  0  0
  3 12  1  0  0  0  0
  3 22  1  0  0  0  0
  4 13  1  0  0  0  0
  4 22  1  0  0  0  0
  5  7  1  0  0  0  0
  5 24  2  0  0  0  0
  6  8  1  0  0  0  0
  6 25  2  0  0  0  0
  7 26  1  0  0  0  0
  7 39  1  0  0  0  0
  8 26  2  0  0  0  0
  9 26  1  0  0  0  0
  9 40  1  0  0  0  0
  9 41  1  0  0  0  0
 10 11  2  0  0  0  0
 10 14  1  0  0  0  0
 11 18  1  0  0  0  0
 12 13  2  0  0  0  0
 12 16  1  0  0  0  0
 13 19  1  0  0  0  0
 14 15  2  0  0  0  0
 14 27  1  0  0  0  0
 15 21  1  0  0  0  0
 15 24  1  0  0  0  0
 16 17  2  0  0  0  0
 16 28  1  0  0  0  0
 17 23  1  0  0  0  0
 17 25  1  0  0  0  0
 18 21  2  0  0  0  0
 18 29  1  0  0  0  0
 19 23  2  0  0  0  0
 19 30  1  0  0  0  0
 20 31  1  0  0  0  0
 20 32  1  0  0  0  0
 21 33  1  0  0  0  0
 22 34  1  0  0  0  0
 22 35  1  0  0  0  0
 23 36  1  0  0  0  0
 24 37  1  0  0  0  0
 25 38  1  0  0  0  0
M  END
> <PUBCHEM_COMPOUND_CID>
9605239

> <PUBCHEM_CONFORMER_RMSD>
0.8

> <PUBCHEM_CONFORMER_DIVERSEORDER>
1
9
38
32
18
54
6
39
46
17
29
24
64
26
4
59
13
53
48
25
27
51
12
5
22
10
37
50
52
63
19
65
71
23
55
35
70
66
36
28
56
49
33
61
7
45
16
20
15
68
40
21
57
47
42
67
14
44
30
62
60
31
58
2
34
43
11
69
3
41
8

> <PUBCHEM_MMFF94_PARTIAL_CHARGES>
37
1 -0.36
10 0.08
11 0.08
12 0.08
13 0.08
14 -0.15
15 0.09
16 -0.15
17 0.09
18 -0.15
19 -0.15
2 -0.36
20 0.56
21 -0.15
22 0.56
23 -0.15
24 0.3
25 0.3
26 0.55
27 0.15
28 0.15
29 0.15
3 -0.36
30 0.15
33 0.15
36 0.15
37 0.06
38 0.06
39 0.4
4 -0.36
40 0.4
41 0.4
5 -0.49
6 -0.45
7 -0.41
8 -0.45
9 -0.85

> <PUBCHEM_EFFECTIVE_ROTOR_COUNT>
6.2

> <PUBCHEM_PHARMACOPHORE_FEATURES>
13
1 1 acceptor
1 2 acceptor
1 3 acceptor
1 4 acceptor
1 5 acceptor
1 6 acceptor
1 7 donor
1 9 donor
4 7 8 9 26 cation
5 1 2 10 11 20 rings
5 3 4 12 13 22 rings
6 10 11 14 15 18 21 rings
6 12 13 16 17 19 23 rings

> <PUBCHEM_HEAVY_ATOM_COUNT>
26

> <PUBCHEM_ATOM_DEF_STEREO_COUNT>
0

> <PUBCHEM_ATOM_UDEF_STEREO_COUNT>
0

> <PUBCHEM_BOND_DEF_STEREO_COUNT>
1

> <PUBCHEM_BOND_UDEF_STEREO_COUNT>
2

> <PUBCHEM_ISOTOPIC_ATOM_COUNT>
0

> <PUBCHEM_COMPONENT_COUNT>
1

> <PUBCHEM_CACTVS_TAUTO_COUNT>
2

> <PUBCHEM_CONFORMER_ID>
0092907700000001

> <PUBCHEM_MMFF94_ENERGY>
68.7496

> <PUBCHEM_FEATURE_SELFOVERLAP>
66.34

> <PUBCHEM_SHAPE_FINGERPRINT>
10299344 5 18410014329664838260
10391435 84 18409720781561497489
10939801 23 18342737468504527502
11135609 99 18341613758329288613
11315181 36 18343585127724589361
11524674 6 16773792602397331327
117089 54 18045789142267096939
11724838 91 18260268539213570812
11963148 33 18337383856063483350
11991303 11 13984958341184146641
12516196 113 18412262818085469376
12522641 126 18115876372444047108
12643181 29 18409445865764725733
13248334 5 18050286169988245161
1361 4 18338797802125407466
13690498 29 18113612375112638261
13989917 61 18411138078304833376
14178184 131 18059008505863666135
14394314 77 18336830784471071857
14420673 8 18410013243929629891
14461889 52 18411412922121039098
14556957 393 15575007108799206423
15183329 4 16153425051729022227
15274700 208 16916209122919298866
15352257 5 18412262826453675971
15510800 12 18041848436446531299
15728490 51 18412261749044365950
16992752 21 18341060653021814460
16992779 147 16413771916744657096
17780758 139 17988928843270768169
18335252 98 18342458132664045174
18608769 82 18413103965913323886
20567600 70 18411700997702834221
21049683 271 18341895212808076624
21130935 74 18198904717752434714
21197605 99 18413390921980792262
21223535 225 15140955115721371141
21623969 137 17775287131848286302
23424782 7 18412261749128963328
23522609 53 18122096210484758557
23524908 199 12468901092991378512
23559900 14 18339634638391653049
23569917 315 18269840810374006558
2838139 119 8142075451570777297
3004659 81 18113334223796977641
306946 40 13840274736716334926
3627633 1 18338516322648676781
4325135 7 18408042888658794684
437795 51 17775276197563151448
4461854 278 17989213689074847703
5385378 56 11743849044965388572
559249 180 18411981352647901733
59682541 35 18059849580818721600
5969126 39 17167858634427596741
636775 8 18342465803470472062
999808 66 18114191847952667731

> <PUBCHEM_SHAPE_MULTIPOLES>
486.69
28.33
3
0.58
9.03
0.06
0
15.48
-0.04
-3.08
0
-0.01
0.01
0

> <PUBCHEM_SHAPE_SELFOVERLAP>
1072.757

> <PUBCHEM_SHAPE_VOLUME>
261.9

> <PUBCHEM_COORDINATE_TYPE>
2
5
10

$$$$
