24761328
  -OEChem-01171812033D

 37 40  0     0  0  0  0  0  0999 V2000
   -2.6287   -1.2991   -0.0422 O   0  0  0  0  0  0  0  0  0  0  0  0
   -4.2260    2.4663    0.0831 O   0  0  0  0  0  0  0  0  0  0  0  0
    8.5918   -0.7458   -0.0213 N   0  0  0  0  0  0  0  0  0  0  0  0
   -2.2950    1.1189    0.0369 C   0  0  0  0  0  0  0  0  0  0  0  0
   -4.5995    0.1423    0.0034 C   0  0  0  0  0  0  0  0  0  0  0  0
   -1.8185   -0.1910   -0.0061 C   0  0  0  0  0  0  0  0  0  0  0  0
   -3.9889   -1.1108   -0.0378 C   0  0  0  0  0  0  0  0  0  0  0  0
   -3.7489    1.3417    0.0445 C   0  0  0  0  0  0  0  0  0  0  0  0
   -1.4066    2.1970    0.0723 C   0  0  0  0  0  0  0  0  0  0  0  0
   -0.4420   -0.4256   -0.0137 C   0  0  0  0  0  0  0  0  0  0  0  0
   -5.9924    0.2538    0.0057 C   0  0  0  0  0  0  0  0  0  0  0  0
    0.4492    0.6477    0.0214 C   0  0  0  0  0  0  0  0  0  0  0  0
   -4.7773   -2.2628   -0.0769 C   0  0  0  0  0  0  0  0  0  0  0  0
   -0.0325    1.9563    0.0643 C   0  0  0  0  0  0  0  0  0  0  0  0
   -6.7747   -0.9005   -0.0338 C   0  0  0  0  0  0  0  0  0  0  0  0
   -6.1687   -2.1564   -0.0751 C   0  0  0  0  0  0  0  0  0  0  0  0
    1.8577    0.4060    0.0134 C   0  0  0  0  0  0  0  0  0  0  0  0
    4.4516   -0.0387   -0.0008 C   0  0  0  0  0  0  0  0  0  0  0  0
    5.1736    0.0796   -1.1885 C   0  0  0  0  0  0  0  0  0  0  0  0
    5.1046   -0.3917    1.1802 C   0  0  0  0  0  0  0  0  0  0  0  0
    3.0418    0.2030    0.0069 C   0  0  0  0  0  0  0  0  0  0  0  0
    7.2014   -0.5084   -0.0143 C   0  0  0  0  0  0  0  0  0  0  0  0
    6.5484   -0.1553   -1.1952 C   0  0  0  0  0  0  0  0  0  0  0  0
    6.4795   -0.6267    1.1734 C   0  0  0  0  0  0  0  0  0  0  0  0
   -1.7634    3.2224    0.1060 H   0  0  0  0  0  0  0  0  0  0  0  0
   -0.0709   -1.4480   -0.0470 H   0  0  0  0  0  0  0  0  0  0  0  0
   -6.4819    1.2231    0.0376 H   0  0  0  0  0  0  0  0  0  0  0  0
   -4.3156   -3.2461   -0.1090 H   0  0  0  0  0  0  0  0  0  0  0  0
    0.6519    2.8010    0.0919 H   0  0  0  0  0  0  0  0  0  0  0  0
   -7.8580   -0.8215   -0.0324 H   0  0  0  0  0  0  0  0  0  0  0  0
   -6.7810   -3.0530   -0.1057 H   0  0  0  0  0  0  0  0  0  0  0  0
    4.6788    0.3542   -2.1170 H   0  0  0  0  0  0  0  0  0  0  0  0
    4.5556   -0.4875    2.1140 H   0  0  0  0  0  0  0  0  0  0  0  0
    7.1000   -0.0599   -2.1271 H   0  0  0  0  0  0  0  0  0  0  0  0
    6.9771   -0.9011    2.1001 H   0  0  0  0  0  0  0  0  0  0  0  0
    9.0657   -1.0026    0.8344 H   0  0  0  0  0  0  0  0  0  0  0  0
    9.1155   -0.6610   -0.8823 H   0  0  0  0  0  0  0  0  0  0  0  0
  1  6  1  0  0  0  0
  1  7  1  0  0  0  0
  2  8  2  0  0  0  0
  3 22  1  0  0  0  0
  3 36  1  0  0  0  0
  3 37  1  0  0  0  0
  4  6  2  0  0  0  0
  4  8  1  0  0  0  0
  4  9  1  0  0  0  0
  5  7  1  0  0  0  0
  5  8  1  0  0  0  0
  5 11  2  0  0  0  0
  6 10  1  0  0  0  0
  7 13  2  0  0  0  0
  9 14  2  0  0  0  0
  9 25  1  0  0  0  0
 10 12  2  0  0  0  0
 10 26  1  0  0  0  0
 11 15  1  0  0  0  0
 11 27  1  0  0  0  0
 12 14  1  0  0  0  0
 12 17  1  0  0  0  0
 13 16  1  0  0  0  0
 13 28  1  0  0  0  0
 14 29  1  0  0  0  0
 15 16  2  0  0  0  0
 15 30  1  0  0  0  0
 16 31  1  0  0  0  0
 17 21  3  0  0  0  0
 18 19  2  0  0  0  0
 18 20  1  0  0  0  0
 18 21  1  0  0  0  0
 19 23  1  0  0  0  0
 19 32  1  0  0  0  0
 20 24  2  0  0  0  0
 20 33  1  0  0  0  0
 22 23  2  0  0  0  0
 22 24  1  0  0  0  0
 23 34  1  0  0  0  0
 24 35  1  0  0  0  0
M  END
> <PUBCHEM_COMPOUND_CID>
24761328

> <PUBCHEM_CONFORMER_RMSD>
0.6

> <PUBCHEM_CONFORMER_DIVERSEORDER>
1

> <PUBCHEM_MMFF94_PARTIAL_CHARGES>
37
1 -0.17
10 -0.15
11 -0.15
12 0.07
13 -0.15
14 -0.15
15 -0.15
16 -0.15
17 -0.07
18 0.07
19 -0.15
2 -0.57
20 -0.15
21 -0.07
22 0.1
23 -0.15
24 -0.15
25 0.15
26 0.15
27 0.15
28 0.15
29 0.15
3 -0.9
30 0.15
31 0.15
32 0.15
33 0.15
34 0.15
35 0.15
36 0.4
37 0.4
4 0.09
5 0.09
6 0.08
7 0.08
8 0.4
9 -0.15

> <PUBCHEM_EFFECTIVE_ROTOR_COUNT>
0

> <PUBCHEM_PHARMACOPHORE_FEATURES>
8
1 1 acceptor
1 2 acceptor
1 3 cation
1 3 donor
6 1 4 5 6 7 8 rings
6 18 19 20 22 23 24 rings
6 4 6 9 10 12 14 rings
6 5 7 11 13 15 16 rings

> <PUBCHEM_HEAVY_ATOM_COUNT>
24

> <PUBCHEM_ATOM_DEF_STEREO_COUNT>
0

> <PUBCHEM_ATOM_UDEF_STEREO_COUNT>
0

> <PUBCHEM_BOND_DEF_STEREO_COUNT>
0

> <PUBCHEM_BOND_UDEF_STEREO_COUNT>
0

> <PUBCHEM_ISOTOPIC_ATOM_COUNT>
0

> <PUBCHEM_COMPONENT_COUNT>
1

> <PUBCHEM_CACTVS_TAUTO_COUNT>
1

> <PUBCHEM_CONFORMER_ID>
0179D3F000000001

> <PUBCHEM_MMFF94_ENERGY>
74.0484

> <PUBCHEM_FEATURE_SELFOVERLAP>
40.654

> <PUBCHEM_SHAPE_FINGERPRINT>
10 15 17774998016820860514
10299344 5 18113900455427010570
10411042 1 18267021838325765959
10595046 47 18260268530296705396
106641 1 12607404421301159631
11315181 36 18409451388370235169
11524674 6 16845291665766165983
11963148 33 18411693305554791758
12166972 35 17894632582261766084
12236239 1 17822010899839909892
12516196 113 18131914866552349696
13288520 33 18411138048197857821
13673619 4 18272651272349384401
13685833 64 18272933838653508592
13782708 43 17917987312725519263
13862211 1 18409165541127158739
14068700 675 18333452049494900180
14251764 18 18113620088746800734
14556957 393 16226339122575808382
15183329 4 17240198837830169034
15348495 7 16988272196465064034
15352257 5 18202568345951262926
15419008 47 17632572743367411920
15419008 91 18269535226827861752
15510794 2 18131635557315446238
15716309 27 17917710223179196398
1577012 14 17894631410146741056
16087824 20 18337107849482175341
17844677 252 18342461456415357792
18006028 8 18272369788835219849
18608769 82 18273213114802473798
18681886 176 18408600392561990720
18927931 339 18413671331636217391
21130935 74 18271525291713830266
21150785 3 17676489467021155292
21267235 1 18409171043370427739
21315759 40 18040718044061684554
21315763 28 18408604756385926292
21623969 137 16988567888031165342
21792961 116 18040712577069684575
22224240 67 16128655262590127966
2297311 6 18272092686098403728
2303208 19 17561090181194122204
23035841 295 18408887343152342739
23081809 10 17749111067548371168
23198884 109 15646767890822144389
23522609 53 18044686181216190076
23559900 14 18266454494088655281
249999 5 18055911250153780328
3004659 81 18187645834167973348
335352 9 18409726267205373389
3383291 50 18339079397435341635
34797466 226 17917437553592753188
397830 11 17273682342576816826
4325135 7 18186239519983158134
5104073 3 17702673129139789738
5283156 175 18114181921855848146
54039377 194 18114751533757609843
559249 180 18407757032704373253
5718773 13 18128531773091993791
58902169 19 17095528422110236886
5969126 39 16950275191859087676
59755656 215 18412827975436050038
6138700 20 18409166627965160539
636775 8 18262529181347443398
67123 10 18410575098893068628

> <PUBCHEM_SHAPE_MULTIPOLES>
477.19
22.19
1.95
0.85
27.29
0.41
-0.01
-10.2
-0.45
-3.83
0.04
1.4
-0.08
-0.43

> <PUBCHEM_SHAPE_SELFOVERLAP>
1074.089

> <PUBCHEM_SHAPE_VOLUME>
250.1

> <PUBCHEM_COORDINATE_TYPE>
2
5
10

$$$$
