947839
  -OEChem-01171812023D

 34 35  0     0  0  0  0  0  0999 V2000
    0.7930   -3.0139   -0.5287 S   0  0  0  0  0  0  0  0  0  0  0  0
   -6.1979   -0.6806   -0.0506 O   0  0  0  0  0  0  0  0  0  0  0  0
    7.2638   -0.4049    0.6229 O   0  0  0  0  0  0  0  0  0  0  0  0
   -1.4064    1.0572    0.1743 O   0  0  0  0  0  0  0  0  0  0  0  0
    7.1416    1.6492   -0.3429 O   0  0  0  0  0  0  0  0  0  0  0  0
    1.0144   -0.2939   -0.0515 N   0  0  0  0  0  0  0  0  0  0  0  0
   -1.1302   -1.2443   -0.1921 N   0  0  0  0  0  0  0  0  0  0  0  0
    2.4129   -0.0617   -0.0214 C   0  0  0  0  0  0  0  0  0  0  0  0
    2.9099    1.1278   -0.5238 C   0  0  0  0  0  0  0  0  0  0  0  0
    3.2464   -1.0295    0.5107 C   0  0  0  0  0  0  0  0  0  0  0  0
    5.1414    0.3932    0.0390 C   0  0  0  0  0  0  0  0  0  0  0  0
    4.2854    1.3571   -0.4935 C   0  0  0  0  0  0  0  0  0  0  0  0
    4.6220   -0.8001    0.5410 C   0  0  0  0  0  0  0  0  0  0  0  0
    0.2639   -1.4488   -0.2312 C   0  0  0  0  0  0  0  0  0  0  0  0
   -5.6256    0.5316    0.0931 C   0  0  0  0  0  0  0  0  0  0  0  0
   -4.2004    0.6872    0.1207 C   0  0  0  0  0  0  0  0  0  0  0  0
    6.5756    0.6324    0.0717 C   0  0  0  0  0  0  0  0  0  0  0  0
   -1.8686   -0.0648   -0.0014 C   0  0  0  0  0  0  0  0  0  0  0  0
   -6.5542    1.5239    0.2034 C   0  0  0  0  0  0  0  0  0  0  0  0
   -3.3380   -0.3297   -0.0287 C   0  0  0  0  0  0  0  0  0  0  0  0
   -7.8099    0.8762    0.1214 C   0  0  0  0  0  0  0  0  0  0  0  0
   -7.5393   -0.4635   -0.0325 C   0  0  0  0  0  0  0  0  0  0  0  0
    2.2512    1.8842   -0.9412 H   0  0  0  0  0  0  0  0  0  0  0  0
    2.8815   -1.9380    0.9740 H   0  0  0  0  0  0  0  0  0  0  0  0
    4.6702    2.2931   -0.8896 H   0  0  0  0  0  0  0  0  0  0  0  0
    5.2513   -1.5703    0.9784 H   0  0  0  0  0  0  0  0  0  0  0  0
    0.4813    0.5639   -0.1709 H   0  0  0  0  0  0  0  0  0  0  0  0
   -1.6663   -2.0981   -0.3305 H   0  0  0  0  0  0  0  0  0  0  0  0
   -3.8278    1.6987    0.2633 H   0  0  0  0  0  0  0  0  0  0  0  0
   -6.3723    2.5824    0.3276 H   0  0  0  0  0  0  0  0  0  0  0  0
   -3.6770   -1.3498   -0.1773 H   0  0  0  0  0  0  0  0  0  0  0  0
   -8.7896    1.3291    0.1689 H   0  0  0  0  0  0  0  0  0  0  0  0
   -8.1566   -1.3437   -0.1379 H   0  0  0  0  0  0  0  0  0  0  0  0
    8.2296   -0.2335    0.6408 H   0  0  0  0  0  0  0  0  0  0  0  0
  1 14  2  0  0  0  0
  2 15  1  0  0  0  0
  2 22  1  0  0  0  0
  3 17  1  0  0  0  0
  3 34  1  0  0  0  0
  4 18  2  0  0  0  0
  5 17  2  0  0  0  0
  6  8  1  0  0  0  0
  6 14  1  0  0  0  0
  6 27  1  0  0  0  0
  7 14  1  0  0  0  0
  7 18  1  0  0  0  0
  7 28  1  0  0  0  0
  8  9  2  0  0  0  0
  8 10  1  0  0  0  0
  9 12  1  0  0  0  0
  9 23  1  0  0  0  0
 10 13  2  0  0  0  0
 10 24  1  0  0  0  0
 11 12  2  0  0  0  0
 11 13  1  0  0  0  0
 11 17  1  0  0  0  0
 12 25  1  0  0  0  0
 13 26  1  0  0  0  0
 15 16  1  0  0  0  0
 15 19  2  0  0  0  0
 16 20  2  0  0  0  0
 16 29  1  0  0  0  0
 18 20  1  0  0  0  0
 19 21  1  0  0  0  0
 19 30  1  0  0  0  0
 20 31  1  0  0  0  0
 21 22  2  0  0  0  0
 21 32  1  0  0  0  0
 22 33  1  0  0  0  0
M  END
> <PUBCHEM_COMPOUND_CID>
947839

> <PUBCHEM_CONFORMER_RMSD>
0.8

> <PUBCHEM_CONFORMER_DIVERSEORDER>
1
17
9
16
5
6
4
18
13
10
2
15
11
14
12
7
3
8

> <PUBCHEM_MMFF94_PARTIAL_CHARGES>
34
1 -0.38
10 -0.15
11 0.09
12 -0.15
13 -0.15
14 0.5
15 0.09
16 -0.11
17 0.63
18 0.62
19 -0.15
2 -0.28
20 -0.14
21 -0.15
22 -0.01
23 0.15
24 0.15
25 0.15
26 0.15
27 0.37
28 0.37
29 0.15
3 -0.65
30 0.15
31 0.15
32 0.15
33 0.15
34 0.5
4 -0.57
5 -0.57
6 -0.55
7 -0.49
8 0.12
9 -0.15

> <PUBCHEM_EFFECTIVE_ROTOR_COUNT>
7

> <PUBCHEM_PHARMACOPHORE_FEATURES>
10
1 1 acceptor
1 2 acceptor
1 3 acceptor
1 4 acceptor
1 5 acceptor
1 6 donor
1 7 donor
3 3 5 17 anion
5 2 15 19 21 22 rings
6 8 9 10 11 12 13 rings

> <PUBCHEM_HEAVY_ATOM_COUNT>
22

> <PUBCHEM_ATOM_DEF_STEREO_COUNT>
0

> <PUBCHEM_ATOM_UDEF_STEREO_COUNT>
0

> <PUBCHEM_BOND_DEF_STEREO_COUNT>
1

> <PUBCHEM_BOND_UDEF_STEREO_COUNT>
0

> <PUBCHEM_ISOTOPIC_ATOM_COUNT>
0

> <PUBCHEM_COMPONENT_COUNT>
1

> <PUBCHEM_CACTVS_TAUTO_COUNT>
8

> <PUBCHEM_CONFORMER_ID>
000E767F00000001

> <PUBCHEM_MMFF94_ENERGY>
64.7995

> <PUBCHEM_FEATURE_SELFOVERLAP>
50.846

> <PUBCHEM_SHAPE_FINGERPRINT>
10 15 18040436602695645624
10050765 1 18052259488474167625
10066227 49 16701751440936063006
10354089 29 18040997345647747852
10411042 1 17833550095003975970
10595046 47 18342738469527234907
11315181 36 18413108356503874889
11638347 137 16950282884419567699
11719270 70 18342173336781471946
11724838 91 18334012817630749975
12236239 1 18410291406373550171
12838862 33 18340470232256873680
13167372 99 18337391539590586305
13533116 47 17095796616736487842
13631057 29 18201715220029481167
13685833 64 8646769993149443910
14123256 10 17988925565809573473
14251764 18 18333448754921946805
14251764 46 18410573985162033145
14933364 13 18409730655907633977
15183329 4 10879995748881071063
15419008 47 15791724213877974941
15840311 113 18186524337209544044
16989713 51 17488732524168299407
20157964 124 18411421687463786090
20281389 69 18187362129934677900
20554085 129 17703778220478995546
21150785 3 14764346041967902801
21403212 168 18334852801796962322
22224240 67 18040151825021323499
335352 9 18410858776829293364
3545911 37 18408040715030581918
397830 11 15647918061531797393
4073 2 17822579403260320874
4325135 7 18412261745002625807
4340502 62 16588022407702762226
5283156 175 9871756793124313148
5486654 2 18131069338147983823
5758199 1 18343304760543232491
59682541 35 17968098659284614361
59682541 52 17346332466593236710
59755656 520 18040430023101913811
8209 1 18410855460181091225

> <PUBCHEM_SHAPE_MULTIPOLES>
423.16
23.18
1.9
0.69
16.4
1.18
0
-9.55
1.73
-0.92
-0.32
-0.32
0.04
-0.69

> <PUBCHEM_SHAPE_SELFOVERLAP>
891.772

> <PUBCHEM_SHAPE_VOLUME>
238.6

> <PUBCHEM_COORDINATE_TYPE>
2
5
10

$$$$
