1075619
  -OEChem-01171812003D

 40 42  0     0  0  0  0  0  0999 V2000
    2.0504   -3.1604   -0.3353 S   0  0  0  0  0  0  0  0  0  0  0  0
   -4.6865    0.1016   -0.1530 O   0  0  0  0  0  0  0  0  0  0  0  0
    3.5414   -0.6579   -1.4587 O   0  0  0  0  0  0  0  0  0  0  0  0
   -0.4525   -2.2792   -0.7738 N   0  0  0  0  0  0  0  0  0  0  0  0
    0.4502   -1.4702    1.0893 N   0  0  0  0  0  0  0  0  0  0  0  0
    3.2547    0.2167    0.6755 N   0  0  0  0  0  0  0  0  0  0  0  0
   -1.4126   -1.4692   -0.2237 C   0  0  0  0  0  0  0  0  0  0  0  0
   -0.8252   -0.9762    0.9383 C   0  0  0  0  0  0  0  0  0  0  0  0
    0.6409   -2.2468    0.0462 C   0  0  0  0  0  0  0  0  0  0  0  0
   -2.7051   -1.1356   -0.6302 C   0  0  0  0  0  0  0  0  0  0  0  0
    3.2127    1.6133    0.3053 C   0  0  0  0  0  0  0  0  0  0  0  0
   -1.5559   -0.0971    1.7552 C   0  0  0  0  0  0  0  0  0  0  0  0
   -3.4179   -0.2594    0.1948 C   0  0  0  0  0  0  0  0  0  0  0  0
    1.8149    2.0743    0.0093 C   0  0  0  0  0  0  0  0  0  0  0  0
   -2.8555    0.2517    1.3667 C   0  0  0  0  0  0  0  0  0  0  0  0
    3.4089   -2.1765    0.3918 C   0  0  0  0  0  0  0  0  0  0  0  0
    3.4165   -0.8064   -0.2441 C   0  0  0  0  0  0  0  0  0  0  0  0
    1.3204    1.9826   -1.2865 C   0  0  0  0  0  0  0  0  0  0  0  0
    1.0290    2.5886    1.0339 C   0  0  0  0  0  0  0  0  0  0  0  0
    0.0219    2.4113   -1.5617 C   0  0  0  0  0  0  0  0  0  0  0  0
   -0.2696    3.0173    0.7589 C   0  0  0  0  0  0  0  0  0  0  0  0
   -0.7731    2.9286   -0.5390 C   0  0  0  0  0  0  0  0  0  0  0  0
   -5.2080   -0.4511   -1.3591 C   0  0  0  0  0  0  0  0  0  0  0  0
   -0.5371   -2.8065   -1.6324 H   0  0  0  0  0  0  0  0  0  0  0  0
   -3.0820   -1.5656   -1.5489 H   0  0  0  0  0  0  0  0  0  0  0  0
    3.8618    1.7795   -0.5628 H   0  0  0  0  0  0  0  0  0  0  0  0
    3.6405    2.1869    1.1354 H   0  0  0  0  0  0  0  0  0  0  0  0
   -1.1281    0.3046    2.6682 H   0  0  0  0  0  0  0  0  0  0  0  0
   -3.4290    0.9321    1.9917 H   0  0  0  0  0  0  0  0  0  0  0  0
    3.2851   -2.1313    1.4775 H   0  0  0  0  0  0  0  0  0  0  0  0
    4.3637   -2.6654    0.1769 H   0  0  0  0  0  0  0  0  0  0  0  0
    3.1355   -0.0089    1.6587 H   0  0  0  0  0  0  0  0  0  0  0  0
    1.9294    1.5834   -2.0924 H   0  0  0  0  0  0  0  0  0  0  0  0
    1.4097    2.6594    2.0489 H   0  0  0  0  0  0  0  0  0  0  0  0
   -0.3708    2.3411   -2.5718 H   0  0  0  0  0  0  0  0  0  0  0  0
   -0.8894    3.4184    1.5554 H   0  0  0  0  0  0  0  0  0  0  0  0
   -1.7850    3.2601   -0.7526 H   0  0  0  0  0  0  0  0  0  0  0  0
   -4.6341   -0.1255   -2.2333 H   0  0  0  0  0  0  0  0  0  0  0  0
   -6.2231   -0.0591   -1.4813 H   0  0  0  0  0  0  0  0  0  0  0  0
   -5.2932   -1.5414   -1.2997 H   0  0  0  0  0  0  0  0  0  0  0  0
  1  9  1  0  0  0  0
  1 16  1  0  0  0  0
  2 13  1  0  0  0  0
  2 23  1  0  0  0  0
  3 17  2  0  0  0  0
  4  7  1  0  0  0  0
  4  9  1  0  0  0  0
  4 24  1  0  0  0  0
  5  8  1  0  0  0  0
  5  9  2  0  0  0  0
  6 11  1  0  0  0  0
  6 17  1  0  0  0  0
  6 32  1  0  0  0  0
  7  8  2  0  0  0  0
  7 10  1  0  0  0  0
  8 12  1  0  0  0  0
 10 13  2  0  0  0  0
 10 25  1  0  0  0  0
 11 14  1  0  0  0  0
 11 26  1  0  0  0  0
 11 27  1  0  0  0  0
 12 15  2  0  0  0  0
 12 28  1  0  0  0  0
 13 15  1  0  0  0  0
 14 18  2  0  0  0  0
 14 19  1  0  0  0  0
 15 29  1  0  0  0  0
 16 17  1  0  0  0  0
 16 30  1  0  0  0  0
 16 31  1  0  0  0  0
 18 20  1  0  0  0  0
 18 33  1  0  0  0  0
 19 21  2  0  0  0  0
 19 34  1  0  0  0  0
 20 22  2  0  0  0  0
 20 35  1  0  0  0  0
 21 22  1  0  0  0  0
 21 36  1  0  0  0  0
 22 37  1  0  0  0  0
 23 38  1  0  0  0  0
 23 39  1  0  0  0  0
 23 40  1  0  0  0  0
M  END
> <PUBCHEM_COMPOUND_CID>
1075619

> <PUBCHEM_CONFORMER_RMSD>
0.8

> <PUBCHEM_CONFORMER_DIVERSEORDER>
1
441
243
426
100
356
248
143
250
467
378
288
481
383
329
184
86
377
466
43
15
468
65
486
142
335
166
34
26
463
394
430
194
475
470
281
212
170
147
52
227
295
459
30
480
471
5
440
252
67
233
460
209
199
91
51
457
180
117
171
302
285
235
251
427
25
472
326
220
219
380
320
156
398
71
255
283
32
205
9
352
37
224
392
7
483
385
240
60
114
242
258
333
338
204
3
371
193
330
484
70
168
169
135
8
487
196
473
278
21
141
435
97
305
232
99
296
298
76
11
272
75
445
387
324
77
269
2
111
167
164
191
314
464
33
16
59
203
36
105
23
102
214
137
90
313
215
84
129
341
437
208
82
300
348
29
195
41
339
375
20
174
45
439
69
270
476
423
299
197
150
104
309
448
465
96
12
190
425
4
367
148
42
81
178
268
146
185
64
336
256
187
253
234
181
416
136
56
73
79
244
428
182
400
265
225
307
61
24
28
222
304
66
18
408
485
95
271
217
368
327
173
370
290
94
422
31
340
110
138
376
158
444
103
365
446
231
294
62
210
165
6
80
451
172
357
342
366
115
474
390
200
379
433
477
183
389
112
221
201
454
286
350
246
344
126
68
417
176
175
58
315
10
122
409
153
139
177
447
429
266
443
144
292
349
124
267
239
405
155
469
334
462
85
455
188
318
311
373
163
207
346
38
27
328
229
388
277
40
263
323
322
261
393
108
434
259
364
145
386
482
247
438
226
325
291
452
331
479
157
411
131
123
35
282
410
384
223
358
92
353
202
316
249
275
399
453
88
449
301
287
98
257
432
39
297
198
54
237
412
418
48
419
133
49
310
162
130
293
369
274
407
458
345
306
83
337
343
101
391
53
461
161
206
262
351
109
372
125
397
396
332
228
478
273
420
413
132
360
151
414
89
44
359
308
381
241
402
189
159
218
317
260
17
442
107
106
113
55
421
230
347
87
245
63
74
22
424
120
361
431
312
211
436
289
160
321
382
374
415
395
303
149
319
401
355
179
118
404
134
362
154
456
403
140
279
254
363
78
276
406
13
284
264
216
127
57
116
121
450
119
354
213
152
192
128
14
46
186
19
72
47
238
50
236
280
93

> <PUBCHEM_MMFF94_PARTIAL_CHARGES>
33
1 -0.29
10 -0.15
11 0.44
12 -0.15
13 0.08
14 -0.14
15 -0.15
16 0.29
17 0.57
18 -0.15
19 -0.15
2 -0.36
20 -0.15
21 -0.15
22 -0.15
23 0.28
24 0.27
25 0.15
28 0.15
29 0.15
3 -0.57
32 0.37
33 0.15
34 0.15
35 0.15
36 0.15
37 0.15
4 0.03
5 -0.57
6 -0.73
7 -0.15
8 0.23
9 0.24

> <PUBCHEM_EFFECTIVE_ROTOR_COUNT>
7

> <PUBCHEM_PHARMACOPHORE_FEATURES>
8
1 2 acceptor
1 3 acceptor
1 4 donor
1 6 donor
3 4 5 9 cation
5 4 5 7 8 9 rings
6 14 18 19 20 21 22 rings
6 7 8 10 12 13 15 rings

> <PUBCHEM_HEAVY_ATOM_COUNT>
23

> <PUBCHEM_ATOM_DEF_STEREO_COUNT>
0

> <PUBCHEM_ATOM_UDEF_STEREO_COUNT>
0

> <PUBCHEM_BOND_DEF_STEREO_COUNT>
0

> <PUBCHEM_BOND_UDEF_STEREO_COUNT>
0

> <PUBCHEM_ISOTOPIC_ATOM_COUNT>
0

> <PUBCHEM_COMPONENT_COUNT>
1

> <PUBCHEM_CACTVS_TAUTO_COUNT>
4

> <PUBCHEM_CONFORMER_ID>
001069A300000001

> <PUBCHEM_MMFF94_ENERGY>
48.5234

> <PUBCHEM_FEATURE_SELFOVERLAP>
40.703

> <PUBCHEM_SHAPE_FINGERPRINT>
104564 63 18192727660820836364
11244481 83 15793152594950764789
11370993 70 17767673224237377224
11578080 2 17557393545169857248
12156800 1 16320252847579400026
12422481 6 18119503488882363560
12467345 10 17986944336061366351
12592029 89 18193565682334603403
128993 33 16963538879813750972
13140716 1 18337675338297500746
14251757 17 17970327262074769509
17357779 13 18335702680855180948
19930381 70 18411411851930363767
20905425 154 18193557770318892508
21285901 2 18113605785973300013
23352939 185 18270676464246501761
23559900 14 17842837999723775040
238 59 17686620555542185614
3014063 31 18338511924495520973
474 4 18409728508018109555
484985 159 14466615666456809212
6443956 14 18411135835788904301
6669772 16 16910850223019084777
70251023 43 18048880689121505043
7237137 82 17690024253628886294

> <PUBCHEM_SHAPE_MULTIPOLES>
450.5
6.91
3.98
1.42
5.13
1.17
0
-2.43
1.49
-2.53
0.41
0.49
0.37
-0.08

> <PUBCHEM_SHAPE_SELFOVERLAP>
958.404

> <PUBCHEM_SHAPE_VOLUME>
253

> <PUBCHEM_COORDINATE_TYPE>
2
5
10

$$$$
