4209060
  -OEChem-01171812013D

 50 52  0     0  0  0  0  0  0999 V2000
    1.6303    2.6364    0.2339 S   0  0  0  0  0  0  0  0  0  0  0  0
    4.4742   -2.5349    0.1870 O   0  0  0  0  0  0  0  0  0  0  0  0
   -4.6790   -0.0641    2.1829 O   0  0  0  0  0  0  0  0  0  0  0  0
   -6.1265   -0.3573   -0.1688 O   0  0  0  0  0  0  0  0  0  0  0  0
    5.8278   -0.1764   -0.3883 O   0  0  0  0  0  0  0  0  0  0  0  0
    1.3426    2.8670    1.6566 O   0  5  0  0  0  0  0  0  0  0  0  0
    2.5819    3.5987   -0.3425 O   0  0  0  0  0  0  0  0  0  0  0  0
    0.4452    2.4039   -0.6036 O   0  0  0  0  0  0  0  0  0  0  0  0
    0.0497   -0.3570   -1.5272 N   0  3  0  0  0  0  0  0  0  0  0  0
    0.3182   -0.0904    0.8408 C   0  0  0  0  0  0  0  0  0  0  0  0
   -0.5692   -0.2413   -0.3451 C   0  0  0  0  0  0  0  0  0  0  0  0
   -1.9633   -0.2669   -0.2729 C   0  0  0  0  0  0  0  0  0  0  0  0
    1.7979   -0.0910    0.5087 C   0  0  0  0  0  0  0  0  0  0  0  0
   -2.6963   -0.4169   -1.4701 C   0  0  0  0  0  0  0  0  0  0  0  0
    2.4548    1.0928    0.2251 C   0  0  0  0  0  0  0  0  0  0  0  0
   -2.6444   -0.1489    0.9487 C   0  0  0  0  0  0  0  0  0  0  0  0
    2.4579   -1.3076    0.4998 C   0  0  0  0  0  0  0  0  0  0  0  0
   -2.0043   -0.5337   -2.6822 C   0  0  0  0  0  0  0  0  0  0  0  0
   -4.0993   -0.4451   -1.4146 C   0  0  0  0  0  0  0  0  0  0  0  0
   -0.6172   -0.5001   -2.6783 C   0  0  0  0  0  0  0  0  0  0  0  0
    3.8162    1.0597   -0.0775 C   0  0  0  0  0  0  0  0  0  0  0  0
   -4.0385   -0.1793    0.9859 C   0  0  0  0  0  0  0  0  0  0  0  0
    3.8190   -1.3406    0.1974 C   0  0  0  0  0  0  0  0  0  0  0  0
   -4.7645   -0.3272   -0.1933 C   0  0  0  0  0  0  0  0  0  0  0  0
    4.4982   -0.1569   -0.0914 C   0  0  0  0  0  0  0  0  0  0  0  0
    3.7072   -3.6977    0.4931 C   0  0  0  0  0  0  0  0  0  0  0  0
   -4.9517   -1.2717    2.8907 C   0  0  0  0  0  0  0  0  0  0  0  0
    6.7373   -0.0442    0.7023 C   0  0  0  0  0  0  0  0  0  0  0  0
   -6.8044    0.8908   -0.2967 C   0  0  0  0  0  0  0  0  0  0  0  0
    0.1290   -0.9386    1.5147 H   0  0  0  0  0  0  0  0  0  0  0  0
    0.0409    0.7857    1.4325 H   0  0  0  0  0  0  0  0  0  0  0  0
    1.0630   -0.3404   -1.6081 H   0  0  0  0  0  0  0  0  0  0  0  0
   -2.1089   -0.0331    1.8879 H   0  0  0  0  0  0  0  0  0  0  0  0
    1.8778   -2.1948    0.7277 H   0  0  0  0  0  0  0  0  0  0  0  0
   -2.5338   -0.6501   -3.6236 H   0  0  0  0  0  0  0  0  0  0  0  0
   -4.6802   -0.5608   -2.3280 H   0  0  0  0  0  0  0  0  0  0  0  0
   -0.0121   -0.5834   -3.5707 H   0  0  0  0  0  0  0  0  0  0  0  0
    4.3729    1.9655   -0.3010 H   0  0  0  0  0  0  0  0  0  0  0  0
    3.3167   -3.6663    1.5160 H   0  0  0  0  0  0  0  0  0  0  0  0
    4.3867   -4.5547    0.4395 H   0  0  0  0  0  0  0  0  0  0  0  0
    2.9206   -3.8697   -0.2496 H   0  0  0  0  0  0  0  0  0  0  0  0
   -4.0196   -1.7882    3.1411 H   0  0  0  0  0  0  0  0  0  0  0  0
   -5.5979   -1.9279    2.2991 H   0  0  0  0  0  0  0  0  0  0  0  0
   -5.4698   -1.0154    3.8188 H   0  0  0  0  0  0  0  0  0  0  0  0
    6.6053   -0.8637    1.4159 H   0  0  0  0  0  0  0  0  0  0  0  0
    6.5962    0.9180    1.2045 H   0  0  0  0  0  0  0  0  0  0  0  0
    7.7556   -0.0861    0.3063 H   0  0  0  0  0  0  0  0  0  0  0  0
   -6.5706    1.3573   -1.2590 H   0  0  0  0  0  0  0  0  0  0  0  0
   -6.5325    1.5632    0.5231 H   0  0  0  0  0  0  0  0  0  0  0  0
   -7.8806    0.7023   -0.2517 H   0  0  0  0  0  0  0  0  0  0  0  0
  1  6  1  0  0  0  0
  1  7  2  0  0  0  0
  1  8  2  0  0  0  0
  1 15  1  0  0  0  0
  2 23  1  0  0  0  0
  2 26  1  0  0  0  0
  3 22  1  0  0  0  0
  3 27  1  0  0  0  0
  4 24  1  0  0  0  0
  4 29  1  0  0  0  0
  5 25  1  0  0  0  0
  5 28  1  0  0  0  0
  9 11  2  0  0  0  0
  9 20  1  0  0  0  0
  9 32  1  0  0  0  0
 10 11  1  0  0  0  0
 10 13  1  0  0  0  0
 10 30  1  0  0  0  0
 10 31  1  0  0  0  0
 11 12  1  0  0  0  0
 12 14  1  0  0  0  0
 12 16  2  0  0  0  0
 13 15  1  0  0  0  0
 13 17  2  0  0  0  0
 14 18  1  0  0  0  0
 14 19  2  0  0  0  0
 15 21  2  0  0  0  0
 16 22  1  0  0  0  0
 16 33  1  0  0  0  0
 17 23  1  0  0  0  0
 17 34  1  0  0  0  0
 18 20  2  0  0  0  0
 18 35  1  0  0  0  0
 19 24  1  0  0  0  0
 19 36  1  0  0  0  0
 20 37  1  0  0  0  0
 21 25  1  0  0  0  0
 21 38  1  0  0  0  0
 22 24  2  0  0  0  0
 23 25  2  0  0  0  0
 26 39  1  0  0  0  0
 26 40  1  0  0  0  0
 26 41  1  0  0  0  0
 27 42  1  0  0  0  0
 27 43  1  0  0  0  0
 27 44  1  0  0  0  0
 28 45  1  0  0  0  0
 28 46  1  0  0  0  0
 28 47  1  0  0  0  0
 29 48  1  0  0  0  0
 29 49  1  0  0  0  0
 29 50  1  0  0  0  0
M  CHG  2   6  -1   9   1
M  END
> <PUBCHEM_COMPOUND_CID>
4209060

> <PUBCHEM_CONFORMER_RMSD>
0.8

> <PUBCHEM_CONFORMER_DIVERSEORDER>
8
37
15
9
4
13
35
30
44
46
32
45
14
27
38
19
22
33
29
41
1
10
24
28
17
40
20
36
26
23
2
5
43
39
42
6
3
21
7
31
34
18
25
11
16
12

> <PUBCHEM_MMFF94_PARTIAL_CHARGES>
34
1 1.46
10 0.29
11 0.22
13 -0.14
15 -0.01
16 -0.15
17 -0.15
18 -0.15
19 -0.15
2 -0.36
20 0.21
21 -0.15
22 0.08
23 0.08
24 0.08
25 0.08
26 0.28
27 0.28
28 0.28
29 0.28
3 -0.36
32 0.46
33 0.15
34 0.15
35 0.15
36 0.15
37 0.15
38 0.15
4 -0.36
5 -0.36
6 -0.82
7 -0.82
8 -0.82
9 -0.18

> <PUBCHEM_EFFECTIVE_ROTOR_COUNT>
7

> <PUBCHEM_PHARMACOPHORE_FEATURES>
13
1 2 acceptor
1 3 acceptor
1 4 acceptor
1 5 acceptor
1 6 acceptor
1 7 acceptor
1 8 acceptor
1 9 acceptor
1 9 donor
4 1 6 7 8 anion
6 12 14 16 19 22 24 rings
6 13 15 17 21 23 25 rings
6 9 11 12 14 18 20 rings

> <PUBCHEM_HEAVY_ATOM_COUNT>
29

> <PUBCHEM_ATOM_DEF_STEREO_COUNT>
0

> <PUBCHEM_ATOM_UDEF_STEREO_COUNT>
0

> <PUBCHEM_BOND_DEF_STEREO_COUNT>
0

> <PUBCHEM_BOND_UDEF_STEREO_COUNT>
0

> <PUBCHEM_ISOTOPIC_ATOM_COUNT>
0

> <PUBCHEM_COMPONENT_COUNT>
1

> <PUBCHEM_CACTVS_TAUTO_COUNT>
1

> <PUBCHEM_CONFORMER_ID>
004039A400000008

> <PUBCHEM_MMFF94_ENERGY>
127.4078

> <PUBCHEM_FEATURE_SELFOVERLAP>
66.085

> <PUBCHEM_SHAPE_FINGERPRINT>
10369192 42 17100881016513494732
10673678 19 17532673397938157436
11045977 3 18041281058376357481
11370993 144 18259987072367735379
11545043 162 17603874437804893689
11552529 35 18055637471747719139
12107698 1 18412259519967473265
12128747 34 18115583726277783653
12166972 35 17703782644242231489
12236239 1 17846493772457865084
12422481 6 17415853387572265703
12553582 1 18341879776483754070
12741549 16 17821997710481375332
13583140 156 18411422856127232059
13590594 115 18343304764485584288
13782708 43 17385721409348079178
13911987 19 18188505661478401222
14294032 229 16558198099566332265
14739800 52 15983398893309281464
14840074 17 18059853961537631526
14950920 106 18269574878255407491
14955137 171 17989215858290696286
15537594 2 18272647944403675790
15849732 13 17703789228015470540
17349148 13 17060614517043927597
17818456 19 16988843895087181137
1813 80 18200600198519743470
18785283 64 17970073455441214580
20511986 3 17417514934652782080
21033648 29 17968082158384292261
21033650 10 14978860803528335201
21623969 137 18259705592880390394
21641784 216 18114758036264457996
21792961 116 17895470333513975510
22122407 14 18341622520838604241
23557571 272 16805597045223914830
23559900 14 17240765112177766421
23569943 247 17914907439582555734
23622692 88 17703788132603683188
2838139 119 18270953550337231861
3411729 13 15431458340904981732
3459 39 15841278021799581947
345986 75 18059003978698129842
34797466 226 16732991907217310038
46194498 28 17458065984679174174
513202 73 17912091551416383454
5895379 119 15769235932182486785
6328613 192 16845005827455811224
6823239 73 16515685584465590605
7226269 152 14476969973239737947
7495541 125 17386006208692467912

> <PUBCHEM_SHAPE_MULTIPOLES>
554.59
14.09
2.65
2.03
4.33
0.75
0.28
-3.26
-3.64
-4.48
-0.67
3.27
-0.5
0.45

> <PUBCHEM_SHAPE_SELFOVERLAP>
1196.008

> <PUBCHEM_SHAPE_VOLUME>
309.1

> <PUBCHEM_COORDINATE_TYPE>
2
5
10

$$$$
