9585835
  -OEChem-01171811583D

 31 32  0     0  0  0  0  0  0999 V2000
   -3.6823   -2.7973   -0.0397 Cl  0  0  0  0  0  0  0  0  0  0  0  0
   -1.8462    1.9651    0.0013 F   0  0  0  0  0  0  0  0  0  0  0  0
    3.2015   -0.6463    0.1891 N   0  0  0  0  0  0  0  0  0  0  0  0
    3.6012    1.5049    0.1887 N   0  0  0  0  0  0  0  0  0  0  0  0
    0.8436   -0.6546    0.1061 N   0  0  0  0  0  0  0  0  0  0  0  0
    2.2345    1.3158    0.1419 N   0  0  0  0  0  0  0  0  0  0  0  0
    3.4047   -2.0456    0.2056 N   0  0  0  0  0  0  0  0  0  0  0  0
   -0.3298    0.0060    0.0629 N   0  0  0  0  0  0  0  0  0  0  0  0
    4.1633    0.3176    0.2166 C   0  0  0  0  0  0  0  0  0  0  0  0
    5.6073    0.0229    0.2697 C   0  0  0  0  0  0  0  0  0  0  0  0
    2.0593    0.0460    0.1441 C   0  0  0  0  0  0  0  0  0  0  0  0
    6.2421   -0.1060   -1.1196 C   0  0  0  0  0  0  0  0  0  0  0  0
   -2.7367   -0.2378   -0.0182 C   0  0  0  0  0  0  0  0  0  0  0  0
   -1.3780   -0.7648    0.0309 C   0  0  0  0  0  0  0  0  0  0  0  0
   -3.8492   -1.0783   -0.0537 C   0  0  0  0  0  0  0  0  0  0  0  0
   -2.9075    1.1465   -0.0307 C   0  0  0  0  0  0  0  0  0  0  0  0
   -5.1328   -0.5344   -0.1018 C   0  0  0  0  0  0  0  0  0  0  0  0
   -4.1912    1.6903   -0.0788 C   0  0  0  0  0  0  0  0  0  0  0  0
   -5.3038    0.8500   -0.1144 C   0  0  0  0  0  0  0  0  0  0  0  0
    6.1130    0.8351    0.8064 H   0  0  0  0  0  0  0  0  0  0  0  0
    5.8062   -0.8883    0.8451 H   0  0  0  0  0  0  0  0  0  0  0  0
    5.7925   -0.9298   -1.6837 H   0  0  0  0  0  0  0  0  0  0  0  0
    7.3155   -0.2986   -1.0282 H   0  0  0  0  0  0  0  0  0  0  0  0
    6.1061    0.8133   -1.6992 H   0  0  0  0  0  0  0  0  0  0  0  0
    0.8446   -1.6718    0.1125 H   0  0  0  0  0  0  0  0  0  0  0  0
    3.8428   -2.3620    1.0696 H   0  0  0  0  0  0  0  0  0  0  0  0
    4.0082   -2.3587   -0.5535 H   0  0  0  0  0  0  0  0  0  0  0  0
   -1.2417   -1.8594    0.0408 H   0  0  0  0  0  0  0  0  0  0  0  0
   -6.0104   -1.1753   -0.1300 H   0  0  0  0  0  0  0  0  0  0  0  0
   -4.3239    2.7681   -0.0890 H   0  0  0  0  0  0  0  0  0  0  0  0
   -6.3032    1.2736   -0.1520 H   0  0  0  0  0  0  0  0  0  0  0  0
  1 15  1  0  0  0  0
  2 16  1  0  0  0  0
  3  7  1  0  0  0  0
  3  9  1  0  0  0  0
  3 11  1  0  0  0  0
  4  6  1  0  0  0  0
  4  9  2  0  0  0  0
  5  8  1  0  0  0  0
  5 11  1  0  0  0  0
  5 25  1  0  0  0  0
  6 11  2  0  0  0  0
  7 26  1  0  0  0  0
  7 27  1  0  0  0  0
  8 14  2  0  0  0  0
  9 10  1  0  0  0  0
 10 12  1  0  0  0  0
 10 20  1  0  0  0  0
 10 21  1  0  0  0  0
 12 22  1  0  0  0  0
 12 23  1  0  0  0  0
 12 24  1  0  0  0  0
 13 14  1  0  0  0  0
 13 15  1  0  0  0  0
 13 16  2  0  0  0  0
 14 28  1  0  0  0  0
 15 17  2  0  0  0  0
 16 18  1  0  0  0  0
 17 19  1  0  0  0  0
 17 29  1  0  0  0  0
 18 19  2  0  0  0  0
 18 30  1  0  0  0  0
 19 31  1  0  0  0  0
M  END
> <PUBCHEM_COMPOUND_CID>
9585835

> <PUBCHEM_CONFORMER_RMSD>
0.6

> <PUBCHEM_CONFORMER_DIVERSEORDER>
1
66
61
26
64
8
59
35
69
25
47
52
63
28
50
37
20
62
60
16
65
31
45
2
51
9
58
10
12
70
57
33
38
55
5
14
13
67
23
39
21
17
43
30
56
27
49
32
4
24
3
34
36
7
22
6
41
54
46
18
11
19
68
48
29
53
40
44
15
42

> <PUBCHEM_MMFF94_PARTIAL_CHARGES>
25
1 -0.18
10 0.18
11 0.27
13 0.09
14 0.3
15 0.18
16 0.19
17 -0.15
18 -0.15
19 -0.15
2 -0.19
25 0.4
26 0.36
27 0.36
28 0.06
29 0.15
3 0.45
30 0.15
31 0.15
4 -0.34
5 -0.44
6 -0.34
7 -0.87
8 -0.49
9 0.01

> <PUBCHEM_EFFECTIVE_ROTOR_COUNT>
4

> <PUBCHEM_PHARMACOPHORE_FEATURES>
7
1 12 hydrophobe
1 5 donor
1 7 donor
1 8 acceptor
4 3 5 6 11 cation
5 3 4 6 9 11 rings
6 13 15 16 17 18 19 rings

> <PUBCHEM_HEAVY_ATOM_COUNT>
19

> <PUBCHEM_ATOM_DEF_STEREO_COUNT>
0

> <PUBCHEM_ATOM_UDEF_STEREO_COUNT>
0

> <PUBCHEM_BOND_DEF_STEREO_COUNT>
1

> <PUBCHEM_BOND_UDEF_STEREO_COUNT>
0

> <PUBCHEM_ISOTOPIC_ATOM_COUNT>
0

> <PUBCHEM_COMPONENT_COUNT>
1

> <PUBCHEM_CACTVS_TAUTO_COUNT>
2

> <PUBCHEM_CONFORMER_ID>
009244AB00000001

> <PUBCHEM_MMFF94_ENERGY>
33.8315

> <PUBCHEM_FEATURE_SELFOVERLAP>
35.522

> <PUBCHEM_SHAPE_FINGERPRINT>
10411042 1 18050004695775918787
10616163 171 18411981399028041343
10912923 1 17749383780686056458
11315181 36 18113337539358417981
12107183 9 17688586065741700218
12236239 1 17748543736131942713
13167823 11 18408881845441664867
13533116 47 17458613476465197955
14341114 176 18411142411193482102
15196674 1 18338796818145100640
15250474 111 18335967736136022306
17834072 33 18334015012453756284
17844677 252 18340212984805395513
18927931 339 18410579526292714231
200 152 17846495928658171593
20645477 56 18408323264028626509
20645477 70 18271808952523010950
21267235 1 18337397131912026403
21709351 56 18409725196640048540
220451 1 18186520994938789354
2297311 6 18343309166799908893
23402539 116 18410005567958025727
23402655 69 18409446973122469946
23557571 272 18273502264447814581
23559900 14 18341325664813366257
245318 6 16737500111387836796
300161 21 18335693936185780107
335352 9 18410572895295589597
351380 180 18410853265405317304
3545911 37 18411138030326820681
4073 2 18114186371484607138
4214541 1 18410854365191089209
5104073 3 18411415124431628643
542803 24 17603304855978751180
58051976 100 18412823607459142951
59755656 215 18341898459243475222
59755656 520 16950000339795930195
77779 3 18410572894372273771
9709674 26 18411985753982435191

> <PUBCHEM_SHAPE_MULTIPOLES>
355.72
14.7
2.03
0.67
11.26
0.73
0.09
-0.05
1.78
-2.19
-0.04
0.44
0.03
0.08

> <PUBCHEM_SHAPE_SELFOVERLAP>
745.295

> <PUBCHEM_SHAPE_VOLUME>
202.7

> <PUBCHEM_COORDINATE_TYPE>
2
5
10

$$$$
