4342527
  -OEChem-01171811543D

 59 60  0     0  0  0  0  0  0999 V2000
   -6.7755    1.0822   -1.0148 S   0  0  0  0  0  0  0  0  0  0  0  0
   -6.0562    2.2295   -1.5371 O   0  0  0  0  0  0  0  0  0  0  0  0
   -7.6521    0.3294   -1.8928 O   0  0  0  0  0  0  0  0  0  0  0  0
    7.9681   -0.1833   -1.9894 O   0  0  0  0  0  0  0  0  0  0  0  0
    8.9908    1.5046   -0.0320 O   0  0  0  0  0  0  0  0  0  0  0  0
   -0.8114   -2.0853    0.9278 O   0  0  0  0  0  0  0  0  0  0  0  0
   -7.6414    1.5446    0.4030 N   0  0  0  0  0  0  0  0  0  0  0  0
    1.6341   -1.0357    0.5632 N   0  0  0  0  0  0  0  0  0  0  0  0
   -1.8992   -0.2424   -0.0491 N   0  0  0  0  0  0  0  0  0  0  0  0
   -5.5702   -0.0493   -0.3798 C   0  0  0  0  0  0  0  0  0  0  0  0
   -5.9504   -1.2639    0.1912 C   0  0  0  0  0  0  0  0  0  0  0  0
    4.0784   -1.1768    0.8126 C   0  0  0  0  0  0  0  0  0  0  0  0
    2.8938   -0.3464    0.3174 C   0  0  0  0  0  0  0  0  0  0  0  0
   -4.2199    0.2916   -0.4594 C   0  0  0  0  0  0  0  0  0  0  0  0
   -3.2499   -0.5822    0.0316 C   0  0  0  0  0  0  0  0  0  0  0  0
    5.3876   -0.4642    0.5844 C   0  0  0  0  0  0  0  0  0  0  0  0
   -4.9804   -2.1377    0.6823 C   0  0  0  0  0  0  0  0  0  0  0  0
    0.5055   -0.2399    0.1022 C   0  0  0  0  0  0  0  0  0  0  0  0
   -3.6301   -1.7969    0.6023 C   0  0  0  0  0  0  0  0  0  0  0  0
   -7.3875   -1.6594    0.2916 C   0  0  0  0  0  0  0  0  0  0  0  0
   -0.7874   -0.9852    0.3851 C   0  0  0  0  0  0  0  0  0  0  0  0
    6.0853   -0.6517   -0.6088 C   0  0  0  0  0  0  0  0  0  0  0  0
    5.9009    0.3829    1.5666 C   0  0  0  0  0  0  0  0  0  0  0  0
   -6.8812    2.2020    1.4963 C   0  0  0  0  0  0  0  0  0  0  0  0
   -8.9898    2.1416    0.2271 C   0  0  0  0  0  0  0  0  0  0  0  0
    7.2962    0.0078   -0.8199 C   0  0  0  0  0  0  0  0  0  0  0  0
    7.8095    0.8547    0.1623 C   0  0  0  0  0  0  0  0  0  0  0  0
    7.1119    1.0422    1.3556 C   0  0  0  0  0  0  0  0  0  0  0  0
    7.3752   -1.0648   -2.9411 C   0  0  0  0  0  0  0  0  0  0  0  0
    9.4454    2.3519    1.0215 C   0  0  0  0  0  0  0  0  0  0  0  0
    3.9669   -1.3975    1.8826 H   0  0  0  0  0  0  0  0  0  0  0  0
    4.0997   -2.1519    0.3081 H   0  0  0  0  0  0  0  0  0  0  0  0
    3.0100   -0.1455   -0.7554 H   0  0  0  0  0  0  0  0  0  0  0  0
    2.8918    0.6231    0.8318 H   0  0  0  0  0  0  0  0  0  0  0  0
   -3.9051    1.2336   -0.9004 H   0  0  0  0  0  0  0  0  0  0  0  0
   -5.2591   -3.0884    1.1293 H   0  0  0  0  0  0  0  0  0  0  0  0
    0.5697   -0.0549   -0.9764 H   0  0  0  0  0  0  0  0  0  0  0  0
    0.4667    0.7201    0.6298 H   0  0  0  0  0  0  0  0  0  0  0  0
    1.6402   -1.9343    0.0806 H   0  0  0  0  0  0  0  0  0  0  0  0
   -2.9396   -2.5253    1.0032 H   0  0  0  0  0  0  0  0  0  0  0  0
   -1.7045    0.6593   -0.4796 H   0  0  0  0  0  0  0  0  0  0  0  0
   -7.4956   -2.6023    0.8416 H   0  0  0  0  0  0  0  0  0  0  0  0
   -7.8200   -1.8349   -0.6972 H   0  0  0  0  0  0  0  0  0  0  0  0
   -7.9797   -0.9272    0.8440 H   0  0  0  0  0  0  0  0  0  0  0  0
    5.6358   -1.3198   -1.3359 H   0  0  0  0  0  0  0  0  0  0  0  0
    5.3647    0.5378    2.4993 H   0  0  0  0  0  0  0  0  0  0  0  0
   -5.9831    1.6340    1.7485 H   0  0  0  0  0  0  0  0  0  0  0  0
   -7.4944    2.2491    2.4019 H   0  0  0  0  0  0  0  0  0  0  0  0
   -6.6010    3.2187    1.2063 H   0  0  0  0  0  0  0  0  0  0  0  0
   -9.5814    1.5437   -0.4717 H   0  0  0  0  0  0  0  0  0  0  0  0
   -8.9063    3.1656   -0.1477 H   0  0  0  0  0  0  0  0  0  0  0  0
   -9.5245    2.1505    1.1818 H   0  0  0  0  0  0  0  0  0  0  0  0
    7.4492    1.6845    2.1617 H   0  0  0  0  0  0  0  0  0  0  0  0
    8.0432   -1.0988   -3.8081 H   0  0  0  0  0  0  0  0  0  0  0  0
    6.4117   -0.6849   -3.2979 H   0  0  0  0  0  0  0  0  0  0  0  0
    7.3043   -2.0874   -2.5551 H   0  0  0  0  0  0  0  0  0  0  0  0
    8.7573    3.1865    1.1937 H   0  0  0  0  0  0  0  0  0  0  0  0
    9.6502    1.7846    1.9359 H   0  0  0  0  0  0  0  0  0  0  0  0
   10.3969    2.7864    0.6976 H   0  0  0  0  0  0  0  0  0  0  0  0
  1  2  2  0  0  0  0
  1  3  2  0  0  0  0
  1  7  1  0  0  0  0
  1 10  1  0  0  0  0
  4 26  1  0  0  0  0
  4 29  1  0  0  0  0
  5 27  1  0  0  0  0
  5 30  1  0  0  0  0
  6 21  2  0  0  0  0
  7 24  1  0  0  0  0
  7 25  1  0  0  0  0
  8 13  1  0  0  0  0
  8 18  1  0  0  0  0
  8 39  1  0  0  0  0
  9 15  1  0  0  0  0
  9 21  1  0  0  0  0
  9 41  1  0  0  0  0
 10 11  2  0  0  0  0
 10 14  1  0  0  0  0
 11 17  1  0  0  0  0
 11 20  1  0  0  0  0
 12 13  1  0  0  0  0
 12 16  1  0  0  0  0
 12 31  1  0  0  0  0
 12 32  1  0  0  0  0
 13 33  1  0  0  0  0
 13 34  1  0  0  0  0
 14 15  2  0  0  0  0
 14 35  1  0  0  0  0
 15 19  1  0  0  0  0
 16 22  2  0  0  0  0
 16 23  1  0  0  0  0
 17 19  2  0  0  0  0
 17 36  1  0  0  0  0
 18 21  1  0  0  0  0
 18 37  1  0  0  0  0
 18 38  1  0  0  0  0
 19 40  1  0  0  0  0
 20 42  1  0  0  0  0
 20 43  1  0  0  0  0
 20 44  1  0  0  0  0
 22 26  1  0  0  0  0
 22 45  1  0  0  0  0
 23 28  2  0  0  0  0
 23 46  1  0  0  0  0
 24 47  1  0  0  0  0
 24 48  1  0  0  0  0
 24 49  1  0  0  0  0
 25 50  1  0  0  0  0
 25 51  1  0  0  0  0
 25 52  1  0  0  0  0
 26 27  2  0  0  0  0
 27 28  1  0  0  0  0
 28 53  1  0  0  0  0
 29 54  1  0  0  0  0
 29 55  1  0  0  0  0
 29 56  1  0  0  0  0
 30 57  1  0  0  0  0
 30 58  1  0  0  0  0
 30 59  1  0  0  0  0
M  END
> <PUBCHEM_COMPOUND_CID>
4342527

> <PUBCHEM_CONFORMER_RMSD>
1.2

> <PUBCHEM_CONFORMER_DIVERSEORDER>
2
86
57
102
79
97
54
105
99
76
62
21
25
83
31
24
60
98
85
81
106
74
10
44
6
87
63
75
93
4
78
42
82
3
27
108
66
94
68
114
16
110
67
118
38
28
34
46
9
17
14
39
91
107
61
59
45
47
123
37
8
5
112
71
72
1
89
52
120
95
92
115
111
90
29
100
80
36
113
20
15
77
30
48
116
73
22
11
88
56
101
103
55
41
122
121
32
119
23
18
49
26
53
109
40
7
117
70
69
13
64
35
84
58
33
50
19
43
12
96
104
65
51

> <PUBCHEM_MMFF94_PARTIAL_CHARGES>
38
1 1.45
10 -0.01
11 -0.14
12 0.14
13 0.27
14 -0.15
15 0.12
16 -0.14
17 -0.15
18 0.33
19 -0.15
2 -0.65
20 0.14
21 0.57
22 -0.15
23 -0.15
24 0.36
25 0.36
26 0.08
27 0.08
28 -0.15
29 0.28
3 -0.65
30 0.28
35 0.15
36 0.15
39 0.36
4 -0.36
40 0.15
41 0.37
45 0.15
46 0.15
5 -0.36
53 0.15
6 -0.57
7 -0.85
8 -0.9
9 -0.55

> <PUBCHEM_EFFECTIVE_ROTOR_COUNT>
11

> <PUBCHEM_PHARMACOPHORE_FEATURES>
10
1 2 acceptor
1 3 acceptor
1 4 acceptor
1 5 acceptor
1 6 acceptor
1 8 cation
1 8 donor
1 9 donor
6 10 11 14 15 17 19 rings
6 16 22 23 26 27 28 rings

> <PUBCHEM_HEAVY_ATOM_COUNT>
30

> <PUBCHEM_ATOM_DEF_STEREO_COUNT>
0

> <PUBCHEM_ATOM_UDEF_STEREO_COUNT>
0

> <PUBCHEM_BOND_DEF_STEREO_COUNT>
0

> <PUBCHEM_BOND_UDEF_STEREO_COUNT>
0

> <PUBCHEM_ISOTOPIC_ATOM_COUNT>
0

> <PUBCHEM_COMPONENT_COUNT>
1

> <PUBCHEM_CACTVS_TAUTO_COUNT>
2

> <PUBCHEM_CONFORMER_ID>
004242FF00000002

> <PUBCHEM_MMFF94_ENERGY>
89.7001

> <PUBCHEM_FEATURE_SELFOVERLAP>
50.77

> <PUBCHEM_SHAPE_FINGERPRINT>
10 15 17313105224816755777
10454371 7 17774725255853519257
11181472 205 17702673133292001195
11315181 36 18410008845867333643
11386260 185 15769486630209226576
11456790 92 14996277029564270140
11578821 258 18340768242932209288
12082328 90 17060063648918263051
12089408 11 17749385988673987858
12539765 74 18040160595872692554
12592606 108 11312059859612039240
14251764 18 17167861975880191718
14849402 71 16226341398760742886
150020 25 18131638880807730526
15183329 4 17821450162068803516
15198563 99 17632028459637634944
15461852 350 17417804072399203591
15510794 2 18272371988544544110
15554971 5 18113607984980945426
15604295 49 18339355387791452248
15706992 2 18059301968847824241
1577012 14 18113893853635262371
16989713 51 18056471984036088639
17093844 174 17385720293157436323
1754908 1 12035450544973113948
1754911 235 17988923379571109916
1818759 1 12391514221579905092
195137 175 17894915126647967927
23576562 1 17630870785409196021
24771293 8 17967530181454952150
3711267 37 18040722454519253916
4073 2 17458347433449140795
44280117 145 18270678809531507783
44802255 64 18273208708535729207
4516262 110 18193551178889278189
5758199 1 17967813838433499859
58083652 198 14345789487445605846
5937810 71 18273218569368937145
636775 72 18411416186143917409
68570916 9 14129640903098289946

> <PUBCHEM_SHAPE_MULTIPOLES>
576.95
37.19
2.25
1.63
25.99
0.78
-1.06
19.47
-6.27
-2.79
0.49
2.19
-0.1
3.06

> <PUBCHEM_SHAPE_SELFOVERLAP>
1179.99

> <PUBCHEM_SHAPE_VOLUME>
335.3

> <PUBCHEM_COORDINATE_TYPE>
2
5
10

$$$$
