5807729
  -OEChem-01171811473D

 33 34  0     0  0  0  0  0  0999 V2000
    3.2841   -3.1150    0.1960 S   0  0  0  0  0  0  0  0  0  0  0  0
   -3.5347   -1.7650   -1.4012 O   0  0  0  0  0  0  0  0  0  0  0  0
   -5.7278   -0.0326   -1.1754 O   0  0  0  0  0  0  0  0  0  0  0  0
   -5.4399    2.1333    0.5564 O   0  0  0  0  0  0  0  0  0  0  0  0
   -0.0619   -1.1631    0.7897 N   0  0  0  0  0  0  0  0  0  0  0  0
    0.9090   -2.1384    0.7024 N   0  0  0  0  0  0  0  0  0  0  0  0
    2.3542   -0.5261   -0.1600 N   0  0  0  0  0  0  0  0  0  0  0  0
    5.8166    0.6634    0.2031 N   0  0  0  0  0  0  0  0  0  0  0  0
   -2.2845   -0.4265    0.1852 C   0  0  0  0  0  0  0  0  0  0  0  0
   -3.5128   -0.6523   -0.5855 C   0  0  0  0  0  0  0  0  0  0  0  0
   -2.1814    0.7797    1.0008 C   0  0  0  0  0  0  0  0  0  0  0  0
   -4.5598    0.1818   -0.4737 C   0  0  0  0  0  0  0  0  0  0  0  0
   -1.2440   -1.2779    0.1467 C   0  0  0  0  0  0  0  0  0  0  0  0
   -3.2048    1.6325    1.1243 C   0  0  0  0  0  0  0  0  0  0  0  0
   -4.4844    1.3767    0.4173 C   0  0  0  0  0  0  0  0  0  0  0  0
    3.4807    0.3322   -0.2171 C   0  0  0  0  0  0  0  0  0  0  0  0
    2.1856   -1.8480    0.2378 C   0  0  0  0  0  0  0  0  0  0  0  0
    3.3532    1.6086   -0.7197 C   0  0  0  0  0  0  0  0  0  0  0  0
    4.7038   -0.1039    0.2288 C   0  0  0  0  0  0  0  0  0  0  0  0
    4.4757    2.4281   -0.7627 C   0  0  0  0  0  0  0  0  0  0  0  0
    5.6731    1.9127   -0.2933 C   0  0  0  0  0  0  0  0  0  0  0  0
   -1.2683    1.0166    1.5345 H   0  0  0  0  0  0  0  0  0  0  0  0
   -1.2809   -2.1915   -0.4376 H   0  0  0  0  0  0  0  0  0  0  0  0
   -3.1302    2.5235    1.7369 H   0  0  0  0  0  0  0  0  0  0  0  0
    0.1328   -0.3935    1.4160 H   0  0  0  0  0  0  0  0  0  0  0  0
    0.6383   -3.0600    1.0283 H   0  0  0  0  0  0  0  0  0  0  0  0
    1.4806   -0.0514   -0.3794 H   0  0  0  0  0  0  0  0  0  0  0  0
    2.4001    1.9840   -1.0806 H   0  0  0  0  0  0  0  0  0  0  0  0
    4.8920   -1.0598    0.6896 H   0  0  0  0  0  0  0  0  0  0  0  0
    4.4152    3.4382   -1.1511 H   0  0  0  0  0  0  0  0  0  0  0  0
   -2.6642   -1.8667   -1.8196 H   0  0  0  0  0  0  0  0  0  0  0  0
    6.5779    2.5114   -0.3049 H   0  0  0  0  0  0  0  0  0  0  0  0
   -6.3411    0.6869   -0.9462 H   0  0  0  0  0  0  0  0  0  0  0  0
  1 17  2  0  0  0  0
  2 10  1  0  0  0  0
  2 31  1  0  0  0  0
  3 12  1  0  0  0  0
  3 33  1  0  0  0  0
  4 15  2  0  0  0  0
  5  6  1  0  0  0  0
  5 13  1  0  0  0  0
  5 25  1  0  0  0  0
  6 17  1  0  0  0  0
  6 26  1  0  0  0  0
  7 16  1  0  0  0  0
  7 17  1  0  0  0  0
  7 27  1  0  0  0  0
  8 19  1  0  0  0  0
  8 21  2  0  0  0  0
  9 10  1  0  0  0  0
  9 11  1  0  0  0  0
  9 13  2  0  0  0  0
 10 12  2  0  0  0  0
 11 14  2  0  0  0  0
 11 22  1  0  0  0  0
 12 15  1  0  0  0  0
 13 23  1  0  0  0  0
 14 15  1  0  0  0  0
 14 24  1  0  0  0  0
 16 18  1  0  0  0  0
 16 19  2  0  0  0  0
 18 20  2  0  0  0  0
 18 28  1  0  0  0  0
 19 29  1  0  0  0  0
 20 21  1  0  0  0  0
 20 30  1  0  0  0  0
 21 32  1  0  0  0  0
M  END
> <PUBCHEM_COMPOUND_CID>
5807729

> <PUBCHEM_CONFORMER_RMSD>
0.8

> <PUBCHEM_CONFORMER_DIVERSEORDER>
1
106
202
35
160
58
117
104
113
179
11
120
208
128
178
7
97
145
177
76
64
132
183
192
61
107
223
216
215
102
136
144
84
139
56
205
142
221
141
151
66
131
126
32
65
90
103
49
186
27
118
92
91
109
133
162
174
36
51
181
98
155
74
209
210
6
124
34
86
199
37
116
173
29
217
212
85
224
23
194
182
70
146
138
44
225
8
21
63
190
42
39
191
62
112
10
82
140
68
80
115
111
20
134
67
204
88
38
73
220
200
60
130
16
69
166
153
101
50
156
198
81
172
45
206
46
55
196
170
96
31
169
25
157
89
19
195
78
108
110
180
189
54
159
94
127
71
12
148
59
201
79
152
165
3
47
149
77
93
143
15
163
9
13
22
154
2
185
123
53
150
187
129
52
41
207
213
24
99
218
121
167
197
17
135
175
114
203
222
125
219
30
33
87
105
211
95
168
164
18
43
184
171
26
83
57
161
119
72
193
28
147
75
14
158
122
176
214
5
100
40
137
188
48
4

> <PUBCHEM_MMFF94_PARTIAL_CHARGES>
32
1 -0.38
10 0.08
11 -0.15
12 0.09
13 -0.05
14 -0.14
15 0.54
16 0.12
17 0.5
18 -0.15
19 0.16
2 -0.53
20 -0.15
21 0.16
22 0.15
23 0.15
24 0.15
25 0.4
26 0.37
27 0.37
28 0.15
29 0.15
3 -0.53
30 0.15
31 0.45
32 0.15
33 0.45
4 -0.57
5 -0.52
6 -0.41
7 -0.55
8 -0.62

> <PUBCHEM_EFFECTIVE_ROTOR_COUNT>
5

> <PUBCHEM_PHARMACOPHORE_FEATURES>
10
1 1 acceptor
1 2 donor
1 3 donor
1 4 acceptor
1 5 donor
1 6 donor
1 7 donor
1 8 acceptor
6 8 16 18 19 20 21 rings
6 9 10 11 12 14 15 rings

> <PUBCHEM_HEAVY_ATOM_COUNT>
21

> <PUBCHEM_ATOM_DEF_STEREO_COUNT>
0

> <PUBCHEM_ATOM_UDEF_STEREO_COUNT>
0

> <PUBCHEM_BOND_DEF_STEREO_COUNT>
1

> <PUBCHEM_BOND_UDEF_STEREO_COUNT>
0

> <PUBCHEM_ISOTOPIC_ATOM_COUNT>
0

> <PUBCHEM_COMPONENT_COUNT>
1

> <PUBCHEM_CACTVS_TAUTO_COUNT>
104

> <PUBCHEM_CONFORMER_ID>
00589E7100000001

> <PUBCHEM_MMFF94_ENERGY>
71.9915

> <PUBCHEM_FEATURE_SELFOVERLAP>
52.318

> <PUBCHEM_SHAPE_FINGERPRINT>
10595046 47 18413384354384745103
11049842 53 16340061472766615943
12107183 9 17765157163559443488
12236239 1 18343580720344097983
12633257 1 15213594432487333785
12788726 201 17345761767986388257
13103583 49 10953724582854641478
13631057 29 18198056079069410879
14251764 30 7997429238619305256
14528608 73 18413388752362262060
14767858 380 18270386304978268631
15342168 16 18260555527788819759
15840311 113 18191595138781889941
18335252 98 18335424604116032027
20157964 124 18335136475253486079
20511986 3 18342726408378378924
21033648 144 18187362112633606687
21033648 29 16660644003887310735
21298829 104 18410858750480130544
21315763 76 18334850628026565348
23402655 69 18342738520317834118
23559900 14 17130150788943351903
245318 6 17679039311669389964
2838139 119 18341331175747121132
3004659 81 18059011662273919534
3472631 163 18343024350671113997
34797466 226 16486693679234140136
474 4 18261110777050755498
5104073 3 18040439867224641483
543368 44 18413669128249558821
633830 44 18334856065692824739
67856867 119 18340760464761519978
7970288 3 9943541678188187460
9981440 41 18335984289387874322

> <PUBCHEM_SHAPE_MULTIPOLES>
398.49
14.74
2.92
1
0.35
0.91
-0.08
-8.43
-2.09
-2.9
0.08
0.9
-0.04
-1.97

> <PUBCHEM_SHAPE_SELFOVERLAP>
835.063

> <PUBCHEM_SHAPE_VOLUME>
225.5

> <PUBCHEM_COORDINATE_TYPE>
2
5
10

$$$$
