5046316
  -OEChem-01171812033D

 43 44  0     0  0  0  0  0  0999 V2000
   -5.9197   -0.7010    0.8510 Cl  0  0  0  0  0  0  0  0  0  0  0  0
    1.8467   -1.9011    2.0594 O   0  0  0  0  0  0  0  0  0  0  0  0
    3.3556    2.6318   -0.6580 O   0  0  0  0  0  0  0  0  0  0  0  0
    1.8637    1.3902    0.6193 N   0  0  0  0  0  0  0  0  0  0  0  0
    2.5820   -2.0573   -0.1381 N   0  0  0  0  0  0  0  0  0  0  0  0
    0.5938    0.9324    0.8277 N   0  0  0  0  0  0  0  0  0  0  0  0
    0.4154   -2.7723   -1.0807 C   0  0  0  0  0  0  0  0  0  0  0  0
    1.7710   -3.1900   -0.5204 C   0  0  0  0  0  0  0  0  0  0  0  0
    2.8305    0.9770    1.6222 C   0  0  0  0  0  0  0  0  0  0  0  0
    3.5131   -0.3343    1.2588 C   0  0  0  0  0  0  0  0  0  0  0  0
    0.5395   -1.9166   -2.3434 C   0  0  0  0  0  0  0  0  0  0  0  0
    2.5494   -1.5041    1.1340 C   0  0  0  0  0  0  0  0  0  0  0  0
   -0.8264   -1.5662   -2.9129 C   0  0  0  0  0  0  0  0  0  0  0  0
   -0.3247    1.2655   -0.0222 C   0  0  0  0  0  0  0  0  0  0  0  0
    2.2240    2.1944   -0.4514 C   0  0  0  0  0  0  0  0  0  0  0  0
   -1.7127    0.7781    0.1955 C   0  0  0  0  0  0  0  0  0  0  0  0
   -0.0913    2.0922   -1.2223 C   0  0  0  0  0  0  0  0  0  0  0  0
    1.1505    2.5331   -1.4093 C   0  0  0  0  0  0  0  0  0  0  0  0
   -2.7924    1.5317   -0.2598 C   0  0  0  0  0  0  0  0  0  0  0  0
   -1.9291   -0.4315    0.8525 C   0  0  0  0  0  0  0  0  0  0  0  0
   -4.0943    1.0739   -0.0572 C   0  0  0  0  0  0  0  0  0  0  0  0
   -3.2309   -0.8894    1.0552 C   0  0  0  0  0  0  0  0  0  0  0  0
   -4.3137   -0.1367    0.6001 C   0  0  0  0  0  0  0  0  0  0  0  0
   -0.1388   -2.2227   -0.3192 H   0  0  0  0  0  0  0  0  0  0  0  0
   -0.1629   -3.6758   -1.3085 H   0  0  0  0  0  0  0  0  0  0  0  0
    2.3363   -3.7572   -1.2673 H   0  0  0  0  0  0  0  0  0  0  0  0
    1.6253   -3.8351    0.3528 H   0  0  0  0  0  0  0  0  0  0  0  0
    3.5903    1.7602    1.7254 H   0  0  0  0  0  0  0  0  0  0  0  0
    2.3161    0.8916    2.5872 H   0  0  0  0  0  0  0  0  0  0  0  0
    4.2379   -0.5986    2.0380 H   0  0  0  0  0  0  0  0  0  0  0  0
    4.0853   -0.2037    0.3329 H   0  0  0  0  0  0  0  0  0  0  0  0
    1.0777   -0.9882   -2.1223 H   0  0  0  0  0  0  0  0  0  0  0  0
    1.1182   -2.4549   -3.1029 H   0  0  0  0  0  0  0  0  0  0  0  0
    3.1897   -1.6590   -0.8476 H   0  0  0  0  0  0  0  0  0  0  0  0
   -1.4310   -1.0157   -2.1882 H   0  0  0  0  0  0  0  0  0  0  0  0
   -0.7152   -0.9420   -3.8051 H   0  0  0  0  0  0  0  0  0  0  0  0
   -1.3743   -2.4700   -3.1980 H   0  0  0  0  0  0  0  0  0  0  0  0
   -0.8652    2.3054   -1.9466 H   0  0  0  0  0  0  0  0  0  0  0  0
    1.4090    3.1341   -2.2736 H   0  0  0  0  0  0  0  0  0  0  0  0
   -2.6684    2.4954   -0.7443 H   0  0  0  0  0  0  0  0  0  0  0  0
   -1.1050   -1.0235    1.2383 H   0  0  0  0  0  0  0  0  0  0  0  0
   -4.9290    1.6744   -0.4100 H   0  0  0  0  0  0  0  0  0  0  0  0
   -3.3868   -1.8319    1.5737 H   0  0  0  0  0  0  0  0  0  0  0  0
  1 23  1  0  0  0  0
  2 12  2  0  0  0  0
  3 15  2  0  0  0  0
  4  6  1  0  0  0  0
  4  9  1  0  0  0  0
  4 15  1  0  0  0  0
  5  8  1  0  0  0  0
  5 12  1  0  0  0  0
  5 34  1  0  0  0  0
  6 14  2  0  0  0  0
  7  8  1  0  0  0  0
  7 11  1  0  0  0  0
  7 24  1  0  0  0  0
  7 25  1  0  0  0  0
  8 26  1  0  0  0  0
  8 27  1  0  0  0  0
  9 10  1  0  0  0  0
  9 28  1  0  0  0  0
  9 29  1  0  0  0  0
 10 12  1  0  0  0  0
 10 30  1  0  0  0  0
 10 31  1  0  0  0  0
 11 13  1  0  0  0  0
 11 32  1  0  0  0  0
 11 33  1  0  0  0  0
 13 35  1  0  0  0  0
 13 36  1  0  0  0  0
 13 37  1  0  0  0  0
 14 16  1  0  0  0  0
 14 17  1  0  0  0  0
 15 18  1  0  0  0  0
 16 19  2  0  0  0  0
 16 20  1  0  0  0  0
 17 18  2  0  0  0  0
 17 38  1  0  0  0  0
 18 39  1  0  0  0  0
 19 21  1  0  0  0  0
 19 40  1  0  0  0  0
 20 22  2  0  0  0  0
 20 41  1  0  0  0  0
 21 23  2  0  0  0  0
 21 42  1  0  0  0  0
 22 23  1  0  0  0  0
 22 43  1  0  0  0  0
M  END
> <PUBCHEM_COMPOUND_CID>
5046316

> <PUBCHEM_CONFORMER_RMSD>
0.8

> <PUBCHEM_CONFORMER_DIVERSEORDER>
1
155
306
304
100
124
281
299
83
130
260
193
12
200
225
263
151
268
95
32
289
246
181
303
152
214
275
271
103
105
234
149
160
291
147
258
286
164
61
294
58
243
297
184
191
203
137
159
238
128
15
84
125
99
140
25
76
207
14
107
220
257
21
44
141
127
85
57
201
23
122
117
30
176
166
249
311
71
53
224
210
59
251
146
115
8
134
4
248
109
228
226
77
126
276
229
215
259
33
92
175
252
280
62
87
165
262
237
73
253
173
98
273
305
118
142
256
183
157
282
242
79
42
171
143
156
11
111
50
241
154
131
293
279
120
20
145
233
144
308
265
288
245
180
239
222
244
91
216
13
277
250
295
192
96
170
97
298
94
88
45
158
223
106
189
52
132
28
89
90
18
187
269
81
167
204
292
112
113
139
236
235
194
300
153
198
283
93
67
70
174
255
309
185
3
5
232
296
48
22
266
148
169
267
60
123
202
218
284
135
199
138
230
219
43
196
75
110
102
310
190
205
163
217
254
182
247
116
290
302
35
150
129
82
2
213
212
47
9
37
178
172
287
10
240
55
46
278
27
274
227
56
34
307
41
209
7
65
161
231
195
40
86
208
114
133
72
186
69
19
54
39
188
6
104
261
119
177
68
272
270
168
51
285
162
101
64
121
211
74
78
136
206
17
221
63
80
24
31
29
301
16
108
66
264
26
197
38
49
179
36

> <PUBCHEM_MMFF94_PARTIAL_CHARGES>
27
1 -0.18
10 0.06
12 0.57
14 0.35
15 0.62
16 0.09
17 -0.14
18 -0.14
19 -0.15
2 -0.57
20 -0.15
21 -0.15
22 -0.15
23 0.18
3 -0.57
34 0.37
38 0.15
39 0.15
4 -0.3
40 0.15
41 0.15
42 0.15
43 0.15
5 -0.73
6 -0.51
8 0.3
9 0.3

> <PUBCHEM_EFFECTIVE_ROTOR_COUNT>
8

> <PUBCHEM_PHARMACOPHORE_FEATURES>
7
1 13 hydrophobe
1 2 acceptor
1 3 acceptor
1 5 donor
1 6 acceptor
6 16 19 20 21 22 23 rings
6 4 6 14 15 17 18 rings

> <PUBCHEM_HEAVY_ATOM_COUNT>
23

> <PUBCHEM_ATOM_DEF_STEREO_COUNT>
0

> <PUBCHEM_ATOM_UDEF_STEREO_COUNT>
0

> <PUBCHEM_BOND_DEF_STEREO_COUNT>
0

> <PUBCHEM_BOND_UDEF_STEREO_COUNT>
0

> <PUBCHEM_ISOTOPIC_ATOM_COUNT>
0

> <PUBCHEM_COMPONENT_COUNT>
1

> <PUBCHEM_CACTVS_TAUTO_COUNT>
2

> <PUBCHEM_CONFORMER_ID>
004D002C00000001

> <PUBCHEM_MMFF94_ENERGY>
43.8156

> <PUBCHEM_FEATURE_SELFOVERLAP>
35.522

> <PUBCHEM_SHAPE_FINGERPRINT>
10064457 181 17917134096303196866
10616163 171 17972044909648405435
11578080 2 15865174820376154644
12156800 1 16450707896523707518
12400797 245 18261664892282660170
12633257 1 17822279232148292562
133893 2 18053981439462622763
15003188 3 17551524236542768345
15119646 104 18060128852936333935
15635459 17 18336832987467437683
17492 54 17972634119411650382
17818456 19 17984993592181105185
20397935 3 17824846454391870031
20600515 1 17691419511538427494
20645477 70 18335140903712720073
21421861 104 18056227720560116945
23419403 2 17835788712644353197
23558518 356 17114940548706362512
23559900 14 18267028267179892141
2803657 2 17767089345177198142
3060560 45 18262811790532890220
35225 105 17129854173995594471
427121 178 16917068884038004903
460360 51 18116173103497572401
6669772 16 18197799863058573596
7364860 26 18333736844185658408
7471813 234 7925367168428590225
81228 2 16688539485582773277
8272917 22 18187089506859041209
84936 182 10519984867805295840
84936 31 17273975731724156807
9709674 26 17967818288372650217

> <PUBCHEM_SHAPE_MULTIPOLES>
448.52
7.66
3.49
2.06
10.57
0.94
-0.99
-0.02
3.89
-3.21
-1.67
-0.82
1.05
-0.15

> <PUBCHEM_SHAPE_SELFOVERLAP>
919.683

> <PUBCHEM_SHAPE_VOLUME>
258.6

> <PUBCHEM_COORDINATE_TYPE>
2
5
10

$$$$
