790155
  -OEChem-01171811443D

 26 27  0     0  0  0  0  0  0999 V2000
   -4.1434   -1.4102   -0.3665 Cl  0  0  0  0  0  0  0  0  0  0  0  0
    2.4431   -2.2358    0.6856 O   0  0  0  0  0  0  0  0  0  0  0  0
   -2.8485    2.3987   -0.5739 O   0  0  0  0  0  0  0  0  0  0  0  0
   -3.8512    1.3743    1.1901 O   0  0  0  0  0  0  0  0  0  0  0  0
    1.6174   -0.1284   -0.0214 N   0  0  0  0  0  0  0  0  0  0  0  0
    2.1436    1.1103   -0.3152 N   0  0  0  0  0  0  0  0  0  0  0  0
    3.8854   -0.3186    0.3055 C   0  0  0  0  0  0  0  0  0  0  0  0
    3.4237    1.0290   -0.1388 C   0  0  0  0  0  0  0  0  0  0  0  0
    0.2648   -0.4185   -0.1002 C   0  0  0  0  0  0  0  0  0  0  0  0
    2.5858   -1.0678    0.3656 C   0  0  0  0  0  0  0  0  0  0  0  0
   -0.6877    0.5810    0.1301 C   0  0  0  0  0  0  0  0  0  0  0  0
   -0.1630   -1.7144   -0.4109 C   0  0  0  0  0  0  0  0  0  0  0  0
    4.3703    2.1574   -0.3501 C   0  0  0  0  0  0  0  0  0  0  0  0
   -2.0493    0.2885    0.0508 C   0  0  0  0  0  0  0  0  0  0  0  0
   -1.5246   -2.0069   -0.4903 C   0  0  0  0  0  0  0  0  0  0  0  0
   -2.4677   -1.0054   -0.2595 C   0  0  0  0  0  0  0  0  0  0  0  0
   -2.9987    1.3669    0.2990 C   0  0  0  0  0  0  0  0  0  0  0  0
    4.5551   -0.7604   -0.4344 H   0  0  0  0  0  0  0  0  0  0  0  0
    4.3477   -0.2621    1.2926 H   0  0  0  0  0  0  0  0  0  0  0  0
   -0.3693    1.5904    0.3835 H   0  0  0  0  0  0  0  0  0  0  0  0
    0.5307   -2.5157   -0.6448 H   0  0  0  0  0  0  0  0  0  0  0  0
    4.8936    2.3711    0.5855 H   0  0  0  0  0  0  0  0  0  0  0  0
    3.8322    3.0516   -0.6746 H   0  0  0  0  0  0  0  0  0  0  0  0
    5.1008    1.8791   -1.1141 H   0  0  0  0  0  0  0  0  0  0  0  0
   -1.8346   -3.0178   -0.7429 H   0  0  0  0  0  0  0  0  0  0  0  0
   -3.4897    3.1205   -0.4000 H   0  0  0  0  0  0  0  0  0  0  0  0
  1 16  1  0  0  0  0
  2 10  2  0  0  0  0
  3 17  1  0  0  0  0
  3 26  1  0  0  0  0
  4 17  2  0  0  0  0
  5  6  1  0  0  0  0
  5  9  1  0  0  0  0
  5 10  1  0  0  0  0
  6  8  2  0  0  0  0
  7  8  1  0  0  0  0
  7 10  1  0  0  0  0
  7 18  1  0  0  0  0
  7 19  1  0  0  0  0
  8 13  1  0  0  0  0
  9 11  2  0  0  0  0
  9 12  1  0  0  0  0
 11 14  1  0  0  0  0
 11 20  1  0  0  0  0
 12 15  2  0  0  0  0
 12 21  1  0  0  0  0
 13 22  1  0  0  0  0
 13 23  1  0  0  0  0
 13 24  1  0  0  0  0
 14 16  2  0  0  0  0
 14 17  1  0  0  0  0
 15 16  1  0  0  0  0
 15 25  1  0  0  0  0
M  END
> <PUBCHEM_COMPOUND_CID>
790155

> <PUBCHEM_CONFORMER_RMSD>
0.6

> <PUBCHEM_CONFORMER_DIVERSEORDER>
2
3
6
5
4
1

> <PUBCHEM_MMFF94_PARTIAL_CHARGES>
21
1 -0.18
10 0.57
11 -0.15
12 -0.15
13 0.06
14 0.09
15 -0.15
16 0.18
17 0.63
2 -0.57
20 0.15
21 0.15
25 0.15
26 0.5
3 -0.65
4 -0.57
5 -0.11
6 -0.51
7 0.12
8 0.33
9 0.12

> <PUBCHEM_EFFECTIVE_ROTOR_COUNT>
2.4

> <PUBCHEM_PHARMACOPHORE_FEATURES>
7
1 2 acceptor
1 3 acceptor
1 4 acceptor
1 6 acceptor
3 3 4 17 anion
5 5 6 7 8 10 rings
6 9 11 12 14 15 16 rings

> <PUBCHEM_HEAVY_ATOM_COUNT>
17

> <PUBCHEM_ATOM_DEF_STEREO_COUNT>
0

> <PUBCHEM_ATOM_UDEF_STEREO_COUNT>
0

> <PUBCHEM_BOND_DEF_STEREO_COUNT>
0

> <PUBCHEM_BOND_UDEF_STEREO_COUNT>
0

> <PUBCHEM_ISOTOPIC_ATOM_COUNT>
0

> <PUBCHEM_COMPONENT_COUNT>
1

> <PUBCHEM_CACTVS_TAUTO_COUNT>
3

> <PUBCHEM_CONFORMER_ID>
000C0E8B00000002

> <PUBCHEM_MMFF94_ENERGY>
56.2848

> <PUBCHEM_FEATURE_SELFOVERLAP>
35.58

> <PUBCHEM_SHAPE_FINGERPRINT>
10608611 8 18412260649168948924
10980938 120 18334294262674376232
12173636 292 18342451530608474853
12251169 10 18336265630687243906
12346645 44 18336545036038324542
12390115 104 17987822759931553065
12403814 3 18335143077319846545
13140716 1 18339083666357747547
13583140 156 17532375253787026097
14144814 61 18409444791120886474
14325111 11 18411699867883705838
15196674 1 18411982472663733628
15342168 16 18056773039810321329
15442244 35 18337667495518393370
15536298 74 18413107269138605558
15669948 3 18130218367128692807
15775835 57 18411706477928233656
16945 1 18197203952782524731
1741750 31 18273216404340948408
17492 89 18410571756217444755
17834072 32 18338517417980621813
18186145 218 18271811155387026788
19050596 39 18408322181295999952
19422 9 18410008831964586426
201361 129 18335420171276759026
20279233 1 15285350738874905770
20510252 161 18201723972307024099
21267235 1 18410580608424077454
21501502 16 18412259523755739511
21524375 3 18271240530633184487
21652331 79 18338517555128931173
23402539 116 18200304546104272439
23463225 33 18338232669885039822
23557571 272 17917444175730625628
23559900 14 17988926622777866038
2748010 2 18199761236878078991
4214541 1 18412825785255332236
474 4 17750797834328456292
5104073 3 18410572894657156738
57096353 35 18339637974752515110
58051976 100 18336546027727526599
603831 33 18270104850648206183
633830 44 17916312636552764013
7097593 13 17972306331222929098
7364860 26 18413389818010367902
7615 1 18267563810794224550
7832392 63 18410572873214039340
9709674 26 18411985758214157526

> <PUBCHEM_SHAPE_MULTIPOLES>
324.15
8.21
2.45
0.77
2.55
0.29
0.06
2.76
0.17
-0.49
-0.08
-0.21
0.05
-1.04

> <PUBCHEM_SHAPE_SELFOVERLAP>
689.481

> <PUBCHEM_SHAPE_VOLUME>
183

> <PUBCHEM_COORDINATE_TYPE>
2
5
10

$$$$
