3152561
  -OEChem-01171812073D

 46 49  0     1  0  0  0  0  0999 V2000
   -3.3606    0.5068   -1.2274 O   0  0  0  0  0  0  0  0  0  0  0  0
    0.1970    3.6373    1.6439 O   0  0  0  0  0  0  0  0  0  0  0  0
   -2.3417    2.3264    2.0533 O   0  0  0  0  0  0  0  0  0  0  0  0
    2.6850    2.5348    0.6611 O   0  0  0  0  0  0  0  0  0  0  0  0
    1.5099    0.8728   -2.1548 O   0  0  0  0  0  0  0  0  0  0  0  0
    1.8125   -4.2330   -0.2080 O   0  0  0  0  0  0  0  0  0  0  0  0
   -1.4010    0.5258    0.8488 N   0  0  0  0  0  0  0  0  0  0  0  0
   -2.9499   -0.7032   -0.5687 C   0  0  1  0  0  0  0  0  0  0  0  0
   -2.5216   -0.3954    0.8530 C   0  0  0  0  0  0  0  0  0  0  0  0
   -4.1318   -1.6533   -0.6534 C   0  0  0  0  0  0  0  0  0  0  0  0
   -0.1199    0.2362    0.2139 C   0  0  1  0  0  0  0  0  0  0  0  0
   -4.7250   -1.2767   -1.9877 C   0  0  0  0  0  0  0  0  0  0  0  0
   -4.5365    0.2254   -2.0011 C   0  0  0  0  0  0  0  0  0  0  0  0
    0.6121    1.5130    0.4976 C   0  0  0  0  0  0  0  0  0  0  0  0
   -1.4330    1.7808    1.4503 C   0  0  0  0  0  0  0  0  0  0  0  0
    0.5461   -0.9556    0.8134 C   0  0  0  0  0  0  0  0  0  0  0  0
   -0.1095    2.3884    1.2051 C   0  0  0  0  0  0  0  0  0  0  0  0
    1.9643    1.7603    0.0100 C   0  0  0  0  0  0  0  0  0  0  0  0
    0.8724   -2.0500    0.0122 C   0  0  0  0  0  0  0  0  0  0  0  0
    0.8418   -0.9769    2.1766 C   0  0  0  0  0  0  0  0  0  0  0  0
    2.4427    1.1234   -1.2346 C   0  0  0  0  0  0  0  0  0  0  0  0
    1.4943   -3.1652    0.5738 C   0  0  0  0  0  0  0  0  0  0  0  0
    1.4634   -2.0922    2.7382 C   0  0  0  0  0  0  0  0  0  0  0  0
    1.7898   -3.1863    1.9369 C   0  0  0  0  0  0  0  0  0  0  0  0
    3.6814    0.7542   -1.5877 C   0  0  0  0  0  0  0  0  0  0  0  0
    3.5284    0.2034   -2.8824 C   0  0  0  0  0  0  0  0  0  0  0  0
    2.1894    0.2988   -3.1822 C   0  0  0  0  0  0  0  0  0  0  0  0
   -2.1215   -1.1202   -1.1533 H   0  0  0  0  0  0  0  0  0  0  0  0
   -2.2250   -1.3064    1.3826 H   0  0  0  0  0  0  0  0  0  0  0  0
   -3.3457    0.0657    1.4088 H   0  0  0  0  0  0  0  0  0  0  0  0
   -4.8587   -1.4501    0.1425 H   0  0  0  0  0  0  0  0  0  0  0  0
   -3.8380   -2.7046   -0.5891 H   0  0  0  0  0  0  0  0  0  0  0  0
   -0.3126    0.1186   -0.8551 H   0  0  0  0  0  0  0  0  0  0  0  0
   -4.1424   -1.7342   -2.7961 H   0  0  0  0  0  0  0  0  0  0  0  0
   -5.7693   -1.5769   -2.1064 H   0  0  0  0  0  0  0  0  0  0  0  0
   -4.4167    0.6246   -3.0121 H   0  0  0  0  0  0  0  0  0  0  0  0
   -5.3791    0.7348   -1.5217 H   0  0  0  0  0  0  0  0  0  0  0  0
    0.6413   -2.0357   -1.0502 H   0  0  0  0  0  0  0  0  0  0  0  0
    0.5945   -0.1421    2.8264 H   0  0  0  0  0  0  0  0  0  0  0  0
    1.1058    3.8391    1.3630 H   0  0  0  0  0  0  0  0  0  0  0  0
    1.6922   -2.1095    3.7998 H   0  0  0  0  0  0  0  0  0  0  0  0
    2.2736   -4.0523    2.3803 H   0  0  0  0  0  0  0  0  0  0  0  0
    4.5942    0.8510   -1.0180 H   0  0  0  0  0  0  0  0  0  0  0  0
    4.2975   -0.2119   -3.5174 H   0  0  0  0  0  0  0  0  0  0  0  0
    1.5382   -4.0472   -1.1225 H   0  0  0  0  0  0  0  0  0  0  0  0
    1.5928    0.0182   -4.0380 H   0  0  0  0  0  0  0  0  0  0  0  0
  1  8  1  0  0  0  0
  1 13  1  0  0  0  0
  2 17  1  0  0  0  0
  2 40  1  0  0  0  0
  3 15  2  0  0  0  0
  4 18  2  0  0  0  0
  5 21  1  0  0  0  0
  5 27  1  0  0  0  0
  6 22  1  0  0  0  0
  6 45  1  0  0  0  0
  7  9  1  0  0  0  0
  7 11  1  0  0  0  0
  7 15  1  0  0  0  0
  8  9  1  0  0  0  0
  8 10  1  0  0  0  0
  8 28  1  0  0  0  0
  9 29  1  0  0  0  0
  9 30  1  0  0  0  0
 10 12  1  0  0  0  0
 10 31  1  0  0  0  0
 10 32  1  0  0  0  0
 11 14  1  0  0  0  0
 11 16  1  0  0  0  0
 11 33  1  0  0  0  0
 12 13  1  0  0  0  0
 12 34  1  0  0  0  0
 12 35  1  0  0  0  0
 13 36  1  0  0  0  0
 13 37  1  0  0  0  0
 14 17  2  0  0  0  0
 14 18  1  0  0  0  0
 15 17  1  0  0  0  0
 16 19  2  0  0  0  0
 16 20  1  0  0  0  0
 18 21  1  0  0  0  0
 19 22  1  0  0  0  0
 19 38  1  0  0  0  0
 20 23  2  0  0  0  0
 20 39  1  0  0  0  0
 21 25  2  0  0  0  0
 22 24  2  0  0  0  0
 23 24  1  0  0  0  0
 23 41  1  0  0  0  0
 24 42  1  0  0  0  0
 25 26  1  0  0  0  0
 25 43  1  0  0  0  0
 26 27  2  0  0  0  0
 26 44  1  0  0  0  0
 27 46  1  0  0  0  0
M  END
> <PUBCHEM_COMPOUND_CID>
3152561

> <PUBCHEM_CONFORMER_RMSD>
0.8

> <PUBCHEM_CONFORMER_DIVERSEORDER>
1
109
336
366
264
220
260
351
267
325
287
361
262
188
195
359
182
224
256
91
252
270
11
355
368
206
181
241
306
218
356
177
183
48
297
208
352
102
197
347
219
291
253
363
203
277
121
321
105
364
186
74
215
344
314
222
156
223
348
226
269
343
57
147
247
280
332
184
379
307
111
221
303
316
42
132
40
310
367
273
350
362
202
170
100
191
196
207
158
283
160
354
370
285
292
263
169
116
257
286
373
365
232
322
162
311
214
331
313
245
209
288
63
216
338
248
47
318
345
374
229
233
225
240
330
155
140
308
309
371
346
231
375
75
337
213
349
380
148
67
180
145
312
210
172
271
246
230
107
339
51
275
244
35
71
136
117
372
43
251
99
317
238
176
157
192
128
95
358
255
377
89
76
31
282
333
165
141
284
320
294
268
83
125
258
328
167
357
298
281
34
18
163
201
227
296
239
175
360
295
137
120
193
77
53
242
30
278
302
324
323
24
54
376
152
334
198
78
144
168
299
235
279
200
327
81
234
326
249
189
113
154
187
122
49
17
19
290
123
199
44
138
211
301
114
135
149
37
58
52
265
29
243
315
381
178
369
250
10
79
130
342
104
115
289
293
340
378
7
304
73
133
14
21
60
190
274
118
101
82
84
55
228
32
70
151
272
69
16
59
171
329
353
179
205
236
85
88
254
72
27
80
341
103
212
153
276
62
173
185
335
146
305
108
166
86
261
65
237
110
319
204
259
8
90
36
9
143
217
87
129
61
174
41
50
300
64
97
194
93
56
45
39
139
46
22
124
12
134
112
96
142
38
6
266
94
106
23
66
33
2
98
68
20
25
13
131
28
126
4
26
164
119
127
159
5
161
3
150
92
15

> <PUBCHEM_MMFF94_PARTIAL_CHARGES>
34
1 -0.56
11 0.58
13 0.28
14 -0.12
15 0.62
16 -0.14
17 0.09
18 0.64
19 -0.15
2 -0.53
20 -0.15
21 0.05
22 0.08
23 -0.15
24 -0.15
25 -0.15
26 -0.15
27 -0.01
3 -0.57
38 0.15
39 0.15
4 -0.57
40 0.45
41 0.15
42 0.15
43 0.15
44 0.15
45 0.45
46 0.15
5 -0.28
6 -0.53
7 -0.66
8 0.28
9 0.3

> <PUBCHEM_EFFECTIVE_ROTOR_COUNT>
6.4

> <PUBCHEM_PHARMACOPHORE_FEATURES>
10
1 1 acceptor
1 2 donor
1 3 acceptor
1 4 acceptor
1 5 acceptor
1 6 donor
5 1 8 10 12 13 rings
5 5 21 25 26 27 rings
5 7 11 14 15 17 rings
6 16 19 20 22 23 24 rings

> <PUBCHEM_HEAVY_ATOM_COUNT>
27

> <PUBCHEM_ATOM_DEF_STEREO_COUNT>
0

> <PUBCHEM_ATOM_UDEF_STEREO_COUNT>
2

> <PUBCHEM_BOND_DEF_STEREO_COUNT>
0

> <PUBCHEM_BOND_UDEF_STEREO_COUNT>
0

> <PUBCHEM_ISOTOPIC_ATOM_COUNT>
0

> <PUBCHEM_COMPONENT_COUNT>
1

> <PUBCHEM_CACTVS_TAUTO_COUNT>
9

> <PUBCHEM_CONFORMER_ID>
00301AB100000001

> <PUBCHEM_MMFF94_ENERGY>
56.0373

> <PUBCHEM_FEATURE_SELFOVERLAP>
50.748

> <PUBCHEM_SHAPE_FINGERPRINT>
10721379 63 17968650506673449743
107951 10 15814060680763823564
11112662 9 14545030967170057835
11477941 20 16817169173954724262
11582403 64 16908301550175126169
12035759 4 18341335504709937871
12160290 23 17466530200867065618
12293681 25 17696496322260579582
12422481 6 16956700742375945704
13149001 5 17833570254603666412
133893 2 17677339298850941362
13681431 1 17896595081520510290
14181834 199 18042666356495091059
14251757 17 17842570809570654047
14747281 78 15575575539199514254
14863182 85 18267561628719035507
15163728 17 16371022809465636351
15664445 248 17917422176865963681
15849732 13 17024009636304527232
17899979 19 16950840303278408098
20197701 30 18043233837987065274
21285901 2 16826722292830982399
21860390 5 15647874020556888382
22112679 90 18127698132101477457
22907989 373 17102600613621831590
23419403 2 17475827679818234555
238 59 17531256053623093838
26353 1 17391063742641572774
266924 78 17532675446120293523
2748010 2 16617873349195970360
298252 57 16806451499018908964
3380486 77 18192136299675252568
4015057 19 18055381230088735124
404807 78 17174035919293725343
44802255 64 16880215540073281422
484985 159 14687282251103104916
5081480 168 17025435483515178927
513532 50 17345170381196755407
5845 1 16609179489416614592
6669772 16 17982438597487274488
81228 2 16747913693103198787
9925002 15 17908425753673365226

> <PUBCHEM_SHAPE_MULTIPOLES>
515.45
6.59
3.94
3.09
8.03
3.13
-1.02
-0.29
-6.3
-2.99
2.3
-0.98
-0.92
-1.85

> <PUBCHEM_SHAPE_SELFOVERLAP>
1136.658

> <PUBCHEM_SHAPE_VOLUME>
277.3

> <PUBCHEM_COORDINATE_TYPE>
2
5
10

$$$$
