2021006
  -OEChem-01171811423D

 45 49  0     0  0  0  0  0  0999 V2000
   -1.8442    2.3762    0.7379 S   0  0  0  0  0  0  0  0  0  0  0  0
   -2.7263    1.6595   -1.9557 S   0  0  0  0  0  0  0  0  0  0  0  0
   -2.5509    2.6159    2.0008 O   0  0  0  0  0  0  0  0  0  0  0  0
   -1.2266    3.4946    0.0218 O   0  0  0  0  0  0  0  0  0  0  0  0
    0.1893   -0.8913    1.3148 N   0  0  0  0  0  0  0  0  0  0  0  0
    2.4507   -0.4665    0.5631 N   0  0  0  0  0  0  0  0  0  0  0  0
    1.3903    2.1124   -0.0393 N   0  0  0  0  0  0  0  0  0  0  0  0
   -2.1060   -0.7184    1.8722 N   0  0  0  0  0  0  0  0  0  0  0  0
   -0.7259    1.0957    0.8772 C   0  0  0  0  0  0  0  0  0  0  0  0
   -0.9753   -0.1659    1.3779 C   0  0  0  0  0  0  0  0  0  0  0  0
    1.1771   -0.1107    0.7816 C   0  0  0  0  0  0  0  0  0  0  0  0
    0.6359    1.1292    0.5006 C   0  0  0  0  0  0  0  0  0  0  0  0
    0.3596   -2.2644    1.7416 C   0  0  0  0  0  0  0  0  0  0  0  0
    0.0778   -3.2172    0.6130 C   0  0  0  0  0  0  0  0  0  0  0  0
    3.1968    0.5106    0.0276 C   0  0  0  0  0  0  0  0  0  0  0  0
    2.6711    1.7904   -0.2717 C   0  0  0  0  0  0  0  0  0  0  0  0
   -3.1577    1.8414   -0.3112 C   0  0  0  0  0  0  0  0  0  0  0  0
    1.1117   -3.6088   -0.2277 C   0  0  0  0  0  0  0  0  0  0  0  0
   -1.2130   -3.6940    0.4245 C   0  0  0  0  0  0  0  0  0  0  0  0
    4.5378    0.2551   -0.2429 C   0  0  0  0  0  0  0  0  0  0  0  0
    3.5121    2.7503   -0.8262 C   0  0  0  0  0  0  0  0  0  0  0  0
   -4.4765    1.5358   -0.0792 C   0  0  0  0  0  0  0  0  0  0  0  0
    5.3681    1.2267   -0.7987 C   0  0  0  0  0  0  0  0  0  0  0  0
    4.8532    2.4795   -1.0916 C   0  0  0  0  0  0  0  0  0  0  0  0
    0.8502   -4.4925   -1.2748 C   0  0  0  0  0  0  0  0  0  0  0  0
   -1.4744   -4.5779   -0.6225 C   0  0  0  0  0  0  0  0  0  0  0  0
   -5.1486    1.1441   -1.2728 C   0  0  0  0  0  0  0  0  0  0  0  0
   -4.3136    1.1672   -2.3682 C   0  0  0  0  0  0  0  0  0  0  0  0
   -0.4429   -4.9772   -1.4721 C   0  0  0  0  0  0  0  0  0  0  0  0
   -0.2754   -2.4633    2.6114 H   0  0  0  0  0  0  0  0  0  0  0  0
    1.3889   -2.3853    2.1024 H   0  0  0  0  0  0  0  0  0  0  0  0
   -2.1554   -1.6495    2.2680 H   0  0  0  0  0  0  0  0  0  0  0  0
   -2.9731   -0.1924    1.9216 H   0  0  0  0  0  0  0  0  0  0  0  0
    2.1243   -3.2442   -0.0827 H   0  0  0  0  0  0  0  0  0  0  0  0
   -2.0270   -3.4131    1.0834 H   0  0  0  0  0  0  0  0  0  0  0  0
    4.9590   -0.7234   -0.0193 H   0  0  0  0  0  0  0  0  0  0  0  0
    3.1243    3.7397   -1.0624 H   0  0  0  0  0  0  0  0  0  0  0  0
   -4.9447    1.5863    0.8953 H   0  0  0  0  0  0  0  0  0  0  0  0
    6.4111    1.0022   -1.0003 H   0  0  0  0  0  0  0  0  0  0  0  0
    5.4889    3.2457   -1.5248 H   0  0  0  0  0  0  0  0  0  0  0  0
   -6.1914    0.8594   -1.3253 H   0  0  0  0  0  0  0  0  0  0  0  0
    1.6537   -4.8045   -1.9356 H   0  0  0  0  0  0  0  0  0  0  0  0
   -2.4803   -4.9587   -0.7736 H   0  0  0  0  0  0  0  0  0  0  0  0
   -4.5597    0.9182   -3.3908 H   0  0  0  0  0  0  0  0  0  0  0  0
   -0.6461   -5.6663   -2.2865 H   0  0  0  0  0  0  0  0  0  0  0  0
  1  3  2  0  0  0  0
  1  4  2  0  0  0  0
  1  9  1  0  0  0  0
  1 17  1  0  0  0  0
  2 17  1  0  0  0  0
  2 28  1  0  0  0  0
  5 10  1  0  0  0  0
  5 11  1  0  0  0  0
  5 13  1  0  0  0  0
  6 11  2  0  0  0  0
  6 15  1  0  0  0  0
  7 12  2  0  0  0  0
  7 16  1  0  0  0  0
  8 10  1  0  0  0  0
  8 32  1  0  0  0  0
  8 33  1  0  0  0  0
  9 10  2  0  0  0  0
  9 12  1  0  0  0  0
 11 12  1  0  0  0  0
 13 14  1  0  0  0  0
 13 30  1  0  0  0  0
 13 31  1  0  0  0  0
 14 18  2  0  0  0  0
 14 19  1  0  0  0  0
 15 16  1  0  0  0  0
 15 20  2  0  0  0  0
 16 21  2  0  0  0  0
 17 22  2  0  0  0  0
 18 25  1  0  0  0  0
 18 34  1  0  0  0  0
 19 26  2  0  0  0  0
 19 35  1  0  0  0  0
 20 23  1  0  0  0  0
 20 36  1  0  0  0  0
 21 24  1  0  0  0  0
 21 37  1  0  0  0  0
 22 27  1  0  0  0  0
 22 38  1  0  0  0  0
 23 24  2  0  0  0  0
 23 39  1  0  0  0  0
 24 40  1  0  0  0  0
 25 29  2  0  0  0  0
 25 42  1  0  0  0  0
 26 29  1  0  0  0  0
 26 43  1  0  0  0  0
 27 28  2  0  0  0  0
 27 41  1  0  0  0  0
 28 44  1  0  0  0  0
 29 45  1  0  0  0  0
M  END
> <PUBCHEM_COMPOUND_CID>
2021006

> <PUBCHEM_CONFORMER_RMSD>
0.8

> <PUBCHEM_CONFORMER_DIVERSEORDER>
2
48
56
10
17
12
39
52
55
13
60
34
20
61
37
45
30
31
47
27
26
3
29
21
57
58
16
28
14
44
22
59
62
54
46
9
32
49
40
41
36
50
18
33
7
51
53
38
4
15
8
23
24
25
42
19
35
6
43
11
1
5

> <PUBCHEM_MMFF94_PARTIAL_CHARGES>
43
1 1.42
10 -0.07
11 0.11
12 0.26
13 0.4
14 -0.14
15 0.31
16 0.31
17 -0.02
18 -0.15
19 -0.15
2 -0.08
20 -0.15
21 -0.15
22 -0.15
23 -0.15
24 -0.15
25 -0.15
26 -0.15
27 -0.15
28 -0.11
29 -0.15
3 -0.65
32 0.4
33 0.4
34 0.15
35 0.15
36 0.15
37 0.15
38 0.15
39 0.15
4 -0.65
40 0.15
41 0.15
42 0.15
43 0.15
44 0.15
45 0.15
5 0.05
6 -0.57
7 -0.57
8 -0.88
9 -0.06

> <PUBCHEM_EFFECTIVE_ROTOR_COUNT>
4

> <PUBCHEM_PHARMACOPHORE_FEATURES>
11
1 3 acceptor
1 4 acceptor
1 7 acceptor
1 8 cation
1 8 donor
3 5 6 11 cation
5 2 17 22 27 28 rings
5 5 9 10 11 12 rings
6 14 18 19 25 26 29 rings
6 15 16 20 21 23 24 rings
6 6 7 11 12 15 16 rings

> <PUBCHEM_HEAVY_ATOM_COUNT>
29

> <PUBCHEM_ATOM_DEF_STEREO_COUNT>
0

> <PUBCHEM_ATOM_UDEF_STEREO_COUNT>
0

> <PUBCHEM_BOND_DEF_STEREO_COUNT>
0

> <PUBCHEM_BOND_UDEF_STEREO_COUNT>
0

> <PUBCHEM_ISOTOPIC_ATOM_COUNT>
0

> <PUBCHEM_COMPONENT_COUNT>
1

> <PUBCHEM_CACTVS_TAUTO_COUNT>
3

> <PUBCHEM_CONFORMER_ID>
001ED68E00000002

> <PUBCHEM_MMFF94_ENERGY>
67.1521

> <PUBCHEM_FEATURE_SELFOVERLAP>
56.012

> <PUBCHEM_SHAPE_FINGERPRINT>
10010297 198 17840611214432280209
10930396 42 15819284924391431368
11045515 52 17545887491282955170
11069576 57 17838866302010058199
11421498 54 18130499722310685801
11488393 25 18265060124207929499
12160290 23 18191583270800126112
12788726 201 17903065969769927498
13004483 165 17908993445677123282
13383661 66 17985830565353742399
13583140 156 16298394560651916608
1361 2 18196089933372739246
13690498 29 17833865981167816364
13911987 19 18335423478075179157
13965767 371 11028854083768693765
14251757 5 18194959879799680239
14556957 393 17321565112258018836
14863182 85 18054479470906497387
14930077 153 17535479445368097996
15664445 248 17614834115975379275
17138139 8 17985798619080292671
17980427 26 17481751534719788513
18603816 31 16413543068123049460
20028762 73 18197771116515458694
20602899 9 18343306976203135880
20775438 99 17554295374927420805
21344244 181 18271815626342721287
21344244 246 18267583499035456334
23566358 27 17908713834700349257
238 59 18263361382789523387
23929065 36 17836912766369672024
26353 1 17255399847528518710
3380486 145 17617395307963724089
352729 6 18335712623841862064
38695281 34 18336257955580751117
3886686 26 9144339601388101246
4066623 53 17329958792076227303
4280585 95 17184455521967817619
4409770 3 18267870664621898062
46194498 28 17900807268233753413
5080951 261 17986110940812731202
5104073 3 10446833183591405644
5223283 242 16675246399237033981
59025328 239 16761402488952385390
6691757 9 18272087202416483162

> <PUBCHEM_SHAPE_MULTIPOLES>
572.84
8.33
6.56
1.81
3.19
10.84
0.12
-9.83
4.71
-1.26
2.12
-1.55
-0.02
-0.44

> <PUBCHEM_SHAPE_SELFOVERLAP>
1266.791

> <PUBCHEM_SHAPE_VOLUME>
310.2

> <PUBCHEM_COORDINATE_TYPE>
2
5
10

$$$$
