1291888
  -OEChem-01171811393D

 39 41  0     0  0  0  0  0  0999 V2000
   -4.0551    3.0704    0.0543 Br  0  0  0  0  0  0  0  0  0  0  0  0
   -5.4074   -1.4718    0.5815 Cl  0  0  0  0  0  0  0  0  0  0  0  0
    2.4338    1.1452    0.3196 O   0  0  0  0  0  0  0  0  0  0  0  0
    2.3796   -2.4285   -1.0289 O   0  0  0  0  0  0  0  0  0  0  0  0
    4.6035    1.3569   -0.4350 O   0  0  0  0  0  0  0  0  0  0  0  0
    1.3530   -1.5542    0.7595 N   0  0  0  0  0  0  0  0  0  0  0  0
    1.0057   -2.5165   -1.2867 N   0  0  0  0  0  0  0  0  0  0  0  0
    3.8623   -1.6478    0.6963 C   0  0  0  0  0  0  0  0  0  0  0  0
    4.0384   -0.2530    1.2984 C   0  0  0  0  0  0  0  0  0  0  0  0
    2.4608   -1.8561    0.1824 C   0  0  0  0  0  0  0  0  0  0  0  0
    3.7644    0.8378    0.2881 C   0  0  0  0  0  0  0  0  0  0  0  0
    2.0165    2.1710   -0.5870 C   0  0  0  0  0  0  0  0  0  0  0  0
    0.5402    2.3905   -0.4323 C   0  0  0  0  0  0  0  0  0  0  0  0
    0.4675   -1.9807   -0.1870 C   0  0  0  0  0  0  0  0  0  0  0  0
   -0.9497   -1.8570   -0.0022 C   0  0  0  0  0  0  0  0  0  0  0  0
   -0.3503    1.6553   -1.2065 C   0  0  0  0  0  0  0  0  0  0  0  0
    0.0759    3.3261    0.4855 C   0  0  0  0  0  0  0  0  0  0  0  0
   -1.8257   -2.3047   -0.9921 C   0  0  0  0  0  0  0  0  0  0  0  0
   -1.4549   -1.2900    1.1687 C   0  0  0  0  0  0  0  0  0  0  0  0
   -1.7227    1.8584   -1.0614 C   0  0  0  0  0  0  0  0  0  0  0  0
   -1.2964    3.5293    0.6307 C   0  0  0  0  0  0  0  0  0  0  0  0
   -3.2036   -2.1858   -0.8116 C   0  0  0  0  0  0  0  0  0  0  0  0
   -2.8329   -1.1711    1.3494 C   0  0  0  0  0  0  0  0  0  0  0  0
   -2.1957    2.7954   -0.1428 C   0  0  0  0  0  0  0  0  0  0  0  0
   -3.7073   -1.6189    0.3592 C   0  0  0  0  0  0  0  0  0  0  0  0
    4.5774   -1.7879   -0.1231 H   0  0  0  0  0  0  0  0  0  0  0  0
    4.0759   -2.4076    1.4560 H   0  0  0  0  0  0  0  0  0  0  0  0
    3.3891   -0.1067    2.1704 H   0  0  0  0  0  0  0  0  0  0  0  0
    5.0656   -0.1256    1.6589 H   0  0  0  0  0  0  0  0  0  0  0  0
    2.5624    3.0985   -0.3738 H   0  0  0  0  0  0  0  0  0  0  0  0
    2.2489    1.8712   -1.6165 H   0  0  0  0  0  0  0  0  0  0  0  0
    0.0073    0.9219   -1.9239 H   0  0  0  0  0  0  0  0  0  0  0  0
    0.7676    3.9012    1.0949 H   0  0  0  0  0  0  0  0  0  0  0  0
   -1.4701   -2.7510   -1.9174 H   0  0  0  0  0  0  0  0  0  0  0  0
   -0.7996   -0.9296    1.9578 H   0  0  0  0  0  0  0  0  0  0  0  0
   -2.4100    1.2773   -1.6708 H   0  0  0  0  0  0  0  0  0  0  0  0
   -1.6486    4.2625    1.3516 H   0  0  0  0  0  0  0  0  0  0  0  0
   -3.8734   -2.5384   -1.5917 H   0  0  0  0  0  0  0  0  0  0  0  0
   -3.2114   -0.7255    2.2658 H   0  0  0  0  0  0  0  0  0  0  0  0
  1 24  1  0  0  0  0
  2 25  1  0  0  0  0
  3 11  1  0  0  0  0
  3 12  1  0  0  0  0
  4  7  1  0  0  0  0
  4 10  1  0  0  0  0
  5 11  2  0  0  0  0
  6 10  2  0  0  0  0
  6 14  1  0  0  0  0
  7 14  2  0  0  0  0
  8  9  1  0  0  0  0
  8 10  1  0  0  0  0
  8 26  1  0  0  0  0
  8 27  1  0  0  0  0
  9 11  1  0  0  0  0
  9 28  1  0  0  0  0
  9 29  1  0  0  0  0
 12 13  1  0  0  0  0
 12 30  1  0  0  0  0
 12 31  1  0  0  0  0
 13 16  2  0  0  0  0
 13 17  1  0  0  0  0
 14 15  1  0  0  0  0
 15 18  2  0  0  0  0
 15 19  1  0  0  0  0
 16 20  1  0  0  0  0
 16 32  1  0  0  0  0
 17 21  2  0  0  0  0
 17 33  1  0  0  0  0
 18 22  1  0  0  0  0
 18 34  1  0  0  0  0
 19 23  2  0  0  0  0
 19 35  1  0  0  0  0
 20 24  2  0  0  0  0
 20 36  1  0  0  0  0
 21 24  1  0  0  0  0
 21 37  1  0  0  0  0
 22 25  2  0  0  0  0
 22 38  1  0  0  0  0
 23 25  1  0  0  0  0
 23 39  1  0  0  0  0
M  END
> <PUBCHEM_COMPOUND_CID>
1291888

> <PUBCHEM_CONFORMER_RMSD>
0.8

> <PUBCHEM_CONFORMER_DIVERSEORDER>
1
196
4
121
6
156
77
251
50
337
13
146
205
336
21
115
302
24
12
61
293
83
38
268
203
271
45
80
257
329
292
69
63
283
2
59
234
248
62
246
239
125
207
333
244
230
291
135
43
82
68
131
107
129
54
60
245
165
200
218
89
224
34
153
142
157
90
56
288
223
309
143
228
27
158
155
53
322
136
287
106
266
26
236
340
149
323
185
280
48
259
47
91
100
159
151
208
222
40
307
229
173
176
262
279
273
238
184
133
190
8
5
213
134
7
231
148
198
311
10
46
160
277
301
220
9
124
300
147
305
254
206
15
299
119
269
20
168
57
28
298
284
65
161
122
105
343
92
326
96
29
18
33
94
188
316
197
169
120
260
242
17
258
278
204
31
272
67
233
331
114
30
102
137
247
39
145
164
86
19
252
150
297
84
104
74
289
182
314
76
267
179
51
276
304
81
55
339
250
72
16
175
232
171
88
152
286
108
216
261
241
306
52
193
270
170
75
183
328
295
93
180
49
44
110
3
41
215
23
201
313
282
249
128
294
98
138
35
123
303
14
42
195
32
227
253
324
101
78
256
214
109
66
162
202
103
194
140
325
11
172
163
113
166
221
79
285
209
85
296
211
118
126
154
191
22
338
264
342
36
37
321
58
263
174
139
315
95
212
290
132
189
225
319
217
255
281
312
210
243
64
317
327
87
116
25
235
330
274
177
192
318
127
73
341
310
181
199
117
187
275
320
130
240
265
226
237
332
308
178
144
70
71
334
167
335
112
186
219
99
111
97
141

> <PUBCHEM_MMFF94_PARTIAL_CHARGES>
33
1 -0.11
10 0.3
11 0.66
12 0.42
13 -0.14
14 0.46
15 0.05
16 -0.15
17 -0.15
18 -0.15
19 -0.15
2 -0.18
20 -0.15
21 -0.15
22 -0.15
23 -0.15
24 0.11
25 0.18
3 -0.43
32 0.15
33 0.15
34 0.15
35 0.15
36 0.15
37 0.15
38 0.15
39 0.15
4 -0.02
5 -0.57
6 -0.57
7 -0.41
8 0.18
9 0.06

> <PUBCHEM_EFFECTIVE_ROTOR_COUNT>
7

> <PUBCHEM_PHARMACOPHORE_FEATURES>
6
1 1 hydrophobe
1 5 acceptor
3 6 7 14 cation
5 4 6 7 10 14 rings
6 13 16 17 20 21 24 rings
6 15 18 19 22 23 25 rings

> <PUBCHEM_HEAVY_ATOM_COUNT>
25

> <PUBCHEM_ATOM_DEF_STEREO_COUNT>
0

> <PUBCHEM_ATOM_UDEF_STEREO_COUNT>
0

> <PUBCHEM_BOND_DEF_STEREO_COUNT>
0

> <PUBCHEM_BOND_UDEF_STEREO_COUNT>
0

> <PUBCHEM_ISOTOPIC_ATOM_COUNT>
0

> <PUBCHEM_COMPONENT_COUNT>
1

> <PUBCHEM_CACTVS_TAUTO_COUNT>
3

> <PUBCHEM_CONFORMER_ID>
0013B67000000001

> <PUBCHEM_MMFF94_ENERGY>
42.9484

> <PUBCHEM_FEATURE_SELFOVERLAP>
30.447

> <PUBCHEM_SHAPE_FINGERPRINT>
10064457 181 17909271282695312352
104564 63 18408887373285886948
10616163 171 18409730660055161620
10688039 33 17894907464547559821
10708813 3 17766276861628488155
1100329 8 18192711133866004025
11513181 2 18202003179362051431
11578080 2 17630293459957344026
12422481 6 18194149368601198601
12553582 1 18266171923588815616
12633257 1 18044083554369712040
12655364 131 16691574665968001952
12788726 201 18194140713419650996
13075007 39 17607545801635357123
13122387 1 17689995635343212433
13140716 1 18264762169414634890
14790565 3 17398394611771272325
14840074 17 18267595782314134375
14955137 171 18050868889316608938
15420108 30 17841712116663809575
19930381 70 17401199475050339379
20621476 7 18338524135308914219
20764821 26 18337954467678391199
20905425 154 18411425015767690948
21041028 32 18408604786186940195
21197605 99 18339084792293293745
21304304 249 17686605858586105074
22113638 7 17980760763801367407
23227448 37 18267020557824267973
23419403 2 17970043708402420367
23557571 272 18338803312251742174
3014063 31 18337950190170773069
3052486 1 18334587806630495452
338550 245 18261119552017373717
35225 105 17535458223860782723
392239 28 18049727313290553393
445580 8 18270967975934315198
469060 322 16878229649662915535
5282274 181 18194973941269405888
5283268 108 18408892831894025226
6287921 2 17481145600987064265
6443956 14 18265053707457736317
81228 2 18043543719598318995

> <PUBCHEM_SHAPE_MULTIPOLES>
494.73
8.17
4.99
1.19
0.42
2.82
-0.01
-1.66
1.84
-2.85
-0.42
-0.06
-0.32
0.07

> <PUBCHEM_SHAPE_SELFOVERLAP>
1042.722

> <PUBCHEM_SHAPE_VOLUME>
285.1

> <PUBCHEM_COORDINATE_TYPE>
2
5
10

$$$$
