2054803
  -OEChem-01171811443D

 31 32  0     0  0  0  0  0  0999 V2000
   -2.8707   -2.6353    0.3517 O   0  0  0  0  0  0  0  0  0  0  0  0
    5.4228    0.6167   -0.0491 O   0  0  0  0  0  0  0  0  0  0  0  0
   -2.2305   -0.4800   -0.3392 N   0  0  0  0  0  0  0  0  0  0  0  0
   -1.0181    0.1426   -0.3817 N   0  0  0  0  0  0  0  0  0  0  0  0
   -6.2093    2.2378   -0.1139 N   0  0  0  0  0  0  0  0  0  0  0  0
   -0.0436   -0.7434    0.0059 C   0  0  0  0  0  0  0  0  0  0  0  0
   -3.4310    0.2214   -0.6986 C   0  0  0  0  0  0  0  0  0  0  0  0
    1.3829   -0.3886   -0.0091 C   0  0  0  0  0  0  0  0  0  0  0  0
   -2.0464   -1.7628    0.1381 C   0  0  0  0  0  0  0  0  0  0  0  0
   -0.5802   -1.9240    0.3618 C   0  0  0  0  0  0  0  0  0  0  0  0
   -3.9954    0.9630    0.5106 C   0  0  0  0  0  0  0  0  0  0  0  0
    2.3561   -1.3678   -0.2490 C   0  0  0  0  0  0  0  0  0  0  0  0
    1.7879    0.9337    0.2172 C   0  0  0  0  0  0  0  0  0  0  0  0
    3.7096   -1.0309   -0.2624 C   0  0  0  0  0  0  0  0  0  0  0  0
    3.1414    1.2706    0.2036 C   0  0  0  0  0  0  0  0  0  0  0  0
    4.1023    0.2883   -0.0362 C   0  0  0  0  0  0  0  0  0  0  0  0
   -5.2323    1.6750    0.1605 C   0  0  0  0  0  0  0  0  0  0  0  0
    5.7546    1.9838    0.1897 C   0  0  0  0  0  0  0  0  0  0  0  0
   -4.1598   -0.5171   -1.0537 H   0  0  0  0  0  0  0  0  0  0  0  0
   -3.2152    0.9062   -1.5272 H   0  0  0  0  0  0  0  0  0  0  0  0
   -0.8361    0.9238   -0.9971 H   0  0  0  0  0  0  0  0  0  0  0  0
   -0.1052   -2.8239    0.7114 H   0  0  0  0  0  0  0  0  0  0  0  0
   -4.1955    0.2561    1.3248 H   0  0  0  0  0  0  0  0  0  0  0  0
   -3.2562    1.6778    0.8914 H   0  0  0  0  0  0  0  0  0  0  0  0
    2.0807   -2.4028   -0.4373 H   0  0  0  0  0  0  0  0  0  0  0  0
    1.0601    1.7175    0.4144 H   0  0  0  0  0  0  0  0  0  0  0  0
    4.4536   -1.7998   -0.4516 H   0  0  0  0  0  0  0  0  0  0  0  0
    3.3769    2.3130    0.3884 H   0  0  0  0  0  0  0  0  0  0  0  0
    6.8456    2.0646    0.1427 H   0  0  0  0  0  0  0  0  0  0  0  0
    5.3516    2.6380   -0.5909 H   0  0  0  0  0  0  0  0  0  0  0  0
    5.4535    2.3015    1.1938 H   0  0  0  0  0  0  0  0  0  0  0  0
  1  9  2  0  0  0  0
  2 16  1  0  0  0  0
  2 18  1  0  0  0  0
  3  4  1  0  0  0  0
  3  7  1  0  0  0  0
  3  9  1  0  0  0  0
  4  6  1  0  0  0  0
  4 21  1  0  0  0  0
  5 17  3  0  0  0  0
  6  8  1  0  0  0  0
  6 10  2  0  0  0  0
  7 11  1  0  0  0  0
  7 19  1  0  0  0  0
  7 20  1  0  0  0  0
  8 12  2  0  0  0  0
  8 13  1  0  0  0  0
  9 10  1  0  0  0  0
 10 22  1  0  0  0  0
 11 17  1  0  0  0  0
 11 23  1  0  0  0  0
 11 24  1  0  0  0  0
 12 14  1  0  0  0  0
 12 25  1  0  0  0  0
 13 15  2  0  0  0  0
 13 26  1  0  0  0  0
 14 16  2  0  0  0  0
 14 27  1  0  0  0  0
 15 16  1  0  0  0  0
 15 28  1  0  0  0  0
 18 29  1  0  0  0  0
 18 30  1  0  0  0  0
 18 31  1  0  0  0  0
M  END
> <PUBCHEM_COMPOUND_CID>
2054803

> <PUBCHEM_CONFORMER_RMSD>
0.6

> <PUBCHEM_CONFORMER_DIVERSEORDER>
1
22
30
14
21
37
24
5
31
33
28
35
7
32
25
10
27
34
19
15
23
29
36
3
18
6
13
12
26
20
9
16
8
11
17
2
4

> <PUBCHEM_MMFF94_PARTIAL_CHARGES>
24
1 -0.57
10 -0.14
11 0.2
12 -0.15
13 -0.15
14 -0.15
15 -0.15
16 0.08
17 0.36
18 0.28
2 -0.36
21 0.4
22 0.15
25 0.15
26 0.15
27 0.15
28 0.15
3 -0.34
4 -0.52
5 -0.56
6 0.07
7 0.3
8 0.03
9 0.62

> <PUBCHEM_EFFECTIVE_ROTOR_COUNT>
4

> <PUBCHEM_PHARMACOPHORE_FEATURES>
6
1 1 acceptor
1 2 acceptor
1 4 donor
1 5 acceptor
5 3 4 6 9 10 rings
6 8 12 13 14 15 16 rings

> <PUBCHEM_HEAVY_ATOM_COUNT>
18

> <PUBCHEM_ATOM_DEF_STEREO_COUNT>
0

> <PUBCHEM_ATOM_UDEF_STEREO_COUNT>
0

> <PUBCHEM_BOND_DEF_STEREO_COUNT>
0

> <PUBCHEM_BOND_UDEF_STEREO_COUNT>
0

> <PUBCHEM_ISOTOPIC_ATOM_COUNT>
0

> <PUBCHEM_COMPONENT_COUNT>
1

> <PUBCHEM_CACTVS_TAUTO_COUNT>
3

> <PUBCHEM_CONFORMER_ID>
001F5A9300000001

> <PUBCHEM_MMFF94_ENERGY>
57.6314

> <PUBCHEM_FEATURE_SELFOVERLAP>
30.447

> <PUBCHEM_SHAPE_FINGERPRINT>
10014705 185 18412263947677309115
100836 57 18409170999809214797
10493431 412 18334577928226741725
10608611 8 18339358690335588994
117890 112 18412823603733965600
12107183 9 18190450581040917010
12390115 104 18339095859627326523
12403259 415 18058730359343366304
12500047 106 18341611555021874626
13073987 5 18262233425925980514
15048467 5 18411418410461839524
15196674 1 18410856594632822990
15501527 16 18411422821414065817
15778101 99 18409732889142843932
200 152 17632014246988841134
20281389 69 18333448724878657933
20621476 66 18410578391820156000
20645477 56 18334857216706461157
20645477 70 17560807589431372174
21033648 29 17988069123666533824
21236236 1 18412262866000022535
212847 35 18342172224458282384
21421861 104 17750500807496635538
21426921 1 18268146642399477823
23402539 116 18272081708151212060
23402655 69 18272928332373514502
23557571 272 18270689786549654550
23559900 14 18341612591005973686
2916195 48 18410291415243176577
293599 30 18410012109246010341
300161 21 18343298167520474136
335352 9 18338798906063631334
34934 24 18411133636907755170
3545911 37 18413111675205170144
4214541 1 18410575119070426470
465052 167 7997677723123903672
495365 180 17560785633373639402
5104073 3 18187920712148777642
59682541 35 18334587858855964025
59682541 52 17059502811482116644
59755656 520 18335134276931935079
633830 44 18411413999287879302
77188 2 17256530146163172675
7970288 3 9150875175602113393

> <PUBCHEM_SHAPE_MULTIPOLES>
343.75
12.83
2.39
0.68
2.53
0.32
-0.01
-10.72
0.07
1.66
0.26
0.15
0.01
0.37

> <PUBCHEM_SHAPE_SELFOVERLAP>
726.376

> <PUBCHEM_SHAPE_VOLUME>
191.5

> <PUBCHEM_COORDINATE_TYPE>
2
5
10

$$$$
