20923388
  -OEChem-01171812063D

 47 49  0     1  0  0  0  0  0999 V2000
    0.3611    0.5916   -1.1151 S   0  0  0  0  0  0  0  0  0  0  0  0
   -0.0105   -0.7656   -1.4664 O   0  0  0  0  0  0  0  0  0  0  0  0
    0.2642    1.6832   -2.0651 O   0  0  0  0  0  0  0  0  0  0  0  0
   -3.8748   -1.0119   -0.1932 O   0  0  0  0  0  0  0  0  0  0  0  0
   -2.5936   -0.3612   -1.9795 O   0  0  0  0  0  0  0  0  0  0  0  0
    1.9089    0.5908   -0.4099 N   0  0  2  0  0  0  0  0  0  0  0  0
   -1.7860    1.9175    1.8874 N   0  0  0  0  0  0  0  0  0  0  0  0
    3.0542    1.1521   -1.2203 C   0  0  2  0  0  0  0  0  0  0  0  0
    4.3171    0.4001   -0.7384 C   0  0  0  0  0  0  0  0  0  0  0  0
    2.3686   -0.6407    0.1632 C   0  0  0  0  0  0  0  0  0  0  0  0
    3.7450   -0.7697   -0.0051 C   0  0  0  0  0  0  0  0  0  0  0  0
   -0.8233    1.0209    0.0982 C   0  0  0  0  0  0  0  0  0  0  0  0
    3.1566    2.6530   -1.0036 C   0  0  0  0  0  0  0  0  0  0  0  0
    1.6420   -1.5657    0.8961 C   0  0  0  0  0  0  0  0  0  0  0  0
    4.4267   -1.8569    0.5171 C   0  0  0  0  0  0  0  0  0  0  0  0
   -0.6110    1.8380    1.1866 C   0  0  0  0  0  0  0  0  0  0  0  0
   -2.1734    0.5942    0.1465 C   0  0  0  0  0  0  0  0  0  0  0  0
   -2.7451    1.1639    1.2626 C   0  0  0  0  0  0  0  0  0  0  0  0
    2.3199   -2.6692    1.4191 C   0  0  0  0  0  0  0  0  0  0  0  0
    3.7021   -2.8165    1.2269 C   0  0  0  0  0  0  0  0  0  0  0  0
    0.5933    2.5604    1.6402 C   0  0  0  0  0  0  0  0  0  0  0  0
   -2.8633   -0.2702   -0.7697 C   0  0  0  0  0  0  0  0  0  0  0  0
   -4.1124    1.0701    1.8112 C   0  0  0  0  0  0  0  0  0  0  0  0
   -4.6050   -1.8959   -1.0514 C   0  0  0  0  0  0  0  0  0  0  0  0
   -5.6612   -2.6124   -0.2373 C   0  0  0  0  0  0  0  0  0  0  0  0
    2.8932    0.9292   -2.2831 H   0  0  0  0  0  0  0  0  0  0  0  0
    4.9321    0.0861   -1.5875 H   0  0  0  0  0  0  0  0  0  0  0  0
    4.9228    1.0066   -0.0564 H   0  0  0  0  0  0  0  0  0  0  0  0
    2.2564    3.1750   -1.3399 H   0  0  0  0  0  0  0  0  0  0  0  0
    4.0061    3.0620   -1.5604 H   0  0  0  0  0  0  0  0  0  0  0  0
    3.3023    2.8934    0.0550 H   0  0  0  0  0  0  0  0  0  0  0  0
    0.5804   -1.4529    1.0830 H   0  0  0  0  0  0  0  0  0  0  0  0
    5.4990   -1.9601    0.3898 H   0  0  0  0  0  0  0  0  0  0  0  0
   -1.9241    2.4497    2.7359 H   0  0  0  0  0  0  0  0  0  0  0  0
    1.7750   -3.4156    1.9907 H   0  0  0  0  0  0  0  0  0  0  0  0
    4.2142   -3.6779    1.6471 H   0  0  0  0  0  0  0  0  0  0  0  0
    1.3757    1.8636    1.9537 H   0  0  0  0  0  0  0  0  0  0  0  0
    0.3742    3.2090    2.4955 H   0  0  0  0  0  0  0  0  0  0  0  0
    0.9800    3.2004    0.8428 H   0  0  0  0  0  0  0  0  0  0  0  0
   -4.2775    0.0903    2.2705 H   0  0  0  0  0  0  0  0  0  0  0  0
   -4.2916    1.8308    2.5788 H   0  0  0  0  0  0  0  0  0  0  0  0
   -4.8611    1.2186    1.0264 H   0  0  0  0  0  0  0  0  0  0  0  0
   -3.9166   -2.6255   -1.4917 H   0  0  0  0  0  0  0  0  0  0  0  0
   -5.0811   -1.3160   -1.8495 H   0  0  0  0  0  0  0  0  0  0  0  0
   -6.2401   -3.2970   -0.8634 H   0  0  0  0  0  0  0  0  0  0  0  0
   -6.3442   -1.8926    0.2258 H   0  0  0  0  0  0  0  0  0  0  0  0
   -5.1999   -3.1813    0.5766 H   0  0  0  0  0  0  0  0  0  0  0  0
  1  2  2  0  0  0  0
  1  3  2  0  0  0  0
  1  6  1  0  0  0  0
  1 12  1  0  0  0  0
  4 22  1  0  0  0  0
  4 24  1  0  0  0  0
  5 22  2  0  0  0  0
  6  8  1  0  0  0  0
  6 10  1  0  0  0  0
  7 16  1  0  0  0  0
  7 18  1  0  0  0  0
  7 34  1  0  0  0  0
  8  9  1  0  0  0  0
  8 13  1  0  0  0  0
  8 26  1  0  0  0  0
  9 11  1  0  0  0  0
  9 27  1  0  0  0  0
  9 28  1  0  0  0  0
 10 11  1  0  0  0  0
 10 14  2  0  0  0  0
 11 15  2  0  0  0  0
 12 16  2  0  0  0  0
 12 17  1  0  0  0  0
 13 29  1  0  0  0  0
 13 30  1  0  0  0  0
 13 31  1  0  0  0  0
 14 19  1  0  0  0  0
 14 32  1  0  0  0  0
 15 20  1  0  0  0  0
 15 33  1  0  0  0  0
 16 21  1  0  0  0  0
 17 18  2  0  0  0  0
 17 22  1  0  0  0  0
 18 23  1  0  0  0  0
 19 20  2  0  0  0  0
 19 35  1  0  0  0  0
 20 36  1  0  0  0  0
 21 37  1  0  0  0  0
 21 38  1  0  0  0  0
 21 39  1  0  0  0  0
 23 40  1  0  0  0  0
 23 41  1  0  0  0  0
 23 42  1  0  0  0  0
 24 25  1  0  0  0  0
 24 43  1  0  0  0  0
 24 44  1  0  0  0  0
 25 45  1  0  0  0  0
 25 46  1  0  0  0  0
 25 47  1  0  0  0  0
M  END
> <PUBCHEM_COMPOUND_CID>
20923388

> <PUBCHEM_CONFORMER_RMSD>
0.8

> <PUBCHEM_CONFORMER_DIVERSEORDER>
1
68
42
9
97
72
37
33
24
91
41
86
92
64
50
56
76
57
48
25
70
89
69
49
27
100
83
73
16
80
19
23
82
78
20
44
61
55
65
62
84
31
21
90
98
95
45
22
18
58
77
15
71
79
29
51
63
96
13
40
54
101
30
12
60
32
17
75
85
39
59
99
93
74
34
35
43
14
81
66
52
26
67
94
87
38
36
28
47
11
53
5
8
10
46
6
2
7
88
3
4

> <PUBCHEM_MMFF94_PARTIAL_CHARGES>
28
1 1.5
10 0.2
11 -0.14
12 -0.06
14 -0.15
15 -0.15
16 -0.33
17 -0.09
18 -0.33
19 -0.15
2 -0.65
20 -0.15
21 0.18
22 0.81
23 0.18
24 0.28
3 -0.65
32 0.15
33 0.15
34 0.27
35 0.15
36 0.15
4 -0.43
5 -0.57
6 -0.69
7 0.03
8 0.36
9 0.14

> <PUBCHEM_EFFECTIVE_ROTOR_COUNT>
5.6

> <PUBCHEM_PHARMACOPHORE_FEATURES>
8
1 2 acceptor
1 3 acceptor
1 5 acceptor
1 7 cation
1 7 donor
5 6 8 9 10 11 rings
5 7 12 16 17 18 rings
6 10 11 14 15 19 20 rings

> <PUBCHEM_HEAVY_ATOM_COUNT>
25

> <PUBCHEM_ATOM_DEF_STEREO_COUNT>
0

> <PUBCHEM_ATOM_UDEF_STEREO_COUNT>
1

> <PUBCHEM_BOND_DEF_STEREO_COUNT>
0

> <PUBCHEM_BOND_UDEF_STEREO_COUNT>
0

> <PUBCHEM_ISOTOPIC_ATOM_COUNT>
0

> <PUBCHEM_COMPONENT_COUNT>
1

> <PUBCHEM_CACTVS_TAUTO_COUNT>
2

> <PUBCHEM_CONFORMER_ID>
013F43FC00000001

> <PUBCHEM_MMFF94_ENERGY>
59.6573

> <PUBCHEM_FEATURE_SELFOVERLAP>
40.704

> <PUBCHEM_SHAPE_FINGERPRINT>
11578080 2 18195215902858885676
11796584 16 18413108394573265383
12236239 1 18341900692673779412
12596599 1 18195811765114554150
12596602 18 18272368681160704762
12633257 1 17774724138982050489
12788726 201 18131360743173576539
12824470 246 18411134745178005639
13009979 54 18271521975656114842
13140716 1 17704355476730960233
13583140 156 18188229618966140929
13726171 33 17416710087630304513
13911987 19 17388560455703202548
14178342 30 17417263039410737859
14341114 328 18271816678894408848
14787075 74 18198069268718583608
15375462 189 18412271609688196353
15475509 35 18123187068443990651
17138139 8 17979631560975737751
17357779 13 16805612399943000590
17492 89 18271811172662556406
1813 80 18046923575956750254
19319366 153 18122620819411983942
20511986 3 18412537691850407409
20600515 1 17489031439799286897
20645477 70 17603859026982278350
21033648 29 15482676745591938483
23526113 38 16660354870567114796
23598288 3 18129656375074109317
238 59 17530682100459130510
25222932 49 17481981650984560639
3052486 1 17703796915922319767
312423 11 18342744017728215126
33382 64 18115027532418915651
3411729 13 16986301948905885369
392239 28 18057309794420198410
4340502 62 18119522391355075396
46194498 28 15358848740764627575
57527295 17 16444174331805574243
6287921 2 18055361227555891366
7097593 13 17909272381995716130

> <PUBCHEM_SHAPE_MULTIPOLES>
484.9
9.59
3.21
1.87
5.95
0.84
0.06
6.82
-0.48
-0.9
1.01
0.69
-0.65
-3.18

> <PUBCHEM_SHAPE_SELFOVERLAP>
1027.642

> <PUBCHEM_SHAPE_VOLUME>
274.2

> <PUBCHEM_COORDINATE_TYPE>
2
5
10

$$$$
