2434260
  -OEChem-01171812033D

 43 44  0     0  0  0  0  0  0999 V2000
   -1.7149   -1.3507   -0.2623 O   0  0  0  0  0  0  0  0  0  0  0  0
    0.0665    0.6283    0.1334 O   0  0  0  0  0  0  0  0  0  0  0  0
    0.6910    2.7635    0.7256 O   0  0  0  0  0  0  0  0  0  0  0  0
   -3.5053    0.0032    0.3487 N   0  0  0  0  0  0  0  0  0  0  0  0
    4.3423   -1.9019    0.1088 N   0  0  0  0  0  0  0  0  0  0  0  0
   -4.5548   -0.9689    0.1660 C   0  0  0  0  0  0  0  0  0  0  0  0
   -5.1548   -0.8926   -1.2321 C   0  0  0  0  0  0  0  0  0  0  0  0
   -5.7536   -0.6870    1.0639 C   0  0  0  0  0  0  0  0  0  0  0  0
   -6.1580    0.2551   -1.1569 C   0  0  0  0  0  0  0  0  0  0  0  0
   -6.5738    0.3588    0.3107 C   0  0  0  0  0  0  0  0  0  0  0  0
   -2.1655   -0.2733    0.1172 C   0  0  0  0  0  0  0  0  0  0  0  0
   -1.2887    0.9306    0.3887 C   0  0  0  0  0  0  0  0  0  0  0  0
    2.3479    1.1932    0.0371 C   0  0  0  0  0  0  0  0  0  0  0  0
    0.9640    1.6368    0.3415 C   0  0  0  0  0  0  0  0  0  0  0  0
    3.9789   -0.5504   -0.0675 C   0  0  0  0  0  0  0  0  0  0  0  0
    2.6788   -0.1340    0.2195 C   0  0  0  0  0  0  0  0  0  0  0  0
    3.2604    2.1222   -0.4197 C   0  0  0  0  0  0  0  0  0  0  0  0
    4.9197    0.3698   -0.5306 C   0  0  0  0  0  0  0  0  0  0  0  0
    4.5603    1.7060   -0.7067 C   0  0  0  0  0  0  0  0  0  0  0  0
    3.3545   -2.9523   -0.0376 C   0  0  0  0  0  0  0  0  0  0  0  0
    5.7048   -2.2565    0.4524 C   0  0  0  0  0  0  0  0  0  0  0  0
   -4.1418   -1.9646    0.3603 H   0  0  0  0  0  0  0  0  0  0  0  0
   -5.6898   -1.8239   -1.4559 H   0  0  0  0  0  0  0  0  0  0  0  0
   -4.4114   -0.7340   -2.0197 H   0  0  0  0  0  0  0  0  0  0  0  0
   -5.4756   -0.3451    2.0660 H   0  0  0  0  0  0  0  0  0  0  0  0
   -6.3529   -1.5993    1.1746 H   0  0  0  0  0  0  0  0  0  0  0  0
   -5.6872    1.1926   -1.4753 H   0  0  0  0  0  0  0  0  0  0  0  0
   -7.0163    0.0806   -1.8135 H   0  0  0  0  0  0  0  0  0  0  0  0
   -7.6471    0.1861    0.4407 H   0  0  0  0  0  0  0  0  0  0  0  0
   -6.3567    1.3641    0.6896 H   0  0  0  0  0  0  0  0  0  0  0  0
   -3.7695    0.9479    0.6143 H   0  0  0  0  0  0  0  0  0  0  0  0
   -1.4142    1.2190    1.4389 H   0  0  0  0  0  0  0  0  0  0  0  0
   -1.6155    1.7504   -0.2618 H   0  0  0  0  0  0  0  0  0  0  0  0
    1.9484   -0.8381    0.6062 H   0  0  0  0  0  0  0  0  0  0  0  0
    2.9915    3.1643   -0.5648 H   0  0  0  0  0  0  0  0  0  0  0  0
    5.9366    0.0764   -0.7752 H   0  0  0  0  0  0  0  0  0  0  0  0
    5.2916    2.4219   -1.0708 H   0  0  0  0  0  0  0  0  0  0  0  0
    2.7464   -3.0427    0.8686 H   0  0  0  0  0  0  0  0  0  0  0  0
    2.6971   -2.7695   -0.8952 H   0  0  0  0  0  0  0  0  0  0  0  0
    3.8333   -3.9226   -0.2107 H   0  0  0  0  0  0  0  0  0  0  0  0
    6.1166   -1.5803    1.2102 H   0  0  0  0  0  0  0  0  0  0  0  0
    5.7565   -3.2677    0.8718 H   0  0  0  0  0  0  0  0  0  0  0  0
    6.3469   -2.2355   -0.4344 H   0  0  0  0  0  0  0  0  0  0  0  0
  1 11  2  0  0  0  0
  2 12  1  0  0  0  0
  2 14  1  0  0  0  0
  3 14  2  0  0  0  0
  4  6  1  0  0  0  0
  4 11  1  0  0  0  0
  4 31  1  0  0  0  0
  5 15  1  0  0  0  0
  5 20  1  0  0  0  0
  5 21  1  0  0  0  0
  6  7  1  0  0  0  0
  6  8  1  0  0  0  0
  6 22  1  0  0  0  0
  7  9  1  0  0  0  0
  7 23  1  0  0  0  0
  7 24  1  0  0  0  0
  8 10  1  0  0  0  0
  8 25  1  0  0  0  0
  8 26  1  0  0  0  0
  9 10  1  0  0  0  0
  9 27  1  0  0  0  0
  9 28  1  0  0  0  0
 10 29  1  0  0  0  0
 10 30  1  0  0  0  0
 11 12  1  0  0  0  0
 12 32  1  0  0  0  0
 12 33  1  0  0  0  0
 13 14  1  0  0  0  0
 13 16  2  0  0  0  0
 13 17  1  0  0  0  0
 15 16  1  0  0  0  0
 15 18  2  0  0  0  0
 16 34  1  0  0  0  0
 17 19  2  0  0  0  0
 17 35  1  0  0  0  0
 18 19  1  0  0  0  0
 18 36  1  0  0  0  0
 19 37  1  0  0  0  0
 20 38  1  0  0  0  0
 20 39  1  0  0  0  0
 20 40  1  0  0  0  0
 21 41  1  0  0  0  0
 21 42  1  0  0  0  0
 21 43  1  0  0  0  0
M  END
> <PUBCHEM_COMPOUND_CID>
2434260

> <PUBCHEM_CONFORMER_RMSD>
0.8

> <PUBCHEM_CONFORMER_DIVERSEORDER>
1
205
194
193
97
253
134
281
7
72
153
56
238
275
186
130
242
77
315
71
215
70
254
243
260
144
309
136
214
28
280
184
225
239
265
117
210
159
190
301
74
3
212
47
62
83
235
139
196
279
76
40
148
246
87
38
201
167
163
291
252
175
273
102
114
6
310
230
145
218
94
33
224
75
57
234
206
249
54
52
302
195
179
104
271
304
233
111
128
169
69
276
126
12
89
200
100
261
131
185
152
161
209
149
146
177
236
197
204
244
101
257
42
247
208
113
207
142
68
14
314
141
135
183
107
213
256
166
157
21
151
82
176
227
41
293
164
2
55
174
284
10
305
245
285
36
109
216
73
150
199
282
19
228
299
137
35
222
25
296
11
46
98
220
124
313
231
155
308
172
37
274
67
160
59
307
119
240
300
294
278
297
60
32
311
4
122
287
202
49
162
158
17
29
192
156
288
250
316
173
266
65
85
86
263
181
295
27
303
165
125
312
229
8
272
79
116
66
269
96
16
93
45
13
147
138
123
80
106
292
277
5
198
129
140
237
286
217
267
18
9
88
81
44
298
127
221
232
258
91
63
120
170
20
259
262
251
92
90
182
53
84
95
105
154
15
191
103
306
171
289
48
168
118
219
283
99
61
121
58
108
143
51
241
226
110
43
30
34
50
180
203
115
211
132
31
189
22
26
187
178
133
268
264
290
64
248
188
78
270
112
255
223
39
24
23

> <PUBCHEM_MMFF94_PARTIAL_CHARGES>
22
1 -0.57
11 0.57
12 0.34
13 0.09
14 0.63
15 0.1
16 -0.15
17 -0.15
18 -0.15
19 -0.15
2 -0.43
20 0.37
21 0.37
3 -0.57
31 0.37
34 0.15
35 0.15
36 0.15
37 0.15
4 -0.73
5 -0.84
6 0.3

> <PUBCHEM_EFFECTIVE_ROTOR_COUNT>
8

> <PUBCHEM_PHARMACOPHORE_FEATURES>
6
1 1 acceptor
1 3 acceptor
1 4 donor
1 5 cation
5 6 7 8 9 10 rings
6 13 15 16 17 18 19 rings

> <PUBCHEM_HEAVY_ATOM_COUNT>
21

> <PUBCHEM_ATOM_DEF_STEREO_COUNT>
0

> <PUBCHEM_ATOM_UDEF_STEREO_COUNT>
0

> <PUBCHEM_BOND_DEF_STEREO_COUNT>
0

> <PUBCHEM_BOND_UDEF_STEREO_COUNT>
0

> <PUBCHEM_ISOTOPIC_ATOM_COUNT>
0

> <PUBCHEM_COMPONENT_COUNT>
1

> <PUBCHEM_CACTVS_TAUTO_COUNT>
2

> <PUBCHEM_CONFORMER_ID>
002524D400000001

> <PUBCHEM_MMFF94_ENERGY>
60.6058

> <PUBCHEM_FEATURE_SELFOVERLAP>
30.446

> <PUBCHEM_SHAPE_FINGERPRINT>
10447042 23 18412543215251845908
11719270 70 18336542803172185008
11796584 16 17703515492538087999
12107183 9 17909277888128043753
12596602 18 16774076297476741474
12617007 42 16660370294216570996
12760667 363 18341611478039199179
12788726 201 17775299247924732649
12838862 33 18340753928216648140
13073987 5 18413111666985040201
13533116 47 18342739619723837136
13955234 65 18340485694276432768
14573314 32 18040712572036174373
15183329 4 18412825785587732645
15250474 111 18130496531102726775
15324115 91 15647047123694357434
15537594 2 18272370905748178998
17349148 13 17274830185640151889
17492 89 18196092132385380198
17844677 252 18187369822495353301
17857418 61 18202281398921888027
18222031 100 17561368395789930112
19427546 62 18118688966274246164
19489759 90 15051744092671407683
20028762 73 18272650100509569502
20369508 70 17917147298943286232
20567600 75 18113616790217224991
20645477 70 18333168371299420090
20832881 197 18411417306633801601
21033650 10 15864630548819051477
21267235 1 18339931424689052558
21279426 13 18262797359574313197
21285901 2 17894345566697745452
21315759 148 17386295397546363889
21315763 178 18202278134546322142
21315764 119 15502655936572404474
21478907 32 18339080371986319904
220451 1 18200601396926304045
22061861 79 18186517705099205703
221357 26 18334009475792843724
2215653 11 18335415777509364983
2303208 19 17458355151926552387
23081809 10 18131071554472304473
23272321 79 8646767798927590289
23402539 116 17418098745758141161
23522609 53 18055664856480421297
23559900 14 18337950211656347761
23622692 118 18339926992361690528
239999 70 17894350007999734840
2871803 45 18187082841190870184
29717793 49 18059864973433170124
3004659 81 18259703376777044034
3014965 18 18408037395078994911
314194 84 18342178894626843595
345986 75 18130784499705310178
34797466 226 16588034545100725999
351380 3 17917994992174225255
4073 2 18041848448751171067
46194498 28 17530966912567629732
465052 167 18343026596606609414
5283384 97 18341604897833369047
531348 171 18341324523422652039
6025842 7 18335706078849655876
7164475 11 18337676308955276200
960060 61 18408324414589543948

> <PUBCHEM_SHAPE_MULTIPOLES>
404.6
17.02
2.57
0.91
18.41
0.5
-0.12
5.46
-1.69
-4.83
0.16
0.94
-0.03
-0.61

> <PUBCHEM_SHAPE_SELFOVERLAP>
837.947

> <PUBCHEM_SHAPE_VOLUME>
232.3

> <PUBCHEM_COORDINATE_TYPE>
2
5
10

$$$$
