17749659
  -OEChem-01171812053D

 51 54  0     0  0  0  0  0  0999 V2000
   -4.0772    0.1407   -0.4089 S   0  0  0  0  0  0  0  0  0  0  0  0
    1.8463    0.7726    0.4163 S   0  0  0  0  0  0  0  0  0  0  0  0
   -3.3431   -2.7597    0.3614 O   0  0  0  0  0  0  0  0  0  0  0  0
   -3.5007   -0.0431   -1.7274 O   0  0  0  0  0  0  0  0  0  0  0  0
   -5.2506   -0.6147   -0.0126 O   0  0  0  0  0  0  0  0  0  0  0  0
    1.5031    1.1007    1.7883 O   0  0  0  0  0  0  0  0  0  0  0  0
    1.2167    1.4781   -0.6859 O   0  0  0  0  0  0  0  0  0  0  0  0
    7.6692    1.7628   -0.0146 O   0  0  0  0  0  0  0  0  0  0  0  0
   -2.8727   -0.0184    0.7679 N   0  0  0  0  0  0  0  0  0  0  0  0
    1.7275   -0.8318    0.1623 N   0  0  0  0  0  0  0  0  0  0  0  0
    0.2538   -2.8034   -0.0141 C   0  0  0  0  0  0  0  0  0  0  0  0
   -1.0612   -3.2808    0.0415 C   0  0  0  0  0  0  0  0  0  0  0  0
   -1.8429   -0.9437    0.5081 C   0  0  0  0  0  0  0  0  0  0  0  0
    0.5450   -1.3646    0.1947 C   0  0  0  0  0  0  0  0  0  0  0  0
   -2.1865   -2.3617    0.3092 C   0  0  0  0  0  0  0  0  0  0  0  0
   -0.6021   -0.4614    0.4616 C   0  0  0  0  0  0  0  0  0  0  0  0
    1.3021   -3.6974   -0.2699 C   0  0  0  0  0  0  0  0  0  0  0  0
   -1.3240   -4.6418   -0.1574 C   0  0  0  0  0  0  0  0  0  0  0  0
   -4.4726    1.8564   -0.2412 C   0  0  0  0  0  0  0  0  0  0  0  0
    1.0352   -5.0531   -0.4677 C   0  0  0  0  0  0  0  0  0  0  0  0
   -0.2746   -5.5242   -0.4115 C   0  0  0  0  0  0  0  0  0  0  0  0
    3.5881    1.0679    0.2875 C   0  0  0  0  0  0  0  0  0  0  0  0
   -3.7880    2.8070   -0.9984 C   0  0  0  0  0  0  0  0  0  0  0  0
   -5.4680    2.2591    0.6492 C   0  0  0  0  0  0  0  0  0  0  0  0
    4.1526    1.3806   -0.9492 C   0  0  0  0  0  0  0  0  0  0  0  0
    4.3949    0.9889    1.4226 C   0  0  0  0  0  0  0  0  0  0  0  0
    5.5239    1.6145   -1.0506 C   0  0  0  0  0  0  0  0  0  0  0  0
    5.7663    1.2227    1.3210 C   0  0  0  0  0  0  0  0  0  0  0  0
   -4.0987    4.1604   -0.8651 C   0  0  0  0  0  0  0  0  0  0  0  0
   -5.7787    3.6124    0.7823 C   0  0  0  0  0  0  0  0  0  0  0  0
    6.3307    1.5356    0.0845 C   0  0  0  0  0  0  0  0  0  0  0  0
   -5.0940    4.5630    0.0252 C   0  0  0  0  0  0  0  0  0  0  0  0
    8.1803    2.0765   -1.3092 C   0  0  0  0  0  0  0  0  0  0  0  0
   -0.5254    0.6007    0.6322 H   0  0  0  0  0  0  0  0  0  0  0  0
   -2.5568    0.8599    1.2017 H   0  0  0  0  0  0  0  0  0  0  0  0
    2.3328   -3.3562   -0.3190 H   0  0  0  0  0  0  0  0  0  0  0  0
   -2.3371   -5.0328   -0.1185 H   0  0  0  0  0  0  0  0  0  0  0  0
    1.8511   -5.7423   -0.6658 H   0  0  0  0  0  0  0  0  0  0  0  0
   -0.4786   -6.5798   -0.5657 H   0  0  0  0  0  0  0  0  0  0  0  0
   -3.0040    2.5159   -1.6917 H   0  0  0  0  0  0  0  0  0  0  0  0
   -6.0084    1.5362    1.2537 H   0  0  0  0  0  0  0  0  0  0  0  0
    3.5429    1.4400   -1.8464 H   0  0  0  0  0  0  0  0  0  0  0  0
    3.9790    0.7386    2.3943 H   0  0  0  0  0  0  0  0  0  0  0  0
    5.8969    1.8510   -2.0413 H   0  0  0  0  0  0  0  0  0  0  0  0
    6.3903    1.1578    2.2082 H   0  0  0  0  0  0  0  0  0  0  0  0
   -3.5642    4.9008   -1.4530 H   0  0  0  0  0  0  0  0  0  0  0  0
   -6.5525    3.9264    1.4769 H   0  0  0  0  0  0  0  0  0  0  0  0
   -5.3352    5.6168    0.1297 H   0  0  0  0  0  0  0  0  0  0  0  0
    8.0402    1.2459   -2.0093 H   0  0  0  0  0  0  0  0  0  0  0  0
    7.7634    3.0151   -1.6899 H   0  0  0  0  0  0  0  0  0  0  0  0
    9.2598    2.2262   -1.2030 H   0  0  0  0  0  0  0  0  0  0  0  0
  1  4  2  0  0  0  0
  1  5  2  0  0  0  0
  1  9  1  0  0  0  0
  1 19  1  0  0  0  0
  2  6  2  0  0  0  0
  2  7  2  0  0  0  0
  2 10  1  0  0  0  0
  2 22  1  0  0  0  0
  3 15  2  0  0  0  0
  8 31  1  0  0  0  0
  8 33  1  0  0  0  0
  9 13  1  0  0  0  0
  9 35  1  0  0  0  0
 10 14  2  0  0  0  0
 11 12  1  0  0  0  0
 11 14  1  0  0  0  0
 11 17  2  0  0  0  0
 12 15  1  0  0  0  0
 12 18  2  0  0  0  0
 13 15  1  0  0  0  0
 13 16  2  0  0  0  0
 14 16  1  0  0  0  0
 16 34  1  0  0  0  0
 17 20  1  0  0  0  0
 17 36  1  0  0  0  0
 18 21  1  0  0  0  0
 18 37  1  0  0  0  0
 19 23  2  0  0  0  0
 19 24  1  0  0  0  0
 20 21  2  0  0  0  0
 20 38  1  0  0  0  0
 21 39  1  0  0  0  0
 22 25  2  0  0  0  0
 22 26  1  0  0  0  0
 23 29  1  0  0  0  0
 23 40  1  0  0  0  0
 24 30  2  0  0  0  0
 24 41  1  0  0  0  0
 25 27  1  0  0  0  0
 25 42  1  0  0  0  0
 26 28  2  0  0  0  0
 26 43  1  0  0  0  0
 27 31  2  0  0  0  0
 27 44  1  0  0  0  0
 28 31  1  0  0  0  0
 28 45  1  0  0  0  0
 29 32  2  0  0  0  0
 29 46  1  0  0  0  0
 30 32  1  0  0  0  0
 30 47  1  0  0  0  0
 32 48  1  0  0  0  0
 33 49  1  0  0  0  0
 33 50  1  0  0  0  0
 33 51  1  0  0  0  0
M  END
> <PUBCHEM_COMPOUND_CID>
17749659

> <PUBCHEM_CONFORMER_RMSD>
0.8

> <PUBCHEM_CONFORMER_DIVERSEORDER>
2
17
9
10
15
18
16
8
11
13
6
5
7
12
14
3
4
1

> <PUBCHEM_MMFF94_PARTIAL_CHARGES>
48
1 1.45
10 -0.64
11 0.09
12 0.09
13 0.21
14 0.35
15 0.47
16 -0.14
17 -0.15
18 -0.15
19 -0.01
2 1.5
20 -0.15
21 -0.15
22 -0.01
23 -0.15
24 -0.15
25 -0.15
26 -0.15
27 -0.15
28 -0.15
29 -0.15
3 -0.57
30 -0.15
31 0.08
32 -0.15
33 0.28
34 0.15
35 0.42
36 0.15
37 0.15
38 0.15
39 0.15
4 -0.65
40 0.15
41 0.15
42 0.15
43 0.15
44 0.15
45 0.15
46 0.15
47 0.15
48 0.15
5 -0.65
6 -0.65
7 -0.65
8 -0.36
9 -0.75

> <PUBCHEM_EFFECTIVE_ROTOR_COUNT>
6

> <PUBCHEM_PHARMACOPHORE_FEATURES>
13
1 10 acceptor
1 10 donor
1 3 acceptor
1 4 acceptor
1 5 acceptor
1 6 acceptor
1 7 acceptor
1 8 acceptor
1 9 donor
6 11 12 13 14 15 16 rings
6 11 12 17 18 20 21 rings
6 19 23 24 29 30 32 rings
6 22 25 26 27 28 31 rings

> <PUBCHEM_HEAVY_ATOM_COUNT>
33

> <PUBCHEM_ATOM_DEF_STEREO_COUNT>
0

> <PUBCHEM_ATOM_UDEF_STEREO_COUNT>
0

> <PUBCHEM_BOND_DEF_STEREO_COUNT>
1

> <PUBCHEM_BOND_UDEF_STEREO_COUNT>
0

> <PUBCHEM_ISOTOPIC_ATOM_COUNT>
0

> <PUBCHEM_COMPONENT_COUNT>
1

> <PUBCHEM_CACTVS_TAUTO_COUNT>
2

> <PUBCHEM_CONFORMER_ID>
010ED69B00000002

> <PUBCHEM_MMFF94_ENERGY>
98.211

> <PUBCHEM_FEATURE_SELFOVERLAP>
66.07

> <PUBCHEM_SHAPE_FINGERPRINT>
10165383 225 18342749546036992715
10190206 1 18270951445338396991
10369192 42 18409452483676729037
105312 117 18411136969797063382
10675989 125 18051980220889114256
10940486 97 18190744335302960892
11049842 53 18116457893392145926
11059845 2 18194932268024484818
11136131 41 18189048699188582595
12107183 9 18189600688881115930
12144603 126 18113894997605129272
12293681 160 17846499205581329097
12422481 6 17750504079750193308
12758862 11 18128256890731430880
13757389 114 18337678640984679844
14294032 229 18341617053371129195
14347329 18 18410567396909672184
14713325 29 18262240027469887203
14790565 3 18410854347747462896
15163728 17 18408886200669988495
15198563 99 18053655056704238839
15230672 131 18409730656688875446
15297060 5 18342178847293149984
15326921 28 18339626906780399824
15419008 91 17916864768639393816
15420108 30 18337100203110559618
15439362 3 18194685869180360166
15513586 35 17025732643412261388
15927050 60 18341891853568235471
16988056 13 17400068678369076829
16990350 14 18194401095837922072
16990366 60 10015282621303713964
19053607 189 18265883675460223113
19304152 47 18336272267251064473
19304671 126 17630896997099225165
19309040 13 18127404558677167565
20238998 120 17330553142578091234
20771845 165 18336553720266973124
21133410 127 17970629575869849645
21987440 362 18262521373338817708
23522609 53 17677342735859344516
23559900 14 17910384001315979003
23569914 152 17055009000744681364
24771750 20 18269839709880670999
4015057 19 16271364252998952904
4058900 60 18339644442899500650
4107672 100 18265342875432920396
4516262 110 18339074866624561573
5219985 13 18410855430079416509
5265222 85 18339645650223485184
5372103 7 17097464576698835373
5385378 56 18268155262287805129
563151 97 18411692176098562399
581034 39 18335138682956406021
6371009 1 18336252544444652453
6700243 42 17549023216935791158
6703917 75 18411427236271486484
7288768 16 18113902620390987649
7808743 9 18407758131979196073
9896288 288 18262241143813874426
9981440 41 18409730651681330099

> <PUBCHEM_SHAPE_MULTIPOLES>
641.65
16.28
7.41
1.15
20.44
8.78
-0.03
-26.92
1.65
-6.27
1.34
0.74
-0.66
-0.22

> <PUBCHEM_SHAPE_SELFOVERLAP>
1384.754

> <PUBCHEM_SHAPE_VOLUME>
351.7

> <PUBCHEM_COORDINATE_TYPE>
2
5
10

$$$$
