15995263
  -OEChem-01171812083D

 38 39  0     1  0  0  0  0  0999 V2000
    5.4625   -3.8170   -0.1650 Br  0  0  0  0  0  0  0  0  0  0  0  0
    3.1750    1.6782   -0.4267 S   0  0  0  0  0  0  0  0  0  0  0  0
    3.8241   -1.1528   -0.7538 S   0  0  0  0  0  0  0  0  0  0  0  0
    3.7582    2.8281    0.2384 O   0  0  0  0  0  0  0  0  0  0  0  0
    3.1171    1.6282   -1.8755 O   0  0  0  0  0  0  0  0  0  0  0  0
   -1.0715    1.8946   -0.1400 O   0  0  0  0  0  0  0  0  0  0  0  0
   -6.9934   -0.7399    0.2249 O   0  0  0  0  0  0  0  0  0  0  0  0
    1.6104    1.3621    0.2271 N   0  0  1  0  0  0  0  0  0  0  0  0
   -1.4854   -0.4089   -0.3315 N   0  0  0  0  0  0  0  0  0  0  0  0
    0.7592    0.3798   -0.4907 C   0  0  0  0  0  0  0  0  0  0  0  0
    4.2169    0.2897    0.0457 C   0  0  0  0  0  0  0  0  0  0  0  0
    1.5063    1.2160    1.7012 C   0  0  0  0  0  0  0  0  0  0  0  0
   -0.6959    0.7377   -0.2989 C   0  0  0  0  0  0  0  0  0  0  0  0
    5.2455    0.1889    0.9134 C   0  0  0  0  0  0  0  0  0  0  0  0
   -2.8911   -0.4932   -0.1901 C   0  0  0  0  0  0  0  0  0  0  0  0
    5.7560   -1.1410    0.9396 C   0  0  0  0  0  0  0  0  0  0  0  0
    5.0741   -1.9740    0.0800 C   0  0  0  0  0  0  0  0  0  0  0  0
   -3.5044   -1.7333   -0.2505 C   0  0  0  0  0  0  0  0  0  0  0  0
   -3.6230    0.6660    0.0059 C   0  0  0  0  0  0  0  0  0  0  0  0
   -4.8899   -1.8166   -0.1109 C   0  0  0  0  0  0  0  0  0  0  0  0
   -5.0083    0.5828    0.1456 C   0  0  0  0  0  0  0  0  0  0  0  0
   -5.6418   -0.6585    0.0871 C   0  0  0  0  0  0  0  0  0  0  0  0
   -7.7006    0.4831    0.4246 C   0  0  0  0  0  0  0  0  0  0  0  0
    0.9454    0.4036   -1.5685 H   0  0  0  0  0  0  0  0  0  0  0  0
    0.9610   -0.6290   -0.1173 H   0  0  0  0  0  0  0  0  0  0  0  0
    2.1359    1.9572    2.2021 H   0  0  0  0  0  0  0  0  0  0  0  0
    1.8154    0.2149    2.0153 H   0  0  0  0  0  0  0  0  0  0  0  0
    0.4809    1.3937    2.0368 H   0  0  0  0  0  0  0  0  0  0  0  0
    5.6319    1.0044    1.5101 H   0  0  0  0  0  0  0  0  0  0  0  0
   -1.0179   -1.3007   -0.4799 H   0  0  0  0  0  0  0  0  0  0  0  0
    6.5829   -1.4606    1.5617 H   0  0  0  0  0  0  0  0  0  0  0  0
   -2.9283   -2.6415   -0.4041 H   0  0  0  0  0  0  0  0  0  0  0  0
   -3.2066    1.6607    0.0626 H   0  0  0  0  0  0  0  0  0  0  0  0
   -5.3778   -2.7864   -0.1570 H   0  0  0  0  0  0  0  0  0  0  0  0
   -5.5323    1.5205    0.2971 H   0  0  0  0  0  0  0  0  0  0  0  0
   -7.6013    1.1509   -0.4379 H   0  0  0  0  0  0  0  0  0  0  0  0
   -8.7626    0.2316    0.5132 H   0  0  0  0  0  0  0  0  0  0  0  0
   -7.4080    0.9688    1.3617 H   0  0  0  0  0  0  0  0  0  0  0  0
  1 17  1  0  0  0  0
  2  4  2  0  0  0  0
  2  5  2  0  0  0  0
  2  8  1  0  0  0  0
  2 11  1  0  0  0  0
  3 11  1  0  0  0  0
  3 17  1  0  0  0  0
  6 13  2  0  0  0  0
  7 22  1  0  0  0  0
  7 23  1  0  0  0  0
  8 10  1  0  0  0  0
  8 12  1  0  0  0  0
  9 13  1  0  0  0  0
  9 15  1  0  0  0  0
  9 30  1  0  0  0  0
 10 13  1  0  0  0  0
 10 24  1  0  0  0  0
 10 25  1  0  0  0  0
 11 14  2  0  0  0  0
 12 26  1  0  0  0  0
 12 27  1  0  0  0  0
 12 28  1  0  0  0  0
 14 16  1  0  0  0  0
 14 29  1  0  0  0  0
 15 18  2  0  0  0  0
 15 19  1  0  0  0  0
 16 17  2  0  0  0  0
 16 31  1  0  0  0  0
 18 20  1  0  0  0  0
 18 32  1  0  0  0  0
 19 21  2  0  0  0  0
 19 33  1  0  0  0  0
 20 22  2  0  0  0  0
 20 34  1  0  0  0  0
 21 22  1  0  0  0  0
 21 35  1  0  0  0  0
 23 36  1  0  0  0  0
 23 37  1  0  0  0  0
 23 38  1  0  0  0  0
M  END
> <PUBCHEM_COMPOUND_CID>
15995263

> <PUBCHEM_CONFORMER_RMSD>
0.8

> <PUBCHEM_CONFORMER_DIVERSEORDER>
1
58
49
78
20
65
88
64
36
96
77
70
56
91
75
31
100
59
14
8
84
62
80
41
35
93
90
101
46
103
16
61
50
13
53
26
15
48
81
51
92
38
69
42
60
83
73
89
37
66
85
98
63
76
2
67
104
79
99
12
10
95
71
11
28
40
97
54
102
105
22
68
39
74
82
86
87
44
47
94
23
4
72
6
34
27
21
57
45
17
43
33
5
52
24
3
30
55
18
29
7
25
9
32
19

> <PUBCHEM_MMFF94_PARTIAL_CHARGES>
30
1 -0.06
10 0.42
11 -0.02
12 0.36
13 0.57
14 -0.15
15 0.12
16 -0.15
17 0.1
18 -0.15
19 -0.15
2 1.5
20 -0.15
21 -0.15
22 0.08
23 0.28
29 0.15
3 -0.08
30 0.37
31 0.15
32 0.15
33 0.15
34 0.15
35 0.15
4 -0.65
5 -0.65
6 -0.57
7 -0.36
8 -0.85
9 -0.55

> <PUBCHEM_EFFECTIVE_ROTOR_COUNT>
7

> <PUBCHEM_PHARMACOPHORE_FEATURES>
8
1 1 hydrophobe
1 4 acceptor
1 5 acceptor
1 6 acceptor
1 7 acceptor
1 9 donor
5 3 11 14 16 17 rings
6 15 18 19 20 21 22 rings

> <PUBCHEM_HEAVY_ATOM_COUNT>
23

> <PUBCHEM_ATOM_DEF_STEREO_COUNT>
0

> <PUBCHEM_ATOM_UDEF_STEREO_COUNT>
0

> <PUBCHEM_BOND_DEF_STEREO_COUNT>
0

> <PUBCHEM_BOND_UDEF_STEREO_COUNT>
0

> <PUBCHEM_ISOTOPIC_ATOM_COUNT>
0

> <PUBCHEM_COMPONENT_COUNT>
1

> <PUBCHEM_CACTVS_TAUTO_COUNT>
2

> <PUBCHEM_CONFORMER_ID>
00F4117F00000001

> <PUBCHEM_MMFF94_ENERGY>
58.0669

> <PUBCHEM_FEATURE_SELFOVERLAP>
40.615

> <PUBCHEM_SHAPE_FINGERPRINT>
10554248 39 18261947540212562117
10638233 991 10953457410388181943
10670039 82 13262667102794469670
10917259 128 16342021954492649443
11719270 70 17847064372165259695
11796584 16 18130795615065094438
12107183 9 18054236435808088233
12236239 1 18114181986565337157
12616971 3 18272928358117120199
13073987 5 18272652337506574472
13533116 47 18410575093648717448
13551218 46 18411980252176548567
13685833 64 18334576836925428915
13785724 45 18128264393954900718
13955234 65 18270676606002093616
14211702 104 18188779482254535571
14251740 57 18272090436437906742
14251751 18 18410853231393550164
14251764 18 18272369801920490877
14344974 204 17315658441763768659
14347424 109 18272087201520112632
15183329 4 18060148643486088121
15250474 111 18129088107972846766
15419008 42 17983855580244454797
17844677 252 18260831501234768757
17857418 61 18343018912968086983
1813 80 17675924304722006516
1979834 28 17346600729934605198
20281389 69 18409450315356508705
20397935 70 18060142012041018934
20554085 129 14979953641083388695
20567600 234 12967122817811740138
20645477 70 18260545641449298352
21033648 29 14117521991341959763
21130935 74 18340770433697190035
221357 26 11963388535899054054
23081809 10 18342459296441946613
23559900 14 18341323483682019537
29717793 49 17894911845198118725
3004659 81 18409454695663565980
3014965 18 18410853257268946543
338550 245 18409448124279739854
3411729 13 16700600411402639104
3421961 26 18412259537305149768
3472631 163 8862651422252126690
34797466 226 16298391300501693701
3680242 22 18342464716068805262
4072396 5 17275387598869091044
4073 2 18115874177245513058
445580 126 8502363400897861270
46194498 28 17531248370538226108
465052 167 18413390921669062294
5104073 3 18271813466353817193
6299153 45 18270689649838461409
8509985 295 17917992793435922892
9965369 4 18341897373038352561

> <PUBCHEM_SHAPE_MULTIPOLES>
453.53
19.01
2.9
1.01
21.42
1.45
0.01
9.52
2.78
-5.32
-0.21
-1.05
-0.34
-0.24

> <PUBCHEM_SHAPE_SELFOVERLAP>
908.209

> <PUBCHEM_SHAPE_VOLUME>
271.2

> <PUBCHEM_COORDINATE_TYPE>
2
5
10

$$$$
