272267
  -OEChem-01171812173D

 46 49  0     0  0  0  0  0  0999 V2000
   -3.0157   -0.9700   -1.2279 O   0  0  0  0  0  0  0  0  0  0  0  0
   -3.7711   -1.6082    0.8949 O   0  0  0  0  0  0  0  0  0  0  0  0
   -2.2473    1.3864   -1.2954 O   0  0  0  0  0  0  0  0  0  0  0  0
   -1.2544    3.3727   -0.3593 O   0  0  0  0  0  0  0  0  0  0  0  0
    1.0958   -2.2467    1.1200 O   0  0  0  0  0  0  0  0  0  0  0  0
    2.1742    2.4692   -0.7045 O   0  5  0  0  0  0  0  0  0  0  0  0
    1.0579    0.6813   -1.3179 O   0  0  0  0  0  0  0  0  0  0  0  0
   -0.4420   -2.0473   -0.6094 N   0  0  0  0  0  0  0  0  0  0  0  0
    2.0748    1.2254   -0.8264 N   0  3  0  0  0  0  0  0  0  0  0  0
   -2.6130   -1.2052    0.1362 C   0  0  0  0  0  0  0  0  0  0  0  0
   -1.9858    0.0478    0.7294 C   0  0  0  0  0  0  0  0  0  0  0  0
   -1.6130   -2.3609    0.1556 C   0  0  0  0  0  0  0  0  0  0  0  0
   -4.3496   -1.4670   -1.3197 C   0  0  0  0  0  0  0  0  0  0  0  0
   -4.8869   -1.2794    0.0697 C   0  0  0  0  0  0  0  0  0  0  0  0
   -1.8550    1.2090   -0.0043 C   0  0  0  0  0  0  0  0  0  0  0  0
   -1.5196    0.0571    2.0462 C   0  0  0  0  0  0  0  0  0  0  0  0
   -1.2878    2.3433    0.5301 C   0  0  0  0  0  0  0  0  0  0  0  0
   -0.9401    1.2159    2.5923 C   0  0  0  0  0  0  0  0  0  0  0  0
   -0.8199    2.3788    1.8277 C   0  0  0  0  0  0  0  0  0  0  0  0
    0.8374   -2.0148   -0.0583 C   0  0  0  0  0  0  0  0  0  0  0  0
   -1.8647    2.7597   -1.5133 C   0  0  0  0  0  0  0  0  0  0  0  0
    1.8892   -1.6611   -1.0921 C   0  0  0  0  0  0  0  0  0  0  0  0
    3.0969   -0.9794   -0.5054 C   0  0  0  0  0  0  0  0  0  0  0  0
    3.1521    0.4042   -0.3930 C   0  0  0  0  0  0  0  0  0  0  0  0
    4.1573   -1.7704   -0.0798 C   0  0  0  0  0  0  0  0  0  0  0  0
    4.2852    1.0066    0.1539 C   0  0  0  0  0  0  0  0  0  0  0  0
    5.2904   -1.1677    0.4669 C   0  0  0  0  0  0  0  0  0  0  0  0
    5.3544    0.2206    0.5838 C   0  0  0  0  0  0  0  0  0  0  0  0
   -2.0594   -3.2445   -0.3164 H   0  0  0  0  0  0  0  0  0  0  0  0
   -1.3482   -2.6598    1.1758 H   0  0  0  0  0  0  0  0  0  0  0  0
   -4.9136   -0.9232   -2.0813 H   0  0  0  0  0  0  0  0  0  0  0  0
   -4.2992   -2.5263   -1.5933 H   0  0  0  0  0  0  0  0  0  0  0  0
   -5.7402   -1.9231    0.2966 H   0  0  0  0  0  0  0  0  0  0  0  0
   -5.1584   -0.2356    0.2612 H   0  0  0  0  0  0  0  0  0  0  0  0
   -1.6043   -0.8268    2.6733 H   0  0  0  0  0  0  0  0  0  0  0  0
   -0.5587   -1.8804   -1.6045 H   0  0  0  0  0  0  0  0  0  0  0  0
   -0.5840    1.2055    3.6188 H   0  0  0  0  0  0  0  0  0  0  0  0
   -0.3728    3.2740    2.2445 H   0  0  0  0  0  0  0  0  0  0  0  0
   -2.7579    3.3338   -1.7848 H   0  0  0  0  0  0  0  0  0  0  0  0
   -1.1546    2.7977   -2.3474 H   0  0  0  0  0  0  0  0  0  0  0  0
    2.2279   -2.6488   -1.4484 H   0  0  0  0  0  0  0  0  0  0  0  0
    1.5136   -1.2444   -2.0295 H   0  0  0  0  0  0  0  0  0  0  0  0
    4.1226   -2.8533   -0.1605 H   0  0  0  0  0  0  0  0  0  0  0  0
    4.3736    2.0846    0.2621 H   0  0  0  0  0  0  0  0  0  0  0  0
    6.1226   -1.7796    0.8025 H   0  0  0  0  0  0  0  0  0  0  0  0
    6.2367    0.6892    1.0099 H   0  0  0  0  0  0  0  0  0  0  0  0
  1 10  1  0  0  0  0
  1 13  1  0  0  0  0
  2 10  1  0  0  0  0
  2 14  1  0  0  0  0
  3 15  1  0  0  0  0
  3 21  1  0  0  0  0
  4 17  1  0  0  0  0
  4 21  1  0  0  0  0
  5 20  2  0  0  0  0
  6  9  1  0  0  0  0
  7  9  2  0  0  0  0
  8 12  1  0  0  0  0
  8 20  1  0  0  0  0
  8 36  1  0  0  0  0
  9 24  1  0  0  0  0
 10 11  1  0  0  0  0
 10 12  1  0  0  0  0
 11 15  2  0  0  0  0
 11 16  1  0  0  0  0
 12 29  1  0  0  0  0
 12 30  1  0  0  0  0
 13 14  1  0  0  0  0
 13 31  1  0  0  0  0
 13 32  1  0  0  0  0
 14 33  1  0  0  0  0
 14 34  1  0  0  0  0
 15 17  1  0  0  0  0
 16 18  2  0  0  0  0
 16 35  1  0  0  0  0
 17 19  2  0  0  0  0
 18 19  1  0  0  0  0
 18 37  1  0  0  0  0
 19 38  1  0  0  0  0
 20 22  1  0  0  0  0
 21 39  1  0  0  0  0
 21 40  1  0  0  0  0
 22 23  1  0  0  0  0
 22 41  1  0  0  0  0
 22 42  1  0  0  0  0
 23 24  1  0  0  0  0
 23 25  2  0  0  0  0
 24 26  2  0  0  0  0
 25 27  1  0  0  0  0
 25 43  1  0  0  0  0
 26 28  1  0  0  0  0
 26 44  1  0  0  0  0
 27 28  2  0  0  0  0
 27 45  1  0  0  0  0
 28 46  1  0  0  0  0
M  CHG  2   6  -1   9   1
M  END
> <PUBCHEM_COMPOUND_CID>
272267

> <PUBCHEM_CONFORMER_RMSD>
1

> <PUBCHEM_CONFORMER_DIVERSEORDER>
26
125
141
72
131
23
110
57
177
169
111
171
100
144
130
122
173
90
8
184
50
66
87
51
95
154
40
13
149
105
151
71
94
108
193
147
96
180
118
76
74
155
139
70
179
42
77
117
103
45
178
153
101
53
136
109
20
157
83
158
186
152
195
39
47
143
78
7
156
16
185
126
189
92
64
80
97
123
116
25
120
86
161
37
29
196
82
190
148
128
10
98
106
182
194
133
75
99
124
187
1
49
88
167
170
19
41
176
85
181
89
30
159
174
138
15
163
137
135
113
166
18
175
162
32
140
5
160
14
33
192
43
17
21
146
102
67
68
191
183
44
165
61
107
84
35
81
112
54
56
2
6
79
52
188
65
150
93
24
4
145
142
34
127
129
132
60
164
119
27
62
115
197
3
114
134
121
59
22
172
9
63
31
38
91
73
36
104
48
168
28
69
55
46
11
58
12

> <PUBCHEM_MMFF94_PARTIAL_CHARGES>
36
1 -0.56
10 0.7
11 -0.14
12 0.3
13 0.28
14 0.28
15 0.08
16 -0.15
17 0.08
18 -0.15
19 -0.15
2 -0.56
20 0.57
21 0.56
22 0.2
23 -0.14
24 0.13
25 -0.15
26 -0.15
27 -0.15
28 -0.15
3 -0.36
35 0.15
36 0.37
37 0.15
38 0.15
4 -0.36
43 0.15
44 0.15
45 0.15
46 0.15
5 -0.57
6 -0.52
7 -0.52
8 -0.73
9 0.91

> <PUBCHEM_EFFECTIVE_ROTOR_COUNT>
8.6

> <PUBCHEM_PHARMACOPHORE_FEATURES>
13
1 1 acceptor
1 2 acceptor
1 3 acceptor
1 4 acceptor
1 5 acceptor
1 6 acceptor
1 6 anion
1 7 acceptor
1 8 donor
5 1 2 10 13 14 rings
5 3 4 15 17 21 rings
6 11 15 16 17 18 19 rings
6 23 24 25 26 27 28 rings

> <PUBCHEM_HEAVY_ATOM_COUNT>
28

> <PUBCHEM_ATOM_DEF_STEREO_COUNT>
0

> <PUBCHEM_ATOM_UDEF_STEREO_COUNT>
0

> <PUBCHEM_BOND_DEF_STEREO_COUNT>
0

> <PUBCHEM_BOND_UDEF_STEREO_COUNT>
0

> <PUBCHEM_ISOTOPIC_ATOM_COUNT>
0

> <PUBCHEM_COMPONENT_COUNT>
1

> <PUBCHEM_CACTVS_TAUTO_COUNT>
2

> <PUBCHEM_CONFORMER_ID>
0004278B0000001A

> <PUBCHEM_MMFF94_ENERGY>
84.1733

> <PUBCHEM_FEATURE_SELFOVERLAP>
66.277

> <PUBCHEM_SHAPE_FINGERPRINT>
10670039 82 18338817666902286564
11370993 70 18194958539843710500
11578080 2 17988065764912976841
12156800 1 17538514990708812077
12166972 35 18334857276762442758
12422481 6 18193585310261274121
13140716 1 18192717967000956770
13224815 77 18130792235389704894
14142880 1 18201167533682324737
14178342 30 18198354965695599432
14251757 17 17823117030355051095
14787075 74 18201152264973379802
15840311 113 17771655390098749689
17349148 13 18413671314261448382
17492 54 18048601709345914597
17492 89 18269838623101425270
192875 21 18408325510006508382
20600515 1 18200328730875023599
20715895 44 18335415713142910565
20775438 99 16904356528462542183
22749437 52 18270681944556173688
23227448 37 18266460897810637789
23419403 2 17702642476127198177
23557571 272 17561089094098306702
23559900 14 18193272125393680544
3027735 51 18335138640133365515
38695281 34 17687178687097033485
392239 28 17775279517293068952
4340502 62 17842578261850622265
460360 51 18118974590152636590
463206 1 18266738167698198743
469060 322 18335154080551052211
57527585 103 17752235874751255722

> <PUBCHEM_SHAPE_MULTIPOLES>
525.18
8.99
3.36
1.66
7.58
1.42
0.63
-3.81
-0.37
-1.51
-0.33
-1.06
0.78
-0.22

> <PUBCHEM_SHAPE_SELFOVERLAP>
1156.195

> <PUBCHEM_SHAPE_VOLUME>
280.8

> <PUBCHEM_COORDINATE_TYPE>
2
5
10

$$$$
