2474170
  -OEChem-01171811503D

 47 50  0     0  0  0  0  0  0999 V2000
    0.5407   -4.0551   -1.8410 O   0  0  0  0  0  0  0  0  0  0  0  0
    3.1702    0.8762   -1.6465 O   0  0  0  0  0  0  0  0  0  0  0  0
   -0.8408   -2.1939    2.5014 O   0  0  0  0  0  0  0  0  0  0  0  0
    4.5435    1.6935    0.7528 O   0  0  0  0  0  0  0  0  0  0  0  0
   -0.7983   -2.6961    0.2355 N   0  0  0  0  0  0  0  0  0  0  0  0
   -3.0178    1.0902    0.7079 N   0  0  0  0  0  0  0  0  0  0  0  0
   -1.8170    1.6841    0.6009 N   0  0  0  0  0  0  0  0  0  0  0  0
   -2.9376    2.9952   -2.5311 N   0  0  0  0  0  0  0  0  0  0  0  0
   -0.2411   -4.0321    0.4485 C   0  0  0  0  0  0  0  0  0  0  0  0
   -1.0859   -2.3805   -1.1702 C   0  0  0  0  0  0  0  0  0  0  0  0
   -1.6121   -0.5444    1.0588 C   0  0  0  0  0  0  0  0  0  0  0  0
    0.9365   -4.2729   -0.4843 C   0  0  0  0  0  0  0  0  0  0  0  0
    0.1226   -2.7030   -2.0418 C   0  0  0  0  0  0  0  0  0  0  0  0
   -1.0574   -1.8649    1.3355 C   0  0  0  0  0  0  0  0  0  0  0  0
   -0.9577    0.6813    0.8161 C   0  0  0  0  0  0  0  0  0  0  0  0
    0.4581    0.9203    0.7848 C   0  0  0  0  0  0  0  0  0  0  0  0
   -2.9504   -0.2443    0.9815 C   0  0  0  0  0  0  0  0  0  0  0  0
   -4.2204    1.8691    0.5331 C   0  0  0  0  0  0  0  0  0  0  0  0
    1.1588    0.7981   -0.4153 C   0  0  0  0  0  0  0  0  0  0  0  0
    2.5339    1.0322   -0.4429 C   0  0  0  0  0  0  0  0  0  0  0  0
    1.1299    1.2785    1.9539 C   0  0  0  0  0  0  0  0  0  0  0  0
    3.2015    1.4174    0.7223 C   0  0  0  0  0  0  0  0  0  0  0  0
    2.5025    1.5261    1.9247 C   0  0  0  0  0  0  0  0  0  0  0  0
   -4.7103    1.9169   -0.9147 C   0  0  0  0  0  0  0  0  0  0  0  0
    4.5901    0.7986   -1.4931 C   0  0  0  0  0  0  0  0  0  0  0  0
    5.0776    1.8892   -0.5594 C   0  0  0  0  0  0  0  0  0  0  0  0
   -3.7192    2.5201   -1.8173 C   0  0  0  0  0  0  0  0  0  0  0  0
   -1.0473   -4.7422    0.2297 H   0  0  0  0  0  0  0  0  0  0  0  0
    0.0627   -4.1741    1.4898 H   0  0  0  0  0  0  0  0  0  0  0  0
   -1.3818   -1.3394   -1.3095 H   0  0  0  0  0  0  0  0  0  0  0  0
   -1.9337   -3.0134   -1.4574 H   0  0  0  0  0  0  0  0  0  0  0  0
    1.7802   -3.6152   -0.2431 H   0  0  0  0  0  0  0  0  0  0  0  0
    1.2814   -5.3078   -0.3963 H   0  0  0  0  0  0  0  0  0  0  0  0
   -0.1355   -2.5841   -3.0987 H   0  0  0  0  0  0  0  0  0  0  0  0
    0.9625   -2.0329   -1.8254 H   0  0  0  0  0  0  0  0  0  0  0  0
   -3.8375   -0.8530    1.0934 H   0  0  0  0  0  0  0  0  0  0  0  0
   -4.9936    1.4302    1.1744 H   0  0  0  0  0  0  0  0  0  0  0  0
   -4.0184    2.8787    0.9119 H   0  0  0  0  0  0  0  0  0  0  0  0
    0.6428    0.5169   -1.3308 H   0  0  0  0  0  0  0  0  0  0  0  0
    0.5964    1.3746    2.8968 H   0  0  0  0  0  0  0  0  0  0  0  0
    3.0162    1.8132    2.8381 H   0  0  0  0  0  0  0  0  0  0  0  0
    5.0389    0.9178   -2.4842 H   0  0  0  0  0  0  0  0  0  0  0  0
    4.8477   -0.1997   -1.1181 H   0  0  0  0  0  0  0  0  0  0  0  0
   -5.6421    2.4919   -0.9583 H   0  0  0  0  0  0  0  0  0  0  0  0
   -4.9428    0.9028   -1.2612 H   0  0  0  0  0  0  0  0  0  0  0  0
    6.1690    1.8632   -0.4818 H   0  0  0  0  0  0  0  0  0  0  0  0
    4.7830    2.8853   -0.9126 H   0  0  0  0  0  0  0  0  0  0  0  0
  1 12  1  0  0  0  0
  1 13  1  0  0  0  0
  2 20  1  0  0  0  0
  2 25  1  0  0  0  0
  3 14  2  0  0  0  0
  4 22  1  0  0  0  0
  4 26  1  0  0  0  0
  5  9  1  0  0  0  0
  5 10  1  0  0  0  0
  5 14  1  0  0  0  0
  6  7  1  0  0  0  0
  6 17  1  0  0  0  0
  6 18  1  0  0  0  0
  7 15  2  0  0  0  0
  8 27  3  0  0  0  0
  9 12  1  0  0  0  0
  9 28  1  0  0  0  0
  9 29  1  0  0  0  0
 10 13  1  0  0  0  0
 10 30  1  0  0  0  0
 10 31  1  0  0  0  0
 11 14  1  0  0  0  0
 11 15  1  0  0  0  0
 11 17  2  0  0  0  0
 12 32  1  0  0  0  0
 12 33  1  0  0  0  0
 13 34  1  0  0  0  0
 13 35  1  0  0  0  0
 15 16  1  0  0  0  0
 16 19  2  0  0  0  0
 16 21  1  0  0  0  0
 17 36  1  0  0  0  0
 18 24  1  0  0  0  0
 18 37  1  0  0  0  0
 18 38  1  0  0  0  0
 19 20  1  0  0  0  0
 19 39  1  0  0  0  0
 20 22  2  0  0  0  0
 21 23  2  0  0  0  0
 21 40  1  0  0  0  0
 22 23  1  0  0  0  0
 23 41  1  0  0  0  0
 24 27  1  0  0  0  0
 24 44  1  0  0  0  0
 24 45  1  0  0  0  0
 25 26  1  0  0  0  0
 25 42  1  0  0  0  0
 25 43  1  0  0  0  0
 26 46  1  0  0  0  0
 26 47  1  0  0  0  0
M  END
> <PUBCHEM_COMPOUND_CID>
2474170

> <PUBCHEM_CONFORMER_RMSD>
0.8

> <PUBCHEM_CONFORMER_DIVERSEORDER>
1
120
6
98
82
16
59
70
79
116
106
84
130
86
38
103
85
40
104
81
92
47
102
112
71
34
96
90
111
49
113
2
69
89
125
67
28
110
76
93
77
13
108
87
21
26
51
119
129
117
105
54
12
95
88
25
131
58
41
63
20
39
52
115
61
78
57
43
134
80
124
91
24
17
122
29
27
99
74
121
53
9
126
94
32
65
132
83
50
48
37
22
73
56
127
128
4
123
31
19
72
3
60
133
62
36
18
30
97
45
46
101
44
15
66
35
118
23
5
68
114
11
14
33
109
107
75
10
100
64
42
8
55
7

> <PUBCHEM_MMFF94_PARTIAL_CHARGES>
31
1 -0.56
10 0.3
11 -0.09
12 0.28
13 0.28
14 0.72
15 0.23
16 0.05
17 -0.3
18 0.26
19 -0.15
2 -0.36
20 0.08
21 -0.15
22 0.08
23 -0.15
24 0.2
25 0.28
26 0.28
27 0.36
3 -0.57
36 0.15
39 0.15
4 -0.36
40 0.15
41 0.15
5 -0.66
6 0.31
7 -0.71
8 -0.56
9 0.3

> <PUBCHEM_EFFECTIVE_ROTOR_COUNT>
7

> <PUBCHEM_PHARMACOPHORE_FEATURES>
10
1 1 acceptor
1 2 acceptor
1 3 acceptor
1 4 acceptor
1 7 acceptor
1 8 acceptor
5 6 7 11 15 17 rings
6 1 5 9 10 12 13 rings
6 16 19 20 21 22 23 rings
6 2 4 20 22 25 26 rings

> <PUBCHEM_HEAVY_ATOM_COUNT>
27

> <PUBCHEM_ATOM_DEF_STEREO_COUNT>
0

> <PUBCHEM_ATOM_UDEF_STEREO_COUNT>
0

> <PUBCHEM_BOND_DEF_STEREO_COUNT>
0

> <PUBCHEM_BOND_UDEF_STEREO_COUNT>
0

> <PUBCHEM_ISOTOPIC_ATOM_COUNT>
0

> <PUBCHEM_COMPONENT_COUNT>
1

> <PUBCHEM_CACTVS_TAUTO_COUNT>
1

> <PUBCHEM_CONFORMER_ID>
0025C0BA00000001

> <PUBCHEM_MMFF94_ENERGY>
66.1237

> <PUBCHEM_FEATURE_SELFOVERLAP>
50.793

> <PUBCHEM_SHAPE_FINGERPRINT>
10369192 42 18335995207221328333
105312 117 18335422369772773469
107951 10 17968674786155638506
11488393 25 18270686342708914011
11578080 2 17973183750740408709
12156800 1 15406619175249109430
12160290 23 18193544795586721177
12553582 1 16758324968965156418
13257819 37 18336549408177869127
13383661 66 17484219105881680399
133893 2 17977389326449359553
13681431 1 17549248243046286513
14251757 17 17059478764271209277
14955137 171 16686292084121736769
15163728 17 17896890858939010861
15210252 30 16969419613760416221
167882 2 18267026050628737579
20567600 347 18411693267072963751
21285901 2 17268892981548018543
21304303 282 17476582923952421777
21344244 246 18199459966027991879
23419403 2 17183869525134716882
23559900 14 18272384087741729984
23598288 3 17826248559418824104
238 59 18130509621861630135
26353 1 17256232173857518357
3027735 51 18058166300756256239
3298306 158 18340774741042777518
44802255 64 18187941598695920716
46194498 28 17904187149903383629
5081480 168 17398109357845489437
59755656 215 18341899606479511619
81228 2 17624412374071286339

> <PUBCHEM_SHAPE_MULTIPOLES>
512.25
7.86
5.06
2.25
3.2
7.32
0.37
-10.21
2.69
-1.25
2
-0.35
-0.15
1.89

> <PUBCHEM_SHAPE_SELFOVERLAP>
1106.906

> <PUBCHEM_SHAPE_VOLUME>
278.5

> <PUBCHEM_COORDINATE_TYPE>
2
5
10

$$$$
