9590021
  -OEChem-01171811503D

 40 42  0     0  0  0  0  0  0999 V2000
    1.2311   -0.0390    0.0307 O   0  0  0  0  0  0  0  0  0  0  0  0
    8.4480    0.1735   -0.0803 O   0  5  0  0  0  0  0  0  0  0  0  0
    7.6819    2.2285    0.0161 O   0  0  0  0  0  0  0  0  0  0  0  0
   -5.6747    0.8795    0.1935 N   0  0  0  0  0  0  0  0  0  0  0  0
   -6.4990   -1.1461    0.1234 N   0  0  0  0  0  0  0  0  0  0  0  0
   -3.3623    0.4148    0.1309 N   0  0  0  0  0  0  0  0  0  0  0  0
   -5.1215   -1.2352    0.0941 N   0  0  0  0  0  0  0  0  0  0  0  0
   -5.5923    2.2900    0.2514 N   0  0  0  0  0  0  0  0  0  0  0  0
   -2.3452   -0.4670    0.0760 N   0  0  0  0  0  0  0  0  0  0  0  0
    7.4953    0.9887   -0.0313 N   0  3  0  0  0  0  0  0  0  0  0  0
   -6.8109    0.1288    0.1831 C   0  0  0  0  0  0  0  0  0  0  0  0
   -8.1667    0.7068    0.2330 C   0  0  0  0  0  0  0  0  0  0  0  0
    3.5510   -0.4826   -0.0267 C   0  0  0  0  0  0  0  0  0  0  0  0
    2.1995   -0.9866   -0.0249 C   0  0  0  0  0  0  0  0  0  0  0  0
   -4.6944   -0.0272    0.1370 C   0  0  0  0  0  0  0  0  0  0  0  0
    0.0454   -0.7025    0.0237 C   0  0  0  0  0  0  0  0  0  0  0  0
    1.6555   -2.2440   -0.0676 C   0  0  0  0  0  0  0  0  0  0  0  0
    4.6261   -1.3696   -0.0809 C   0  0  0  0  0  0  0  0  0  0  0  0
    3.7828    0.8919    0.0259 C   0  0  0  0  0  0  0  0  0  0  0  0
   -8.7400    0.9996   -1.1593 C   0  0  0  0  0  0  0  0  0  0  0  0
    0.2524   -2.0611   -0.0359 C   0  0  0  0  0  0  0  0  0  0  0  0
    6.1648    0.4925   -0.0299 C   0  0  0  0  0  0  0  0  0  0  0  0
    5.9330   -0.8820   -0.0825 C   0  0  0  0  0  0  0  0  0  0  0  0
    5.0896    1.3794    0.0243 C   0  0  0  0  0  0  0  0  0  0  0  0
   -1.1494    0.0688    0.0762 C   0  0  0  0  0  0  0  0  0  0  0  0
   -8.8342   -0.0003    0.7405 H   0  0  0  0  0  0  0  0  0  0  0  0
   -8.1846    1.6241    0.8325 H   0  0  0  0  0  0  0  0  0  0  0  0
    2.1836   -3.1857   -0.1154 H   0  0  0  0  0  0  0  0  0  0  0  0
    4.4778   -2.4454   -0.1226 H   0  0  0  0  0  0  0  0  0  0  0  0
    2.9718    1.6145    0.0690 H   0  0  0  0  0  0  0  0  0  0  0  0
   -8.1234    1.7306   -1.6928 H   0  0  0  0  0  0  0  0  0  0  0  0
   -9.7537    1.4029   -1.0733 H   0  0  0  0  0  0  0  0  0  0  0  0
   -8.7829    0.0879   -1.7649 H   0  0  0  0  0  0  0  0  0  0  0  0
   -0.5077   -2.8293   -0.0545 H   0  0  0  0  0  0  0  0  0  0  0  0
    6.7461   -1.6022   -0.1254 H   0  0  0  0  0  0  0  0  0  0  0  0
    5.2327    2.4562    0.0661 H   0  0  0  0  0  0  0  0  0  0  0  0
   -3.1550    1.4098    0.1686 H   0  0  0  0  0  0  0  0  0  0  0  0
   -1.0290    1.1672    0.1192 H   0  0  0  0  0  0  0  0  0  0  0  0
   -5.1209    2.6806   -0.5635 H   0  0  0  0  0  0  0  0  0  0  0  0
   -5.0683    2.6110    1.0646 H   0  0  0  0  0  0  0  0  0  0  0  0
  1 14  1  0  0  0  0
  1 16  1  0  0  0  0
  2 10  1  0  0  0  0
  3 10  2  0  0  0  0
  4  8  1  0  0  0  0
  4 11  1  0  0  0  0
  4 15  1  0  0  0  0
  5  7  1  0  0  0  0
  5 11  2  0  0  0  0
  6  9  1  0  0  0  0
  6 15  1  0  0  0  0
  6 37  1  0  0  0  0
  7 15  2  0  0  0  0
  8 39  1  0  0  0  0
  8 40  1  0  0  0  0
  9 25  2  0  0  0  0
 10 22  1  0  0  0  0
 11 12  1  0  0  0  0
 12 20  1  0  0  0  0
 12 26  1  0  0  0  0
 12 27  1  0  0  0  0
 13 14  1  0  0  0  0
 13 18  2  0  0  0  0
 13 19  1  0  0  0  0
 14 17  2  0  0  0  0
 16 21  2  0  0  0  0
 16 25  1  0  0  0  0
 17 21  1  0  0  0  0
 17 28  1  0  0  0  0
 18 23  1  0  0  0  0
 18 29  1  0  0  0  0
 19 24  2  0  0  0  0
 19 30  1  0  0  0  0
 20 31  1  0  0  0  0
 20 32  1  0  0  0  0
 20 33  1  0  0  0  0
 21 34  1  0  0  0  0
 22 23  2  0  0  0  0
 22 24  1  0  0  0  0
 23 35  1  0  0  0  0
 24 36  1  0  0  0  0
 25 38  1  0  0  0  0
M  CHG  2   2  -1  10   1
M  END
> <PUBCHEM_COMPOUND_CID>
9590021

> <PUBCHEM_CONFORMER_RMSD>
0.8

> <PUBCHEM_CONFORMER_DIVERSEORDER>
1
10
13
12
53
52
17
7
15
20
16
22
57
6
3
54
26
5
47
25
9
50
33
11
49
51
19
28
4
55
39
23
56
48
21
8
35
31
2
27
32
30
34
42
40
58
37
41
24
46
38
44
45
29
59
36
14
43
18

> <PUBCHEM_MMFF94_PARTIAL_CHARGES>
34
1 -0.28
10 0.91
11 0.01
12 0.18
13 0.05
14 0.09
15 0.27
16 0.05
17 -0.15
18 -0.15
19 -0.15
2 -0.52
21 -0.15
22 0.13
23 -0.15
24 -0.15
25 0.47
28 0.15
29 0.15
3 -0.52
30 0.15
34 0.15
35 0.15
36 0.15
37 0.4
38 0.06
39 0.36
4 0.45
40 0.36
5 -0.34
6 -0.44
7 -0.34
8 -0.87
9 -0.49

> <PUBCHEM_EFFECTIVE_ROTOR_COUNT>
6

> <PUBCHEM_PHARMACOPHORE_FEATURES>
12
1 1 acceptor
1 2 acceptor
1 2 anion
1 20 hydrophobe
1 3 acceptor
1 6 donor
1 8 donor
1 9 acceptor
4 4 6 7 15 cation
5 1 14 16 17 21 rings
5 4 5 7 11 15 rings
6 13 18 19 22 23 24 rings

> <PUBCHEM_HEAVY_ATOM_COUNT>
25

> <PUBCHEM_ATOM_DEF_STEREO_COUNT>
0

> <PUBCHEM_ATOM_UDEF_STEREO_COUNT>
0

> <PUBCHEM_BOND_DEF_STEREO_COUNT>
1

> <PUBCHEM_BOND_UDEF_STEREO_COUNT>
0

> <PUBCHEM_ISOTOPIC_ATOM_COUNT>
0

> <PUBCHEM_COMPONENT_COUNT>
1

> <PUBCHEM_CACTVS_TAUTO_COUNT>
2

> <PUBCHEM_CONFORMER_ID>
0092550500000001

> <PUBCHEM_MMFF94_ENERGY>
43.5338

> <PUBCHEM_FEATURE_SELFOVERLAP>
60.979

> <PUBCHEM_SHAPE_FINGERPRINT>
10 15 18113336414098066139
10050765 1 18050851022252085840
10411042 1 17906735801062599846
10595046 47 18341612573614783291
10670039 82 15554455067897383123
10835480 77 18335136454654037581
11315181 36 18344149190385276489
11638347 137 16298099870465946298
11719270 70 18200871786050027214
12592606 108 8790879671151894577
12838862 33 18340190955928735792
13673619 4 11024108741754541315
14123256 10 18060139838212281129
14251764 18 18260265261567935450
14251764 46 18409448081514091675
14344974 52 16845001420866675544
14849402 71 18339928224195203392
14933364 13 18412265029771671353
15183329 4 15267345119384201727
15461852 350 17632570570693571837
155225 1 18411138043222778784
16989713 51 17345462873197695527
17093844 174 17675927595695304131
1754911 235 18201718453358633341
18335252 114 18273209794375996548
20157964 124 18341616997457640638
20281389 69 18259703380470598605
20721686 124 17989492905721446942
21150785 3 16702018678153981253
21792934 111 18341322333089661944
22224240 67 17967813859755335650
22956985 138 12614685284216355688
23559900 14 18341043112928843369
246663 6 11959729382765809301
249057 3 15769770290817770376
300161 21 18187081729332728923
33532 11 9583525304523635996
335352 9 18412832396217485254
395649 100 18261389018888412915
4073 2 18259991491399350003
4325135 7 18413388735409174821
4340502 62 16660361481265725146
5758199 1 18333170565658781131
59682541 35 18040721389741001105
59755656 520 18114456851123805346
636775 72 18262518088475878069
636775 8 16199859666877468029
67123 10 18411418423958359279

> <PUBCHEM_SHAPE_MULTIPOLES>
462.01
28.09
1.89
0.65
18.32
0.02
-0.07
-13.59
-2.07
-1.19
0
0.56
-0.05
0.31

> <PUBCHEM_SHAPE_SELFOVERLAP>
1000.857

> <PUBCHEM_SHAPE_VOLUME>
254.6

> <PUBCHEM_COORDINATE_TYPE>
2
5
10

$$$$
