2834307
  -OEChem-01171811523D

 35 36  0     1  0  0  0  0  0999 V2000
    1.5440    2.2870   -1.7835 Cl  0  0  0  0  0  0  0  0  0  0  0  0
    0.5963    3.2585    0.7753 Cl  0  0  0  0  0  0  0  0  0  0  0  0
    3.3730    2.4247    0.4748 Cl  0  0  0  0  0  0  0  0  0  0  0  0
   -2.5048    2.2276   -0.5769 Cl  0  0  0  0  0  0  0  0  0  0  0  0
    3.8996   -2.6053   -0.1693 O   0  0  0  0  0  0  0  0  0  0  0  0
   -0.9213   -0.1698    2.1332 O   0  0  0  0  0  0  0  0  0  0  0  0
    2.1087   -0.3944   -0.2481 N   0  0  0  0  0  0  0  0  0  0  0  0
   -0.1061    0.3148    0.0141 N   0  0  0  0  0  0  0  0  0  0  0  0
    1.2707    0.6177    0.3914 C   0  0  2  0  0  0  0  0  0  0  0  0
    3.5155   -0.2305    0.1434 C   0  0  0  0  0  0  0  0  0  0  0  0
    1.6456   -1.7468    0.0929 C   0  0  0  0  0  0  0  0  0  0  0  0
    4.3678   -1.3044   -0.5267 C   0  0  0  0  0  0  0  0  0  0  0  0
    2.5422   -2.7854   -0.5750 C   0  0  0  0  0  0  0  0  0  0  0  0
    1.6822    2.0552   -0.0052 C   0  0  0  0  0  0  0  0  0  0  0  0
   -1.0858   -0.0541    0.9220 C   0  0  0  0  0  0  0  0  0  0  0  0
   -2.4218   -0.3403    0.3424 C   0  0  0  0  0  0  0  0  0  0  0  0
   -3.1223    0.6314   -0.3452 C   0  0  0  0  0  0  0  0  0  0  0  0
   -2.9266   -1.6150    0.5224 C   0  0  0  0  0  0  0  0  0  0  0  0
   -4.3748    0.3183   -0.8732 C   0  0  0  0  0  0  0  0  0  0  0  0
   -4.1792   -1.9279   -0.0056 C   0  0  0  0  0  0  0  0  0  0  0  0
   -4.9033   -0.9614   -0.7034 C   0  0  0  0  0  0  0  0  0  0  0  0
    1.3504    0.5246    1.4838 H   0  0  0  0  0  0  0  0  0  0  0  0
    3.6752   -0.2369    1.2270 H   0  0  0  0  0  0  0  0  0  0  0  0
    3.9960    0.5740   -0.3934 H   0  0  0  0  0  0  0  0  0  0  0  0
    0.6298   -1.9448   -0.2640 H   0  0  0  0  0  0  0  0  0  0  0  0
    1.6662   -1.8951    1.1806 H   0  0  0  0  0  0  0  0  0  0  0  0
    4.3640   -1.2122   -1.6209 H   0  0  0  0  0  0  0  0  0  0  0  0
    5.4085   -1.2235   -0.1942 H   0  0  0  0  0  0  0  0  0  0  0  0
    2.2366   -3.7921   -0.2724 H   0  0  0  0  0  0  0  0  0  0  0  0
    2.4770   -2.7337   -1.6687 H   0  0  0  0  0  0  0  0  0  0  0  0
   -0.3346    0.3498   -0.9751 H   0  0  0  0  0  0  0  0  0  0  0  0
   -2.3693   -2.3756    1.0616 H   0  0  0  0  0  0  0  0  0  0  0  0
   -4.9520    1.0600   -1.4196 H   0  0  0  0  0  0  0  0  0  0  0  0
   -4.5903   -2.9246    0.1258 H   0  0  0  0  0  0  0  0  0  0  0  0
   -5.8784   -1.2053   -1.1147 H   0  0  0  0  0  0  0  0  0  0  0  0
  1 14  1  0  0  0  0
  2 14  1  0  0  0  0
  3 14  1  0  0  0  0
  4 17  1  0  0  0  0
  5 12  1  0  0  0  0
  5 13  1  0  0  0  0
  6 15  2  0  0  0  0
  7  9  1  0  0  0  0
  7 10  1  0  0  0  0
  7 11  1  0  0  0  0
  8  9  1  0  0  0  0
  8 15  1  0  0  0  0
  8 31  1  0  0  0  0
  9 14  1  0  0  0  0
  9 22  1  0  0  0  0
 10 12  1  0  0  0  0
 10 23  1  0  0  0  0
 10 24  1  0  0  0  0
 11 13  1  0  0  0  0
 11 25  1  0  0  0  0
 11 26  1  0  0  0  0
 12 27  1  0  0  0  0
 12 28  1  0  0  0  0
 13 29  1  0  0  0  0
 13 30  1  0  0  0  0
 15 16  1  0  0  0  0
 16 17  1  0  0  0  0
 16 18  2  0  0  0  0
 17 19  2  0  0  0  0
 18 20  1  0  0  0  0
 18 32  1  0  0  0  0
 19 21  1  0  0  0  0
 19 33  1  0  0  0  0
 20 21  2  0  0  0  0
 20 34  1  0  0  0  0
 21 35  1  0  0  0  0
M  END
> <PUBCHEM_COMPOUND_CID>
2834307

> <PUBCHEM_CONFORMER_RMSD>
0.8

> <PUBCHEM_CONFORMER_DIVERSEORDER>
1
5
13
11
14
8
9
12
4
15
7
2
6
10
3

> <PUBCHEM_MMFF94_PARTIAL_CHARGES>
26
1 -0.29
10 0.27
11 0.27
12 0.28
13 0.28
14 0.87
15 0.54
16 0.09
17 0.18
18 -0.15
19 -0.15
2 -0.29
20 -0.15
21 -0.15
3 -0.29
31 0.37
32 0.15
33 0.15
34 0.15
35 0.15
4 -0.18
5 -0.56
6 -0.57
7 -0.81
8 -0.73
9 0.57

> <PUBCHEM_EFFECTIVE_ROTOR_COUNT>
6.2

> <PUBCHEM_PHARMACOPHORE_FEATURES>
6
1 5 acceptor
1 6 acceptor
1 7 cation
1 8 donor
6 16 17 18 19 20 21 rings
6 5 7 10 11 12 13 rings

> <PUBCHEM_HEAVY_ATOM_COUNT>
21

> <PUBCHEM_ATOM_DEF_STEREO_COUNT>
0

> <PUBCHEM_ATOM_UDEF_STEREO_COUNT>
1

> <PUBCHEM_BOND_DEF_STEREO_COUNT>
0

> <PUBCHEM_BOND_UDEF_STEREO_COUNT>
0

> <PUBCHEM_ISOTOPIC_ATOM_COUNT>
0

> <PUBCHEM_COMPONENT_COUNT>
1

> <PUBCHEM_CACTVS_TAUTO_COUNT>
2

> <PUBCHEM_CONFORMER_ID>
002B3F8300000001

> <PUBCHEM_MMFF94_ENERGY>
74.0939

> <PUBCHEM_FEATURE_SELFOVERLAP>
30.446

> <PUBCHEM_SHAPE_FINGERPRINT>
11370993 70 18266170823919211667
11578080 2 17416664904447607320
116883 192 18337106740050706252
12403259 226 18409444808527531045
12553582 1 18196676024251079898
13134695 92 18343295972607900964
13533116 47 18271524295170147367
14251757 17 18116138992060075605
14866123 147 17548982156821424651
15352361 1 18339922623562461511
15375462 6 18338515365022625469
15502722 9 18339644563073902687
17357779 13 18335694984426917052
17492 89 18410009970458337647
18186145 218 17676759955482111033
18222031 100 18201440238578780014
19930381 70 18194959867067752213
200 152 17988922262763607355
20645477 70 18337667615550643843
20671657 53 18343305838078883163
21250096 35 18342174423481719558
221357 26 18336822014258162093
221490 88 18337396036110121867
23402539 116 18263079912556478134
23526113 38 18113903740770783992
23558518 356 18259991474572602953
23559900 14 18410003364602937953
23598288 3 17131568167132434265
238 59 18118416265313827882
46194498 28 17968095369381500319
463206 1 18270116954098226151
5104073 3 18410574007090551169
5161694 15 18040435473430736447
5281201 14 18261111911175023943
59755656 215 18338234989689619340
633830 44 17530959224760460549
6443956 14 18410856551403490780
7364860 26 18340204193176015688
7471813 234 18202558467035624472
81228 2 17829060814321784032
9709674 26 18334857276999968867

> <PUBCHEM_SHAPE_MULTIPOLES>
417.95
8.89
3.51
1.17
4.83
0.69
-0.07
-4.27
1.89
-3.07
0.31
0.09
0.42
0.71

> <PUBCHEM_SHAPE_SELFOVERLAP>
833.978

> <PUBCHEM_SHAPE_VOLUME>
246.8

> <PUBCHEM_COORDINATE_TYPE>
2
5
10

$$$$
