5927470
  -OEChem-01171812113D

 36 37  0     0  0  0  0  0  0999 V2000
   -7.9921    1.5591    0.3037 Br  0  0  0  0  0  0  0  0  0  0  0  0
    6.2748   -0.2261    0.6286 O   0  0  0  0  0  0  0  0  0  0  0  0
   -1.8815   -1.3240    1.2247 O   0  0  0  0  0  0  0  0  0  0  0  0
    0.4321    0.8235   -1.2501 O   0  0  0  0  0  0  0  0  0  0  0  0
   -1.7213   -0.8843   -1.0479 N   0  0  0  0  0  0  0  0  0  0  0  0
    1.8277   -0.9072   -0.5877 N   0  0  0  0  0  0  0  0  0  0  0  0
    2.8750   -0.0778   -0.3924 N   0  0  0  0  0  0  0  0  0  0  0  0
   -0.4150   -1.4405   -1.2408 C   0  0  0  0  0  0  0  0  0  0  0  0
   -3.7242   -0.2805    0.2178 C   0  0  0  0  0  0  0  0  0  0  0  0
   -2.3609   -0.8700    0.1890 C   0  0  0  0  0  0  0  0  0  0  0  0
    4.0001   -0.5882    0.0163 C   0  0  0  0  0  0  0  0  0  0  0  0
    5.1269    0.3296    0.2230 C   0  0  0  0  0  0  0  0  0  0  0  0
    0.6293   -0.3677   -1.0223 C   0  0  0  0  0  0  0  0  0  0  0  0
   -4.6151   -0.7090    1.1797 C   0  0  0  0  0  0  0  0  0  0  0  0
   -4.0565    0.6754   -0.7198 C   0  0  0  0  0  0  0  0  0  0  0  0
    5.1975    1.6650    0.0683 C   0  0  0  0  0  0  0  0  0  0  0  0
   -5.8958   -0.1568    1.2056 C   0  0  0  0  0  0  0  0  0  0  0  0
   -5.3372    1.2278   -0.6939 C   0  0  0  0  0  0  0  0  0  0  0  0
    4.2184   -2.0681    0.2737 C   0  0  0  0  0  0  0  0  0  0  0  0
   -6.2568    0.8117    0.2688 C   0  0  0  0  0  0  0  0  0  0  0  0
    6.5300    1.9963    0.4113 C   0  0  0  0  0  0  0  0  0  0  0  0
    7.1444    0.8117    0.7445 C   0  0  0  0  0  0  0  0  0  0  0  0
   -0.3400   -1.8012   -2.2710 H   0  0  0  0  0  0  0  0  0  0  0  0
   -0.2664   -2.2792   -0.5532 H   0  0  0  0  0  0  0  0  0  0  0  0
   -2.1964   -0.5487   -1.8785 H   0  0  0  0  0  0  0  0  0  0  0  0
   -4.3517   -1.4657    1.9126 H   0  0  0  0  0  0  0  0  0  0  0  0
   -3.3602    1.0511   -1.4621 H   0  0  0  0  0  0  0  0  0  0  0  0
    4.4165    2.3420   -0.2470 H   0  0  0  0  0  0  0  0  0  0  0  0
   -6.6010   -0.4930    1.9614 H   0  0  0  0  0  0  0  0  0  0  0  0
   -5.6006    1.9868   -1.4262 H   0  0  0  0  0  0  0  0  0  0  0  0
    1.9473   -1.9004   -0.4258 H   0  0  0  0  0  0  0  0  0  0  0  0
    3.5142   -2.4111    1.0379 H   0  0  0  0  0  0  0  0  0  0  0  0
    4.0449   -2.6255   -0.6519 H   0  0  0  0  0  0  0  0  0  0  0  0
    5.2267   -2.2997    0.6216 H   0  0  0  0  0  0  0  0  0  0  0  0
    6.9857    2.9759    0.4150 H   0  0  0  0  0  0  0  0  0  0  0  0
    8.1419    0.5519    1.0677 H   0  0  0  0  0  0  0  0  0  0  0  0
  1 20  1  0  0  0  0
  2 12  1  0  0  0  0
  2 22  1  0  0  0  0
  3 10  2  0  0  0  0
  4 13  2  0  0  0  0
  5  8  1  0  0  0  0
  5 10  1  0  0  0  0
  5 25  1  0  0  0  0
  6  7  1  0  0  0  0
  6 13  1  0  0  0  0
  6 31  1  0  0  0  0
  7 11  2  0  0  0  0
  8 13  1  0  0  0  0
  8 23  1  0  0  0  0
  8 24  1  0  0  0  0
  9 10  1  0  0  0  0
  9 14  2  0  0  0  0
  9 15  1  0  0  0  0
 11 12  1  0  0  0  0
 11 19  1  0  0  0  0
 12 16  2  0  0  0  0
 14 17  1  0  0  0  0
 14 26  1  0  0  0  0
 15 18  2  0  0  0  0
 15 27  1  0  0  0  0
 16 21  1  0  0  0  0
 16 28  1  0  0  0  0
 17 20  2  0  0  0  0
 17 29  1  0  0  0  0
 18 20  1  0  0  0  0
 18 30  1  0  0  0  0
 19 32  1  0  0  0  0
 19 33  1  0  0  0  0
 19 34  1  0  0  0  0
 21 22  2  0  0  0  0
 21 35  1  0  0  0  0
 22 36  1  0  0  0  0
M  END
> <PUBCHEM_COMPOUND_CID>
5927470

> <PUBCHEM_CONFORMER_RMSD>
0.8

> <PUBCHEM_CONFORMER_DIVERSEORDER>
1
4
5
13
10
16
14
12
7
6
9
11
2
3
8
15

> <PUBCHEM_MMFF94_PARTIAL_CHARGES>
31
1 -0.11
10 0.54
11 0.47
12 0.05
13 0.57
14 -0.15
15 -0.15
16 -0.15
17 -0.15
18 -0.15
19 0.06
2 -0.28
20 0.11
21 -0.15
22 -0.01
25 0.37
26 0.15
27 0.15
28 0.15
29 0.15
3 -0.57
30 0.15
31 0.37
35 0.15
36 0.15
4 -0.57
5 -0.73
6 -0.37
7 -0.51
8 0.36
9 0.09

> <PUBCHEM_EFFECTIVE_ROTOR_COUNT>
7

> <PUBCHEM_PHARMACOPHORE_FEATURES>
9
1 1 hydrophobe
1 2 acceptor
1 3 acceptor
1 4 acceptor
1 5 donor
1 6 donor
1 7 acceptor
5 2 12 16 21 22 rings
6 9 14 15 17 18 20 rings

> <PUBCHEM_HEAVY_ATOM_COUNT>
22

> <PUBCHEM_ATOM_DEF_STEREO_COUNT>
0

> <PUBCHEM_ATOM_UDEF_STEREO_COUNT>
0

> <PUBCHEM_BOND_DEF_STEREO_COUNT>
1

> <PUBCHEM_BOND_UDEF_STEREO_COUNT>
0

> <PUBCHEM_ISOTOPIC_ATOM_COUNT>
0

> <PUBCHEM_COMPONENT_COUNT>
1

> <PUBCHEM_CACTVS_TAUTO_COUNT>
4

> <PUBCHEM_CONFORMER_ID>
005A722E00000001

> <PUBCHEM_MMFF94_ENERGY>
50.1528

> <PUBCHEM_FEATURE_SELFOVERLAP>
45.677

> <PUBCHEM_SHAPE_FINGERPRINT>
10 15 18259987088888370948
10670039 82 15267075730883228066
10693767 8 10447386293432054948
11089746 13 17060333059421146224
11524674 6 14129063621308637425
125118 31 18410297990601158557
12596602 18 18407478864293675819
12616971 3 15502377863341615134
12760667 363 12107785211899325615
13403585 85 18187364324921331597
13533116 47 18189336779898938042
13668630 136 10737275841082286768
13673619 4 10809344447152779943
13685833 64 12540700323107844125
13862211 1 12757149086528985041
13885169 127 10881672508524909087
14123256 10 14620793799677068893
14251764 18 18260267477565267095
14251764 30 7925625592674317883
14347424 109 18336542712456106826
14528608 73 14045740413350902502
15003188 100 12535339108832753234
15048467 5 18131068255784290904
15183329 4 16773795896236235865
15348495 7 17895197765560848384
15352257 5 7853566916263122161
15461852 350 17989204884997519199
15716309 27 14562530682504930207
17134984 74 10375875169531503708
20157964 124 18131072593226961254
2026 5 8718562605070798760
20281389 69 18409167675789253941
21130935 74 18334582296335920827
21150785 3 12175620698751221448
21267235 1 12035446129815136102
21344244 246 9799429823218112372
21403212 168 16515682226776708331
21521239 73 10592046856069580116
21637258 2 13190340196963442207
22122407 14 18131079272048904072
221357 26 11167945753784098114
22224240 67 18334011692513004423
22288116 15 15913317040241286733
23035841 295 8502652606572656413
23081809 10 15769783407584933271
23845131 108 16667653227074115492
246663 6 11025800886234197705
2767999 5 17489868236824574945
2838139 119 16917067763193900976
300161 21 18060135457804782958
312425 54 17603587434641056619
33532 11 11097861800355874009
3383291 50 16660937676861293379
351380 3 13045938023615346080
4340502 62 17894629249688689514
465052 167 12179847199688875394
504843 32 17846493777212613839
5104073 3 17750784464026497136
5207 217 15841549678644538367
5364581 5 17897170336523683469
54039377 194 11891329838307349088
636775 72 18339081481201459145
999808 66 9367336068791224069

> <PUBCHEM_SHAPE_MULTIPOLES>
426.14
23.02
1.78
1.14
2.01
0.17
-0.02
13.32
6.59
1.37
0.04
-0.78
-0.19
0.7

> <PUBCHEM_SHAPE_SELFOVERLAP>
888.89

> <PUBCHEM_SHAPE_VOLUME>
247

> <PUBCHEM_COORDINATE_TYPE>
2
5
10

$$$$
