2961937
  -OEChem-01171811483D

 37 40  0     1  0  0  0  0  0999 V2000
   -0.6949    1.6966   -2.1062 F   0  0  0  0  0  0  0  0  0  0  0  0
    1.0340    2.8787    2.9463 F   0  0  0  0  0  0  0  0  0  0  0  0
    2.3893   -2.2473    0.7671 O   0  0  0  0  0  0  0  0  0  0  0  0
   -0.9200   -2.6361    1.3193 N   0  0  0  0  0  0  0  0  0  0  0  0
    0.3500   -3.0208    1.5696 N   0  0  0  0  0  0  0  0  0  0  0  0
    4.4168   -1.5681   -0.1275 N   0  0  0  0  0  0  0  0  0  0  0  0
   -4.1485   -1.0857   -1.5190 N   0  0  0  0  0  0  0  0  0  0  0  0
    3.7289    1.1021   -2.4613 N   0  0  0  0  0  0  0  0  0  0  0  0
    0.8831   -0.2404   -0.7867 C   0  0  1  0  0  0  0  0  0  0  0  0
    0.2681   -1.2519    0.1079 C   0  0  0  0  0  0  0  0  0  0  0  0
    0.5128    1.0659   -0.1623 C   0  0  0  0  0  0  0  0  0  0  0  0
   -1.0226   -1.5883    0.4412 C   0  0  0  0  0  0  0  0  0  0  0  0
    2.4050   -0.4285   -0.8406 C   0  0  0  0  0  0  0  0  0  0  0  0
    1.0460   -2.1733    0.8181 C   0  0  0  0  0  0  0  0  0  0  0  0
    3.0625   -1.3695   -0.1037 C   0  0  0  0  0  0  0  0  0  0  0  0
   -2.2926   -1.0462    0.0284 C   0  0  0  0  0  0  0  0  0  0  0  0
   -0.2698    1.9784   -0.8668 C   0  0  0  0  0  0  0  0  0  0  0  0
    0.9534    1.3670    1.1249 C   0  0  0  0  0  0  0  0  0  0  0  0
    0.6100    2.5858    1.7100 C   0  0  0  0  0  0  0  0  0  0  0  0
   -0.6133    3.1970   -0.2815 C   0  0  0  0  0  0  0  0  0  0  0  0
   -2.8896   -0.0066    0.7316 C   0  0  0  0  0  0  0  0  0  0  0  0
    3.1366    0.4173   -1.7361 C   0  0  0  0  0  0  0  0  0  0  0  0
   -2.9559   -1.5468   -1.0796 C   0  0  0  0  0  0  0  0  0  0  0  0
   -0.1734    3.5008    1.0068 C   0  0  0  0  0  0  0  0  0  0  0  0
   -4.1164    0.4945    0.3105 C   0  0  0  0  0  0  0  0  0  0  0  0
   -4.6991   -0.0744   -0.8105 C   0  0  0  0  0  0  0  0  0  0  0  0
    0.4710   -0.3541   -1.7972 H   0  0  0  0  0  0  0  0  0  0  0  0
   -1.6698   -3.1393    1.7775 H   0  0  0  0  0  0  0  0  0  0  0  0
    1.5698    0.6813    1.6992 H   0  0  0  0  0  0  0  0  0  0  0  0
   -1.2234    3.9091   -0.8293 H   0  0  0  0  0  0  0  0  0  0  0  0
   -2.4136    0.4224    1.6098 H   0  0  0  0  0  0  0  0  0  0  0  0
   -2.5423   -2.3581   -1.6716 H   0  0  0  0  0  0  0  0  0  0  0  0
   -0.4404    4.4496    1.4625 H   0  0  0  0  0  0  0  0  0  0  0  0
    5.0169   -1.0019   -0.7129 H   0  0  0  0  0  0  0  0  0  0  0  0
    4.8132   -2.2942    0.4555 H   0  0  0  0  0  0  0  0  0  0  0  0
   -4.6008    1.3051    0.8428 H   0  0  0  0  0  0  0  0  0  0  0  0
   -5.6554    0.2808   -1.1799 H   0  0  0  0  0  0  0  0  0  0  0  0
  1 17  1  0  0  0  0
  2 19  1  0  0  0  0
  3 14  1  0  0  0  0
  3 15  1  0  0  0  0
  4  5  1  0  0  0  0
  4 12  1  0  0  0  0
  4 28  1  0  0  0  0
  5 14  2  0  0  0  0
  6 15  1  0  0  0  0
  6 34  1  0  0  0  0
  6 35  1  0  0  0  0
  7 23  1  0  0  0  0
  7 26  2  0  0  0  0
  8 22  3  0  0  0  0
  9 10  1  0  0  0  0
  9 11  1  0  0  0  0
  9 13  1  0  0  0  0
  9 27  1  0  0  0  0
 10 12  2  0  0  0  0
 10 14  1  0  0  0  0
 11 17  2  0  0  0  0
 11 18  1  0  0  0  0
 12 16  1  0  0  0  0
 13 15  2  0  0  0  0
 13 22  1  0  0  0  0
 16 21  1  0  0  0  0
 16 23  2  0  0  0  0
 17 20  1  0  0  0  0
 18 19  2  0  0  0  0
 18 29  1  0  0  0  0
 19 24  1  0  0  0  0
 20 24  2  0  0  0  0
 20 30  1  0  0  0  0
 21 25  2  0  0  0  0
 21 31  1  0  0  0  0
 23 32  1  0  0  0  0
 24 33  1  0  0  0  0
 25 26  1  0  0  0  0
 25 36  1  0  0  0  0
 26 37  1  0  0  0  0
M  END
> <PUBCHEM_COMPOUND_CID>
2961937

> <PUBCHEM_CONFORMER_RMSD>
0.6

> <PUBCHEM_CONFORMER_DIVERSEORDER>
1
18
8
11
13
17
4
12
3
16
7
9
5
15
2
14
6
10

> <PUBCHEM_MMFF94_PARTIAL_CHARGES>
36
1 -0.19
10 -0.18
11 -0.14
12 -0.2
13 -0.07
14 0.35
15 0.18
16 0.05
17 0.19
18 -0.15
19 0.19
2 -0.19
20 -0.15
21 -0.15
22 0.49
23 0.16
24 -0.15
25 -0.15
26 0.16
28 0.27
29 0.15
3 -0.14
30 0.15
31 0.15
32 0.15
33 0.15
34 0.4
35 0.4
36 0.15
37 0.15
4 0.3
5 -0.71
6 -0.9
7 -0.62
8 -0.56
9 0.46

> <PUBCHEM_EFFECTIVE_ROTOR_COUNT>
2.4

> <PUBCHEM_PHARMACOPHORE_FEATURES>
9
1 4 donor
1 6 cation
1 6 donor
1 7 acceptor
1 8 acceptor
5 4 5 10 12 14 rings
6 11 17 18 19 20 24 rings
6 3 9 10 13 14 15 rings
6 7 16 21 23 25 26 rings

> <PUBCHEM_HEAVY_ATOM_COUNT>
26

> <PUBCHEM_ATOM_DEF_STEREO_COUNT>
0

> <PUBCHEM_ATOM_UDEF_STEREO_COUNT>
1

> <PUBCHEM_BOND_DEF_STEREO_COUNT>
0

> <PUBCHEM_BOND_UDEF_STEREO_COUNT>
0

> <PUBCHEM_ISOTOPIC_ATOM_COUNT>
0

> <PUBCHEM_COMPONENT_COUNT>
1

> <PUBCHEM_CACTVS_TAUTO_COUNT>
4

> <PUBCHEM_CONFORMER_ID>
002D321100000001

> <PUBCHEM_MMFF94_ENERGY>
62.773

> <PUBCHEM_FEATURE_SELFOVERLAP>
45.789

> <PUBCHEM_SHAPE_FINGERPRINT>
10165383 225 17465418547656549269
104564 63 18193840327906877875
10764073 3 15734225137271018425
11578080 2 18264746819012556997
12293681 160 18265070157430510308
12788726 201 18198364891275421284
13134695 92 18271803561927091157
13140716 1 18187089494201389138
13149001 5 18123767605449199343
13583140 156 13254494467214146109
14068700 675 18337101264616328206
14787075 74 18412254043815040520
14955137 171 18129404643347505187
15210252 30 17676481731601095869
16752209 62 18263652757898083342
16945 1 18189067528287686844
18981168 100 17758123978961669547
20510252 161 18267302019831804426
20600515 1 18262815041711844068
20691752 17 18334284401234325033
20775438 99 17550363568976996607
22149856 69 17904490946379811739
23419403 2 18126534947599719412
23557571 272 17986954051293284990
238 59 17552923235939304047
2748010 2 17471299925068028751
392239 28 18197762324785781386
394222 165 17167869685873742658
5895379 119 16271111249497792441
7226269 152 18407760352745793538
81228 2 18054256287473717576
9981440 41 17263542805248609865

> <PUBCHEM_SHAPE_MULTIPOLES>
489.75
6.28
3.85
1.94
3.02
2.11
-0.05
-2.66
3.26
-0.78
-2.14
-0.88
0.96
-0.43

> <PUBCHEM_SHAPE_SELFOVERLAP>
1104.825

> <PUBCHEM_SHAPE_VOLUME>
257.4

> <PUBCHEM_COORDINATE_TYPE>
2
5
10

$$$$
