3617259
  -OEChem-01171811533D

 39 41  0     1  0  0  0  0  0999 V2000
    7.0287   -1.9763    0.4002 F   0  0  0  0  0  0  0  0  0  0  0  0
   -0.7427   -1.0371    0.0317 O   0  0  0  0  0  0  0  0  0  0  0  0
    0.0609    2.7476   -1.4040 O   0  0  0  0  0  0  0  0  0  0  0  0
    1.4847    0.3907   -2.0791 O   0  0  0  0  0  0  0  0  0  0  0  0
   -2.6915    0.2831    0.2987 N   0  0  0  0  0  0  0  0  0  0  0  0
   -2.9872    1.6087    0.5206 N   0  0  0  0  0  0  0  0  0  0  0  0
    2.2865    0.8412    0.1016 N   0  0  0  0  0  0  0  0  0  0  0  0
   -0.6599    1.3653    0.4307 C   0  0  1  0  0  0  0  0  0  0  0  0
   -1.8608    2.2422    0.6015 C   0  0  0  0  0  0  0  0  0  0  0  0
   -1.3140    0.0226    0.2286 C   0  0  0  0  0  0  0  0  0  0  0  0
    0.2277    1.7659   -0.6959 C   0  0  0  0  0  0  0  0  0  0  0  0
   -3.7231   -0.6320    0.1632 C   0  0  0  0  0  0  0  0  0  0  0  0
   -1.7506    3.7065    0.8548 C   0  0  0  0  0  0  0  0  0  0  0  0
    1.4218    0.8965   -0.9706 C   0  0  0  0  0  0  0  0  0  0  0  0
   -3.4437   -1.9834   -0.0708 C   0  0  0  0  0  0  0  0  0  0  0  0
   -5.0555   -0.2145    0.2601 C   0  0  0  0  0  0  0  0  0  0  0  0
    3.5001    0.1187    0.1786 C   0  0  0  0  0  0  0  0  0  0  0  0
   -4.4823   -2.9047   -0.2061 C   0  0  0  0  0  0  0  0  0  0  0  0
   -6.0942   -1.1357    0.1250 C   0  0  0  0  0  0  0  0  0  0  0  0
   -5.8075   -2.4807   -0.1082 C   0  0  0  0  0  0  0  0  0  0  0  0
    4.2506    0.1758    1.3415 C   0  0  0  0  0  0  0  0  0  0  0  0
    3.9138   -0.6299   -0.9112 C   0  0  0  0  0  0  0  0  0  0  0  0
    5.4482   -0.5355    1.4168 C   0  0  0  0  0  0  0  0  0  0  0  0
    5.1114   -1.3412   -0.8358 C   0  0  0  0  0  0  0  0  0  0  0  0
    5.8786   -1.2939    0.3281 C   0  0  0  0  0  0  0  0  0  0  0  0
   -0.1102    1.3662    1.3766 H   0  0  0  0  0  0  0  0  0  0  0  0
   -0.8755    3.9123    1.4763 H   0  0  0  0  0  0  0  0  0  0  0  0
   -2.6461    4.0636    1.3707 H   0  0  0  0  0  0  0  0  0  0  0  0
   -1.6558    4.2395   -0.0942 H   0  0  0  0  0  0  0  0  0  0  0  0
   -2.4455   -2.3895   -0.1587 H   0  0  0  0  0  0  0  0  0  0  0  0
   -5.3210    0.8237    0.4414 H   0  0  0  0  0  0  0  0  0  0  0  0
    2.0495    1.3770    0.9333 H   0  0  0  0  0  0  0  0  0  0  0  0
   -4.2605   -3.9524   -0.3875 H   0  0  0  0  0  0  0  0  0  0  0  0
   -7.1263   -0.8062    0.2013 H   0  0  0  0  0  0  0  0  0  0  0  0
   -6.6163   -3.1979   -0.2134 H   0  0  0  0  0  0  0  0  0  0  0  0
    3.9247    0.7635    2.1952 H   0  0  0  0  0  0  0  0  0  0  0  0
    3.3714   -0.7142   -1.8420 H   0  0  0  0  0  0  0  0  0  0  0  0
    6.0459   -0.4988    2.3228 H   0  0  0  0  0  0  0  0  0  0  0  0
    5.4478   -1.9325   -1.6825 H   0  0  0  0  0  0  0  0  0  0  0  0
  1 25  1  0  0  0  0
  2 10  2  0  0  0  0
  3 11  2  0  0  0  0
  4 14  2  0  0  0  0
  5  6  1  0  0  0  0
  5 10  1  0  0  0  0
  5 12  1  0  0  0  0
  6  9  2  0  0  0  0
  7 14  1  0  0  0  0
  7 17  1  0  0  0  0
  7 32  1  0  0  0  0
  8  9  1  0  0  0  0
  8 10  1  0  0  0  0
  8 11  1  0  0  0  0
  8 26  1  0  0  0  0
  9 13  1  0  0  0  0
 11 14  1  0  0  0  0
 12 15  2  0  0  0  0
 12 16  1  0  0  0  0
 13 27  1  0  0  0  0
 13 28  1  0  0  0  0
 13 29  1  0  0  0  0
 15 18  1  0  0  0  0
 15 30  1  0  0  0  0
 16 19  2  0  0  0  0
 16 31  1  0  0  0  0
 17 21  2  0  0  0  0
 17 22  1  0  0  0  0
 18 20  2  0  0  0  0
 18 33  1  0  0  0  0
 19 20  1  0  0  0  0
 19 34  1  0  0  0  0
 20 35  1  0  0  0  0
 21 23  1  0  0  0  0
 21 36  1  0  0  0  0
 22 24  2  0  0  0  0
 22 37  1  0  0  0  0
 23 25  2  0  0  0  0
 23 38  1  0  0  0  0
 24 25  1  0  0  0  0
 24 39  1  0  0  0  0
M  END
> <PUBCHEM_COMPOUND_CID>
3617259

> <PUBCHEM_CONFORMER_RMSD>
0.8

> <PUBCHEM_CONFORMER_DIVERSEORDER>
1
6
42
32
26
17
44
25
16
24
23
52
41
8
30
4
47
49
50
55
20
27
48
36
54
43
21
28
37
15
35
46
13
7
45
5
53
51
22
31
39
29
9
33
10
14
11
40
19
34
38
2
18
12
3

> <PUBCHEM_MMFF94_PARTIAL_CHARGES>
35
1 -0.19
10 0.57
11 0.51
12 0.12
13 0.06
14 0.63
15 -0.15
16 -0.15
17 0.12
18 -0.15
19 -0.15
2 -0.57
20 -0.15
21 -0.15
22 -0.15
23 -0.15
24 -0.15
25 0.19
3 -0.57
30 0.15
31 0.15
32 0.37
33 0.15
34 0.15
35 0.15
36 0.15
37 0.15
38 0.15
39 0.15
4 -0.57
5 -0.11
6 -0.51
7 -0.55
8 0.18
9 0.33

> <PUBCHEM_EFFECTIVE_ROTOR_COUNT>
5.4

> <PUBCHEM_PHARMACOPHORE_FEATURES>
9
1 2 acceptor
1 3 acceptor
1 4 acceptor
1 6 acceptor
1 7 donor
1 8 anion
5 5 6 8 9 10 rings
6 12 15 16 18 19 20 rings
6 17 21 22 23 24 25 rings

> <PUBCHEM_HEAVY_ATOM_COUNT>
25

> <PUBCHEM_ATOM_DEF_STEREO_COUNT>
0

> <PUBCHEM_ATOM_UDEF_STEREO_COUNT>
1

> <PUBCHEM_BOND_DEF_STEREO_COUNT>
0

> <PUBCHEM_BOND_UDEF_STEREO_COUNT>
0

> <PUBCHEM_ISOTOPIC_ATOM_COUNT>
0

> <PUBCHEM_COMPONENT_COUNT>
1

> <PUBCHEM_CACTVS_TAUTO_COUNT>
14

> <PUBCHEM_CONFORMER_ID>
003731EB00000001

> <PUBCHEM_MMFF94_ENERGY>
69.0735

> <PUBCHEM_FEATURE_SELFOVERLAP>
45.675

> <PUBCHEM_SHAPE_FINGERPRINT>
10319926 262 18130505215757953930
10622 236 16952227847628030410
10753850 27 18113897182276770315
11265709 11 18408605885413789833
12166972 35 17894914069996206215
12236239 1 18113622287121307212
12422481 6 17418100935658576463
12633257 1 16056596611805556863
12760667 363 18409448102957591619
12895836 83 8646768893643032351
13004483 165 18340201989768167716
13533116 47 18335421326486006424
13540713 5 18263667158818705021
13583140 156 17417519208292733108
13782708 43 17988368062128391814
13862211 1 18411699928630861707
14068700 675 18408041827142476444
14178342 30 18270694047294407693
14341114 328 13830136108929468671
14556957 393 15936987215042826102
15042514 8 18413392012554085401
15183329 4 14273449258573135558
15188451 53 18410849954296794346
15420108 30 17831017923407758577
15728490 51 18339357578566774330
17349148 13 18187091658384390263
1813 80 18113898290436498084
18222031 100 18114181943277924212
19784866 240 18040155127924695783
20028762 73 18413388761021677982
21267235 1 18335425681577511555
21585480 29 17414695855595817798
23522609 53 18120689939528872788
23557571 272 18060148604536041597
23559900 14 18339635750096988857
25147074 1 18188791499214223292
255183 313 18055092977696141473
2838139 119 8142089723673320202
3004659 81 18187366570624640630
312425 54 17774171097397101899
335352 9 18411983577372370045
351380 3 18186237337939467722
4340502 62 14979685415758584631
4409770 3 18336260125594939453
463206 1 18265052612336690587
5104073 3 18060142058705404401
543368 44 9583520915114564923
559249 180 18408040702636426875
56616090 89 18409445899222851720
5718773 13 18199180879802476327
59682541 52 15285626712062093074
59755656 215 18410854322326371127
77188 2 18340485681244246705
7970288 3 18336545009794644219
960060 61 16153426164584630518

> <PUBCHEM_SHAPE_MULTIPOLES>
474.66
15.29
3.2
1.16
8.48
1.65
-0.25
-14.94
2.94
-3.33
0.1
1.33
0.32
-0.64

> <PUBCHEM_SHAPE_SELFOVERLAP>
1037.105

> <PUBCHEM_SHAPE_VOLUME>
258.1

> <PUBCHEM_COORDINATE_TYPE>
2
5
10

$$$$
