3590761
  -OEChem-01171812033D

 43 45  0     1  0  0  0  0  0999 V2000
    0.2842   -2.3496    1.0014 O   0  0  0  0  0  0  0  0  0  0  0  0
    0.1422    3.8345   -0.0493 O   0  0  0  0  0  0  0  0  0  0  0  0
   -4.4979   -0.2211    1.7540 O   0  5  0  0  0  0  0  0  0  0  0  0
   -2.4380    0.3882    2.2059 O   0  0  0  0  0  0  0  0  0  0  0  0
    1.5447    2.0070   -0.4309 N   0  0  0  0  0  0  0  0  0  0  0  0
   -0.5648    1.7841    0.6166 N   0  0  0  0  0  0  0  0  0  0  0  0
   -3.3031   -0.0532    1.4132 N   0  3  0  0  0  0  0  0  0  0  0  0
    3.5948   -1.1776    0.1598 C   0  0  0  0  0  0  0  0  0  0  0  0
    3.2009    0.1297   -0.5595 C   0  0  0  0  0  0  0  0  0  0  0  0
    2.4515   -2.1863    0.0258 C   0  0  0  0  0  0  0  0  0  0  0  0
    1.8153    0.6468   -0.2206 C   0  0  0  0  0  0  0  0  0  0  0  0
    0.8544   -0.1604    0.2702 C   0  0  0  0  0  0  0  0  0  0  0  0
   -0.5297    0.3301    0.5941 C   0  0  2  0  0  0  0  0  0  0  0  0
    1.1325   -1.6167    0.4933 C   0  0  0  0  0  0  0  0  0  0  0  0
    3.9093   -0.9092    1.6469 C   0  0  0  0  0  0  0  0  0  0  0  0
    4.8608   -1.7559   -0.4981 C   0  0  0  0  0  0  0  0  0  0  0  0
   -1.5995   -0.2035   -0.3431 C   0  0  0  0  0  0  0  0  0  0  0  0
    0.3632    2.6222    0.0271 C   0  0  0  0  0  0  0  0  0  0  0  0
    2.5370    2.8575   -1.0881 C   0  0  0  0  0  0  0  0  0  0  0  0
   -2.9163   -0.3746    0.0829 C   0  0  0  0  0  0  0  0  0  0  0  0
   -1.2423   -0.5237   -1.6526 C   0  0  0  0  0  0  0  0  0  0  0  0
   -3.8767   -0.8662   -0.8012 C   0  0  0  0  0  0  0  0  0  0  0  0
   -2.2026   -1.0153   -2.5368 C   0  0  0  0  0  0  0  0  0  0  0  0
   -3.5198   -1.1867   -2.1110 C   0  0  0  0  0  0  0  0  0  0  0  0
    3.2422   -0.0180   -1.6474 H   0  0  0  0  0  0  0  0  0  0  0  0
    3.9632    0.8780   -0.3123 H   0  0  0  0  0  0  0  0  0  0  0  0
    2.6682   -3.0839    0.6178 H   0  0  0  0  0  0  0  0  0  0  0  0
    2.3187   -2.4998   -1.0171 H   0  0  0  0  0  0  0  0  0  0  0  0
   -0.6009   -0.0250    1.6211 H   0  0  0  0  0  0  0  0  0  0  0  0
    4.7450   -0.2076    1.7501 H   0  0  0  0  0  0  0  0  0  0  0  0
    3.0565   -0.4821    2.1842 H   0  0  0  0  0  0  0  0  0  0  0  0
    4.1909   -1.8353    2.1610 H   0  0  0  0  0  0  0  0  0  0  0  0
    4.6933   -1.9750   -1.5587 H   0  0  0  0  0  0  0  0  0  0  0  0
    5.6977   -1.0515   -0.4324 H   0  0  0  0  0  0  0  0  0  0  0  0
    5.1686   -2.6884   -0.0117 H   0  0  0  0  0  0  0  0  0  0  0  0
   -1.3953    2.2208    1.0054 H   0  0  0  0  0  0  0  0  0  0  0  0
    2.1065    3.8208   -1.3770 H   0  0  0  0  0  0  0  0  0  0  0  0
    2.9051    2.3733   -1.9975 H   0  0  0  0  0  0  0  0  0  0  0  0
    3.3595    3.0497   -0.3925 H   0  0  0  0  0  0  0  0  0  0  0  0
   -0.2362   -0.3862   -2.0359 H   0  0  0  0  0  0  0  0  0  0  0  0
   -4.9131   -1.0134   -0.5085 H   0  0  0  0  0  0  0  0  0  0  0  0
   -1.9265   -1.2600   -3.5583 H   0  0  0  0  0  0  0  0  0  0  0  0
   -4.2674   -1.5683   -2.8002 H   0  0  0  0  0  0  0  0  0  0  0  0
  1 14  2  0  0  0  0
  2 18  2  0  0  0  0
  3  7  1  0  0  0  0
  4  7  2  0  0  0  0
  5 11  1  0  0  0  0
  5 18  1  0  0  0  0
  5 19  1  0  0  0  0
  6 13  1  0  0  0  0
  6 18  1  0  0  0  0
  6 36  1  0  0  0  0
  7 20  1  0  0  0  0
  8  9  1  0  0  0  0
  8 10  1  0  0  0  0
  8 15  1  0  0  0  0
  8 16  1  0  0  0  0
  9 11  1  0  0  0  0
  9 25  1  0  0  0  0
  9 26  1  0  0  0  0
 10 14  1  0  0  0  0
 10 27  1  0  0  0  0
 10 28  1  0  0  0  0
 11 12  2  0  0  0  0
 12 13  1  0  0  0  0
 12 14  1  0  0  0  0
 13 17  1  0  0  0  0
 13 29  1  0  0  0  0
 15 30  1  0  0  0  0
 15 31  1  0  0  0  0
 15 32  1  0  0  0  0
 16 33  1  0  0  0  0
 16 34  1  0  0  0  0
 16 35  1  0  0  0  0
 17 20  1  0  0  0  0
 17 21  2  0  0  0  0
 19 37  1  0  0  0  0
 19 38  1  0  0  0  0
 19 39  1  0  0  0  0
 20 22  2  0  0  0  0
 21 23  1  0  0  0  0
 21 40  1  0  0  0  0
 22 24  1  0  0  0  0
 22 41  1  0  0  0  0
 23 24  2  0  0  0  0
 23 42  1  0  0  0  0
 24 43  1  0  0  0  0
M  CHG  2   3  -1   7   1
M  END
> <PUBCHEM_COMPOUND_CID>
3590761

> <PUBCHEM_CONFORMER_RMSD>
0.6

> <PUBCHEM_CONFORMER_DIVERSEORDER>
1
3
4
2

> <PUBCHEM_MMFF94_PARTIAL_CHARGES>
26
1 -0.57
10 0.06
11 -0.03
12 -0.12
13 0.58
14 0.49
17 -0.14
18 0.69
19 0.3
2 -0.57
20 0.13
21 -0.15
22 -0.15
23 -0.15
24 -0.15
3 -0.52
36 0.37
4 -0.52
40 0.15
41 0.15
42 0.15
43 0.15
5 -0.47
6 -0.73
7 0.91
9 0.14

> <PUBCHEM_EFFECTIVE_ROTOR_COUNT>
3.2

> <PUBCHEM_PHARMACOPHORE_FEATURES>
10
1 1 acceptor
1 2 acceptor
1 3 acceptor
1 3 anion
1 4 acceptor
1 6 donor
3 8 15 16 hydrophobe
6 17 20 21 22 23 24 rings
6 5 6 11 12 13 18 rings
6 8 9 10 11 12 14 rings

> <PUBCHEM_HEAVY_ATOM_COUNT>
24

> <PUBCHEM_ATOM_DEF_STEREO_COUNT>
0

> <PUBCHEM_ATOM_UDEF_STEREO_COUNT>
1

> <PUBCHEM_BOND_DEF_STEREO_COUNT>
0

> <PUBCHEM_BOND_UDEF_STEREO_COUNT>
0

> <PUBCHEM_ISOTOPIC_ATOM_COUNT>
0

> <PUBCHEM_COMPONENT_COUNT>
1

> <PUBCHEM_CACTVS_TAUTO_COUNT>
10

> <PUBCHEM_CONFORMER_ID>
0036CA6900000001

> <PUBCHEM_MMFF94_ENERGY>
82.3332

> <PUBCHEM_FEATURE_SELFOVERLAP>
50.847

> <PUBCHEM_SHAPE_FINGERPRINT>
10165383 225 17463438326714311013
10366900 7 17385712583032127415
10369192 42 17027710690690280572
104564 63 18194679268184962940
11578080 2 17772720888995025681
12160290 23 17688011034452047648
12236239 1 18060420222742169027
12553582 1 18409731733833798374
12596599 1 18273214230987666471
12633257 1 18262539043024534675
12788726 201 17902776475730741297
13009979 54 17775286109714771215
13140716 1 18263086677214197034
13583140 156 18335150795708003675
13782708 43 17458627843795857019
13911987 19 18113621179658561926
13965767 371 17485951647958358161
16945 1 18335136522471479614
17349148 13 18188761757119423890
17357779 13 18260821562706221948
1813 80 18342747273603621646
18219364 16 17896877853634970285
200 152 18261104132741707558
20600515 1 15913338970006417361
20645477 70 18187918542615123671
21041028 32 18337118873180433933
22112679 90 17917430951410107621
23175994 123 18187365389524451847
23402539 116 18338229359119531750
23419403 2 17604157011633829040
23557571 272 15266789934863293113
23598288 3 17904481796864048634
23598291 2 18202290233495692245
238 59 17900512847682254631
2748010 2 17407411238589036372
3286 77 18041010573967840723
34934 24 18120372047307415185
350125 39 17180821065086637044
474 4 17981318198985703760
6049 1 17095519625805762941
6992083 37 17989209222413282181
77492 1 18060142084780720693
7970288 3 18337111172621213618
81228 2 17902495000954373696
9981440 41 17048774112004673969

> <PUBCHEM_SHAPE_MULTIPOLES>
455.49
7.56
2.94
1.83
0.13
2.95
-0.09
-4.18
0.21
2.23
-0.47
-1.98
-0.44
-1.37

> <PUBCHEM_SHAPE_SELFOVERLAP>
988.384

> <PUBCHEM_SHAPE_VOLUME>
246.3

> <PUBCHEM_COORDINATE_TYPE>
2
5
10

$$$$
