679638
  -OEChem-01171812013D

 45 48  0     0  0  0  0  0  0999 V2000
   -1.9048    2.1486   -1.6106 O   0  0  0  0  0  0  0  0  0  0  0  0
   -5.4208   -0.0261    0.4518 O   0  0  0  0  0  0  0  0  0  0  0  0
    1.3754   -1.8299   -0.0137 N   0  0  0  0  0  0  0  0  0  0  0  0
   -0.1689   -0.1445   -0.6544 N   0  0  0  0  0  0  0  0  0  0  0  0
    4.0993   -2.6809   -0.0158 N   0  0  0  0  0  0  0  0  0  0  0  0
   -0.9902   -1.8491    0.5287 N   0  0  0  0  0  0  0  0  0  0  0  0
   -3.3231   -1.0530    0.5842 N   0  0  0  0  0  0  0  0  0  0  0  0
   -3.6431    1.0290   -0.5641 N   0  0  0  0  0  0  0  0  0  0  0  0
    2.0800   -2.0546    1.2545 C   0  0  0  0  0  0  0  0  0  0  0  0
    1.9053   -2.5809   -1.1562 C   0  0  0  0  0  0  0  0  0  0  0  0
    0.0913   -1.3310   -0.0171 C   0  0  0  0  0  0  0  0  0  0  0  0
    3.5811   -1.8444    1.0670 C   0  0  0  0  0  0  0  0  0  0  0  0
    3.4158   -2.3706   -1.2711 C   0  0  0  0  0  0  0  0  0  0  0  0
   -1.5018    0.1040   -0.5012 C   0  0  0  0  0  0  0  0  0  0  0  0
   -1.9811   -0.9549    0.2268 C   0  0  0  0  0  0  0  0  0  0  0  0
    0.7825    0.6879   -1.3559 C   0  0  0  0  0  0  0  0  0  0  0  0
   -2.3066    1.1900   -0.9579 C   0  0  0  0  0  0  0  0  0  0  0  0
    1.4099    1.7000   -0.4358 C   0  0  0  0  0  0  0  0  0  0  0  0
   -4.2158   -0.0301    0.1844 C   0  0  0  0  0  0  0  0  0  0  0  0
   -3.7952   -2.1929    1.3572 C   0  0  0  0  0  0  0  0  0  0  0  0
    0.6085    2.4119    0.4465 C   0  0  0  0  0  0  0  0  0  0  0  0
    2.7817    1.9083   -0.4812 C   0  0  0  0  0  0  0  0  0  0  0  0
    1.1899    3.3499    1.2995 C   0  0  0  0  0  0  0  0  0  0  0  0
    3.3632    2.8462    0.3720 C   0  0  0  0  0  0  0  0  0  0  0  0
    2.5672    3.5670    1.2623 C   0  0  0  0  0  0  0  0  0  0  0  0
    1.8748   -3.0725    1.6091 H   0  0  0  0  0  0  0  0  0  0  0  0
    1.7178   -1.3599    2.0224 H   0  0  0  0  0  0  0  0  0  0  0  0
    1.4243   -2.2724   -2.0919 H   0  0  0  0  0  0  0  0  0  0  0  0
    1.6819   -3.6465   -1.0181 H   0  0  0  0  0  0  0  0  0  0  0  0
    3.7956   -0.7891    0.8593 H   0  0  0  0  0  0  0  0  0  0  0  0
    4.1001   -2.1011    1.9967 H   0  0  0  0  0  0  0  0  0  0  0  0
    3.8095   -3.0190   -2.0613 H   0  0  0  0  0  0  0  0  0  0  0  0
    3.6342   -1.3371   -1.5665 H   0  0  0  0  0  0  0  0  0  0  0  0
    5.0984   -2.5097   -0.1249 H   0  0  0  0  0  0  0  0  0  0  0  0
    0.2754    1.1936   -2.1835 H   0  0  0  0  0  0  0  0  0  0  0  0
    1.5378    0.0470   -1.8176 H   0  0  0  0  0  0  0  0  0  0  0  0
   -4.2837    1.7641   -0.8514 H   0  0  0  0  0  0  0  0  0  0  0  0
   -3.2591   -2.2228    2.3107 H   0  0  0  0  0  0  0  0  0  0  0  0
   -3.5986   -3.1105    0.7942 H   0  0  0  0  0  0  0  0  0  0  0  0
   -4.8676   -2.1228    1.5562 H   0  0  0  0  0  0  0  0  0  0  0  0
   -0.4620    2.2897    0.5203 H   0  0  0  0  0  0  0  0  0  0  0  0
    3.4118    1.3534   -1.1705 H   0  0  0  0  0  0  0  0  0  0  0  0
    0.5709    3.9118    1.9929 H   0  0  0  0  0  0  0  0  0  0  0  0
    4.4357    3.0151    0.3432 H   0  0  0  0  0  0  0  0  0  0  0  0
    3.0199    4.2973    1.9265 H   0  0  0  0  0  0  0  0  0  0  0  0
  1 17  2  0  0  0  0
  2 19  2  0  0  0  0
  3  9  1  0  0  0  0
  3 10  1  0  0  0  0
  3 11  1  0  0  0  0
  4 11  1  0  0  0  0
  4 14  1  0  0  0  0
  4 16  1  0  0  0  0
  5 12  1  0  0  0  0
  5 13  1  0  0  0  0
  5 34  1  0  0  0  0
  6 11  2  0  0  0  0
  6 15  1  0  0  0  0
  7 15  1  0  0  0  0
  7 19  1  0  0  0  0
  7 20  1  0  0  0  0
  8 17  1  0  0  0  0
  8 19  1  0  0  0  0
  8 37  1  0  0  0  0
  9 12  1  0  0  0  0
  9 26  1  0  0  0  0
  9 27  1  0  0  0  0
 10 13  1  0  0  0  0
 10 28  1  0  0  0  0
 10 29  1  0  0  0  0
 12 30  1  0  0  0  0
 12 31  1  0  0  0  0
 13 32  1  0  0  0  0
 13 33  1  0  0  0  0
 14 15  2  0  0  0  0
 14 17  1  0  0  0  0
 16 18  1  0  0  0  0
 16 35  1  0  0  0  0
 16 36  1  0  0  0  0
 18 21  2  0  0  0  0
 18 22  1  0  0  0  0
 20 38  1  0  0  0  0
 20 39  1  0  0  0  0
 20 40  1  0  0  0  0
 21 23  1  0  0  0  0
 21 41  1  0  0  0  0
 22 24  2  0  0  0  0
 22 42  1  0  0  0  0
 23 25  2  0  0  0  0
 23 43  1  0  0  0  0
 24 25  1  0  0  0  0
 24 44  1  0  0  0  0
 25 45  1  0  0  0  0
M  END
> <PUBCHEM_COMPOUND_CID>
679638

> <PUBCHEM_CONFORMER_RMSD>
0.8

> <PUBCHEM_CONFORMER_DIVERSEORDER>
1
5
4
6
3
2

> <PUBCHEM_MMFF94_PARTIAL_CHARGES>
32
1 -0.57
10 0.37
11 0.27
12 0.27
13 0.27
14 -0.24
15 0.29
16 0.4
17 0.71
18 -0.14
19 0.69
2 -0.57
20 0.3
21 -0.15
22 -0.15
23 -0.15
24 -0.15
25 -0.15
3 -0.82
34 0.36
37 0.37
4 0.05
41 0.15
42 0.15
43 0.15
44 0.15
45 0.15
5 -0.9
6 -0.57
7 -0.42
8 -0.49
9 0.37

> <PUBCHEM_EFFECTIVE_ROTOR_COUNT>
4.2

> <PUBCHEM_PHARMACOPHORE_FEATURES>
10
1 1 acceptor
1 2 acceptor
1 5 cation
1 5 donor
1 8 donor
4 3 4 6 11 cation
5 4 6 11 14 15 rings
6 18 21 22 23 24 25 rings
6 3 5 9 10 12 13 rings
6 7 8 14 15 17 19 rings

> <PUBCHEM_HEAVY_ATOM_COUNT>
25

> <PUBCHEM_ATOM_DEF_STEREO_COUNT>
0

> <PUBCHEM_ATOM_UDEF_STEREO_COUNT>
0

> <PUBCHEM_BOND_DEF_STEREO_COUNT>
0

> <PUBCHEM_BOND_UDEF_STEREO_COUNT>
0

> <PUBCHEM_ISOTOPIC_ATOM_COUNT>
0

> <PUBCHEM_COMPONENT_COUNT>
1

> <PUBCHEM_CACTVS_TAUTO_COUNT>
3

> <PUBCHEM_CONFORMER_ID>
000A5ED600000001

> <PUBCHEM_MMFF94_ENERGY>
62.5547

> <PUBCHEM_FEATURE_SELFOVERLAP>
50.863

> <PUBCHEM_SHAPE_FINGERPRINT>
10764073 3 11832135215791235765
1100329 8 17908430151578081728
11112241 14 17128995456327132960
11578080 2 16879324780487340558
11680986 33 18333452062479229495
12422481 6 18119778474986318896
12633257 1 18267598922605141257
12788726 201 17691399712082038696
13140716 1 18334019393595153235
13149001 5 18046321081685339085
133893 2 17975654511859597494
13533116 47 18411419540528355195
14178342 30 17759250982622885995
14223421 5 18334574689436343603
14790565 3 17113261040600596700
14955137 171 18343587317878322214
15230672 131 17977384160601630492
15420108 30 18128530664040404014
15927050 60 18054229014890441142
17804303 29 18187930508863697087
1813 80 17630901399603688582
18785283 64 18409165545348519816
20028762 73 17259632963317805551
20510252 161 17830452782614437847
20600515 1 17683788931428601110
20691752 17 16805321123824735011
20905425 154 18335990839012091990
21033648 29 17344325775630337355
21041028 32 18270681939750003557
21524375 3 17908990151030661286
21731228 192 17835802276156153336
22182313 1 17895462688187144813
23419403 2 18115848763960751236
23557571 272 18122628245563737606
23559900 14 18113338622196546623
2748010 2 18187087286740770391
3298306 158 18339363093062397452
3411729 13 18335701697539908752
350125 39 18189340078660414893
5104073 3 18336281115189338411
58807428 26 17906450283502370088
5895379 119 17058111903846171401
59755656 215 18262799712593892647
7364860 26 18412829105096292574
81228 2 17549257034907716392

> <PUBCHEM_SHAPE_MULTIPOLES>
472.86
7.68
4.46
1.36
7.06
1.25
0.03
-1.56
-1.49
-5.7
-0.94
-0.25
0.02
1.75

> <PUBCHEM_SHAPE_SELFOVERLAP>
1029.62

> <PUBCHEM_SHAPE_VOLUME>
254.8

> <PUBCHEM_COORDINATE_TYPE>
2
5
10

$$$$
