2367271
  -OEChem-01171812073D

 26 27  0     0  0  0  0  0  0999 V2000
    0.6342   -2.8380   -0.1070 S   0  0  0  0  0  0  0  0  0  0  0  0
    0.8179    2.1292   -1.2639 O   0  0  0  0  0  0  0  0  0  0  0  0
    4.2951    0.1370    1.2361 O   0  0  0  0  0  0  0  0  0  0  0  0
    0.7204   -0.1454   -0.7376 N   0  0  0  0  0  0  0  0  0  0  0  0
    2.4970   -1.0937    0.5183 N   0  0  0  0  0  0  0  0  0  0  0  0
   -0.5652   -0.3052   -1.4288 C   0  0  0  0  0  0  0  0  0  0  0  0
   -1.7297   -0.0660   -0.5117 C   0  0  0  0  0  0  0  0  0  0  0  0
    1.3061    1.1298   -0.7283 C   0  0  0  0  0  0  0  0  0  0  0  0
    2.6186    1.2701   -0.0123 C   0  0  0  0  0  0  0  0  0  0  0  0
    1.2855   -1.2818   -0.1269 C   0  0  0  0  0  0  0  0  0  0  0  0
    3.2218    0.0710    0.6377 C   0  0  0  0  0  0  0  0  0  0  0  0
   -2.9287   -0.7331   -0.7345 C   0  0  0  0  0  0  0  0  0  0  0  0
   -1.5973    0.8197    0.5514 C   0  0  0  0  0  0  0  0  0  0  0  0
   -4.0105   -0.5112    0.1175 C   0  0  0  0  0  0  0  0  0  0  0  0
   -2.6793    1.0415    1.4035 C   0  0  0  0  0  0  0  0  0  0  0  0
   -3.8858    0.3760    1.1864 C   0  0  0  0  0  0  0  0  0  0  0  0
   -0.6327   -1.2821   -1.9168 H   0  0  0  0  0  0  0  0  0  0  0  0
   -0.6259    0.4348   -2.2370 H   0  0  0  0  0  0  0  0  0  0  0  0
    2.4833    2.0290    0.7672 H   0  0  0  0  0  0  0  0  0  0  0  0
    3.3471    1.6471   -0.7397 H   0  0  0  0  0  0  0  0  0  0  0  0
    2.9004   -1.9167    0.9576 H   0  0  0  0  0  0  0  0  0  0  0  0
   -3.0375   -1.4252   -1.5649 H   0  0  0  0  0  0  0  0  0  0  0  0
   -0.6890    1.3665    0.7693 H   0  0  0  0  0  0  0  0  0  0  0  0
   -4.9501   -1.0290   -0.0516 H   0  0  0  0  0  0  0  0  0  0  0  0
   -2.5834    1.7326    2.2358 H   0  0  0  0  0  0  0  0  0  0  0  0
   -4.7283    0.5489    1.8497 H   0  0  0  0  0  0  0  0  0  0  0  0
  1 10  2  0  0  0  0
  2  8  2  0  0  0  0
  3 11  2  0  0  0  0
  4  6  1  0  0  0  0
  4  8  1  0  0  0  0
  4 10  1  0  0  0  0
  5 10  1  0  0  0  0
  5 11  1  0  0  0  0
  5 21  1  0  0  0  0
  6  7  1  0  0  0  0
  6 17  1  0  0  0  0
  6 18  1  0  0  0  0
  7 12  2  0  0  0  0
  7 13  1  0  0  0  0
  8  9  1  0  0  0  0
  9 11  1  0  0  0  0
  9 19  1  0  0  0  0
  9 20  1  0  0  0  0
 12 14  1  0  0  0  0
 12 22  1  0  0  0  0
 13 15  2  0  0  0  0
 13 23  1  0  0  0  0
 14 16  2  0  0  0  0
 14 24  1  0  0  0  0
 15 16  1  0  0  0  0
 15 25  1  0  0  0  0
 16 26  1  0  0  0  0
M  END
> <PUBCHEM_COMPOUND_CID>
2367271

> <PUBCHEM_CONFORMER_RMSD>
0.6

> <PUBCHEM_CONFORMER_DIVERSEORDER>
2
4
3
1

> <PUBCHEM_MMFF94_PARTIAL_CHARGES>
22
1 -0.38
10 0.5
11 0.57
12 -0.15
13 -0.15
14 -0.15
15 -0.15
16 -0.15
2 -0.57
21 0.37
22 0.15
23 0.15
24 0.15
25 0.15
26 0.15
3 -0.57
4 -0.42
5 -0.49
6 0.44
7 -0.14
8 0.57
9 0.12

> <PUBCHEM_EFFECTIVE_ROTOR_COUNT>
2.6

> <PUBCHEM_PHARMACOPHORE_FEATURES>
7
1 1 acceptor
1 2 acceptor
1 3 acceptor
1 5 donor
1 9 anion
6 4 5 8 9 10 11 rings
6 7 12 13 14 15 16 rings

> <PUBCHEM_HEAVY_ATOM_COUNT>
16

> <PUBCHEM_ATOM_DEF_STEREO_COUNT>
0

> <PUBCHEM_ATOM_UDEF_STEREO_COUNT>
0

> <PUBCHEM_BOND_DEF_STEREO_COUNT>
0

> <PUBCHEM_BOND_UDEF_STEREO_COUNT>
0

> <PUBCHEM_ISOTOPIC_ATOM_COUNT>
0

> <PUBCHEM_COMPONENT_COUNT>
1

> <PUBCHEM_CACTVS_TAUTO_COUNT>
3

> <PUBCHEM_CONFORMER_ID>
00241F2700000002

> <PUBCHEM_MMFF94_ENERGY>
43.1925

> <PUBCHEM_FEATURE_SELFOVERLAP>
35.522

> <PUBCHEM_SHAPE_FINGERPRINT>
10219947 1 18260263057885670340
10498660 4 15913060755226375793
11031198 65 12391517481380954629
11471102 22 18113897148027645612
12251169 10 18335421283151010163
12633257 1 17821738238230958833
13764800 53 16486706796417423827
13965767 371 17412496561746549985
14178342 30 18410301289536624467
14787075 74 17843106267585761875
15207287 21 17313099748348663059
15209294 21 17988633108511647442
15309172 13 18334852835787259998
15375462 478 18343017783270368749
15527383 91 18124604076232034042
15775835 57 17775850107492188499
16945 1 18333736814125674983
200 152 18341879815043326079
201361 129 17988363659153663370
20559304 39 18341346517116984501
21069387 34 16298950995434562795
22445834 79 18342179908386909243
23402539 116 16773783831815707901
2748010 2 17974561408038164814
3286 77 17458347480856524293
568465 68 17313110730416209794
7364860 26 17702676423221515311
77492 1 18273212027769208909

> <PUBCHEM_SHAPE_MULTIPOLES>
311.42
6.71
1.99
1.28
1.16
1.1
-0.05
-0.96
2.92
-0.83
-0.13
0.13
-0.33
-0.76

> <PUBCHEM_SHAPE_SELFOVERLAP>
651.396

> <PUBCHEM_SHAPE_VOLUME>
176.3

> <PUBCHEM_COORDINATE_TYPE>
2
5
10

$$$$
