1485486
  -OEChem-01171811513D

 40 42  0     0  0  0  0  0  0999 V2000
    0.1973    2.1921    0.1210 O   0  0  0  0  0  0  0  0  0  0  0  0
    6.7841   -1.4977   -0.1307 O   0  0  0  0  0  0  0  0  0  0  0  0
   -1.6314    0.7842    0.3319 N   0  0  0  0  0  0  0  0  0  0  0  0
    0.5480   -0.1064    0.1622 N   0  0  0  0  0  0  0  0  0  0  0  0
   -2.5472    1.9072    0.5429 C   0  0  0  0  0  0  0  0  0  0  0  0
   -3.7458    1.8181   -0.3926 C   0  0  0  0  0  0  0  0  0  0  0  0
   -2.2182   -0.5647    0.4210 C   0  0  0  0  0  0  0  0  0  0  0  0
   -4.4346    0.4893   -0.2469 C   0  0  0  0  0  0  0  0  0  0  0  0
   -3.6990   -0.6429    0.1407 C   0  0  0  0  0  0  0  0  0  0  0  0
   -5.7998    0.3662   -0.5375 C   0  0  0  0  0  0  0  0  0  0  0  0
   -4.3511   -1.8793    0.2545 C   0  0  0  0  0  0  0  0  0  0  0  0
   -0.2452    1.0435    0.1913 C   0  0  0  0  0  0  0  0  0  0  0  0
   -6.4369   -0.8686   -0.4201 C   0  0  0  0  0  0  0  0  0  0  0  0
   -5.7138   -1.9900   -0.0219 C   0  0  0  0  0  0  0  0  0  0  0  0
    1.9612   -0.1801    0.0820 C   0  0  0  0  0  0  0  0  0  0  0  0
    2.7109    0.9880   -0.0286 C   0  0  0  0  0  0  0  0  0  0  0  0
    2.5924   -1.4207    0.1141 C   0  0  0  0  0  0  0  0  0  0  0  0
    4.7377   -0.3261   -0.0759 C   0  0  0  0  0  0  0  0  0  0  0  0
    4.1017    0.9149   -0.1077 C   0  0  0  0  0  0  0  0  0  0  0  0
    3.9831   -1.4939    0.0351 C   0  0  0  0  0  0  0  0  0  0  0  0
    6.1875   -0.4027   -0.1573 C   0  0  0  0  0  0  0  0  0  0  0  0
    7.0192    0.8698   -0.2777 C   0  0  0  0  0  0  0  0  0  0  0  0
   -2.0372    2.8643    0.3954 H   0  0  0  0  0  0  0  0  0  0  0  0
   -2.8654    1.8680    1.5925 H   0  0  0  0  0  0  0  0  0  0  0  0
   -3.4228    1.9303   -1.4347 H   0  0  0  0  0  0  0  0  0  0  0  0
   -4.4396    2.6346   -0.1616 H   0  0  0  0  0  0  0  0  0  0  0  0
   -2.0129   -0.9333    1.4328 H   0  0  0  0  0  0  0  0  0  0  0  0
   -1.7191   -1.2147   -0.3052 H   0  0  0  0  0  0  0  0  0  0  0  0
   -6.3745    1.2329   -0.8540 H   0  0  0  0  0  0  0  0  0  0  0  0
   -3.7965   -2.7648    0.5551 H   0  0  0  0  0  0  0  0  0  0  0  0
   -7.4966   -0.9559   -0.6415 H   0  0  0  0  0  0  0  0  0  0  0  0
   -6.2093   -2.9522    0.0683 H   0  0  0  0  0  0  0  0  0  0  0  0
    0.0998   -1.0097    0.2642 H   0  0  0  0  0  0  0  0  0  0  0  0
    2.3022    1.9865   -0.0679 H   0  0  0  0  0  0  0  0  0  0  0  0
    2.0156   -2.3380    0.2002 H   0  0  0  0  0  0  0  0  0  0  0  0
    4.6518    1.8468   -0.1947 H   0  0  0  0  0  0  0  0  0  0  0  0
    4.4555   -2.4723    0.0621 H   0  0  0  0  0  0  0  0  0  0  0  0
    6.8705    1.5034    0.6005 H   0  0  0  0  0  0  0  0  0  0  0  0
    6.7648    1.4022   -1.1979 H   0  0  0  0  0  0  0  0  0  0  0  0
    8.0794    0.6012   -0.3250 H   0  0  0  0  0  0  0  0  0  0  0  0
  1 12  2  0  0  0  0
  2 21  2  0  0  0  0
  3  5  1  0  0  0  0
  3  7  1  0  0  0  0
  3 12  1  0  0  0  0
  4 12  1  0  0  0  0
  4 15  1  0  0  0  0
  4 33  1  0  0  0  0
  5  6  1  0  0  0  0
  5 23  1  0  0  0  0
  5 24  1  0  0  0  0
  6  8  1  0  0  0  0
  6 25  1  0  0  0  0
  6 26  1  0  0  0  0
  7  9  1  0  0  0  0
  7 27  1  0  0  0  0
  7 28  1  0  0  0  0
  8  9  1  0  0  0  0
  8 10  2  0  0  0  0
  9 11  2  0  0  0  0
 10 13  1  0  0  0  0
 10 29  1  0  0  0  0
 11 14  1  0  0  0  0
 11 30  1  0  0  0  0
 13 14  2  0  0  0  0
 13 31  1  0  0  0  0
 14 32  1  0  0  0  0
 15 16  2  0  0  0  0
 15 17  1  0  0  0  0
 16 19  1  0  0  0  0
 16 34  1  0  0  0  0
 17 20  2  0  0  0  0
 17 35  1  0  0  0  0
 18 19  2  0  0  0  0
 18 20  1  0  0  0  0
 18 21  1  0  0  0  0
 19 36  1  0  0  0  0
 20 37  1  0  0  0  0
 21 22  1  0  0  0  0
 22 38  1  0  0  0  0
 22 39  1  0  0  0  0
 22 40  1  0  0  0  0
M  END
> <PUBCHEM_COMPOUND_CID>
1485486

> <PUBCHEM_CONFORMER_RMSD>
0.8

> <PUBCHEM_CONFORMER_DIVERSEORDER>
1
30
45
41
7
19
44
33
11
35
5
31
37
25
42
17
38
34
13
39
32
26
3
20
22
28
12
16
8
23
48
40
10
27
9
24
14
4
36
21
18
6
29
47
46
15
43
2

> <PUBCHEM_MMFF94_PARTIAL_CHARGES>
31
1 -0.57
10 -0.15
11 -0.15
12 0.69
13 -0.15
14 -0.15
15 0.12
16 -0.15
17 -0.15
18 0.09
19 -0.15
2 -0.57
20 -0.15
21 0.42
22 0.06
29 0.15
3 -0.66
30 0.15
31 0.15
32 0.15
33 0.37
34 0.15
35 0.15
36 0.15
37 0.15
4 -0.55
5 0.3
6 0.14
7 0.44
8 -0.14
9 -0.14

> <PUBCHEM_EFFECTIVE_ROTOR_COUNT>
4.8

> <PUBCHEM_PHARMACOPHORE_FEATURES>
6
1 1 acceptor
1 2 acceptor
1 4 donor
6 15 16 17 18 19 20 rings
6 3 5 6 7 8 9 rings
6 8 9 10 11 13 14 rings

> <PUBCHEM_HEAVY_ATOM_COUNT>
22

> <PUBCHEM_ATOM_DEF_STEREO_COUNT>
0

> <PUBCHEM_ATOM_UDEF_STEREO_COUNT>
0

> <PUBCHEM_BOND_DEF_STEREO_COUNT>
0

> <PUBCHEM_BOND_UDEF_STEREO_COUNT>
0

> <PUBCHEM_ISOTOPIC_ATOM_COUNT>
0

> <PUBCHEM_COMPONENT_COUNT>
1

> <PUBCHEM_CACTVS_TAUTO_COUNT>
9

> <PUBCHEM_CONFORMER_ID>
0016AAAE00000001

> <PUBCHEM_MMFF94_ENERGY>
65.3127

> <PUBCHEM_FEATURE_SELFOVERLAP>
30.47

> <PUBCHEM_SHAPE_FINGERPRINT>
10 15 18200581597607137488
10595046 47 18408324363450752432
10835480 77 18410846685985593821
10968037 39 18409449193810440071
11089746 13 13767929043748950942
11315181 36 18273217508596059905
11524674 6 16487255491269187711
11719270 70 18413102841217851002
11963148 33 18341888602336625574
12107183 9 17616530657889696131
12166972 35 18186804699025022132
12236239 1 18334858303586323134
12516196 113 18273493481102505328
12760667 363 18343865533217149467
13288520 33 18412825798688860317
13631057 29 18413106169384267923
13668630 136 17847066583719807118
13685833 64 18413110580120540955
13862211 1 18409730643291705602
14123256 10 18408604773096108614
1420 363 18060702792719047974
14251718 22 18409729556190102472
14251732 16 18412261757634495200
14461889 52 18341043104175281266
14849402 71 12247095568728138218
14931854 50 18186511108314801619
15183329 4 18259697887740183563
15196674 1 18410575067509596571
15352361 1 18411418427831248953
15716309 27 17775566442034768422
15927050 60 17552915548449581916
16087824 20 18337954464756048197
17844677 252 18412832390683457649
17857418 61 18409448081002499283
18681886 176 18410853283386968480
19489759 90 18113618980344531945
200 152 18272087184218755016
20028762 73 18412824664765584646
21054139 6 18187363238062672610
21150785 3 17313386750969018614
21236236 1 18341333310488259697
21267235 1 18410579500385331467
21521721 280 17274820303205266874
21623969 137 17489873717588174950
22224240 67 16343980321460533326
22896161 15 18412825811310005060
23035841 295 18411700980538795931
23198884 109 16225764112633702379
23402539 116 18408602552292061574
23522609 53 18124348031620137321
23559900 14 18338510958376098145
249999 5 17914887880127163504
2838139 119 10881400958874747451
3004659 81 18187361047307175888
329604 57 18412830200244589024
335352 9 18410851059074061101
34797466 226 17060344050591038452
3545911 37 18408603651740476665
4073 2 18041005059098230418
4214541 1 18410011009845262769
4325135 7 18407760348144832494
465052 167 18131635599357407094
5104073 3 18201153261268610736
5283173 99 18188202100983931941
5385378 56 8141822611204683237
559249 180 18411135819194045325
59682541 35 18130494302826213082
59755656 215 18410014312749375902
59755656 520 17167858690594707995
67856867 119 18261396705787531844
7062679 117 18410013230269190003
7495541 125 17846494863727951968
999808 66 18041008379793876067

> <PUBCHEM_SHAPE_MULTIPOLES>
431.05
18.8
2.03
0.67
10.84
0.1
-0.01
-5.83
-2.79
-1.28
0.09
-0.22
0.03
0.04

> <PUBCHEM_SHAPE_SELFOVERLAP>
928.601

> <PUBCHEM_SHAPE_VOLUME>
236.1

> <PUBCHEM_COORDINATE_TYPE>
2
5
10

$$$$
