4460044
  -OEChem-01171811573D

 39 41  0     0  0  0  0  0  0999 V2000
   -2.8204   -2.4417    1.0412 O   0  0  0  0  0  0  0  0  0  0  0  0
    5.7124    0.0479    0.1737 O   0  0  0  0  0  0  0  0  0  0  0  0
    5.0204   -1.6680   -1.1958 O   0  0  0  0  0  0  0  0  0  0  0  0
   -1.6714   -0.4904    0.6246 N   0  0  0  0  0  0  0  0  0  0  0  0
   -0.4083    1.4870    0.2193 N   0  0  0  0  0  0  0  0  0  0  0  0
   -4.0180    0.7217   -0.1941 C   0  0  0  0  0  0  0  0  0  0  0  0
   -4.0675   -0.6136    0.2265 C   0  0  0  0  0  0  0  0  0  0  0  0
   -1.6087    0.8286    0.2119 C   0  0  0  0  0  0  0  0  0  0  0  0
   -2.7413    1.4365   -0.1907 C   0  0  0  0  0  0  0  0  0  0  0  0
   -2.8150   -1.2729    0.6672 C   0  0  0  0  0  0  0  0  0  0  0  0
    0.8706    0.9547    0.0385 C   0  0  0  0  0  0  0  0  0  0  0  0
   -5.1950    1.3517   -0.6118 C   0  0  0  0  0  0  0  0  0  0  0  0
   -5.2771   -1.3147    0.2312 C   0  0  0  0  0  0  0  0  0  0  0  0
    1.0621   -0.1799   -0.7620 C   0  0  0  0  0  0  0  0  0  0  0  0
    1.9808    1.5468    0.6563 C   0  0  0  0  0  0  0  0  0  0  0  0
   -6.4038    0.6531   -0.6077 C   0  0  0  0  0  0  0  0  0  0  0  0
   -6.4443   -0.6763   -0.1873 C   0  0  0  0  0  0  0  0  0  0  0  0
    3.4367   -0.1148   -0.3216 C   0  0  0  0  0  0  0  0  0  0  0  0
    2.3391   -0.7121   -0.9411 C   0  0  0  0  0  0  0  0  0  0  0  0
    3.2576    1.0147    0.4771 C   0  0  0  0  0  0  0  0  0  0  0  0
    4.7679   -0.6704   -0.5074 C   0  0  0  0  0  0  0  0  0  0  0  0
    7.0676   -0.4014    0.0679 C   0  0  0  0  0  0  0  0  0  0  0  0
    7.9556    0.5136    0.8837 C   0  0  0  0  0  0  0  0  0  0  0  0
   -2.7361    2.4702   -0.5234 H   0  0  0  0  0  0  0  0  0  0  0  0
   -0.8069   -0.9153    0.9456 H   0  0  0  0  0  0  0  0  0  0  0  0
   -0.4544    2.5009    0.2395 H   0  0  0  0  0  0  0  0  0  0  0  0
   -5.1852    2.3873   -0.9431 H   0  0  0  0  0  0  0  0  0  0  0  0
   -5.3294   -2.3502    0.5548 H   0  0  0  0  0  0  0  0  0  0  0  0
    0.2342   -0.6547   -1.2823 H   0  0  0  0  0  0  0  0  0  0  0  0
    1.8549    2.4271    1.2824 H   0  0  0  0  0  0  0  0  0  0  0  0
   -7.3153    1.1463   -0.9328 H   0  0  0  0  0  0  0  0  0  0  0  0
   -7.3872   -1.2154   -0.1859 H   0  0  0  0  0  0  0  0  0  0  0  0
    2.4577   -1.5892   -1.5720 H   0  0  0  0  0  0  0  0  0  0  0  0
    4.0824    1.5125    0.9792 H   0  0  0  0  0  0  0  0  0  0  0  0
    7.1414   -1.4264    0.4475 H   0  0  0  0  0  0  0  0  0  0  0  0
    7.3768   -0.3796   -0.9829 H   0  0  0  0  0  0  0  0  0  0  0  0
    9.0011    0.1984    0.8250 H   0  0  0  0  0  0  0  0  0  0  0  0
    7.8766    1.5458    0.5268 H   0  0  0  0  0  0  0  0  0  0  0  0
    7.6451    0.5160    1.9338 H   0  0  0  0  0  0  0  0  0  0  0  0
  1 10  2  0  0  0  0
  2 21  1  0  0  0  0
  2 22  1  0  0  0  0
  3 21  2  0  0  0  0
  4  8  1  0  0  0  0
  4 10  1  0  0  0  0
  4 25  1  0  0  0  0
  5  8  1  0  0  0  0
  5 11  1  0  0  0  0
  5 26  1  0  0  0  0
  6  7  1  0  0  0  0
  6  9  1  0  0  0  0
  6 12  2  0  0  0  0
  7 10  1  0  0  0  0
  7 13  2  0  0  0  0
  8  9  2  0  0  0  0
  9 24  1  0  0  0  0
 11 14  2  0  0  0  0
 11 15  1  0  0  0  0
 12 16  1  0  0  0  0
 12 27  1  0  0  0  0
 13 17  1  0  0  0  0
 13 28  1  0  0  0  0
 14 19  1  0  0  0  0
 14 29  1  0  0  0  0
 15 20  2  0  0  0  0
 15 30  1  0  0  0  0
 16 17  2  0  0  0  0
 16 31  1  0  0  0  0
 17 32  1  0  0  0  0
 18 19  2  0  0  0  0
 18 20  1  0  0  0  0
 18 21  1  0  0  0  0
 19 33  1  0  0  0  0
 20 34  1  0  0  0  0
 22 23  1  0  0  0  0
 22 35  1  0  0  0  0
 22 36  1  0  0  0  0
 23 37  1  0  0  0  0
 23 38  1  0  0  0  0
 23 39  1  0  0  0  0
M  END
> <PUBCHEM_COMPOUND_CID>
4460044

> <PUBCHEM_CONFORMER_RMSD>
0.8

> <PUBCHEM_CONFORMER_DIVERSEORDER>
1
11
22
14
27
3
26
28
4
25
15
7
2
21
8
6
20
18
5
12
13
17
10
23
19
9
16
24

> <PUBCHEM_MMFF94_PARTIAL_CHARGES>
33
1 -0.57
10 0.54
11 0.1
12 -0.15
13 -0.15
14 -0.15
15 -0.15
16 -0.15
17 -0.15
18 0.09
19 -0.15
2 -0.43
20 -0.15
21 0.63
22 0.28
24 0.15
25 0.37
26 0.4
27 0.15
28 0.15
29 0.15
3 -0.57
30 0.15
31 0.15
32 0.15
33 0.15
34 0.15
4 -0.54
5 -0.6
6 0.03
7 0.09
8 0.21
9 -0.18

> <PUBCHEM_EFFECTIVE_ROTOR_COUNT>
5

> <PUBCHEM_PHARMACOPHORE_FEATURES>
8
1 1 acceptor
1 3 acceptor
1 4 donor
1 5 cation
1 5 donor
6 11 14 15 18 19 20 rings
6 4 6 7 8 9 10 rings
6 6 7 12 13 16 17 rings

> <PUBCHEM_HEAVY_ATOM_COUNT>
23

> <PUBCHEM_ATOM_DEF_STEREO_COUNT>
0

> <PUBCHEM_ATOM_UDEF_STEREO_COUNT>
0

> <PUBCHEM_BOND_DEF_STEREO_COUNT>
0

> <PUBCHEM_BOND_UDEF_STEREO_COUNT>
0

> <PUBCHEM_ISOTOPIC_ATOM_COUNT>
0

> <PUBCHEM_COMPONENT_COUNT>
1

> <PUBCHEM_CACTVS_TAUTO_COUNT>
9

> <PUBCHEM_CONFORMER_ID>
00440E0C00000001

> <PUBCHEM_MMFF94_ENERGY>
75.639

> <PUBCHEM_FEATURE_SELFOVERLAP>
40.654

> <PUBCHEM_SHAPE_FINGERPRINT>
10 15 18272642481748327992
106641 1 16558745749928028166
10670039 82 17604139355941401005
10835480 77 18270677571784308804
11089746 13 16225768519117473100
11315181 36 18202284714721329193
11719270 70 18342174458685600350
11796584 16 18187087269344837898
12236239 1 16660366990901338436
12516196 113 18130788949708328424
12596602 18 14405188339419251038
12838862 33 18338499894144327687
13288520 33 18408604769165300621
13402501 40 18413110550119183951
13533116 47 15123513558554295894
13544592 145 18409448111642335289
13685833 64 18272934916590040480
14251752 14 17603301540063532101
14251764 18 18408040719467954516
14251764 46 18113335310381180717
14294032 229 17386838419517002213
14386348 63 18342179972684597343
15119646 104 16805593734468735586
15183329 4 17967811630672142035
17093844 174 18409166589621704417
19489759 90 18261111868315047573
200 152 17418094300118544329
21095086 128 14056723457076928625
21130935 74 17917435276479572358
21267235 1 18187931720635045435
21623969 137 17846501413837863102
21682296 61 17344644647251206926
2215653 11 18412823577831955447
22224240 67 16917062274800728910
23035841 295 17967812751827554128
23198884 109 15574716902327892533
23402539 116 18334855013773490341
23559900 14 18410289241879156521
26918003 58 18343585148360447681
29717793 49 16009032757439008238
3004659 81 18186800292372439968
335352 9 18334573551998166661
347723 3 15213019349741853124
4015057 19 18129933607256420065
4073 2 18041564753719298146
4325135 7 18333734637642931260
5104073 3 17845375441069511898
5283173 99 18409728418325177021
542803 24 15936411139178268901
559249 180 18040996245941233811
5758199 1 14764625322611840886
59682541 35 18060129973679828290
59755656 215 18334576815181976206
59755656 520 14996285833745898257
6138700 20 18409167688927486703
9709674 26 18265898149952579985

> <PUBCHEM_SHAPE_MULTIPOLES>
445.76
19.38
1.68
0.91
16.94
0.3
0.04
2.23
-0.01
-1.14
-0.19
0.34
0.17
1.63

> <PUBCHEM_SHAPE_SELFOVERLAP>
971.25

> <PUBCHEM_SHAPE_VOLUME>
241.8

> <PUBCHEM_COORDINATE_TYPE>
2
5
10

$$$$
