5339240
  -OEChem-01171811433D

 31 32  0     0  0  0  0  0  0999 V2000
   -2.7300    2.7060    0.3269 Cl  0  0  0  0  0  0  0  0  0  0  0  0
   -2.5219   -2.7510    0.3771 Cl  0  0  0  0  0  0  0  0  0  0  0  0
    3.2067    0.2029    0.5637 N   0  0  0  0  0  0  0  0  0  0  0  0
    3.5500    0.1916   -1.5973 N   0  0  0  0  0  0  0  0  0  0  0  0
    0.8501    0.1118    0.6341 N   0  0  0  0  0  0  0  0  0  0  0  0
    2.1888    0.1412   -1.3723 N   0  0  0  0  0  0  0  0  0  0  0  0
    3.4462    0.2282    1.9571 N   0  0  0  0  0  0  0  0  0  0  0  0
   -0.3400    0.0609    0.0046 N   0  0  0  0  0  0  0  0  0  0  0  0
    4.1428    0.2283   -0.4252 C   0  0  0  0  0  0  0  0  0  0  0  0
    5.5937    0.2881   -0.1687 C   0  0  0  0  0  0  0  0  0  0  0  0
    2.0469    0.1501   -0.0982 C   0  0  0  0  0  0  0  0  0  0  0  0
    6.2368   -1.0983   -0.0487 C   0  0  0  0  0  0  0  0  0  0  0  0
   -2.7394   -0.0273    0.3118 C   0  0  0  0  0  0  0  0  0  0  0  0
   -1.3638    0.0298    0.8042 C   0  0  0  0  0  0  0  0  0  0  0  0
   -3.4414    1.1526    0.0655 C   0  0  0  0  0  0  0  0  0  0  0  0
   -3.3491   -1.2615    0.0869 C   0  0  0  0  0  0  0  0  0  0  0  0
   -4.7530    1.0983   -0.4058 C   0  0  0  0  0  0  0  0  0  0  0  0
   -4.6607   -1.3159   -0.3846 C   0  0  0  0  0  0  0  0  0  0  0  0
   -5.3626   -0.1359   -0.6310 C   0  0  0  0  0  0  0  0  0  0  0  0
    6.0761    0.8219   -0.9968 H   0  0  0  0  0  0  0  0  0  0  0  0
    5.8144    0.8693    0.7337 H   0  0  0  0  0  0  0  0  0  0  0  0
    5.8109   -1.6592    0.7898 H   0  0  0  0  0  0  0  0  0  0  0  0
    7.3146   -1.0019    0.1152 H   0  0  0  0  0  0  0  0  0  0  0  0
    6.0789   -1.6835   -0.9609 H   0  0  0  0  0  0  0  0  0  0  0  0
    0.8758    0.1238    1.6509 H   0  0  0  0  0  0  0  0  0  0  0  0
    3.8893    1.0956    2.2570 H   0  0  0  0  0  0  0  0  0  0  0  0
    4.0605   -0.5269    2.2586 H   0  0  0  0  0  0  0  0  0  0  0  0
   -1.2512    0.0446    1.9044 H   0  0  0  0  0  0  0  0  0  0  0  0
   -5.3143    2.0082   -0.6031 H   0  0  0  0  0  0  0  0  0  0  0  0
   -5.1509   -2.2693   -0.5653 H   0  0  0  0  0  0  0  0  0  0  0  0
   -6.3839   -0.1781   -0.9982 H   0  0  0  0  0  0  0  0  0  0  0  0
  1 15  1  0  0  0  0
  2 16  1  0  0  0  0
  3  7  1  0  0  0  0
  3  9  1  0  0  0  0
  3 11  1  0  0  0  0
  4  6  1  0  0  0  0
  4  9  2  0  0  0  0
  5  8  1  0  0  0  0
  5 11  1  0  0  0  0
  5 25  1  0  0  0  0
  6 11  2  0  0  0  0
  7 26  1  0  0  0  0
  7 27  1  0  0  0  0
  8 14  2  0  0  0  0
  9 10  1  0  0  0  0
 10 12  1  0  0  0  0
 10 20  1  0  0  0  0
 10 21  1  0  0  0  0
 12 22  1  0  0  0  0
 12 23  1  0  0  0  0
 12 24  1  0  0  0  0
 13 14  1  0  0  0  0
 13 15  2  0  0  0  0
 13 16  1  0  0  0  0
 14 28  1  0  0  0  0
 15 17  1  0  0  0  0
 16 18  2  0  0  0  0
 17 19  2  0  0  0  0
 17 29  1  0  0  0  0
 18 19  1  0  0  0  0
 18 30  1  0  0  0  0
 19 31  1  0  0  0  0
M  END
> <PUBCHEM_COMPOUND_CID>
5339240

> <PUBCHEM_CONFORMER_RMSD>
0.6

> <PUBCHEM_CONFORMER_DIVERSEORDER>
1
38
30
22
37
5
40
4
9
41
28
23
11
36
6
24
29
39
2
32
25
20
3
33
19
21
12
18
34
17
35
26
10
16
8
27
13
14
31
15
7

> <PUBCHEM_MMFF94_PARTIAL_CHARGES>
25
1 -0.18
10 0.18
11 0.27
13 0.09
14 0.3
15 0.18
16 0.18
17 -0.15
18 -0.15
19 -0.15
2 -0.18
25 0.4
26 0.36
27 0.36
28 0.06
29 0.15
3 0.45
30 0.15
31 0.15
4 -0.34
5 -0.44
6 -0.34
7 -0.87
8 -0.49
9 0.01

> <PUBCHEM_EFFECTIVE_ROTOR_COUNT>
4

> <PUBCHEM_PHARMACOPHORE_FEATURES>
7
1 12 hydrophobe
1 5 donor
1 7 donor
1 8 acceptor
4 3 5 6 11 cation
5 3 4 6 9 11 rings
6 13 15 16 17 18 19 rings

> <PUBCHEM_HEAVY_ATOM_COUNT>
19

> <PUBCHEM_ATOM_DEF_STEREO_COUNT>
0

> <PUBCHEM_ATOM_UDEF_STEREO_COUNT>
0

> <PUBCHEM_BOND_DEF_STEREO_COUNT>
1

> <PUBCHEM_BOND_UDEF_STEREO_COUNT>
0

> <PUBCHEM_ISOTOPIC_ATOM_COUNT>
0

> <PUBCHEM_COMPONENT_COUNT>
1

> <PUBCHEM_CACTVS_TAUTO_COUNT>
2

> <PUBCHEM_CONFORMER_ID>
0051786800000001

> <PUBCHEM_MMFF94_ENERGY>
39.644

> <PUBCHEM_FEATURE_SELFOVERLAP>
35.522

> <PUBCHEM_SHAPE_FINGERPRINT>
10 15 17703495676439796578
11089746 13 17676206888232971084
11315181 36 18260270767183401884
11796584 16 18412547592151243506
12107183 9 17613711518866466632
12236239 1 17749107798661235248
13167823 11 18259985989762073026
1420 363 16702306758484360188
14386348 63 17632581573371343319
15183329 4 17894913993309656922
15788980 27 18260271854068454178
15961568 22 18266732666162344424
16988056 13 15235521555184830061
17844677 252 18342182176272319872
17870717 6 18272663345987425279
1813 80 14261083107014342537
19489759 90 18341894078112770445
20279233 1 17775292676498097231
20300324 65 18409732859284080457
20645477 56 18411140204245222705
20645477 70 16702030725405313430
21033648 29 17131819946156705680
21267235 1 18336267933718207395
21641784 216 14129342815742350374
2297311 6 18342179981617533673
23402539 116 18408602560866282581
23557571 272 18202568353997819761
23559900 14 18341325694873051112
26918003 58 16702304563582186867
2838139 119 16082469109257070023
29717793 49 18113903749883107294
300161 21 17676480666211204984
3268164 11 18412537692035121429
3545911 37 18335421253365774971
4214541 1 18409731750654789581
542803 24 17603587434714577644
559249 180 18334573520952564251
59755656 215 18337955593487960846
59755656 520 16370729227513928723
7495541 125 17704070724804575832
9971528 1 17530966908478305964

> <PUBCHEM_SHAPE_MULTIPOLES>
364.86
14.24
1.93
1.09
13.29
0.21
-0.07
1.38
2.13
-3.07
-0.26
0.95
-0.07
-0.05

> <PUBCHEM_SHAPE_SELFOVERLAP>
751.75

> <PUBCHEM_SHAPE_VOLUME>
210.7

> <PUBCHEM_COORDINATE_TYPE>
2
5
10

$$$$
