3584203
  -OEChem-01171811533D

 34 37  0     0  0  0  0  0  0999 V2000
   -4.5559    1.3099   -0.2585 O   0  0  0  0  0  0  0  0  0  0  0  0
   -5.8828   -2.0026    0.3119 O   0  0  0  0  0  0  0  0  0  0  0  0
    3.0704    0.4467    0.1802 N   0  0  0  0  0  0  0  0  0  0  0  0
    1.4780   -0.9807   -0.4739 N   0  0  0  0  0  0  0  0  0  0  0  0
   -3.6834   -1.3430    0.1880 N   0  0  0  0  0  0  0  0  0  0  0  0
   -0.4875    0.4779   -0.1184 C   0  0  0  0  0  0  0  0  0  0  0  0
    0.9236    0.2105   -0.0925 C   0  0  0  0  0  0  0  0  0  0  0  0
    2.7748   -0.8235   -0.3038 C   0  0  0  0  0  0  0  0  0  0  0  0
   -2.7677   -0.2959    0.0420 C   0  0  0  0  0  0  0  0  0  0  0  0
    1.8766    1.1084    0.3145 C   0  0  0  0  0  0  0  0  0  0  0  0
   -1.3975   -0.5637    0.0639 C   0  0  0  0  0  0  0  0  0  0  0  0
   -3.2273    1.0030   -0.1688 C   0  0  0  0  0  0  0  0  0  0  0  0
   -0.9459    1.7779   -0.3336 C   0  0  0  0  0  0  0  0  0  0  0  0
    4.3622    0.8883    0.4534 C   0  0  0  0  0  0  0  0  0  0  0  0
   -2.3159    2.0405   -0.3667 C   0  0  0  0  0  0  0  0  0  0  0  0
    5.4019    0.0581    0.2459 C   0  0  0  0  0  0  0  0  0  0  0  0
    3.8737   -1.7026   -0.5243 C   0  0  0  0  0  0  0  0  0  0  0  0
    5.1271   -1.2847   -0.2626 C   0  0  0  0  0  0  0  0  0  0  0  0
   -5.4124    0.3578    0.3423 C   0  0  0  0  0  0  0  0  0  0  0  0
   -5.0379   -1.1117    0.2526 C   0  0  0  0  0  0  0  0  0  0  0  0
    6.8259    0.4291    0.5084 C   0  0  0  0  0  0  0  0  0  0  0  0
    1.8302    2.1244    0.6844 H   0  0  0  0  0  0  0  0  0  0  0  0
   -1.0514   -1.5825    0.2257 H   0  0  0  0  0  0  0  0  0  0  0  0
   -0.2631    2.6077   -0.4985 H   0  0  0  0  0  0  0  0  0  0  0  0
    4.4757    1.8988    0.8286 H   0  0  0  0  0  0  0  0  0  0  0  0
   -2.6645    3.0534   -0.5499 H   0  0  0  0  0  0  0  0  0  0  0  0
    3.6881   -2.7022   -0.9012 H   0  0  0  0  0  0  0  0  0  0  0  0
   -3.3361   -2.2965    0.2297 H   0  0  0  0  0  0  0  0  0  0  0  0
   -6.3967    0.4739   -0.1247 H   0  0  0  0  0  0  0  0  0  0  0  0
   -5.5228    0.6105    1.4041 H   0  0  0  0  0  0  0  0  0  0  0  0
    5.9677   -1.9511   -0.4288 H   0  0  0  0  0  0  0  0  0  0  0  0
    7.2672   -0.2402    1.2544 H   0  0  0  0  0  0  0  0  0  0  0  0
    7.4171    0.3623   -0.4111 H   0  0  0  0  0  0  0  0  0  0  0  0
    6.9152    1.4531    0.8868 H   0  0  0  0  0  0  0  0  0  0  0  0
  1 12  1  0  0  0  0
  1 19  1  0  0  0  0
  2 20  2  0  0  0  0
  3  8  1  0  0  0  0
  3 10  1  0  0  0  0
  3 14  1  0  0  0  0
  4  7  1  0  0  0  0
  4  8  2  0  0  0  0
  5  9  1  0  0  0  0
  5 20  1  0  0  0  0
  5 28  1  0  0  0  0
  6  7  1  0  0  0  0
  6 11  2  0  0  0  0
  6 13  1  0  0  0  0
  7 10  2  0  0  0  0
  8 17  1  0  0  0  0
  9 11  1  0  0  0  0
  9 12  2  0  0  0  0
 10 22  1  0  0  0  0
 11 23  1  0  0  0  0
 12 15  1  0  0  0  0
 13 15  2  0  0  0  0
 13 24  1  0  0  0  0
 14 16  2  0  0  0  0
 14 25  1  0  0  0  0
 15 26  1  0  0  0  0
 16 18  1  0  0  0  0
 16 21  1  0  0  0  0
 17 18  2  0  0  0  0
 17 27  1  0  0  0  0
 18 31  1  0  0  0  0
 19 20  1  0  0  0  0
 19 29  1  0  0  0  0
 19 30  1  0  0  0  0
 21 32  1  0  0  0  0
 21 33  1  0  0  0  0
 21 34  1  0  0  0  0
M  END
> <PUBCHEM_COMPOUND_CID>
3584203

> <PUBCHEM_CONFORMER_RMSD>
0.6

> <PUBCHEM_CONFORMER_DIVERSEORDER>
2
1
3

> <PUBCHEM_MMFF94_PARTIAL_CHARGES>
29
1 -0.36
10 -0.3
11 -0.15
12 0.08
13 -0.15
14 -0.18
15 -0.15
16 -0.14
17 -0.11
18 -0.15
19 0.34
2 -0.57
20 0.57
21 0.14
22 0.15
23 0.15
24 0.15
25 0.15
26 0.15
27 0.15
28 0.37
3 0.33
31 0.15
4 -0.57
5 -0.55
6 0.05
7 0.17
8 0.14
9 0.12

> <PUBCHEM_EFFECTIVE_ROTOR_COUNT>
1.6

> <PUBCHEM_PHARMACOPHORE_FEATURES>
8
1 1 acceptor
1 2 acceptor
1 5 donor
3 3 4 8 cation
5 3 4 7 8 10 rings
6 1 5 9 12 19 20 rings
6 3 8 14 16 17 18 rings
6 6 9 11 12 13 15 rings

> <PUBCHEM_HEAVY_ATOM_COUNT>
21

> <PUBCHEM_ATOM_DEF_STEREO_COUNT>
0

> <PUBCHEM_ATOM_UDEF_STEREO_COUNT>
0

> <PUBCHEM_BOND_DEF_STEREO_COUNT>
0

> <PUBCHEM_BOND_UDEF_STEREO_COUNT>
0

> <PUBCHEM_ISOTOPIC_ATOM_COUNT>
0

> <PUBCHEM_COMPONENT_COUNT>
1

> <PUBCHEM_CACTVS_TAUTO_COUNT>
2

> <PUBCHEM_CONFORMER_ID>
0036B0CB00000002

> <PUBCHEM_MMFF94_ENERGY>
56.6254

> <PUBCHEM_FEATURE_SELFOVERLAP>
40.746

> <PUBCHEM_SHAPE_FINGERPRINT>
10 15 18340757239889706616
10835480 77 18340478985025994852
11287383 113 18410856560046056008
11315181 36 18334576849715671017
11524674 6 16917067771789520071
12107183 9 17543627535278545488
12236239 1 17022902333062497400
12403259 415 18201991140937965728
12516196 113 18272651255232552104
12730499 353 18060701693951433142
13073987 5 18130227056416881064
13288520 33 18408041827812213981
13402501 40 18412546513328182867
13668630 136 14634871929321235064
13685833 64 18336270123877488227
1420 363 18411703183688226622
14251732 16 18411699915603203848
14341114 176 18342462517197971820
15196674 1 18411419488128943455
17492 89 18267584594558104070
17844677 252 18411707581724642968
1813 80 17530966890565109933
18222031 100 17313105250496837076
18785283 64 18127117787852936496
19141452 34 18272653476347946087
19489759 90 17603584119152877337
200 152 17918270935365096057
20374829 77 18334294258284398443
20645477 70 18059295341011763750
21033648 29 17631996573119316928
21054139 6 17603864528803970154
21130935 74 18272370841340097682
21267235 1 18409174324066149711
21623969 137 17989209235303803406
22224240 67 17418089948931876686
2297311 6 18412553089165667380
23402539 116 18187078455744469869
23522609 53 18121533269041864716
23559900 14 18410003347586917473
239999 70 18271812290055348502
26918003 58 18272932708924200409
3004659 81 18261114046079893846
335352 9 18408040711532362461
34797466 226 18130801092029455980
350125 39 18412826910721880272
3545911 37 18343300358338858420
4073 2 18333456438740051338
4214541 1 18410575041861456317
4325135 7 18334017211740814724
465052 167 18131073697840600062
474229 33 18411981368746641718
5104073 3 18271521975629267480
542803 24 14261349154800373448
59682541 35 18341888654323307426
67856867 119 18114749346996926620
7495541 125 18272930544361066064
77779 3 18411982421250811116
9709674 26 18335989739247418675

> <PUBCHEM_SHAPE_MULTIPOLES>
405.49
15.2
1.82
0.69
4.08
0.05
0
3.55
-2.15
-1.24
0.14
0.16
-0.01
0.99

> <PUBCHEM_SHAPE_SELFOVERLAP>
912.297

> <PUBCHEM_SHAPE_VOLUME>
214.6

> <PUBCHEM_COORDINATE_TYPE>
2
5
10

$$$$
