804043
  -OEChem-01171811443D

 36 38  0     0  0  0  0  0  0999 V2000
    6.5025   -0.8803   -0.6720 S   0  0  0  0  0  0  0  0  0  0  0  0
    1.3448    3.3165   -0.0618 S   0  0  0  0  0  0  0  0  0  0  0  0
   -5.4620   -1.0764    0.3357 O   0  0  0  0  0  0  0  0  0  0  0  0
    0.6807    0.6544    0.1189 N   0  0  0  0  0  0  0  0  0  0  0  0
   -1.0525    2.2617   -0.0760 N   0  0  0  0  0  0  0  0  0  0  0  0
    5.3386    0.1900   -1.1797 N   0  0  0  0  0  0  0  0  0  0  0  0
    5.6410   -1.7788    0.4273 N   0  0  0  0  0  0  0  0  0  0  0  0
    1.9369    0.0439    0.1926 C   0  0  0  0  0  0  0  0  0  0  0  0
   -2.1798    1.4089    0.0286 C   0  0  0  0  0  0  0  0  0  0  0  0
    4.2184   -0.1137   -0.5047 C   0  0  0  0  0  0  0  0  0  0  0  0
    2.9693    0.5424   -0.6199 C   0  0  0  0  0  0  0  0  0  0  0  0
    4.3967   -1.2746    0.4428 C   0  0  0  0  0  0  0  0  0  0  0  0
    2.1040   -1.0446    1.0810 C   0  0  0  0  0  0  0  0  0  0  0  0
   -4.3800   -0.2572    0.2347 C   0  0  0  0  0  0  0  0  0  0  0  0
    3.3188   -1.7335    1.2375 C   0  0  0  0  0  0  0  0  0  0  0  0
   -3.3645    1.9143    0.5349 C   0  0  0  0  0  0  0  0  0  0  0  0
   -2.0687    0.0906   -0.3773 C   0  0  0  0  0  0  0  0  0  0  0  0
   -4.4734    1.0745    0.6388 C   0  0  0  0  0  0  0  0  0  0  0  0
   -3.1777   -0.7491   -0.2736 C   0  0  0  0  0  0  0  0  0  0  0  0
    0.3065    1.9890   -0.0435 C   0  0  0  0  0  0  0  0  0  0  0  0
   -5.5681   -2.1326   -0.6178 C   0  0  0  0  0  0  0  0  0  0  0  0
   -7.0315   -2.4453   -0.8466 C   0  0  0  0  0  0  0  0  0  0  0  0
    2.8416    1.3260   -1.3543 H   0  0  0  0  0  0  0  0  0  0  0  0
    1.2576   -1.3772    1.6823 H   0  0  0  0  0  0  0  0  0  0  0  0
   -0.0184    0.1028    0.6049 H   0  0  0  0  0  0  0  0  0  0  0  0
   -3.4468    2.9497    0.8533 H   0  0  0  0  0  0  0  0  0  0  0  0
   -1.2044   -0.3212   -0.8847 H   0  0  0  0  0  0  0  0  0  0  0  0
    3.4157   -2.5642    1.9269 H   0  0  0  0  0  0  0  0  0  0  0  0
   -1.2749    3.2529   -0.0095 H   0  0  0  0  0  0  0  0  0  0  0  0
   -5.4074    1.4633    1.0354 H   0  0  0  0  0  0  0  0  0  0  0  0
   -3.0616   -1.7794   -0.5967 H   0  0  0  0  0  0  0  0  0  0  0  0
   -5.1375   -1.8523   -1.5873 H   0  0  0  0  0  0  0  0  0  0  0  0
   -5.0554   -3.0200   -0.2307 H   0  0  0  0  0  0  0  0  0  0  0  0
   -7.1502   -3.2600   -1.5665 H   0  0  0  0  0  0  0  0  0  0  0  0
   -7.5160   -2.7313    0.0930 H   0  0  0  0  0  0  0  0  0  0  0  0
   -7.5607   -1.5628   -1.2211 H   0  0  0  0  0  0  0  0  0  0  0  0
  1  6  1  0  0  0  0
  1  7  1  0  0  0  0
  2 20  2  0  0  0  0
  3 14  1  0  0  0  0
  3 21  1  0  0  0  0
  4  8  1  0  0  0  0
  4 20  1  0  0  0  0
  4 25  1  0  0  0  0
  5  9  1  0  0  0  0
  5 20  1  0  0  0  0
  5 29  1  0  0  0  0
  6 10  2  0  0  0  0
  7 12  2  0  0  0  0
  8 11  2  0  0  0  0
  8 13  1  0  0  0  0
  9 16  2  0  0  0  0
  9 17  1  0  0  0  0
 10 11  1  0  0  0  0
 10 12  1  0  0  0  0
 11 23  1  0  0  0  0
 12 15  1  0  0  0  0
 13 15  2  0  0  0  0
 13 24  1  0  0  0  0
 14 18  2  0  0  0  0
 14 19  1  0  0  0  0
 15 28  1  0  0  0  0
 16 18  1  0  0  0  0
 16 26  1  0  0  0  0
 17 19  2  0  0  0  0
 17 27  1  0  0  0  0
 18 30  1  0  0  0  0
 19 31  1  0  0  0  0
 21 22  1  0  0  0  0
 21 32  1  0  0  0  0
 21 33  1  0  0  0  0
 22 34  1  0  0  0  0
 22 35  1  0  0  0  0
 22 36  1  0  0  0  0
M  END
> <PUBCHEM_COMPOUND_CID>
804043

> <PUBCHEM_CONFORMER_RMSD>
0.8

> <PUBCHEM_CONFORMER_DIVERSEORDER>
1
30
3
26
23
18
22
20
31
32
24
25
9
35
2
10
13
19
14
6
29
12
21
5
33
7
4
16
17
27
28
34
8
15
11

> <PUBCHEM_MMFF94_PARTIAL_CHARGES>
30
1 0.44
10 0.29
11 -0.15
12 0.29
13 -0.15
14 0.08
15 -0.15
16 -0.15
17 -0.15
18 -0.15
19 -0.15
2 -0.38
20 0.5
21 0.28
23 0.15
24 0.15
25 0.37
26 0.15
27 0.15
28 0.15
29 0.37
3 -0.36
30 0.15
31 0.15
4 -0.55
5 -0.55
6 -0.51
7 -0.51
8 0.12
9 0.12

> <PUBCHEM_EFFECTIVE_ROTOR_COUNT>
6

> <PUBCHEM_PHARMACOPHORE_FEATURES>
9
1 2 acceptor
1 3 acceptor
1 4 donor
1 5 donor
1 6 acceptor
1 7 acceptor
5 1 6 7 10 12 rings
6 8 10 11 12 13 15 rings
6 9 14 16 17 18 19 rings

> <PUBCHEM_HEAVY_ATOM_COUNT>
22

> <PUBCHEM_ATOM_DEF_STEREO_COUNT>
0

> <PUBCHEM_ATOM_UDEF_STEREO_COUNT>
0

> <PUBCHEM_BOND_DEF_STEREO_COUNT>
0

> <PUBCHEM_BOND_UDEF_STEREO_COUNT>
0

> <PUBCHEM_ISOTOPIC_ATOM_COUNT>
0

> <PUBCHEM_COMPONENT_COUNT>
1

> <PUBCHEM_CACTVS_TAUTO_COUNT>
5

> <PUBCHEM_CONFORMER_ID>
000C44CB00000001

> <PUBCHEM_MMFF94_ENERGY>
93.1903

> <PUBCHEM_FEATURE_SELFOVERLAP>
45.82

> <PUBCHEM_SHAPE_FINGERPRINT>
10050765 1 18341048614450295897
10595046 47 18335424543563931348
11045515 52 17895479107631742524
11069576 57 17386552558133853522
11089746 13 8862645877612910010
11545043 162 17561360665064614379
12236239 1 18260834748487987580
12516196 113 18411419505720451312
12553582 1 18338505383159861852
12592606 108 18341047524034751671
12596602 18 17847062194257735307
12760667 363 18411701019890100139
13288520 33 18412547596250531805
13533116 47 18268989976655479177
13631057 29 18410292484858701992
13690498 29 18259980471108724229
13740256 8 18410858758716117521
13862211 1 18410855464434016471
14123256 34 18341054103201754591
14251764 30 17988366979442860558
14576447 43 18333449837701961864
14767858 380 18114194046838636700
14787075 74 18113624456607371096
14931854 50 18040432183422899875
15188451 53 17560794468648978839
15537594 2 18262245421494863931
15880784 105 18202004334570804760
15927050 60 17837493321235491404
17134984 74 17168140186866692803
17492 89 18120372060899627362
18222031 100 18411129251614251273
18681886 176 18409729556891657674
200 152 17968664809278743392
20028762 73 18130223852161158967
21033648 29 15984249717418560289
21054139 6 18187647973267649074
21267235 1 18411143562909492123
21315759 148 17275107189434640146
21774942 28 13479395159538995078
22950370 63 18410577241053374088
23402539 116 18336828585442197100
23522609 53 18123223218329457840
23559900 14 18338508759753730153
23622692 118 18412825811378940685
25147074 1 18340784723053545897
2838139 119 11242257384896577115
3004659 81 18114175354597657999
314194 84 18261118456230442595
329604 57 18260553324866307082
335352 9 18410572856714990205
351380 3 18412543223641651639
465052 167 18270684280897479479
5104073 3 18059583542002127889
559249 180 18413388731731398887
7495541 125 18273493451813213888
7970288 3 18411695482881190327

> <PUBCHEM_SHAPE_MULTIPOLES>
434.66
16.51
2.94
0.96
4.91
1.42
-0.05
-14.15
3.15
1.93
0.02
-0.51
-0.28
-1.83

> <PUBCHEM_SHAPE_SELFOVERLAP>
908.023

> <PUBCHEM_SHAPE_VOLUME>
247.7

> <PUBCHEM_COORDINATE_TYPE>
2
5
10

$$$$
