240739
  -OEChem-01171812153D

 25 26  0     0  0  0  0  0  0999 V2000
   -4.6980    0.7786    0.0422 Cl  0  0  0  0  0  0  0  0  0  0  0  0
    3.7705   -0.2272   -0.0893 S   0  0  0  0  0  0  0  0  0  0  0  0
   -0.9649   -2.6346   -0.0256 O   0  0  0  0  0  0  0  0  0  0  0  0
    3.8772   -1.5611   -0.6638 O   0  0  0  0  0  0  0  0  0  0  0  0
    4.5351    0.8711   -0.6638 O   0  0  0  0  0  0  0  0  0  0  0  0
   -2.3472    2.5297    0.0148 O   0  0  0  0  0  0  0  0  0  0  0  0
    4.1126   -0.3180    1.5822 N   0  0  0  0  0  0  0  0  0  0  0  0
   -3.6182   -2.0786    0.0157 N   0  0  0  0  0  0  0  0  0  0  0  0
   -0.2557   -0.3975   -0.0271 C   0  0  0  0  0  0  0  0  0  0  0  0
   -0.6127    0.9496   -0.0162 C   0  0  0  0  0  0  0  0  0  0  0  0
    2.0847    0.2265   -0.0597 C   0  0  0  0  0  0  0  0  0  0  0  0
    1.0974   -0.7592   -0.0489 C   0  0  0  0  0  0  0  0  0  0  0  0
    0.3804    1.9370   -0.0269 C   0  0  0  0  0  0  0  0  0  0  0  0
    1.7269    1.5726   -0.0488 C   0  0  0  0  0  0  0  0  0  0  0  0
   -1.2884   -1.4509   -0.0161 C   0  0  0  0  0  0  0  0  0  0  0  0
   -2.0314    1.3455    0.0067 C   0  0  0  0  0  0  0  0  0  0  0  0
   -2.7249   -1.0435    0.0071 C   0  0  0  0  0  0  0  0  0  0  0  0
   -3.0434    0.2600    0.0175 C   0  0  0  0  0  0  0  0  0  0  0  0
    1.3806   -1.8086   -0.0505 H   0  0  0  0  0  0  0  0  0  0  0  0
    0.1265    2.9937   -0.0171 H   0  0  0  0  0  0  0  0  0  0  0  0
    2.4796    2.3560   -0.0507 H   0  0  0  0  0  0  0  0  0  0  0  0
    4.2627   -1.2497    1.9883 H   0  0  0  0  0  0  0  0  0  0  0  0
    4.7104    0.4130    1.9869 H   0  0  0  0  0  0  0  0  0  0  0  0
   -3.2859   -3.0347    0.0056 H   0  0  0  0  0  0  0  0  0  0  0  0
   -4.6117   -1.8850    0.0307 H   0  0  0  0  0  0  0  0  0  0  0  0
  1 18  1  0  0  0  0
  2  4  2  0  0  0  0
  2  5  2  0  0  0  0
  2  7  1  0  0  0  0
  2 11  1  0  0  0  0
  3 15  2  0  0  0  0
  6 16  2  0  0  0  0
  7 22  1  0  0  0  0
  7 23  1  0  0  0  0
  8 17  1  0  0  0  0
  8 24  1  0  0  0  0
  8 25  1  0  0  0  0
  9 10  2  0  0  0  0
  9 12  1  0  0  0  0
  9 15  1  0  0  0  0
 10 13  1  0  0  0  0
 10 16  1  0  0  0  0
 11 12  2  0  0  0  0
 11 14  1  0  0  0  0
 12 19  1  0  0  0  0
 13 14  2  0  0  0  0
 13 20  1  0  0  0  0
 14 21  1  0  0  0  0
 15 17  1  0  0  0  0
 16 18  1  0  0  0  0
 17 18  2  0  0  0  0
M  END
> <PUBCHEM_COMPOUND_CID>
240739

> <PUBCHEM_CONFORMER_RMSD>
0.6

> <PUBCHEM_CONFORMER_DIVERSEORDER>
1
2

> <PUBCHEM_MMFF94_PARTIAL_CHARGES>
25
1 -0.14
10 0.09
11 -0.01
12 -0.15
13 -0.15
14 -0.15
15 0.47
16 0.47
17 0.11
18 0.15
19 0.15
2 1.45
20 0.15
21 0.15
22 0.42
23 0.42
24 0.4
25 0.4
3 -0.57
4 -0.65
5 -0.65
6 -0.57
7 -0.98
8 -0.9
9 0.09

> <PUBCHEM_EFFECTIVE_ROTOR_COUNT>
1

> <PUBCHEM_PHARMACOPHORE_FEATURES>
9
1 3 acceptor
1 4 acceptor
1 5 acceptor
1 6 acceptor
1 7 donor
1 8 cation
1 8 donor
6 9 10 11 12 13 14 rings
6 9 10 15 16 17 18 rings

> <PUBCHEM_HEAVY_ATOM_COUNT>
18

> <PUBCHEM_ATOM_DEF_STEREO_COUNT>
0

> <PUBCHEM_ATOM_UDEF_STEREO_COUNT>
0

> <PUBCHEM_BOND_DEF_STEREO_COUNT>
0

> <PUBCHEM_BOND_UDEF_STEREO_COUNT>
0

> <PUBCHEM_ISOTOPIC_ATOM_COUNT>
0

> <PUBCHEM_COMPONENT_COUNT>
1

> <PUBCHEM_CACTVS_TAUTO_COUNT>
3

> <PUBCHEM_CONFORMER_ID>
0003AC6300000001

> <PUBCHEM_MMFF94_ENERGY>
31.9527

> <PUBCHEM_FEATURE_SELFOVERLAP>
45.71

> <PUBCHEM_SHAPE_FINGERPRINT>
10062212 137 18409161143070240971
10616163 171 18339367473686498150
10967382 1 18338518517380947023
11132069 177 18412542093848624089
12032990 46 18412268341333959366
12236239 1 17749109976563095148
12403814 3 17603583010903849693
12553582 1 18268146650804568814
12592029 89 18261676952577351019
13140716 1 18338803420195227921
13221675 6 18409449189056510827
13380535 76 18412826854813088767
13862211 1 18410287013281532171
14115302 16 18260276260377943605
14144814 61 18410012147932202202
14790565 3 18267596701902307905
15042514 8 18410014377305643587
15099037 51 18410290294541497061
15196674 1 18410576214250046831
15209294 21 17774452555742550257
15375462 189 17967806133224812282
15442244 35 18410012169185609420
15536298 74 18270118049325319032
16752209 62 18409718556673485883
16945 1 18411136952458944901
17804303 29 18341615953052457568
18186145 218 17603584136454111430
19591789 44 17978515234613690343
200 152 17704348884018950693
20281475 54 18335417954941576970
20510252 161 18272652303215310488
21029758 11 18272084998344489689
21267235 1 18337682927309494582
21501502 16 18266462185921148277
23175994 123 17131837551485997616
2334 1 17834113421979699407
23366157 5 17897723408131653212
23402539 116 18342449357507776599
23463225 33 18408041814500050724
23557571 272 18130519620551029919
23559900 14 18342741789304742366
2748010 2 18122914122675483759
335352 9 18410857633861759381
34934 24 18410570730162307276
43471831 8 18191302680634598755
474 4 16952263247012338204
5104073 3 18338236067214623961
54173680 148 18337676441861424395
69090 78 18272366464688619567
7364860 26 18053103105940372664
8809292 202 18335424594818702363
9709674 26 18412270562096243902

> <PUBCHEM_SHAPE_MULTIPOLES>
342.71
8.11
2.32
0.75
3.03
0.24
-0.15
0.48
-0.18
-1.36
0.1
0.62
0.04
-0.05

> <PUBCHEM_SHAPE_SELFOVERLAP>
728.415

> <PUBCHEM_SHAPE_VOLUME>
192.2

> <PUBCHEM_COORDINATE_TYPE>
2
5
10

$$$$
