3715236
  -OEChem-01171812113D

 32 33  0     0  0  0  0  0  0999 V2000
   -2.0265   -1.5340   -1.6752 O   0  0  0  0  0  0  0  0  0  0  0  0
   -2.1144   -0.6190    0.4913 N   0  0  0  0  0  0  0  0  0  0  0  0
   -2.8853    0.3645    1.0343 N   0  0  0  0  0  0  0  0  0  0  0  0
    0.2208   -0.7566    1.2740 C   0  0  0  0  0  0  0  0  0  0  0  0
   -1.1836   -1.3568    1.2986 C   0  0  0  0  0  0  0  0  0  0  0  0
    0.8713   -0.7180   -0.1153 C   0  0  0  0  0  0  0  0  0  0  0  0
    2.2710   -0.1569   -0.1186 C   0  0  0  0  0  0  0  0  0  0  0  0
   -2.4566   -0.7553   -0.8415 C   0  0  0  0  0  0  0  0  0  0  0  0
   -3.6768    0.9018    0.0551 C   0  0  0  0  0  0  0  0  0  0  0  0
   -3.5017    0.2729   -1.1174 C   0  0  0  0  0  0  0  0  0  0  0  0
    2.4583    1.2054   -0.2979 C   0  0  0  0  0  0  0  0  0  0  0  0
    3.3481   -1.0125    0.0574 C   0  0  0  0  0  0  0  0  0  0  0  0
   -4.5657    2.0588    0.3277 C   0  0  0  0  0  0  0  0  0  0  0  0
    3.7531    1.7244   -0.3014 C   0  0  0  0  0  0  0  0  0  0  0  0
    4.6428   -0.4935    0.0541 C   0  0  0  0  0  0  0  0  0  0  0  0
    4.8452    0.8749   -0.1253 C   0  0  0  0  0  0  0  0  0  0  0  0
    0.1839    0.2623    1.6811 H   0  0  0  0  0  0  0  0  0  0  0  0
    0.8568   -1.3374    1.9540 H   0  0  0  0  0  0  0  0  0  0  0  0
   -1.5601   -1.4013    2.3268 H   0  0  0  0  0  0  0  0  0  0  0  0
   -1.1434   -2.3813    0.9114 H   0  0  0  0  0  0  0  0  0  0  0  0
    0.8855   -1.7291   -0.5430 H   0  0  0  0  0  0  0  0  0  0  0  0
    0.2623   -0.1178   -0.8018 H   0  0  0  0  0  0  0  0  0  0  0  0
   -2.6135    0.8739    1.8638 H   0  0  0  0  0  0  0  0  0  0  0  0
   -3.9631    0.4606   -2.0703 H   0  0  0  0  0  0  0  0  0  0  0  0
    1.6141    1.8755   -0.4335 H   0  0  0  0  0  0  0  0  0  0  0  0
    3.2004   -2.0791    0.1999 H   0  0  0  0  0  0  0  0  0  0  0  0
   -5.1073    2.3700   -0.5715 H   0  0  0  0  0  0  0  0  0  0  0  0
   -3.9833    2.9150    0.6830 H   0  0  0  0  0  0  0  0  0  0  0  0
   -5.3045    1.8017    1.0934 H   0  0  0  0  0  0  0  0  0  0  0  0
    3.9107    2.7900   -0.4405 H   0  0  0  0  0  0  0  0  0  0  0  0
    5.4933   -1.1547    0.1918 H   0  0  0  0  0  0  0  0  0  0  0  0
    5.8533    1.2789   -0.1276 H   0  0  0  0  0  0  0  0  0  0  0  0
  1  8  2  0  0  0  0
  2  3  1  0  0  0  0
  2  5  1  0  0  0  0
  2  8  1  0  0  0  0
  3  9  1  0  0  0  0
  3 23  1  0  0  0  0
  4  5  1  0  0  0  0
  4  6  1  0  0  0  0
  4 17  1  0  0  0  0
  4 18  1  0  0  0  0
  5 19  1  0  0  0  0
  5 20  1  0  0  0  0
  6  7  1  0  0  0  0
  6 21  1  0  0  0  0
  6 22  1  0  0  0  0
  7 11  2  0  0  0  0
  7 12  1  0  0  0  0
  8 10  1  0  0  0  0
  9 10  2  0  0  0  0
  9 13  1  0  0  0  0
 10 24  1  0  0  0  0
 11 14  1  0  0  0  0
 11 25  1  0  0  0  0
 12 15  2  0  0  0  0
 12 26  1  0  0  0  0
 13 27  1  0  0  0  0
 13 28  1  0  0  0  0
 13 29  1  0  0  0  0
 14 16  2  0  0  0  0
 14 30  1  0  0  0  0
 15 16  1  0  0  0  0
 15 31  1  0  0  0  0
 16 32  1  0  0  0  0
M  END
> <PUBCHEM_COMPOUND_CID>
3715236

> <PUBCHEM_CONFORMER_RMSD>
0.6

> <PUBCHEM_CONFORMER_DIVERSEORDER>
4
46
15
1
22
24
44
16
35
42
20
13
36
48
27
21
18
5
14
47
17
32
37
39
41
43
3
30
28
34
6
45
7
26
11
31
8
33
12
19
2
38
9
40
29
10
25
23

> <PUBCHEM_MMFF94_PARTIAL_CHARGES>
22
1 -0.57
10 -0.14
11 -0.15
12 -0.15
13 0.14
14 -0.15
15 -0.15
16 -0.15
2 -0.34
23 0.4
24 0.15
25 0.15
26 0.15
3 -0.52
30 0.15
31 0.15
32 0.15
5 0.3
6 0.14
7 -0.14
8 0.62
9 -0.04

> <PUBCHEM_EFFECTIVE_ROTOR_COUNT>
4

> <PUBCHEM_PHARMACOPHORE_FEATURES>
4
1 1 acceptor
1 3 donor
5 2 3 8 9 10 rings
6 7 11 12 14 15 16 rings

> <PUBCHEM_HEAVY_ATOM_COUNT>
16

> <PUBCHEM_ATOM_DEF_STEREO_COUNT>
0

> <PUBCHEM_ATOM_UDEF_STEREO_COUNT>
0

> <PUBCHEM_BOND_DEF_STEREO_COUNT>
0

> <PUBCHEM_BOND_UDEF_STEREO_COUNT>
0

> <PUBCHEM_ISOTOPIC_ATOM_COUNT>
0

> <PUBCHEM_COMPONENT_COUNT>
1

> <PUBCHEM_CACTVS_TAUTO_COUNT>
3

> <PUBCHEM_CONFORMER_ID>
0038B0A400000004

> <PUBCHEM_MMFF94_ENERGY>
38.6906

> <PUBCHEM_FEATURE_SELFOVERLAP>
20.297

> <PUBCHEM_SHAPE_FINGERPRINT>
10366900 7 13912324607395540417
11046707 91 9799693688168532329
11127187 94 15841546401521122943
11615756 256 17823427161227310564
12363563 72 13686299105621572146
12596602 18 12829498042864528468
13675066 3 14851595588398848882
14004511 7 18260550030410022218
14251764 38 18054214694911054416
14341114 328 11963392899263482357
15239191 94 9367354725511530868
15880784 105 9295287248780144380
17870717 6 15482675684344593557
18186145 218 17894346683573793194
19433438 15 18343017804950745350
200 152 17989207049360244994
20112054 13 17676207957215240119
20281475 54 9727363428506279664
20300324 65 18273210924189518837
20432913 95 10159699096944587564
20645476 183 18131342004041587687
20645477 56 17603588534057614763
20645477 70 18412832357020077550
20671657 53 15482667987494206634
20871999 31 17703500069716631727
22079108 93 18040443187608484961
22646028 28 11239998962085013929
23402539 116 18411978062033039952
23402655 69 18413390943149147332
23500284 214 17894635859136611561
23559900 14 18334859407841597234
25 1 18260266317560360210
27216 239 17167864188278803641
2838139 119 18118674432089359141
4028521 119 18334570222670732733
474 4 18260267460026883404
5104073 3 17822009856774917384
59027123 10 18271804652933147892
633830 44 18259703406746934486
9882013 296 8574711308269028648
9971528 1 18341891867006342866

> <PUBCHEM_SHAPE_MULTIPOLES>
313.44
10.37
1.73
1.16
2.86
0.52
-0.13
4.82
-0.55
-0.37
0.11
-1.07
-0.4
-0.57

> <PUBCHEM_SHAPE_SELFOVERLAP>
655.24

> <PUBCHEM_SHAPE_VOLUME>
178.4

> <PUBCHEM_COORDINATE_TYPE>
2
5
10

$$$$
