353211
  -OEChem-01171812183D

 36 38  0     0  0  0  0  0  0999 V2000
   -0.2885    3.1784    0.1941 O   0  0  0  0  0  0  0  0  0  0  0  0
    7.1122   -1.2678    0.3278 O   0  0  0  0  0  0  0  0  0  0  0  0
    5.3149   -0.8256    1.6425 O   0  0  0  0  0  0  0  0  0  0  0  0
   -0.3446    0.8281   -0.1002 N   0  0  0  0  0  0  0  0  0  0  0  0
   -1.3044   -0.1566   -0.1397 N   0  0  0  0  0  0  0  0  0  0  0  0
   -2.3532    1.8990    0.2162 C   0  0  0  0  0  0  0  0  0  0  0  0
   -2.4523    0.4147    0.0358 C   0  0  0  0  0  0  0  0  0  0  0  0
    0.9886    0.4877   -0.2638 C   0  0  0  0  0  0  0  0  0  0  0  0
   -0.8702    2.1099    0.1101 C   0  0  0  0  0  0  0  0  0  0  0  0
   -3.7340   -0.2716    0.0628 C   0  0  0  0  0  0  0  0  0  0  0  0
    3.6817   -0.2009   -0.5943 C   0  0  0  0  0  0  0  0  0  0  0  0
    1.3574   -0.8473   -0.4667 C   0  0  0  0  0  0  0  0  0  0  0  0
    1.9802    1.4749   -0.2279 C   0  0  0  0  0  0  0  0  0  0  0  0
    2.6994   -1.1904   -0.6313 C   0  0  0  0  0  0  0  0  0  0  0  0
    3.3222    1.1317   -0.3926 C   0  0  0  0  0  0  0  0  0  0  0  0
    5.1165   -0.5675   -0.7709 C   0  0  0  0  0  0  0  0  0  0  0  0
   -4.9093    0.4534    0.2601 C   0  0  0  0  0  0  0  0  0  0  0  0
   -3.7885   -1.6548   -0.1092 C   0  0  0  0  0  0  0  0  0  0  0  0
   -6.1389   -0.2047    0.2858 C   0  0  0  0  0  0  0  0  0  0  0  0
   -5.0182   -2.3128   -0.0837 C   0  0  0  0  0  0  0  0  0  0  0  0
   -6.1933   -1.5877    0.1138 C   0  0  0  0  0  0  0  0  0  0  0  0
    5.8225   -0.8903    0.5313 C   0  0  0  0  0  0  0  0  0  0  0  0
   -2.7018    2.2044    1.2052 H   0  0  0  0  0  0  0  0  0  0  0  0
   -2.8626    2.4331   -0.5889 H   0  0  0  0  0  0  0  0  0  0  0  0
    0.6228   -1.6476   -0.5015 H   0  0  0  0  0  0  0  0  0  0  0  0
    1.7819    2.5270   -0.0758 H   0  0  0  0  0  0  0  0  0  0  0  0
    2.9670   -2.2324   -0.7858 H   0  0  0  0  0  0  0  0  0  0  0  0
    4.0794    1.9109   -0.3599 H   0  0  0  0  0  0  0  0  0  0  0  0
    5.6553    0.2554   -1.2560 H   0  0  0  0  0  0  0  0  0  0  0  0
    5.1976   -1.4408   -1.4295 H   0  0  0  0  0  0  0  0  0  0  0  0
   -4.9074    1.5305    0.3976 H   0  0  0  0  0  0  0  0  0  0  0  0
   -2.8876   -2.2423   -0.2647 H   0  0  0  0  0  0  0  0  0  0  0  0
   -7.0542    0.3594    0.4396 H   0  0  0  0  0  0  0  0  0  0  0  0
   -5.0610   -3.3898   -0.2176 H   0  0  0  0  0  0  0  0  0  0  0  0
   -7.1507   -2.1001    0.1336 H   0  0  0  0  0  0  0  0  0  0  0  0
    7.5690   -1.4762    1.1707 H   0  0  0  0  0  0  0  0  0  0  0  0
  1  9  2  0  0  0  0
  2 22  1  0  0  0  0
  2 36  1  0  0  0  0
  3 22  2  0  0  0  0
  4  5  1  0  0  0  0
  4  8  1  0  0  0  0
  4  9  1  0  0  0  0
  5  7  2  0  0  0  0
  6  7  1  0  0  0  0
  6  9  1  0  0  0  0
  6 23  1  0  0  0  0
  6 24  1  0  0  0  0
  7 10  1  0  0  0  0
  8 12  2  0  0  0  0
  8 13  1  0  0  0  0
 10 17  2  0  0  0  0
 10 18  1  0  0  0  0
 11 14  2  0  0  0  0
 11 15  1  0  0  0  0
 11 16  1  0  0  0  0
 12 14  1  0  0  0  0
 12 25  1  0  0  0  0
 13 15  2  0  0  0  0
 13 26  1  0  0  0  0
 14 27  1  0  0  0  0
 15 28  1  0  0  0  0
 16 22  1  0  0  0  0
 16 29  1  0  0  0  0
 16 30  1  0  0  0  0
 17 19  1  0  0  0  0
 17 31  1  0  0  0  0
 18 20  2  0  0  0  0
 18 32  1  0  0  0  0
 19 21  2  0  0  0  0
 19 33  1  0  0  0  0
 20 21  1  0  0  0  0
 20 34  1  0  0  0  0
 21 35  1  0  0  0  0
M  END
> <PUBCHEM_COMPOUND_CID>
353211

> <PUBCHEM_CONFORMER_RMSD>
0.8

> <PUBCHEM_CONFORMER_DIVERSEORDER>
1
9
5
7
3
6
8
4
2

> <PUBCHEM_MMFF94_PARTIAL_CHARGES>
32
1 -0.57
10 0.09
11 -0.14
12 -0.15
13 -0.15
14 -0.15
15 -0.15
16 0.2
17 -0.15
18 -0.15
19 -0.15
2 -0.65
20 -0.15
21 -0.15
22 0.66
25 0.15
26 0.15
27 0.15
28 0.15
3 -0.57
31 0.15
32 0.15
33 0.15
34 0.15
35 0.15
36 0.5
4 -0.11
5 -0.51
6 0.12
7 0.3
8 0.12
9 0.57

> <PUBCHEM_EFFECTIVE_ROTOR_COUNT>
4.4

> <PUBCHEM_PHARMACOPHORE_FEATURES>
8
1 1 acceptor
1 2 acceptor
1 3 acceptor
1 5 acceptor
3 2 3 22 anion
5 4 5 6 7 9 rings
6 10 17 18 19 20 21 rings
6 8 11 12 13 14 15 rings

> <PUBCHEM_HEAVY_ATOM_COUNT>
22

> <PUBCHEM_ATOM_DEF_STEREO_COUNT>
0

> <PUBCHEM_ATOM_UDEF_STEREO_COUNT>
0

> <PUBCHEM_BOND_DEF_STEREO_COUNT>
0

> <PUBCHEM_BOND_UDEF_STEREO_COUNT>
0

> <PUBCHEM_ISOTOPIC_ATOM_COUNT>
0

> <PUBCHEM_COMPONENT_COUNT>
1

> <PUBCHEM_CACTVS_TAUTO_COUNT>
3

> <PUBCHEM_CONFORMER_ID>
000563BB00000001

> <PUBCHEM_MMFF94_ENERGY>
61.3627

> <PUBCHEM_FEATURE_SELFOVERLAP>
40.656

> <PUBCHEM_SHAPE_FINGERPRINT>
10 15 17917422147465642394
106641 1 13973959935546739399
10670039 82 8069759511061061694
10753850 27 18114178653005811025
10803635 8 17894905222854433527
11524674 6 16988844986273152167
11719270 70 18343019982462936470
12166972 35 17749112205435130532
12236239 1 18040157309572948844
12516196 113 18060139851534935289
12670543 26 11530476714761460914
12760667 363 18335140890769834907
13288520 33 18410577293004184983
13533116 47 17822006489620712370
13668630 136 16370729214392033034
13685833 64 18337397136328468995
13862211 1 18410575110754928463
14251752 14 17676198049184585549
15048467 5 10663818577052468562
15183329 4 13045935785879349502
15188451 53 18261384530119230186
15196674 1 18340491170348581077
15352361 1 18412549829570014455
15927050 60 17552075525744877588
17349148 13 18041003929621681038
17492 89 18195528087052008574
17834072 8 12251904789421351254
17857418 61 18334575737224013994
18222031 100 18113060420196009588
200 152 18187086152283711629
20028762 73 18413108372835178102
20374829 77 18409731768293425741
21150785 3 14996288024379834362
21267235 1 18411992359467413679
21792934 111 18272365378653108001
221490 88 18049170153195444931
2215653 11 13118001072514986698
22224240 67 16487252170958715647
23035841 295 18408045113209176219
23198884 109 15574715790200375431
23402539 116 18410009931565618751
23522609 53 18119282568702962277
23557571 272 18059306352574726540
23559900 14 18267861864993596465
25147074 1 18263099784980150100
26918003 58 18343022190196724469
3004659 81 18259706717939717150
335352 9 18411984659741181917
3421961 26 18270964673331688041
351380 3 18333448750658855363
4214541 1 18412549808401379829
4340502 62 15267349526115411708
439807 62 17968946417737492403
465052 167 18411142458918339430
5104073 3 18271815682736309569
559249 180 18409729561149909407
59682541 35 18131344237877911498
59682541 52 13695852711079843512
59755656 215 18410015399059577830
67856867 119 18335704991875186140
7495541 125 18131070471623730856
8863177 126 17898303946556310107

> <PUBCHEM_SHAPE_MULTIPOLES>
425.18
16.18
2.31
0.81
4.47
1.06
0.13
-10.82
2.63
-1.35
0.08
0.89
-0.15
-0.55

> <PUBCHEM_SHAPE_SELFOVERLAP>
929.309

> <PUBCHEM_SHAPE_VOLUME>
229.5

> <PUBCHEM_COORDINATE_TYPE>
2
5
10

$$$$
