5334886
  -OEChem-01171812033D

 26 27  0     0  0  0  0  0  0999 V2000
   -2.5098   -2.8638    0.1439 Cl  0  0  0  0  0  0  0  0  0  0  0  0
   -1.0469    2.0222   -0.0630 F   0  0  0  0  0  0  0  0  0  0  0  0
    2.9403    1.6796    0.2301 O   0  0  0  0  0  0  0  0  0  0  0  0
    1.8386   -0.3665    0.2798 N   0  0  0  0  0  0  0  0  0  0  0  0
    0.6133    0.1948    0.1637 N   0  0  0  0  0  0  0  0  0  0  0  0
    4.2389   -0.2734    0.4372 C   0  0  0  0  0  0  0  0  0  0  0  0
    5.2970   -0.0323   -0.5846 C   0  0  0  0  0  0  0  0  0  0  0  0
    4.5588   -1.3386   -0.5554 C   0  0  0  0  0  0  0  0  0  0  0  0
    2.9443    0.4561    0.3042 C   0  0  0  0  0  0  0  0  0  0  0  0
   -1.7644   -0.2414    0.0301 C   0  0  0  0  0  0  0  0  0  0  0  0
   -0.3715   -0.6561    0.1490 C   0  0  0  0  0  0  0  0  0  0  0  0
   -2.8078   -1.1671    0.0191 C   0  0  0  0  0  0  0  0  0  0  0  0
   -2.0404    1.1220   -0.0731 C   0  0  0  0  0  0  0  0  0  0  0  0
   -4.1272   -0.7293   -0.0953 C   0  0  0  0  0  0  0  0  0  0  0  0
   -3.3599    1.5597   -0.1874 C   0  0  0  0  0  0  0  0  0  0  0  0
   -4.4033    0.6340   -0.1984 C   0  0  0  0  0  0  0  0  0  0  0  0
    4.5749   -0.4217    1.4581 H   0  0  0  0  0  0  0  0  0  0  0  0
    6.3287   -0.0296   -0.2545 H   0  0  0  0  0  0  0  0  0  0  0  0
    5.0908    0.6416   -1.4072 H   0  0  0  0  0  0  0  0  0  0  0  0
    3.8702   -1.5375   -1.3676 H   0  0  0  0  0  0  0  0  0  0  0  0
    5.0943   -2.2123   -0.2038 H   0  0  0  0  0  0  0  0  0  0  0  0
    1.9030   -1.3773    0.3516 H   0  0  0  0  0  0  0  0  0  0  0  0
   -0.1517   -1.7340    0.2287 H   0  0  0  0  0  0  0  0  0  0  0  0
   -4.9518   -1.4376   -0.1055 H   0  0  0  0  0  0  0  0  0  0  0  0
   -3.5746    2.6213   -0.2676 H   0  0  0  0  0  0  0  0  0  0  0  0
   -5.4306    0.9751   -0.2873 H   0  0  0  0  0  0  0  0  0  0  0  0
  1 12  1  0  0  0  0
  2 13  1  0  0  0  0
  3  9  2  0  0  0  0
  4  5  1  0  0  0  0
  4  9  1  0  0  0  0
  4 22  1  0  0  0  0
  5 11  2  0  0  0  0
  6  7  1  0  0  0  0
  6  8  1  0  0  0  0
  6  9  1  0  0  0  0
  6 17  1  0  0  0  0
  7  8  1  0  0  0  0
  7 18  1  0  0  0  0
  7 19  1  0  0  0  0
  8 20  1  0  0  0  0
  8 21  1  0  0  0  0
 10 11  1  0  0  0  0
 10 12  1  0  0  0  0
 10 13  2  0  0  0  0
 11 23  1  0  0  0  0
 12 14  2  0  0  0  0
 13 15  1  0  0  0  0
 14 16  1  0  0  0  0
 14 24  1  0  0  0  0
 15 16  2  0  0  0  0
 15 25  1  0  0  0  0
 16 26  1  0  0  0  0
M  END
> <PUBCHEM_COMPOUND_CID>
5334886

> <PUBCHEM_CONFORMER_RMSD>
0.6

> <PUBCHEM_CONFORMER_DIVERSEORDER>
1
14
15
7
16
10
13
2
12
9
11
5
6
4
3
8

> <PUBCHEM_MMFF94_PARTIAL_CHARGES>
26
1 -0.18
10 0.09
11 0.3
12 0.18
13 0.19
14 -0.15
15 -0.15
16 -0.15
17 0.1
18 0.1
19 0.1
2 -0.19
20 0.1
21 0.1
22 0.37
23 0.06
24 0.15
25 0.15
26 0.15
3 -0.57
4 -0.37
5 -0.51
6 -0.1
7 -0.2
8 -0.2
9 0.63

> <PUBCHEM_EFFECTIVE_ROTOR_COUNT>
4.6

> <PUBCHEM_PHARMACOPHORE_FEATURES>
4
1 3 acceptor
1 4 donor
1 5 acceptor
6 10 12 13 14 15 16 rings

> <PUBCHEM_HEAVY_ATOM_COUNT>
16

> <PUBCHEM_ATOM_DEF_STEREO_COUNT>
0

> <PUBCHEM_ATOM_UDEF_STEREO_COUNT>
0

> <PUBCHEM_BOND_DEF_STEREO_COUNT>
1

> <PUBCHEM_BOND_UDEF_STEREO_COUNT>
0

> <PUBCHEM_ISOTOPIC_ATOM_COUNT>
0

> <PUBCHEM_COMPONENT_COUNT>
1

> <PUBCHEM_CACTVS_TAUTO_COUNT>
2

> <PUBCHEM_CONFORMER_ID>
0051676600000001

> <PUBCHEM_MMFF94_ENERGY>
36.7367

> <PUBCHEM_FEATURE_SELFOVERLAP>
20.302

> <PUBCHEM_SHAPE_FINGERPRINT>
10616163 171 18410855490257022418
10680689 15 18335145305690325083
12236239 1 17530965773857697086
12757275 245 18409167748730033187
12916754 54 18342742965387283690
13167823 11 18260828189846424154
13675066 3 18060412543345769250
15042514 8 18264212573063799619
15196674 1 18410572924331887553
15242439 84 18343863303496055080
15536298 74 18339077193926727088
17804303 29 18412263951866976217
17834072 33 18261397784451628804
17834074 16 18413109454965943718
17870717 6 18342751692929861798
18186145 218 17967803981419874600
1986462 14 18410294696566321366
200 152 17346595261849808299
20645477 56 18408605829842718781
20645477 70 17417816093918129006
21267235 1 18408892858149021531
221490 88 18266463285738490960
2297311 6 18341059561513850533
23175994 123 17275386508063514137
23402539 116 18342730806783248757
23402655 69 18334296461824141382
23557571 272 18272377459599260028
23559900 14 18341326777700590768
3004659 81 18262242111004136342
3545911 37 18410856538180790342
4214541 1 18410855460133436554
4990 188 18412266108378350302
5104073 3 18412261774265661192
542803 24 17312824866162211934
543368 44 17314246608043849348
559249 180 18263638472900413818
58051976 100 18411418431809971718
633830 44 17312822714478535640
77779 3 18410856577210029384
9709674 26 18342461430387143094

> <PUBCHEM_SHAPE_MULTIPOLES>
308.04
10.95
2.08
0.68
10.63
0.75
0.02
0.81
1.36
-1.83
-0.01
0.25
0.05
0.44

> <PUBCHEM_SHAPE_SELFOVERLAP>
639.174

> <PUBCHEM_SHAPE_VOLUME>
176.8

> <PUBCHEM_COORDINATE_TYPE>
2
5
10

$$$$
