5389130
  -OEChem-01171812153D

 49 50  0     1  0  0  0  0  0999 V2000
    1.9100    2.0165   -0.1590 O   0  0  0  0  0  0  0  0  0  0  0  0
    3.6995    0.0718   -1.6997 O   0  0  0  0  0  0  0  0  0  0  0  0
   -0.8346   -1.3326    1.8004 O   0  0  0  0  0  0  0  0  0  0  0  0
    5.1834    0.7071   -0.0470 O   0  0  0  0  0  0  0  0  0  0  0  0
   -1.8624    0.9007    1.1782 N   0  0  0  0  0  0  0  0  0  0  0  0
   -5.9569   -1.4211   -1.8742 N   0  0  0  0  0  0  0  0  0  0  0  0
    2.5672   -1.5365    0.4275 C   0  0  0  0  0  0  0  0  0  0  0  0
    2.9606   -0.0388    0.5216 C   0  0  2  0  0  0  0  0  0  0  0  0
    1.4742   -1.8380    1.4762 C   0  0  0  0  0  0  0  0  0  0  0  0
    3.7840   -2.4284    0.7653 C   0  0  0  0  0  0  0  0  0  0  0  0
    2.0709   -1.9275   -0.9815 C   0  0  0  0  0  0  0  0  0  0  0  0
    1.7736    0.8979    0.3349 C   0  0  0  0  0  0  0  0  0  0  0  0
    0.2563   -0.9457    1.3838 C   0  0  0  0  0  0  0  0  0  0  0  0
    0.4488    0.4240    0.8313 C   0  0  0  0  0  0  0  0  0  0  0  0
    4.0904    0.2965   -0.4130 C   0  0  0  0  0  0  0  0  0  0  0  0
   -0.6017    1.2541    0.7756 C   0  0  0  0  0  0  0  0  0  0  0  0
   -0.4442    2.6532    0.2206 C   0  0  0  0  0  0  0  0  0  0  0  0
   -1.7506    3.4361    0.2437 C   0  0  0  0  0  0  0  0  0  0  0  0
   -2.8823    0.3245    0.4176 C   0  0  0  0  0  0  0  0  0  0  0  0
    4.6845    0.3522   -2.6994 C   0  0  0  0  0  0  0  0  0  0  0  0
   -4.1218    0.0261    1.0004 C   0  0  0  0  0  0  0  0  0  0  0  0
   -2.6809    0.0350   -0.9390 C   0  0  0  0  0  0  0  0  0  0  0  0
   -5.1399   -0.5508    0.2413 C   0  0  0  0  0  0  0  0  0  0  0  0
   -3.6993   -0.5418   -1.6980 C   0  0  0  0  0  0  0  0  0  0  0  0
   -4.9287   -0.8346   -1.1077 C   0  0  0  0  0  0  0  0  0  0  0  0
    3.3313    0.1651    1.5371 H   0  0  0  0  0  0  0  0  0  0  0  0
    1.8742   -1.7206    2.4916 H   0  0  0  0  0  0  0  0  0  0  0  0
    1.1359   -2.8772    1.3764 H   0  0  0  0  0  0  0  0  0  0  0  0
    4.5904   -2.3155    0.0326 H   0  0  0  0  0  0  0  0  0  0  0  0
    4.1932   -2.1824    1.7517 H   0  0  0  0  0  0  0  0  0  0  0  0
    3.5021   -3.4877    0.7774 H   0  0  0  0  0  0  0  0  0  0  0  0
    2.8893   -2.0977   -1.6880 H   0  0  0  0  0  0  0  0  0  0  0  0
    1.5275   -2.8800   -0.9400 H   0  0  0  0  0  0  0  0  0  0  0  0
    1.3811   -1.1932   -1.4092 H   0  0  0  0  0  0  0  0  0  0  0  0
    0.2637    3.2313    0.8263 H   0  0  0  0  0  0  0  0  0  0  0  0
   -0.1365    2.6255   -0.8312 H   0  0  0  0  0  0  0  0  0  0  0  0
   -2.1438    1.2752    2.0787 H   0  0  0  0  0  0  0  0  0  0  0  0
   -2.1671    3.5200    1.2533 H   0  0  0  0  0  0  0  0  0  0  0  0
   -1.5656    4.4574   -0.1091 H   0  0  0  0  0  0  0  0  0  0  0  0
   -2.5058    3.0092   -0.4231 H   0  0  0  0  0  0  0  0  0  0  0  0
    4.2480    0.1319   -3.6771 H   0  0  0  0  0  0  0  0  0  0  0  0
    5.5620   -0.2851   -2.5547 H   0  0  0  0  0  0  0  0  0  0  0  0
    4.9641    1.4095   -2.6692 H   0  0  0  0  0  0  0  0  0  0  0  0
   -4.3010    0.2407    2.0513 H   0  0  0  0  0  0  0  0  0  0  0  0
   -1.7365    0.2491   -1.4328 H   0  0  0  0  0  0  0  0  0  0  0  0
   -6.0933   -0.7751    0.7130 H   0  0  0  0  0  0  0  0  0  0  0  0
   -3.5225   -0.7590   -2.7484 H   0  0  0  0  0  0  0  0  0  0  0  0
   -5.8062   -1.6225   -2.8538 H   0  0  0  0  0  0  0  0  0  0  0  0
   -6.8503   -1.6289   -1.4482 H   0  0  0  0  0  0  0  0  0  0  0  0
  1 12  2  0  0  0  0
  2 15  1  0  0  0  0
  2 20  1  0  0  0  0
  3 13  2  0  0  0  0
  4 15  2  0  0  0  0
  5 16  1  0  0  0  0
  5 19  1  0  0  0  0
  5 37  1  0  0  0  0
  6 25  1  0  0  0  0
  6 48  1  0  0  0  0
  6 49  1  0  0  0  0
  7  8  1  0  0  0  0
  7  9  1  0  0  0  0
  7 10  1  0  0  0  0
  7 11  1  0  0  0  0
  8 12  1  0  0  0  0
  8 15  1  0  0  0  0
  8 26  1  0  0  0  0
  9 13  1  0  0  0  0
  9 27  1  0  0  0  0
  9 28  1  0  0  0  0
 10 29  1  0  0  0  0
 10 30  1  0  0  0  0
 10 31  1  0  0  0  0
 11 32  1  0  0  0  0
 11 33  1  0  0  0  0
 11 34  1  0  0  0  0
 12 14  1  0  0  0  0
 13 14  1  0  0  0  0
 14 16  2  0  0  0  0
 16 17  1  0  0  0  0
 17 18  1  0  0  0  0
 17 35  1  0  0  0  0
 17 36  1  0  0  0  0
 18 38  1  0  0  0  0
 18 39  1  0  0  0  0
 18 40  1  0  0  0  0
 19 21  2  0  0  0  0
 19 22  1  0  0  0  0
 20 41  1  0  0  0  0
 20 42  1  0  0  0  0
 20 43  1  0  0  0  0
 21 23  1  0  0  0  0
 21 44  1  0  0  0  0
 22 24  2  0  0  0  0
 22 45  1  0  0  0  0
 23 25  2  0  0  0  0
 23 46  1  0  0  0  0
 24 25  1  0  0  0  0
 24 47  1  0  0  0  0
M  END
> <PUBCHEM_COMPOUND_CID>
5389130

> <PUBCHEM_CONFORMER_RMSD>
0.8

> <PUBCHEM_CONFORMER_DIVERSEORDER>
1
19
4
31
28
29
25
14
22
23
33
30
9
5
10
6
17
3
24
20
15
21
11
18
27
2
13
12
8
32
16
7
26

> <PUBCHEM_MMFF94_PARTIAL_CHARGES>
28
1 -0.57
12 0.49
13 0.49
14 0.03
15 0.66
16 -0.04
17 0.14
19 0.1
2 -0.43
20 0.28
21 -0.15
22 -0.15
23 -0.15
24 -0.15
25 0.1
3 -0.57
37 0.4
4 -0.57
44 0.15
45 0.15
46 0.15
47 0.15
48 0.4
49 0.4
5 -0.6
6 -0.9
8 0.12
9 0.06

> <PUBCHEM_EFFECTIVE_ROTOR_COUNT>
5.6

> <PUBCHEM_PHARMACOPHORE_FEATURES>
13
1 1 acceptor
1 14 anion
1 18 hydrophobe
1 3 acceptor
1 4 acceptor
1 5 cation
1 5 donor
1 6 cation
1 6 donor
1 8 anion
3 7 10 11 hydrophobe
6 19 21 22 23 24 25 rings
6 7 8 9 12 13 14 rings

> <PUBCHEM_HEAVY_ATOM_COUNT>
25

> <PUBCHEM_ATOM_DEF_STEREO_COUNT>
0

> <PUBCHEM_ATOM_UDEF_STEREO_COUNT>
1

> <PUBCHEM_BOND_DEF_STEREO_COUNT>
1

> <PUBCHEM_BOND_UDEF_STEREO_COUNT>
0

> <PUBCHEM_ISOTOPIC_ATOM_COUNT>
0

> <PUBCHEM_COMPONENT_COUNT>
1

> <PUBCHEM_CACTVS_TAUTO_COUNT>
32

> <PUBCHEM_CONFORMER_ID>
00523B4A00000001

> <PUBCHEM_MMFF94_ENERGY>
108.1395

> <PUBCHEM_FEATURE_SELFOVERLAP>
65.982

> <PUBCHEM_SHAPE_FINGERPRINT>
10042902 136 17131261489160822415
11069576 57 18043229280790394347
11796584 16 16486986041894638167
12236239 1 17989207070803563057
12403260 363 18115022975315937018
12553582 1 18343294877691466025
12670546 177 17894633703195124839
12714826 92 17560512902934720497
12788726 201 18269845211691501329
128620 24 18334295357395125707
13103583 49 12751249137552895767
13140716 1 18118983617994298312
13149001 5 18044943612812139321
13224815 77 18336549304829745616
13257819 101 16371293341503941334
13540713 5 18117566111256350912
13583140 156 15285656403645835824
13911987 19 17895491317800855596
14251764 38 15357705188151718503
14576447 43 18343013419546575379
14739800 52 13912875505496942460
14767858 380 18334864952053565172
15183329 4 18272357656660482573
15342816 4 18202278108644591061
15475509 35 15052017857454192854
15537594 2 18342745109108909051
16945 1 18262254273855289520
17349148 13 18187362087285282914
17492 54 18335985349822425870
1813 80 18130784577394788813
20775530 9 16986041072386987999
21033648 29 13840558418815884652
21475661 188 13912894193162936846
21641784 216 18114191804164848573
22393880 68 18269000778413722484
23402539 116 18407760317800889232
23559900 14 15213841724220081155
23598288 3 18196376905717561473
25147074 1 18118129074052398160
2748010 2 17903656398961045088
2838139 119 15502658264491716638
2871803 45 18410009935818550264
312423 11 18190468160004137146
3472631 163 14490459894950240903
46194498 28 17676759985589126413
7164475 11 18266454313340968768
7471813 234 18117545250468442330
7970288 3 18201144512727027999
8509985 295 8142086463624519582
960060 61 18334285475234546935

> <PUBCHEM_SHAPE_MULTIPOLES>
481.05
10.88
2.56
1.85
5.58
1.44
0.98
-3.69
6.05
-0.26
-0.45
-0.39
-0.55
-1.7

> <PUBCHEM_SHAPE_SELFOVERLAP>
1019.525

> <PUBCHEM_SHAPE_VOLUME>
266.6

> <PUBCHEM_COORDINATE_TYPE>
2
5
10

$$$$
