726569
  -OEChem-01171812033D

 40 42  0     0  0  0  0  0  0999 V2000
    1.1358    2.6764   -0.3384 S   0  0  0  0  0  0  0  0  0  0  0  0
    1.9736    3.2612   -1.3688 O   0  0  0  0  0  0  0  0  0  0  0  0
    0.9369    3.3804    0.9139 O   0  0  0  0  0  0  0  0  0  0  0  0
   -3.8062   -0.9638    1.9882 O   0  0  0  0  0  0  0  0  0  0  0  0
   -0.3825    2.2569   -1.0292 N   0  0  0  0  0  0  0  0  0  0  0  0
   -1.2549    1.3882   -0.2948 C   0  0  0  0  0  0  0  0  0  0  0  0
   -1.5612    0.0946   -0.7474 C   0  0  0  0  0  0  0  0  0  0  0  0
    1.8191    1.0876    0.0375 C   0  0  0  0  0  0  0  0  0  0  0  0
   -2.4291   -0.7192    0.0189 C   0  0  0  0  0  0  0  0  0  0  0  0
    2.8872   -1.3949    0.6258 C   0  0  0  0  0  0  0  0  0  0  0  0
   -1.7962    1.8725    0.8964 C   0  0  0  0  0  0  0  0  0  0  0  0
    2.5883    0.4427   -0.9140 C   0  0  0  0  0  0  0  0  0  0  0  0
    1.5701    0.5236    1.2754 C   0  0  0  0  0  0  0  0  0  0  0  0
   -2.9650   -0.2153    1.2153 C   0  0  0  0  0  0  0  0  0  0  0  0
   -1.0255   -0.4094   -1.9438 C   0  0  0  0  0  0  0  0  0  0  0  0
    3.4641   -2.7329    0.9436 C   0  0  0  0  0  0  0  0  0  0  0  0
    3.1269   -0.8094   -0.6173 C   0  0  0  0  0  0  0  0  0  0  0  0
    2.1088   -0.7284    1.5722 C   0  0  0  0  0  0  0  0  0  0  0  0
   -2.6494    1.0722    1.6503 C   0  0  0  0  0  0  0  0  0  0  0  0
   -2.7361   -2.0128   -0.4337 C   0  0  0  0  0  0  0  0  0  0  0  0
   -1.3408   -1.6972   -2.3782 C   0  0  0  0  0  0  0  0  0  0  0  0
   -2.1944   -2.4973   -1.6245 C   0  0  0  0  0  0  0  0  0  0  0  0
    2.5306   -3.8756    0.5527 C   0  0  0  0  0  0  0  0  0  0  0  0
   -0.4279    2.1916   -2.0529 H   0  0  0  0  0  0  0  0  0  0  0  0
   -1.5849    2.8796    1.2445 H   0  0  0  0  0  0  0  0  0  0  0  0
    2.7784    0.8773   -1.8903 H   0  0  0  0  0  0  0  0  0  0  0  0
    0.9696    1.0257    2.0271 H   0  0  0  0  0  0  0  0  0  0  0  0
   -0.3495    0.1720   -2.5648 H   0  0  0  0  0  0  0  0  0  0  0  0
    4.4260   -2.8573    0.4307 H   0  0  0  0  0  0  0  0  0  0  0  0
    3.6900   -2.7981    2.0153 H   0  0  0  0  0  0  0  0  0  0  0  0
    3.7283   -1.3203   -1.3646 H   0  0  0  0  0  0  0  0  0  0  0  0
    1.9133   -1.1746    2.5437 H   0  0  0  0  0  0  0  0  0  0  0  0
   -3.0705    1.4583    2.5747 H   0  0  0  0  0  0  0  0  0  0  0  0
   -3.4079   -2.6753    0.1042 H   0  0  0  0  0  0  0  0  0  0  0  0
   -0.9186   -2.0759   -3.3046 H   0  0  0  0  0  0  0  0  0  0  0  0
   -2.4414   -3.4985   -1.9655 H   0  0  0  0  0  0  0  0  0  0  0  0
    1.5748   -3.8050    1.0829 H   0  0  0  0  0  0  0  0  0  0  0  0
    2.9875   -4.8387    0.8010 H   0  0  0  0  0  0  0  0  0  0  0  0
    2.3205   -3.8651   -0.5222 H   0  0  0  0  0  0  0  0  0  0  0  0
   -3.6232   -1.9087    1.8702 H   0  0  0  0  0  0  0  0  0  0  0  0
  1  2  2  0  0  0  0
  1  3  2  0  0  0  0
  1  5  1  0  0  0  0
  1  8  1  0  0  0  0
  4 14  1  0  0  0  0
  4 40  1  0  0  0  0
  5  6  1  0  0  0  0
  5 24  1  0  0  0  0
  6  7  1  0  0  0  0
  6 11  2  0  0  0  0
  7  9  1  0  0  0  0
  7 15  2  0  0  0  0
  8 12  2  0  0  0  0
  8 13  1  0  0  0  0
  9 14  1  0  0  0  0
  9 20  2  0  0  0  0
 10 16  1  0  0  0  0
 10 17  2  0  0  0  0
 10 18  1  0  0  0  0
 11 19  1  0  0  0  0
 11 25  1  0  0  0  0
 12 17  1  0  0  0  0
 12 26  1  0  0  0  0
 13 18  2  0  0  0  0
 13 27  1  0  0  0  0
 14 19  2  0  0  0  0
 15 21  1  0  0  0  0
 15 28  1  0  0  0  0
 16 23  1  0  0  0  0
 16 29  1  0  0  0  0
 16 30  1  0  0  0  0
 17 31  1  0  0  0  0
 18 32  1  0  0  0  0
 19 33  1  0  0  0  0
 20 22  1  0  0  0  0
 20 34  1  0  0  0  0
 21 22  2  0  0  0  0
 21 35  1  0  0  0  0
 22 36  1  0  0  0  0
 23 37  1  0  0  0  0
 23 38  1  0  0  0  0
 23 39  1  0  0  0  0
M  END
> <PUBCHEM_COMPOUND_CID>
726569

> <PUBCHEM_CONFORMER_RMSD>
0.6

> <PUBCHEM_CONFORMER_DIVERSEORDER>
1
17
5
36
34
42
39
38
29
30
32
37
25
35
2
27
40
20
33
3
22
26
31
28
13
23
4
21
12
6
10
7
43
41
14
11
8
24
16
9
15
18
19

> <PUBCHEM_MMFF94_PARTIAL_CHARGES>
32
1 1.45
10 -0.14
11 -0.15
12 -0.15
13 -0.15
14 0.08
15 -0.15
16 0.14
17 -0.15
18 -0.15
19 -0.15
2 -0.65
20 -0.15
21 -0.15
22 -0.15
24 0.42
25 0.15
26 0.15
27 0.15
28 0.15
3 -0.65
31 0.15
32 0.15
33 0.15
34 0.15
35 0.15
36 0.15
4 -0.53
40 0.45
5 -0.76
6 0.2
8 -0.01

> <PUBCHEM_EFFECTIVE_ROTOR_COUNT>
4

> <PUBCHEM_PHARMACOPHORE_FEATURES>
8
1 2 acceptor
1 23 hydrophobe
1 3 acceptor
1 4 donor
1 5 donor
6 6 7 9 11 14 19 rings
6 7 9 15 20 21 22 rings
6 8 10 12 13 17 18 rings

> <PUBCHEM_HEAVY_ATOM_COUNT>
23

> <PUBCHEM_ATOM_DEF_STEREO_COUNT>
0

> <PUBCHEM_ATOM_UDEF_STEREO_COUNT>
0

> <PUBCHEM_BOND_DEF_STEREO_COUNT>
0

> <PUBCHEM_BOND_UDEF_STEREO_COUNT>
0

> <PUBCHEM_ISOTOPIC_ATOM_COUNT>
0

> <PUBCHEM_COMPONENT_COUNT>
1

> <PUBCHEM_CACTVS_TAUTO_COUNT>
3

> <PUBCHEM_CONFORMER_ID>
000B162900000001

> <PUBCHEM_MMFF94_ENERGY>
59.9915

> <PUBCHEM_FEATURE_SELFOVERLAP>
40.641

> <PUBCHEM_SHAPE_FINGERPRINT>
107951 10 16602381728475923018
11578080 2 17912615168260105689
11725454 13 14188736204364159443
12156800 1 15593926212004650994
12553582 1 18409165489682801958
12633257 1 17275103903468401427
13583140 156 17975146645399648753
14251757 17 17759753257651880319
14787075 74 16114292664398638741
14863182 85 16669695436809799627
15209289 33 17981330306941752668
17349148 13 17775288287938040277
17492 54 13338157560685762850
18981168 100 10735324318915840621
19777482 4 17912889942675533855
21731516 1 18409161117131339812
22445834 79 18268720565772488993
23419403 2 13418238158201873744
23598288 3 17972600979100998572
23598291 2 18271256030774432541
23728640 28 17546700691668944042
238 59 17678437869849555662
2818148 4 18410865351697048158
465052 167 18263663783469581265
5845 1 15162663215943752064
6992083 37 18201147742014133890
7097593 13 18413112757552928427
81228 2 17758927378364729384

> <PUBCHEM_SHAPE_MULTIPOLES>
454.59
5.73
4.06
1.98
1.28
0.51
-0.22
-3.95
2.19
1.97
-0.61
-1.06
-0.47
-1.66

> <PUBCHEM_SHAPE_SELFOVERLAP>
980.24

> <PUBCHEM_SHAPE_VOLUME>
250.1

> <PUBCHEM_COORDINATE_TYPE>
2
5
10

$$$$
