3242915
  -OEChem-01171812113D

 52 56  0     1  0  0  0  0  0999 V2000
    4.0961   -1.6965   -0.6082 O   0  0  0  0  0  0  0  0  0  0  0  0
   -1.4241    3.3405    0.6723 O   0  0  0  0  0  0  0  0  0  0  0  0
   -0.6441    4.1406   -1.4630 O   0  0  0  0  0  0  0  0  0  0  0  0
   -4.8214   -1.4804    0.5602 O   0  0  0  0  0  0  0  0  0  0  0  0
   -3.6846   -0.0337   -1.5239 O   0  0  0  0  0  0  0  0  0  0  0  0
    1.0951   -2.9767   -1.4817 N   0  0  0  0  0  0  0  0  0  0  0  0
    2.4390   -2.9785   -1.6141 N   0  0  0  0  0  0  0  0  0  0  0  0
    5.7607   -0.5104    0.4858 N   0  0  0  0  0  0  0  0  0  0  0  0
    4.1406    1.7606    2.7801 N   0  0  0  0  0  0  0  0  0  0  0  0
    1.9515   -0.2596    0.8227 C   0  0  2  0  0  0  0  0  0  0  0  0
    1.7302   -1.3660   -0.1409 C   0  0  0  0  0  0  0  0  0  0  0  0
    1.2817    0.9135    0.1836 C   0  0  0  0  0  0  0  0  0  0  0  0
    0.6225   -2.0375   -0.6017 C   0  0  0  0  0  0  0  0  0  0  0  0
    3.4533   -0.0138    1.0193 C   0  0  0  0  0  0  0  0  0  0  0  0
    2.7969   -2.0013   -0.7865 C   0  0  0  0  0  0  0  0  0  0  0  0
   -0.7802   -1.8911   -0.3053 C   0  0  0  0  0  0  0  0  0  0  0  0
    0.2113    1.5348    0.8291 C   0  0  0  0  0  0  0  0  0  0  0  0
    4.4131   -0.7007    0.3353 C   0  0  0  0  0  0  0  0  0  0  0  0
    1.7376    1.3787   -1.0614 C   0  0  0  0  0  0  0  0  0  0  0  0
   -0.3748    2.6138    0.1998 C   0  0  0  0  0  0  0  0  0  0  0  0
    0.0704    3.0706   -1.0195 C   0  0  0  0  0  0  0  0  0  0  0  0
    1.1263    2.4736   -1.6769 C   0  0  0  0  0  0  0  0  0  0  0  0
   -1.5684   -1.0243   -1.0635 C   0  0  0  0  0  0  0  0  0  0  0  0
   -1.3522   -2.6167    0.7407 C   0  0  0  0  0  0  0  0  0  0  0  0
    3.8330    0.9665    1.9923 C   0  0  0  0  0  0  0  0  0  0  0  0
   -2.9262   -0.8833   -0.7762 C   0  0  0  0  0  0  0  0  0  0  0  0
   -1.5888    4.3064   -0.3860 C   0  0  0  0  0  0  0  0  0  0  0  0
   -2.7097   -2.4757    1.0279 C   0  0  0  0  0  0  0  0  0  0  0  0
   -3.4968   -1.6091    0.2694 C   0  0  0  0  0  0  0  0  0  0  0  0
   -5.1560   -1.0182    1.8673 C   0  0  0  0  0  0  0  0  0  0  0  0
   -3.7771    1.3171   -1.0760 C   0  0  0  0  0  0  0  0  0  0  0  0
   -6.4547   -0.2434    1.7989 C   0  0  0  0  0  0  0  0  0  0  0  0
    1.4978   -0.5210    1.7873 H   0  0  0  0  0  0  0  0  0  0  0  0
   -0.1542    1.1876    1.7894 H   0  0  0  0  0  0  0  0  0  0  0  0
    2.5734    0.9103   -1.5745 H   0  0  0  0  0  0  0  0  0  0  0  0
    0.5622   -3.6506   -2.0176 H   0  0  0  0  0  0  0  0  0  0  0  0
    1.4744    2.8372   -2.6370 H   0  0  0  0  0  0  0  0  0  0  0  0
   -1.1332   -0.4557   -1.8827 H   0  0  0  0  0  0  0  0  0  0  0  0
   -0.7527   -3.2973    1.3406 H   0  0  0  0  0  0  0  0  0  0  0  0
   -1.4634    5.3102    0.0360 H   0  0  0  0  0  0  0  0  0  0  0  0
   -2.6042    4.2229   -0.7892 H   0  0  0  0  0  0  0  0  0  0  0  0
    6.3967   -1.0712   -0.0669 H   0  0  0  0  0  0  0  0  0  0  0  0
    6.1212    0.1776    1.1339 H   0  0  0  0  0  0  0  0  0  0  0  0
   -3.1420   -3.0534    1.8404 H   0  0  0  0  0  0  0  0  0  0  0  0
   -5.2719   -1.8823    2.5304 H   0  0  0  0  0  0  0  0  0  0  0  0
   -4.3692   -0.3673    2.2688 H   0  0  0  0  0  0  0  0  0  0  0  0
   -3.7792    1.3875    0.0167 H   0  0  0  0  0  0  0  0  0  0  0  0
   -4.7097    1.7423   -1.4567 H   0  0  0  0  0  0  0  0  0  0  0  0
   -2.9407    1.8846   -1.4896 H   0  0  0  0  0  0  0  0  0  0  0  0
   -7.2578   -0.8709    1.3986 H   0  0  0  0  0  0  0  0  0  0  0  0
   -6.3562    0.6148    1.1258 H   0  0  0  0  0  0  0  0  0  0  0  0
   -6.7482    0.1165    2.7889 H   0  0  0  0  0  0  0  0  0  0  0  0
  1 15  1  0  0  0  0
  1 18  1  0  0  0  0
  2 20  1  0  0  0  0
  2 27  1  0  0  0  0
  3 21  1  0  0  0  0
  3 27  1  0  0  0  0
  4 29  1  0  0  0  0
  4 30  1  0  0  0  0
  5 26  1  0  0  0  0
  5 31  1  0  0  0  0
  6  7  1  0  0  0  0
  6 13  1  0  0  0  0
  6 36  1  0  0  0  0
  7 15  2  0  0  0  0
  8 18  1  0  0  0  0
  8 42  1  0  0  0  0
  8 43  1  0  0  0  0
  9 25  3  0  0  0  0
 10 11  1  0  0  0  0
 10 12  1  0  0  0  0
 10 14  1  0  0  0  0
 10 33  1  0  0  0  0
 11 13  2  0  0  0  0
 11 15  1  0  0  0  0
 12 17  2  0  0  0  0
 12 19  1  0  0  0  0
 13 16  1  0  0  0  0
 14 18  2  0  0  0  0
 14 25  1  0  0  0  0
 16 23  2  0  0  0  0
 16 24  1  0  0  0  0
 17 20  1  0  0  0  0
 17 34  1  0  0  0  0
 19 22  2  0  0  0  0
 19 35  1  0  0  0  0
 20 21  2  0  0  0  0
 21 22  1  0  0  0  0
 22 37  1  0  0  0  0
 23 26  1  0  0  0  0
 23 38  1  0  0  0  0
 24 28  2  0  0  0  0
 24 39  1  0  0  0  0
 26 29  2  0  0  0  0
 27 40  1  0  0  0  0
 27 41  1  0  0  0  0
 28 29  1  0  0  0  0
 28 44  1  0  0  0  0
 30 32  1  0  0  0  0
 30 45  1  0  0  0  0
 30 46  1  0  0  0  0
 31 47  1  0  0  0  0
 31 48  1  0  0  0  0
 31 49  1  0  0  0  0
 32 50  1  0  0  0  0
 32 51  1  0  0  0  0
 32 52  1  0  0  0  0
M  END
> <PUBCHEM_COMPOUND_CID>
3242915

> <PUBCHEM_CONFORMER_RMSD>
0.8

> <PUBCHEM_CONFORMER_DIVERSEORDER>
9
4
25
19
34
29
39
32
14
2
8
11
35
23
21
5
3
24
31
22
10
1
13
15
38
37
33
12
6
28
16
7
40
36
20
17
18
27
30
26

> <PUBCHEM_MMFF94_PARTIAL_CHARGES>
40
1 -0.14
10 0.46
11 -0.18
12 -0.14
13 -0.2
14 -0.07
15 0.35
16 0.05
17 -0.15
18 0.18
19 -0.15
2 -0.36
20 0.08
21 0.08
22 -0.15
23 -0.15
24 -0.15
25 0.49
26 0.08
27 0.56
28 -0.15
29 0.08
3 -0.36
30 0.28
31 0.28
34 0.15
35 0.15
36 0.27
37 0.15
38 0.15
39 0.15
4 -0.36
42 0.4
43 0.4
44 0.15
5 -0.36
6 0.3
7 -0.71
8 -0.9
9 -0.56

> <PUBCHEM_EFFECTIVE_ROTOR_COUNT>
6

> <PUBCHEM_PHARMACOPHORE_FEATURES>
13
1 2 acceptor
1 3 acceptor
1 4 acceptor
1 5 acceptor
1 6 donor
1 8 cation
1 8 donor
1 9 acceptor
5 2 3 20 21 27 rings
5 6 7 11 13 15 rings
6 1 10 11 14 15 18 rings
6 12 17 19 20 21 22 rings
6 16 23 24 26 28 29 rings

> <PUBCHEM_HEAVY_ATOM_COUNT>
32

> <PUBCHEM_ATOM_DEF_STEREO_COUNT>
0

> <PUBCHEM_ATOM_UDEF_STEREO_COUNT>
1

> <PUBCHEM_BOND_DEF_STEREO_COUNT>
0

> <PUBCHEM_BOND_UDEF_STEREO_COUNT>
0

> <PUBCHEM_ISOTOPIC_ATOM_COUNT>
0

> <PUBCHEM_COMPONENT_COUNT>
1

> <PUBCHEM_CACTVS_TAUTO_COUNT>
4

> <PUBCHEM_CONFORMER_ID>
00317BA300000009

> <PUBCHEM_MMFF94_ENERGY>
98.307

> <PUBCHEM_FEATURE_SELFOVERLAP>
66.251

> <PUBCHEM_SHAPE_FINGERPRINT>
10006869 2 17975410219005579411
104564 63 18340196393641837942
10688039 33 18334584507721182159
11135609 12 18334584512011193209
11578080 2 16483838097181471235
12035759 4 18189920745385470780
12156800 1 17263896470267746789
12293681 4 18187376440465119234
12422481 6 18342746174091961505
12553582 1 18337957891052546197
12633257 1 18116154544569242635
12788726 201 18264756684409322440
13140716 1 18337672030644830466
13402501 40 18339068324860900429
13965767 371 18129646630252465474
140371 6 18408609157941213438
14363568 33 18047764972375938013
14790565 3 17545050754154983173
14840074 17 18192709179840825864
14955137 171 17615691069873512896
151778 21 17903373833294599909
15238133 3 18261968422006320831
15420108 30 17621873623313768808
15840311 113 17488480611255970123
1601671 61 18266462199306904684
17093844 170 18265320712457537916
17357779 13 18270674273243715782
18785283 64 18047206408021722331
20739085 24 18339089314028745184
21033648 29 17845082055700538586
238 59 16533963505078313028
3052486 1 18116440249534546206
350125 39 18343007901500115304
469060 322 17460053802791545485
5283268 108 18336558148183251491
58260988 114 17026808799619272794
6004065 56 17982981704871344749
81228 2 18336261232899377452

> <PUBCHEM_SHAPE_MULTIPOLES>
609.27
9.68
4.68
1.86
5.63
4.33
-0.63
-4.08
-5.75
0.79
1.68
-0.32
0.34
1.93

> <PUBCHEM_SHAPE_SELFOVERLAP>
1363.18

> <PUBCHEM_SHAPE_VOLUME>
322.9

> <PUBCHEM_COORDINATE_TYPE>
2
5
10

$$$$
