2832907
  -OEChem-01171811403D

 40 42  0     1  0  0  0  0  0999 V2000
    1.8131    0.7492   -0.7054 O   0  0  0  0  0  0  0  0  0  0  0  0
    3.8765   -0.4391    1.8909 O   0  0  0  0  0  0  0  0  0  0  0  0
    1.8409   -2.2399    1.4254 O   0  0  0  0  0  0  0  0  0  0  0  0
    4.2114   -0.5300   -1.7398 O   0  0  0  0  0  0  0  0  0  0  0  0
    0.0052   -0.5689   -0.0120 N   0  0  0  0  0  0  0  0  0  0  0  0
    3.7262   -0.9815    0.5785 C   0  0  1  0  0  0  0  0  0  0  0  0
    2.2617   -1.3850    0.3664 C   0  0  2  0  0  0  0  0  0  0  0  0
    4.1454    0.0718   -0.4491 C   0  0  2  0  0  0  0  0  0  0  0  0
    1.3544   -0.1516    0.3044 C   0  0  1  0  0  0  0  0  0  0  0  0
    3.1398    1.2353   -0.4722 C   0  0  1  0  0  0  0  0  0  0  0  0
    3.4516    2.2472   -1.5693 C   0  0  0  0  0  0  0  0  0  0  0  0
   -1.1129    0.2111    0.2255 C   0  0  0  0  0  0  0  0  0  0  0  0
   -2.4306   -0.2178   -0.0930 C   0  0  0  0  0  0  0  0  0  0  0  0
   -0.9448    1.4858    0.8064 C   0  0  0  0  0  0  0  0  0  0  0  0
   -3.5402    0.6202    0.1706 C   0  0  0  0  0  0  0  0  0  0  0  0
   -2.6449   -1.4792   -0.6722 C   0  0  0  0  0  0  0  0  0  0  0  0
   -2.0359    2.3099    1.0653 C   0  0  0  0  0  0  0  0  0  0  0  0
   -3.3257    1.8813    0.7502 C   0  0  0  0  0  0  0  0  0  0  0  0
   -4.8313    0.1726   -0.1535 C   0  0  0  0  0  0  0  0  0  0  0  0
   -3.9346   -1.9077   -0.9878 C   0  0  0  0  0  0  0  0  0  0  0  0
   -5.0256   -1.0834   -0.7292 C   0  0  0  0  0  0  0  0  0  0  0  0
    4.3577   -1.8755    0.5195 H   0  0  0  0  0  0  0  0  0  0  0  0
    2.1847   -1.9524   -0.5694 H   0  0  0  0  0  0  0  0  0  0  0  0
    5.1403    0.4662   -0.2110 H   0  0  0  0  0  0  0  0  0  0  0  0
    1.3831    0.3325    1.2887 H   0  0  0  0  0  0  0  0  0  0  0  0
    3.1502    1.7602    0.4915 H   0  0  0  0  0  0  0  0  0  0  0  0
   -0.0925   -1.4189   -0.5505 H   0  0  0  0  0  0  0  0  0  0  0  0
    3.3469    1.8046   -2.5658 H   0  0  0  0  0  0  0  0  0  0  0  0
    2.7413    3.0803   -1.5260 H   0  0  0  0  0  0  0  0  0  0  0  0
    4.4639    2.6487   -1.4636 H   0  0  0  0  0  0  0  0  0  0  0  0
    4.8139   -0.2076    2.0057 H   0  0  0  0  0  0  0  0  0  0  0  0
    1.9464   -1.7521    2.2601 H   0  0  0  0  0  0  0  0  0  0  0  0
    4.8663   -1.2475   -1.6949 H   0  0  0  0  0  0  0  0  0  0  0  0
    0.0306    1.8885    1.0617 H   0  0  0  0  0  0  0  0  0  0  0  0
   -1.8385   -2.1711   -0.8938 H   0  0  0  0  0  0  0  0  0  0  0  0
   -1.8846    3.2894    1.5097 H   0  0  0  0  0  0  0  0  0  0  0  0
   -4.1636    2.5427    0.9607 H   0  0  0  0  0  0  0  0  0  0  0  0
   -5.6988    0.8001    0.0401 H   0  0  0  0  0  0  0  0  0  0  0  0
   -4.0876   -2.8860   -1.4345 H   0  0  0  0  0  0  0  0  0  0  0  0
   -6.0293   -1.4178   -0.9747 H   0  0  0  0  0  0  0  0  0  0  0  0
  1  9  1  0  0  0  0
  1 10  1  0  0  0  0
  2  6  1  0  0  0  0
  2 31  1  0  0  0  0
  3  7  1  0  0  0  0
  3 32  1  0  0  0  0
  4  8  1  0  0  0  0
  4 33  1  0  0  0  0
  5  9  1  0  0  0  0
  5 12  1  0  0  0  0
  5 27  1  0  0  0  0
  6  7  1  0  0  0  0
  6  8  1  0  0  0  0
  6 22  1  0  0  0  0
  7  9  1  0  0  0  0
  7 23  1  0  0  0  0
  8 10  1  0  0  0  0
  8 24  1  0  0  0  0
  9 25  1  0  0  0  0
 10 11  1  0  0  0  0
 10 26  1  0  0  0  0
 11 28  1  0  0  0  0
 11 29  1  0  0  0  0
 11 30  1  0  0  0  0
 12 13  1  0  0  0  0
 12 14  2  0  0  0  0
 13 15  1  0  0  0  0
 13 16  2  0  0  0  0
 14 17  1  0  0  0  0
 14 34  1  0  0  0  0
 15 18  1  0  0  0  0
 15 19  2  0  0  0  0
 16 20  1  0  0  0  0
 16 35  1  0  0  0  0
 17 18  2  0  0  0  0
 17 36  1  0  0  0  0
 18 37  1  0  0  0  0
 19 21  1  0  0  0  0
 19 38  1  0  0  0  0
 20 21  2  0  0  0  0
 20 39  1  0  0  0  0
 21 40  1  0  0  0  0
M  END
> <PUBCHEM_COMPOUND_CID>
2832907

> <PUBCHEM_CONFORMER_RMSD>
0.6

> <PUBCHEM_CONFORMER_DIVERSEORDER>
1
431
240
125
358
279
318
151
340
115
432
59
47
389
445
342
339
27
283
92
285
426
414
271
412
129
254
265
207
220
9
241
113
200
363
330
405
383
365
380
267
347
123
406
64
46
165
384
343
245
96
370
197
50
411
221
79
307
85
447
270
390
95
209
398
28
368
369
438
111
439
419
117
5
282
244
366
83
80
361
434
216
274
194
452
218
322
388
181
206
128
444
269
61
219
149
248
217
362
137
266
17
277
99
413
397
407
356
77
364
124
331
15
191
196
164
52
425
443
280
409
427
371
34
18
228
101
290
162
158
449
332
105
70
249
176
32
304
11
210
69
433
352
75
275
152
410
243
404
258
334
311
175
324
320
100
250
385
295
357
231
391
294
133
392
147
335
223
435
446
63
214
393
90
234
186
45
292
171
73
375
336
37
256
3
227
381
428
159
86
190
119
400
309
178
132
327
169
401
299
423
257
184
222
68
351
29
441
202
183
313
7
442
394
166
451
67
306
296
325
82
201
172
174
252
353
312
163
289
31
161
242
8
180
448
367
36
408
192
26
148
437
350
354
293
235
51
145
345
88
301
30
300
337
21
238
225
107
422
355
13
136
229
114
135
315
429
323
156
98
230
415
286
326
110
333
305
396
204
118
263
386
116
167
260
188
97
203
71
66
440
236
48
40
328
417
372
377
424
418
349
276
198
288
399
262
177
41
278
157
38
298
316
416
126
138
310
287
122
403
185
246
160
182
44
319
387
420
308
142
143
317
6
314
65
14
78
273
130
212
55
76
91
189
168
54
233
94
199
10
173
226
348
402
146
395
261
187
127
268
89
22
346
154
16
74
141
421
213
251
360
193
224
58
140
255
302
453
376
153
25
102
4
291
131
344
259
272
253
56
239
139
84
436
43
208
49
53
297
341
247
60
378
281
284
20
106
329
321
39
359
382
33
303
93
144
205
72
112
134
42
104
450
2
155
379
232
103
62
338
87
108
430
237
374
120
215
24
23
81
170
19
211
150
373
179
264
109
12
195
121
57
35

> <PUBCHEM_MMFF94_PARTIAL_CHARGES>
29
1 -0.56
10 0.28
12 0.1
14 -0.15
16 -0.15
17 -0.15
18 -0.15
19 -0.15
2 -0.68
20 -0.15
21 -0.15
27 0.4
3 -0.68
31 0.4
32 0.4
33 0.4
34 0.15
35 0.15
36 0.15
37 0.15
38 0.15
39 0.15
4 -0.68
40 0.15
5 -0.87
6 0.28
7 0.28
8 0.28
9 0.65

> <PUBCHEM_EFFECTIVE_ROTOR_COUNT>
3.2

> <PUBCHEM_PHARMACOPHORE_FEATURES>
12
1 1 acceptor
1 2 acceptor
1 2 donor
1 3 acceptor
1 3 donor
1 4 acceptor
1 4 donor
1 5 cation
1 5 donor
6 1 6 7 8 9 10 rings
6 12 13 14 15 17 18 rings
6 13 15 16 19 20 21 rings

> <PUBCHEM_HEAVY_ATOM_COUNT>
21

> <PUBCHEM_ATOM_DEF_STEREO_COUNT>
0

> <PUBCHEM_ATOM_UDEF_STEREO_COUNT>
5

> <PUBCHEM_BOND_DEF_STEREO_COUNT>
0

> <PUBCHEM_BOND_UDEF_STEREO_COUNT>
0

> <PUBCHEM_ISOTOPIC_ATOM_COUNT>
0

> <PUBCHEM_COMPONENT_COUNT>
1

> <PUBCHEM_CACTVS_TAUTO_COUNT>
1

> <PUBCHEM_CONFORMER_ID>
002B3A0B00000001

> <PUBCHEM_MMFF94_ENERGY>
74.5076

> <PUBCHEM_FEATURE_SELFOVERLAP>
60.937

> <PUBCHEM_SHAPE_FINGERPRINT>
10366900 7 17241056426650433724
10369192 42 16126097910703883152
10616163 171 18272653433108291751
11552529 35 12462416259125686605
11578080 2 18119215481292615045
12107183 9 17762618387000434955
12173636 292 17914331282482690993
12236239 1 18408602556776906870
12403814 3 18187647964830708165
12553582 1 18129935806232209407
12616971 3 18186519873952136737
12788726 201 18272657840066101193
13009979 54 18196931068141300914
13134695 92 16877657942687694596
13167823 11 18409449180725188607
13224815 77 18273494576340024329
13583140 156 16081371898750653672
14178342 30 18196640809813992882
14386348 63 16271927116557194351
14790565 3 17842572747355753097
16752209 62 18201997716358562375
17349148 13 18186793673648170882
17492 89 18340205181214445551
17804303 29 17846776339115885201
17844677 252 15913332398732827723
18681886 176 18342455976421553506
19050596 39 18410008827706204779
192875 21 18040708152393436064
19862831 5 18409171029852549181
200 152 18335698351744417803
20511986 3 18336246995125060741
20645477 70 16515681105183855810
20715895 44 17904191530612302197
21033648 29 15841257152184225434
21054139 6 18336541711628610126
21065201 7 17988644038971423818
21267235 1 18341620321456262223
21709351 56 18187644670068215212
2255824 54 18113622279095777658
22646028 1 18409163303259143975
2297311 6 17917720106025519167
23402539 116 18131059425553115733
23557571 272 17775563117956882904
23559900 14 17845100562392460574
23598291 2 18263084305806576242
3004659 81 18410008849249639039
312423 11 18409740546747668842
474 4 17968101970846765724
495365 180 15213285444161284360
5281201 14 15339124524211458320
573450 72 18341044138586996977
6034566 193 16375537580683038228
603831 33 18410571803619359611
633830 44 18260844703968907382
67856867 119 18336539525500832024
7097593 13 18049717425737897627
7164475 11 18339357470301334340
7495541 125 16559031601861366378
7615 1 18335983090648593952
9709674 26 18341901761815090047
9981440 41 17616534395139750976

> <PUBCHEM_SHAPE_MULTIPOLES>
403.71
10.5
2.26
1.32
0.86
0.52
0
-1.55
2.28
0.69
-0.13
-1.41
0.02
-2.26

> <PUBCHEM_SHAPE_SELFOVERLAP>
870.838

> <PUBCHEM_SHAPE_VOLUME>
220.7

> <PUBCHEM_COORDINATE_TYPE>
2
5
10

$$$$
