574330
  -OEChem-01171811543D

 35 37  0     0  0  0  0  0  0999 V2000
    5.8787    1.3457    0.2171 O   0  0  0  0  0  0  0  0  0  0  0  0
   -0.0735   -3.0740    0.1466 O   0  0  0  0  0  0  0  0  0  0  0  0
   -6.2613   -0.0669    0.1618 O   0  5  0  0  0  0  0  0  0  0  0  0
   -5.6667    2.0371   -0.0349 O   0  0  0  0  0  0  0  0  0  0  0  0
    3.3639    0.2109   -0.2663 N   0  0  0  0  0  0  0  0  0  0  0  0
    0.0110   -0.7145   -0.0504 N   0  0  0  0  0  0  0  0  0  0  0  0
    0.9867    0.2483   -0.1701 N   0  0  0  0  0  0  0  0  0  0  0  0
   -5.3791    0.8187    0.0516 N   0  3  0  0  0  0  0  0  0  0  0  0
    4.5739   -0.5868   -0.4499 C   0  0  0  0  0  0  0  0  0  0  0  0
    3.5514    1.6542   -0.3921 C   0  0  0  0  0  0  0  0  0  0  0  0
    2.1380   -0.3510   -0.1692 C   0  0  0  0  0  0  0  0  0  0  0  0
    5.6738   -0.0491    0.4569 C   0  0  0  0  0  0  0  0  0  0  0  0
    4.6964    2.0940    0.5120 C   0  0  0  0  0  0  0  0  0  0  0  0
    2.0088   -1.8406   -0.0419 C   0  0  0  0  0  0  0  0  0  0  0  0
    0.5218   -2.0159    0.0349 C   0  0  0  0  0  0  0  0  0  0  0  0
   -1.3216   -0.3355   -0.0264 C   0  0  0  0  0  0  0  0  0  0  0  0
   -2.3286   -1.2998    0.0943 C   0  0  0  0  0  0  0  0  0  0  0  0
   -1.6742    1.0158   -0.1215 C   0  0  0  0  0  0  0  0  0  0  0  0
   -3.6701   -0.9184    0.1194 C   0  0  0  0  0  0  0  0  0  0  0  0
   -3.0157    1.3974   -0.0962 C   0  0  0  0  0  0  0  0  0  0  0  0
   -4.0138    0.4303    0.0243 C   0  0  0  0  0  0  0  0  0  0  0  0
    4.8835   -0.5040   -1.4986 H   0  0  0  0  0  0  0  0  0  0  0  0
    4.4433   -1.6494   -0.2305 H   0  0  0  0  0  0  0  0  0  0  0  0
    2.6476    2.2119   -0.1241 H   0  0  0  0  0  0  0  0  0  0  0  0
    3.7889    1.8839   -1.4376 H   0  0  0  0  0  0  0  0  0  0  0  0
    5.4324   -0.2033    1.5154 H   0  0  0  0  0  0  0  0  0  0  0  0
    6.6164   -0.5659    0.2506 H   0  0  0  0  0  0  0  0  0  0  0  0
    4.9193    3.1527    0.3470 H   0  0  0  0  0  0  0  0  0  0  0  0
    4.4423    1.9668    1.5712 H   0  0  0  0  0  0  0  0  0  0  0  0
    2.3914   -2.3504   -0.9290 H   0  0  0  0  0  0  0  0  0  0  0  0
    2.4751   -2.2005    0.8780 H   0  0  0  0  0  0  0  0  0  0  0  0
   -2.1424   -2.3621    0.1729 H   0  0  0  0  0  0  0  0  0  0  0  0
   -0.9267    1.7992   -0.2162 H   0  0  0  0  0  0  0  0  0  0  0  0
   -4.4216   -1.6981    0.2146 H   0  0  0  0  0  0  0  0  0  0  0  0
   -3.2465    2.4569   -0.1723 H   0  0  0  0  0  0  0  0  0  0  0  0
  1 12  1  0  0  0  0
  1 13  1  0  0  0  0
  2 15  2  0  0  0  0
  3  8  1  0  0  0  0
  4  8  2  0  0  0  0
  5  9  1  0  0  0  0
  5 10  1  0  0  0  0
  5 11  1  0  0  0  0
  6  7  1  0  0  0  0
  6 15  1  0  0  0  0
  6 16  1  0  0  0  0
  7 11  2  0  0  0  0
  8 21  1  0  0  0  0
  9 12  1  0  0  0  0
  9 22  1  0  0  0  0
  9 23  1  0  0  0  0
 10 13  1  0  0  0  0
 10 24  1  0  0  0  0
 10 25  1  0  0  0  0
 11 14  1  0  0  0  0
 12 26  1  0  0  0  0
 12 27  1  0  0  0  0
 13 28  1  0  0  0  0
 13 29  1  0  0  0  0
 14 15  1  0  0  0  0
 14 30  1  0  0  0  0
 14 31  1  0  0  0  0
 16 17  2  0  0  0  0
 16 18  1  0  0  0  0
 17 19  1  0  0  0  0
 17 32  1  0  0  0  0
 18 20  2  0  0  0  0
 18 33  1  0  0  0  0
 19 21  2  0  0  0  0
 19 34  1  0  0  0  0
 20 21  1  0  0  0  0
 20 35  1  0  0  0  0
M  CHG  2   3  -1   8   1
M  END
> <PUBCHEM_COMPOUND_CID>
574330

> <PUBCHEM_CONFORMER_RMSD>
0.8

> <PUBCHEM_CONFORMER_DIVERSEORDER>
1
3
2

> <PUBCHEM_MMFF94_PARTIAL_CHARGES>
25
1 -0.56
10 0.37
11 0.44
12 0.28
13 0.28
14 0.12
15 0.57
16 0.12
17 -0.15
18 -0.15
19 -0.15
2 -0.57
20 -0.15
21 0.13
3 -0.52
32 0.15
33 0.15
34 0.15
35 0.15
4 -0.52
5 -0.79
6 -0.11
7 -0.51
8 0.91
9 0.37

> <PUBCHEM_EFFECTIVE_ROTOR_COUNT>
4.6

> <PUBCHEM_PHARMACOPHORE_FEATURES>
9
1 1 acceptor
1 2 acceptor
1 3 acceptor
1 3 anion
1 4 acceptor
3 5 7 11 cation
5 6 7 11 14 15 rings
6 1 5 9 10 12 13 rings
6 16 17 18 19 20 21 rings

> <PUBCHEM_HEAVY_ATOM_COUNT>
21

> <PUBCHEM_ATOM_DEF_STEREO_COUNT>
0

> <PUBCHEM_ATOM_UDEF_STEREO_COUNT>
0

> <PUBCHEM_BOND_DEF_STEREO_COUNT>
0

> <PUBCHEM_BOND_UDEF_STEREO_COUNT>
0

> <PUBCHEM_ISOTOPIC_ATOM_COUNT>
0

> <PUBCHEM_COMPONENT_COUNT>
1

> <PUBCHEM_CACTVS_TAUTO_COUNT>
3

> <PUBCHEM_CONFORMER_ID>
0008C37A00000001

> <PUBCHEM_MMFF94_ENERGY>
61.8128

> <PUBCHEM_FEATURE_SELFOVERLAP>
45.754

> <PUBCHEM_SHAPE_FINGERPRINT>
10 15 18186524340396540201
10411042 1 17545884188511938811
12236239 1 17988923349353130719
12403259 415 18340778134256546698
12596602 18 16443632401644094032
12633257 1 16008752445765269612
12916748 109 18412548699856588800
13167372 99 18342177717753420816
13402501 40 18410572898620300952
13533116 47 17313658248879373106
13631057 29 18129656534932625631
13785724 45 17832982755298391162
13955234 65 18264491676332554339
14251764 18 18260260868201442144
14528608 73 18341892991681171669
14790565 3 18411986862178826185
15196674 1 18410576222945521934
18222031 100 9223229628893284862
19784866 170 18334014978130895595
20281389 69 18333731308199498061
20645477 56 18409168822286942190
21033648 29 18270110340175417536
21150785 3 17917419927162859373
21236236 1 18340768260227596551
21315764 268 18334287669826367228
21452121 103 18409166571850835394
22079108 93 18411979191166210366
23227448 37 18270680999299599382
23402539 116 18342170107107938374
23559900 14 18342177705201035998
2838139 119 18342731918831962957
2916195 48 18272646900457441456
293599 30 18412265046988580734
335352 9 18410857651595704878
34797466 226 17561091327438953597
34934 24 18411978044874341343
350125 39 18336264540245611636
351380 180 18411418432015504908
351380 3 8502655895911216496
3545911 37 18408325471029951974
4073 2 18041565844783766938
4325135 7 18341890810338886975
4340502 62 18408890628807897687
465052 167 11097855177357846872
474 4 18186527613198432284
474229 33 18409450314744533539
495365 180 17489299833280773442
5104073 3 18188779336367241315
59682541 35 18334586772054950467
59755656 215 18338241470816465630
59755656 520 18333725845117402150
633830 44 18413384345773568886
9981440 41 18333172773609802811

> <PUBCHEM_SHAPE_MULTIPOLES>
388.77
13.92
2.32
0.64
2.08
0.65
0
-7.78
1.06
-0.43
0.11
-0.24
-0.03
0.33

> <PUBCHEM_SHAPE_SELFOVERLAP>
837.184

> <PUBCHEM_SHAPE_VOLUME>
213.7

> <PUBCHEM_COORDINATE_TYPE>
2
5
10

$$$$
