250957
  -OEChem-01171811553D

 17 17  0     0  0  0  0  0  0999 V2000
   -0.9195    1.4018    0.5253 S   0  0  0  0  0  0  0  0  0  0  0  0
   -0.1731   -2.3185   -0.0198 O   0  0  0  0  0  0  0  0  0  0  0  0
    3.6617    0.4530    0.1445 O   0  0  0  0  0  0  0  0  0  0  0  0
    1.9656    0.4189   -1.3654 O   0  0  0  0  0  0  0  0  0  0  0  0
   -2.0141   -0.8014   -0.2683 N   0  0  0  0  0  0  0  0  0  0  0  0
   -3.4267    1.0944   -0.3063 N   0  0  0  0  0  0  0  0  0  0  0  0
    0.0428   -0.0176    0.5253 C   0  0  0  0  0  0  0  0  0  0  0  0
    1.4503    0.0390    0.9694 C   0  0  0  0  0  0  0  0  0  0  0  0
   -0.7061   -1.0842    0.0741 C   0  0  0  0  0  0  0  0  0  0  0  0
   -2.2377    0.4788   -0.0708 C   0  0  0  0  0  0  0  0  0  0  0  0
    2.3568    0.3358   -0.2079 C   0  0  0  0  0  0  0  0  0  0  0  0
    1.7633   -0.9084    1.4197 H   0  0  0  0  0  0  0  0  0  0  0  0
    1.5950    0.8270    1.7177 H   0  0  0  0  0  0  0  0  0  0  0  0
   -3.5571    2.0867   -0.1396 H   0  0  0  0  0  0  0  0  0  0  0  0
   -4.2313    0.5860   -0.6581 H   0  0  0  0  0  0  0  0  0  0  0  0
    0.7679   -2.3256    0.2225 H   0  0  0  0  0  0  0  0  0  0  0  0
    4.2367    0.6229   -0.6319 H   0  0  0  0  0  0  0  0  0  0  0  0
  1  7  1  0  0  0  0
  1 10  1  0  0  0  0
  2  9  1  0  0  0  0
  2 16  1  0  0  0  0
  3 11  1  0  0  0  0
  3 17  1  0  0  0  0
  4 11  2  0  0  0  0
  5  9  1  0  0  0  0
  5 10  2  0  0  0  0
  6 10  1  0  0  0  0
  6 14  1  0  0  0  0
  6 15  1  0  0  0  0
  7  8  1  0  0  0  0
  7  9  2  0  0  0  0
  8 11  1  0  0  0  0
  8 12  1  0  0  0  0
  8 13  1  0  0  0  0
M  END
> <PUBCHEM_COMPOUND_CID>
250957

> <PUBCHEM_CONFORMER_RMSD>
0.4

> <PUBCHEM_CONFORMER_DIVERSEORDER>
1
6
21
14
3
18
17
7
16
15
20
19
10
13
11
12
4
8
9
2
5

> <PUBCHEM_MMFF94_PARTIAL_CHARGES>
15
1 -0.08
10 0.46
11 0.66
14 0.4
15 0.4
16 0.45
17 0.5
2 -0.51
3 -0.65
4 -0.57
5 -0.57
6 -0.88
7 -0.14
8 0.24
9 0.29

> <PUBCHEM_EFFECTIVE_ROTOR_COUNT>
2

> <PUBCHEM_PHARMACOPHORE_FEATURES>
7
1 2 donor
1 3 acceptor
1 4 acceptor
1 6 donor
3 3 4 11 anion
3 5 6 10 cation
5 1 5 7 9 10 rings

> <PUBCHEM_HEAVY_ATOM_COUNT>
11

> <PUBCHEM_ATOM_DEF_STEREO_COUNT>
0

> <PUBCHEM_ATOM_UDEF_STEREO_COUNT>
0

> <PUBCHEM_BOND_DEF_STEREO_COUNT>
0

> <PUBCHEM_BOND_UDEF_STEREO_COUNT>
0

> <PUBCHEM_ISOTOPIC_ATOM_COUNT>
0

> <PUBCHEM_COMPONENT_COUNT>
1

> <PUBCHEM_CACTVS_TAUTO_COUNT>
2

> <PUBCHEM_CONFORMER_ID>
0003D44D00000001

> <PUBCHEM_MMFF94_ENERGY>
11.262

> <PUBCHEM_FEATURE_SELFOVERLAP>
35.579

> <PUBCHEM_SHAPE_FINGERPRINT>
12138202 97 18059854008270607854
12716758 59 18341330088888053026
12897270 3 18202284692856004812
14325111 11 18410009922806801009
15775835 57 18113618980123336772
16945 1 17418095412156248041
20201158 50 17418379090641150524
20645476 183 18114188561548519550
20653085 51 17895490201267698500
21028194 46 18260269620469208449
21040471 1 18411691093445056771
21293036 1 18343860030915812733
23235685 24 18410288090854021881
23402539 116 18200863028895956204
23552423 10 17978789013425777011
23559900 14 18201997738550622456
2748010 2 18125422353796640657
29004967 10 15769780169136926360
5084963 1 17821723927283876944

> <PUBCHEM_SHAPE_MULTIPOLES>
202.65
4.49
1.53
0.89
1.11
0.74
0.07
-1.62
0.77
-0.64
-0.07
0.36
-0.12
-0.06

> <PUBCHEM_SHAPE_SELFOVERLAP>
407.102

> <PUBCHEM_SHAPE_VOLUME>
120.8

> <PUBCHEM_COORDINATE_TYPE>
2
5
10

$$$$
