597171
  -OEChem-01171811513D

 22 22  0     0  0  0  0  0  0999 V2000
   -2.6861   -0.5177   -1.1863 O   0  0  0  0  0  0  0  0  0  0  0  0
   -2.7874   -0.5215    1.0743 O   0  0  0  0  0  0  0  0  0  0  0  0
    1.8917    2.4238   -0.0173 N   0  0  0  0  0  0  0  0  0  0  0  0
    2.3568   -2.4035   -0.0001 N   0  0  0  0  0  0  0  0  0  0  0  0
   -0.0960    1.0058    0.0149 C   0  0  0  0  0  0  0  0  0  0  0  0
   -0.6694   -0.2656    0.0288 C   0  0  0  0  0  0  0  0  0  0  0  0
    1.2919    1.1451   -0.0040 C   0  0  0  0  0  0  0  0  0  0  0  0
    1.5329   -1.2589    0.0048 C   0  0  0  0  0  0  0  0  0  0  0  0
    0.1451   -1.3979    0.0237 C   0  0  0  0  0  0  0  0  0  0  0  0
    2.1064    0.0126   -0.0091 C   0  0  0  0  0  0  0  0  0  0  0  0
   -0.9707    2.2207    0.0209 C   0  0  0  0  0  0  0  0  0  0  0  0
   -2.1153   -0.4428    0.0495 C   0  0  0  0  0  0  0  0  0  0  0  0
   -0.3023   -2.3897    0.0348 H   0  0  0  0  0  0  0  0  0  0  0  0
    3.1891    0.1198   -0.0236 H   0  0  0  0  0  0  0  0  0  0  0  0
   -0.7618    2.8316    0.9061 H   0  0  0  0  0  0  0  0  0  0  0  0
   -0.7911    2.8191   -0.8792 H   0  0  0  0  0  0  0  0  0  0  0  0
   -2.0415    2.0025    0.0404 H   0  0  0  0  0  0  0  0  0  0  0  0
    2.9003    2.5017   -0.0322 H   0  0  0  0  0  0  0  0  0  0  0  0
    1.3318    3.2645   -0.0167 H   0  0  0  0  0  0  0  0  0  0  0  0
    1.9420   -3.3258    0.0094 H   0  0  0  0  0  0  0  0  0  0  0  0
    3.3631   -2.3032   -0.0144 H   0  0  0  0  0  0  0  0  0  0  0  0
   -3.6585   -0.6358   -1.1315 H   0  0  0  0  0  0  0  0  0  0  0  0
  1 12  1  0  0  0  0
  1 22  1  0  0  0  0
  2 12  2  0  0  0  0
  3  7  1  0  0  0  0
  3 18  1  0  0  0  0
  3 19  1  0  0  0  0
  4  8  1  0  0  0  0
  4 20  1  0  0  0  0
  4 21  1  0  0  0  0
  5  6  2  0  0  0  0
  5  7  1  0  0  0  0
  5 11  1  0  0  0  0
  6  9  1  0  0  0  0
  6 12  1  0  0  0  0
  7 10  2  0  0  0  0
  8  9  2  0  0  0  0
  8 10  1  0  0  0  0
  9 13  1  0  0  0  0
 10 14  1  0  0  0  0
 11 15  1  0  0  0  0
 11 16  1  0  0  0  0
 11 17  1  0  0  0  0
M  END
> <PUBCHEM_COMPOUND_CID>
597171

> <PUBCHEM_CONFORMER_RMSD>
0.4

> <PUBCHEM_CONFORMER_DIVERSEORDER>
2
1
3

> <PUBCHEM_MMFF94_PARTIAL_CHARGES>
19
1 -0.65
10 -0.15
11 0.14
12 0.63
13 0.15
14 0.15
18 0.4
19 0.4
2 -0.57
20 0.4
21 0.4
22 0.5
3 -0.9
4 -0.9
5 -0.14
6 0.09
7 0.1
8 0.1
9 -0.15

> <PUBCHEM_EFFECTIVE_ROTOR_COUNT>
1

> <PUBCHEM_PHARMACOPHORE_FEATURES>
8
1 1 acceptor
1 2 acceptor
1 3 cation
1 3 donor
1 4 cation
1 4 donor
3 1 2 12 anion
6 5 6 7 8 9 10 rings

> <PUBCHEM_HEAVY_ATOM_COUNT>
12

> <PUBCHEM_ATOM_DEF_STEREO_COUNT>
0

> <PUBCHEM_ATOM_UDEF_STEREO_COUNT>
0

> <PUBCHEM_BOND_DEF_STEREO_COUNT>
0

> <PUBCHEM_BOND_UDEF_STEREO_COUNT>
0

> <PUBCHEM_ISOTOPIC_ATOM_COUNT>
0

> <PUBCHEM_COMPONENT_COUNT>
1

> <PUBCHEM_CACTVS_TAUTO_COUNT>
1

> <PUBCHEM_CONFORMER_ID>
00091CB300000002

> <PUBCHEM_MMFF94_ENERGY>
59.877

> <PUBCHEM_FEATURE_SELFOVERLAP>
40.655

> <PUBCHEM_SHAPE_FINGERPRINT>
1 1 18193556894266850892
11206711 2 18336832991793767636
12423570 1 17028834022205938908
12524768 44 18335701697207417291
161256 15 18411146830809989652
16945 1 18410574011158677218
193761 8 18338517417864388752
20871998 184 17767403478826738790
21040471 1 17762056936201706320
21501502 16 18338518512906781076
2334 1 17762055841069240494
23552423 10 18409169900218173421
23559900 14 17548977759635750422
241688 4 18121497947430301880
2748010 2 18195802969089603534
29004967 10 18334580174019942483
5084963 1 18131909355935125106
528886 8 18123468538296961200
63268167 104 18270114750874500417
81228 2 17617657661872119690

> <PUBCHEM_SHAPE_MULTIPOLES>
225.25
3.51
2.44
0.75
1.12
0.87
0.03
-1.18
0.01
-1.32
0
0.45
-0.1
-0.01

> <PUBCHEM_SHAPE_SELFOVERLAP>
475.23

> <PUBCHEM_SHAPE_VOLUME>
128.2

> <PUBCHEM_COORDINATE_TYPE>
2
5
10

$$$$
