869163
  -OEChem-01171811583D

 35 37  0     0  0  0  0  0  0999 V2000
   -0.6761   -1.4956   -1.6087 O   0  0  0  0  0  0  0  0  0  0  0  0
   -2.7843    2.6579    1.0123 O   0  0  0  0  0  0  0  0  0  0  0  0
    5.2908   -0.3943    1.3437 O   0  0  0  0  0  0  0  0  0  0  0  0
   -0.5093    0.7886   -1.0021 C   0  0  0  0  0  0  0  0  0  0  0  0
    0.7717    0.9194   -1.7681 C   0  0  0  0  0  0  0  0  0  0  0  0
   -2.4306   -0.7000   -0.2587 C   0  0  0  0  0  0  0  0  0  0  0  0
   -1.1658   -0.5473   -1.0058 C   0  0  0  0  0  0  0  0  0  0  0  0
    1.9757    0.5693   -0.9386 C   0  0  0  0  0  0  0  0  0  0  0  0
   -2.9867    0.3801    0.4286 C   0  0  0  0  0  0  0  0  0  0  0  0
   -1.0558    1.8137   -0.3383 C   0  0  0  0  0  0  0  0  0  0  0  0
   -2.3185    1.6930    0.4188 C   0  0  0  0  0  0  0  0  0  0  0  0
   -3.0763   -1.9424   -0.2419 C   0  0  0  0  0  0  0  0  0  0  0  0
    2.6177    1.5616   -0.2094 C   0  0  0  0  0  0  0  0  0  0  0  0
    2.4315   -0.7424   -0.9124 C   0  0  0  0  0  0  0  0  0  0  0  0
   -4.1860    0.2210    1.1324 C   0  0  0  0  0  0  0  0  0  0  0  0
   -4.2718   -2.0982    0.4606 C   0  0  0  0  0  0  0  0  0  0  0  0
   -4.8255   -1.0188    1.1464 C   0  0  0  0  0  0  0  0  0  0  0  0
    3.7354    1.2365    0.5595 C   0  0  0  0  0  0  0  0  0  0  0  0
    3.5490   -1.0673   -0.1434 C   0  0  0  0  0  0  0  0  0  0  0  0
    4.2009   -0.0779    0.5925 C   0  0  0  0  0  0  0  0  0  0  0  0
    5.7139   -1.7568    1.3326 C   0  0  0  0  0  0  0  0  0  0  0  0
    0.8816    1.9466   -2.1438 H   0  0  0  0  0  0  0  0  0  0  0  0
    0.7490    0.3080   -2.6797 H   0  0  0  0  0  0  0  0  0  0  0  0
   -0.5825    2.7908   -0.3316 H   0  0  0  0  0  0  0  0  0  0  0  0
   -2.6654   -2.7997   -0.7684 H   0  0  0  0  0  0  0  0  0  0  0  0
    2.2645    2.5889   -0.2271 H   0  0  0  0  0  0  0  0  0  0  0  0
    1.9427   -1.5216   -1.4890 H   0  0  0  0  0  0  0  0  0  0  0  0
   -4.6366    1.0481    1.6743 H   0  0  0  0  0  0  0  0  0  0  0  0
   -4.7716   -3.0625    0.4728 H   0  0  0  0  0  0  0  0  0  0  0  0
   -5.7562   -1.1429    1.6925 H   0  0  0  0  0  0  0  0  0  0  0  0
    4.2389    2.0116    1.1308 H   0  0  0  0  0  0  0  0  0  0  0  0
    3.8588   -2.1066   -0.1648 H   0  0  0  0  0  0  0  0  0  0  0  0
    6.0304   -2.0717    0.3325 H   0  0  0  0  0  0  0  0  0  0  0  0
    4.9496   -2.4189    1.7536 H   0  0  0  0  0  0  0  0  0  0  0  0
    6.5919   -1.8280    1.9830 H   0  0  0  0  0  0  0  0  0  0  0  0
  1  7  2  0  0  0  0
  2 11  2  0  0  0  0
  3 20  1  0  0  0  0
  3 21  1  0  0  0  0
  4  5  1  0  0  0  0
  4  7  1  0  0  0  0
  4 10  2  0  0  0  0
  5  8  1  0  0  0  0
  5 22  1  0  0  0  0
  5 23  1  0  0  0  0
  6  7  1  0  0  0  0
  6  9  1  0  0  0  0
  6 12  2  0  0  0  0
  8 13  2  0  0  0  0
  8 14  1  0  0  0  0
  9 11  1  0  0  0  0
  9 15  2  0  0  0  0
 10 11  1  0  0  0  0
 10 24  1  0  0  0  0
 12 16  1  0  0  0  0
 12 25  1  0  0  0  0
 13 18  1  0  0  0  0
 13 26  1  0  0  0  0
 14 19  2  0  0  0  0
 14 27  1  0  0  0  0
 15 17  1  0  0  0  0
 15 28  1  0  0  0  0
 16 17  2  0  0  0  0
 16 29  1  0  0  0  0
 17 30  1  0  0  0  0
 18 20  2  0  0  0  0
 18 31  1  0  0  0  0
 19 20  1  0  0  0  0
 19 32  1  0  0  0  0
 21 33  1  0  0  0  0
 21 34  1  0  0  0  0
 21 35  1  0  0  0  0
M  END
> <PUBCHEM_COMPOUND_CID>
869163

> <PUBCHEM_CONFORMER_RMSD>
0.6

> <PUBCHEM_CONFORMER_DIVERSEORDER>
1
6
8
15
12
16
13
5
2
14
9
4
7
11
10
17
3

> <PUBCHEM_MMFF94_PARTIAL_CHARGES>
30
1 -0.57
10 -0.14
11 0.47
12 -0.15
13 -0.15
14 -0.15
15 -0.15
16 -0.15
17 -0.15
18 -0.15
19 -0.15
2 -0.57
20 0.08
21 0.28
24 0.15
25 0.15
26 0.15
27 0.15
28 0.15
29 0.15
3 -0.36
30 0.15
31 0.15
32 0.15
4 -0.12
5 0.28
6 0.09
7 0.47
8 -0.14
9 0.09

> <PUBCHEM_EFFECTIVE_ROTOR_COUNT>
3

> <PUBCHEM_PHARMACOPHORE_FEATURES>
6
1 1 acceptor
1 2 acceptor
1 3 acceptor
6 4 6 7 9 10 11 rings
6 6 9 12 15 16 17 rings
6 8 13 14 18 19 20 rings

> <PUBCHEM_HEAVY_ATOM_COUNT>
21

> <PUBCHEM_ATOM_DEF_STEREO_COUNT>
0

> <PUBCHEM_ATOM_UDEF_STEREO_COUNT>
0

> <PUBCHEM_BOND_DEF_STEREO_COUNT>
0

> <PUBCHEM_BOND_UDEF_STEREO_COUNT>
0

> <PUBCHEM_ISOTOPIC_ATOM_COUNT>
0

> <PUBCHEM_COMPONENT_COUNT>
1

> <PUBCHEM_CACTVS_TAUTO_COUNT>
3

> <PUBCHEM_CONFORMER_ID>
000D432B00000001

> <PUBCHEM_MMFF94_ENERGY>
64.8439

> <PUBCHEM_FEATURE_SELFOVERLAP>
30.47

> <PUBCHEM_SHAPE_FINGERPRINT>
10319926 262 18130233648991401982
11132069 177 17988094356546389999
11578080 2 17968925517899369821
12251169 10 18344148098535480284
12363563 72 16081084896214206476
12403814 3 17917711331581367693
12507560 40 17917153801702633308
12596602 18 18333447668659211816
12633257 1 17561081466209606298
12670546 177 8214146252617303058
12839892 36 18202288039089761687
12892183 10 18343018874455695646
13103583 49 18262799541338494016
13533116 47 18041563662328106289
13583140 156 17845924161163375800
13675066 3 17775287132148751966
14178342 30 18337677390864288356
1420 369 17894347787296135338
14341114 176 18412827993206145616
14341114 328 18130793407646751552
14420673 8 18052260596829613334
14848178 5 17604711208802922499
15188451 53 18334852844530298955
15209289 33 18041278777643377802
15342168 16 13973970908544589321
15475509 35 17393065232494360475
17780758 139 18337662019566648328
17870717 6 13117998890318321907
17959699 21 10663824074447064090
1813 80 17531254958548605142
19377110 9 18261669376909349952
193927 3 16805325504532835602
19784866 240 17240484710352269679
19784866 34 13542467557349383606
19862831 5 8358266925128856839
200 152 16008745805772294764
20645477 70 15502382274193419628
20871999 31 7925910370354447501
21033648 29 16988850436396557608
21065198 48 18408606980683288772
21065199 12 18273215270669983624
21713013 43 12613335156213144896
21864079 5 13829862278899638442
22079108 93 14333134108857394791
22393880 68 10809352131149679952
22646028 28 17822014228471134820
23227448 37 11671771702361176675
23559900 14 17843714142876059709
24859131 72 18411423912361983399
2748010 2 17836684871241373301
2838139 119 12247683760045627914
312423 11 18186810188151040092
3472631 163 11240002256324943427
3737641 26 17751915818843110242
3886686 26 17761779464103257283
4072396 5 18270975617482825583
4259306 186 15430313599398285626
49207404 50 17703522016403428485
5104073 3 18412829105049086776
57724786 102 14979955900478246730
58807428 26 18269294412522222539
5924683 9 18059848502434030511
6786 2 15798732268722423589
7097593 13 18337393712685587670
7970288 3 17603586339551341154
90316 7 18338532893090622125

> <PUBCHEM_SHAPE_MULTIPOLES>
414.56
11.1
2.28
1.42
7.32
0.21
-0.18
-5.77
6.45
-0.98
0.36
0.32
-0.06
-1

> <PUBCHEM_SHAPE_SELFOVERLAP>
914.253

> <PUBCHEM_SHAPE_VOLUME>
221.7

> <PUBCHEM_COORDINATE_TYPE>
2
5
10

$$$$
