4950135
  -OEChem-01171812003D

 46 48  0     0  0  0  0  0  0999 V2000
    3.5294    1.8784   -0.2307 S   0  0  0  0  0  0  0  0  0  0  0  0
   -3.6437   -1.3868   -1.4663 F   0  0  0  0  0  0  0  0  0  0  0  0
    3.8816    2.3959   -1.5355 O   0  0  0  0  0  0  0  0  0  0  0  0
    3.7617    2.6562    0.9676 O   0  0  0  0  0  0  0  0  0  0  0  0
   -2.8481    0.4956    1.9016 O   0  0  0  0  0  0  0  0  0  0  0  0
    4.2350    0.3304   -0.0341 N   0  0  0  0  0  0  0  0  0  0  0  0
    4.6651   -2.4843    0.3667 N   0  0  0  0  0  0  0  0  0  0  0  0
   -2.2106    0.3933   -0.3592 N   0  0  0  0  0  0  0  0  0  0  0  0
    3.9441   -0.6494   -1.1190 C   0  0  0  0  0  0  0  0  0  0  0  0
    4.0678   -0.2842    1.3136 C   0  0  0  0  0  0  0  0  0  0  0  0
    4.8460   -1.8723   -0.9571 C   0  0  0  0  0  0  0  0  0  0  0  0
    4.9671   -1.5140    1.4285 C   0  0  0  0  0  0  0  0  0  0  0  0
    5.5053   -3.6735    0.5027 C   0  0  0  0  0  0  0  0  0  0  0  0
    1.8208    1.4358   -0.2686 C   0  0  0  0  0  0  0  0  0  0  0  0
    1.1055    1.3912    0.9166 C   0  0  0  0  0  0  0  0  0  0  0  0
    1.2243    1.1409   -1.4834 C   0  0  0  0  0  0  0  0  0  0  0  0
   -0.2446    1.0418    0.8863 C   0  0  0  0  0  0  0  0  0  0  0  0
   -0.1258    0.7916   -1.5137 C   0  0  0  0  0  0  0  0  0  0  0  0
   -0.8601    0.7420   -0.3289 C   0  0  0  0  0  0  0  0  0  0  0  0
   -3.1001    0.2924    0.7188 C   0  0  0  0  0  0  0  0  0  0  0  0
   -4.4810   -0.1316    0.3681 C   0  0  0  0  0  0  0  0  0  0  0  0
   -4.6713   -0.9581   -0.7192 C   0  0  0  0  0  0  0  0  0  0  0  0
   -5.5285    0.3170    1.1452 C   0  0  0  0  0  0  0  0  0  0  0  0
   -5.9685   -1.3543   -1.0446 C   0  0  0  0  0  0  0  0  0  0  0  0
   -6.8257   -0.0792    0.8198 C   0  0  0  0  0  0  0  0  0  0  0  0
   -7.0458   -0.9148   -0.2751 C   0  0  0  0  0  0  0  0  0  0  0  0
    4.1382   -0.1969   -2.0968 H   0  0  0  0  0  0  0  0  0  0  0  0
    2.9001   -0.9759   -1.0780 H   0  0  0  0  0  0  0  0  0  0  0  0
    3.0254   -0.5776    1.4756 H   0  0  0  0  0  0  0  0  0  0  0  0
    4.3567    0.4292    2.0920 H   0  0  0  0  0  0  0  0  0  0  0  0
    4.5899   -2.5959   -1.7403 H   0  0  0  0  0  0  0  0  0  0  0  0
    5.8940   -1.5803   -1.1087 H   0  0  0  0  0  0  0  0  0  0  0  0
    6.0205   -1.2064    1.3835 H   0  0  0  0  0  0  0  0  0  0  0  0
    4.8002   -1.9726    2.4105 H   0  0  0  0  0  0  0  0  0  0  0  0
    5.3372   -4.1538    1.4729 H   0  0  0  0  0  0  0  0  0  0  0  0
    6.5725   -3.4401    0.4135 H   0  0  0  0  0  0  0  0  0  0  0  0
    5.2492   -4.4145   -0.2627 H   0  0  0  0  0  0  0  0  0  0  0  0
    1.5674    1.6185    1.8726 H   0  0  0  0  0  0  0  0  0  0  0  0
    1.7776    1.1717   -2.4169 H   0  0  0  0  0  0  0  0  0  0  0  0
   -0.7438    1.0249    1.8447 H   0  0  0  0  0  0  0  0  0  0  0  0
   -0.5925    0.5598   -2.4678 H   0  0  0  0  0  0  0  0  0  0  0  0
   -2.5758    0.2079   -1.2903 H   0  0  0  0  0  0  0  0  0  0  0  0
   -5.3745    0.9726    1.9971 H   0  0  0  0  0  0  0  0  0  0  0  0
   -6.1396   -2.0048   -1.8973 H   0  0  0  0  0  0  0  0  0  0  0  0
   -7.6647    0.2640    1.4181 H   0  0  0  0  0  0  0  0  0  0  0  0
   -8.0559   -1.2229   -0.5287 H   0  0  0  0  0  0  0  0  0  0  0  0
  1  3  2  0  0  0  0
  1  4  2  0  0  0  0
  1  6  1  0  0  0  0
  1 14  1  0  0  0  0
  2 22  1  0  0  0  0
  5 20  2  0  0  0  0
  6  9  1  0  0  0  0
  6 10  1  0  0  0  0
  7 11  1  0  0  0  0
  7 12  1  0  0  0  0
  7 13  1  0  0  0  0
  8 19  1  0  0  0  0
  8 20  1  0  0  0  0
  8 42  1  0  0  0  0
  9 11  1  0  0  0  0
  9 27  1  0  0  0  0
  9 28  1  0  0  0  0
 10 12  1  0  0  0  0
 10 29  1  0  0  0  0
 10 30  1  0  0  0  0
 11 31  1  0  0  0  0
 11 32  1  0  0  0  0
 12 33  1  0  0  0  0
 12 34  1  0  0  0  0
 13 35  1  0  0  0  0
 13 36  1  0  0  0  0
 13 37  1  0  0  0  0
 14 15  2  0  0  0  0
 14 16  1  0  0  0  0
 15 17  1  0  0  0  0
 15 38  1  0  0  0  0
 16 18  2  0  0  0  0
 16 39  1  0  0  0  0
 17 19  2  0  0  0  0
 17 40  1  0  0  0  0
 18 19  1  0  0  0  0
 18 41  1  0  0  0  0
 20 21  1  0  0  0  0
 21 22  1  0  0  0  0
 21 23  2  0  0  0  0
 22 24  2  0  0  0  0
 23 25  1  0  0  0  0
 23 43  1  0  0  0  0
 24 26  1  0  0  0  0
 24 44  1  0  0  0  0
 25 26  2  0  0  0  0
 25 45  1  0  0  0  0
 26 46  1  0  0  0  0
M  END
> <PUBCHEM_COMPOUND_CID>
4950135

> <PUBCHEM_CONFORMER_RMSD>
0.8

> <PUBCHEM_CONFORMER_DIVERSEORDER>
1
15
17
24
31
20
41
30
23
42
16
32
28
22
12
27
43
29
19
36
8
38
45
26
25
37
18
5
21
13
34
9
47
10
33
48
44
7
4
40
11
6
3
14
2
39
46
35

> <PUBCHEM_MMFF94_PARTIAL_CHARGES>
35
1 1.45
10 0.36
11 0.27
12 0.27
13 0.27
14 -0.01
15 -0.15
16 -0.15
17 -0.15
18 -0.15
19 0.12
2 -0.19
20 0.54
21 0.09
22 0.19
23 -0.15
24 -0.15
25 -0.15
26 -0.15
3 -0.65
38 0.15
39 0.15
4 -0.65
40 0.15
41 0.15
42 0.37
43 0.15
44 0.15
45 0.15
46 0.15
5 -0.57
6 -0.85
7 -0.81
8 -0.55
9 0.36

> <PUBCHEM_EFFECTIVE_ROTOR_COUNT>
6.2

> <PUBCHEM_PHARMACOPHORE_FEATURES>
8
1 3 acceptor
1 4 acceptor
1 5 acceptor
1 7 cation
1 8 donor
6 14 15 16 17 18 19 rings
6 21 22 23 24 25 26 rings
6 6 7 9 10 11 12 rings

> <PUBCHEM_HEAVY_ATOM_COUNT>
26

> <PUBCHEM_ATOM_DEF_STEREO_COUNT>
0

> <PUBCHEM_ATOM_UDEF_STEREO_COUNT>
0

> <PUBCHEM_BOND_DEF_STEREO_COUNT>
0

> <PUBCHEM_BOND_UDEF_STEREO_COUNT>
0

> <PUBCHEM_ISOTOPIC_ATOM_COUNT>
0

> <PUBCHEM_COMPONENT_COUNT>
1

> <PUBCHEM_CACTVS_TAUTO_COUNT>
2

> <PUBCHEM_CONFORMER_ID>
004B887700000001

> <PUBCHEM_MMFF94_ENERGY>
59.9613

> <PUBCHEM_FEATURE_SELFOVERLAP>
40.614

> <PUBCHEM_SHAPE_FINGERPRINT>
10 15 15697993059122601515
10319926 262 16773243876821556058
10554248 39 18273210898715615293
10670039 82 13551461523736487454
11059845 2 17341543933955264312
11505856 67 11811899031136953808
11719270 70 17060344011582411927
11796584 16 18341901843535246967
11954058 11 18342179913103948006
12107183 9 18054799385904070833
12236239 1 18341333375176285785
12596602 18 17418088819529532018
13533116 47 18411139147129250128
1361 4 18338517572879155627
13782708 43 18408040715368341471
13911852 28 18265050237182397698
13914758 101 18410852128362661981
13955234 65 18337673130848184896
14211702 104 18263086685889099083
14251740 57 17774729654137212118
14347332 77 18409166572088407117
14347424 109 18272647939454626192
14565420 104 17914322727266813568
15001296 14 18337386136310952307
15183329 4 14706926220518963879
15250474 111 17916573388249189327
15419008 42 17628640752600719421
15475509 35 18272080587629218602
15475509 8 16733266738380487949
15510800 12 18041001704977004234
17844677 252 17749104500411832221
17857418 61 18273214205449548463
1813 80 18260550013198842804
18681886 176 16343155743796451864
20028762 73 18272932687492510726
20567600 234 13470397881753243515
20645477 70 18040715883397871984
21344244 78 17846208939539948960
21641784 216 14345786120249047535
21792934 111 16486705667352611163
220451 1 18270690873719621453
22061861 79 17749106699408271671
2215653 11 17385445423154579203
22849339 104 15213316247993428713
2303208 19 16877950460030650121
23081809 10 18342464763961934801
23522609 53 18126597645960042369
23559900 14 16733276715230748460
23569914 152 17103923000283765503
23569943 247 18042966480806020347
239999 70 16950282957708843924
270888 7 9942933678633852850
29717793 49 18040995155014363277
3004659 81 18131079241915255420
3014965 18 18408039602734227197
3411729 13 16629387242062760544
345986 75 18271238305834636736
34797466 226 15864361280297216223
3680242 22 18343586222102752439
3886686 26 16479961073126592858
397830 11 11671770620572841445
4072396 5 16988847168016031581
4073 2 18196372751998382769
46194498 28 17095244739503979318
465052 167 18411142411610467086
5104073 3 17417536925359825363
513202 73 18260829242377039069
513532 50 13551194394704782702
531348 171 18410289182709268461
5372103 7 15069777234656268726
59682541 52 18040715874691789135
6025842 7 18187651353559911428
7970288 3 18195525892524316670
8509985 295 17561084721657945792
8988823 20 18410574019907211708
960060 61 17458352935512456686

> <PUBCHEM_SHAPE_MULTIPOLES>
499.09
17.71
2.69
1.56
19.01
1.29
-0.02
11.24
1.53
-6.39
-0.03
-0.16
-0.13
-1.63

> <PUBCHEM_SHAPE_SELFOVERLAP>
1054.492

> <PUBCHEM_SHAPE_VOLUME>
282.2

> <PUBCHEM_COORDINATE_TYPE>
2
5
10

$$$$
