4982375
  -OEChem-01171811443D

 22 23  0     0  0  0  0  0  0999 V2000
   -4.9135   -0.0594    0.4245 O   0  0  0  0  0  0  0  0  0  0  0  0
    4.4781    0.5136    0.1101 O   0  5  0  0  0  0  0  0  0  0  0  0
    3.0218    2.1521    0.2254 O   0  0  0  0  0  0  0  0  0  0  0  0
   -1.8956    1.2007   -0.5379 N   0  0  0  0  0  0  0  0  0  0  0  0
   -3.2445    1.3362   -0.4604 N   0  0  0  0  0  0  0  0  0  0  0  0
    3.2951    0.9315    0.1255 N   0  3  0  0  0  0  0  0  0  0  0  0
   -0.1334   -0.4864   -0.0553 C   0  0  0  0  0  0  0  0  0  0  0  0
   -1.5285   -0.0232   -0.0385 C   0  0  0  0  0  0  0  0  0  0  0  0
    0.9094    0.4349    0.0418 C   0  0  0  0  0  0  0  0  0  0  0  0
   -2.5975   -0.6935    0.4254 C   0  0  0  0  0  0  0  0  0  0  0  0
    0.1472   -1.8482   -0.1677 C   0  0  0  0  0  0  0  0  0  0  0  0
    2.2329   -0.0056    0.0264 C   0  0  0  0  0  0  0  0  0  0  0  0
   -3.7554    0.2033    0.1500 C   0  0  0  0  0  0  0  0  0  0  0  0
    1.4704   -2.2887   -0.1831 C   0  0  0  0  0  0  0  0  0  0  0  0
    2.5133   -1.3675   -0.0860 C   0  0  0  0  0  0  0  0  0  0  0  0
    0.6807    1.4940    0.1389 H   0  0  0  0  0  0  0  0  0  0  0  0
   -1.3460    1.7100   -1.2161 H   0  0  0  0  0  0  0  0  0  0  0  0
   -2.6640   -1.6672    0.8781 H   0  0  0  0  0  0  0  0  0  0  0  0
   -0.6442   -2.5884   -0.2544 H   0  0  0  0  0  0  0  0  0  0  0  0
   -3.7109    2.1700   -0.7917 H   0  0  0  0  0  0  0  0  0  0  0  0
    1.6887   -3.3488   -0.2729 H   0  0  0  0  0  0  0  0  0  0  0  0
    3.5318   -1.7470   -0.1017 H   0  0  0  0  0  0  0  0  0  0  0  0
  1 13  2  0  0  0  0
  2  6  1  0  0  0  0
  3  6  2  0  0  0  0
  4  5  1  0  0  0  0
  4  8  1  0  0  0  0
  4 17  1  0  0  0  0
  5 13  1  0  0  0  0
  5 20  1  0  0  0  0
  6 12  1  0  0  0  0
  7  8  1  0  0  0  0
  7  9  2  0  0  0  0
  7 11  1  0  0  0  0
  8 10  2  0  0  0  0
  9 12  1  0  0  0  0
  9 16  1  0  0  0  0
 10 13  1  0  0  0  0
 10 18  1  0  0  0  0
 11 14  2  0  0  0  0
 11 19  1  0  0  0  0
 12 15  2  0  0  0  0
 14 15  1  0  0  0  0
 14 21  1  0  0  0  0
 15 22  1  0  0  0  0
M  CHG  2   2  -1   6   1
M  END
> <PUBCHEM_COMPOUND_CID>
4982375

> <PUBCHEM_CONFORMER_RMSD>
0.6

> <PUBCHEM_CONFORMER_DIVERSEORDER>
2
1

> <PUBCHEM_MMFF94_PARTIAL_CHARGES>
22
1 -0.57
10 -0.14
11 -0.15
12 0.13
13 0.62
14 -0.15
15 -0.15
16 0.15
17 0.4
18 0.15
19 0.15
2 -0.52
20 0.37
21 0.15
22 0.15
3 -0.52
4 -0.52
5 -0.41
6 0.91
7 0.03
8 0.07
9 -0.15

> <PUBCHEM_EFFECTIVE_ROTOR_COUNT>
2

> <PUBCHEM_PHARMACOPHORE_FEATURES>
8
1 1 acceptor
1 2 acceptor
1 2 anion
1 3 acceptor
1 4 donor
1 5 donor
5 4 5 8 10 13 rings
6 7 9 11 12 14 15 rings

> <PUBCHEM_HEAVY_ATOM_COUNT>
15

> <PUBCHEM_ATOM_DEF_STEREO_COUNT>
0

> <PUBCHEM_ATOM_UDEF_STEREO_COUNT>
0

> <PUBCHEM_BOND_DEF_STEREO_COUNT>
0

> <PUBCHEM_BOND_UDEF_STEREO_COUNT>
0

> <PUBCHEM_ISOTOPIC_ATOM_COUNT>
0

> <PUBCHEM_COMPONENT_COUNT>
1

> <PUBCHEM_CACTVS_TAUTO_COUNT>
5

> <PUBCHEM_CONFORMER_ID>
004C066700000002

> <PUBCHEM_MMFF94_ENERGY>
54.7483

> <PUBCHEM_FEATURE_SELFOVERLAP>
42.283

> <PUBCHEM_SHAPE_FINGERPRINT>
10608611 8 18263360304926883421
10922049 32 18410577305530702446
10980938 120 18413106139071615722
11132069 177 18187366558103547029
11471102 20 18341048536501717078
11543360 7 14979668953043443488
12251169 10 17822010938452274591
12346645 6 18341895169203424750
12932764 1 17274524456803727217
13380535 76 18408885161166953834
14026960 21 18189904290706350032
14325111 11 18410011013907881175
14415576 193 18408888434084773940
14897335 6 18413386557454898526
15219456 202 18335420115162479375
15375358 24 18186519900006809443
15442244 35 17908707232749715008
15536298 74 18342740676375650998
15775835 57 18273495693079136999
16945 1 18196656198397113878
170605 34 18335419058368610930
18186145 218 18202009810864908262
20279233 1 18113907048101570307
204376 136 18339926025445266824
20645477 70 18270394971837169375
20671657 53 17840879477393405086
21524375 3 18412261778824572978
21730867 7 18410014308110958354
22854114 111 18411982438124660170
22854114 59 18410858763311453417
23402539 116 17894905270056855967
23402655 69 18271237227966760453
23557571 272 17240761736238611077
23559900 14 18193550073690531931
25 1 18342174471010845638
25610 137 18342178839066607785
2748010 2 18335422313869340966
449060 50 18410015438051198173
449060 62 18342460330769422443
4990 188 17775014487535215774
5104073 3 18262803960896713329
53812653 166 18342454872113850736
58051976 378 18342454846201732639
6333272 397 18409730685539687090
7364860 26 18341614750873324790
81228 2 17476057499202424002
81539 233 18333448738027141590
9709674 26 18409172082478895275

> <PUBCHEM_SHAPE_MULTIPOLES>
276.14
7.63
1.91
0.64
3.33
0.32
-0.01
-2.64
0.72
-1.49
-0.11
0.14
0.01
0.44

> <PUBCHEM_SHAPE_SELFOVERLAP>
601.764

> <PUBCHEM_SHAPE_VOLUME>
151.8

> <PUBCHEM_COORDINATE_TYPE>
2
5
10

$$$$
