2841620
  -OEChem-01171811413D

 43 45  0     0  0  0  0  0  0999 V2000
    0.4501    2.0674   -1.7288 O   0  0  0  0  0  0  0  0  0  0  0  0
    0.2514   -3.1682   -0.4403 O   0  0  0  0  0  0  0  0  0  0  0  0
    2.4278   -1.6203    1.5785 O   0  0  0  0  0  0  0  0  0  0  0  0
   -0.9121   -2.2690    1.3479 O   0  0  0  0  0  0  0  0  0  0  0  0
    0.1609   -0.0720   -0.7254 C   0  0  0  0  0  0  0  0  0  0  0  0
   -1.1336   -0.1883   -1.4905 C   0  0  0  0  0  0  0  0  0  0  0  0
    0.6626   -0.9843    0.1283 C   0  0  0  0  0  0  0  0  0  0  0  0
    2.2307    1.3869   -0.3740 C   0  0  0  0  0  0  0  0  0  0  0  0
    0.9126    1.1950   -1.0003 C   0  0  0  0  0  0  0  0  0  0  0  0
    2.7477    0.4286    0.4912 C   0  0  0  0  0  0  0  0  0  0  0  0
   -2.2563    0.4384   -0.7244 C   0  0  0  0  0  0  0  0  0  0  0  0
    1.9824   -0.7896    0.7939 C   0  0  0  0  0  0  0  0  0  0  0  0
    2.9673    2.5459   -0.6512 C   0  0  0  0  0  0  0  0  0  0  0  0
    4.0024    0.6237    1.0828 C   0  0  0  0  0  0  0  0  0  0  0  0
   -2.9990   -0.3301    0.1678 C   0  0  0  0  0  0  0  0  0  0  0  0
   -2.5521    1.7862   -0.9086 C   0  0  0  0  0  0  0  0  0  0  0  0
   -0.1070   -2.2047    0.4403 C   0  0  0  0  0  0  0  0  0  0  0  0
   -4.3454    1.6040    0.7002 C   0  0  0  0  0  0  0  0  0  0  0  0
    4.2170    2.7383   -0.0618 C   0  0  0  0  0  0  0  0  0  0  0  0
    4.7341    1.7781    0.8042 C   0  0  0  0  0  0  0  0  0  0  0  0
   -4.0455    0.2539    0.8815 C   0  0  0  0  0  0  0  0  0  0  0  0
   -3.5986    2.3701   -0.1949 C   0  0  0  0  0  0  0  0  0  0  0  0
   -5.4646    2.2282    1.4628 C   0  0  0  0  0  0  0  0  0  0  0  0
   -0.4154   -4.4228   -0.2658 C   0  0  0  0  0  0  0  0  0  0  0  0
    0.0824   -5.3955   -1.3135 C   0  0  0  0  0  0  0  0  0  0  0  0
   -1.3721   -1.2397   -1.6974 H   0  0  0  0  0  0  0  0  0  0  0  0
   -1.0508    0.2581   -2.4899 H   0  0  0  0  0  0  0  0  0  0  0  0
    2.5865    3.3102   -1.3235 H   0  0  0  0  0  0  0  0  0  0  0  0
    4.4271   -0.1105    1.7623 H   0  0  0  0  0  0  0  0  0  0  0  0
   -2.8288   -1.3940    0.2777 H   0  0  0  0  0  0  0  0  0  0  0  0
   -2.0024    2.3964   -1.6177 H   0  0  0  0  0  0  0  0  0  0  0  0
    4.7866    3.6373   -0.2784 H   0  0  0  0  0  0  0  0  0  0  0  0
    5.7069    1.9281    1.2632 H   0  0  0  0  0  0  0  0  0  0  0  0
   -4.6304   -0.3572    1.5639 H   0  0  0  0  0  0  0  0  0  0  0  0
   -3.8275    3.4211   -0.3502 H   0  0  0  0  0  0  0  0  0  0  0  0
   -5.2686    3.2887    1.6551 H   0  0  0  0  0  0  0  0  0  0  0  0
   -6.3984    2.1406    0.8987 H   0  0  0  0  0  0  0  0  0  0  0  0
   -5.5965    1.7454    2.4372 H   0  0  0  0  0  0  0  0  0  0  0  0
   -0.2010   -4.8146    0.7349 H   0  0  0  0  0  0  0  0  0  0  0  0
   -1.4963   -4.2802   -0.3768 H   0  0  0  0  0  0  0  0  0  0  0  0
   -0.4078   -6.3675   -1.2093 H   0  0  0  0  0  0  0  0  0  0  0  0
   -0.1089   -5.0088   -2.3199 H   0  0  0  0  0  0  0  0  0  0  0  0
    1.1651   -5.5343   -1.2269 H   0  0  0  0  0  0  0  0  0  0  0  0
  1  9  2  0  0  0  0
  2 17  1  0  0  0  0
  2 24  1  0  0  0  0
  3 12  2  0  0  0  0
  4 17  2  0  0  0  0
  5  6  1  0  0  0  0
  5  7  2  0  0  0  0
  5  9  1  0  0  0  0
  6 11  1  0  0  0  0
  6 26  1  0  0  0  0
  6 27  1  0  0  0  0
  7 12  1  0  0  0  0
  7 17  1  0  0  0  0
  8  9  1  0  0  0  0
  8 10  1  0  0  0  0
  8 13  2  0  0  0  0
 10 12  1  0  0  0  0
 10 14  2  0  0  0  0
 11 15  2  0  0  0  0
 11 16  1  0  0  0  0
 13 19  1  0  0  0  0
 13 28  1  0  0  0  0
 14 20  1  0  0  0  0
 14 29  1  0  0  0  0
 15 21  1  0  0  0  0
 15 30  1  0  0  0  0
 16 22  2  0  0  0  0
 16 31  1  0  0  0  0
 18 21  2  0  0  0  0
 18 22  1  0  0  0  0
 18 23  1  0  0  0  0
 19 20  2  0  0  0  0
 19 32  1  0  0  0  0
 20 33  1  0  0  0  0
 21 34  1  0  0  0  0
 22 35  1  0  0  0  0
 23 36  1  0  0  0  0
 23 37  1  0  0  0  0
 23 38  1  0  0  0  0
 24 25  1  0  0  0  0
 24 39  1  0  0  0  0
 24 40  1  0  0  0  0
 25 41  1  0  0  0  0
 25 42  1  0  0  0  0
 25 43  1  0  0  0  0
M  END
> <PUBCHEM_COMPOUND_CID>
2841620

> <PUBCHEM_CONFORMER_RMSD>
0.8

> <PUBCHEM_CONFORMER_DIVERSEORDER>
1
14
11
6
18
15
9
8
12
13
4
19
7
2
17
16
5
10
3

> <PUBCHEM_MMFF94_PARTIAL_CHARGES>
32
1 -0.57
10 0.09
11 -0.14
12 0.47
13 -0.15
14 -0.15
15 -0.15
16 -0.15
17 0.71
18 -0.14
19 -0.15
2 -0.43
20 -0.15
21 -0.15
22 -0.15
23 0.14
24 0.28
28 0.15
29 0.15
3 -0.57
30 0.15
31 0.15
32 0.15
33 0.15
34 0.15
35 0.15
4 -0.57
5 -0.12
6 0.28
7 0.03
8 0.09
9 0.47

> <PUBCHEM_EFFECTIVE_ROTOR_COUNT>
5

> <PUBCHEM_PHARMACOPHORE_FEATURES>
7
1 1 acceptor
1 3 acceptor
1 4 acceptor
1 7 anion
6 11 15 16 18 21 22 rings
6 5 7 8 9 10 12 rings
6 8 10 13 14 19 20 rings

> <PUBCHEM_HEAVY_ATOM_COUNT>
25

> <PUBCHEM_ATOM_DEF_STEREO_COUNT>
0

> <PUBCHEM_ATOM_UDEF_STEREO_COUNT>
0

> <PUBCHEM_BOND_DEF_STEREO_COUNT>
0

> <PUBCHEM_BOND_UDEF_STEREO_COUNT>
0

> <PUBCHEM_ISOTOPIC_ATOM_COUNT>
0

> <PUBCHEM_COMPONENT_COUNT>
1

> <PUBCHEM_CACTVS_TAUTO_COUNT>
4

> <PUBCHEM_CONFORMER_ID>
002B5C1400000001

> <PUBCHEM_MMFF94_ENERGY>
70.2265

> <PUBCHEM_FEATURE_SELFOVERLAP>
35.543

> <PUBCHEM_SHAPE_FINGERPRINT>
10006869 2 17394195525909783019
11552529 35 17979065312945666932
12035758 1 18265041445832807786
12422481 6 17971444374811022384
12633257 1 17095531720428946033
12788726 201 17614860933460869598
13004483 165 17548129390933551942
13140716 1 18188763942624248401
13540713 5 17825938506589990980
14178342 30 18048581914385108992
14363568 33 17908709427510165095
14790565 3 18260270759269428580
14955137 171 18121219771126111490
15209294 21 18411417340756649829
15420108 30 18410565180642801595
1813 80 16908347283361732671
18785283 64 18266178331559286818
1979834 28 18189636981296900257
20157964 124 18265043636466835469
20600515 1 16671050657799949470
20739085 24 18189058590498199796
21033648 29 18272646887435766896
21049683 271 17905628604582608966
21120745 212 17546454839045277293
21731228 192 18407760348023623305
21756936 100 18270115841933850340
22149856 69 18121815831957890785
23558518 356 17686343474597042068
23559900 14 17977951177344475793
2748010 2 17611430114328538716
283562 15 17614833446292595834
474 4 18411979126963526409
5104073 3 17898553535986167072
59444896 2 13494509003598550892
6287921 2 18338242548710701887
633830 44 18201719518178180893
6438718 38 18119255210055893066
6442390 28 18340779216440846079
7064713 232 18408881875437929289
7808743 9 18194120948418036872

> <PUBCHEM_SHAPE_MULTIPOLES>
491.01
8.48
5.16
1.4
3.12
9.34
-0.03
-10.66
3.92
-0.11
-1.41
0.2
-0.01
-0.83

> <PUBCHEM_SHAPE_SELFOVERLAP>
1073.691

> <PUBCHEM_SHAPE_VOLUME>
265.8

> <PUBCHEM_COORDINATE_TYPE>
2
5
10

$$$$
