659072
  -OEChem-01171812143D

 60 64  0     0  0  0  0  0  0999 V2000
    3.7640    2.1391   -0.5494 O   0  0  0  0  0  0  0  0  0  0  0  0
   -1.9733   -0.7420    2.7421 O   0  0  0  0  0  0  0  0  0  0  0  0
   -4.6253   -1.3078    2.1309 O   0  0  0  0  0  0  0  0  0  0  0  0
    6.0648    0.0718    1.4006 O   0  0  0  0  0  0  0  0  0  0  0  0
   -0.4096    2.1635   -1.2385 N   0  0  0  0  0  0  0  0  0  0  0  0
   -1.6798    0.1574   -1.7097 N   0  0  0  0  0  0  0  0  0  0  0  0
    0.8738   -1.0918   -1.4717 N   0  0  0  0  0  0  0  0  0  0  0  0
    1.3040    3.7249   -0.7553 N   0  0  0  0  0  0  0  0  0  0  0  0
    3.5912   -0.1316   -0.9092 N   0  0  0  0  0  0  0  0  0  0  0  0
   -1.4955    3.1202   -1.2834 C   0  0  0  0  0  0  0  0  0  0  0  0
   -0.5451    0.8179   -1.4406 C   0  0  0  0  0  0  0  0  0  0  0  0
    0.9100    2.4522   -0.9891 C   0  0  0  0  0  0  0  0  0  0  0  0
    0.7045    0.2405   -1.3193 C   0  0  0  0  0  0  0  0  0  0  0  0
    1.6259    1.2733   -1.0334 C   0  0  0  0  0  0  0  0  0  0  0  0
   -2.1737    3.3400    0.0730 C   0  0  0  0  0  0  0  0  0  0  0  0
   -2.8259    2.0964    0.6246 C   0  0  0  0  0  0  0  0  0  0  0  0
    3.0414    1.1584   -0.8231 C   0  0  0  0  0  0  0  0  0  0  0  0
   -1.5091   -1.1642   -1.8601 C   0  0  0  0  0  0  0  0  0  0  0  0
   -0.2421   -1.7845   -1.7426 C   0  0  0  0  0  0  0  0  0  0  0  0
   -2.0909    1.2451    1.4350 C   0  0  0  0  0  0  0  0  0  0  0  0
   -4.1492    1.8268    0.3116 C   0  0  0  0  0  0  0  0  0  0  0  0
   -2.6199   -1.9533   -2.1428 C   0  0  0  0  0  0  0  0  0  0  0  0
   -0.1491   -3.1624   -1.9134 C   0  0  0  0  0  0  0  0  0  0  0  0
   -2.6941    0.0956    1.9454 C   0  0  0  0  0  0  0  0  0  0  0  0
   -4.7524    0.6771    0.8218 C   0  0  0  0  0  0  0  0  0  0  0  0
    4.9922   -0.4146   -0.6940 C   0  0  0  0  0  0  0  0  0  0  0  0
   -4.0249   -0.1885    1.6387 C   0  0  0  0  0  0  0  0  0  0  0  0
   -2.5114   -3.3327   -2.3110 C   0  0  0  0  0  0  0  0  0  0  0  0
   -1.2708   -3.9396   -2.1962 C   0  0  0  0  0  0  0  0  0  0  0  0
    5.2206   -0.7493    0.7485 C   0  0  0  0  0  0  0  0  0  0  0  0
    4.7361   -1.7353    1.5431 C   0  0  0  0  0  0  0  0  0  0  0  0
    5.3277   -1.5164    2.8101 C   0  0  0  0  0  0  0  0  0  0  0  0
   -1.2553   -1.7919    2.0968 C   0  0  0  0  0  0  0  0  0  0  0  0
    6.1272   -0.4058    2.6714 C   0  0  0  0  0  0  0  0  0  0  0  0
   -5.2862   -1.1887    3.3892 C   0  0  0  0  0  0  0  0  0  0  0  0
   -1.1169    4.0665   -1.6830 H   0  0  0  0  0  0  0  0  0  0  0  0
   -2.2237    2.7557   -2.0191 H   0  0  0  0  0  0  0  0  0  0  0  0
   -2.9285    4.1304   -0.0283 H   0  0  0  0  0  0  0  0  0  0  0  0
   -1.4455    3.7211    0.8010 H   0  0  0  0  0  0  0  0  0  0  0  0
    2.2770    3.9531   -0.5750 H   0  0  0  0  0  0  0  0  0  0  0  0
    0.6673    4.5134   -0.7168 H   0  0  0  0  0  0  0  0  0  0  0  0
   -1.0561    1.4657    1.6837 H   0  0  0  0  0  0  0  0  0  0  0  0
   -4.7229    2.4932   -0.3259 H   0  0  0  0  0  0  0  0  0  0  0  0
    2.9867   -0.9215   -1.1132 H   0  0  0  0  0  0  0  0  0  0  0  0
   -3.6022   -1.4932   -2.2352 H   0  0  0  0  0  0  0  0  0  0  0  0
    0.8174   -3.6555   -1.8259 H   0  0  0  0  0  0  0  0  0  0  0  0
    5.5956    0.4456   -1.0015 H   0  0  0  0  0  0  0  0  0  0  0  0
    5.2594   -1.2694   -1.3233 H   0  0  0  0  0  0  0  0  0  0  0  0
   -5.7888    0.4610    0.5772 H   0  0  0  0  0  0  0  0  0  0  0  0
   -3.3936   -3.9262   -2.5302 H   0  0  0  0  0  0  0  0  0  0  0  0
   -1.1721   -5.0131   -2.3246 H   0  0  0  0  0  0  0  0  0  0  0  0
    4.0460   -2.5191    1.2661 H   0  0  0  0  0  0  0  0  0  0  0  0
    5.1887   -2.0955    3.7115 H   0  0  0  0  0  0  0  0  0  0  0  0
   -0.8235   -2.4359    2.8678 H   0  0  0  0  0  0  0  0  0  0  0  0
   -0.4425   -1.3770    1.4933 H   0  0  0  0  0  0  0  0  0  0  0  0
   -1.9211   -2.3941    1.4705 H   0  0  0  0  0  0  0  0  0  0  0  0
    6.7699    0.1417    3.3452 H   0  0  0  0  0  0  0  0  0  0  0  0
   -5.7068   -2.1639    3.6488 H   0  0  0  0  0  0  0  0  0  0  0  0
   -4.5781   -0.8939    4.1702 H   0  0  0  0  0  0  0  0  0  0  0  0
   -6.1015   -0.4611    3.3267 H   0  0  0  0  0  0  0  0  0  0  0  0
  1 17  2  0  0  0  0
  2 24  1  0  0  0  0
  2 33  1  0  0  0  0
  3 27  1  0  0  0  0
  3 35  1  0  0  0  0
  4 30  1  0  0  0  0
  4 34  1  0  0  0  0
  5 10  1  0  0  0  0
  5 11  1  0  0  0  0
  5 12  1  0  0  0  0
  6 11  2  0  0  0  0
  6 18  1  0  0  0  0
  7 13  2  0  0  0  0
  7 19  1  0  0  0  0
  8 12  1  0  0  0  0
  8 40  1  0  0  0  0
  8 41  1  0  0  0  0
  9 17  1  0  0  0  0
  9 26  1  0  0  0  0
  9 44  1  0  0  0  0
 10 15  1  0  0  0  0
 10 36  1  0  0  0  0
 10 37  1  0  0  0  0
 11 13  1  0  0  0  0
 12 14  2  0  0  0  0
 13 14  1  0  0  0  0
 14 17  1  0  0  0  0
 15 16  1  0  0  0  0
 15 38  1  0  0  0  0
 15 39  1  0  0  0  0
 16 20  2  0  0  0  0
 16 21  1  0  0  0  0
 18 19  1  0  0  0  0
 18 22  2  0  0  0  0
 19 23  2  0  0  0  0
 20 24  1  0  0  0  0
 20 42  1  0  0  0  0
 21 25  2  0  0  0  0
 21 43  1  0  0  0  0
 22 28  1  0  0  0  0
 22 45  1  0  0  0  0
 23 29  1  0  0  0  0
 23 46  1  0  0  0  0
 24 27  2  0  0  0  0
 25 27  1  0  0  0  0
 25 49  1  0  0  0  0
 26 30  1  0  0  0  0
 26 47  1  0  0  0  0
 26 48  1  0  0  0  0
 28 29  2  0  0  0  0
 28 50  1  0  0  0  0
 29 51  1  0  0  0  0
 30 31  2  0  0  0  0
 31 32  1  0  0  0  0
 31 52  1  0  0  0  0
 32 34  2  0  0  0  0
 32 53  1  0  0  0  0
 33 54  1  0  0  0  0
 33 55  1  0  0  0  0
 33 56  1  0  0  0  0
 34 57  1  0  0  0  0
 35 58  1  0  0  0  0
 35 59  1  0  0  0  0
 35 60  1  0  0  0  0
M  END
> <PUBCHEM_COMPOUND_CID>
659072

> <PUBCHEM_CONFORMER_RMSD>
1

> <PUBCHEM_CONFORMER_DIVERSEORDER>
2
109
165
81
29
31
238
117
170
138
134
69
219
216
207
95
174
163
57
28
199
73
205
168
39
184
49
178
13
120
54
6
48
164
181
75
45
78
17
187
53
182
159
47
50
183
9
166
221
87
58
67
102
32
113
156
89
55
23
223
149
242
232
22
27
240
179
76
36
103
211
24
82
46
112
147
83
107
191
77
202
91
60
1
3
206
135
189
80
51
196
25
142
70
11
42
15
90
101
158
86
136
230
186
229
214
188
176
34
74
152
4
59
148
150
210
7
192
218
100
52
105
139
56
190
121
129
208
30
162
20
94
62
114
99
231
111
5
213
26
226
169
66
118
64
144
37
14
235
12
233
130
172
110
145
21
96
116
146
241
38
122
8
217
41
133
137
171
125
93
175
185
71
197
128
98
108
40
180
43
10
131
220
201
160
203
198
85
115
44
92
193
167
236
123
61
194
225
153
209
157
19
104
119
65
97
234
155
33
35
161
127
200
143
173
79
239
68
140
16
195
106
63
177
154
141
124
215
222
151
18
224
227
204
212
126
72
84
88
132
237
228

> <PUBCHEM_MMFF94_PARTIAL_CHARGES>
48
1 -0.57
10 0.26
11 0.11
12 -0.07
13 0.26
14 -0.09
15 0.14
16 -0.14
17 0.72
18 0.31
19 0.31
2 -0.36
20 -0.15
21 -0.15
22 -0.15
23 -0.15
24 0.08
25 -0.15
26 0.48
27 0.08
28 -0.15
29 -0.15
3 -0.36
30 -0.04
31 -0.15
32 -0.15
33 0.28
34 -0.01
35 0.28
4 -0.28
40 0.4
41 0.4
42 0.15
43 0.15
44 0.37
45 0.15
46 0.15
49 0.15
5 0.05
50 0.15
51 0.15
52 0.15
53 0.15
57 0.15
6 -0.57
7 -0.57
8 -0.88
9 -0.73

> <PUBCHEM_EFFECTIVE_ROTOR_COUNT>
9

> <PUBCHEM_PHARMACOPHORE_FEATURES>
14
1 1 acceptor
1 2 acceptor
1 3 acceptor
1 4 acceptor
1 7 acceptor
1 8 cation
1 8 donor
1 9 donor
3 5 6 11 cation
5 4 30 31 32 34 rings
5 5 11 12 13 14 rings
6 16 20 21 24 25 27 rings
6 18 19 22 23 28 29 rings
6 6 7 11 13 18 19 rings

> <PUBCHEM_HEAVY_ATOM_COUNT>
35

> <PUBCHEM_ATOM_DEF_STEREO_COUNT>
0

> <PUBCHEM_ATOM_UDEF_STEREO_COUNT>
0

> <PUBCHEM_BOND_DEF_STEREO_COUNT>
0

> <PUBCHEM_BOND_UDEF_STEREO_COUNT>
0

> <PUBCHEM_ISOTOPIC_ATOM_COUNT>
0

> <PUBCHEM_COMPONENT_COUNT>
1

> <PUBCHEM_CACTVS_TAUTO_COUNT>
7

> <PUBCHEM_CONFORMER_ID>
000A0E8000000002

> <PUBCHEM_MMFF94_ENERGY>
93.8087

> <PUBCHEM_FEATURE_SELFOVERLAP>
71.226

> <PUBCHEM_SHAPE_FINGERPRINT>
10074138 170 18272358810957379646
10305334 12 17318440991058015808
11578080 2 15410625812652654430
12156800 1 17129588096830282179
12202916 173 18189888726647092749
12422481 6 18341614759352327254
12633257 1 18043835115838986696
131258 38 17030240705668843051
14725015 67 16749038991983781389
15444296 8 16226894307703540918
16067690 210 15697995194059354498
16728300 4 18187085053220750035
19319366 153 17392507758007257660
21033648 29 17774163388068221920
21344244 78 17197971187058652983
22907989 373 9006767752863006254
2838139 119 14189571914900476314
3459 110 18058430154188669512
469060 322 18342446049982233351
5081480 168 12036031126046847015
563151 74 17486510196008644617
7288768 16 16486977275914080899
9981440 41 17910944756266987029

> <PUBCHEM_SHAPE_MULTIPOLES>
671.9
11.37
4.15
3.44
15.93
1.17
-2.82
0.75
-12.26
-2.88
3.54
-1.07
1.8
-1.57

> <PUBCHEM_SHAPE_SELFOVERLAP>
1492.552

> <PUBCHEM_SHAPE_VOLUME>
359.2

> <PUBCHEM_COORDINATE_TYPE>
2
5
10

$$$$
