2814917
  -OEChem-01171812113D

 40 42  0     1  0  0  0  0  0999 V2000
   -4.6611    1.1337    0.8893 F   0  0  0  0  0  0  0  0  0  0  0  0
    4.0685    0.5509    1.6673 O   0  0  0  0  0  0  0  0  0  0  0  0
    1.2240   -2.4386    1.0840 O   0  0  0  0  0  0  0  0  0  0  0  0
    0.3985    3.0442   -1.1865 O   0  0  0  0  0  0  0  0  0  0  0  0
    2.6992    0.6826   -0.2385 N   0  0  0  0  0  0  0  0  0  0  0  0
    0.2527   -2.3199   -1.0283 N   0  0  0  0  0  0  0  0  0  0  0  0
    2.5161   -1.5905   -0.7366 C   0  0  1  0  0  0  0  0  0  0  0  0
    2.2583   -0.2015   -1.2924 C   0  0  0  0  0  0  0  0  0  0  0  0
    3.6115   -1.4022    0.3099 C   0  0  0  0  0  0  0  0  0  0  0  0
    3.5041    0.0528    0.7039 C   0  0  0  0  0  0  0  0  0  0  0  0
    2.4124    2.1007   -0.2767 C   0  0  0  0  0  0  0  0  0  0  0  0
    1.2750   -2.1536   -0.1096 C   0  0  0  0  0  0  0  0  0  0  0  0
    0.9427    2.3803   -0.1513 C   0  0  0  0  0  0  0  0  0  0  0  0
   -1.0394   -2.8667   -0.6827 C   0  0  0  0  0  0  0  0  0  0  0  0
    0.0421    2.0900    0.8168 C   0  0  0  0  0  0  0  0  0  0  0  0
   -2.0073   -1.7987   -0.2623 C   0  0  0  0  0  0  0  0  0  0  0  0
   -1.1850    2.6194    0.3509 C   0  0  0  0  0  0  0  0  0  0  0  0
   -0.9155    3.1893   -0.8715 C   0  0  0  0  0  0  0  0  0  0  0  0
   -2.0905   -1.4343    1.0762 C   0  0  0  0  0  0  0  0  0  0  0  0
   -2.8098   -1.1846   -1.2166 C   0  0  0  0  0  0  0  0  0  0  0  0
   -2.9895   -0.4414    1.4662 C   0  0  0  0  0  0  0  0  0  0  0  0
   -3.7085   -0.1917   -0.8265 C   0  0  0  0  0  0  0  0  0  0  0  0
   -3.7985    0.1799    0.5148 C   0  0  0  0  0  0  0  0  0  0  0  0
    2.8317   -2.2893   -1.5203 H   0  0  0  0  0  0  0  0  0  0  0  0
    2.8870   -0.0068   -2.1684 H   0  0  0  0  0  0  0  0  0  0  0  0
    1.2164    0.0069   -1.5487 H   0  0  0  0  0  0  0  0  0  0  0  0
    4.5981   -1.5430   -0.1465 H   0  0  0  0  0  0  0  0  0  0  0  0
    3.5395   -2.0459    1.1897 H   0  0  0  0  0  0  0  0  0  0  0  0
    2.9424    2.6006    0.5415 H   0  0  0  0  0  0  0  0  0  0  0  0
    2.8086    2.4964   -1.2186 H   0  0  0  0  0  0  0  0  0  0  0  0
    0.4072   -2.0653   -1.9995 H   0  0  0  0  0  0  0  0  0  0  0  0
   -0.9185   -3.6085    0.1158 H   0  0  0  0  0  0  0  0  0  0  0  0
   -1.4153   -3.4044   -1.5605 H   0  0  0  0  0  0  0  0  0  0  0  0
    0.2232    1.5694    1.7460 H   0  0  0  0  0  0  0  0  0  0  0  0
   -2.1420    2.6058    0.8505 H   0  0  0  0  0  0  0  0  0  0  0  0
   -1.5160    3.7130   -1.6009 H   0  0  0  0  0  0  0  0  0  0  0  0
   -1.4675   -1.9112    1.8274 H   0  0  0  0  0  0  0  0  0  0  0  0
   -2.7462   -1.4642   -2.2645 H   0  0  0  0  0  0  0  0  0  0  0  0
   -3.0590   -0.1512    2.5104 H   0  0  0  0  0  0  0  0  0  0  0  0
   -4.3374    0.2934   -1.5672 H   0  0  0  0  0  0  0  0  0  0  0  0
  1 23  1  0  0  0  0
  2 10  2  0  0  0  0
  3 12  2  0  0  0  0
  4 13  1  0  0  0  0
  4 18  1  0  0  0  0
  5  8  1  0  0  0  0
  5 10  1  0  0  0  0
  5 11  1  0  0  0  0
  6 12  1  0  0  0  0
  6 14  1  0  0  0  0
  6 31  1  0  0  0  0
  7  8  1  0  0  0  0
  7  9  1  0  0  0  0
  7 12  1  0  0  0  0
  7 24  1  0  0  0  0
  8 25  1  0  0  0  0
  8 26  1  0  0  0  0
  9 10  1  0  0  0  0
  9 27  1  0  0  0  0
  9 28  1  0  0  0  0
 11 13  1  0  0  0  0
 11 29  1  0  0  0  0
 11 30  1  0  0  0  0
 13 15  2  0  0  0  0
 14 16  1  0  0  0  0
 14 32  1  0  0  0  0
 14 33  1  0  0  0  0
 15 17  1  0  0  0  0
 15 34  1  0  0  0  0
 16 19  2  0  0  0  0
 16 20  1  0  0  0  0
 17 18  2  0  0  0  0
 17 35  1  0  0  0  0
 18 36  1  0  0  0  0
 19 21  1  0  0  0  0
 19 37  1  0  0  0  0
 20 22  2  0  0  0  0
 20 38  1  0  0  0  0
 21 23  2  0  0  0  0
 21 39  1  0  0  0  0
 22 23  1  0  0  0  0
 22 40  1  0  0  0  0
M  END
> <PUBCHEM_COMPOUND_CID>
2814917

> <PUBCHEM_CONFORMER_RMSD>
0.8

> <PUBCHEM_CONFORMER_DIVERSEORDER>
1
63
275
300
309
366
179
37
85
404
15
416
285
324
317
362
272
438
350
461
429
30
142
402
140
189
96
153
395
203
405
288
454
222
193
124
265
146
370
69
446
90
457
214
413
256
4
305
81
8
134
258
286
330
340
335
354
459
24
60
33
415
135
281
382
383
54
198
225
73
292
375
260
283
341
122
84
336
190
82
241
12
259
432
343
358
227
112
199
44
267
128
106
243
406
157
444
392
367
45
217
205
220
32
224
458
108
296
418
107
151
349
331
75
2
173
208
129
397
247
234
364
56
453
177
420
201
52
168
326
133
439
356
137
348
374
40
149
150
307
192
301
21
389
114
308
329
111
376
109
103
261
433
278
115
169
314
167
64
423
298
43
57
235
172
387
371
70
294
327
417
74
351
353
388
10
334
72
380
34
437
384
456
257
67
165
119
48
236
320
166
412
414
126
155
9
449
333
230
237
185
338
363
176
251
148
204
195
282
209
357
215
312
452
231
22
424
65
101
202
347
181
315
218
117
274
144
132
162
337
399
316
100
152
386
47
50
92
313
78
3
200
262
17
121
210
240
369
25
105
431
442
93
51
5
116
123
76
206
310
276
319
365
171
295
104
410
223
182
325
53
293
318
271
163
14
250
378
284
290
302
393
464
161
68
407
212
154
249
41
183
434
425
213
158
368
175
66
266
31
321
186
232
379
385
270
196
120
342
62
27
441
255
345
102
311
147
211
401
435
219
304
253
398
455
197
409
194
306
361
29
396
299
246
18
71
263
6
355
254
279
460
248
77
59
408
118
145
180
322
97
87
377
28
89
390
344
346
19
244
226
422
269
55
332
419
400
381
178
36
156
13
411
42
16
80
141
323
451
11
191
421
94
289
221
273
228
328
98
252
39
450
159
268
26
277
291
207
187
7
238
303
86
287
79
125
242
360
264
447
38
91
164
443
391
113
233
95
373
23
436
448
216
426
170
20
58
352
427
88
280
184
127
160
139
136
229
239
46
403
61
49
394
297
445
130
83
430
138
174
110
428
188
143
440
99
462
131
245
35
372
463
359
339

> <PUBCHEM_MMFF94_PARTIAL_CHARGES>
31
1 -0.19
10 0.57
11 0.48
12 0.57
13 -0.04
14 0.44
15 -0.15
16 -0.14
17 -0.15
18 -0.01
19 -0.15
2 -0.57
20 -0.15
21 -0.15
22 -0.15
23 0.19
3 -0.57
31 0.37
34 0.15
35 0.15
36 0.15
37 0.15
38 0.15
39 0.15
4 -0.28
40 0.15
5 -0.66
6 -0.73
7 0.06
8 0.3
9 0.06

> <PUBCHEM_EFFECTIVE_ROTOR_COUNT>
6.8

> <PUBCHEM_PHARMACOPHORE_FEATURES>
7
1 2 acceptor
1 3 acceptor
1 4 acceptor
1 6 donor
5 4 13 15 17 18 rings
5 5 7 8 9 10 rings
6 16 19 20 21 22 23 rings

> <PUBCHEM_HEAVY_ATOM_COUNT>
23

> <PUBCHEM_ATOM_DEF_STEREO_COUNT>
0

> <PUBCHEM_ATOM_UDEF_STEREO_COUNT>
1

> <PUBCHEM_BOND_DEF_STEREO_COUNT>
0

> <PUBCHEM_BOND_UDEF_STEREO_COUNT>
0

> <PUBCHEM_ISOTOPIC_ATOM_COUNT>
0

> <PUBCHEM_COMPONENT_COUNT>
1

> <PUBCHEM_CACTVS_TAUTO_COUNT>
4

> <PUBCHEM_CONFORMER_ID>
002AF3C500000001

> <PUBCHEM_MMFF94_ENERGY>
34.9552

> <PUBCHEM_FEATURE_SELFOVERLAP>
35.522

> <PUBCHEM_SHAPE_FINGERPRINT>
104564 63 18266469702129474382
10708813 3 18197214973694811301
10759866 29 17968106321827692620
12035759 4 18116738355321226340
12156800 1 14935416624913010331
12422481 6 17907611063451300985
12539773 59 17632296809008710511
12553582 1 18410018753254722181
12596599 1 17632027398236665663
12633257 1 18113334236676436139
128993 33 17687202184582567109
13075007 39 17898322543822288921
13122387 1 16752971936211542589
13140716 1 18338516468475734296
13402501 40 18194969526174699541
13965767 371 18201443519337734610
14081887 123 18201427039669435096
14790565 3 17832989730346313556
17093844 170 18338232635588819465
17357779 13 18340762650525015388
17859628 37 18412269457914738854
18219364 16 18262514913745264935
192875 21 17839161245513883959
19930381 70 17617659204024166379
20621476 7 18339652122612151633
20905425 154 18049445846355007814
22113638 7 18340200890514892413
22749437 52 18128252491956730547
238 59 17689419903852000775
3052486 1 18190183374082362518
35225 105 17690278209931655181
3524813 1 18201155434474569818
5939293 188 18340209712251241076
7064713 232 18131067121406776520
7832392 63 18342178911765015046
81228 2 18265063435289753472

> <PUBCHEM_SHAPE_MULTIPOLES>
438.49
6.9
3.98
1.34
1.47
1.66
-0.13
-0.67
-1.7
-0.21
0.83
0.12
-0.07
-0.26

> <PUBCHEM_SHAPE_SELFOVERLAP>
944.903

> <PUBCHEM_SHAPE_VOLUME>
244.2

> <PUBCHEM_COORDINATE_TYPE>
2
5
10

$$$$
