5389004
  -OEChem-01171811373D

 46 50  0     1  0  0  0  0  0999 V2000
   -1.1833    2.8292    0.0069 O   0  0  0  0  0  0  0  0  0  0  0  0
    4.2715    1.1115   -0.0262 N   0  0  0  0  0  0  0  0  0  0  0  0
    3.5376   -0.7805   -1.4737 N   0  0  1  0  0  0  0  0  0  0  0  0
    3.5795   -0.7586    1.4682 N   0  0  2  0  0  0  0  0  0  0  0  0
    0.5656    0.9548    0.0299 N   0  0  0  0  0  0  0  0  0  0  0  0
    1.9294    0.4610    0.0099 C   0  0  0  0  0  0  0  0  0  0  0  0
    2.9033    1.6466   -0.0109 C   0  0  0  0  0  0  0  0  0  0  0  0
    2.1440   -0.3724   -1.2685 C   0  0  0  0  0  0  0  0  0  0  0  0
    2.1808   -0.3540    1.2946 C   0  0  0  0  0  0  0  0  0  0  0  0
    4.4866    0.3201   -1.2502 C   0  0  0  0  0  0  0  0  0  0  0  0
    4.5211    0.3388    1.2030 C   0  0  0  0  0  0  0  0  0  0  0  0
    3.8934   -2.0051   -0.7653 C   0  0  0  0  0  0  0  0  0  0  0  0
    3.9175   -1.9930    0.7683 C   0  0  0  0  0  0  0  0  0  0  0  0
   -0.5196    0.1464    0.0242 C   0  0  0  0  0  0  0  0  0  0  0  0
   -1.8070    0.5018    0.0114 C   0  0  0  0  0  0  0  0  0  0  0  0
   -2.9407   -0.4551    0.0060 C   0  0  0  0  0  0  0  0  0  0  0  0
   -2.0686    1.9800    0.0024 C   0  0  0  0  0  0  0  0  0  0  0  0
   -4.2512    0.0633   -0.0074 C   0  0  0  0  0  0  0  0  0  0  0  0
   -3.4895    2.3998   -0.0113 C   0  0  0  0  0  0  0  0  0  0  0  0
   -2.7770   -1.8510    0.0137 C   0  0  0  0  0  0  0  0  0  0  0  0
   -4.4861    1.5098   -0.0157 C   0  0  0  0  0  0  0  0  0  0  0  0
   -5.3554   -0.8036   -0.0127 C   0  0  0  0  0  0  0  0  0  0  0  0
   -3.8822   -2.7062    0.0083 C   0  0  0  0  0  0  0  0  0  0  0  0
   -5.1700   -2.1836   -0.0049 C   0  0  0  0  0  0  0  0  0  0  0  0
    2.7355    2.2869   -0.8874 H   0  0  0  0  0  0  0  0  0  0  0  0
    2.7596    2.2986    0.8612 H   0  0  0  0  0  0  0  0  0  0  0  0
    1.4928   -1.2546   -1.3016 H   0  0  0  0  0  0  0  0  0  0  0  0
    1.8463    0.2275   -2.1405 H   0  0  0  0  0  0  0  0  0  0  0  0
    1.9064    0.2580    2.1657 H   0  0  0  0  0  0  0  0  0  0  0  0
    1.5298   -1.2350    1.3573 H   0  0  0  0  0  0  0  0  0  0  0  0
    5.5210   -0.0467   -1.2815 H   0  0  0  0  0  0  0  0  0  0  0  0
    4.4169    1.0009   -2.1093 H   0  0  0  0  0  0  0  0  0  0  0  0
    4.4744    1.0322    2.0535 H   0  0  0  0  0  0  0  0  0  0  0  0
    5.5563   -0.0268    1.2111 H   0  0  0  0  0  0  0  0  0  0  0  0
    4.8812   -2.3282   -1.1208 H   0  0  0  0  0  0  0  0  0  0  0  0
    3.2162   -2.8047   -1.0945 H   0  0  0  0  0  0  0  0  0  0  0  0
    3.2533   -2.7891    1.1310 H   0  0  0  0  0  0  0  0  0  0  0  0
    4.9168   -2.3080    1.0980 H   0  0  0  0  0  0  0  0  0  0  0  0
    0.4227    1.9578    0.0314 H   0  0  0  0  0  0  0  0  0  0  0  0
   -0.2483   -0.9008    0.0320 H   0  0  0  0  0  0  0  0  0  0  0  0
   -3.6962    3.4645   -0.0177 H   0  0  0  0  0  0  0  0  0  0  0  0
   -1.7946   -2.3140    0.0240 H   0  0  0  0  0  0  0  0  0  0  0  0
   -5.5139    1.8598   -0.0259 H   0  0  0  0  0  0  0  0  0  0  0  0
   -6.3702   -0.4118   -0.0230 H   0  0  0  0  0  0  0  0  0  0  0  0
   -3.7334   -3.7823    0.0143 H   0  0  0  0  0  0  0  0  0  0  0  0
   -6.0283   -2.8486   -0.0091 H   0  0  0  0  0  0  0  0  0  0  0  0
  1 17  2  0  0  0  0
  2  7  1  0  0  0  0
  2 10  1  0  0  0  0
  2 11  1  0  0  0  0
  3  8  1  0  0  0  0
  3 10  1  0  0  0  0
  3 12  1  0  0  0  0
  4  9  1  0  0  0  0
  4 11  1  0  0  0  0
  4 13  1  0  0  0  0
  5  6  1  0  0  0  0
  5 14  1  0  0  0  0
  5 39  1  0  0  0  0
  6  7  1  0  0  0  0
  6  8  1  0  0  0  0
  6  9  1  0  0  0  0
  7 25  1  0  0  0  0
  7 26  1  0  0  0  0
  8 27  1  0  0  0  0
  8 28  1  0  0  0  0
  9 29  1  0  0  0  0
  9 30  1  0  0  0  0
 10 31  1  0  0  0  0
 10 32  1  0  0  0  0
 11 33  1  0  0  0  0
 11 34  1  0  0  0  0
 12 13  1  0  0  0  0
 12 35  1  0  0  0  0
 12 36  1  0  0  0  0
 13 37  1  0  0  0  0
 13 38  1  0  0  0  0
 14 15  2  0  0  0  0
 14 40  1  0  0  0  0
 15 16  1  0  0  0  0
 15 17  1  0  0  0  0
 16 18  1  0  0  0  0
 16 20  2  0  0  0  0
 17 19  1  0  0  0  0
 18 21  1  0  0  0  0
 18 22  2  0  0  0  0
 19 21  2  0  0  0  0
 19 41  1  0  0  0  0
 20 23  1  0  0  0  0
 20 42  1  0  0  0  0
 21 43  1  0  0  0  0
 22 24  1  0  0  0  0
 22 44  1  0  0  0  0
 23 24  2  0  0  0  0
 23 45  1  0  0  0  0
 24 46  1  0  0  0  0
M  END
> <PUBCHEM_COMPOUND_CID>
5389004

> <PUBCHEM_CONFORMER_RMSD>
0.6

> <PUBCHEM_CONFORMER_DIVERSEORDER>
1
7
6
9
5
2
8
4
3

> <PUBCHEM_MMFF94_PARTIAL_CHARGES>
32
1 -0.57
10 0.54
11 0.54
12 0.27
13 0.27
14 -0.05
15 -0.01
16 0.03
17 0.54
18 0.03
19 -0.14
2 -0.81
20 -0.15
21 -0.18
22 -0.15
23 -0.15
24 -0.15
3 -0.81
39 0.4
4 -0.81
40 0.15
41 0.15
42 0.15
43 0.15
44 0.15
45 0.15
46 0.15
5 -0.87
6 0.37
7 0.27
8 0.27
9 0.27

> <PUBCHEM_EFFECTIVE_ROTOR_COUNT>
3.4

> <PUBCHEM_PHARMACOPHORE_FEATURES>
12
1 1 acceptor
1 2 cation
1 3 cation
1 4 cation
1 5 cation
1 5 donor
6 15 16 17 18 19 21 rings
6 16 18 20 22 23 24 rings
6 2 3 6 7 8 10 rings
6 2 4 6 7 9 11 rings
7 2 3 4 10 11 12 13 rings
7 3 4 6 8 9 12 13 rings

> <PUBCHEM_HEAVY_ATOM_COUNT>
24

> <PUBCHEM_ATOM_DEF_STEREO_COUNT>
0

> <PUBCHEM_ATOM_UDEF_STEREO_COUNT>
0

> <PUBCHEM_BOND_DEF_STEREO_COUNT>
1

> <PUBCHEM_BOND_UDEF_STEREO_COUNT>
0

> <PUBCHEM_ISOTOPIC_ATOM_COUNT>
0

> <PUBCHEM_COMPONENT_COUNT>
1

> <PUBCHEM_CACTVS_TAUTO_COUNT>
3

> <PUBCHEM_CONFORMER_ID>
00523ACC00000001

> <PUBCHEM_MMFF94_ENERGY>
88.9877

> <PUBCHEM_FEATURE_SELFOVERLAP>
71.679

> <PUBCHEM_SHAPE_FINGERPRINT>
10319926 262 18197477581428811074
10369192 42 17341227622604941160
10616163 171 18411139155856542415
11405975 8 18271810064375747481
11552529 35 17560520728576091263
11796584 16 18197220248337027318
12107183 9 17903066733825440801
12236239 1 17749106690406796017
12553582 1 18268985565349643375
12616971 3 17167859729601649113
12788726 201 18408046229768551419
13167823 11 18333729109038819811
13224815 77 18412263930233656801
13583140 156 17774424045232355936
14251751 18 18340484465862992778
14790565 3 17836089970947778177
15042514 8 18409451376234179217
15196674 1 18410855447538814915
15250474 111 18334005073536177251
15352361 1 18339361967601344719
15537594 2 18187941568330417065
15788980 27 18186802461008820355
15961568 22 18189616227699051788
17349148 13 16877936135871710200
17492 89 18410011022440430114
17844677 252 18412831291282378945
17857418 61 18334287665251396275
1813 80 17821450192276129613
18681886 176 18339927112679018100
19958102 18 18115012027665936671
20403669 9 18341051904172957967
20511986 3 17822836654642190585
21033648 29 16988836164320115769
21065201 7 18340204094233401912
21267235 1 18336836389540101267
22393880 68 18339088094648494886
22646028 1 18113335301685699017
23557571 272 18343023302182122313
23559900 14 18271530788770354668
239999 70 18201163243268341766
3004659 81 18187364337289314262
312423 11 18260840297058356189
32027 91 17980474564799221534
335352 9 18410291454920944085
338550 245 18261111812096039426
4214541 1 18410573968335773705
474 4 17241904266296286308
5104073 3 18272652316084031169
633830 44 16298674871348890160
67856867 119 18188488098545458908
6823239 73 18129671803161243078
9709674 26 18409733988480567371

> <PUBCHEM_SHAPE_MULTIPOLES>
468.12
12.54
2.72
1.07
2.36
0.02
-0.01
3.98
-0.04
2.57
0
-1.64
0.22
0.01

> <PUBCHEM_SHAPE_SELFOVERLAP>
1035.707

> <PUBCHEM_SHAPE_VOLUME>
240.5

> <PUBCHEM_COORDINATE_TYPE>
2
5
10

$$$$
