663684
  -OEChem-01171812173D

 49 54  0     1  0  0  0  0  0999 V2000
   -6.3193   -3.0044    0.7345 F   0  0  0  0  0  0  0  0  0  0  0  0
    0.0779   -2.5441    0.5187 O   0  0  0  0  0  0  0  0  0  0  0  0
   -1.9356    0.9326   -1.8328 O   0  0  0  0  0  0  0  0  0  0  0  0
    0.0451    1.4328    1.7284 O   0  0  0  0  0  0  0  0  0  0  0  0
   -1.0629    3.6356   -0.7610 O   0  0  0  0  0  0  0  0  0  0  0  0
    2.1100    1.1276    0.0444 N   0  0  3  0  0  0  0  0  0  0  0  0
   -1.3068   -0.9695   -0.5714 N   0  0  0  0  0  0  0  0  0  0  0  0
    1.0285   -0.7891   -0.8169 C   0  0  1  0  0  0  0  0  0  0  0  0
    0.3630    0.4780   -1.3605 C   0  0  2  0  0  0  0  0  0  0  0  0
    2.0663   -0.3292    0.2218 C   0  0  1  0  0  0  0  0  0  0  0  0
    0.8618    1.6348   -0.4933 C   0  0  1  0  0  0  0  0  0  0  0  0
   -0.1094   -1.5711   -0.2009 C   0  0  0  0  0  0  0  0  0  0  0  0
   -1.1148    0.2014   -1.2936 C   0  0  0  0  0  0  0  0  0  0  0  0
    3.4494   -0.9512    0.1179 C   0  0  0  0  0  0  0  0  0  0  0  0
    3.2552    1.8610    0.2421 C   0  0  0  0  0  0  0  0  0  0  0  0
   -0.0406    2.0042    0.6440 C   0  0  0  0  0  0  0  0  0  0  0  0
    4.6025   -0.1404    0.2457 C   0  0  0  0  0  0  0  0  0  0  0  0
    4.4706    1.3178    0.3774 C   0  0  0  0  0  0  0  0  0  0  0  0
    3.6052   -2.3389   -0.0073 C   0  0  0  0  0  0  0  0  0  0  0  0
   -2.5977   -1.4935   -0.2344 C   0  0  0  0  0  0  0  0  0  0  0  0
   -1.0516    3.0811    0.4464 C   0  0  0  0  0  0  0  0  0  0  0  0
    5.8744   -0.7258    0.2258 C   0  0  0  0  0  0  0  0  0  0  0  0
    4.8778   -2.9107   -0.0311 C   0  0  0  0  0  0  0  0  0  0  0  0
    6.0091   -2.1066    0.0846 C   0  0  0  0  0  0  0  0  0  0  0  0
   -2.7763   -2.8696   -0.0822 C   0  0  0  0  0  0  0  0  0  0  0  0
   -3.6798   -0.6291   -0.0586 C   0  0  0  0  0  0  0  0  0  0  0  0
   -1.9461    3.5684    1.3046 C   0  0  0  0  0  0  0  0  0  0  0  0
   -4.0327   -3.3797    0.2445 C   0  0  0  0  0  0  0  0  0  0  0  0
   -4.9363   -1.1391    0.2683 C   0  0  0  0  0  0  0  0  0  0  0  0
   -2.6241    4.5647    0.5625 C   0  0  0  0  0  0  0  0  0  0  0  0
   -2.0502    4.5666   -0.6874 C   0  0  0  0  0  0  0  0  0  0  0  0
   -5.1128   -2.5145    0.4199 C   0  0  0  0  0  0  0  0  0  0  0  0
    1.4557   -1.3829   -1.6331 H   0  0  0  0  0  0  0  0  0  0  0  0
    0.6585    0.6257   -2.4062 H   0  0  0  0  0  0  0  0  0  0  0  0
    1.7165   -0.5374    1.2421 H   0  0  0  0  0  0  0  0  0  0  0  0
    1.0579    2.5136   -1.1183 H   0  0  0  0  0  0  0  0  0  0  0  0
    3.1068    2.9345    0.2471 H   0  0  0  0  0  0  0  0  0  0  0  0
    5.3540    1.9289    0.5174 H   0  0  0  0  0  0  0  0  0  0  0  0
    2.7385   -2.9900   -0.0784 H   0  0  0  0  0  0  0  0  0  0  0  0
    6.7700   -0.1155    0.3161 H   0  0  0  0  0  0  0  0  0  0  0  0
    4.9858   -3.9869   -0.1325 H   0  0  0  0  0  0  0  0  0  0  0  0
    6.9979   -2.5559    0.0683 H   0  0  0  0  0  0  0  0  0  0  0  0
   -1.9701   -3.5780   -0.2455 H   0  0  0  0  0  0  0  0  0  0  0  0
   -3.5758    0.4489   -0.1315 H   0  0  0  0  0  0  0  0  0  0  0  0
   -2.1231    3.2785    2.3301 H   0  0  0  0  0  0  0  0  0  0  0  0
   -4.1727   -4.4510    0.3550 H   0  0  0  0  0  0  0  0  0  0  0  0
   -5.7758   -0.4655    0.4130 H   0  0  0  0  0  0  0  0  0  0  0  0
   -3.4305    5.2014    0.8966 H   0  0  0  0  0  0  0  0  0  0  0  0
   -2.2213    5.1383   -1.5880 H   0  0  0  0  0  0  0  0  0  0  0  0
  1 32  1  0  0  0  0
  2 12  2  0  0  0  0
  3 13  2  0  0  0  0
  4 16  2  0  0  0  0
  5 21  1  0  0  0  0
  5 31  1  0  0  0  0
  6 10  1  0  0  0  0
  6 11  1  0  0  0  0
  6 15  1  0  0  0  0
  7 12  1  0  0  0  0
  7 13  1  0  0  0  0
  7 20  1  0  0  0  0
  8  9  1  0  0  0  0
  8 10  1  0  0  0  0
  8 12  1  0  0  0  0
  8 33  1  0  0  0  0
  9 11  1  0  0  0  0
  9 13  1  0  0  0  0
  9 34  1  0  0  0  0
 10 14  1  0  0  0  0
 10 35  1  0  0  0  0
 11 16  1  0  0  0  0
 11 36  1  0  0  0  0
 14 17  1  0  0  0  0
 14 19  2  0  0  0  0
 15 18  2  0  0  0  0
 15 37  1  0  0  0  0
 16 21  1  0  0  0  0
 17 18  1  0  0  0  0
 17 22  2  0  0  0  0
 18 38  1  0  0  0  0
 19 23  1  0  0  0  0
 19 39  1  0  0  0  0
 20 25  2  0  0  0  0
 20 26  1  0  0  0  0
 21 27  2  0  0  0  0
 22 24  1  0  0  0  0
 22 40  1  0  0  0  0
 23 24  2  0  0  0  0
 23 41  1  0  0  0  0
 24 42  1  0  0  0  0
 25 28  1  0  0  0  0
 25 43  1  0  0  0  0
 26 29  2  0  0  0  0
 26 44  1  0  0  0  0
 27 30  1  0  0  0  0
 27 45  1  0  0  0  0
 28 32  2  0  0  0  0
 28 46  1  0  0  0  0
 29 32  1  0  0  0  0
 29 47  1  0  0  0  0
 30 31  2  0  0  0  0
 30 48  1  0  0  0  0
 31 49  1  0  0  0  0
M  END
> <PUBCHEM_COMPOUND_CID>
663684

> <PUBCHEM_CONFORMER_RMSD>
0.8

> <PUBCHEM_CONFORMER_DIVERSEORDER>
1
12
7
8
10
11
6
9
2
13
3
4
5

> <PUBCHEM_MMFF94_PARTIAL_CHARGES>
45
1 -0.19
10 0.51
11 0.43
12 0.57
13 0.57
14 -0.14
15 -0.05
16 0.59
17 0.03
18 -0.18
19 -0.15
2 -0.57
20 0.12
21 0.05
22 -0.15
23 -0.15
24 -0.15
25 -0.15
26 -0.15
27 -0.15
28 -0.15
29 -0.15
3 -0.57
30 -0.15
31 -0.01
32 0.19
37 0.15
38 0.15
39 0.15
4 -0.57
40 0.15
41 0.15
42 0.15
43 0.15
44 0.15
45 0.15
46 0.15
47 0.15
48 0.15
49 0.15
5 -0.28
6 -0.84
7 -0.24
8 0.06
9 0.06

> <PUBCHEM_EFFECTIVE_ROTOR_COUNT>
3.4

> <PUBCHEM_PHARMACOPHORE_FEATURES>
11
1 2 acceptor
1 3 acceptor
1 4 acceptor
1 5 acceptor
1 6 cation
5 5 21 27 30 31 rings
5 6 8 9 10 11 rings
5 7 8 9 12 13 rings
6 14 17 19 22 23 24 rings
6 20 25 26 28 29 32 rings
6 6 10 14 15 17 18 rings

> <PUBCHEM_HEAVY_ATOM_COUNT>
32

> <PUBCHEM_ATOM_DEF_STEREO_COUNT>
3

> <PUBCHEM_ATOM_UDEF_STEREO_COUNT>
1

> <PUBCHEM_BOND_DEF_STEREO_COUNT>
0

> <PUBCHEM_BOND_UDEF_STEREO_COUNT>
0

> <PUBCHEM_ISOTOPIC_ATOM_COUNT>
0

> <PUBCHEM_COMPONENT_COUNT>
1

> <PUBCHEM_CACTVS_TAUTO_COUNT>
8

> <PUBCHEM_CONFORMER_ID>
000A208400000001

> <PUBCHEM_MMFF94_ENERGY>
98.1351

> <PUBCHEM_FEATURE_SELFOVERLAP>
56.308

> <PUBCHEM_SHAPE_FINGERPRINT>
10050765 1 18339080381593722834
10411042 1 18410293652879258015
10688039 33 18409450323139081513
1100329 8 17474103198767273754
11456790 92 18339377357329523651
12422481 6 17986974984699817283
12788726 201 18338252530114308796
13004483 165 18412541045845234802
13009979 54 18188221969570565485
13140716 1 18411702097330513183
138480 1 15745006669062119145
13911987 19 17467371336264225276
14028597 1 17750495395710969560
140371 6 18262244425468671774
14400156 413 18118953922791094861
14790565 3 17403175894630750668
14866123 147 18122623847073848451
14955137 171 18265057014735944283
15131766 46 15696004142036744296
15629462 23 18129079179531767557
15775530 1 17628377977188539150
15927050 60 17763743196318315719
17138139 8 17480535466861079333
17492 89 18410853240347663458
17980427 26 17333647675336357597
18608769 82 18411979204932327106
19301679 30 18410862023039728627
20721686 124 17180805152618291029
21478907 32 18410575093358593112
23558518 356 18335426729676028184
23845131 108 17832987144606832437
283562 15 18333729091880523938
3380486 145 18119822562482993426
345986 75 18115568439850906579
350125 39 18340488876904934928
4015057 19 18121773096459125803
4409770 3 18264483997658606653
460360 51 18195540185979571806
463206 1 18120371210095455374
5104073 3 18196638624435314322
513202 73 18335994068737704683
7164475 11 18409450297728181804
79837 15 17911524185893788136
9777508 108 18195243321581300825

> <PUBCHEM_SHAPE_MULTIPOLES>
617.83
11.36
5.68
1.06
6.46
4.58
-0.13
-11.29
2.19
-7.35
0.83
-0.49
0.51
0.52

> <PUBCHEM_SHAPE_SELFOVERLAP>
1409.021

> <PUBCHEM_SHAPE_VOLUME>
323.4

> <PUBCHEM_COORDINATE_TYPE>
2
5
10

$$$$
