650032
  -OEChem-01171811553D

 58 61  0     1  0  0  0  0  0999 V2000
   -7.1451   -0.9505   -0.4705 O   0  0  0  0  0  0  0  0  0  0  0  0
    1.7349    3.0883    1.6333 O   0  0  0  0  0  0  0  0  0  0  0  0
   -0.7153    2.1375    2.8263 O   0  0  0  0  0  0  0  0  0  0  0  0
    1.5110    2.5354   -2.2968 O   0  0  0  0  0  0  0  0  0  0  0  0
    1.8595   -3.2694    0.6636 O   0  0  0  0  0  0  0  0  0  0  0  0
    3.5619    1.0597    0.2239 O   0  0  0  0  0  0  0  0  0  0  0  0
   -1.0940    1.0393    0.7670 N   0  0  0  0  0  0  0  0  0  0  0  0
   -4.7126    0.2729    0.3585 N   0  0  0  0  0  0  0  0  0  0  0  0
   -0.3721    0.9183   -0.5031 C   0  0  1  0  0  0  0  0  0  0  0  0
   -2.3632    0.4189    1.0336 C   0  0  0  0  0  0  0  0  0  0  0  0
   -3.4386    0.9365    0.0897 C   0  0  0  0  0  0  0  0  0  0  0  0
    0.8307    1.7666   -0.2198 C   0  0  0  0  0  0  0  0  0  0  0  0
   -4.7339   -1.0735   -0.2300 C   0  0  0  0  0  0  0  0  0  0  0  0
   -5.8344    1.0673   -0.1610 C   0  0  0  0  0  0  0  0  0  0  0  0
   -0.3999    1.8311    1.6889 C   0  0  0  0  0  0  0  0  0  0  0  0
   -0.0196   -0.4977   -0.8096 C   0  0  0  0  0  0  0  0  0  0  0  0
    0.8367    2.2772    1.0157 C   0  0  0  0  0  0  0  0  0  0  0  0
   -6.0769   -1.7410    0.0524 C   0  0  0  0  0  0  0  0  0  0  0  0
   -7.1511    0.3494    0.1208 C   0  0  0  0  0  0  0  0  0  0  0  0
    1.8596    2.0183   -1.2224 C   0  0  0  0  0  0  0  0  0  0  0  0
    0.7652   -1.2299    0.0812 C   0  0  0  0  0  0  0  0  0  0  0  0
   -0.4749   -1.0901   -1.9875 C   0  0  0  0  0  0  0  0  0  0  0  0
    1.0946   -2.5546   -0.2058 C   0  0  0  0  0  0  0  0  0  0  0  0
    3.2659    1.6427   -0.9672 C   0  0  0  0  0  0  0  0  0  0  0  0
   -0.1454   -2.4148   -2.2746 C   0  0  0  0  0  0  0  0  0  0  0  0
    0.6392   -3.1469   -1.3837 C   0  0  0  0  0  0  0  0  0  0  0  0
    4.3987    1.7718   -1.7367 C   0  0  0  0  0  0  0  0  0  0  0  0
    5.4589    1.2337   -0.9691 C   0  0  0  0  0  0  0  0  0  0  0  0
    4.8984    0.8138    0.2148 C   0  0  0  0  0  0  0  0  0  0  0  0
    2.8067   -2.5423    1.4447 C   0  0  0  0  0  0  0  0  0  0  0  0
    3.9425   -3.4483    1.7872 C   0  0  0  0  0  0  0  0  0  0  0  0
    5.2127   -3.2194    1.4361 C   0  0  0  0  0  0  0  0  0  0  0  0
   -0.9759    1.3826   -1.2908 H   0  0  0  0  0  0  0  0  0  0  0  0
   -2.6490    0.6202    2.0730 H   0  0  0  0  0  0  0  0  0  0  0  0
   -2.2187   -0.6618    0.9463 H   0  0  0  0  0  0  0  0  0  0  0  0
   -3.1527    0.8230   -0.9631 H   0  0  0  0  0  0  0  0  0  0  0  0
   -3.5315    2.0171    0.2649 H   0  0  0  0  0  0  0  0  0  0  0  0
   -3.9471   -1.7081    0.1892 H   0  0  0  0  0  0  0  0  0  0  0  0
   -4.5806   -1.0177   -1.3158 H   0  0  0  0  0  0  0  0  0  0  0  0
   -5.7234    1.2183   -1.2428 H   0  0  0  0  0  0  0  0  0  0  0  0
   -5.8610    2.0520    0.3196 H   0  0  0  0  0  0  0  0  0  0  0  0
   -6.2315   -1.9012    1.1265 H   0  0  0  0  0  0  0  0  0  0  0  0
   -6.1173   -2.7193   -0.4373 H   0  0  0  0  0  0  0  0  0  0  0  0
   -7.9826    0.9103   -0.3177 H   0  0  0  0  0  0  0  0  0  0  0  0
   -7.3418    0.2611    1.1973 H   0  0  0  0  0  0  0  0  0  0  0  0
    1.0829   -0.7687    1.0113 H   0  0  0  0  0  0  0  0  0  0  0  0
   -1.0881   -0.5321   -2.6900 H   0  0  0  0  0  0  0  0  0  0  0  0
   -0.5004   -2.8762   -3.1916 H   0  0  0  0  0  0  0  0  0  0  0  0
    2.4463    3.2914    1.0033 H   0  0  0  0  0  0  0  0  0  0  0  0
    0.8925   -4.1785   -1.6125 H   0  0  0  0  0  0  0  0  0  0  0  0
    4.4577    2.1996   -2.7274 H   0  0  0  0  0  0  0  0  0  0  0  0
    6.5012    1.1610   -1.2440 H   0  0  0  0  0  0  0  0  0  0  0  0
    5.2933    0.3472    1.1053 H   0  0  0  0  0  0  0  0  0  0  0  0
    2.3269   -2.2067    2.3711 H   0  0  0  0  0  0  0  0  0  0  0  0
    3.1916   -1.6712    0.9014 H   0  0  0  0  0  0  0  0  0  0  0  0
    3.7134   -4.3420    2.3616 H   0  0  0  0  0  0  0  0  0  0  0  0
    5.4969   -2.3440    0.8635 H   0  0  0  0  0  0  0  0  0  0  0  0
    5.9938   -3.9165    1.7192 H   0  0  0  0  0  0  0  0  0  0  0  0
  1 18  1  0  0  0  0
  1 19  1  0  0  0  0
  2 17  1  0  0  0  0
  2 49  1  0  0  0  0
  3 15  2  0  0  0  0
  4 20  2  0  0  0  0
  5 23  1  0  0  0  0
  5 30  1  0  0  0  0
  6 24  1  0  0  0  0
  6 29  1  0  0  0  0
  7  9  1  0  0  0  0
  7 10  1  0  0  0  0
  7 15  1  0  0  0  0
  8 11  1  0  0  0  0
  8 13  1  0  0  0  0
  8 14  1  0  0  0  0
  9 12  1  0  0  0  0
  9 16  1  0  0  0  0
  9 33  1  0  0  0  0
 10 11  1  0  0  0  0
 10 34  1  0  0  0  0
 10 35  1  0  0  0  0
 11 36  1  0  0  0  0
 11 37  1  0  0  0  0
 12 17  2  0  0  0  0
 12 20  1  0  0  0  0
 13 18  1  0  0  0  0
 13 38  1  0  0  0  0
 13 39  1  0  0  0  0
 14 19  1  0  0  0  0
 14 40  1  0  0  0  0
 14 41  1  0  0  0  0
 15 17  1  0  0  0  0
 16 21  2  0  0  0  0
 16 22  1  0  0  0  0
 18 42  1  0  0  0  0
 18 43  1  0  0  0  0
 19 44  1  0  0  0  0
 19 45  1  0  0  0  0
 20 24  1  0  0  0  0
 21 23  1  0  0  0  0
 21 46  1  0  0  0  0
 22 25  2  0  0  0  0
 22 47  1  0  0  0  0
 23 26  2  0  0  0  0
 24 27  2  0  0  0  0
 25 26  1  0  0  0  0
 25 48  1  0  0  0  0
 26 50  1  0  0  0  0
 27 28  1  0  0  0  0
 27 51  1  0  0  0  0
 28 29  2  0  0  0  0
 28 52  1  0  0  0  0
 29 53  1  0  0  0  0
 30 31  1  0  0  0  0
 30 54  1  0  0  0  0
 30 55  1  0  0  0  0
 31 32  2  0  0  0  0
 31 56  1  0  0  0  0
 32 57  1  0  0  0  0
 32 58  1  0  0  0  0
M  END
> <PUBCHEM_COMPOUND_CID>
650032

> <PUBCHEM_CONFORMER_RMSD>
1

> <PUBCHEM_CONFORMER_DIVERSEORDER>
1
118
2
153
97
29
140
117
74
114
154
121
95
44
112
99
86
59
127
42
55
67
79
85
130
70
57
17
109
25
61
64
76
131
104
142
108
63
54
28
90
34
111
107
71
120
126
139
91
10
115
100
116
113
87
133
98
20
81
32
84
77
68
137
46
60
75
8
151
39
27
38
134
128
89
129
148
88
49
37
73
45
51
110
124
19
136
135
152
15
119
149
143
22
147
12
150
82
50
93
72
144
80
145
78
7
62
24
33
21
66
65
36
138
106
123
56
30
58
103
9
101
155
146
125
141
14
53
18
41
105
94
52
43
48
26
69
13
11
96
31
102
35
40
4
132
5
3
83
23
47
122
92
16
6

> <PUBCHEM_MMFF94_PARTIAL_CHARGES>
43
1 -0.56
10 0.3
11 0.27
12 -0.12
13 0.27
14 0.27
15 0.62
16 -0.14
17 0.09
18 0.28
19 0.28
2 -0.53
20 0.64
21 -0.15
22 -0.15
23 0.08
24 0.05
25 -0.15
26 -0.15
27 -0.15
28 -0.15
29 -0.01
3 -0.57
30 0.42
31 -0.29
32 -0.3
4 -0.57
46 0.15
47 0.15
48 0.15
49 0.45
5 -0.36
50 0.15
51 0.15
52 0.15
53 0.15
56 0.15
57 0.15
58 0.15
6 -0.28
7 -0.66
8 -0.81
9 0.58

> <PUBCHEM_EFFECTIVE_ROTOR_COUNT>
10.6

> <PUBCHEM_PHARMACOPHORE_FEATURES>
12
1 1 acceptor
1 2 donor
1 3 acceptor
1 32 hydrophobe
1 4 acceptor
1 5 acceptor
1 6 acceptor
1 8 cation
5 6 24 27 28 29 rings
5 7 9 12 15 17 rings
6 1 8 13 14 18 19 rings
6 16 21 22 23 25 26 rings

> <PUBCHEM_HEAVY_ATOM_COUNT>
32

> <PUBCHEM_ATOM_DEF_STEREO_COUNT>
0

> <PUBCHEM_ATOM_UDEF_STEREO_COUNT>
1

> <PUBCHEM_BOND_DEF_STEREO_COUNT>
0

> <PUBCHEM_BOND_UDEF_STEREO_COUNT>
0

> <PUBCHEM_ISOTOPIC_ATOM_COUNT>
0

> <PUBCHEM_COMPONENT_COUNT>
1

> <PUBCHEM_CACTVS_TAUTO_COUNT>
3

> <PUBCHEM_CONFORMER_ID>
0009EB3000000001

> <PUBCHEM_MMFF94_ENERGY>
66.2956

> <PUBCHEM_FEATURE_SELFOVERLAP>
60.898

> <PUBCHEM_SHAPE_FINGERPRINT>
10930396 42 18058711612265437056
1100329 8 17845089752012516937
11578080 2 16882763949790605100
11763715 3 17250630772137473294
11963148 33 18189612912210957595
12592029 89 18259991478603611804
13083527 12 18192713345520707034
133893 2 17973757721157788336
140371 6 17337597748216058877
14068700 675 18044932372946354378
14955137 171 18201995478454072710
15849732 13 18335143154371061860
15927050 60 17912631703635463546
17909252 39 17058121859284445173
18681886 176 17346599724790502657
19319366 153 18336826502673085450
20197701 30 18342181123525044301
20771845 140 17346595253482011655
20771845 171 17458637726246248206
21421861 104 18053407430095366081
21792938 131 17773614732039995966
21927370 108 17972303024800107954
22393880 68 17845653776599150285
23559900 14 18334851749925321273
3178227 256 18128831909373934257
404807 78 17901954364015932035
4149490 64 18040160617631801363
56638632 33 18335126566774659771
57527293 21 17543921109706201858
57527452 28 18409173221008712756
59755656 215 18408887356459426229
6669772 16 17702659020203968256

> <PUBCHEM_SHAPE_MULTIPOLES>
613.37
13.14
4.27
2.04
21.91
2.67
0.05
2.54
0.56
-5.74
0.84
-1.59
-0.11
-3.13

> <PUBCHEM_SHAPE_SELFOVERLAP>
1317.13

> <PUBCHEM_SHAPE_VOLUME>
336.2

> <PUBCHEM_COORDINATE_TYPE>
2
5
10

$$$$
