3904348
  -OEChem-01171811533D

 54 55  0     1  0  0  0  0  0999 V2000
   -4.5284   -2.0735    0.3432 S   0  0  0  0  0  0  0  0  0  0  0  0
   -1.2944    4.0868   -1.1197 S   0  0  0  0  0  0  0  0  0  0  0  0
    6.2106   -1.5274   -1.6737 O   0  0  0  0  0  0  0  0  0  0  0  0
   -3.5022   -2.9144    0.9316 O   0  0  0  0  0  0  0  0  0  0  0  0
   -5.8918   -2.1633    0.8326 O   0  0  0  0  0  0  0  0  0  0  0  0
    4.9394   -0.8720    0.7533 N   0  0  3  0  0  0  0  0  0  0  0  0
   -4.5188   -2.2701   -1.3701 N   0  0  0  0  0  0  0  0  0  0  0  0
    0.9546    2.8500   -0.5979 N   0  0  0  0  0  0  0  0  0  0  0  0
   -0.9670    1.6567    0.1262 N   0  0  0  0  0  0  0  0  0  0  0  0
    6.3374   -0.5659    0.5237 C   0  0  0  0  0  0  0  0  0  0  0  0
    3.9387    0.0624    0.4138 C   0  0  0  0  0  0  0  0  0  0  0  0
    4.5819   -2.1556    1.3233 C   0  0  0  0  0  0  0  0  0  0  0  0
   -4.0085   -0.3923    0.5424 C   0  0  0  0  0  0  0  0  0  0  0  0
    2.7423    0.0942    1.1301 C   0  0  0  0  0  0  0  0  0  0  0  0
    4.1461    0.9550   -0.6379 C   0  0  0  0  0  0  0  0  0  0  0  0
    6.9352   -1.5664   -0.4508 C   0  0  0  0  0  0  0  0  0  0  0  0
    1.9602    1.9110   -0.2571 C   0  0  0  0  0  0  0  0  0  0  0  0
    3.6785   -2.9161    0.3716 C   0  0  0  0  0  0  0  0  0  0  0  0
    1.7530    1.0184    0.7947 C   0  0  0  0  0  0  0  0  0  0  0  0
    3.1567    1.8791   -0.9734 C   0  0  0  0  0  0  0  0  0  0  0  0
   -2.6923   -0.0302    0.2558 C   0  0  0  0  0  0  0  0  0  0  0  0
   -2.2834    1.2940    0.4129 C   0  0  0  0  0  0  0  0  0  0  0  0
   -4.9157    0.5699    0.9860 C   0  0  0  0  0  0  0  0  0  0  0  0
   -3.1906    2.2563    0.8567 C   0  0  0  0  0  0  0  0  0  0  0  0
   -4.5067    1.8941    1.1431 C   0  0  0  0  0  0  0  0  0  0  0  0
   -5.4008   -1.3865   -2.1742 C   0  0  0  0  0  0  0  0  0  0  0  0
   -3.2104   -2.5014   -2.0333 C   0  0  0  0  0  0  0  0  0  0  0  0
   -0.4237    2.8071   -0.4528 C   0  0  0  0  0  0  0  0  0  0  0  0
    6.8756   -0.6398    1.4772 H   0  0  0  0  0  0  0  0  0  0  0  0
    6.5129    0.4566    0.1745 H   0  0  0  0  0  0  0  0  0  0  0  0
    4.0974   -2.0341    2.2989 H   0  0  0  0  0  0  0  0  0  0  0  0
    5.4710   -2.7614    1.5315 H   0  0  0  0  0  0  0  0  0  0  0  0
    2.5590   -0.5520    1.9830 H   0  0  0  0  0  0  0  0  0  0  0  0
    5.0455    0.9461   -1.2453 H   0  0  0  0  0  0  0  0  0  0  0  0
    7.9770   -1.3016   -0.6599 H   0  0  0  0  0  0  0  0  0  0  0  0
    6.9208   -2.5919   -0.0716 H   0  0  0  0  0  0  0  0  0  0  0  0
    2.7021   -2.4448    0.2320 H   0  0  0  0  0  0  0  0  0  0  0  0
    4.1397   -3.0283   -0.6150 H   0  0  0  0  0  0  0  0  0  0  0  0
    3.4933   -3.9215    0.7650 H   0  0  0  0  0  0  0  0  0  0  0  0
    0.9001    1.0694    1.4623 H   0  0  0  0  0  0  0  0  0  0  0  0
    3.3265    2.5640   -1.8002 H   0  0  0  0  0  0  0  0  0  0  0  0
   -1.9775   -0.7787   -0.0760 H   0  0  0  0  0  0  0  0  0  0  0  0
   -5.9460    0.3161    1.2168 H   0  0  0  0  0  0  0  0  0  0  0  0
    1.2840    3.6131   -1.1855 H   0  0  0  0  0  0  0  0  0  0  0  0
   -2.8995    3.2816    1.0585 H   0  0  0  0  0  0  0  0  0  0  0  0
   -5.2094    2.6401    1.5030 H   0  0  0  0  0  0  0  0  0  0  0  0
   -0.3845    0.8357   -0.0001 H   0  0  0  0  0  0  0  0  0  0  0  0
   -6.3800   -1.2861   -1.6979 H   0  0  0  0  0  0  0  0  0  0  0  0
   -5.5628   -1.8307   -3.1614 H   0  0  0  0  0  0  0  0  0  0  0  0
   -4.9529   -0.3968   -2.3000 H   0  0  0  0  0  0  0  0  0  0  0  0
   -3.3768   -3.0314   -2.9770 H   0  0  0  0  0  0  0  0  0  0  0  0
   -2.7048   -1.5570   -2.2503 H   0  0  0  0  0  0  0  0  0  0  0  0
   -2.5612   -3.1343   -1.4232 H   0  0  0  0  0  0  0  0  0  0  0  0
    6.6299   -2.1668   -2.2744 H   0  0  0  0  0  0  0  0  0  0  0  0
  1  4  2  0  0  0  0
  1  5  2  0  0  0  0
  1  7  1  0  0  0  0
  1 13  1  0  0  0  0
  2 28  2  0  0  0  0
  3 16  1  0  0  0  0
  3 54  1  0  0  0  0
  6 10  1  0  0  0  0
  6 11  1  0  0  0  0
  6 12  1  0  0  0  0
  7 26  1  0  0  0  0
  7 27  1  0  0  0  0
  8 17  1  0  0  0  0
  8 28  1  0  0  0  0
  8 44  1  0  0  0  0
  9 22  1  0  0  0  0
  9 28  1  0  0  0  0
  9 47  1  0  0  0  0
 10 16  1  0  0  0  0
 10 29  1  0  0  0  0
 10 30  1  0  0  0  0
 11 14  2  0  0  0  0
 11 15  1  0  0  0  0
 12 18  1  0  0  0  0
 12 31  1  0  0  0  0
 12 32  1  0  0  0  0
 13 21  1  0  0  0  0
 13 23  2  0  0  0  0
 14 19  1  0  0  0  0
 14 33  1  0  0  0  0
 15 20  2  0  0  0  0
 15 34  1  0  0  0  0
 16 35  1  0  0  0  0
 16 36  1  0  0  0  0
 17 19  2  0  0  0  0
 17 20  1  0  0  0  0
 18 37  1  0  0  0  0
 18 38  1  0  0  0  0
 18 39  1  0  0  0  0
 19 40  1  0  0  0  0
 20 41  1  0  0  0  0
 21 22  2  0  0  0  0
 21 42  1  0  0  0  0
 22 24  1  0  0  0  0
 23 25  1  0  0  0  0
 23 43  1  0  0  0  0
 24 25  2  0  0  0  0
 24 45  1  0  0  0  0
 25 46  1  0  0  0  0
 26 48  1  0  0  0  0
 26 49  1  0  0  0  0
 26 50  1  0  0  0  0
 27 51  1  0  0  0  0
 27 52  1  0  0  0  0
 27 53  1  0  0  0  0
M  END
> <PUBCHEM_COMPOUND_CID>
3904348

> <PUBCHEM_CONFORMER_RMSD>
1

> <PUBCHEM_CONFORMER_DIVERSEORDER>
15
50
82
27
33
60
65
34
74
59
36
54
70
19
78
35
88
79
57
39
23
40
43
68
73
75
25
48
52
21
63
24
44
71
5
41
69
67
37
22
29
28
76
55
14
31
38
87
84
32
17
42
80
77
61
66
83
30
51
56
18
49
46
81
20
72
86
45
6
16
10
3
8
85
62
64
2
47
12
58
89
11
4
1
26
7
9
13
53

> <PUBCHEM_MMFF94_PARTIAL_CHARGES>
38
1 1.45
10 0.37
11 0.1
12 0.37
13 -0.01
14 -0.15
15 -0.15
16 0.28
17 0.12
19 -0.15
2 -0.38
20 -0.15
21 -0.15
22 0.12
23 -0.15
24 -0.15
25 -0.15
26 0.36
27 0.36
28 0.5
3 -0.68
33 0.15
34 0.15
4 -0.65
40 0.15
41 0.15
42 0.15
43 0.15
44 0.37
45 0.15
46 0.15
47 0.37
5 -0.65
54 0.4
6 -0.84
7 -0.85
8 -0.55
9 -0.55

> <PUBCHEM_EFFECTIVE_ROTOR_COUNT>
10

> <PUBCHEM_PHARMACOPHORE_FEATURES>
10
1 2 acceptor
1 3 acceptor
1 3 donor
1 4 acceptor
1 5 acceptor
1 6 cation
1 8 donor
1 9 donor
6 11 14 15 17 19 20 rings
6 13 21 22 23 24 25 rings

> <PUBCHEM_HEAVY_ATOM_COUNT>
28

> <PUBCHEM_ATOM_DEF_STEREO_COUNT>
0

> <PUBCHEM_ATOM_UDEF_STEREO_COUNT>
0

> <PUBCHEM_BOND_DEF_STEREO_COUNT>
0

> <PUBCHEM_BOND_UDEF_STEREO_COUNT>
0

> <PUBCHEM_ISOTOPIC_ATOM_COUNT>
0

> <PUBCHEM_COMPONENT_COUNT>
1

> <PUBCHEM_CACTVS_TAUTO_COUNT>
3

> <PUBCHEM_CONFORMER_ID>
003B935C0000000F

> <PUBCHEM_MMFF94_ENERGY>
102.4839

> <PUBCHEM_FEATURE_SELFOVERLAP>
50.801

> <PUBCHEM_SHAPE_FINGERPRINT>
10042902 136 18411700993597823084
10622 236 18198614630944380583
11479125 193 15359978004047810246
11524674 6 17489301928681592725
117089 54 18264221364250360507
11796584 16 18129384809035414800
11963148 33 17898567571965767970
12107183 9 18337683997057694913
12174731 88 18337102372127196579
12422481 6 17704073975836434550
12596602 18 17632573860200729210
13690498 29 17969229936754431300
13782708 43 17917709106677733446
14114206 34 17313097523561254961
14117953 113 18411417268417082341
14251751 18 17988923400724037346
15188451 53 17561073748596649533
15250474 111 18411697724700585742
15361156 5 18041577844579597552
15537594 2 18261117309864649114
15728490 51 18412825811758651360
17492 89 18120378906976517211
17857418 61 18411132541390317091
19319366 153 16898491811143962741
20775530 9 18410285921779344011
208703 8 18336827597552525795
21401589 2 9511463355188273941
21774942 28 12757140274174297358
23522609 53 17973762153897217980
23559900 14 18192989538273713177
2838139 119 8718529602841782736
397830 11 17774424067509098320
4017518 198 18058448699825435039
4098825 35 13046213936246022529
44880168 125 18058167215573402806
46194498 28 16372691997603857677
463206 1 18261117404116500874
5081480 168 15936414463567664781
5104073 3 18130515227031991529
559249 180 18412545406096824785
613672 6 18117820295736348281
6431902 208 18334855026162597882
7970288 3 18335421317637635283

> <PUBCHEM_SHAPE_MULTIPOLES>
546.39
16.63
4.39
1.56
12.56
1.26
-0.68
-13.62
-0.48
-2.87
-1.14
-1.19
-0.65
-1.81

> <PUBCHEM_SHAPE_SELFOVERLAP>
1105.55

> <PUBCHEM_SHAPE_VOLUME>
321.1

> <PUBCHEM_COORDINATE_TYPE>
2
5
10

$$$$
