1911572
  -OEChem-01171811483D

 38 40  0     0  0  0  0  0  0999 V2000
   -2.7311   -1.8891    0.7215 S   0  0  0  0  0  0  0  0  0  0  0  0
    1.4136   -0.5418    0.7963 S   0  0  0  0  0  0  0  0  0  0  0  0
   -3.3439   -2.4779    1.8968 O   0  0  0  0  0  0  0  0  0  0  0  0
   -2.6945   -2.6186   -0.5313 O   0  0  0  0  0  0  0  0  0  0  0  0
    1.0376   -0.6786   -2.9864 O   0  0  0  0  0  0  0  0  0  0  0  0
   -1.1523   -1.3524    1.1174 N   0  0  0  0  0  0  0  0  0  0  0  0
   -0.2603   -1.0810   -1.1084 N   0  0  0  0  0  0  0  0  0  0  0  0
   -3.5359   -0.3481    0.4002 C   0  0  0  0  0  0  0  0  0  0  0  0
   -3.5257    0.1639   -0.8854 C   0  0  0  0  0  0  0  0  0  0  0  0
   -4.1598    0.3176    1.4407 C   0  0  0  0  0  0  0  0  0  0  0  0
   -4.7938    2.0654   -0.1022 C   0  0  0  0  0  0  0  0  0  0  0  0
   -4.1596    1.3803   -1.1386 C   0  0  0  0  0  0  0  0  0  0  0  0
   -4.7938    1.5339    1.1875 C   0  0  0  0  0  0  0  0  0  0  0  0
   -0.1550   -1.0413    0.1845 C   0  0  0  0  0  0  0  0  0  0  0  0
    1.9781   -0.3703   -0.8130 C   0  0  0  0  0  0  0  0  0  0  0  0
   -5.4705    3.3668   -0.3726 C   0  0  0  0  0  0  0  0  0  0  0  0
    4.3098    0.3710   -0.3094 C   0  0  0  0  0  0  0  0  0  0  0  0
    3.1991    0.0149   -1.1785 C   0  0  0  0  0  0  0  0  0  0  0  0
    0.8974   -0.7172   -1.7716 C   0  0  0  0  0  0  0  0  0  0  0  0
    4.4773    1.6930    0.1025 C   0  0  0  0  0  0  0  0  0  0  0  0
    5.2077   -0.6099    0.1120 C   0  0  0  0  0  0  0  0  0  0  0  0
    5.5426    2.0343    0.9358 C   0  0  0  0  0  0  0  0  0  0  0  0
    6.2729   -0.2686    0.9452 C   0  0  0  0  0  0  0  0  0  0  0  0
    6.4404    1.0535    1.3572 C   0  0  0  0  0  0  0  0  0  0  0  0
   -3.0366   -0.3508   -1.7062 H   0  0  0  0  0  0  0  0  0  0  0  0
   -4.1637   -0.0764    2.4523 H   0  0  0  0  0  0  0  0  0  0  0  0
   -0.9130   -1.3078    2.1159 H   0  0  0  0  0  0  0  0  0  0  0  0
   -4.1504    1.7854   -2.1471 H   0  0  0  0  0  0  0  0  0  0  0  0
   -5.2812    2.0602    2.0040 H   0  0  0  0  0  0  0  0  0  0  0  0
   -5.8605    3.4042   -1.3955 H   0  0  0  0  0  0  0  0  0  0  0  0
   -4.7652    4.1924   -0.2357 H   0  0  0  0  0  0  0  0  0  0  0  0
   -6.3218    3.5168    0.3001 H   0  0  0  0  0  0  0  0  0  0  0  0
    3.4396    0.0863   -2.2379 H   0  0  0  0  0  0  0  0  0  0  0  0
    3.7863    2.4692   -0.2177 H   0  0  0  0  0  0  0  0  0  0  0  0
    5.0911   -1.6448   -0.2008 H   0  0  0  0  0  0  0  0  0  0  0  0
    5.6731    3.0637    1.2565 H   0  0  0  0  0  0  0  0  0  0  0  0
    6.9720   -1.0321    1.2734 H   0  0  0  0  0  0  0  0  0  0  0  0
    7.2698    1.3192    2.0061 H   0  0  0  0  0  0  0  0  0  0  0  0
  1  3  2  0  0  0  0
  1  4  2  0  0  0  0
  1  6  1  0  0  0  0
  1  8  1  0  0  0  0
  2 14  1  0  0  0  0
  2 15  1  0  0  0  0
  5 19  2  0  0  0  0
  6 14  1  0  0  0  0
  6 27  1  0  0  0  0
  7 14  2  0  0  0  0
  7 19  1  0  0  0  0
  8  9  2  0  0  0  0
  8 10  1  0  0  0  0
  9 12  1  0  0  0  0
  9 25  1  0  0  0  0
 10 13  2  0  0  0  0
 10 26  1  0  0  0  0
 11 12  2  0  0  0  0
 11 13  1  0  0  0  0
 11 16  1  0  0  0  0
 12 28  1  0  0  0  0
 13 29  1  0  0  0  0
 15 18  2  0  0  0  0
 15 19  1  0  0  0  0
 16 30  1  0  0  0  0
 16 31  1  0  0  0  0
 16 32  1  0  0  0  0
 17 18  1  0  0  0  0
 17 20  2  0  0  0  0
 17 21  1  0  0  0  0
 18 33  1  0  0  0  0
 20 22  1  0  0  0  0
 20 34  1  0  0  0  0
 21 23  2  0  0  0  0
 21 35  1  0  0  0  0
 22 24  2  0  0  0  0
 22 36  1  0  0  0  0
 23 24  1  0  0  0  0
 23 37  1  0  0  0  0
 24 38  1  0  0  0  0
M  END
> <PUBCHEM_COMPOUND_CID>
1911572

> <PUBCHEM_CONFORMER_RMSD>
0.8

> <PUBCHEM_CONFORMER_DIVERSEORDER>
1
17
12
9
18
6
14
23
10
15
4
20
5
22
11
21
16
3
2
13
19
8
7

> <PUBCHEM_MMFF94_PARTIAL_CHARGES>
35
1 1.45
10 -0.15
11 -0.14
12 -0.15
13 -0.15
14 0.83
15 0.12
16 0.14
17 0.03
18 -0.18
19 0.77
2 -0.24
20 -0.15
21 -0.15
22 -0.15
23 -0.15
24 -0.15
25 0.15
26 0.15
27 0.42
28 0.15
29 0.15
3 -0.65
33 0.15
34 0.15
35 0.15
36 0.15
37 0.15
38 0.15
4 -0.65
5 -0.57
6 -0.79
7 -0.66
8 -0.01
9 -0.15

> <PUBCHEM_EFFECTIVE_ROTOR_COUNT>
4.2

> <PUBCHEM_PHARMACOPHORE_FEATURES>
9
1 3 acceptor
1 4 acceptor
1 5 acceptor
1 6 donor
1 7 acceptor
1 7 donor
5 2 7 14 15 19 rings
6 17 20 21 22 23 24 rings
6 8 9 10 11 12 13 rings

> <PUBCHEM_HEAVY_ATOM_COUNT>
24

> <PUBCHEM_ATOM_DEF_STEREO_COUNT>
0

> <PUBCHEM_ATOM_UDEF_STEREO_COUNT>
0

> <PUBCHEM_BOND_DEF_STEREO_COUNT>
1

> <PUBCHEM_BOND_UDEF_STEREO_COUNT>
0

> <PUBCHEM_ISOTOPIC_ATOM_COUNT>
0

> <PUBCHEM_COMPONENT_COUNT>
1

> <PUBCHEM_CACTVS_TAUTO_COUNT>
3

> <PUBCHEM_CONFORMER_ID>
001D2B1400000001

> <PUBCHEM_MMFF94_ENERGY>
45.4279

> <PUBCHEM_FEATURE_SELFOVERLAP>
45.768

> <PUBCHEM_SHAPE_FINGERPRINT>
10042902 136 9366757695214584177
10291535 26 18131073723293626545
10319926 262 18259994777096199482
105312 117 17489587895909134934
10554248 39 16272216293365406156
10763959 59 18059864987014488516
11135609 201 18268997480301397889
11315621 246 11240003351509987984
11370993 144 18334292037633631126
11720765 8 17049651015920551567
12403259 118 18340483491010573724
12422481 6 17023177185337008590
12596602 18 16081377374903111964
12616971 3 16443068313565978710
12633257 1 17821730554513672548
12969540 114 16343708763573663406
13103583 49 14923952219297721765
13583140 156 18271240629333328658
13673619 4 10881691199678853045
13911987 19 16702023110307244120
13941219 33 11025788757299171741
14223995 32 17972029245660947748
14251732 14 11095877172776403260
14251758 9 17603302631418014806
14251764 30 11314314936027075520
14251764 38 18266742556980981277
14466204 15 18335137613688721536
14528608 73 13470691456053708274
14950920 106 14852189320441572053
14951699 99 18189341328665099460
15209294 21 17967532376146264823
15238133 3 18334298682607557564
15348495 7 18260547861826253376
17844677 252 18264211477429758226
17870717 6 10663822949587522017
1813 80 14273456959945843878
19438510 23 18196657302879176561
21033648 29 18188218615000919697
21054139 6 12463569561208596924
21401589 2 18340496582318695201
22393880 68 13398342426661789795
22849341 161 15864077563648322694
22950370 63 13262397756852472534
23379529 103 10159110871230591845
23522609 53 17023204725194539820
23559900 14 18265071171116886158
255183 451 11166497706029802129
2838139 119 18273205387634250644
2916195 48 18412265004497973577
312425 54 17894905235823484994
312425 83 16485018930068182453
32027 91 17487639450169213230
33382 64 10665228129547841884
3459 39 18188475883727034161
3737641 26 14346340248492681720
445580 125 18186803578006363554
474113 269 14490772195398131817
484985 159 12251894902833767317
5104073 3 18040996215507380178
633830 44 15481296892463198702
7226269 152 18335984194634758080
7918774 8 12973600019816049952
79837 15 17531538696831468458
8217 86 9727341446394498196
8863177 126 12252198388969731160
9981440 41 18408327666344374771
999808 66 13334725809587578032

> <PUBCHEM_SHAPE_MULTIPOLES>
474.04
15.97
2.64
1.79
12.28
0.78
-0.69
11.11
5.29
-4
0.43
-0.07
-0.49
1.71

> <PUBCHEM_SHAPE_SELFOVERLAP>
1000.431

> <PUBCHEM_SHAPE_VOLUME>
266.6

> <PUBCHEM_COORDINATE_TYPE>
2
5
10

$$$$
