619687
  -OEChem-01171811503D

 35 35  0     0  0  0  0  0  0999 V2000
    3.1520   -0.7851    0.8073 O   0  0  0  0  0  0  0  0  0  0  0  0
   -1.1466   -2.7327   -0.1759 N   0  0  0  0  0  0  0  0  0  0  0  0
   -2.7127    1.6681    0.2358 N   0  0  0  0  0  0  0  0  0  0  0  0
    1.8685    0.8547   -0.3481 N   0  0  0  0  0  0  0  0  0  0  0  0
   -1.9591   -0.5433    0.0342 N   0  0  0  0  0  0  0  0  0  0  0  0
   -0.4165    1.2925   -0.0543 N   0  0  0  0  0  0  0  0  0  0  0  0
    0.3850   -0.9594   -0.2649 N   0  0  0  0  0  0  0  0  0  0  0  0
    2.4122    3.4161   -0.2805 N   0  0  0  0  0  0  0  0  0  0  0  0
   -0.8946   -1.3444   -0.1332 C   0  0  0  0  0  0  0  0  0  0  0  0
   -1.6443    0.7617    0.0638 C   0  0  0  0  0  0  0  0  0  0  0  0
    0.5536    0.3745   -0.2164 C   0  0  0  0  0  0  0  0  0  0  0  0
   -0.0565   -3.6701   -0.3542 C   0  0  0  0  0  0  0  0  0  0  0  0
   -2.4967   -3.2372   -0.0279 C   0  0  0  0  0  0  0  0  0  0  0  0
   -2.4637    3.0947    0.2786 C   0  0  0  0  0  0  0  0  0  0  0  0
   -4.0725    1.1831    0.3576 C   0  0  0  0  0  0  0  0  0  0  0  0
    3.0193   -0.0432   -0.4070 C   0  0  0  0  0  0  0  0  0  0  0  0
    2.1653    2.2825   -0.3099 C   0  0  0  0  0  0  0  0  0  0  0  0
    4.3074   -1.6123    0.7951 C   0  0  0  0  0  0  0  0  0  0  0  0
    0.6649   -3.5866    0.4663 H   0  0  0  0  0  0  0  0  0  0  0  0
    0.4632   -3.4857   -1.3010 H   0  0  0  0  0  0  0  0  0  0  0  0
   -0.4054   -4.7080   -0.3744 H   0  0  0  0  0  0  0  0  0  0  0  0
   -2.9139   -2.9494    0.9434 H   0  0  0  0  0  0  0  0  0  0  0  0
   -2.5360   -4.3302   -0.0861 H   0  0  0  0  0  0  0  0  0  0  0  0
   -3.1456   -2.8482   -0.8203 H   0  0  0  0  0  0  0  0  0  0  0  0
   -1.7899    3.3468    1.1050 H   0  0  0  0  0  0  0  0  0  0  0  0
   -3.3846    3.6687    0.4268 H   0  0  0  0  0  0  0  0  0  0  0  0
   -2.0153    3.4383   -0.6601 H   0  0  0  0  0  0  0  0  0  0  0  0
   -4.1727    0.5218    1.2254 H   0  0  0  0  0  0  0  0  0  0  0  0
   -4.3699    0.6328   -0.5419 H   0  0  0  0  0  0  0  0  0  0  0  0
   -4.7902    1.9998    0.4894 H   0  0  0  0  0  0  0  0  0  0  0  0
    2.9020   -0.7391   -1.2474 H   0  0  0  0  0  0  0  0  0  0  0  0
    3.9420    0.5257   -0.5802 H   0  0  0  0  0  0  0  0  0  0  0  0
    4.2534   -2.3332   -0.0263 H   0  0  0  0  0  0  0  0  0  0  0  0
    4.3475   -2.1614    1.7397 H   0  0  0  0  0  0  0  0  0  0  0  0
    5.2131   -1.0048    0.7056 H   0  0  0  0  0  0  0  0  0  0  0  0
  1 16  1  0  0  0  0
  1 18  1  0  0  0  0
  2  9  1  0  0  0  0
  2 12  1  0  0  0  0
  2 13  1  0  0  0  0
  3 10  1  0  0  0  0
  3 14  1  0  0  0  0
  3 15  1  0  0  0  0
  4 11  1  0  0  0  0
  4 16  1  0  0  0  0
  4 17  1  0  0  0  0
  5  9  2  0  0  0  0
  5 10  1  0  0  0  0
  6 10  2  0  0  0  0
  6 11  1  0  0  0  0
  7  9  1  0  0  0  0
  7 11  2  0  0  0  0
  8 17  3  0  0  0  0
 12 19  1  0  0  0  0
 12 20  1  0  0  0  0
 12 21  1  0  0  0  0
 13 22  1  0  0  0  0
 13 23  1  0  0  0  0
 13 24  1  0  0  0  0
 14 25  1  0  0  0  0
 14 26  1  0  0  0  0
 14 27  1  0  0  0  0
 15 28  1  0  0  0  0
 15 29  1  0  0  0  0
 15 30  1  0  0  0  0
 16 31  1  0  0  0  0
 16 32  1  0  0  0  0
 18 33  1  0  0  0  0
 18 34  1  0  0  0  0
 18 35  1  0  0  0  0
M  END
> <PUBCHEM_COMPOUND_CID>
619687

> <PUBCHEM_CONFORMER_RMSD>
0.6

> <PUBCHEM_CONFORMER_DIVERSEORDER>
1
39
33
25
16
8
26
30
42
9
27
17
28
18
38
14
5
19
29
32
40
23
41
36
3
24
4
2
31
20
35
7
34
11
10
6
22
13
12
21
15
37

> <PUBCHEM_MMFF94_PARTIAL_CHARGES>
18
1 -0.56
10 0.72
11 0.72
12 0.37
13 0.37
14 0.37
15 0.37
16 0.65
17 0.62
18 0.28
2 -0.84
3 -0.84
4 -0.53
5 -0.62
6 -0.62
7 -0.62
8 -0.56
9 0.72

> <PUBCHEM_EFFECTIVE_ROTOR_COUNT>
5

> <PUBCHEM_PHARMACOPHORE_FEATURES>
6
1 1 acceptor
1 8 acceptor
4 2 5 7 9 cation
4 3 5 6 10 cation
4 4 6 7 11 cation
6 5 6 7 9 10 11 rings

> <PUBCHEM_HEAVY_ATOM_COUNT>
18

> <PUBCHEM_ATOM_DEF_STEREO_COUNT>
0

> <PUBCHEM_ATOM_UDEF_STEREO_COUNT>
0

> <PUBCHEM_BOND_DEF_STEREO_COUNT>
0

> <PUBCHEM_BOND_UDEF_STEREO_COUNT>
0

> <PUBCHEM_ISOTOPIC_ATOM_COUNT>
0

> <PUBCHEM_COMPONENT_COUNT>
1

> <PUBCHEM_CACTVS_TAUTO_COUNT>
1

> <PUBCHEM_CONFORMER_ID>
000974A700000001

> <PUBCHEM_MMFF94_ENERGY>
68.8197

> <PUBCHEM_FEATURE_SELFOVERLAP>
30.577

> <PUBCHEM_SHAPE_FINGERPRINT>
10967382 1 18194968430910553263
12403260 363 18411412874333494933
12507560 14 18265892467352449968
12553582 1 17619627329210371887
12592029 89 18266187123578426843
13140716 1 18410016571796016019
13380535 76 18338798892999212047
14022349 108 17761491396167098434
14178342 30 18266158686984848080
14790565 3 18122357787441937252
15042514 8 18409733976023232299
15442244 35 18409445903807384554
16945 1 18411990130437350807
193761 8 18266742561328026988
19591789 44 17978514135107623254
20028762 73 18273210890152047639
20510252 161 18127139790742669643
20511035 2 18131058381644213812
20600515 1 18271240513827939608
20671657 1 18335147509446936940
20711985 365 18339077219369333862
21501502 16 18339080522367755700
21524375 3 18188777137053932033
23184049 29 18339357599498304886
2334 1 18195530521970579749
23402539 116 18127395779056768517
23557571 272 17696214851141382708
23558518 356 18262799699825204114
23559900 14 18200605701032219870
23598291 2 18186521025214524518
2748010 2 18338530745284642741
3091708 16 9056446939317087219
34934 24 17620755419561046191
352729 6 18412833494858804655
58051976 378 18269834216928176973
589210 1 18266176313161547092
6992083 37 18260265231133957892
7097593 13 18334288765153277786
7364860 26 17691970362932927119
74978 22 18410011061321443516
81228 2 18047473610631970593

> <PUBCHEM_SHAPE_MULTIPOLES>
329.7
6.13
4.63
0.7
2.16
1.58
-0.05
-1.49
-1.48
-1.23
0.4
0.29
0.06
-0.89

> <PUBCHEM_SHAPE_SELFOVERLAP>
656.467

> <PUBCHEM_SHAPE_VOLUME>
191.5

> <PUBCHEM_COORDINATE_TYPE>
2
5
10

$$$$
