2893413
  -OEChem-01171811433D

 46 49  0     0  0  0  0  0  0999 V2000
   -2.2555    3.8200    0.0126 O   0  0  0  0  0  0  0  0  0  0  0  0
    2.4475    2.2608    0.8098 O   0  0  0  0  0  0  0  0  0  0  0  0
    1.0123   -2.4364   -1.2795 O   0  0  0  0  0  0  0  0  0  0  0  0
   -0.0731    2.0653   -0.1434 N   0  0  0  0  0  0  0  0  0  0  0  0
   -0.8548   -0.4800   -1.2782 N   0  0  0  0  0  0  0  0  0  0  0  0
   -0.4257    2.6882    1.1326 C   0  0  0  0  0  0  0  0  0  0  0  0
   -0.5024    2.8117   -1.3261 C   0  0  0  0  0  0  0  0  0  0  0  0
    0.7415    0.9743   -0.2237 C   0  0  0  0  0  0  0  0  0  0  0  0
   -1.9150    3.0113    1.1415 C   0  0  0  0  0  0  0  0  0  0  0  0
   -1.9886    3.1288   -1.2100 C   0  0  0  0  0  0  0  0  0  0  0  0
    0.3795   -0.2106   -0.7508 C   0  0  0  0  0  0  0  0  0  0  0  0
    2.1125    1.1822    0.3304 C   0  0  0  0  0  0  0  0  0  0  0  0
    3.0646    0.0606    0.2922 C   0  0  0  0  0  0  0  0  0  0  0  0
    2.6903   -1.1641   -0.2521 C   0  0  0  0  0  0  0  0  0  0  0  0
    1.3369   -1.3555   -0.7978 C   0  0  0  0  0  0  0  0  0  0  0  0
    4.3560    0.2305    0.8080 C   0  0  0  0  0  0  0  0  0  0  0  0
    3.6059   -2.2239   -0.2827 C   0  0  0  0  0  0  0  0  0  0  0  0
   -1.9648   -0.9841   -0.5991 C   0  0  0  0  0  0  0  0  0  0  0  0
    5.2659   -0.8265    0.7762 C   0  0  0  0  0  0  0  0  0  0  0  0
    4.8913   -2.0523    0.2315 C   0  0  0  0  0  0  0  0  0  0  0  0
   -3.1714   -1.2126   -1.2763 C   0  0  0  0  0  0  0  0  0  0  0  0
   -1.8917   -1.2697    0.7719 C   0  0  0  0  0  0  0  0  0  0  0  0
   -4.1960   -1.9958    0.7665 C   0  0  0  0  0  0  0  0  0  0  0  0
   -4.2812   -1.7156   -0.5972 C   0  0  0  0  0  0  0  0  0  0  0  0
   -3.0013   -1.7729    1.4512 C   0  0  0  0  0  0  0  0  0  0  0  0
   -5.3824   -2.5340    1.4925 C   0  0  0  0  0  0  0  0  0  0  0  0
   -0.1916    2.0326    1.9796 H   0  0  0  0  0  0  0  0  0  0  0  0
    0.1522    3.6131    1.2470 H   0  0  0  0  0  0  0  0  0  0  0  0
   -0.3125    2.2570   -2.2521 H   0  0  0  0  0  0  0  0  0  0  0  0
    0.0743    3.7433   -1.3747 H   0  0  0  0  0  0  0  0  0  0  0  0
   -2.5235    2.0991    1.1296 H   0  0  0  0  0  0  0  0  0  0  0  0
   -2.1719    3.5716    2.0459 H   0  0  0  0  0  0  0  0  0  0  0  0
   -2.2984    3.7769   -2.0358 H   0  0  0  0  0  0  0  0  0  0  0  0
   -2.5997    2.2196   -1.2527 H   0  0  0  0  0  0  0  0  0  0  0  0
   -0.8657   -0.6262   -2.2830 H   0  0  0  0  0  0  0  0  0  0  0  0
    4.6724    1.1769    1.2382 H   0  0  0  0  0  0  0  0  0  0  0  0
    3.3378   -3.1898   -0.7023 H   0  0  0  0  0  0  0  0  0  0  0  0
    6.2667   -0.6932    1.1765 H   0  0  0  0  0  0  0  0  0  0  0  0
    5.5998   -2.8750    0.2070 H   0  0  0  0  0  0  0  0  0  0  0  0
   -3.2533   -0.9978   -2.3393 H   0  0  0  0  0  0  0  0  0  0  0  0
   -0.9794   -1.1100    1.3407 H   0  0  0  0  0  0  0  0  0  0  0  0
   -5.2059   -1.8864   -1.1419 H   0  0  0  0  0  0  0  0  0  0  0  0
   -2.9224   -1.9889    2.5134 H   0  0  0  0  0  0  0  0  0  0  0  0
   -5.3827   -2.2151    2.5404 H   0  0  0  0  0  0  0  0  0  0  0  0
   -6.3156   -2.1719    1.0476 H   0  0  0  0  0  0  0  0  0  0  0  0
   -5.3790   -3.6279    1.4588 H   0  0  0  0  0  0  0  0  0  0  0  0
  1  9  1  0  0  0  0
  1 10  1  0  0  0  0
  2 12  2  0  0  0  0
  3 15  2  0  0  0  0
  4  6  1  0  0  0  0
  4  7  1  0  0  0  0
  4  8  1  0  0  0  0
  5 11  1  0  0  0  0
  5 18  1  0  0  0  0
  5 35  1  0  0  0  0
  6  9  1  0  0  0  0
  6 27  1  0  0  0  0
  6 28  1  0  0  0  0
  7 10  1  0  0  0  0
  7 29  1  0  0  0  0
  7 30  1  0  0  0  0
  8 11  2  0  0  0  0
  8 12  1  0  0  0  0
  9 31  1  0  0  0  0
  9 32  1  0  0  0  0
 10 33  1  0  0  0  0
 10 34  1  0  0  0  0
 11 15  1  0  0  0  0
 12 13  1  0  0  0  0
 13 14  1  0  0  0  0
 13 16  2  0  0  0  0
 14 15  1  0  0  0  0
 14 17  2  0  0  0  0
 16 19  1  0  0  0  0
 16 36  1  0  0  0  0
 17 20  1  0  0  0  0
 17 37  1  0  0  0  0
 18 21  2  0  0  0  0
 18 22  1  0  0  0  0
 19 20  2  0  0  0  0
 19 38  1  0  0  0  0
 20 39  1  0  0  0  0
 21 24  1  0  0  0  0
 21 40  1  0  0  0  0
 22 25  2  0  0  0  0
 22 41  1  0  0  0  0
 23 24  2  0  0  0  0
 23 25  1  0  0  0  0
 23 26  1  0  0  0  0
 24 42  1  0  0  0  0
 25 43  1  0  0  0  0
 26 44  1  0  0  0  0
 26 45  1  0  0  0  0
 26 46  1  0  0  0  0
M  END
> <PUBCHEM_COMPOUND_CID>
2893413

> <PUBCHEM_CONFORMER_RMSD>
0.8

> <PUBCHEM_CONFORMER_DIVERSEORDER>
1
4
7
3
8
2
5
6

> <PUBCHEM_MMFF94_PARTIAL_CHARGES>
35
1 -0.56
10 0.28
11 0.11
12 0.47
13 0.09
14 0.09
15 0.47
16 -0.15
17 -0.15
18 0.1
19 -0.15
2 -0.57
20 -0.15
21 -0.15
22 -0.15
23 -0.14
24 -0.15
25 -0.15
26 0.14
3 -0.57
35 0.4
36 0.15
37 0.15
38 0.15
39 0.15
4 -0.84
40 0.15
41 0.15
42 0.15
43 0.15
5 -0.6
6 0.37
7 0.37
8 0.11
9 0.28

> <PUBCHEM_EFFECTIVE_ROTOR_COUNT>
4.2

> <PUBCHEM_PHARMACOPHORE_FEATURES>
10
1 1 acceptor
1 2 acceptor
1 3 acceptor
1 4 cation
1 5 cation
1 5 donor
6 1 4 6 7 9 10 rings
6 13 14 16 17 19 20 rings
6 18 21 22 23 24 25 rings
6 8 11 12 13 14 15 rings

> <PUBCHEM_HEAVY_ATOM_COUNT>
26

> <PUBCHEM_ATOM_DEF_STEREO_COUNT>
0

> <PUBCHEM_ATOM_UDEF_STEREO_COUNT>
0

> <PUBCHEM_BOND_DEF_STEREO_COUNT>
0

> <PUBCHEM_BOND_UDEF_STEREO_COUNT>
0

> <PUBCHEM_ISOTOPIC_ATOM_COUNT>
0

> <PUBCHEM_COMPONENT_COUNT>
1

> <PUBCHEM_CACTVS_TAUTO_COUNT>
3

> <PUBCHEM_CONFORMER_ID>
002C266500000001

> <PUBCHEM_MMFF94_ENERGY>
98.3764

> <PUBCHEM_FEATURE_SELFOVERLAP>
50.77

> <PUBCHEM_SHAPE_FINGERPRINT>
10688039 33 18334013921384434917
1100329 8 17326885180230052746
11796584 16 17313372444233307891
12236239 1 17203048594400820231
12422481 6 18128838381857812755
12553582 1 18342463698145459462
12788726 201 18335132094798177842
13052359 8 18046626711721736701
13134695 92 18196368345810583173
13140716 1 18054779599606539378
13540713 4 18128813050431078110
13544653 18 18408881871137440335
13583140 156 14333121932303779174
13965767 371 17489033776260780651
14790565 3 17400921294092713276
14866123 147 18046905970437664427
14955137 171 17833282195610902464
15420108 30 17342938466733380476
17357779 13 18339628006054150253
17980427 23 15123229987707222235
1813 80 18341346577030275175
20600515 1 17531525489838005439
20739085 24 18268441302450396853
21041028 32 18411703218258922605
21236236 1 18340482258418048774
21641784 216 18261126187704891012
22182313 1 17845656920241099518
23175994 123 18188205507093061367
23559900 14 17240757445113095230
23845131 108 17617947933327604657
2748010 2 18129370507052541814
3027735 51 18336261219946281147
3380486 145 18126263458585047941
3383291 50 16537368684279999827
350125 39 18342452660675737240
5104073 3 18268413648269386722
59755656 520 17903629688237788309
7097593 13 17980481487980359247
81228 2 18263657168797627117
9709674 26 17984696719419064206
9981440 41 17626920029381735170

> <PUBCHEM_SHAPE_MULTIPOLES>
507.5
9.35
4.32
1.39
2.16
4.05
0.01
-9.08
3.23
-3.22
0.21
-1.01
0.01
1.22

> <PUBCHEM_SHAPE_SELFOVERLAP>
1116.474

> <PUBCHEM_SHAPE_VOLUME>
272.2

> <PUBCHEM_COORDINATE_TYPE>
2
5
10

$$$$
