652113
  -OEChem-01171812143D

 59 63  0     1  0  0  0  0  0999 V2000
   -0.2473   -0.0735    2.4952 O   0  0  0  0  0  0  0  0  0  0  0  0
    3.0116    4.4460   -1.4778 O   0  0  0  0  0  0  0  0  0  0  0  0
   -6.9261   -0.6747    0.1517 O   0  0  0  0  0  0  0  0  0  0  0  0
    1.6577   -0.5672    0.2414 N   0  0  2  0  0  0  0  0  0  0  0  0
    1.3366    3.0472    0.3789 N   0  0  0  0  0  0  0  0  0  0  0  0
   -2.4031   -0.2660    1.7382 N   0  0  0  0  0  0  0  0  0  0  0  0
    1.8978    1.7099    1.9911 N   0  0  0  0  0  0  0  0  0  0  0  0
    1.8624    3.8373    1.3252 N   0  0  0  0  0  0  0  0  0  0  0  0
    2.2036    3.0138    2.3090 N   0  0  0  0  0  0  0  0  0  0  0  0
    0.8563    0.6297   -0.0114 C   0  0  1  0  0  0  0  0  0  0  0  0
    3.0732   -0.3195   -0.0584 C   0  0  0  0  0  0  0  0  0  0  0  0
    1.1579   -1.6981   -0.5604 C   0  0  0  0  0  0  0  0  0  0  0  0
    3.9199   -1.5082    0.4080 C   0  0  0  0  0  0  0  0  0  0  0  0
    2.0231   -2.9333   -0.4569 C   0  0  0  0  0  0  0  0  0  0  0  0
    3.3601   -2.8347   -0.0353 C   0  0  0  0  0  0  0  0  0  0  0  0
   -0.6066    0.3501    0.1847 C   0  0  0  0  0  0  0  0  0  0  0  0
    1.3789    1.7911    0.8197 C   0  0  0  0  0  0  0  0  0  0  0  0
    1.5115   -4.1791   -0.8447 C   0  0  0  0  0  0  0  0  0  0  0  0
    4.1538   -3.9874    0.0280 C   0  0  0  0  0  0  0  0  0  0  0  0
   -1.4984    0.4126   -0.8164 C   0  0  0  0  0  0  0  0  0  0  0  0
   -1.0556   -0.0114    1.5698 C   0  0  0  0  0  0  0  0  0  0  0  0
   -2.9149    0.1348   -0.5917 C   0  0  0  0  0  0  0  0  0  0  0  0
    2.3124   -5.3195   -0.7873 C   0  0  0  0  0  0  0  0  0  0  0  0
    3.6313   -5.2241   -0.3492 C   0  0  0  0  0  0  0  0  0  0  0  0
   -3.3420   -0.2024    0.6955 C   0  0  0  0  0  0  0  0  0  0  0  0
    0.8453    3.5962   -0.8580 C   0  0  0  0  0  0  0  0  0  0  0  0
   -3.8487    0.1983   -1.6302 C   0  0  0  0  0  0  0  0  0  0  0  0
    1.9194    3.6592   -1.9356 C   0  0  0  0  0  0  0  0  0  0  0  0
   -4.6871   -0.4750    0.9521 C   0  0  0  0  0  0  0  0  0  0  0  0
   -5.6128   -0.4098   -0.0887 C   0  0  0  0  0  0  0  0  0  0  0  0
   -5.1947   -0.0739   -1.3770 C   0  0  0  0  0  0  0  0  0  0  0  0
    4.0438    4.5217   -2.4515 C   0  0  0  0  0  0  0  0  0  0  0  0
   -7.8191   -0.5903   -0.9579 C   0  0  0  0  0  0  0  0  0  0  0  0
    1.0105    0.8969   -1.0674 H   0  0  0  0  0  0  0  0  0  0  0  0
    3.2153   -0.1634   -1.1373 H   0  0  0  0  0  0  0  0  0  0  0  0
    3.4883    0.5622    0.4391 H   0  0  0  0  0  0  0  0  0  0  0  0
    0.1628   -1.9978   -0.2120 H   0  0  0  0  0  0  0  0  0  0  0  0
    1.0889   -1.4300   -1.6235 H   0  0  0  0  0  0  0  0  0  0  0  0
    4.9390   -1.3891    0.0211 H   0  0  0  0  0  0  0  0  0  0  0  0
    3.9751   -1.5104    1.5042 H   0  0  0  0  0  0  0  0  0  0  0  0
    0.4858   -4.2669   -1.1942 H   0  0  0  0  0  0  0  0  0  0  0  0
    5.1832   -3.9266    0.3720 H   0  0  0  0  0  0  0  0  0  0  0  0
   -1.1900    0.6709   -1.8247 H   0  0  0  0  0  0  0  0  0  0  0  0
    1.9076   -6.2822   -1.0854 H   0  0  0  0  0  0  0  0  0  0  0  0
    4.2533   -6.1132   -0.3014 H   0  0  0  0  0  0  0  0  0  0  0  0
   -0.0144    3.0111   -1.1940 H   0  0  0  0  0  0  0  0  0  0  0  0
    0.4832    4.6069   -0.6327 H   0  0  0  0  0  0  0  0  0  0  0  0
   -2.7373   -0.5136    2.6652 H   0  0  0  0  0  0  0  0  0  0  0  0
   -3.5409    0.4584   -2.6400 H   0  0  0  0  0  0  0  0  0  0  0  0
    2.2758    2.6507   -2.1764 H   0  0  0  0  0  0  0  0  0  0  0  0
    1.4984    4.1077   -2.8427 H   0  0  0  0  0  0  0  0  0  0  0  0
   -5.0171   -0.7371    1.9542 H   0  0  0  0  0  0  0  0  0  0  0  0
   -5.8624   -0.0058   -2.2292 H   0  0  0  0  0  0  0  0  0  0  0  0
    4.8514    5.1392   -2.0494 H   0  0  0  0  0  0  0  0  0  0  0  0
    3.6722    4.9870   -3.3695 H   0  0  0  0  0  0  0  0  0  0  0  0
    4.4411    3.5251   -2.6673 H   0  0  0  0  0  0  0  0  0  0  0  0
   -8.8202   -0.8314   -0.5859 H   0  0  0  0  0  0  0  0  0  0  0  0
   -7.8648    0.4270   -1.3615 H   0  0  0  0  0  0  0  0  0  0  0  0
   -7.5770   -1.3318   -1.7269 H   0  0  0  0  0  0  0  0  0  0  0  0
  1 21  2  0  0  0  0
  2 28  1  0  0  0  0
  2 32  1  0  0  0  0
  3 30  1  0  0  0  0
  3 33  1  0  0  0  0
  4 10  1  0  0  0  0
  4 11  1  0  0  0  0
  4 12  1  0  0  0  0
  5  8  1  0  0  0  0
  5 17  1  0  0  0  0
  5 26  1  0  0  0  0
  6 21  1  0  0  0  0
  6 25  1  0  0  0  0
  6 48  1  0  0  0  0
  7  9  1  0  0  0  0
  7 17  2  0  0  0  0
  8  9  2  0  0  0  0
 10 16  1  0  0  0  0
 10 17  1  0  0  0  0
 10 34  1  0  0  0  0
 11 13  1  0  0  0  0
 11 35  1  0  0  0  0
 11 36  1  0  0  0  0
 12 14  1  0  0  0  0
 12 37  1  0  0  0  0
 12 38  1  0  0  0  0
 13 15  1  0  0  0  0
 13 39  1  0  0  0  0
 13 40  1  0  0  0  0
 14 15  1  0  0  0  0
 14 18  2  0  0  0  0
 15 19  2  0  0  0  0
 16 20  2  0  0  0  0
 16 21  1  0  0  0  0
 18 23  1  0  0  0  0
 18 41  1  0  0  0  0
 19 24  1  0  0  0  0
 19 42  1  0  0  0  0
 20 22  1  0  0  0  0
 20 43  1  0  0  0  0
 22 25  2  0  0  0  0
 22 27  1  0  0  0  0
 23 24  2  0  0  0  0
 23 44  1  0  0  0  0
 24 45  1  0  0  0  0
 25 29  1  0  0  0  0
 26 28  1  0  0  0  0
 26 46  1  0  0  0  0
 26 47  1  0  0  0  0
 27 31  2  0  0  0  0
 27 49  1  0  0  0  0
 28 50  1  0  0  0  0
 28 51  1  0  0  0  0
 29 30  2  0  0  0  0
 29 52  1  0  0  0  0
 30 31  1  0  0  0  0
 31 53  1  0  0  0  0
 32 54  1  0  0  0  0
 32 55  1  0  0  0  0
 32 56  1  0  0  0  0
 33 57  1  0  0  0  0
 33 58  1  0  0  0  0
 33 59  1  0  0  0  0
M  END
> <PUBCHEM_COMPOUND_CID>
652113

> <PUBCHEM_CONFORMER_RMSD>
1

> <PUBCHEM_CONFORMER_DIVERSEORDER>
1
29
75
44
31
49
65
90
20
66
85
45
64
17
79
53
86
51
42
70
25
91
74
60
26
56
59
58
24
55
83
68
69
76
23
41
16
63
84
38
34
40
78
18
81
46
27
67
77
37
36
33
72
73
88
48
47
35
71
21
4
50
80
89
19
10
39
57
82
28
15
52
62
5
43
32
30
87
22
3
61
54
14
13
2
12
11
9
8
7
6

> <PUBCHEM_MMFF94_PARTIAL_CHARGES>
41
1 -0.57
10 0.59
11 0.27
12 0.41
13 0.14
14 -0.14
15 -0.14
16 -0.12
17 0.01
18 -0.15
19 -0.15
2 -0.56
20 -0.18
21 0.62
22 0.03
23 -0.15
24 -0.15
25 0.12
26 0.26
27 -0.15
28 0.28
29 -0.15
3 -0.36
30 0.08
31 -0.15
32 0.28
33 0.28
4 -0.81
41 0.15
42 0.15
43 0.15
44 0.15
45 0.15
48 0.37
49 0.15
5 0.31
52 0.15
53 0.15
6 -0.55
7 -0.34
8 -0.42

> <PUBCHEM_EFFECTIVE_ROTOR_COUNT>
7.8

> <PUBCHEM_PHARMACOPHORE_FEATURES>
11
1 1 acceptor
1 2 acceptor
1 3 acceptor
1 4 cation
1 6 donor
3 5 7 17 cation
5 5 7 8 9 17 rings
6 14 15 18 19 23 24 rings
6 22 25 27 29 30 31 rings
6 4 11 12 13 14 15 rings
6 6 16 20 21 22 25 rings

> <PUBCHEM_HEAVY_ATOM_COUNT>
33

> <PUBCHEM_ATOM_DEF_STEREO_COUNT>
0

> <PUBCHEM_ATOM_UDEF_STEREO_COUNT>
1

> <PUBCHEM_BOND_DEF_STEREO_COUNT>
0

> <PUBCHEM_BOND_UDEF_STEREO_COUNT>
0

> <PUBCHEM_ISOTOPIC_ATOM_COUNT>
0

> <PUBCHEM_COMPONENT_COUNT>
1

> <PUBCHEM_CACTVS_TAUTO_COUNT>
2

> <PUBCHEM_CONFORMER_ID>
0009F35100000001

> <PUBCHEM_MMFF94_ENERGY>
92.776

> <PUBCHEM_FEATURE_SELFOVERLAP>
55.873

> <PUBCHEM_SHAPE_FINGERPRINT>
10930396 42 18118091760031003394
11045515 52 18049724022860145158
11763715 3 17833012463159468254
12342043 65 18041582277629536403
12522641 126 18339917229605979127
12608794 3 17622676134101158472
12788726 201 17329702120561868571
13533116 47 18343017801194056003
13690498 29 17332831356752117782
13911987 19 18191893247949835686
13955234 65 18272643597759381923
140371 6 18335430040932263896
17899979 19 18333739031442240268
1813 80 18059020449724039175
19319366 153 18270965768510938428
21049683 271 18411139104633231886
21716022 299 18267888115416602284
21756936 100 16449251082356811236
23559900 14 18411695517720307819
24771750 20 18189626110106472198
3380486 145 17910126715193951872
3388396 114 17902834836637605414
38695281 34 18118975929950168644
44802255 64 16741193354313468564
46194498 28 18259699017374559549
463206 1 18339644417394265563
5223283 242 18119521034804670045
5309563 4 18126845984636219031
6679774 75 18116419535825221770
6695519 79 17766575920892763667
70251023 43 18411696552902332681

> <PUBCHEM_SHAPE_MULTIPOLES>
631.63
11.71
7.21
1.91
26.64
1.52
-0.4
-9.05
3.48
-16.07
3.58
-0.31
2.15
-0.62

> <PUBCHEM_SHAPE_SELFOVERLAP>
1379.423

> <PUBCHEM_SHAPE_VOLUME>
343.9

> <PUBCHEM_COORDINATE_TYPE>
2
5
10

$$$$
