914064
  -OEChem-01171811433D

 27 27  0     0  0  0  0  0  0999 V2000
   -4.5050    1.9542    0.4369 Cl  0  0  0  0  0  0  0  0  0  0  0  0
    0.4118   -1.8000   -0.4992 S   0  0  0  0  0  0  0  0  0  0  0  0
    3.2188    0.1552    2.1647 S   0  0  0  0  0  0  0  0  0  0  0  0
   -0.0407   -3.1481   -0.2137 O   0  0  0  0  0  0  0  0  0  0  0  0
    0.9925   -1.4765   -1.7879 O   0  0  0  0  0  0  0  0  0  0  0  0
    1.4680   -1.2874    0.7446 N   0  0  0  0  0  0  0  0  0  0  0  0
    2.4834    0.5523   -0.4262 N   0  0  0  0  0  0  0  0  0  0  0  0
   -0.9772   -0.7394   -0.2348 C   0  0  0  0  0  0  0  0  0  0  0  0
   -1.0259    0.4840   -0.8803 C   0  0  0  0  0  0  0  0  0  0  0  0
   -1.9907   -1.1518    0.6131 C   0  0  0  0  0  0  0  0  0  0  0  0
    2.3731   -0.1726    0.7472 C   0  0  0  0  0  0  0  0  0  0  0  0
    3.3381    1.7033   -0.6504 C   0  0  0  0  0  0  0  0  0  0  0  0
   -2.1221    1.3211   -0.6715 C   0  0  0  0  0  0  0  0  0  0  0  0
   -3.0869   -0.3148    0.8218 C   0  0  0  0  0  0  0  0  0  0  0  0
   -3.1526    0.9217    0.1795 C   0  0  0  0  0  0  0  0  0  0  0  0
    2.6156    2.9988   -0.3438 C   0  0  0  0  0  0  0  0  0  0  0  0
    1.4470   -1.8498    1.6057 H   0  0  0  0  0  0  0  0  0  0  0  0
   -0.2395    0.8145   -1.5504 H   0  0  0  0  0  0  0  0  0  0  0  0
   -1.9552   -2.1061    1.1293 H   0  0  0  0  0  0  0  0  0  0  0  0
    4.2584    1.6239   -0.0653 H   0  0  0  0  0  0  0  0  0  0  0  0
    3.6200    1.6834   -1.7086 H   0  0  0  0  0  0  0  0  0  0  0  0
    1.9315    0.2501   -1.2205 H   0  0  0  0  0  0  0  0  0  0  0  0
   -2.1603    2.2814   -1.1793 H   0  0  0  0  0  0  0  0  0  0  0  0
   -3.8818   -0.6381    1.4892 H   0  0  0  0  0  0  0  0  0  0  0  0
    1.7107    3.0950   -0.9535 H   0  0  0  0  0  0  0  0  0  0  0  0
    2.3129    3.0498    0.7068 H   0  0  0  0  0  0  0  0  0  0  0  0
    3.2625    3.8558   -0.5549 H   0  0  0  0  0  0  0  0  0  0  0  0
  1 15  1  0  0  0  0
  2  4  2  0  0  0  0
  2  5  2  0  0  0  0
  2  6  1  0  0  0  0
  2  8  1  0  0  0  0
  3 11  2  0  0  0  0
  6 11  1  0  0  0  0
  6 17  1  0  0  0  0
  7 11  1  0  0  0  0
  7 12  1  0  0  0  0
  7 22  1  0  0  0  0
  8  9  2  0  0  0  0
  8 10  1  0  0  0  0
  9 13  1  0  0  0  0
  9 18  1  0  0  0  0
 10 14  2  0  0  0  0
 10 19  1  0  0  0  0
 12 16  1  0  0  0  0
 12 20  1  0  0  0  0
 12 21  1  0  0  0  0
 13 15  2  0  0  0  0
 13 23  1  0  0  0  0
 14 15  1  0  0  0  0
 14 24  1  0  0  0  0
 16 25  1  0  0  0  0
 16 26  1  0  0  0  0
 16 27  1  0  0  0  0
M  END
> <PUBCHEM_COMPOUND_CID>
914064

> <PUBCHEM_CONFORMER_RMSD>
0.6

> <PUBCHEM_CONFORMER_DIVERSEORDER>
1
65
62
63
57
24
55
10
48
27
30
12
56
19
15
33
40
58
49
25
28
34
50
51
13
18
46
6
42
36
54
3
59
5
44
32
20
16
35
2
4
61
47
52
7
29
64
60
31
53
23
17
45
11
39
21
37
14
41
22
38
43
8
9
26

> <PUBCHEM_MMFF94_PARTIAL_CHARGES>
21
1 -0.18
10 -0.15
11 0.68
12 0.3
13 -0.15
14 -0.15
15 0.18
17 0.42
18 0.15
19 0.15
2 1.45
22 0.37
23 0.15
24 0.15
3 -0.38
4 -0.65
5 -0.65
6 -0.79
7 -0.73
8 -0.01
9 -0.15

> <PUBCHEM_EFFECTIVE_ROTOR_COUNT>
5

> <PUBCHEM_PHARMACOPHORE_FEATURES>
6
1 3 acceptor
1 4 acceptor
1 5 acceptor
1 6 donor
1 7 donor
6 8 9 10 13 14 15 rings

> <PUBCHEM_HEAVY_ATOM_COUNT>
16

> <PUBCHEM_ATOM_DEF_STEREO_COUNT>
0

> <PUBCHEM_ATOM_UDEF_STEREO_COUNT>
0

> <PUBCHEM_BOND_DEF_STEREO_COUNT>
0

> <PUBCHEM_BOND_UDEF_STEREO_COUNT>
0

> <PUBCHEM_ISOTOPIC_ATOM_COUNT>
0

> <PUBCHEM_COMPONENT_COUNT>
1

> <PUBCHEM_CACTVS_TAUTO_COUNT>
3

> <PUBCHEM_CONFORMER_ID>
000DF29000000001

> <PUBCHEM_MMFF94_ENERGY>
15.2501

> <PUBCHEM_FEATURE_SELFOVERLAP>
30.495

> <PUBCHEM_SHAPE_FINGERPRINT>
12173636 292 18197497535182209877
12251169 10 18040989601241536210
12633257 1 17967806107339178369
14026960 21 18335143102641133857
14123255 52 18339928232995718612
14251764 75 18266757928985925689
14787075 74 16668256223201870106
15775835 57 18261959660267742764
16945 1 17750499707246606682
17357990 137 18337943576200530344
17834072 14 9799143881194838564
18186145 218 16773800332969100826
20361792 2 11602822371712937515
20723712 36 18336535028827809264
21524375 3 18272926154677817950
21864079 5 18339080509462125000
22802520 49 12319444524361118543
23419403 2 15753392751352396018
23558518 356 18339909506859739022
23559900 14 18194408792767515159
2748010 2 17616234897841248068
44154327 71 18409171004151849725
474 4 18340488855345702489
5939293 188 18409166597684384564
6333272 397 18410578375077506573
7097593 13 17823397349922619514
7364860 26 18193285087177562823
81228 2 17553467477110908766

> <PUBCHEM_SHAPE_MULTIPOLES>
317.14
6.79
2.87
1.41
2.55
0.06
-0.37
5.25
-2.27
-0.81
0.69
-1.14
-0.18
-0.44

> <PUBCHEM_SHAPE_SELFOVERLAP>
610.579

> <PUBCHEM_SHAPE_VOLUME>
195.2

> <PUBCHEM_COORDINATE_TYPE>
2
5
10

$$$$
