5916190
  -OEChem-01171811513D

 30 32  0     0  0  0  0  0  0999 V2000
    2.9180    0.3601    1.6731 S   0  0  0  0  0  0  0  0  0  0  0  0
    5.4293   -0.2817    0.1700 S   0  0  0  0  0  0  0  0  0  0  0  0
    0.7749    0.3284   -1.4768 O   0  0  0  0  0  0  0  0  0  0  0  0
    2.9993    0.0091   -0.8995 N   0  0  0  0  0  0  0  0  0  0  0  0
   -1.8716   -0.1677    0.3671 C   0  0  0  0  0  0  0  0  0  0  0  0
   -1.0209    0.9214    0.6172 C   0  0  0  0  0  0  0  0  0  0  0  0
   -3.0736    0.0436   -0.3495 C   0  0  0  0  0  0  0  0  0  0  0  0
   -1.3503    2.2003    0.1669 C   0  0  0  0  0  0  0  0  0  0  0  0
   -1.5561   -1.4617    0.8125 C   0  0  0  0  0  0  0  0  0  0  0  0
   -3.3895    1.3376   -0.7948 C   0  0  0  0  0  0  0  0  0  0  0  0
    0.2382    0.7935    1.3479 C   0  0  0  0  0  0  0  0  0  0  0  0
   -3.9246   -1.0452   -0.5996 C   0  0  0  0  0  0  0  0  0  0  0  0
   -2.5325    2.4080   -0.5374 C   0  0  0  0  0  0  0  0  0  0  0  0
    1.4394    0.5099    0.8136 C   0  0  0  0  0  0  0  0  0  0  0  0
   -2.4131   -2.5320    0.5548 C   0  0  0  0  0  0  0  0  0  0  0  0
   -3.5951   -2.3242   -0.1499 C   0  0  0  0  0  0  0  0  0  0  0  0
    1.6664    0.2790   -0.6401 C   0  0  0  0  0  0  0  0  0  0  0  0
    3.7253    0.0210    0.1707 C   0  0  0  0  0  0  0  0  0  0  0  0
    5.5364   -1.3994   -1.2463 C   0  0  0  0  0  0  0  0  0  0  0  0
   -0.6964    3.0486    0.3568 H   0  0  0  0  0  0  0  0  0  0  0  0
   -0.6465   -1.6726    1.3694 H   0  0  0  0  0  0  0  0  0  0  0  0
   -4.3082    1.5232   -1.3474 H   0  0  0  0  0  0  0  0  0  0  0  0
    0.1494    0.9511    2.4214 H   0  0  0  0  0  0  0  0  0  0  0  0
   -4.8537   -0.9061   -1.1484 H   0  0  0  0  0  0  0  0  0  0  0  0
   -2.7886    3.4038   -0.8875 H   0  0  0  0  0  0  0  0  0  0  0  0
   -2.1578   -3.5279    0.9052 H   0  0  0  0  0  0  0  0  0  0  0  0
   -4.2619   -3.1578   -0.3500 H   0  0  0  0  0  0  0  0  0  0  0  0
    6.5632   -1.7636   -1.3382 H   0  0  0  0  0  0  0  0  0  0  0  0
    5.2725   -0.8793   -2.1711 H   0  0  0  0  0  0  0  0  0  0  0  0
    4.8754   -2.2596   -1.1090 H   0  0  0  0  0  0  0  0  0  0  0  0
  1 14  1  0  0  0  0
  1 18  1  0  0  0  0
  2 18  1  0  0  0  0
  2 19  1  0  0  0  0
  3 17  2  0  0  0  0
  4 17  1  0  0  0  0
  4 18  2  0  0  0  0
  5  6  1  0  0  0  0
  5  7  1  0  0  0  0
  5  9  2  0  0  0  0
  6  8  2  0  0  0  0
  6 11  1  0  0  0  0
  7 10  1  0  0  0  0
  7 12  2  0  0  0  0
  8 13  1  0  0  0  0
  8 20  1  0  0  0  0
  9 15  1  0  0  0  0
  9 21  1  0  0  0  0
 10 13  2  0  0  0  0
 10 22  1  0  0  0  0
 11 14  2  0  0  0  0
 11 23  1  0  0  0  0
 12 16  1  0  0  0  0
 12 24  1  0  0  0  0
 13 25  1  0  0  0  0
 14 17  1  0  0  0  0
 15 16  2  0  0  0  0
 15 26  1  0  0  0  0
 16 27  1  0  0  0  0
 19 28  1  0  0  0  0
 19 29  1  0  0  0  0
 19 30  1  0  0  0  0
M  END
> <PUBCHEM_COMPOUND_CID>
5916190

> <PUBCHEM_CONFORMER_RMSD>
0.6

> <PUBCHEM_CONFORMER_DIVERSEORDER>
1
6
3
5
2
4

> <PUBCHEM_MMFF94_PARTIAL_CHARGES>
25
1 -0.24
10 -0.15
11 -0.18
12 -0.15
13 -0.15
14 0.12
15 -0.15
16 -0.15
17 0.77
18 0.73
19 0.23
2 -0.37
20 0.15
21 0.15
22 0.15
23 0.15
24 0.15
25 0.15
26 0.15
27 0.15
3 -0.57
4 -0.66
6 0.03
8 -0.15
9 -0.15

> <PUBCHEM_EFFECTIVE_ROTOR_COUNT>
2.2

> <PUBCHEM_PHARMACOPHORE_FEATURES>
7
1 19 hydrophobe
1 3 acceptor
1 4 acceptor
1 4 donor
5 1 4 14 17 18 rings
6 5 6 7 8 10 13 rings
6 5 7 9 12 15 16 rings

> <PUBCHEM_HEAVY_ATOM_COUNT>
19

> <PUBCHEM_ATOM_DEF_STEREO_COUNT>
0

> <PUBCHEM_ATOM_UDEF_STEREO_COUNT>
0

> <PUBCHEM_BOND_DEF_STEREO_COUNT>
1

> <PUBCHEM_BOND_UDEF_STEREO_COUNT>
0

> <PUBCHEM_ISOTOPIC_ATOM_COUNT>
0

> <PUBCHEM_COMPONENT_COUNT>
1

> <PUBCHEM_CACTVS_TAUTO_COUNT>
1

> <PUBCHEM_CONFORMER_ID>
005A461E00000001

> <PUBCHEM_MMFF94_ENERGY>
52.3302

> <PUBCHEM_FEATURE_SELFOVERLAP>
35.593

> <PUBCHEM_SHAPE_FINGERPRINT>
11315181 36 18131071503106750896
11543360 7 18334585663573871532
11582403 64 16042441374798870993
11796584 16 18341892931910806154
12236239 1 17385720270738484049
12363563 72 18268430324936286703
12500047 106 18336820879964945384
12553582 1 18189328125644981187
13583140 156 18060408115455916040
14251740 79 18337679628690351970
14251764 30 17679602283250895019
14386348 63 17989488541031677490
14910302 57 18191301586077035598
16752209 62 18188191170550087323
16945 1 18334847334319223889
17870717 6 18340494382709993926
19141452 34 17916585492110607031
19489759 90 18410289182134326736
19862831 5 17313099791187260626
200 152 17603584144943767232
20645476 183 17603578617616211075
20871999 31 18408037416237463145
21065201 7 18410566263354147816
21682296 61 16485579711490180190
23402539 116 18408315579920969885
23403322 49 18272373074585570986
23557571 272 18342454846159859305
23559900 14 18413100663442111152
23598291 2 17314211281573797274
25122255 55 17916878911328116830
2748010 2 17757814999457422627
3286 77 17060060418517099355
4921388 177 18409173190210594905
5104073 3 17346319242304860946
559249 180 18188765029678593266
59755656 215 18409726240618502583
59755656 520 18127417748358034081
77492 1 17313372414326292105
81228 2 18409732885138254817
9709674 26 18341896264404351974

> <PUBCHEM_SHAPE_MULTIPOLES>
387.86
9.75
2.29
1.3
12.37
0.38
-0.1
3.96
2.64
-3.1
0.05
0.91
-0.04
1.12

> <PUBCHEM_SHAPE_SELFOVERLAP>
828.463

> <PUBCHEM_SHAPE_VOLUME>
217.2

> <PUBCHEM_COORDINATE_TYPE>
2
5
10

$$$$
