2723946
  -OEChem-01171811563D

 15 15  0     0  0  0  0  0  0999 V2000
    3.0926   -0.0118    0.0174 S   0  0  0  0  0  0  0  0  0  0  0  0
    0.4261    0.6700   -0.0032 N   0  0  0  0  0  0  0  0  0  0  0  0
    0.8115   -1.4860   -0.0038 N   0  0  0  0  0  0  0  0  0  0  0  0
   -0.5503   -1.3248   -0.0149 N   0  0  0  0  0  0  0  0  0  0  0  0
   -1.9598    0.5999   -0.0227 N   0  0  0  0  0  0  0  0  0  0  0  0
    0.5397    2.0345   -0.0005 N   0  0  0  0  0  0  0  0  0  0  0  0
   -3.0627   -0.2081    0.0384 N   0  0  0  0  0  0  0  0  0  0  0  0
   -0.7471   -0.0296   -0.0141 C   0  0  0  0  0  0  0  0  0  0  0  0
    1.4501   -0.2441    0.0035 C   0  0  0  0  0  0  0  0  0  0  0  0
    1.2215   -2.4112   -0.0022 H   0  0  0  0  0  0  0  0  0  0  0  0
   -2.0607    1.6064    0.0432 H   0  0  0  0  0  0  0  0  0  0  0  0
    1.0858    2.2941    0.8201 H   0  0  0  0  0  0  0  0  0  0  0  0
    1.1007    2.2962   -0.8102 H   0  0  0  0  0  0  0  0  0  0  0  0
   -3.8138    0.2233   -0.4984 H   0  0  0  0  0  0  0  0  0  0  0  0
   -3.3907   -0.2416    1.0027 H   0  0  0  0  0  0  0  0  0  0  0  0
  1  9  2  0  0  0  0
  2  6  1  0  0  0  0
  2  8  1  0  0  0  0
  2  9  1  0  0  0  0
  3  4  1  0  0  0  0
  3  9  1  0  0  0  0
  3 10  1  0  0  0  0
  4  8  2  0  0  0  0
  5  7  1  0  0  0  0
  5  8  1  0  0  0  0
  5 11  1  0  0  0  0
  6 12  1  0  0  0  0
  6 13  1  0  0  0  0
  7 14  1  0  0  0  0
  7 15  1  0  0  0  0
M  END
> <PUBCHEM_COMPOUND_CID>
2723946

> <PUBCHEM_CONFORMER_RMSD>
0.4

> <PUBCHEM_CONFORMER_DIVERSEORDER>
1
2
3

> <PUBCHEM_MMFF94_PARTIAL_CHARGES>
15
1 -0.38
10 0.37
11 0.4
12 0.36
13 0.36
14 0.36
15 0.36
2 -0.11
3 -0.37
4 -0.51
5 -0.46
6 -0.73
7 -0.71
8 0.56
9 0.5

> <PUBCHEM_EFFECTIVE_ROTOR_COUNT>
1

> <PUBCHEM_PHARMACOPHORE_FEATURES>
7
1 1 acceptor
1 3 donor
1 5 donor
1 6 donor
1 7 donor
4 2 4 5 8 cation
5 2 3 4 8 9 rings

> <PUBCHEM_HEAVY_ATOM_COUNT>
9

> <PUBCHEM_ATOM_DEF_STEREO_COUNT>
0

> <PUBCHEM_ATOM_UDEF_STEREO_COUNT>
0

> <PUBCHEM_BOND_DEF_STEREO_COUNT>
0

> <PUBCHEM_BOND_UDEF_STEREO_COUNT>
0

> <PUBCHEM_ISOTOPIC_ATOM_COUNT>
0

> <PUBCHEM_COMPONENT_COUNT>
1

> <PUBCHEM_CACTVS_TAUTO_COUNT>
4

> <PUBCHEM_CONFORMER_ID>
0029906A00000001

> <PUBCHEM_MMFF94_ENERGY>
26.7257

> <PUBCHEM_FEATURE_SELFOVERLAP>
37.085

> <PUBCHEM_SHAPE_FINGERPRINT>
14325111 11 18410856542491581890
16714656 1 18411138017816426230
193761 8 17762055845179584966
21040471 1 18410855464597345326
23402655 69 18195226842762600845
23552423 10 17901103337060766948
29004967 10 18335988575305727483
5084963 1 18201719595619226825

> <PUBCHEM_SHAPE_MULTIPOLES>
159.18
3.78
1.45
0.57
0.23
0.34
0
-0.09
-0.05
-0.16
0
-0.08
0
0

> <PUBCHEM_SHAPE_SELFOVERLAP>
313.633

> <PUBCHEM_SHAPE_VOLUME>
98.3

> <PUBCHEM_COORDINATE_TYPE>
2
5
10

$$$$
