3540360
  -OEChem-01171812063D

 40 43  0     0  0  0  0  0  0999 V2000
   -4.2387   -1.1110   -0.0374 S   0  0  0  0  0  0  0  0  0  0  0  0
   -1.5218    2.8389   -0.3939 O   0  0  0  0  0  0  0  0  0  0  0  0
   -4.9361   -0.8913   -1.2886 O   0  0  0  0  0  0  0  0  0  0  0  0
   -4.9511   -1.3879    1.1938 O   0  0  0  0  0  0  0  0  0  0  0  0
    0.0609    1.3091    0.4679 N   0  0  0  0  0  0  0  0  0  0  0  0
    0.2501   -1.0578   -0.0064 N   0  0  0  0  0  0  0  0  0  0  0  0
   -0.4929   -2.1664   -0.2313 N   0  0  0  0  0  0  0  0  0  0  0  0
    0.4570    3.7067    0.6086 C   0  0  0  0  0  0  0  0  0  0  0  0
    0.3619    5.0061   -0.0997 C   0  0  0  0  0  0  0  0  0  0  0  0
    1.5509    4.1142   -0.3062 C   0  0  0  0  0  0  0  0  0  0  0  0
   -0.4569    2.5928    0.1633 C   0  0  0  0  0  0  0  0  0  0  0  0
   -1.7910   -0.3197    0.1329 C   0  0  0  0  0  0  0  0  0  0  0  0
   -3.1173    0.3017    0.2520 C   0  0  0  0  0  0  0  0  0  0  0  0
   -0.4857    0.0787    0.2179 C   0  0  0  0  0  0  0  0  0  0  0  0
   -1.7332   -1.6953   -0.1420 C   0  0  0  0  0  0  0  0  0  0  0  0
   -2.9995   -2.4283   -0.2935 C   0  0  0  0  0  0  0  0  0  0  0  0
    1.6432   -1.1508   -0.0187 C   0  0  0  0  0  0  0  0  0  0  0  0
    2.3984   -0.0544   -0.4118 C   0  0  0  0  0  0  0  0  0  0  0  0
    2.2528   -2.3382    0.3627 C   0  0  0  0  0  0  0  0  0  0  0  0
    3.7901   -0.1471   -0.4234 C   0  0  0  0  0  0  0  0  0  0  0  0
    3.6446   -2.4308    0.3510 C   0  0  0  0  0  0  0  0  0  0  0  0
    4.4132   -1.3352   -0.0421 C   0  0  0  0  0  0  0  0  0  0  0  0
    5.9012   -1.4340   -0.0552 C   0  0  0  0  0  0  0  0  0  0  0  0
    0.6580    3.7379    1.6742 H   0  0  0  0  0  0  0  0  0  0  0  0
    0.5067    5.9103    0.4795 H   0  0  0  0  0  0  0  0  0  0  0  0
   -0.3239    5.1202   -0.9300 H   0  0  0  0  0  0  0  0  0  0  0  0
    1.6466    3.6176   -1.2641 H   0  0  0  0  0  0  0  0  0  0  0  0
    2.4926    4.4190    0.1337 H   0  0  0  0  0  0  0  0  0  0  0  0
   -3.3107    0.7002    1.2496 H   0  0  0  0  0  0  0  0  0  0  0  0
   -3.3154    1.0407   -0.5258 H   0  0  0  0  0  0  0  0  0  0  0  0
   -3.1318   -2.8378   -1.2967 H   0  0  0  0  0  0  0  0  0  0  0  0
   -3.1398   -3.1899    0.4760 H   0  0  0  0  0  0  0  0  0  0  0  0
    0.9903    1.3090    0.8768 H   0  0  0  0  0  0  0  0  0  0  0  0
    1.9796    0.8543   -0.8292 H   0  0  0  0  0  0  0  0  0  0  0  0
    1.6820   -3.2051    0.6846 H   0  0  0  0  0  0  0  0  0  0  0  0
    4.3780    0.7042   -0.7569 H   0  0  0  0  0  0  0  0  0  0  0  0
    4.1187   -3.3616    0.6510 H   0  0  0  0  0  0  0  0  0  0  0  0
    6.2581   -2.1275    0.7140 H   0  0  0  0  0  0  0  0  0  0  0  0
    6.2456   -1.7866   -1.0325 H   0  0  0  0  0  0  0  0  0  0  0  0
    6.3635   -0.4625    0.1505 H   0  0  0  0  0  0  0  0  0  0  0  0
  1  3  2  0  0  0  0
  1  4  2  0  0  0  0
  1 13  1  0  0  0  0
  1 16  1  0  0  0  0
  2 11  2  0  0  0  0
  5 11  1  0  0  0  0
  5 14  1  0  0  0  0
  5 33  1  0  0  0  0
  6  7  1  0  0  0  0
  6 14  1  0  0  0  0
  6 17  1  0  0  0  0
  7 15  2  0  0  0  0
  8  9  1  0  0  0  0
  8 10  1  0  0  0  0
  8 11  1  0  0  0  0
  8 24  1  0  0  0  0
  9 10  1  0  0  0  0
  9 25  1  0  0  0  0
  9 26  1  0  0  0  0
 10 27  1  0  0  0  0
 10 28  1  0  0  0  0
 12 13  1  0  0  0  0
 12 14  2  0  0  0  0
 12 15  1  0  0  0  0
 13 29  1  0  0  0  0
 13 30  1  0  0  0  0
 15 16  1  0  0  0  0
 16 31  1  0  0  0  0
 16 32  1  0  0  0  0
 17 18  2  0  0  0  0
 17 19  1  0  0  0  0
 18 20  1  0  0  0  0
 18 34  1  0  0  0  0
 19 21  2  0  0  0  0
 19 35  1  0  0  0  0
 20 22  2  0  0  0  0
 20 36  1  0  0  0  0
 21 22  1  0  0  0  0
 21 37  1  0  0  0  0
 22 23  1  0  0  0  0
 23 38  1  0  0  0  0
 23 39  1  0  0  0  0
 23 40  1  0  0  0  0
M  END
> <PUBCHEM_COMPOUND_CID>
3540360

> <PUBCHEM_CONFORMER_RMSD>
0.8

> <PUBCHEM_CONFORMER_DIVERSEORDER>
1
6
4
9
10
8
7
5
2
12
3
11

> <PUBCHEM_MMFF94_PARTIAL_CHARGES>
33
1 1.09
10 -0.2
11 0.63
12 -0.18
13 0.29
14 -0.09
15 0.11
16 0.29
17 -0.02
18 -0.15
19 -0.15
2 -0.57
20 -0.15
21 -0.15
22 -0.14
23 0.14
24 0.1
25 0.1
26 0.1
27 0.1
28 0.1
3 -0.65
33 0.37
34 0.15
35 0.15
36 0.15
37 0.15
4 -0.65
5 -0.49
6 0.59
7 -0.71
8 -0.1
9 -0.2

> <PUBCHEM_EFFECTIVE_ROTOR_COUNT>
5

> <PUBCHEM_PHARMACOPHORE_FEATURES>
8
1 2 acceptor
1 3 acceptor
1 4 acceptor
1 5 donor
1 7 acceptor
5 1 12 13 15 16 rings
5 6 7 12 14 15 rings
6 17 18 19 20 21 22 rings

> <PUBCHEM_HEAVY_ATOM_COUNT>
23

> <PUBCHEM_ATOM_DEF_STEREO_COUNT>
0

> <PUBCHEM_ATOM_UDEF_STEREO_COUNT>
0

> <PUBCHEM_BOND_DEF_STEREO_COUNT>
0

> <PUBCHEM_BOND_UDEF_STEREO_COUNT>
0

> <PUBCHEM_ISOTOPIC_ATOM_COUNT>
0

> <PUBCHEM_COMPONENT_COUNT>
1

> <PUBCHEM_CACTVS_TAUTO_COUNT>
4

> <PUBCHEM_CONFORMER_ID>
0036058800000001

> <PUBCHEM_MMFF94_ENERGY>
76.3698

> <PUBCHEM_FEATURE_SELFOVERLAP>
40.863

> <PUBCHEM_SHAPE_FINGERPRINT>
10050765 1 18123189276278726539
10411042 1 18410856555450694122
10670039 82 18264224543485131700
1100329 8 18266745859836913387
11045515 52 18333449824390065117
11265709 11 18411141329157083618
11833330 49 18337948991853720776
12173636 292 17834392324603374452
12553582 1 18411412916934988858
12788726 201 18189331282272039418
13004483 165 18338786815429966922
13140716 1 18266180521986865417
13590594 115 18410299077966324241
13690498 29 17912663319249205750
138480 1 14735637350927400808
14178342 30 17903341629625072906
14347332 77 18196939868751427390
14508225 48 18341039748856302453
14790565 3 17692254036707242033
14955137 171 18266480809189741043
15042514 8 18194688068235264418
15230672 131 17326616303358519620
15439362 3 18121774195601274229
15475509 8 17699327371328100797
15664445 248 18127715866163893606
15927050 60 17548144784307071222
15961568 22 18411979205101326924
16087824 20 18194684766308364133
167882 2 18122340443888793965
17980427 23 17632584846748385313
1813 80 18201733841967913999
18681886 176 18340763845191295770
18785283 64 17974572695349368401
200 152 18261110755549908778
20101258 96 18338526248164006568
20510252 161 18126284147373979746
20600515 1 18130241409633348007
21029758 27 18410580591265170931
21049683 271 18116164439672479349
21267235 1 18410303497044793522
21304253 13 18342462521640879433
21641784 216 18115325388247608188
22182313 1 18267558317304472680
2297311 6 18341625771970442078
23175994 123 18409450289085415295
23366157 5 17973718370297852001
23402539 116 18272365334959590863
23419403 2 18116128121371229917
23557571 272 18272092635075683110
23558518 356 17829903040023224338
23559900 14 18268138937032671275
23845131 108 17332537769687999185
266924 87 18051687754901650439
283562 15 18263645056879485378
3071541 12 18123471841316507873
3091708 16 9210672127877517448
352729 6 17834951971431467767
4409770 3 18046339739297910373
5104073 3 18267863870548385930
532947 4 18051696847748160484
5385378 56 17979643656178285937
7164475 11 18266458694556069118
7364860 26 18124033691805910569
79837 15 17474104298252080032
81228 2 18198923425648644802
90316 7 18339644421334830930
9981440 41 17112407815197761360

> <PUBCHEM_SHAPE_MULTIPOLES>
444.63
9
5.36
0.78
1.98
9.99
-0.01
-9.21
-0.39
1.1
0.04
-0.43
-0.06
-0.28

> <PUBCHEM_SHAPE_SELFOVERLAP>
957.572

> <PUBCHEM_SHAPE_VOLUME>
247.3

> <PUBCHEM_COORDINATE_TYPE>
2
5
10

$$$$
