2936192
  -OEChem-01171812023D

 45 47  0     0  0  0  0  0  0999 V2000
   -1.1476    2.2176   -1.7686 O   0  0  0  0  0  0  0  0  0  0  0  0
    1.7295   -1.3582    1.6115 O   0  0  0  0  0  0  0  0  0  0  0  0
   -0.1533    0.8518    2.1901 O   0  0  0  0  0  0  0  0  0  0  0  0
   -3.4517   -1.6329    1.4348 O   0  0  0  0  0  0  0  0  0  0  0  0
    1.7521   -3.2604   -1.2131 N   0  0  0  0  0  0  0  0  0  0  0  0
    2.7120    2.4746    1.3213 N   0  0  0  0  0  0  0  0  0  0  0  0
    2.0620   -3.1200    0.0982 N   0  0  0  0  0  0  0  0  0  0  0  0
    1.7524    2.2195    2.2429 N   0  0  0  0  0  0  0  0  0  0  0  0
    0.5488    0.1937   -0.6784 C   0  0  0  0  0  0  0  0  0  0  0  0
    1.0705   -1.1897   -0.7038 C   0  0  0  0  0  0  0  0  0  0  0  0
    1.3021    1.0825    0.2791 C   0  0  0  0  0  0  0  0  0  0  0  0
   -0.9523    0.2510   -0.4130 C   0  0  0  0  0  0  0  0  0  0  0  0
    1.1928   -2.1026   -1.6836 C   0  0  0  0  0  0  0  0  0  0  0  0
    2.4198    1.8198    0.1548 C   0  0  0  0  0  0  0  0  0  0  0  0
    1.6495   -1.8608    0.5035 C   0  0  0  0  0  0  0  0  0  0  0  0
    0.8417    1.3392    1.6809 C   0  0  0  0  0  0  0  0  0  0  0  0
   -1.7048    1.2598   -0.9757 C   0  0  0  0  0  0  0  0  0  0  0  0
   -1.5074   -0.7221    0.3920 C   0  0  0  0  0  0  0  0  0  0  0  0
    0.8300   -1.9762   -3.1200 C   0  0  0  0  0  0  0  0  0  0  0  0
    3.2861    1.9972   -1.0406 C   0  0  0  0  0  0  0  0  0  0  0  0
   -2.8785   -0.6836    0.6454 C   0  0  0  0  0  0  0  0  0  0  0  0
   -3.0759    1.2980   -0.7222 C   0  0  0  0  0  0  0  0  0  0  0  0
   -3.6628    0.3263    0.0885 C   0  0  0  0  0  0  0  0  0  0  0  0
   -2.0234    3.2119   -2.2961 C   0  0  0  0  0  0  0  0  0  0  0  0
   -2.5916   -2.6365    1.9720 C   0  0  0  0  0  0  0  0  0  0  0  0
    0.7139    0.5996   -1.6857 H   0  0  0  0  0  0  0  0  0  0  0  0
   -0.8841   -1.4867    0.8284 H   0  0  0  0  0  0  0  0  0  0  0  0
    2.1764   -3.9609   -1.8040 H   0  0  0  0  0  0  0  0  0  0  0  0
    3.3289    3.2720    1.3796 H   0  0  0  0  0  0  0  0  0  0  0  0
    2.4946   -3.8684    0.6226 H   0  0  0  0  0  0  0  0  0  0  0  0
    1.7877    2.6238    3.1690 H   0  0  0  0  0  0  0  0  0  0  0  0
    1.7194   -2.0833   -3.7493 H   0  0  0  0  0  0  0  0  0  0  0  0
    0.3732   -1.0084   -3.3467 H   0  0  0  0  0  0  0  0  0  0  0  0
    0.1132   -2.7545   -3.4011 H   0  0  0  0  0  0  0  0  0  0  0  0
    3.3034    3.0479   -1.3475 H   0  0  0  0  0  0  0  0  0  0  0  0
    2.9380    1.4049   -1.8920 H   0  0  0  0  0  0  0  0  0  0  0  0
    4.3118    1.6862   -0.8170 H   0  0  0  0  0  0  0  0  0  0  0  0
   -3.7475    2.0511   -1.1195 H   0  0  0  0  0  0  0  0  0  0  0  0
   -4.7315    0.3602    0.2829 H   0  0  0  0  0  0  0  0  0  0  0  0
   -2.4738    3.8161   -1.5012 H   0  0  0  0  0  0  0  0  0  0  0  0
   -2.7727    2.7762   -2.9658 H   0  0  0  0  0  0  0  0  0  0  0  0
   -1.4127    3.8895   -2.9018 H   0  0  0  0  0  0  0  0  0  0  0  0
   -3.2156   -3.3082    2.5709 H   0  0  0  0  0  0  0  0  0  0  0  0
   -1.8456   -2.2078    2.6501 H   0  0  0  0  0  0  0  0  0  0  0  0
   -2.1377   -3.2450    1.1822 H   0  0  0  0  0  0  0  0  0  0  0  0
  1 17  1  0  0  0  0
  1 24  1  0  0  0  0
  2 15  2  0  0  0  0
  3 16  2  0  0  0  0
  4 21  1  0  0  0  0
  4 25  1  0  0  0  0
  5  7  1  0  0  0  0
  5 13  1  0  0  0  0
  5 28  1  0  0  0  0
  6  8  1  0  0  0  0
  6 14  1  0  0  0  0
  6 29  1  0  0  0  0
  7 15  1  0  0  0  0
  7 30  1  0  0  0  0
  8 16  1  0  0  0  0
  8 31  1  0  0  0  0
  9 10  1  0  0  0  0
  9 11  1  0  0  0  0
  9 12  1  0  0  0  0
  9 26  1  0  0  0  0
 10 13  2  0  0  0  0
 10 15  1  0  0  0  0
 11 14  2  0  0  0  0
 11 16  1  0  0  0  0
 12 17  2  0  0  0  0
 12 18  1  0  0  0  0
 13 19  1  0  0  0  0
 14 20  1  0  0  0  0
 17 22  1  0  0  0  0
 18 21  2  0  0  0  0
 18 27  1  0  0  0  0
 19 32  1  0  0  0  0
 19 33  1  0  0  0  0
 19 34  1  0  0  0  0
 20 35  1  0  0  0  0
 20 36  1  0  0  0  0
 20 37  1  0  0  0  0
 21 23  1  0  0  0  0
 22 23  2  0  0  0  0
 22 38  1  0  0  0  0
 23 39  1  0  0  0  0
 24 40  1  0  0  0  0
 24 41  1  0  0  0  0
 24 42  1  0  0  0  0
 25 43  1  0  0  0  0
 25 44  1  0  0  0  0
 25 45  1  0  0  0  0
M  END
> <PUBCHEM_COMPOUND_CID>
2936192

> <PUBCHEM_CONFORMER_RMSD>
0.8

> <PUBCHEM_CONFORMER_DIVERSEORDER>
1
22
33
20
4
43
34
26
49
29
48
6
21
11
32
5
19
37
24
3
8
18
36
38
46
41
16
47
2
12
40
45
15
13
9
39
44
31
10
14
25
28
17
27
35
23
7
30
42

> <PUBCHEM_MMFF94_PARTIAL_CHARGES>
32
1 -0.36
10 -0.12
11 -0.12
12 -0.14
13 -0.04
14 -0.04
15 0.62
16 0.62
17 0.08
18 -0.15
19 0.14
2 -0.57
20 0.14
21 0.08
22 -0.15
23 -0.15
24 0.28
25 0.28
27 0.15
28 0.4
29 0.4
3 -0.57
30 0.37
31 0.37
38 0.15
39 0.15
4 -0.36
5 -0.52
6 -0.52
7 -0.41
8 -0.41
9 0.42

> <PUBCHEM_EFFECTIVE_ROTOR_COUNT>
5

> <PUBCHEM_PHARMACOPHORE_FEATURES>
11
1 1 acceptor
1 2 acceptor
1 3 acceptor
1 4 acceptor
1 5 donor
1 6 donor
1 7 donor
1 8 donor
5 5 7 10 13 15 rings
5 6 8 11 14 16 rings
6 12 17 18 21 22 23 rings

> <PUBCHEM_HEAVY_ATOM_COUNT>
25

> <PUBCHEM_ATOM_DEF_STEREO_COUNT>
0

> <PUBCHEM_ATOM_UDEF_STEREO_COUNT>
0

> <PUBCHEM_BOND_DEF_STEREO_COUNT>
0

> <PUBCHEM_BOND_UDEF_STEREO_COUNT>
0

> <PUBCHEM_ISOTOPIC_ATOM_COUNT>
0

> <PUBCHEM_COMPONENT_COUNT>
1

> <PUBCHEM_CACTVS_TAUTO_COUNT>
15

> <PUBCHEM_CONFORMER_ID>
002CCD8000000001

> <PUBCHEM_MMFF94_ENERGY>
101.6303

> <PUBCHEM_FEATURE_SELFOVERLAP>
59.06

> <PUBCHEM_SHAPE_FINGERPRINT>
10064457 181 17554351471484535627
10165383 225 18127421256797779288
10906281 52 17696461889470720512
11244481 83 18336261232646007503
11578080 2 18046661977635322813
11582403 64 16462400949060800197
12788726 201 17192370936424869242
13134695 92 17483361189720597428
13149001 5 17977377244548080605
13681431 1 17986111807910724622
14178342 30 18048055226835442843
14223421 5 18407761443256127571
14713325 29 18261963968320829780
14955137 171 18131062719730124426
15490181 7 17984683765660516444
15664445 248 17825411784369005685
16945 1 17697561482359951260
17357779 13 17053563121072825054
20511035 2 18048842322151613168
20600515 1 17543616544668198472
20691752 17 17822294553034848713
23419403 2 17837177438811314928
23526113 38 17979621356417635527
23559900 14 18187363207786430821
238 59 17987212556563104085
2748010 2 18260557727408440367
3380486 77 17107049916478042824
35225 105 17339536599037089243
3797600 57 15983405499211432007
495365 180 18058711573066969833
5845 1 9270371250132164790
81228 2 18113622275017341493

> <PUBCHEM_SHAPE_MULTIPOLES>
471.09
4.89
3.92
2.52
2.65
0.78
-0.53
-0.69
0.83
-1.31
-0.99
-0.31
-0.02
2.83

> <PUBCHEM_SHAPE_SELFOVERLAP>
1029.006

> <PUBCHEM_SHAPE_VOLUME>
259.2

> <PUBCHEM_COORDINATE_TYPE>
2
5
10

$$$$
