5737930
  -OEChem-01171811483D

 53 56  0     0  0  0  0  0  0999 V2000
   -0.2949    1.9539    1.3211 O   0  0  0  0  0  0  0  0  0  0  0  0
    6.5344    2.2815    0.6124 O   0  0  0  0  0  0  0  0  0  0  0  0
    5.7697    2.6390   -2.0556 O   0  0  0  0  0  0  0  0  0  0  0  0
   -7.7649   -0.7256   -0.9579 O   0  0  0  0  0  0  0  0  0  0  0  0
   -1.3832    0.0226    0.4704 N   0  0  0  0  0  0  0  0  0  0  0  0
   -0.8934   -1.2269    0.1842 N   0  0  0  0  0  0  0  0  0  0  0  0
   -6.8267    1.2598   -0.0996 N   0  0  0  0  0  0  0  0  0  0  0  0
    0.4601   -1.2553    0.4127 C   0  0  0  0  0  0  0  0  0  0  0  0
    0.9027   -0.0815    0.8964 C   0  0  0  0  0  0  0  0  0  0  0  0
   -0.3179    0.7963    0.9350 C   0  0  0  0  0  0  0  0  0  0  0  0
   -2.7529    0.3341    0.3269 C   0  0  0  0  0  0  0  0  0  0  0  0
    1.2277   -2.4670    0.1104 C   0  0  0  0  0  0  0  0  0  0  0  0
    2.2017    0.3446    1.3050 C   0  0  0  0  0  0  0  0  0  0  0  0
    3.0891    0.9149    0.4733 C   0  0  0  0  0  0  0  0  0  0  0  0
   -3.2354    1.6027    0.6790 C   0  0  0  0  0  0  0  0  0  0  0  0
   -3.6519   -0.6207   -0.1697 C   0  0  0  0  0  0  0  0  0  0  0  0
    1.4165   -3.4470    1.0914 C   0  0  0  0  0  0  0  0  0  0  0  0
    1.7788   -2.6555   -1.1622 C   0  0  0  0  0  0  0  0  0  0  0  0
   -5.4734    0.9522    0.0422 C   0  0  0  0  0  0  0  0  0  0  0  0
   -4.5886    1.9100    0.5374 C   0  0  0  0  0  0  0  0  0  0  0  0
   -5.0050   -0.3132   -0.3114 C   0  0  0  0  0  0  0  0  0  0  0  0
    4.3960    1.3230    0.9649 C   0  0  0  0  0  0  0  0  0  0  0  0
    2.7498    1.1279   -0.9242 C   0  0  0  0  0  0  0  0  0  0  0  0
    2.1466   -4.6003    0.8039 C   0  0  0  0  0  0  0  0  0  0  0  0
    2.5087   -3.8088   -1.4499 C   0  0  0  0  0  0  0  0  0  0  0  0
    2.6926   -4.7811   -0.4668 C   0  0  0  0  0  0  0  0  0  0  0  0
    5.2957    1.8932    0.1507 C   0  0  0  0  0  0  0  0  0  0  0  0
    3.6227    1.6944   -1.7669 C   0  0  0  0  0  0  0  0  0  0  0  0
    4.9655    2.1202   -1.2880 C   0  0  0  0  0  0  0  0  0  0  0  0
   -7.8562    0.4361   -0.5747 C   0  0  0  0  0  0  0  0  0  0  0  0
   -9.1867    1.1462   -0.5725 C   0  0  0  0  0  0  0  0  0  0  0  0
    7.4728    1.2304    0.4820 C   0  0  0  0  0  0  0  0  0  0  0  0
   -1.2942   -1.8059   -0.5420 H   0  0  0  0  0  0  0  0  0  0  0  0
    2.4325    0.2048    2.3583 H   0  0  0  0  0  0  0  0  0  0  0  0
   -2.5885    2.3804    1.0686 H   0  0  0  0  0  0  0  0  0  0  0  0
   -3.3360   -1.6205   -0.4523 H   0  0  0  0  0  0  0  0  0  0  0  0
    0.9974   -3.3216    2.0872 H   0  0  0  0  0  0  0  0  0  0  0  0
    1.6436   -1.9085   -1.9410 H   0  0  0  0  0  0  0  0  0  0  0  0
   -4.9405    2.8999    0.8168 H   0  0  0  0  0  0  0  0  0  0  0  0
   -5.6292   -1.1058   -0.6999 H   0  0  0  0  0  0  0  0  0  0  0  0
    4.6353    1.1590    2.0118 H   0  0  0  0  0  0  0  0  0  0  0  0
    1.7825    0.8395   -1.3206 H   0  0  0  0  0  0  0  0  0  0  0  0
    2.2899   -5.3574    1.5692 H   0  0  0  0  0  0  0  0  0  0  0  0
    2.9337   -3.9498   -2.4394 H   0  0  0  0  0  0  0  0  0  0  0  0
    3.2611   -5.6790   -0.6908 H   0  0  0  0  0  0  0  0  0  0  0  0
    3.3789    1.8590   -2.8101 H   0  0  0  0  0  0  0  0  0  0  0  0
   -7.0892    2.2029    0.1795 H   0  0  0  0  0  0  0  0  0  0  0  0
   -9.4536    1.4272    0.4501 H   0  0  0  0  0  0  0  0  0  0  0  0
   -9.9603    0.4853   -0.9732 H   0  0  0  0  0  0  0  0  0  0  0  0
   -9.1297    2.0433   -1.1953 H   0  0  0  0  0  0  0  0  0  0  0  0
    7.1896    0.3662    1.0932 H   0  0  0  0  0  0  0  0  0  0  0  0
    8.4416    1.5922    0.8395 H   0  0  0  0  0  0  0  0  0  0  0  0
    7.5913    0.9278   -0.5644 H   0  0  0  0  0  0  0  0  0  0  0  0
  1 10  2  0  0  0  0
  2 27  1  0  0  0  0
  2 32  1  0  0  0  0
  3 29  2  0  0  0  0
  4 30  2  0  0  0  0
  5  6  1  0  0  0  0
  5 10  1  0  0  0  0
  5 11  1  0  0  0  0
  6  8  1  0  0  0  0
  6 33  1  0  0  0  0
  7 19  1  0  0  0  0
  7 30  1  0  0  0  0
  7 47  1  0  0  0  0
  8  9  2  0  0  0  0
  8 12  1  0  0  0  0
  9 10  1  0  0  0  0
  9 13  1  0  0  0  0
 11 15  2  0  0  0  0
 11 16  1  0  0  0  0
 12 17  2  0  0  0  0
 12 18  1  0  0  0  0
 13 14  2  0  0  0  0
 13 34  1  0  0  0  0
 14 22  1  0  0  0  0
 14 23  1  0  0  0  0
 15 20  1  0  0  0  0
 15 35  1  0  0  0  0
 16 21  2  0  0  0  0
 16 36  1  0  0  0  0
 17 24  1  0  0  0  0
 17 37  1  0  0  0  0
 18 25  2  0  0  0  0
 18 38  1  0  0  0  0
 19 20  2  0  0  0  0
 19 21  1  0  0  0  0
 20 39  1  0  0  0  0
 21 40  1  0  0  0  0
 22 27  2  0  0  0  0
 22 41  1  0  0  0  0
 23 28  2  0  0  0  0
 23 42  1  0  0  0  0
 24 26  2  0  0  0  0
 24 43  1  0  0  0  0
 25 26  1  0  0  0  0
 25 44  1  0  0  0  0
 26 45  1  0  0  0  0
 27 29  1  0  0  0  0
 28 29  1  0  0  0  0
 28 46  1  0  0  0  0
 30 31  1  0  0  0  0
 31 48  1  0  0  0  0
 31 49  1  0  0  0  0
 31 50  1  0  0  0  0
 32 51  1  0  0  0  0
 32 52  1  0  0  0  0
 32 53  1  0  0  0  0
M  END
> <PUBCHEM_COMPOUND_CID>
5737930

> <PUBCHEM_CONFORMER_RMSD>
0.8

> <PUBCHEM_CONFORMER_DIVERSEORDER>
1
7
11
4
9
2
5
3
6
10
8

> <PUBCHEM_MMFF94_PARTIAL_CHARGES>
46
1 -0.57
10 0.62
11 0.12
12 0.03
13 -0.15
15 -0.15
16 -0.15
17 -0.15
18 -0.15
19 0.12
2 -0.36
20 -0.15
21 -0.15
22 -0.15
23 -0.15
24 -0.15
25 -0.15
26 -0.15
27 0.09
28 -0.14
29 0.54
3 -0.57
30 0.57
31 0.06
32 0.28
33 0.4
34 0.15
35 0.15
36 0.15
37 0.15
38 0.15
39 0.15
4 -0.57
40 0.15
41 0.15
42 0.15
43 0.15
44 0.15
45 0.15
46 0.15
47 0.37
5 -0.16
6 -0.52
7 -0.55
8 0.07
9 0.01

> <PUBCHEM_EFFECTIVE_ROTOR_COUNT>
6

> <PUBCHEM_PHARMACOPHORE_FEATURES>
10
1 1 acceptor
1 2 acceptor
1 3 acceptor
1 4 acceptor
1 6 donor
1 7 donor
5 5 6 8 9 10 rings
6 11 15 16 19 20 21 rings
6 12 17 18 24 25 26 rings
6 14 22 23 27 28 29 rings

> <PUBCHEM_HEAVY_ATOM_COUNT>
32

> <PUBCHEM_ATOM_DEF_STEREO_COUNT>
0

> <PUBCHEM_ATOM_UDEF_STEREO_COUNT>
0

> <PUBCHEM_BOND_DEF_STEREO_COUNT>
1

> <PUBCHEM_BOND_UDEF_STEREO_COUNT>
0

> <PUBCHEM_ISOTOPIC_ATOM_COUNT>
0

> <PUBCHEM_COMPONENT_COUNT>
1

> <PUBCHEM_CACTVS_TAUTO_COUNT>
6

> <PUBCHEM_CONFORMER_ID>
00578DCA00000001

> <PUBCHEM_MMFF94_ENERGY>
122.6275

> <PUBCHEM_FEATURE_SELFOVERLAP>
50.752

> <PUBCHEM_SHAPE_FINGERPRINT>
10050765 1 18124312710457473769
10554248 39 18195793091282339525
10595046 47 18343017749680841881
10673678 19 18188217605810550245
10721379 63 18198074577419402682
11135926 11 18339630214142165559
11443803 9 18337096973695619248
11621639 208 17535451631387548349
11719270 70 18410851066709148642
11963148 33 18341880936289233919
12516196 113 9799699190454473384
12522641 33 18411703197322072062
12539765 74 17603588542663367411
12788726 201 17468488457431734394
12977781 61 17677918810257052418
13150687 139 18202292411598038822
13383665 225 18262247608346446165
133893 2 18124335825897218370
13533116 47 18271800173978694307
13540713 5 17772199613251195729
13968360 50 18409445886611977130
14117953 113 18335709351762766732
14118638 360 18202282469060218201
14150023 79 18335701624583844290
15347591 1 18267583508400428601
15439362 3 18409168779907273666
18335252 98 18408888460872702451
20554085 129 18059281146065313866
20721686 124 18186518787584698906
20771845 171 18334014977629846106
21344244 246 18200319802028814582
22311459 1 18412261757672048905
23366157 5 18263649455089513914
23522609 53 17915765106265561609
23559900 14 18125998261481953267
25223398 141 18046352104160368778
3004659 81 18198339564248857027
3103668 31 17908419504860914711
3411729 13 18408600340421334282
4017518 198 18342748438458059686
4073 2 18334295375678029067
4149490 64 18187086127200204547
44880568 143 17896869973483637925
45377200 153 15625364879966395151
46194498 28 18189332381904687527
57359948 33 18187920626560836933
57527295 17 16628309562133375324
57634706 280 17845640586053244096
6898599 12 17831031483025687668
9962374 69 18270107999693242407
9981440 41 18336556009574661242

> <PUBCHEM_SHAPE_MULTIPOLES>
620.12
19.76
4.76
1.37
37.72
7.84
-0.39
-16.13
-5.3
-8.95
-0.64
-1.59
-0.23
-0.88

> <PUBCHEM_SHAPE_SELFOVERLAP>
1357.505

> <PUBCHEM_SHAPE_VOLUME>
334.6

> <PUBCHEM_COORDINATE_TYPE>
2
5
10

$$$$
