2937733
  -OEChem-01171811473D

 39 41  0     1  0  0  0  0  0999 V2000
   -4.2473    4.1605   -0.2245 Cl  0  0  0  0  0  0  0  0  0  0  0  0
   -0.0024   -3.9437   -0.8390 O   0  0  0  0  0  0  0  0  0  0  0  0
    0.6056    0.7019   -1.2578 O   0  0  0  0  0  0  0  0  0  0  0  0
   -2.8352   -2.3913    0.4751 N   0  0  0  0  0  0  0  0  0  0  0  0
    0.5477   -1.2666   -0.0308 N   0  0  0  0  0  0  0  0  0  0  0  0
   -2.0976   -3.4974    0.0912 N   0  0  0  0  0  0  0  0  0  0  0  0
   -1.8509   -1.3021    0.6147 C   0  0  1  0  0  0  0  0  0  0  0  0
   -0.7734   -1.6699   -0.4118 C   0  0  2  0  0  0  0  0  0  0  0  0
   -2.4512    0.0677    0.4036 C   0  0  0  0  0  0  0  0  0  0  0  0
   -0.8534   -3.1740   -0.4218 C   0  0  0  0  0  0  0  0  0  0  0  0
   -1.8841    1.1836    1.0222 C   0  0  0  0  0  0  0  0  0  0  0  0
   -3.5754    0.2217   -0.4101 C   0  0  0  0  0  0  0  0  0  0  0  0
    1.1416   -0.0943   -0.4913 C   0  0  0  0  0  0  0  0  0  0  0  0
    2.5270    0.1687   -0.0239 C   0  0  0  0  0  0  0  0  0  0  0  0
   -2.4392    2.4484    0.8281 C   0  0  0  0  0  0  0  0  0  0  0  0
   -4.1305    1.4866   -0.6043 C   0  0  0  0  0  0  0  0  0  0  0  0
   -3.5623    2.6001    0.0148 C   0  0  0  0  0  0  0  0  0  0  0  0
    3.3629    0.9324   -0.8121 C   0  0  0  0  0  0  0  0  0  0  0  0
    2.9335   -0.3591    1.1842 C   0  0  0  0  0  0  0  0  0  0  0  0
    4.6635    1.1794   -0.3724 C   0  0  0  0  0  0  0  0  0  0  0  0
    4.2338   -0.1121    1.6239 C   0  0  0  0  0  0  0  0  0  0  0  0
    5.0989    0.6571    0.8457 C   0  0  0  0  0  0  0  0  0  0  0  0
    5.5886    2.0025   -1.2036 C   0  0  0  0  0  0  0  0  0  0  0  0
   -1.4389   -1.3558    1.6336 H   0  0  0  0  0  0  0  0  0  0  0  0
   -1.0107   -1.3056   -1.4192 H   0  0  0  0  0  0  0  0  0  0  0  0
   -3.2573   -2.5918    1.3809 H   0  0  0  0  0  0  0  0  0  0  0  0
    1.0704   -1.9064    0.5579 H   0  0  0  0  0  0  0  0  0  0  0  0
   -2.4589   -4.4373    0.2027 H   0  0  0  0  0  0  0  0  0  0  0  0
   -1.0094    1.0791    1.6587 H   0  0  0  0  0  0  0  0  0  0  0  0
   -4.0334   -0.6208   -0.9206 H   0  0  0  0  0  0  0  0  0  0  0  0
   -1.9858    3.3069    1.3168 H   0  0  0  0  0  0  0  0  0  0  0  0
   -5.0036    1.5905   -1.2435 H   0  0  0  0  0  0  0  0  0  0  0  0
    3.0300    1.3356   -1.7646 H   0  0  0  0  0  0  0  0  0  0  0  0
    2.2817   -0.9313    1.8359 H   0  0  0  0  0  0  0  0  0  0  0  0
    4.5709   -0.5118    2.5759 H   0  0  0  0  0  0  0  0  0  0  0  0
    6.1096    0.8424    1.1996 H   0  0  0  0  0  0  0  0  0  0  0  0
    6.3320    2.5136   -0.5824 H   0  0  0  0  0  0  0  0  0  0  0  0
    6.1126    1.3667   -1.9239 H   0  0  0  0  0  0  0  0  0  0  0  0
    5.0415    2.7778   -1.7509 H   0  0  0  0  0  0  0  0  0  0  0  0
  1 17  1  0  0  0  0
  2 10  2  0  0  0  0
  3 13  2  0  0  0  0
  4  6  1  0  0  0  0
  4  7  1  0  0  0  0
  4 26  1  0  0  0  0
  5  8  1  0  0  0  0
  5 13  1  0  0  0  0
  5 27  1  0  0  0  0
  6 10  1  0  0  0  0
  6 28  1  0  0  0  0
  7  8  1  0  0  0  0
  7  9  1  0  0  0  0
  7 24  1  0  0  0  0
  8 10  1  0  0  0  0
  8 25  1  0  0  0  0
  9 11  2  0  0  0  0
  9 12  1  0  0  0  0
 11 15  1  0  0  0  0
 11 29  1  0  0  0  0
 12 16  2  0  0  0  0
 12 30  1  0  0  0  0
 13 14  1  0  0  0  0
 14 18  1  0  0  0  0
 14 19  2  0  0  0  0
 15 17  2  0  0  0  0
 15 31  1  0  0  0  0
 16 17  1  0  0  0  0
 16 32  1  0  0  0  0
 18 20  2  0  0  0  0
 18 33  1  0  0  0  0
 19 21  1  0  0  0  0
 19 34  1  0  0  0  0
 20 22  1  0  0  0  0
 20 23  1  0  0  0  0
 21 22  2  0  0  0  0
 21 35  1  0  0  0  0
 22 36  1  0  0  0  0
 23 37  1  0  0  0  0
 23 38  1  0  0  0  0
 23 39  1  0  0  0  0
M  END
> <PUBCHEM_COMPOUND_CID>
2937733

> <PUBCHEM_CONFORMER_RMSD>
0.8

> <PUBCHEM_CONFORMER_DIVERSEORDER>
1
30
9
63
57
46
55
71
23
44
21
19
73
25
60
70
75
53
66
45
61
11
17
5
51
40
39
77
12
62
31
52
58
74
20
7
18
41
26
16
49
47
22
48
14
13
54
42
50
65
10
68
59
3
67
78
6
34
27
56
43
28
69
4
64
38
15
35
32
24
2
37
76
8
36
29
72
33

> <PUBCHEM_MMFF94_PARTIAL_CHARGES>
34
1 -0.18
10 0.57
11 -0.15
12 -0.15
13 0.54
14 0.09
15 -0.15
16 -0.15
17 0.18
18 -0.15
19 -0.15
2 -0.57
20 -0.14
21 -0.15
22 -0.15
23 0.14
26 0.36
27 0.37
28 0.37
29 0.15
3 -0.57
30 0.15
31 0.15
32 0.15
33 0.15
34 0.15
35 0.15
36 0.15
4 -0.64
5 -0.73
6 -0.42
7 0.41
8 0.36
9 -0.14

> <PUBCHEM_EFFECTIVE_ROTOR_COUNT>
4.8

> <PUBCHEM_PHARMACOPHORE_FEATURES>
8
1 2 acceptor
1 3 acceptor
1 4 donor
1 5 donor
1 6 donor
5 4 6 7 8 10 rings
6 14 18 19 20 21 22 rings
6 9 11 12 15 16 17 rings

> <PUBCHEM_HEAVY_ATOM_COUNT>
23

> <PUBCHEM_ATOM_DEF_STEREO_COUNT>
0

> <PUBCHEM_ATOM_UDEF_STEREO_COUNT>
2

> <PUBCHEM_BOND_DEF_STEREO_COUNT>
0

> <PUBCHEM_BOND_UDEF_STEREO_COUNT>
0

> <PUBCHEM_ISOTOPIC_ATOM_COUNT>
0

> <PUBCHEM_COMPONENT_COUNT>
1

> <PUBCHEM_CACTVS_TAUTO_COUNT>
6

> <PUBCHEM_CONFORMER_ID>
002CD38500000001

> <PUBCHEM_MMFF94_ENERGY>
60.5295

> <PUBCHEM_FEATURE_SELFOVERLAP>
42.094

> <PUBCHEM_SHAPE_FINGERPRINT>
10411042 1 17762622093758469927
10615611 76 17532675574975061852
11056379 131 18266750262584560750
11370993 70 18339918195640914473
11725454 13 17489006202771213346
12107183 9 18117547441212759538
12173636 292 18413100671472805030
12596602 18 17458063785192104025
12788726 201 18118401975831800466
13583140 156 17703782674386052202
13965767 371 17896884252925511412
14251764 75 17982741774987636001
14294032 229 18342463647391393337
14508225 48 17623842827248948415
14739800 52 18267850865667176768
14767858 380 18268971182157979077
15163728 17 18269000786534450593
16752209 62 18269261521072020818
16988056 13 17039786167098967549
17818456 19 18338507544208894234
20510252 161 18271535293990906219
20511986 3 17822556300895005096
20715895 44 17830163611473726725
21033650 10 18118429417237002484
212916 134 18270101436243878600
22149856 69 17977975418673782225
23559900 14 17984698922658347234
341906 21 18341325661072488344
469060 322 18267886011283586107
474 4 18122061992864270521
5104073 3 17895184554832504384
57124632 79 18050285860765274537
6034566 193 18338535044579464217
6327066 14 18335138657266132597
7064713 232 18336256856428254440
7808743 9 18410015459479114072
84936 182 17840864080003766129
90316 7 18051980508805358611
9849439 229 18192721046735484629
9981440 41 18338795620323752003

> <PUBCHEM_SHAPE_MULTIPOLES>
448.52
10.56
4.38
1.16
9.8
2.12
-0.15
-10.52
0.05
-5.66
0.84
1.03
-0.19
-0.69

> <PUBCHEM_SHAPE_SELFOVERLAP>
962.788

> <PUBCHEM_SHAPE_VOLUME>
248.8

> <PUBCHEM_COORDINATE_TYPE>
2
5
10

$$$$
