1095028
  -OEChem-01171811493D

 30 32  0     0  0  0  0  0  0999 V2000
   -1.8955    2.4445   -0.3199 O   0  0  0  0  0  0  0  0  0  0  0  0
    1.5290   -0.2569    0.0669 N   0  0  0  0  0  0  0  0  0  0  0  0
   -0.6315    1.8861   -0.2351 N   0  0  0  0  0  0  0  0  0  0  0  0
   -2.8902    1.4890   -0.2024 N   0  0  0  0  0  0  0  0  0  0  0  0
   -4.1648   -1.2576    0.1491 N   0  0  0  0  0  0  0  0  0  0  0  0
    2.0805    1.0149    0.5483 C   0  0  0  0  0  0  0  0  0  0  0  0
    2.3019   -0.9521   -0.9722 C   0  0  0  0  0  0  0  0  0  0  0  0
    3.5331    0.8384    0.9880 C   0  0  0  0  0  0  0  0  0  0  0  0
    3.7520   -1.1350   -0.5299 C   0  0  0  0  0  0  0  0  0  0  0  0
    4.3753    0.1885   -0.1027 C   0  0  0  0  0  0  0  0  0  0  0  0
    0.1430   -0.4554    0.0810 C   0  0  0  0  0  0  0  0  0  0  0  0
   -0.8222    0.5722   -0.0632 C   0  0  0  0  0  0  0  0  0  0  0  0
   -0.4307   -1.7396    0.2455 C   0  0  0  0  0  0  0  0  0  0  0  0
   -2.2580    0.3196   -0.0424 C   0  0  0  0  0  0  0  0  0  0  0  0
   -1.8287   -1.9855    0.2658 C   0  0  0  0  0  0  0  0  0  0  0  0
   -2.7930   -0.9711    0.1233 C   0  0  0  0  0  0  0  0  0  0  0  0
    1.5142    1.3856    1.4114 H   0  0  0  0  0  0  0  0  0  0  0  0
    2.0331    1.7688   -0.2469 H   0  0  0  0  0  0  0  0  0  0  0  0
    2.2620   -0.3698   -1.9014 H   0  0  0  0  0  0  0  0  0  0  0  0
    1.8861   -1.9416   -1.1947 H   0  0  0  0  0  0  0  0  0  0  0  0
    3.5664    0.2126    1.8890 H   0  0  0  0  0  0  0  0  0  0  0  0
    3.9588    1.8113    1.2575 H   0  0  0  0  0  0  0  0  0  0  0  0
    4.3353   -1.5741   -1.3468 H   0  0  0  0  0  0  0  0  0  0  0  0
    3.7907   -1.8407    0.3096 H   0  0  0  0  0  0  0  0  0  0  0  0
    4.4483    0.8608   -0.9661 H   0  0  0  0  0  0  0  0  0  0  0  0
    5.3937    0.0195    0.2638 H   0  0  0  0  0  0  0  0  0  0  0  0
    0.2270   -2.5993    0.3776 H   0  0  0  0  0  0  0  0  0  0  0  0
   -2.1590   -3.0154    0.4012 H   0  0  0  0  0  0  0  0  0  0  0  0
   -4.4772   -2.0914    0.6307 H   0  0  0  0  0  0  0  0  0  0  0  0
   -4.8197   -0.4925    0.0455 H   0  0  0  0  0  0  0  0  0  0  0  0
  1  3  1  0  0  0  0
  1  4  1  0  0  0  0
  2  6  1  0  0  0  0
  2  7  1  0  0  0  0
  2 11  1  0  0  0  0
  3 12  2  0  0  0  0
  4 14  2  0  0  0  0
  5 16  1  0  0  0  0
  5 29  1  0  0  0  0
  5 30  1  0  0  0  0
  6  8  1  0  0  0  0
  6 17  1  0  0  0  0
  6 18  1  0  0  0  0
  7  9  1  0  0  0  0
  7 19  1  0  0  0  0
  7 20  1  0  0  0  0
  8 10  1  0  0  0  0
  8 21  1  0  0  0  0
  8 22  1  0  0  0  0
  9 10  1  0  0  0  0
  9 23  1  0  0  0  0
  9 24  1  0  0  0  0
 10 25  1  0  0  0  0
 10 26  1  0  0  0  0
 11 12  1  0  0  0  0
 11 13  2  0  0  0  0
 12 14  1  0  0  0  0
 13 15  1  0  0  0  0
 13 27  1  0  0  0  0
 14 16  1  0  0  0  0
 15 16  2  0  0  0  0
 15 28  1  0  0  0  0
M  END
> <PUBCHEM_COMPOUND_CID>
1095028

> <PUBCHEM_CONFORMER_RMSD>
0.6

> <PUBCHEM_CONFORMER_DIVERSEORDER>
1
4
5
3
2

> <PUBCHEM_MMFF94_PARTIAL_CHARGES>
17
1 0.24
11 0.1
12 0.29
13 -0.15
14 0.29
15 -0.15
16 0.1
2 -0.84
27 0.15
28 0.15
29 0.4
3 -0.41
30 0.4
4 -0.41
5 -0.9
6 0.37
7 0.37

> <PUBCHEM_EFFECTIVE_ROTOR_COUNT>
2.2

> <PUBCHEM_PHARMACOPHORE_FEATURES>
8
1 2 cation
1 3 acceptor
1 4 acceptor
1 5 cation
1 5 donor
5 1 3 4 12 14 rings
6 11 12 13 14 15 16 rings
6 2 6 7 8 9 10 rings

> <PUBCHEM_HEAVY_ATOM_COUNT>
16

> <PUBCHEM_ATOM_DEF_STEREO_COUNT>
0

> <PUBCHEM_ATOM_UDEF_STEREO_COUNT>
0

> <PUBCHEM_BOND_DEF_STEREO_COUNT>
0

> <PUBCHEM_BOND_UDEF_STEREO_COUNT>
0

> <PUBCHEM_ISOTOPIC_ATOM_COUNT>
0

> <PUBCHEM_COMPONENT_COUNT>
1

> <PUBCHEM_CACTVS_TAUTO_COUNT>
2

> <PUBCHEM_CONFORMER_ID>
0010B57400000001

> <PUBCHEM_MMFF94_ENERGY>
52.4132

> <PUBCHEM_FEATURE_SELFOVERLAP>
40.769

> <PUBCHEM_SHAPE_FINGERPRINT>
10608611 8 18342172276346075400
10922523 26 18343865507020071438
11132069 177 18411980282235622593
12032990 46 18336833094999777771
12173636 292 18336824169841329309
12236239 1 17095238142429047474
13140716 1 18047761678542028763
13581323 91 18334293188795447630
14115302 16 17314232331203622835
14614273 12 18040987394002827615
15196674 1 18411700980306602762
15219456 202 18201718453310893746
15653759 3 18411419510046878642
15775835 57 18115871806476131000
16945 1 18334018319325600403
17357779 13 18266722736249450167
17804303 29 18411986827998007174
17844478 74 18413111679568689810
18186145 218 18129388115964742026
19049666 15 18271248192849526730
19141452 34 18059016202402524183
200 152 17275381006120678207
20201158 50 18202004317770814574
20510252 161 18413389825988139257
20871998 184 18343022202944651983
21029758 11 18341607166171732177
21249577 43 18413387639881264808
21501502 16 18263922133667234018
22182937 141 18129106610802610561
22802520 49 18200036135821691038
23402539 116 18340477963182117503
23557571 272 18342186569970700500
23559900 14 18341331073095161094
2748010 2 18411135822972151981
4028521 119 18335974299071773615
43471831 8 18187078412726862083
474 4 16444768257801899244
5104073 3 18412544284719886762
6333449 129 18411135814276683301
69090 78 18130785698054387383
7364860 26 18123192561284999916
77492 1 17022903449901589970
81228 2 18334304175163554985
8809292 202 18340210691741063898
9709674 26 18413112749380147630

> <PUBCHEM_SHAPE_MULTIPOLES>
303.48
7.12
2.1
0.78
3.26
0.49
0.01
-0.76
0.12
-1.38
-0.1
0.44
-0.02
0.88

> <PUBCHEM_SHAPE_SELFOVERLAP>
649.701

> <PUBCHEM_SHAPE_VOLUME>
168.7

> <PUBCHEM_COORDINATE_TYPE>
2
5
10

$$$$
