606590
  -OEChem-01171811383D

 20 21  0     0  0  0  0  0  0999 V2000
    4.8867    0.1681   -0.0177 Cl  0  0  0  0  0  0  0  0  0  0  0  0
   -4.3450    0.8906   -0.2473 O   0  0  0  0  0  0  0  0  0  0  0  0
   -1.7619   -1.2514    0.3545 N   0  0  0  0  0  0  0  0  0  0  0  0
   -3.0983   -1.0110    0.3411 N   0  0  0  0  0  0  0  0  0  0  0  0
   -1.0875   -0.1099    0.0015 C   0  0  0  0  0  0  0  0  0  0  0  0
    0.3810   -0.0413   -0.0043 C   0  0  0  0  0  0  0  0  0  0  0  0
   -1.9444    0.8800   -0.3033 C   0  0  0  0  0  0  0  0  0  0  0  0
    1.0238    1.1654    0.2716 C   0  0  0  0  0  0  0  0  0  0  0  0
    1.1315   -1.1833   -0.2838 C   0  0  0  0  0  0  0  0  0  0  0  0
   -3.2958    0.2929   -0.0807 C   0  0  0  0  0  0  0  0  0  0  0  0
    2.4171    1.2303    0.2678 C   0  0  0  0  0  0  0  0  0  0  0  0
    2.5249   -1.1185   -0.2875 C   0  0  0  0  0  0  0  0  0  0  0  0
    3.1677    0.0883   -0.0117 C   0  0  0  0  0  0  0  0  0  0  0  0
   -1.3560   -1.9820    0.9225 H   0  0  0  0  0  0  0  0  0  0  0  0
   -1.7541    1.8913   -0.6171 H   0  0  0  0  0  0  0  0  0  0  0  0
    0.4655    2.0691    0.5022 H   0  0  0  0  0  0  0  0  0  0  0  0
    0.6560   -2.1345   -0.5098 H   0  0  0  0  0  0  0  0  0  0  0  0
   -3.7661   -1.7298    0.5858 H   0  0  0  0  0  0  0  0  0  0  0  0
    2.9048    2.1769    0.4863 H   0  0  0  0  0  0  0  0  0  0  0  0
    3.0971   -2.0159   -0.5088 H   0  0  0  0  0  0  0  0  0  0  0  0
  1 13  1  0  0  0  0
  2 10  2  0  0  0  0
  3  4  1  0  0  0  0
  3  5  1  0  0  0  0
  3 14  1  0  0  0  0
  4 10  1  0  0  0  0
  4 18  1  0  0  0  0
  5  6  1  0  0  0  0
  5  7  2  0  0  0  0
  6  8  2  0  0  0  0
  6  9  1  0  0  0  0
  7 10  1  0  0  0  0
  7 15  1  0  0  0  0
  8 11  1  0  0  0  0
  8 16  1  0  0  0  0
  9 12  2  0  0  0  0
  9 17  1  0  0  0  0
 11 13  2  0  0  0  0
 11 19  1  0  0  0  0
 12 13  1  0  0  0  0
 12 20  1  0  0  0  0
M  END
> <PUBCHEM_COMPOUND_CID>
606590

> <PUBCHEM_CONFORMER_RMSD>
0.4

> <PUBCHEM_CONFORMER_DIVERSEORDER>
1
3
2

> <PUBCHEM_MMFF94_PARTIAL_CHARGES>
20
1 -0.18
10 0.62
11 -0.15
12 -0.15
13 0.18
14 0.4
15 0.15
16 0.15
17 0.15
18 0.37
19 0.15
2 -0.57
20 0.15
3 -0.52
4 -0.41
5 0.07
6 0.03
7 -0.14
8 -0.15
9 -0.15

> <PUBCHEM_EFFECTIVE_ROTOR_COUNT>
1

> <PUBCHEM_PHARMACOPHORE_FEATURES>
5
1 2 acceptor
1 3 donor
1 4 donor
5 3 4 5 7 10 rings
6 6 8 9 11 12 13 rings

> <PUBCHEM_HEAVY_ATOM_COUNT>
13

> <PUBCHEM_ATOM_DEF_STEREO_COUNT>
0

> <PUBCHEM_ATOM_UDEF_STEREO_COUNT>
0

> <PUBCHEM_BOND_DEF_STEREO_COUNT>
0

> <PUBCHEM_BOND_UDEF_STEREO_COUNT>
0

> <PUBCHEM_ISOTOPIC_ATOM_COUNT>
0

> <PUBCHEM_COMPONENT_COUNT>
1

> <PUBCHEM_CACTVS_TAUTO_COUNT>
5

> <PUBCHEM_CONFORMER_ID>
0009417E00000001

> <PUBCHEM_MMFF94_ENERGY>
43.2452

> <PUBCHEM_FEATURE_SELFOVERLAP>
26.977

> <PUBCHEM_SHAPE_FINGERPRINT>
10219947 1 17561085791452689358
10608611 8 18410289233294470433
11062470 55 18410855442958848622
11401426 45 18202278113493433152
11471102 20 18342736295561535716
12032990 46 18342464733728131278
124424 183 18408882936373452784
12500047 106 18333446551804339827
12932764 1 16660912361659157677
13380535 76 18411418405855622863
13760787 19 17894914040380087562
13922767 16 18272929444917938520
14144814 61 18341615888654075185
14325111 11 18411136978070454137
14993402 34 16630522938341163260
15219456 202 18411139159966536115
15375358 24 18413388726476446134
15775835 57 17894910711157824099
16945 1 18273501177973757546
18175812 5 18336264630065411116
18186145 218 18337675217747927983
18522853 276 18344145878011079328
200 152 17775560949140718973
20201158 50 18412827966824528930
20279233 1 18410579482778376207
20645477 56 18259983747947367605
20645477 70 18129943364746922686
22485316 2 18334855013467502426
23402539 116 18187355541153743389
23402655 69 18272362019650968293
23559900 14 18409450250741997798
3312278 4 18413111662283377666
4072396 5 18340471276255426874
5104073 3 18410574010937112642
528886 8 18341889697409619994
53812653 166 18410290307125621114
69090 78 18413101767290865207
7364860 26 18264766554518936426
8809292 202 18261397788134822258

> <PUBCHEM_SHAPE_MULTIPOLES>
253.57
7.83
1.33
0.65
0.24
0.08
0.01
-0.89
0.22
0.04
-0.03
0.02
0
0.4

> <PUBCHEM_SHAPE_SELFOVERLAP>
541.406

> <PUBCHEM_SHAPE_VOLUME>
142.2

> <PUBCHEM_COORDINATE_TYPE>
2
5
10

$$$$
