24792863
  -OEChem-01171812083D

 59 61  0     1  0  0  0  0  0999 V2000
    2.9968   -1.8041   -2.1038 Cl  0  0  0  0  0  0  0  0  0  0  0  0
   -3.4499    1.7147    1.0014 S   0  0  0  0  0  0  0  0  0  0  0  0
    2.5953    3.0481   -2.2295 O   0  0  0  0  0  0  0  0  0  0  0  0
   -3.5981    1.5142    2.4371 O   0  0  0  0  0  0  0  0  0  0  0  0
   -4.1531    2.8167    0.3587 O   0  0  0  0  0  0  0  0  0  0  0  0
   -1.6792   -0.6860   -2.8486 O   0  0  0  0  0  0  0  0  0  0  0  0
   -1.3962   -3.3864    1.4664 O   0  0  0  0  0  0  0  0  0  0  0  0
    3.2407   -3.3971    0.4354 O   0  0  0  0  0  0  0  0  0  0  0  0
    2.3548    2.1516   -0.0908 N   0  0  0  0  0  0  0  0  0  0  0  0
   -3.8633    0.2625    0.2011 N   0  0  0  0  0  0  0  0  0  0  0  0
   -1.9618   -1.8852   -0.8496 N   0  0  0  0  0  0  0  0  0  0  0  0
    2.8932    1.5942    1.1859 C   0  0  2  0  0  0  0  0  0  0  0  0
    1.7143    0.8603    1.8591 C   0  0  0  0  0  0  0  0  0  0  0  0
    0.5410    1.4567    1.1489 C   0  0  0  0  0  0  0  0  0  0  0  0
    0.9422    2.1538    0.0058 C   0  0  0  0  0  0  0  0  0  0  0  0
    3.4155    2.7093    2.0991 C   0  0  0  0  0  0  0  0  0  0  0  0
   -0.7987    1.3062    1.4720 C   0  0  0  0  0  0  0  0  0  0  0  0
   -0.0006    2.7137   -0.8436 C   0  0  0  0  0  0  0  0  0  0  0  0
   -1.7512    1.8784    0.6298 C   0  0  0  0  0  0  0  0  0  0  0  0
    3.0781    2.5933   -1.1909 C   0  0  0  0  0  0  0  0  0  0  0  0
   -1.3545    2.5753   -0.5203 C   0  0  0  0  0  0  0  0  0  0  0  0
    4.5793    2.4704   -1.0833 C   0  0  0  0  0  0  0  0  0  0  0  0
   -4.3338    0.3016   -1.1908 C   0  0  0  0  0  0  0  0  0  0  0  0
   -3.8921   -0.9558   -1.9267 C   0  0  0  0  0  0  0  0  0  0  0  0
   -2.3799   -1.1486   -1.9546 C   0  0  0  0  0  0  0  0  0  0  0  0
   -0.6409   -2.2713   -0.5196 C   0  0  0  0  0  0  0  0  0  0  0  0
   -0.3842   -3.0144    0.6326 C   0  0  0  0  0  0  0  0  0  0  0  0
    0.4094   -1.9015   -1.3594 C   0  0  0  0  0  0  0  0  0  0  0  0
    0.9231   -3.3879    0.9449 C   0  0  0  0  0  0  0  0  0  0  0  0
    1.7167   -2.2748   -1.0471 C   0  0  0  0  0  0  0  0  0  0  0  0
    1.9735   -3.0180    0.1050 C   0  0  0  0  0  0  0  0  0  0  0  0
   -1.7281   -2.4879    2.5228 C   0  0  0  0  0  0  0  0  0  0  0  0
    3.9918   -2.5020    1.2523 C   0  0  0  0  0  0  0  0  0  0  0  0
    3.7070    0.8936    0.9765 H   0  0  0  0  0  0  0  0  0  0  0  0
    1.7568   -0.2122    1.6443 H   0  0  0  0  0  0  0  0  0  0  0  0
    1.6725    1.0128    2.9415 H   0  0  0  0  0  0  0  0  0  0  0  0
    2.6350    3.4465    2.3186 H   0  0  0  0  0  0  0  0  0  0  0  0
    4.2513    3.2477    1.6470 H   0  0  0  0  0  0  0  0  0  0  0  0
    3.7667    2.2935    3.0495 H   0  0  0  0  0  0  0  0  0  0  0  0
   -1.0822    0.7429    2.3546 H   0  0  0  0  0  0  0  0  0  0  0  0
    0.2685    3.2636   -1.7368 H   0  0  0  0  0  0  0  0  0  0  0  0
   -2.0907    3.0160   -1.1875 H   0  0  0  0  0  0  0  0  0  0  0  0
    5.0224    2.6326   -2.0714 H   0  0  0  0  0  0  0  0  0  0  0  0
    4.9737    3.2318   -0.4086 H   0  0  0  0  0  0  0  0  0  0  0  0
    4.8747    1.4727   -0.7528 H   0  0  0  0  0  0  0  0  0  0  0  0
   -4.1652   -0.5418    0.7647 H   0  0  0  0  0  0  0  0  0  0  0  0
   -3.9260    1.1766   -1.7068 H   0  0  0  0  0  0  0  0  0  0  0  0
   -5.4259    0.3742   -1.1955 H   0  0  0  0  0  0  0  0  0  0  0  0
   -4.2382   -0.9134   -2.9663 H   0  0  0  0  0  0  0  0  0  0  0  0
   -4.3655   -1.8398   -1.4814 H   0  0  0  0  0  0  0  0  0  0  0  0
   -2.6723   -2.1922   -0.1892 H   0  0  0  0  0  0  0  0  0  0  0  0
    0.2790   -1.3256   -2.2642 H   0  0  0  0  0  0  0  0  0  0  0  0
    1.1226   -3.9684    1.8424 H   0  0  0  0  0  0  0  0  0  0  0  0
   -2.4732   -2.9708    3.1609 H   0  0  0  0  0  0  0  0  0  0  0  0
   -2.1596   -1.5671    2.1208 H   0  0  0  0  0  0  0  0  0  0  0  0
   -0.8463   -2.2563    3.1289 H   0  0  0  0  0  0  0  0  0  0  0  0
    4.1570   -1.5515    0.7372 H   0  0  0  0  0  0  0  0  0  0  0  0
    3.4808   -2.3283    2.2048 H   0  0  0  0  0  0  0  0  0  0  0  0
    4.9634   -2.9597    1.4570 H   0  0  0  0  0  0  0  0  0  0  0  0
  1 30  1  0  0  0  0
  2  4  2  0  0  0  0
  2  5  2  0  0  0  0
  2 10  1  0  0  0  0
  2 19  1  0  0  0  0
  3 20  2  0  0  0  0
  6 25  2  0  0  0  0
  7 27  1  0  0  0  0
  7 32  1  0  0  0  0
  8 31  1  0  0  0  0
  8 33  1  0  0  0  0
  9 12  1  0  0  0  0
  9 15  1  0  0  0  0
  9 20  1  0  0  0  0
 10 23  1  0  0  0  0
 10 46  1  0  0  0  0
 11 25  1  0  0  0  0
 11 26  1  0  0  0  0
 11 51  1  0  0  0  0
 12 13  1  0  0  0  0
 12 16  1  0  0  0  0
 12 34  1  0  0  0  0
 13 14  1  0  0  0  0
 13 35  1  0  0  0  0
 13 36  1  0  0  0  0
 14 15  2  0  0  0  0
 14 17  1  0  0  0  0
 15 18  1  0  0  0  0
 16 37  1  0  0  0  0
 16 38  1  0  0  0  0
 16 39  1  0  0  0  0
 17 19  2  0  0  0  0
 17 40  1  0  0  0  0
 18 21  2  0  0  0  0
 18 41  1  0  0  0  0
 19 21  1  0  0  0  0
 20 22  1  0  0  0  0
 21 42  1  0  0  0  0
 22 43  1  0  0  0  0
 22 44  1  0  0  0  0
 22 45  1  0  0  0  0
 23 24  1  0  0  0  0
 23 47  1  0  0  0  0
 23 48  1  0  0  0  0
 24 25  1  0  0  0  0
 24 49  1  0  0  0  0
 24 50  1  0  0  0  0
 26 27  1  0  0  0  0
 26 28  2  0  0  0  0
 27 29  2  0  0  0  0
 28 30  1  0  0  0  0
 28 52  1  0  0  0  0
 29 31  1  0  0  0  0
 29 53  1  0  0  0  0
 30 31  2  0  0  0  0
 32 54  1  0  0  0  0
 32 55  1  0  0  0  0
 32 56  1  0  0  0  0
 33 57  1  0  0  0  0
 33 58  1  0  0  0  0
 33 59  1  0  0  0  0
M  END
> <PUBCHEM_COMPOUND_CID>
24792863

> <PUBCHEM_CONFORMER_RMSD>
1.2

> <PUBCHEM_CONFORMER_DIVERSEORDER>
1
117
222
5
221
215
2
160
105
94
73
93
56
190
14
178
218
227
23
112
16
25
171
90
10
134
185
98
223
207
181
131
170
129
15
83
101
174
165
18
120
135
216
32
84
124
45
39
36
58
79
55
211
166
187
82
48
17
41
164
12
159
141
161
49
163
157
66
148
162
130
21
153
37
198
52
111
228
155
114
152
193
209
19
217
201
88
91
189
95
115
147
150
146
128
232
27
121
132
104
133
54
113
125
13
169
140
167
184
206
50
183
208
197
118
3
22
210
63
144
127
71
4
92
109
233
100
224
77
213
29
107
212
51
172
175
192
194
76
86
202
123
72
47
136
6
30
119
26
203
87
149
64
99
68
60
226
24
61
156
35
177
8
126
188
96
62
85
70
81
43
154
116
7
225
28
67
57
145
103
234
220
182
204
40
108
80
75
219
139
97
34
59
200
151
168
42
11
158
46
205
179
214
74
65
176
137
138
78
9
199
89
102
191
44
229
122
53
142
186
195
110
230
33
38
231
31
173
69
20
143
196
180
106

> <PUBCHEM_MMFF94_PARTIAL_CHARGES>
39
1 -0.18
10 -0.91
11 -0.55
12 0.3
13 0.14
14 -0.14
15 0.12
17 -0.15
18 -0.15
19 -0.01
2 1.45
20 0.57
21 -0.15
22 0.06
23 0.36
24 0.06
25 0.57
26 0.12
27 0.08
28 -0.15
29 -0.15
3 -0.57
30 0.18
31 0.08
32 0.28
33 0.28
4 -0.65
40 0.15
41 0.15
42 0.15
46 0.42
5 -0.65
51 0.37
52 0.15
53 0.15
6 -0.57
7 -0.36
8 -0.36
9 -0.48

> <PUBCHEM_EFFECTIVE_ROTOR_COUNT>
10.6

> <PUBCHEM_PHARMACOPHORE_FEATURES>
11
1 10 donor
1 11 donor
1 3 acceptor
1 4 acceptor
1 5 acceptor
1 6 acceptor
1 7 acceptor
1 8 acceptor
5 9 12 13 14 15 rings
6 14 15 17 18 19 21 rings
6 26 27 28 29 30 31 rings

> <PUBCHEM_HEAVY_ATOM_COUNT>
33

> <PUBCHEM_ATOM_DEF_STEREO_COUNT>
0

> <PUBCHEM_ATOM_UDEF_STEREO_COUNT>
1

> <PUBCHEM_BOND_DEF_STEREO_COUNT>
0

> <PUBCHEM_BOND_UDEF_STEREO_COUNT>
0

> <PUBCHEM_ISOTOPIC_ATOM_COUNT>
0

> <PUBCHEM_COMPONENT_COUNT>
1

> <PUBCHEM_CACTVS_TAUTO_COUNT>
2

> <PUBCHEM_CONFORMER_ID>
017A4F1F00000001

> <PUBCHEM_MMFF94_ENERGY>
98.8357

> <PUBCHEM_FEATURE_SELFOVERLAP>
55.929

> <PUBCHEM_SHAPE_FINGERPRINT>
10032420 55 17755306669030083695
11578080 2 18041859413766156767
12156800 1 17105992581603374983
12422481 6 17983263012091266418
12788726 201 17770214178598375969
133893 2 18337096878958359805
14251757 5 17182232842453976996
14955137 171 17413055113943148563
17492 54 17977130992714033462
18336668 15 18198327477894030978
20691752 17 18261671463682680863
20764821 26 18335427897422096090
20905425 154 18060126678875487783
25265897 201 13341001886145984812
3027735 51 18129104604899382371
338550 245 18340477872655384169
35225 105 17755857868301480467
392239 28 17909818839475447658
469060 322 17902492818794599730
70251023 43 14676514459503753517

> <PUBCHEM_SHAPE_MULTIPOLES>
634.68
7.3
5.52
2.54
1.33
1.93
-0.13
-3.17
-0.82
-3.3
0.8
0.27
0.21
-1.07

> <PUBCHEM_SHAPE_SELFOVERLAP>
1320.363

> <PUBCHEM_SHAPE_VOLUME>
365.1

> <PUBCHEM_COORDINATE_TYPE>
2
5
10

$$$$
