1296368
  -OEChem-01171811433D

 50 54  0     0  0  0  0  0  0999 V2000
   -1.1976   -2.4721   -1.4751 S   0  0  0  0  0  0  0  0  0  0  0  0
    1.8328    2.4094   -1.6135 S   0  0  0  0  0  0  0  0  0  0  0  0
   -0.2249    3.8376    0.0806 O   0  0  0  0  0  0  0  0  0  0  0  0
   -1.9765   -3.6184   -1.9049 O   0  0  0  0  0  0  0  0  0  0  0  0
    0.2220   -2.4156   -1.7667 O   0  0  0  0  0  0  0  0  0  0  0  0
   -1.9720   -1.0377   -2.0234 N   0  0  0  0  0  0  0  0  0  0  0  0
    3.0204   -0.3661   -1.4381 N   0  0  0  0  0  0  0  0  0  0  0  0
   -2.4309    0.9797   -0.6579 C   0  0  0  0  0  0  0  0  0  0  0  0
   -1.5679    0.2184   -1.4628 C   0  0  0  0  0  0  0  0  0  0  0  0
   -1.9775    2.2123   -0.1303 C   0  0  0  0  0  0  0  0  0  0  0  0
    0.1692    1.8778   -1.2250 C   0  0  0  0  0  0  0  0  0  0  0  0
   -0.6747    2.6471   -0.4233 C   0  0  0  0  0  0  0  0  0  0  0  0
   -0.2766    0.6658   -1.7437 C   0  0  0  0  0  0  0  0  0  0  0  0
   -3.7337    0.5448   -0.3647 C   0  0  0  0  0  0  0  0  0  0  0  0
   -2.8404    2.9735    0.6748 C   0  0  0  0  0  0  0  0  0  0  0  0
   -1.3942   -2.3475    0.2794 C   0  0  0  0  0  0  0  0  0  0  0  0
   -4.5774    1.3140    0.4371 C   0  0  0  0  0  0  0  0  0  0  0  0
    2.6497    1.6406   -0.2259 C   0  0  0  0  0  0  0  0  0  0  0  0
   -4.1317    2.5261    0.9557 C   0  0  0  0  0  0  0  0  0  0  0  0
    3.1517    0.3365   -0.2969 C   0  0  0  0  0  0  0  0  0  0  0  0
    3.7856   -0.2043    0.8413 C   0  0  0  0  0  0  0  0  0  0  0  0
   -2.5176   -2.8950    0.8721 C   0  0  0  0  0  0  0  0  0  0  0  0
   -0.4207   -1.7044    1.0222 C   0  0  0  0  0  0  0  0  0  0  0  0
    2.7746    2.3924    0.9523 C   0  0  0  0  0  0  0  0  0  0  0  0
    3.9053    0.5575    2.0160 C   0  0  0  0  0  0  0  0  0  0  0  0
    3.4000    1.8534    2.0696 C   0  0  0  0  0  0  0  0  0  0  0  0
    4.2852   -1.5111    0.7599 C   0  0  0  0  0  0  0  0  0  0  0  0
   -2.6726   -2.7961    2.2547 C   0  0  0  0  0  0  0  0  0  0  0  0
   -0.5759   -1.6056    2.4049 C   0  0  0  0  0  0  0  0  0  0  0  0
   -1.7017   -2.1515    3.0213 C   0  0  0  0  0  0  0  0  0  0  0  0
    4.1514   -2.2374   -0.4146 C   0  0  0  0  0  0  0  0  0  0  0  0
    3.5163   -1.6240   -1.4753 C   0  0  0  0  0  0  0  0  0  0  0  0
    0.3697    0.0826   -2.3948 H   0  0  0  0  0  0  0  0  0  0  0  0
   -2.9560   -1.1169   -2.3060 H   0  0  0  0  0  0  0  0  0  0  0  0
   -4.1271   -0.3963   -0.7392 H   0  0  0  0  0  0  0  0  0  0  0  0
   -2.5515    3.9341    1.0922 H   0  0  0  0  0  0  0  0  0  0  0  0
   -5.5825    0.9660    0.6574 H   0  0  0  0  0  0  0  0  0  0  0  0
   -4.7907    3.1256    1.5771 H   0  0  0  0  0  0  0  0  0  0  0  0
   -3.2887   -3.3922    0.2923 H   0  0  0  0  0  0  0  0  0  0  0  0
    0.4638   -1.2754    0.5634 H   0  0  0  0  0  0  0  0  0  0  0  0
    2.3929    3.4089    1.0120 H   0  0  0  0  0  0  0  0  0  0  0  0
    4.3932    0.1451    2.8964 H   0  0  0  0  0  0  0  0  0  0  0  0
   -0.5895    3.9762    0.9694 H   0  0  0  0  0  0  0  0  0  0  0  0
    3.4957    2.4392    2.9787 H   0  0  0  0  0  0  0  0  0  0  0  0
    4.7812   -1.9703    1.6120 H   0  0  0  0  0  0  0  0  0  0  0  0
   -3.5506   -3.2186    2.7345 H   0  0  0  0  0  0  0  0  0  0  0  0
    0.1803   -1.1031    3.0011 H   0  0  0  0  0  0  0  0  0  0  0  0
   -1.8230   -2.0736    4.0977 H   0  0  0  0  0  0  0  0  0  0  0  0
    4.5310   -3.2492   -0.4948 H   0  0  0  0  0  0  0  0  0  0  0  0
    3.3818   -2.1431   -2.4186 H   0  0  0  0  0  0  0  0  0  0  0  0
  1  4  2  0  0  0  0
  1  5  2  0  0  0  0
  1  6  1  0  0  0  0
  1 16  1  0  0  0  0
  2 11  1  0  0  0  0
  2 18  1  0  0  0  0
  3 12  1  0  0  0  0
  3 43  1  0  0  0  0
  6  9  1  0  0  0  0
  6 34  1  0  0  0  0
  7 20  1  0  0  0  0
  7 32  2  0  0  0  0
  8  9  1  0  0  0  0
  8 10  1  0  0  0  0
  8 14  2  0  0  0  0
  9 13  2  0  0  0  0
 10 12  1  0  0  0  0
 10 15  2  0  0  0  0
 11 12  2  0  0  0  0
 11 13  1  0  0  0  0
 13 33  1  0  0  0  0
 14 17  1  0  0  0  0
 14 35  1  0  0  0  0
 15 19  1  0  0  0  0
 15 36  1  0  0  0  0
 16 22  2  0  0  0  0
 16 23  1  0  0  0  0
 17 19  2  0  0  0  0
 17 37  1  0  0  0  0
 18 20  1  0  0  0  0
 18 24  2  0  0  0  0
 19 38  1  0  0  0  0
 20 21  2  0  0  0  0
 21 25  1  0  0  0  0
 21 27  1  0  0  0  0
 22 28  1  0  0  0  0
 22 39  1  0  0  0  0
 23 29  2  0  0  0  0
 23 40  1  0  0  0  0
 24 26  1  0  0  0  0
 24 41  1  0  0  0  0
 25 26  2  0  0  0  0
 25 42  1  0  0  0  0
 26 44  1  0  0  0  0
 27 31  2  0  0  0  0
 27 45  1  0  0  0  0
 28 30  2  0  0  0  0
 28 46  1  0  0  0  0
 29 30  1  0  0  0  0
 29 47  1  0  0  0  0
 30 48  1  0  0  0  0
 31 32  1  0  0  0  0
 31 49  1  0  0  0  0
 32 50  1  0  0  0  0
M  END
> <PUBCHEM_COMPOUND_CID>
1296368

> <PUBCHEM_CONFORMER_RMSD>
0.8

> <PUBCHEM_CONFORMER_DIVERSEORDER>
1
142
178
140
216
97
191
213
238
180
160
33
6
197
60
195
24
192
224
172
194
138
49
250
141
187
31
115
231
96
230
252
135
228
182
79
208
237
201
168
75
255
151
162
3
146
128
206
176
263
100
93
232
212
267
256
102
159
122
269
221
109
72
14
190
113
17
124
210
81
52
112
158
209
144
111
94
222
219
133
114
188
259
157
129
270
150
64
161
265
169
262
149
226
184
152
218
73
253
164
215
25
76
98
90
241
242
251
245
41
148
177
268
92
189
99
2
249
84
86
163
18
243
20
154
254
123
185
85
74
236
8
261
193
83
126
71
105
87
181
11
200
106
12
155
61
205
136
77
58
15
16
234
47
145
207
214
153
43
229
175
239
260
30
198
63
95
32
134
225
78
88
244
257
167
39
66
199
62
204
22
7
120
34
29
68
48
4
240
217
80
82
50
174
10
139
264
121
127
19
248
179
147
143
101
271
233
69
156
220
65
51
9
131
196
5
26
110
89
13
170
37
202
44
235
125
223
45
67
203
117
57
21
42
227
173
36
211
38
103
35
119
266
171
91
247
70
107
165
116
56
130
55
53
59
166
23
132
258
28
54
46
104
40
186
108
137
118
246
27
183

> <PUBCHEM_MMFF94_PARTIAL_CHARGES>
47
1 1.45
11 0.1
12 0.08
13 -0.15
14 -0.15
15 -0.15
16 -0.01
17 -0.15
18 0.1
19 -0.15
2 -0.2
20 0.31
22 -0.15
23 -0.15
24 -0.15
25 -0.15
26 -0.15
27 -0.15
28 -0.15
29 -0.15
3 -0.53
30 -0.15
31 -0.15
32 0.16
33 0.15
34 0.42
35 0.15
36 0.15
37 0.15
38 0.15
39 0.15
4 -0.65
40 0.15
41 0.15
42 0.15
43 0.45
44 0.15
45 0.15
46 0.15
47 0.15
48 0.15
49 0.15
5 -0.65
50 0.15
6 -0.76
7 -0.62
9 0.2

> <PUBCHEM_EFFECTIVE_ROTOR_COUNT>
5

> <PUBCHEM_PHARMACOPHORE_FEATURES>
10
1 3 donor
1 4 acceptor
1 5 acceptor
1 6 donor
1 7 acceptor
6 16 22 23 28 29 30 rings
6 18 20 21 24 25 26 rings
6 7 20 21 27 31 32 rings
6 8 10 14 15 17 19 rings
6 8 9 10 11 12 13 rings

> <PUBCHEM_HEAVY_ATOM_COUNT>
32

> <PUBCHEM_ATOM_DEF_STEREO_COUNT>
0

> <PUBCHEM_ATOM_UDEF_STEREO_COUNT>
0

> <PUBCHEM_BOND_DEF_STEREO_COUNT>
0

> <PUBCHEM_BOND_UDEF_STEREO_COUNT>
0

> <PUBCHEM_ISOTOPIC_ATOM_COUNT>
0

> <PUBCHEM_COMPONENT_COUNT>
1

> <PUBCHEM_CACTVS_TAUTO_COUNT>
3

> <PUBCHEM_CONFORMER_ID>
0013C7F000000001

> <PUBCHEM_MMFF94_ENERGY>
94.7589

> <PUBCHEM_FEATURE_SELFOVERLAP>
50.824

> <PUBCHEM_SHAPE_FINGERPRINT>
10816530 23 17987502866287757160
11578080 2 17845931956639658568
12156800 1 15731291640063268770
12788726 201 17973174112390392609
131258 38 16593689471000003707
13140716 1 18409448107025413390
13692114 37 18341619188244259691
14725015 67 18192708938805062329
17974551 9 18342173362677668608
19930381 70 17626103044691494710
20764821 26 18113619001977949370
21792965 302 16734412580068431662
2818148 4 17240490191105281282
3493558 16 13754990858528727817
35225 105 17531256014868076787
392239 28 18116733819798429091
469060 322 17624967627285044450
5081480 168 16772142231454897284
5309563 4 17254005658342666619
57527585 103 17677321839698659114

> <PUBCHEM_SHAPE_MULTIPOLES>
638.67
7.82
4.72
2.5
3.6
0.32
-0.64
-0.73
-2.26
-2.66
-0.43
0.02
1.55
0.79

> <PUBCHEM_SHAPE_SELFOVERLAP>
1405.563

> <PUBCHEM_SHAPE_VOLUME>
344.5

> <PUBCHEM_COORDINATE_TYPE>
2
5
10

$$$$
