2572639
  -OEChem-01171812043D

 40 41  0     0  0  0  0  0  0999 V2000
   -0.6638    1.6570    1.3498 O   0  0  0  0  0  0  0  0  0  0  0  0
   -1.7529   -3.0369   -0.2930 O   0  0  0  0  0  0  0  0  0  0  0  0
    4.1031    1.0866    0.2607 O   0  0  0  0  0  0  0  0  0  0  0  0
    3.4794   -1.4342    1.0757 O   0  0  0  0  0  0  0  0  0  0  0  0
   -0.9035   -1.0378    0.5995 N   0  0  0  0  0  0  0  0  0  0  0  0
    1.9033   -1.6742   -0.5789 N   0  0  0  0  0  0  0  0  0  0  0  0
    0.3989   -3.0414    0.7974 C   0  0  0  0  0  0  0  0  0  0  0  0
    1.5347   -3.0159   -0.2159 C   0  0  0  0  0  0  0  0  0  0  0  0
   -1.9185   -0.0981    0.3001 C   0  0  0  0  0  0  0  0  0  0  0  0
   -0.8861   -2.3954    0.2914 C   0  0  0  0  0  0  0  0  0  0  0  0
   -1.7714    1.2255    0.6826 C   0  0  0  0  0  0  0  0  0  0  0  0
   -3.0471   -0.5310   -0.3780 C   0  0  0  0  0  0  0  0  0  0  0  0
   -4.0550    0.3842   -0.6814 C   0  0  0  0  0  0  0  0  0  0  0  0
   -2.7795    2.1407    0.3790 C   0  0  0  0  0  0  0  0  0  0  0  0
   -3.9213    1.7200   -0.3028 C   0  0  0  0  0  0  0  0  0  0  0  0
   -5.2759   -0.0654   -1.4101 C   0  0  0  0  0  0  0  0  0  0  0  0
    2.8796   -0.9534    0.1124 C   0  0  0  0  0  0  0  0  0  0  0  0
    3.1683    0.3939   -0.3991 C   0  0  0  0  0  0  0  0  0  0  0  0
    2.6363    1.0564   -1.4417 C   0  0  0  0  0  0  0  0  0  0  0  0
   -0.6142    3.0394    1.6961 C   0  0  0  0  0  0  0  0  0  0  0  0
    3.3017    2.3054   -1.4492 C   0  0  0  0  0  0  0  0  0  0  0  0
    4.1840    2.2745   -0.3945 C   0  0  0  0  0  0  0  0  0  0  0  0
    0.1618   -4.0813    1.0527 H   0  0  0  0  0  0  0  0  0  0  0  0
    0.7095   -2.5581    1.7320 H   0  0  0  0  0  0  0  0  0  0  0  0
    1.2287   -3.5206   -1.1386 H   0  0  0  0  0  0  0  0  0  0  0  0
    2.4073   -3.5422    0.1852 H   0  0  0  0  0  0  0  0  0  0  0  0
   -0.0991   -0.6527    1.0900 H   0  0  0  0  0  0  0  0  0  0  0  0
   -3.2180   -1.5460   -0.7037 H   0  0  0  0  0  0  0  0  0  0  0  0
    1.4220   -1.2557   -1.3682 H   0  0  0  0  0  0  0  0  0  0  0  0
   -2.7463    3.1929    0.6397 H   0  0  0  0  0  0  0  0  0  0  0  0
   -4.6986    2.4436   -0.5342 H   0  0  0  0  0  0  0  0  0  0  0  0
   -5.6865   -0.9709   -0.9506 H   0  0  0  0  0  0  0  0  0  0  0  0
   -6.0643    0.6946   -1.3892 H   0  0  0  0  0  0  0  0  0  0  0  0
   -5.0338   -0.2753   -2.4568 H   0  0  0  0  0  0  0  0  0  0  0  0
    1.8715    0.7302   -2.1314 H   0  0  0  0  0  0  0  0  0  0  0  0
    3.1561    3.1259   -2.1369 H   0  0  0  0  0  0  0  0  0  0  0  0
   -1.4133    3.3105    2.3945 H   0  0  0  0  0  0  0  0  0  0  0  0
   -0.6006    3.6786    0.8067 H   0  0  0  0  0  0  0  0  0  0  0  0
    0.3334    3.2055    2.2190 H   0  0  0  0  0  0  0  0  0  0  0  0
    4.9004    2.9792    0.0020 H   0  0  0  0  0  0  0  0  0  0  0  0
  1 11  1  0  0  0  0
  1 20  1  0  0  0  0
  2 10  2  0  0  0  0
  3 18  1  0  0  0  0
  3 22  1  0  0  0  0
  4 17  2  0  0  0  0
  5  9  1  0  0  0  0
  5 10  1  0  0  0  0
  5 27  1  0  0  0  0
  6  8  1  0  0  0  0
  6 17  1  0  0  0  0
  6 29  1  0  0  0  0
  7  8  1  0  0  0  0
  7 10  1  0  0  0  0
  7 23  1  0  0  0  0
  7 24  1  0  0  0  0
  8 25  1  0  0  0  0
  8 26  1  0  0  0  0
  9 11  2  0  0  0  0
  9 12  1  0  0  0  0
 11 14  1  0  0  0  0
 12 13  2  0  0  0  0
 12 28  1  0  0  0  0
 13 15  1  0  0  0  0
 13 16  1  0  0  0  0
 14 15  2  0  0  0  0
 14 30  1  0  0  0  0
 15 31  1  0  0  0  0
 16 32  1  0  0  0  0
 16 33  1  0  0  0  0
 16 34  1  0  0  0  0
 17 18  1  0  0  0  0
 18 19  2  0  0  0  0
 19 21  1  0  0  0  0
 19 35  1  0  0  0  0
 20 37  1  0  0  0  0
 20 38  1  0  0  0  0
 20 39  1  0  0  0  0
 21 22  2  0  0  0  0
 21 36  1  0  0  0  0
 22 40  1  0  0  0  0
M  END
> <PUBCHEM_COMPOUND_CID>
2572639

> <PUBCHEM_CONFORMER_RMSD>
0.8

> <PUBCHEM_CONFORMER_DIVERSEORDER>
11
49
40
230
240
104
169
65
121
16
137
167
50
196
229
45
8
90
250
82
101
243
182
199
52
219
213
98
64
46
17
216
176
88
114
149
233
96
39
175
59
43
18
160
164
7
116
253
20
91
172
132
22
72
134
184
26
212
5
110
128
208
241
125
206
99
141
119
246
261
222
34
154
135
249
81
259
133
57
27
139
138
126
48
24
109
232
242
87
236
256
227
221
231
228
41
150
106
183
54
153
28
29
66
10
36
61
37
258
209
197
247
226
195
181
42
205
75
152
142
3
163
12
235
78
2
217
69
178
9
159
203
115
94
244
89
168
127
255
1
158
148
254
136
252
220
25
30
245
177
145
77
58
248
224
189
56
102
21
13
144
44
251
86
192
95
85
193
124
143
6
129
67
35
200
201
76
33
38
225
171
162
93
179
68
239
15
198
53
107
4
260
207
140
113
237
151
218
14
223
105
108
155
71
117
210
204
234
130
187
31
257
83
188
191
79
60
62
185
84
55
118
122
123
73
23
147
32
156
238
161
215
214
170
100
120
63
131
174
157
111
180
97
211
166
51
92
190
202
70
146
186
80
19
112
47
165
173
103
74
194

> <PUBCHEM_MMFF94_PARTIAL_CHARGES>
30
1 -0.36
10 0.57
11 0.08
12 -0.15
13 -0.14
14 -0.15
15 -0.15
16 0.14
17 0.71
18 0.05
19 -0.15
2 -0.57
20 0.28
21 -0.15
22 -0.01
27 0.37
28 0.15
29 0.37
3 -0.28
30 0.15
31 0.15
35 0.15
36 0.15
4 -0.57
40 0.15
5 -0.55
6 -0.73
7 0.06
8 0.3
9 0.12

> <PUBCHEM_EFFECTIVE_ROTOR_COUNT>
8

> <PUBCHEM_PHARMACOPHORE_FEATURES>
8
1 1 acceptor
1 2 acceptor
1 3 acceptor
1 4 acceptor
1 5 donor
1 6 donor
5 3 18 19 21 22 rings
6 9 11 12 13 14 15 rings

> <PUBCHEM_HEAVY_ATOM_COUNT>
22

> <PUBCHEM_ATOM_DEF_STEREO_COUNT>
0

> <PUBCHEM_ATOM_UDEF_STEREO_COUNT>
0

> <PUBCHEM_BOND_DEF_STEREO_COUNT>
0

> <PUBCHEM_BOND_UDEF_STEREO_COUNT>
0

> <PUBCHEM_ISOTOPIC_ATOM_COUNT>
0

> <PUBCHEM_COMPONENT_COUNT>
1

> <PUBCHEM_CACTVS_TAUTO_COUNT>
4

> <PUBCHEM_CONFORMER_ID>
0027415F0000000B

> <PUBCHEM_MMFF94_ENERGY>
53.1865

> <PUBCHEM_FEATURE_SELFOVERLAP>
40.604

> <PUBCHEM_SHAPE_FINGERPRINT>
10498660 4 18269562804690491052
10708813 3 17906740197942383804
11135609 187 18410289251023394689
11370993 70 18335137630736858396
11640471 11 18187090593575255926
12788726 201 17989216918937369361
13583140 156 17240767246397081563
13617811 41 18336812183448053261
14767858 380 18268133422822236519
14787075 74 18337109077109241423
14790565 3 18199194988796060201
14931854 50 18342176682550258405
192875 21 18337386029094453842
19930381 70 18261108522298712733
20642791 105 18046056327185428106
20715895 44 18117264870813926069
22749437 52 18409172086562300820
23558518 356 17911811171555528305
23559900 14 18056755434053481614
474 4 18261673679585475987
5048184 11 18261966244526480372
6034566 193 17971502781517795101
6669772 16 17840001255650333781
6786 2 13393065805840625467
9981440 41 18336263552319231850

> <PUBCHEM_SHAPE_MULTIPOLES>
419.31
8.8
3.99
1.29
1.44
1.63
0.02
-4.27
-3.46
-1.44
0.8
0.05
-0.72
-1.31

> <PUBCHEM_SHAPE_SELFOVERLAP>
885.31

> <PUBCHEM_SHAPE_VOLUME>
235.6

> <PUBCHEM_COORDINATE_TYPE>
2
5
10

$$$$
