2842914
  -OEChem-01171811393D

 42 43  0     1  0  0  0  0  0999 V2000
    3.9247    0.2740   -0.9899 O   0  0  0  0  0  0  0  0  0  0  0  0
   -4.1887    1.5643   -0.6004 O   0  0  0  0  0  0  0  0  0  0  0  0
   -2.4375   -2.8096    0.1667 O   0  0  0  0  0  0  0  0  0  0  0  0
    1.5206    0.3972    0.5337 N   0  0  0  0  0  0  0  0  0  0  0  0
    1.4974    0.4788   -0.9332 C   0  0  0  0  0  0  0  0  0  0  0  0
    2.7730    0.9783    1.0377 C   0  0  0  0  0  0  0  0  0  0  0  0
    2.7069   -0.2425   -1.5397 C   0  0  2  0  0  0  0  0  0  0  0  0
    3.9702    0.2314    0.4402 C   0  0  2  0  0  0  0  0  0  0  0  0
    0.3641    1.0819    1.1087 C   0  0  0  0  0  0  0  0  0  0  0  0
    2.6355   -1.7636   -1.4117 C   0  0  0  0  0  0  0  0  0  0  0  0
    5.2827    0.8718    0.8754 C   0  0  0  0  0  0  0  0  0  0  0  0
   -0.9340    0.4800    0.6404 C   0  0  0  0  0  0  0  0  0  0  0  0
   -1.0800   -0.8998    0.6220 C   0  0  0  0  0  0  0  0  0  0  0  0
   -1.9663    1.3138    0.2340 C   0  0  0  0  0  0  0  0  0  0  0  0
   -3.1692    0.7563   -0.1999 C   0  0  0  0  0  0  0  0  0  0  0  0
   -2.2828   -1.4575    0.1882 C   0  0  0  0  0  0  0  0  0  0  0  0
   -3.3274   -0.6295   -0.2227 C   0  0  0  0  0  0  0  0  0  0  0  0
   -3.9595    2.9717   -0.5509 C   0  0  0  0  0  0  0  0  0  0  0  0
   -1.3297   -3.5969    0.6011 C   0  0  0  0  0  0  0  0  0  0  0  0
    1.5248    1.5324   -1.2443 H   0  0  0  0  0  0  0  0  0  0  0  0
    0.5963    0.0360   -1.3699 H   0  0  0  0  0  0  0  0  0  0  0  0
    2.8103    0.8991    2.1309 H   0  0  0  0  0  0  0  0  0  0  0  0
    2.8276    2.0439    0.7765 H   0  0  0  0  0  0  0  0  0  0  0  0
    2.7399   -0.0074   -2.6101 H   0  0  0  0  0  0  0  0  0  0  0  0
    3.9771   -0.8135    0.7719 H   0  0  0  0  0  0  0  0  0  0  0  0
    0.3975    2.1538    0.8716 H   0  0  0  0  0  0  0  0  0  0  0  0
    0.3857    0.9978    2.2032 H   0  0  0  0  0  0  0  0  0  0  0  0
    2.5366   -2.0905   -0.3722 H   0  0  0  0  0  0  0  0  0  0  0  0
    1.7801   -2.1591   -1.9686 H   0  0  0  0  0  0  0  0  0  0  0  0
    3.5499   -2.2212   -1.8037 H   0  0  0  0  0  0  0  0  0  0  0  0
    6.1316    0.3357    0.4374 H   0  0  0  0  0  0  0  0  0  0  0  0
    5.3505    1.9073    0.5240 H   0  0  0  0  0  0  0  0  0  0  0  0
    5.3886    0.8622    1.9645 H   0  0  0  0  0  0  0  0  0  0  0  0
   -0.2480   -1.5027    0.9683 H   0  0  0  0  0  0  0  0  0  0  0  0
   -1.7903    2.3830    0.2736 H   0  0  0  0  0  0  0  0  0  0  0  0
   -4.2648   -1.0640   -0.5605 H   0  0  0  0  0  0  0  0  0  0  0  0
   -3.1541    3.2727   -1.2294 H   0  0  0  0  0  0  0  0  0  0  0  0
   -3.7899    3.3163    0.4749 H   0  0  0  0  0  0  0  0  0  0  0  0
   -4.8735    3.4602   -0.9043 H   0  0  0  0  0  0  0  0  0  0  0  0
   -0.4568   -3.4563   -0.0457 H   0  0  0  0  0  0  0  0  0  0  0  0
   -1.6259   -4.6473    0.5126 H   0  0  0  0  0  0  0  0  0  0  0  0
   -1.0985   -3.4188    1.6568 H   0  0  0  0  0  0  0  0  0  0  0  0
  1  7  1  0  0  0  0
  1  8  1  0  0  0  0
  2 15  1  0  0  0  0
  2 18  1  0  0  0  0
  3 16  1  0  0  0  0
  3 19  1  0  0  0  0
  4  5  1  0  0  0  0
  4  6  1  0  0  0  0
  4  9  1  0  0  0  0
  5  7  1  0  0  0  0
  5 20  1  0  0  0  0
  5 21  1  0  0  0  0
  6  8  1  0  0  0  0
  6 22  1  0  0  0  0
  6 23  1  0  0  0  0
  7 10  1  0  0  0  0
  7 24  1  0  0  0  0
  8 11  1  0  0  0  0
  8 25  1  0  0  0  0
  9 12  1  0  0  0  0
  9 26  1  0  0  0  0
  9 27  1  0  0  0  0
 10 28  1  0  0  0  0
 10 29  1  0  0  0  0
 10 30  1  0  0  0  0
 11 31  1  0  0  0  0
 11 32  1  0  0  0  0
 11 33  1  0  0  0  0
 12 13  2  0  0  0  0
 12 14  1  0  0  0  0
 13 16  1  0  0  0  0
 13 34  1  0  0  0  0
 14 15  2  0  0  0  0
 14 35  1  0  0  0  0
 15 17  1  0  0  0  0
 16 17  2  0  0  0  0
 17 36  1  0  0  0  0
 18 37  1  0  0  0  0
 18 38  1  0  0  0  0
 18 39  1  0  0  0  0
 19 40  1  0  0  0  0
 19 41  1  0  0  0  0
 19 42  1  0  0  0  0
M  END
> <PUBCHEM_COMPOUND_CID>
2842914

> <PUBCHEM_CONFORMER_RMSD>
0.8

> <PUBCHEM_CONFORMER_DIVERSEORDER>
1
11
12
13
7
8
10
5
9
14
4
3
6
2

> <PUBCHEM_MMFF94_PARTIAL_CHARGES>
20
1 -0.56
12 -0.14
13 -0.15
14 -0.15
15 0.08
16 0.08
17 -0.15
18 0.28
19 0.28
2 -0.36
3 -0.36
34 0.15
35 0.15
36 0.15
4 -0.81
5 0.27
6 0.27
7 0.28
8 0.28
9 0.41

> <PUBCHEM_EFFECTIVE_ROTOR_COUNT>
5.2

> <PUBCHEM_PHARMACOPHORE_FEATURES>
6
1 1 acceptor
1 2 acceptor
1 3 acceptor
1 4 cation
6 1 4 5 6 7 8 rings
6 12 13 14 15 16 17 rings

> <PUBCHEM_HEAVY_ATOM_COUNT>
19

> <PUBCHEM_ATOM_DEF_STEREO_COUNT>
0

> <PUBCHEM_ATOM_UDEF_STEREO_COUNT>
2

> <PUBCHEM_BOND_DEF_STEREO_COUNT>
0

> <PUBCHEM_BOND_UDEF_STEREO_COUNT>
0

> <PUBCHEM_ISOTOPIC_ATOM_COUNT>
0

> <PUBCHEM_COMPONENT_COUNT>
1

> <PUBCHEM_CACTVS_TAUTO_COUNT>
1

> <PUBCHEM_CONFORMER_ID>
002B612200000001

> <PUBCHEM_MMFF94_ENERGY>
65.2945

> <PUBCHEM_FEATURE_SELFOVERLAP>
30.446

> <PUBCHEM_SHAPE_FINGERPRINT>
10366900 7 17489583468056582000
11370993 70 18411698751287388622
11582403 64 16549110682352919905
11615757 297 14189575243399975248
12173636 292 18335699387069043309
12236239 1 17240477022302820225
12500047 106 18410290306951502172
12788726 201 17752504297607138003
13544592 145 18269562641312961532
14386348 63 17988649635276939234
15099037 37 18269271438414835698
15375358 24 18201997724874572464
15635459 17 17775018898345705750
16752209 62 18335127735512023107
167882 2 17974559205157817427
17834072 14 18201719548522292476
18186145 218 18271250400383764617
18222031 100 9078529509490866865
19433438 15 17603871117573672852
200 152 15841549665147914441
20279233 1 18202286909285814000
20645476 183 18186522094603280867
20645477 56 18410577279808540457
20645477 70 17060342885963590916
20871999 31 18411701002240635237
212916 134 18336816503293083073
23402539 116 18338785763041725084
23526113 38 17917987261270022347
23557571 272 18341048613716455872
23559900 14 18272091561613095956
2838139 119 16009572604884573965
298252 57 18114179688441414153
3472631 163 18187081754169187901
495365 180 17703214114703993702
559249 180 18188199919309045618
573450 72 18187070780938566664
633830 44 17985543356400226237
6438718 38 15866003869012299598
81228 2 18194123151915016915
9709674 26 18272937141283133070
9862522 239 17314494947211013621

> <PUBCHEM_SHAPE_MULTIPOLES>
368.42
8.82
2.92
1.23
5.05
2.19
0.26
-3.99
0.72
-3.82
-0.15
1.08
0.04
1.59

> <PUBCHEM_SHAPE_SELFOVERLAP>
758.015

> <PUBCHEM_SHAPE_VOLUME>
213.8

> <PUBCHEM_COORDINATE_TYPE>
2
5
10

$$$$
