2022572
  -OEChem-01171812023D

 36 38  0     0  0  0  0  0  0999 V2000
   -4.7375    0.3887    0.2474 O   0  0  0  0  0  0  0  0  0  0  0  0
    5.6936    1.7597   -1.0588 O   0  0  0  0  0  0  0  0  0  0  0  0
    0.6865    1.2073    0.1567 N   0  0  0  0  0  0  0  0  0  0  0  0
    3.5715    0.2578    0.0798 N   0  0  0  0  0  0  0  0  0  0  0  0
    0.1964   -2.2797    0.0940 N   0  0  0  0  0  0  0  0  0  0  0  0
    2.6037   -1.9305    0.0535 N   0  0  0  0  0  0  0  0  0  0  0  0
   -1.1076   -0.1291    0.1648 C   0  0  0  0  0  0  0  0  0  0  0  0
    1.1657   -0.0755    0.1207 C   0  0  0  0  0  0  0  0  0  0  0  0
   -0.6915    1.2046    0.1845 C   0  0  0  0  0  0  0  0  0  0  0  0
    0.0684   -0.9292    0.1245 C   0  0  0  0  0  0  0  0  0  0  0  0
    2.4502   -0.5893    0.0846 C   0  0  0  0  0  0  0  0  0  0  0  0
   -2.4891   -0.4085    0.1864 C   0  0  0  0  0  0  0  0  0  0  0  0
   -1.5925    2.2749    0.2252 C   0  0  0  0  0  0  0  0  0  0  0  0
   -3.4007    0.6525    0.2269 C   0  0  0  0  0  0  0  0  0  0  0  0
   -2.9570    1.9731    0.2461 C   0  0  0  0  0  0  0  0  0  0  0  0
    4.9188   -0.2289    0.0432 C   0  0  0  0  0  0  0  0  0  0  0  0
    1.4820   -2.6841    0.0602 C   0  0  0  0  0  0  0  0  0  0  0  0
    5.8934    0.9358    0.0829 C   0  0  0  0  0  0  0  0  0  0  0  0
   -5.1726   -0.8026   -0.4047 C   0  0  0  0  0  0  0  0  0  0  0  0
   -6.5819   -0.5970   -0.9179 C   0  0  0  0  0  0  0  0  0  0  0  0
    1.2585    2.0405    0.1626 H   0  0  0  0  0  0  0  0  0  0  0  0
   -2.8036   -1.4470    0.1989 H   0  0  0  0  0  0  0  0  0  0  0  0
   -1.2484    3.3036    0.2399 H   0  0  0  0  0  0  0  0  0  0  0  0
   -3.6776    2.7870    0.2774 H   0  0  0  0  0  0  0  0  0  0  0  0
    3.4041    1.2576    0.0970 H   0  0  0  0  0  0  0  0  0  0  0  0
    5.0742   -0.8004   -0.8795 H   0  0  0  0  0  0  0  0  0  0  0  0
    5.1109   -0.8892    0.8962 H   0  0  0  0  0  0  0  0  0  0  0  0
    1.6377   -3.7571    0.0348 H   0  0  0  0  0  0  0  0  0  0  0  0
    6.9245    0.5690    0.0703 H   0  0  0  0  0  0  0  0  0  0  0  0
    5.7443    1.5452    0.9805 H   0  0  0  0  0  0  0  0  0  0  0  0
   -4.5424   -1.0497   -1.2684 H   0  0  0  0  0  0  0  0  0  0  0  0
   -5.1570   -1.6318    0.3112 H   0  0  0  0  0  0  0  0  0  0  0  0
   -6.9526   -1.4973   -1.4161 H   0  0  0  0  0  0  0  0  0  0  0  0
   -7.2589   -0.3451   -0.0950 H   0  0  0  0  0  0  0  0  0  0  0  0
   -6.6169    0.2382   -1.6253 H   0  0  0  0  0  0  0  0  0  0  0  0
    6.3352    2.4880   -1.0003 H   0  0  0  0  0  0  0  0  0  0  0  0
  1 14  1  0  0  0  0
  1 19  1  0  0  0  0
  2 18  1  0  0  0  0
  2 36  1  0  0  0  0
  3  8  1  0  0  0  0
  3  9  1  0  0  0  0
  3 21  1  0  0  0  0
  4 11  1  0  0  0  0
  4 16  1  0  0  0  0
  4 25  1  0  0  0  0
  5 10  1  0  0  0  0
  5 17  2  0  0  0  0
  6 11  2  0  0  0  0
  6 17  1  0  0  0  0
  7  9  2  0  0  0  0
  7 10  1  0  0  0  0
  7 12  1  0  0  0  0
  8 10  2  0  0  0  0
  8 11  1  0  0  0  0
  9 13  1  0  0  0  0
 12 14  2  0  0  0  0
 12 22  1  0  0  0  0
 13 15  2  0  0  0  0
 13 23  1  0  0  0  0
 14 15  1  0  0  0  0
 15 24  1  0  0  0  0
 16 18  1  0  0  0  0
 16 26  1  0  0  0  0
 16 27  1  0  0  0  0
 17 28  1  0  0  0  0
 18 29  1  0  0  0  0
 18 30  1  0  0  0  0
 19 20  1  0  0  0  0
 19 31  1  0  0  0  0
 19 32  1  0  0  0  0
 20 33  1  0  0  0  0
 20 34  1  0  0  0  0
 20 35  1  0  0  0  0
M  END
> <PUBCHEM_COMPOUND_CID>
2022572

> <PUBCHEM_CONFORMER_RMSD>
0.8

> <PUBCHEM_CONFORMER_DIVERSEORDER>
1
13
14
4
5
11
7
10
3
6
8
9
12
2

> <PUBCHEM_MMFF94_PARTIAL_CHARGES>
25
1 -0.36
10 0.26
11 0.41
12 -0.15
13 -0.15
14 0.08
15 -0.15
16 0.37
17 0.47
18 0.28
19 0.28
2 -0.68
21 0.27
22 0.15
23 0.15
24 0.15
25 0.4
28 0.15
3 0.03
36 0.4
4 -0.87
5 -0.57
6 -0.62
8 -0.15
9 -0.15

> <PUBCHEM_EFFECTIVE_ROTOR_COUNT>
5

> <PUBCHEM_PHARMACOPHORE_FEATURES>
11
1 1 acceptor
1 2 acceptor
1 2 donor
1 3 cation
1 3 donor
1 4 donor
3 4 6 11 cation
3 5 6 17 cation
5 3 7 8 9 10 rings
6 5 6 8 10 11 17 rings
6 7 9 12 13 14 15 rings

> <PUBCHEM_HEAVY_ATOM_COUNT>
20

> <PUBCHEM_ATOM_DEF_STEREO_COUNT>
0

> <PUBCHEM_ATOM_UDEF_STEREO_COUNT>
0

> <PUBCHEM_BOND_DEF_STEREO_COUNT>
0

> <PUBCHEM_BOND_UDEF_STEREO_COUNT>
0

> <PUBCHEM_ISOTOPIC_ATOM_COUNT>
0

> <PUBCHEM_COMPONENT_COUNT>
1

> <PUBCHEM_CACTVS_TAUTO_COUNT>
5

> <PUBCHEM_CONFORMER_ID>
001EDCAC00000001

> <PUBCHEM_MMFF94_ENERGY>
48.705

> <PUBCHEM_FEATURE_SELFOVERLAP>
56.144

> <PUBCHEM_SHAPE_FINGERPRINT>
10090160 65 18260266347630438190
10366900 7 18342173379973089187
10447042 23 18337659842081928919
10670039 82 18262254226985494804
10906281 52 18335719225401631521
10968037 39 18411980278505047287
11089746 13 13479132415257221831
11578080 2 17315624106639038981
11806522 49 18411135814661766147
12236239 1 18060701671816973219
12390115 104 18058184850809529064
13533116 47 16805593725836518602
13583140 156 16515408494613436016
13862211 1 18411695478432716027
14528608 73 18411421704791179612
14576447 43 18271232898856257231
14767858 380 18340201989863016189
14787075 74 18412544309993713785
14790565 3 18411990169398758664
15131766 46 16083354413675401940
15196674 1 18339642213943115163
173720 79 18187353351448416322
17980427 23 18040726844117911053
18769570 83 14923936809266015149
200 152 18343294852401645125
20286276 3 17981332187931245231
21049683 271 18336266864182310101
21267235 1 18342741853861282799
21521721 280 18200598115006989385
22079108 93 18272923956129056304
23366157 5 17971481689407936938
23402539 116 18411976992095579623
23559900 14 17836639730428535162
2871803 45 18336824200396762259
335352 9 18409452497442092366
34797466 226 16630529578883199472
34934 24 18410570665611528651
350125 39 18411138056271425417
4325135 7 18412824694112132332
4340502 62 16732985323053323570
474 4 17749117720679559676
474229 33 18410293627019497658
5104073 3 18264774246672813441
5207 217 18334858354587970871
5486654 2 18412263968936023750
57003041 33 18334856121489761629
58051976 378 18410299107365963062
59755656 215 18411416224054311271
67856867 119 18191300486238503058
9709674 26 18265904557717348731

> <PUBCHEM_SHAPE_MULTIPOLES>
379.93
12.7
2.31
0.71
0.27
0.43
0.08
-1.95
3.27
0.68
-0.03
-0.07
-0.07
-0.92

> <PUBCHEM_SHAPE_SELFOVERLAP>
825.174

> <PUBCHEM_SHAPE_VOLUME>
206.1

> <PUBCHEM_COORDINATE_TYPE>
2
5
10

$$$$
