771515
  -OEChem-01171811393D

 28 30  0     0  0  0  0  0  0999 V2000
    2.6768    1.8715   -0.1864 O   0  0  0  0  0  0  0  0  0  0  0  0
    1.8233   -0.3424   -0.2430 N   0  0  0  0  0  0  0  0  0  0  0  0
   -3.6271   -1.4700    0.1023 N   0  0  0  0  0  0  0  0  0  0  0  0
   -0.3479    0.1974   -0.0524 C   0  0  0  0  0  0  0  0  0  0  0  0
    0.5173   -0.8556   -0.1736 C   0  0  0  0  0  0  0  0  0  0  0  0
    0.3425    1.3807   -0.0395 C   0  0  0  0  0  0  0  0  0  0  0  0
   -1.7308    0.0875    0.0450 C   0  0  0  0  0  0  0  0  0  0  0  0
    1.7789    1.0517   -0.1642 C   0  0  0  0  0  0  0  0  0  0  0  0
    3.0221   -1.1312   -0.3748 C   0  0  0  0  0  0  0  0  0  0  0  0
    0.0342   -2.1479   -0.2072 C   0  0  0  0  0  0  0  0  0  0  0  0
   -2.2383   -1.2279    0.0117 C   0  0  0  0  0  0  0  0  0  0  0  0
   -0.3250    2.5812    0.0759 C   0  0  0  0  0  0  0  0  0  0  0  0
   -2.4300    1.3076    0.1634 C   0  0  0  0  0  0  0  0  0  0  0  0
   -1.3576   -2.3271   -0.1132 C   0  0  0  0  0  0  0  0  0  0  0  0
   -1.7263    2.5352    0.1779 C   0  0  0  0  0  0  0  0  0  0  0  0
    3.5880   -1.5109    0.9780 C   0  0  0  0  0  0  0  0  0  0  0  0
    2.8163   -2.0213   -0.9783 H   0  0  0  0  0  0  0  0  0  0  0  0
    3.7658   -0.5323   -0.9128 H   0  0  0  0  0  0  0  0  0  0  0  0
    0.6902   -3.0057   -0.2999 H   0  0  0  0  0  0  0  0  0  0  0  0
    0.2009    3.5287    0.0884 H   0  0  0  0  0  0  0  0  0  0  0  0
   -3.5131    1.3300    0.2456 H   0  0  0  0  0  0  0  0  0  0  0  0
   -1.7546   -3.3403   -0.1376 H   0  0  0  0  0  0  0  0  0  0  0  0
   -2.2842    3.4642    0.2702 H   0  0  0  0  0  0  0  0  0  0  0  0
    3.8194   -0.6211    1.5731 H   0  0  0  0  0  0  0  0  0  0  0  0
    2.8761   -2.1165    1.5486 H   0  0  0  0  0  0  0  0  0  0  0  0
    4.5087   -2.0900    0.8576 H   0  0  0  0  0  0  0  0  0  0  0  0
   -4.2818   -0.7059    0.1915 H   0  0  0  0  0  0  0  0  0  0  0  0
   -3.9723   -2.4205    0.0761 H   0  0  0  0  0  0  0  0  0  0  0  0
  1  8  2  0  0  0  0
  2  5  1  0  0  0  0
  2  8  1  0  0  0  0
  2  9  1  0  0  0  0
  3 11  1  0  0  0  0
  3 27  1  0  0  0  0
  3 28  1  0  0  0  0
  4  5  2  0  0  0  0
  4  6  1  0  0  0  0
  4  7  1  0  0  0  0
  5 10  1  0  0  0  0
  6  8  1  0  0  0  0
  6 12  2  0  0  0  0
  7 11  2  0  0  0  0
  7 13  1  0  0  0  0
  9 16  1  0  0  0  0
  9 17  1  0  0  0  0
  9 18  1  0  0  0  0
 10 14  2  0  0  0  0
 10 19  1  0  0  0  0
 11 14  1  0  0  0  0
 12 15  1  0  0  0  0
 12 20  1  0  0  0  0
 13 15  2  0  0  0  0
 13 21  1  0  0  0  0
 14 22  1  0  0  0  0
 15 23  1  0  0  0  0
 16 24  1  0  0  0  0
 16 25  1  0  0  0  0
 16 26  1  0  0  0  0
M  END
> <PUBCHEM_COMPOUND_CID>
771515

> <PUBCHEM_CONFORMER_RMSD>
0.6

> <PUBCHEM_CONFORMER_DIVERSEORDER>
1

> <PUBCHEM_MMFF94_PARTIAL_CHARGES>
20
1 -0.57
10 -0.15
11 0.1
12 -0.15
13 -0.15
14 -0.15
15 -0.15
19 0.15
2 -0.48
20 0.15
21 0.15
22 0.15
23 0.15
27 0.4
28 0.4
3 -0.9
5 0.12
6 0.09
8 0.54
9 0.3

> <PUBCHEM_EFFECTIVE_ROTOR_COUNT>
1.2

> <PUBCHEM_PHARMACOPHORE_FEATURES>
6
1 1 acceptor
1 3 cation
1 3 donor
5 2 4 5 6 8 rings
6 4 5 7 10 11 14 rings
6 4 6 7 12 13 15 rings

> <PUBCHEM_HEAVY_ATOM_COUNT>
16

> <PUBCHEM_ATOM_DEF_STEREO_COUNT>
0

> <PUBCHEM_ATOM_UDEF_STEREO_COUNT>
0

> <PUBCHEM_BOND_DEF_STEREO_COUNT>
0

> <PUBCHEM_BOND_UDEF_STEREO_COUNT>
0

> <PUBCHEM_ISOTOPIC_ATOM_COUNT>
0

> <PUBCHEM_COMPONENT_COUNT>
1

> <PUBCHEM_CACTVS_TAUTO_COUNT>
3

> <PUBCHEM_CONFORMER_ID>
000BC5BB00000001

> <PUBCHEM_MMFF94_ENERGY>
63.4242

> <PUBCHEM_FEATURE_SELFOVERLAP>
30.68

> <PUBCHEM_SHAPE_FINGERPRINT>
10967382 1 18123191465772284223
11132069 177 18194116305362457490
11578080 2 17387105647490650892
12382932 28 18124311614770866610
12423570 1 12686465933692167385
13140716 1 18411421674388883105
13380535 76 18051126986986202863
14420673 8 17473529267369220962
14790565 3 17764334759555385460
15442244 35 18409446943316311146
16945 1 18195253204348326685
17804303 29 18269835329187731818
193761 8 18411140237998305980
19591789 44 17403187997363209711
20510252 161 18272088262508624250
20588541 1 18049726514030698205
20871998 184 18201154364816820319
21501502 16 18410860962197799148
23184049 29 18410570686954333826
2334 1 18411421751650736869
23402539 116 18270946952501814135
23463225 33 18409450301558619982
23559900 14 17911527502616057390
2748010 2 18411701001855454877
34934 24 18124872618914081695
352729 6 18267871588177016749
54173680 148 18338238163174617667
58807428 26 17689715259856907722
7364860 26 17981891057443922896

> <PUBCHEM_SHAPE_MULTIPOLES>
313.44
4.7
3.07
0.69
2.27
0.52
0.06
-1.35
0.68
-1.15
0.01
0.26
-0.07
-0.32

> <PUBCHEM_SHAPE_SELFOVERLAP>
706.728

> <PUBCHEM_SHAPE_VOLUME>
167.7

> <PUBCHEM_COORDINATE_TYPE>
2
5
10

$$$$
