900591
  -OEChem-01171811383D

 50 52  0     0  0  0  0  0  0999 V2000
   -2.5778    0.7515   -0.5198 N   0  0  0  0  0  0  0  0  0  0  0  0
   -0.4423   -1.0881   -0.3917 N   0  0  0  0  0  0  0  0  0  0  0  0
   -2.1582   -2.7655   -0.3767 N   0  0  0  0  0  0  0  0  0  0  0  0
    1.7013   -1.6360    0.3850 N   0  0  0  0  0  0  0  0  0  0  0  0
    0.0447   -3.2955    0.4134 N   0  0  0  0  0  0  0  0  0  0  0  0
   -1.6522   -4.9143    0.4142 N   0  0  0  0  0  0  0  0  0  0  0  0
   -2.1954    3.0354    1.3553 C   0  0  0  0  0  0  0  0  0  0  0  0
   -2.7313    3.8431    0.1759 C   0  0  0  0  0  0  0  0  0  0  0  0
   -3.1142    1.8736    1.7190 C   0  0  0  0  0  0  0  0  0  0  0  0
   -2.7101    3.1232   -1.1690 C   0  0  0  0  0  0  0  0  0  0  0  0
   -2.8841    0.5957    0.9061 C   0  0  0  0  0  0  0  0  0  0  0  0
   -3.3946    1.7540   -1.2056 C   0  0  0  0  0  0  0  0  0  0  0  0
   -2.6548   -0.5482   -1.1896 C   0  0  0  0  0  0  0  0  0  0  0  0
   -1.6837   -1.5366   -0.6115 C   0  0  0  0  0  0  0  0  0  0  0  0
    0.3697   -2.0253    0.1235 C   0  0  0  0  0  0  0  0  0  0  0  0
   -1.2351   -3.5940    0.1375 C   0  0  0  0  0  0  0  0  0  0  0  0
    2.3893   -0.4202    0.2140 C   0  0  0  0  0  0  0  0  0  0  0  0
    3.7619   -0.4016   -0.0479 C   0  0  0  0  0  0  0  0  0  0  0  0
    1.6875    0.7844    0.3087 C   0  0  0  0  0  0  0  0  0  0  0  0
    4.4276    0.8129   -0.2140 C   0  0  0  0  0  0  0  0  0  0  0  0
    3.7231    2.0130   -0.1189 C   0  0  0  0  0  0  0  0  0  0  0  0
    2.3531    1.9989    0.1424 C   0  0  0  0  0  0  0  0  0  0  0  0
    4.5411   -1.6722   -0.1540 C   0  0  0  0  0  0  0  0  0  0  0  0
    4.4346    3.3117   -0.2966 C   0  0  0  0  0  0  0  0  0  0  0  0
   -1.1738    2.6891    1.1626 H   0  0  0  0  0  0  0  0  0  0  0  0
   -2.1406    3.7094    2.2195 H   0  0  0  0  0  0  0  0  0  0  0  0
   -3.7567    4.1685    0.3926 H   0  0  0  0  0  0  0  0  0  0  0  0
   -2.1357    4.7597    0.0821 H   0  0  0  0  0  0  0  0  0  0  0  0
   -2.9627    1.6262    2.7776 H   0  0  0  0  0  0  0  0  0  0  0  0
   -4.1626    2.1853    1.6311 H   0  0  0  0  0  0  0  0  0  0  0  0
   -3.1987    3.7730   -1.9064 H   0  0  0  0  0  0  0  0  0  0  0  0
   -1.6696    3.0197   -1.5048 H   0  0  0  0  0  0  0  0  0  0  0  0
   -2.0533    0.0742    1.3967 H   0  0  0  0  0  0  0  0  0  0  0  0
   -3.7726   -0.0359    1.0447 H   0  0  0  0  0  0  0  0  0  0  0  0
   -4.4182    1.7988   -0.8139 H   0  0  0  0  0  0  0  0  0  0  0  0
   -3.4919    1.4965   -2.2688 H   0  0  0  0  0  0  0  0  0  0  0  0
   -2.3880   -0.4414   -2.2488 H   0  0  0  0  0  0  0  0  0  0  0  0
   -3.6761   -0.9496   -1.1533 H   0  0  0  0  0  0  0  0  0  0  0  0
    2.2772   -2.4207    0.6719 H   0  0  0  0  0  0  0  0  0  0  0  0
    0.6325    0.8262    0.5575 H   0  0  0  0  0  0  0  0  0  0  0  0
    5.4962    0.8298   -0.4151 H   0  0  0  0  0  0  0  0  0  0  0  0
    1.7953    2.9275    0.2308 H   0  0  0  0  0  0  0  0  0  0  0  0
    5.5764   -1.4893   -0.4622 H   0  0  0  0  0  0  0  0  0  0  0  0
    4.5730   -2.1831    0.8139 H   0  0  0  0  0  0  0  0  0  0  0  0
    4.0982   -2.3370   -0.9032 H   0  0  0  0  0  0  0  0  0  0  0  0
   -0.9912   -5.5734    0.8016 H   0  0  0  0  0  0  0  0  0  0  0  0
   -2.6069   -5.1844    0.2221 H   0  0  0  0  0  0  0  0  0  0  0  0
    3.7580    4.0871   -0.6717 H   0  0  0  0  0  0  0  0  0  0  0  0
    4.8523    3.6448    0.6587 H   0  0  0  0  0  0  0  0  0  0  0  0
    5.2484    3.2180   -1.0237 H   0  0  0  0  0  0  0  0  0  0  0  0
  1 11  1  0  0  0  0
  1 12  1  0  0  0  0
  1 13  1  0  0  0  0
  2 14  1  0  0  0  0
  2 15  2  0  0  0  0
  3 14  2  0  0  0  0
  3 16  1  0  0  0  0
  4 15  1  0  0  0  0
  4 17  1  0  0  0  0
  4 39  1  0  0  0  0
  5 15  1  0  0  0  0
  5 16  2  0  0  0  0
  6 16  1  0  0  0  0
  6 46  1  0  0  0  0
  6 47  1  0  0  0  0
  7  8  1  0  0  0  0
  7  9  1  0  0  0  0
  7 25  1  0  0  0  0
  7 26  1  0  0  0  0
  8 10  1  0  0  0  0
  8 27  1  0  0  0  0
  8 28  1  0  0  0  0
  9 11  1  0  0  0  0
  9 29  1  0  0  0  0
  9 30  1  0  0  0  0
 10 12  1  0  0  0  0
 10 31  1  0  0  0  0
 10 32  1  0  0  0  0
 11 33  1  0  0  0  0
 11 34  1  0  0  0  0
 12 35  1  0  0  0  0
 12 36  1  0  0  0  0
 13 14  1  0  0  0  0
 13 37  1  0  0  0  0
 13 38  1  0  0  0  0
 17 18  2  0  0  0  0
 17 19  1  0  0  0  0
 18 20  1  0  0  0  0
 18 23  1  0  0  0  0
 19 22  2  0  0  0  0
 19 40  1  0  0  0  0
 20 21  2  0  0  0  0
 20 41  1  0  0  0  0
 21 22  1  0  0  0  0
 21 24  1  0  0  0  0
 22 42  1  0  0  0  0
 23 43  1  0  0  0  0
 23 44  1  0  0  0  0
 23 45  1  0  0  0  0
 24 48  1  0  0  0  0
 24 49  1  0  0  0  0
 24 50  1  0  0  0  0
M  END
> <PUBCHEM_COMPOUND_CID>
900591

> <PUBCHEM_CONFORMER_RMSD>
0.8

> <PUBCHEM_CONFORMER_DIVERSEORDER>
1
243
42
136
221
24
107
205
193
167
53
64
128
118
232
141
51
241
173
113
93
218
148
181
187
176
54
216
30
138
163
207
41
237
214
90
180
140
110
130
177
164
147
116
132
235
4
203
239
96
63
125
202
215
226
69
244
209
131
17
231
206
99
233
156
55
79
135
139
234
200
92
9
94
106
72
238
179
183
137
228
165
191
120
169
40
150
168
35
182
57
161
133
2
212
12
174
111
8
190
152
34
129
194
22
225
242
160
151
32
175
31
33
3
195
127
66
134
162
75
126
189
60
46
204
153
88
220
102
211
236
28
145
47
219
199
56
227
48
61
124
103
121
122
26
230
142
157
73
185
37
52
119
10
18
217
23
172
89
29
213
68
81
36
197
146
188
87
123
27
178
45
112
91
229
192
198
67
74
38
223
82
159
78
98
101
76
155
166
11
39
7
149
184
154
59
222
13
158
114
196
20
50
104
224
117
44
109
240
71
85
115
77
84
21
108
86
25
49
208
100
170
245
105
210
16
171
201
62
43
186
80
14
143
70
97
58
15
95
144
83
65
5
6
19

> <PUBCHEM_MMFF94_PARTIAL_CHARGES>
26
1 -0.81
11 0.27
12 0.27
13 0.41
14 0.48
15 0.72
16 0.72
17 0.1
18 -0.14
19 -0.15
2 -0.62
20 -0.15
21 -0.14
22 -0.15
23 0.14
24 0.14
3 -0.62
39 0.4
4 -0.6
40 0.15
41 0.15
42 0.15
46 0.4
47 0.4
5 -0.62
6 -0.9

> <PUBCHEM_EFFECTIVE_ROTOR_COUNT>
5.4

> <PUBCHEM_PHARMACOPHORE_FEATURES>
8
1 1 cation
1 4 donor
1 6 donor
4 2 4 5 15 cation
4 3 5 6 16 cation
6 17 18 19 20 21 22 rings
6 2 3 5 14 15 16 rings
7 1 7 8 9 10 11 12 rings

> <PUBCHEM_HEAVY_ATOM_COUNT>
24

> <PUBCHEM_ATOM_DEF_STEREO_COUNT>
0

> <PUBCHEM_ATOM_UDEF_STEREO_COUNT>
0

> <PUBCHEM_BOND_DEF_STEREO_COUNT>
0

> <PUBCHEM_BOND_UDEF_STEREO_COUNT>
0

> <PUBCHEM_ISOTOPIC_ATOM_COUNT>
0

> <PUBCHEM_COMPONENT_COUNT>
1

> <PUBCHEM_CACTVS_TAUTO_COUNT>
9

> <PUBCHEM_CONFORMER_ID>
000DBDEF00000001

> <PUBCHEM_MMFF94_ENERGY>
72.1756

> <PUBCHEM_FEATURE_SELFOVERLAP>
40.641

> <PUBCHEM_SHAPE_FINGERPRINT>
10670039 82 17831311858570190804
1100329 8 18339642214518037272
11045515 52 17760364796354471123
11582403 64 16374346509216148093
12156800 1 15758591672030797233
12788726 201 18267567173848718767
12978246 48 18338233765312924608
13134695 92 16823621064924629343
13583140 156 17603585175619984704
138480 1 17185308743064051751
14251751 93 18409166571634453976
14466204 15 17976244747840288618
14713325 29 18268159836533340082
14790565 3 18121787123742374900
19591789 44 17834962962706614798
19930381 70 17976813195463339645
20510252 161 18120369019276700826
20621476 13 17471571023525383421
20739085 24 17832424194563539298
21049683 271 16820526540449810759
21864079 5 18336820914340521044
22182937 141 18339929306610597850
22440779 20 16957656295691490322
23559900 14 18343581846627940282
238 59 17322350880155111853
23845131 108 18263652775584465555
350125 39 18410579453008906827
474 4 18051406263187668721
5048184 11 18411982425245630736
5081480 168 16768470767980661668
7226269 152 17915734285358043130

> <PUBCHEM_SHAPE_MULTIPOLES>
464.02
8.39
5.87
1.1
7.46
3.37
-0.11
-6.52
0.64
-3.03
-0.5
-1.3
-0.62
-0.53

> <PUBCHEM_SHAPE_SELFOVERLAP>
973.56

> <PUBCHEM_SHAPE_VOLUME>
250.3

> <PUBCHEM_COORDINATE_TYPE>
2
5
10

$$$$
