651315
  -OEChem-01171812143D

 52 55  0     1  0  0  0  0  0999 V2000
   -1.2110   -1.5099   -0.3253 O   0  0  0  0  0  0  0  0  0  0  0  0
    0.8392   -0.5215    1.7197 O   0  0  0  0  0  0  0  0  0  0  0  0
    5.6173    1.7438    0.1598 O   0  0  0  0  0  0  0  0  0  0  0  0
   -1.9036    0.7577   -0.5462 N   0  0  0  0  0  0  0  0  0  0  0  0
   -1.4017    1.9654   -0.8764 N   0  0  0  0  0  0  0  0  0  0  0  0
   -0.4475   -3.7017   -0.2438 N   0  0  0  0  0  0  0  0  0  0  0  0
    3.0621   -3.6464   -1.1328 N   0  0  0  0  0  0  0  0  0  0  0  0
    1.4455   -0.4667   -1.0712 C   0  0  1  0  0  0  0  0  0  0  0  0
    0.2153    0.3549   -0.9354 C   0  0  0  0  0  0  0  0  0  0  0  0
   -0.9719   -0.2300   -0.5818 C   0  0  0  0  0  0  0  0  0  0  0  0
    2.3613    0.0874   -0.0291 C   0  0  0  0  0  0  0  0  0  0  0  0
   -0.1092    1.7112   -1.1208 C   0  0  0  0  0  0  0  0  0  0  0  0
    1.1260   -1.9514   -0.8190 C   0  0  0  0  0  0  0  0  0  0  0  0
   -0.1198   -2.3927   -0.4739 C   0  0  0  0  0  0  0  0  0  0  0  0
    2.0172    0.0352    1.3212 C   0  0  0  0  0  0  0  0  0  0  0  0
    3.5705    0.6614   -0.4201 C   0  0  0  0  0  0  0  0  0  0  0  0
   -3.2528    0.6189   -0.2266 C   0  0  0  0  0  0  0  0  0  0  0  0
    0.7817    2.8090   -1.5341 C   0  0  0  0  0  0  0  0  0  0  0  0
    4.4366    1.1839    0.5404 C   0  0  0  0  0  0  0  0  0  0  0  0
    2.8836    0.5576    2.2817 C   0  0  0  0  0  0  0  0  0  0  0  0
    4.0932    1.1320    1.8913 C   0  0  0  0  0  0  0  0  0  0  0  0
   -3.6498   -0.3768    0.6577 C   0  0  0  0  0  0  0  0  0  0  0  0
   -4.1855    1.4777   -0.7954 C   0  0  0  0  0  0  0  0  0  0  0  0
    2.1957   -2.8880   -0.9922 C   0  0  0  0  0  0  0  0  0  0  0  0
   -5.0002   -0.5159    0.9780 C   0  0  0  0  0  0  0  0  0  0  0  0
   -5.5360    1.3385   -0.4749 C   0  0  0  0  0  0  0  0  0  0  0  0
   -5.9433    0.3416    0.4117 C   0  0  0  0  0  0  0  0  0  0  0  0
    0.5685   -0.5323    3.1199 C   0  0  0  0  0  0  0  0  0  0  0  0
   -7.3870    0.1932    0.7548 C   0  0  0  0  0  0  0  0  0  0  0  0
    5.9058    1.7639   -1.2375 C   0  0  0  0  0  0  0  0  0  0  0  0
    1.8457   -0.3524   -2.0866 H   0  0  0  0  0  0  0  0  0  0  0  0
    3.7904    0.6771   -1.4823 H   0  0  0  0  0  0  0  0  0  0  0  0
    1.3297    3.2011   -0.6714 H   0  0  0  0  0  0  0  0  0  0  0  0
    1.5096    2.4656   -2.2762 H   0  0  0  0  0  0  0  0  0  0  0  0
    0.2202    3.6354   -1.9828 H   0  0  0  0  0  0  0  0  0  0  0  0
    2.6842    0.5529    3.3477 H   0  0  0  0  0  0  0  0  0  0  0  0
    4.7648    1.5377    2.6431 H   0  0  0  0  0  0  0  0  0  0  0  0
   -2.9523   -1.0338    1.1663 H   0  0  0  0  0  0  0  0  0  0  0  0
   -3.9002    2.2570   -1.4971 H   0  0  0  0  0  0  0  0  0  0  0  0
    0.2470   -4.4336   -0.3176 H   0  0  0  0  0  0  0  0  0  0  0  0
   -1.4015   -3.9284    0.0070 H   0  0  0  0  0  0  0  0  0  0  0  0
   -5.3043   -1.2876    1.6804 H   0  0  0  0  0  0  0  0  0  0  0  0
   -6.2617    2.0124   -0.9228 H   0  0  0  0  0  0  0  0  0  0  0  0
    1.2974   -1.1393    3.6675 H   0  0  0  0  0  0  0  0  0  0  0  0
   -0.4075   -1.0106    3.2537 H   0  0  0  0  0  0  0  0  0  0  0  0
    0.4819    0.4827    3.5221 H   0  0  0  0  0  0  0  0  0  0  0  0
   -8.0253    0.5007   -0.0805 H   0  0  0  0  0  0  0  0  0  0  0  0
   -7.6346   -0.8499    0.9796 H   0  0  0  0  0  0  0  0  0  0  0  0
   -7.6308    0.8075    1.6273 H   0  0  0  0  0  0  0  0  0  0  0  0
    5.1804    2.3711   -1.7898 H   0  0  0  0  0  0  0  0  0  0  0  0
    5.9966    0.7512   -1.6445 H   0  0  0  0  0  0  0  0  0  0  0  0
    6.8820    2.2450   -1.3585 H   0  0  0  0  0  0  0  0  0  0  0  0
  1 10  1  0  0  0  0
  1 14  1  0  0  0  0
  2 15  1  0  0  0  0
  2 28  1  0  0  0  0
  3 19  1  0  0  0  0
  3 30  1  0  0  0  0
  4  5  1  0  0  0  0
  4 10  1  0  0  0  0
  4 17  1  0  0  0  0
  5 12  2  0  0  0  0
  6 14  1  0  0  0  0
  6 40  1  0  0  0  0
  6 41  1  0  0  0  0
  7 24  3  0  0  0  0
  8  9  1  0  0  0  0
  8 11  1  0  0  0  0
  8 13  1  0  0  0  0
  8 31  1  0  0  0  0
  9 10  2  0  0  0  0
  9 12  1  0  0  0  0
 11 15  2  0  0  0  0
 11 16  1  0  0  0  0
 12 18  1  0  0  0  0
 13 14  2  0  0  0  0
 13 24  1  0  0  0  0
 15 20  1  0  0  0  0
 16 19  2  0  0  0  0
 16 32  1  0  0  0  0
 17 22  2  0  0  0  0
 17 23  1  0  0  0  0
 18 33  1  0  0  0  0
 18 34  1  0  0  0  0
 18 35  1  0  0  0  0
 19 21  1  0  0  0  0
 20 21  2  0  0  0  0
 20 36  1  0  0  0  0
 21 37  1  0  0  0  0
 22 25  1  0  0  0  0
 22 38  1  0  0  0  0
 23 26  2  0  0  0  0
 23 39  1  0  0  0  0
 25 27  2  0  0  0  0
 25 42  1  0  0  0  0
 26 27  1  0  0  0  0
 26 43  1  0  0  0  0
 27 29  1  0  0  0  0
 28 44  1  0  0  0  0
 28 45  1  0  0  0  0
 28 46  1  0  0  0  0
 29 47  1  0  0  0  0
 29 48  1  0  0  0  0
 29 49  1  0  0  0  0
 30 50  1  0  0  0  0
 30 51  1  0  0  0  0
 30 52  1  0  0  0  0
M  END
> <PUBCHEM_COMPOUND_CID>
651315

> <PUBCHEM_CONFORMER_RMSD>
0.8

> <PUBCHEM_CONFORMER_DIVERSEORDER>
2
3
8
4
5
7
6
1

> <PUBCHEM_MMFF94_PARTIAL_CHARGES>
39
1 -0.14
10 -0.09
11 -0.14
12 0.11
13 -0.07
14 0.18
15 0.08
16 -0.15
17 -0.02
18 0.18
19 0.08
2 -0.36
20 -0.15
21 -0.15
22 -0.15
23 -0.15
24 0.49
25 -0.15
26 -0.15
27 -0.14
28 0.28
29 0.14
3 -0.36
30 0.28
32 0.15
36 0.15
37 0.15
38 0.15
39 0.15
4 0.59
40 0.4
41 0.4
42 0.15
43 0.15
5 -0.71
6 -0.9
7 -0.56
8 0.46
9 -0.18

> <PUBCHEM_EFFECTIVE_ROTOR_COUNT>
4.4

> <PUBCHEM_PHARMACOPHORE_FEATURES>
11
1 1 acceptor
1 2 acceptor
1 3 acceptor
1 5 acceptor
1 6 cation
1 6 donor
1 7 acceptor
5 4 5 9 10 12 rings
6 1 8 9 10 13 14 rings
6 11 15 16 19 20 21 rings
6 17 22 23 25 26 27 rings

> <PUBCHEM_HEAVY_ATOM_COUNT>
30

> <PUBCHEM_ATOM_DEF_STEREO_COUNT>
0

> <PUBCHEM_ATOM_UDEF_STEREO_COUNT>
1

> <PUBCHEM_BOND_DEF_STEREO_COUNT>
0

> <PUBCHEM_BOND_UDEF_STEREO_COUNT>
0

> <PUBCHEM_ISOTOPIC_ATOM_COUNT>
0

> <PUBCHEM_COMPONENT_COUNT>
1

> <PUBCHEM_CACTVS_TAUTO_COUNT>
2

> <PUBCHEM_CONFORMER_ID>
0009F03300000002

> <PUBCHEM_MMFF94_ENERGY>
107.165

> <PUBCHEM_FEATURE_SELFOVERLAP>
55.923

> <PUBCHEM_SHAPE_FINGERPRINT>
10165383 225 18273497896840536376
10906281 52 17968960658899278628
11763715 3 15720795681038198924
11828532 37 10231456542200632641
12422481 6 18267000822397289546
12730499 353 18202004321659593470
12895836 83 18268148850397653356
12895837 130 17829334936805867716
13140716 1 18120095240991836309
13533116 47 18059858303860519083
13540713 4 18119522142057166245
14028597 1 17131550536450212594
14341114 328 17676199186749980584
14787075 74 17168420558099936008
14790565 3 18193843866881452180
14955137 171 18336271222819579236
15183329 4 13614250303577365208
1601671 61 18408603681874098972
17980427 26 16843287251915829776
1979834 28 18411418405850224685
20511986 3 16298370384570352001
21033648 29 18059005223948553754
22149856 69 18265637433238607273
22182313 1 18190170196684848973
22224240 67 18342453781329450313
23559900 14 18117843188297060423
25222932 49 17603585274810544411
350125 39 18268429036519782318
427121 178 18201996633705030907
4340502 62 18131066034795867834
465052 167 17821449071189619881
5104073 3 18266182726017251465
6442390 28 18201148953258481334
6823239 73 18189338961736471343

> <PUBCHEM_SHAPE_MULTIPOLES>
579.85
12.47
3.03
1.91
14.56
2.69
1.54
-6.42
2.17
-2.5
-1.78
-1.64
-0.06
1.02

> <PUBCHEM_SHAPE_SELFOVERLAP>
1284.649

> <PUBCHEM_SHAPE_VOLUME>
309.8

> <PUBCHEM_COORDINATE_TYPE>
2
5
10

$$$$
