815408
  -OEChem-01171811403D

 24 25  0     0  0  0  0  0  0999 V2000
    4.1624    0.4335    0.0480 O   0  0  0  0  0  0  0  0  0  0  0  0
   -4.7312    0.7294   -0.3057 O   0  0  0  0  0  0  0  0  0  0  0  0
   -2.0550   -1.2679    0.3810 N   0  0  0  0  0  0  0  0  0  0  0  0
   -3.4012   -1.0940    0.3451 N   0  0  0  0  0  0  0  0  0  0  0  0
    0.0310    0.0370    0.0195 C   0  0  0  0  0  0  0  0  0  0  0  0
   -1.4324   -0.1036    0.0085 C   0  0  0  0  0  0  0  0  0  0  0  0
    0.6105    1.2800    0.2735 C   0  0  0  0  0  0  0  0  0  0  0  0
    0.8397   -1.0729   -0.2249 C   0  0  0  0  0  0  0  0  0  0  0  0
   -2.3323    0.8355   -0.3314 C   0  0  0  0  0  0  0  0  0  0  0  0
    2.8079    0.3032    0.0389 C   0  0  0  0  0  0  0  0  0  0  0  0
    1.9991    1.4131    0.2832 C   0  0  0  0  0  0  0  0  0  0  0  0
    2.2282   -0.9397   -0.2151 C   0  0  0  0  0  0  0  0  0  0  0  0
   -3.6565    0.1881   -0.1112 C   0  0  0  0  0  0  0  0  0  0  0  0
    4.9297   -0.7416   -0.2093 C   0  0  0  0  0  0  0  0  0  0  0  0
    0.0061    2.1604    0.4763 H   0  0  0  0  0  0  0  0  0  0  0  0
    0.4129   -2.0508   -0.4338 H   0  0  0  0  0  0  0  0  0  0  0  0
   -1.6217   -1.9641    0.9716 H   0  0  0  0  0  0  0  0  0  0  0  0
   -2.1873    1.8471   -0.6675 H   0  0  0  0  0  0  0  0  0  0  0  0
    2.4452    2.3834    0.4836 H   0  0  0  0  0  0  0  0  0  0  0  0
    2.7968   -1.8416   -0.4144 H   0  0  0  0  0  0  0  0  0  0  0  0
   -4.0364   -1.8387    0.5989 H   0  0  0  0  0  0  0  0  0  0  0  0
    4.7478   -1.1280   -1.2179 H   0  0  0  0  0  0  0  0  0  0  0  0
    4.7708   -1.5030    0.5618 H   0  0  0  0  0  0  0  0  0  0  0  0
    5.9854   -0.4550   -0.1625 H   0  0  0  0  0  0  0  0  0  0  0  0
  1 10  1  0  0  0  0
  1 14  1  0  0  0  0
  2 13  2  0  0  0  0
  3  4  1  0  0  0  0
  3  6  1  0  0  0  0
  3 17  1  0  0  0  0
  4 13  1  0  0  0  0
  4 21  1  0  0  0  0
  5  6  1  0  0  0  0
  5  7  2  0  0  0  0
  5  8  1  0  0  0  0
  6  9  2  0  0  0  0
  7 11  1  0  0  0  0
  7 15  1  0  0  0  0
  8 12  2  0  0  0  0
  8 16  1  0  0  0  0
  9 13  1  0  0  0  0
  9 18  1  0  0  0  0
 10 11  2  0  0  0  0
 10 12  1  0  0  0  0
 11 19  1  0  0  0  0
 12 20  1  0  0  0  0
 14 22  1  0  0  0  0
 14 23  1  0  0  0  0
 14 24  1  0  0  0  0
M  END
> <PUBCHEM_COMPOUND_CID>
815408

> <PUBCHEM_CONFORMER_RMSD>
0.6

> <PUBCHEM_CONFORMER_DIVERSEORDER>
1
3
2

> <PUBCHEM_MMFF94_PARTIAL_CHARGES>
21
1 -0.36
10 0.08
11 -0.15
12 -0.15
13 0.62
14 0.28
15 0.15
16 0.15
17 0.4
18 0.15
19 0.15
2 -0.57
20 0.15
21 0.37
3 -0.52
4 -0.41
5 0.03
6 0.07
7 -0.15
8 -0.15
9 -0.14

> <PUBCHEM_EFFECTIVE_ROTOR_COUNT>
2

> <PUBCHEM_PHARMACOPHORE_FEATURES>
6
1 1 acceptor
1 2 acceptor
1 3 donor
1 4 donor
5 3 4 6 9 13 rings
6 5 7 8 10 11 12 rings

> <PUBCHEM_HEAVY_ATOM_COUNT>
14

> <PUBCHEM_ATOM_DEF_STEREO_COUNT>
0

> <PUBCHEM_ATOM_UDEF_STEREO_COUNT>
0

> <PUBCHEM_BOND_DEF_STEREO_COUNT>
0

> <PUBCHEM_BOND_UDEF_STEREO_COUNT>
0

> <PUBCHEM_ISOTOPIC_ATOM_COUNT>
0

> <PUBCHEM_COMPONENT_COUNT>
1

> <PUBCHEM_CACTVS_TAUTO_COUNT>
5

> <PUBCHEM_CONFORMER_ID>
000C713000000001

> <PUBCHEM_MMFF94_ENERGY>
56.8631

> <PUBCHEM_FEATURE_SELFOVERLAP>
32.051

> <PUBCHEM_SHAPE_FINGERPRINT>
10219947 1 17775288265898772718
10608611 8 18409725196909515057
11062470 55 18410292505885047941
11401426 45 18201715159081481760
11471102 20 18342454846349451476
12032990 46 18413394233046467286
124424 183 18410573989456967987
12500047 106 18187359939585622923
12932764 1 16516232037565399333
13380535 76 18411419509820473495
13675066 3 18272366512138890688
13690532 89 18341895173761947598
13760787 19 17821447967483238746
13922767 16 18273210924015536640
14115302 16 18113910368079498750
14123238 8 9007054664825253726
14252887 29 17632024078606649830
14325111 11 18338797921982993409
14911166 2 18413111658510597780
14993402 34 17203607094619845228
15048467 5 17530970194064853876
15196674 1 18410855503135896000
15219456 202 18338516447106509649
15242439 84 18409728452146189141
18175812 5 18336546109257954805
18186145 218 17458619051390704612
18522853 276 18272651238100207696
200 152 17775280573754763829
20201158 50 18412265025550712995
20279233 1 18412550903011385423
20645477 56 18040995099538458765
20645477 70 18200875067373061951
21267235 1 18411991260082529139
22485316 2 18409727374452380098
23402539 116 18273206487636144829
23402655 69 18271236124207891549
23557571 272 17822292327714470708
23559900 14 18409166615401687250
4072396 5 18339909425671279970
5104073 3 18410575127633884353
69090 78 18412820305230704935
7364860 26 18264485083631484242
77779 3 18335140924828860212
8809292 202 18261397788029307715

> <PUBCHEM_SHAPE_MULTIPOLES>
266.41
8.57
1.34
0.64
0.23
0.06
-0.01
-0.5
-0.56
0.15
0.08
-0.04
0
0.43

> <PUBCHEM_SHAPE_SELFOVERLAP>
574.99

> <PUBCHEM_SHAPE_VOLUME>
148.8

> <PUBCHEM_COORDINATE_TYPE>
2
5
10

$$$$
