5453744
  -OEChem-01171811583D

 42 44  0     0  0  0  0  0  0999 V2000
    5.9724   -3.0584   -0.2282 Br  0  0  0  0  0  0  0  0  0  0  0  0
   -7.3705    0.4642    0.1889 O   0  0  0  0  0  0  0  0  0  0  0  0
    3.6862    2.4413    0.1920 O   0  0  0  0  0  0  0  0  0  0  0  0
   -4.6101   -0.0084   -0.0488 N   0  0  0  0  0  0  0  0  0  0  0  0
    0.9493   -0.6695   -0.0639 N   0  0  0  0  0  0  0  0  0  0  0  0
   -5.3856   -0.6565    1.0180 C   0  0  0  0  0  0  0  0  0  0  0  0
   -5.2010    1.2194   -0.5923 C   0  0  0  0  0  0  0  0  0  0  0  0
   -6.8391   -0.8012    0.5817 C   0  0  0  0  0  0  0  0  0  0  0  0
   -6.6651    0.9759   -0.9412 C   0  0  0  0  0  0  0  0  0  0  0  0
   -3.2214   -0.1738   -0.0495 C   0  0  0  0  0  0  0  0  0  0  0  0
   -2.6713   -1.4518   -0.1464 C   0  0  0  0  0  0  0  0  0  0  0  0
   -2.3863    0.9398    0.0430 C   0  0  0  0  0  0  0  0  0  0  0  0
   -0.4478   -0.5034   -0.0582 C   0  0  0  0  0  0  0  0  0  0  0  0
   -1.2862   -1.6164   -0.1506 C   0  0  0  0  0  0  0  0  0  0  0  0
   -1.0011    0.7753    0.0387 C   0  0  0  0  0  0  0  0  0  0  0  0
    3.2428    0.0935    0.0075 C   0  0  0  0  0  0  0  0  0  0  0  0
    1.9147    0.2754    0.0151 C   0  0  0  0  0  0  0  0  0  0  0  0
    4.1277    1.2999    0.1063 C   0  0  0  0  0  0  0  0  0  0  0  0
    5.6041    1.0403    0.0930 C   0  0  0  0  0  0  0  0  0  0  0  0
    3.8452   -1.2189   -0.0925 C   0  0  0  0  0  0  0  0  0  0  0  0
    6.0541   -0.2223   -0.0044 C   0  0  0  0  0  0  0  0  0  0  0  0
    5.1780   -1.3713   -0.0987 C   0  0  0  0  0  0  0  0  0  0  0  0
    6.5112    2.2270    0.1906 C   0  0  0  0  0  0  0  0  0  0  0  0
   -5.3285   -0.0317    1.9180 H   0  0  0  0  0  0  0  0  0  0  0  0
   -4.9943   -1.6473    1.2724 H   0  0  0  0  0  0  0  0  0  0  0  0
   -4.6755    1.5480   -1.4967 H   0  0  0  0  0  0  0  0  0  0  0  0
   -5.1368    2.0147    0.1606 H   0  0  0  0  0  0  0  0  0  0  0  0
   -6.9388   -1.5121   -0.2474 H   0  0  0  0  0  0  0  0  0  0  0  0
   -7.4433   -1.1755    1.4142 H   0  0  0  0  0  0  0  0  0  0  0  0
   -7.1400    1.9167   -1.2370 H   0  0  0  0  0  0  0  0  0  0  0  0
   -6.7646    0.2761   -1.7799 H   0  0  0  0  0  0  0  0  0  0  0  0
   -3.3050   -2.3306   -0.2336 H   0  0  0  0  0  0  0  0  0  0  0  0
   -2.7811    1.9479    0.1333 H   0  0  0  0  0  0  0  0  0  0  0  0
   -0.8713   -2.6182   -0.2299 H   0  0  0  0  0  0  0  0  0  0  0  0
   -0.4067    1.6785    0.1163 H   0  0  0  0  0  0  0  0  0  0  0  0
    1.2536   -1.6332   -0.1371 H   0  0  0  0  0  0  0  0  0  0  0  0
    1.5440    1.2888    0.0924 H   0  0  0  0  0  0  0  0  0  0  0  0
    3.2116   -2.0966   -0.1644 H   0  0  0  0  0  0  0  0  0  0  0  0
    7.1254   -0.4060   -0.0139 H   0  0  0  0  0  0  0  0  0  0  0  0
    6.3398    2.9092   -0.6483 H   0  0  0  0  0  0  0  0  0  0  0  0
    7.5673    1.9378    0.1730 H   0  0  0  0  0  0  0  0  0  0  0  0
    6.3311    2.7700    1.1241 H   0  0  0  0  0  0  0  0  0  0  0  0
  1 22  1  0  0  0  0
  2  8  1  0  0  0  0
  2  9  1  0  0  0  0
  3 18  2  0  0  0  0
  4  6  1  0  0  0  0
  4  7  1  0  0  0  0
  4 10  1  0  0  0  0
  5 13  1  0  0  0  0
  5 17  1  0  0  0  0
  5 36  1  0  0  0  0
  6  8  1  0  0  0  0
  6 24  1  0  0  0  0
  6 25  1  0  0  0  0
  7  9  1  0  0  0  0
  7 26  1  0  0  0  0
  7 27  1  0  0  0  0
  8 28  1  0  0  0  0
  8 29  1  0  0  0  0
  9 30  1  0  0  0  0
  9 31  1  0  0  0  0
 10 11  2  0  0  0  0
 10 12  1  0  0  0  0
 11 14  1  0  0  0  0
 11 32  1  0  0  0  0
 12 15  2  0  0  0  0
 12 33  1  0  0  0  0
 13 14  2  0  0  0  0
 13 15  1  0  0  0  0
 14 34  1  0  0  0  0
 15 35  1  0  0  0  0
 16 17  2  0  0  0  0
 16 18  1  0  0  0  0
 16 20  1  0  0  0  0
 17 37  1  0  0  0  0
 18 19  1  0  0  0  0
 19 21  2  0  0  0  0
 19 23  1  0  0  0  0
 20 22  2  0  0  0  0
 20 38  1  0  0  0  0
 21 22  1  0  0  0  0
 21 39  1  0  0  0  0
 23 40  1  0  0  0  0
 23 41  1  0  0  0  0
 23 42  1  0  0  0  0
M  END
> <PUBCHEM_COMPOUND_CID>
5453744

> <PUBCHEM_CONFORMER_RMSD>
0.8

> <PUBCHEM_CONFORMER_DIVERSEORDER>
1
13
12
5
11
4
10
7
2
9
14
8
6
3

> <PUBCHEM_MMFF94_PARTIAL_CHARGES>
31
1 -0.11
10 0.1
11 -0.15
12 -0.15
13 0.1
14 -0.15
15 -0.15
16 0.01
17 -0.05
18 0.54
19 -0.12
2 -0.56
20 -0.15
21 -0.15
22 0.11
23 0.14
3 -0.57
32 0.15
33 0.15
34 0.15
35 0.15
36 0.4
37 0.15
38 0.15
39 0.15
4 -0.84
5 -0.6
6 0.37
7 0.37
8 0.28
9 0.28

> <PUBCHEM_EFFECTIVE_ROTOR_COUNT>
4.2

> <PUBCHEM_PHARMACOPHORE_FEATURES>
9
1 1 hydrophobe
1 2 acceptor
1 3 acceptor
1 4 cation
1 5 cation
1 5 donor
6 10 11 12 13 14 15 rings
6 16 18 19 20 21 22 rings
6 2 4 6 7 8 9 rings

> <PUBCHEM_HEAVY_ATOM_COUNT>
23

> <PUBCHEM_ATOM_DEF_STEREO_COUNT>
0

> <PUBCHEM_ATOM_UDEF_STEREO_COUNT>
0

> <PUBCHEM_BOND_DEF_STEREO_COUNT>
1

> <PUBCHEM_BOND_UDEF_STEREO_COUNT>
0

> <PUBCHEM_ISOTOPIC_ATOM_COUNT>
0

> <PUBCHEM_COMPONENT_COUNT>
1

> <PUBCHEM_CACTVS_TAUTO_COUNT>
3

> <PUBCHEM_CONFORMER_ID>
005337B000000001

> <PUBCHEM_MMFF94_ENERGY>
77.5079

> <PUBCHEM_FEATURE_SELFOVERLAP>
45.671

> <PUBCHEM_SHAPE_FINGERPRINT>
10 15 18113897199799680272
10411042 1 18123753046850469854
10638233 991 17275386533823028505
10835480 77 18410570721293259096
11315181 36 18342740724643547809
12107183 9 17910400481379125050
12166972 35 18335424560153613093
12236239 1 18186238428876666611
125118 31 18333733502812034413
13073987 5 18342459206026301680
13167372 99 18201725002804087945
13533116 47 18273494551171789186
14251764 18 18060137673976070727
14341114 176 18410577288498344460
14933364 13 18334577940795268909
15183329 4 17418096524573987201
15849732 13 18187082862866206175
17844677 252 18410863122381784728
18335252 114 18339631270635938373
18335252 98 18336552719371249283
19427546 62 18263646333307289026
19489759 90 17167864162894037241
20157964 124 18413671314403418494
20281389 69 18334574646376206181
21130935 74 18412548708378543171
21236236 1 18271808965640105905
21267235 1 18340773637848144694
21315759 40 17489866025465335983
21315763 28 18412544293541753613
21792934 111 18271233937462902672
21859007 373 17895744093706167077
220451 1 17775283889037220774
221357 26 18410292472237661020
22956985 138 14492127755231321456
23081809 10 17346599655801883739
23559900 14 18341324578212975200
29717793 49 17918276429150396998
300161 21 18343016727056385122
3004659 81 18335983086975911010
3014965 18 18411134693512148462
328311 84 18334300838100930187
335352 9 18411982442868313174
34797466 226 17846506945877228404
3545911 37 18411138060977297124
4073 2 18114466776982845010
4463277 17 18408885139997643649
5104073 3 18410294722547421258
59755656 215 18114464448635900826
59755656 520 17822286907909380651

> <PUBCHEM_SHAPE_MULTIPOLES>
457.57
21.63
2.31
0.74
12.52
0.44
0
-1.19
0.28
-4.99
-0.07
0.63
0.02
1.21

> <PUBCHEM_SHAPE_SELFOVERLAP>
961.524

> <PUBCHEM_SHAPE_VOLUME>
263.2

> <PUBCHEM_COORDINATE_TYPE>
2
5
10

$$$$
