4228364
  -OEChem-01171811463D

 25 26  0     0  0  0  0  0  0999 V2000
    0.6082   -1.7996    0.2660 O   0  0  0  0  0  0  0  0  0  0  0  0
    2.8489   -0.2767    0.4232 O   0  0  0  0  0  0  0  0  0  0  0  0
   -3.1058   -0.1009   -0.0912 O   0  0  0  0  0  0  0  0  0  0  0  0
   -2.0514    2.2919   -0.2327 N   0  0  0  0  0  0  0  0  0  0  0  0
   -0.7665    0.1993    0.0206 C   0  0  0  0  0  0  0  0  0  0  0  0
   -1.8098   -2.0971    0.2070 C   0  0  0  0  0  0  0  0  0  0  0  0
    0.4690   -0.4388    0.1693 C   0  0  0  0  0  0  0  0  0  0  0  0
   -0.4644   -2.5061   -0.3631 C   0  0  0  0  0  0  0  0  0  0  0  0
   -1.9989   -0.6158    0.0111 C   0  0  0  0  0  0  0  0  0  0  0  0
   -0.8356    1.5915   -0.0729 C   0  0  0  0  0  0  0  0  0  0  0  0
    1.6358    0.3214    0.2587 C   0  0  0  0  0  0  0  0  0  0  0  0
    0.3368    2.3449   -0.0033 C   0  0  0  0  0  0  0  0  0  0  0  0
    1.5689    1.7120    0.1670 C   0  0  0  0  0  0  0  0  0  0  0  0
    3.5647   -0.6261   -0.7598 C   0  0  0  0  0  0  0  0  0  0  0  0
   -1.8640   -2.3033    1.2812 H   0  0  0  0  0  0  0  0  0  0  0  0
   -2.6120   -2.6340   -0.3085 H   0  0  0  0  0  0  0  0  0  0  0  0
   -0.2993   -3.5744   -0.1880 H   0  0  0  0  0  0  0  0  0  0  0  0
   -0.4161   -2.3433   -1.4480 H   0  0  0  0  0  0  0  0  0  0  0  0
    0.3071    3.4297   -0.0731 H   0  0  0  0  0  0  0  0  0  0  0  0
    2.4742    2.3102    0.2281 H   0  0  0  0  0  0  0  0  0  0  0  0
   -2.0458    3.3010   -0.3030 H   0  0  0  0  0  0  0  0  0  0  0  0
   -2.9279    1.7959   -0.3097 H   0  0  0  0  0  0  0  0  0  0  0  0
    2.9866   -1.3288   -1.3682 H   0  0  0  0  0  0  0  0  0  0  0  0
    4.5007   -1.1079   -0.4640 H   0  0  0  0  0  0  0  0  0  0  0  0
    3.8012    0.2695   -1.3430 H   0  0  0  0  0  0  0  0  0  0  0  0
  1  7  1  0  0  0  0
  1  8  1  0  0  0  0
  2 11  1  0  0  0  0
  2 14  1  0  0  0  0
  3  9  2  0  0  0  0
  4 10  1  0  0  0  0
  4 21  1  0  0  0  0
  4 22  1  0  0  0  0
  5  7  1  0  0  0  0
  5  9  1  0  0  0  0
  5 10  2  0  0  0  0
  6  8  1  0  0  0  0
  6  9  1  0  0  0  0
  6 15  1  0  0  0  0
  6 16  1  0  0  0  0
  7 11  2  0  0  0  0
  8 17  1  0  0  0  0
  8 18  1  0  0  0  0
 10 12  1  0  0  0  0
 11 13  1  0  0  0  0
 12 13  2  0  0  0  0
 12 19  1  0  0  0  0
 13 20  1  0  0  0  0
 14 23  1  0  0  0  0
 14 24  1  0  0  0  0
 14 25  1  0  0  0  0
M  END
> <PUBCHEM_COMPOUND_CID>
4228364

> <PUBCHEM_CONFORMER_RMSD>
0.6

> <PUBCHEM_CONFORMER_DIVERSEORDER>
1

> <PUBCHEM_MMFF94_PARTIAL_CHARGES>
18
1 -0.36
10 0.1
11 0.08
12 -0.15
13 -0.15
14 0.28
19 0.15
2 -0.36
20 0.15
21 0.4
22 0.4
3 -0.57
4 -0.9
5 0.09
6 0.06
7 0.08
8 0.28
9 0.42

> <PUBCHEM_EFFECTIVE_ROTOR_COUNT>
1.6

> <PUBCHEM_PHARMACOPHORE_FEATURES>
7
1 1 acceptor
1 2 acceptor
1 3 acceptor
1 4 cation
1 4 donor
6 1 5 6 7 8 9 rings
6 5 7 10 11 12 13 rings

> <PUBCHEM_HEAVY_ATOM_COUNT>
14

> <PUBCHEM_ATOM_DEF_STEREO_COUNT>
0

> <PUBCHEM_ATOM_UDEF_STEREO_COUNT>
0

> <PUBCHEM_BOND_DEF_STEREO_COUNT>
0

> <PUBCHEM_BOND_UDEF_STEREO_COUNT>
0

> <PUBCHEM_ISOTOPIC_ATOM_COUNT>
0

> <PUBCHEM_COMPONENT_COUNT>
1

> <PUBCHEM_CACTVS_TAUTO_COUNT>
5

> <PUBCHEM_CONFORMER_ID>
0040850C00000001

> <PUBCHEM_MMFF94_ENERGY>
60.5431

> <PUBCHEM_FEATURE_SELFOVERLAP>
35.557

> <PUBCHEM_SHAPE_FINGERPRINT>
10353120 184 18335422391310594886
10967382 1 18410572894240314003
11206711 2 18336824208427398173
12382932 28 18051964024435702360
12524768 44 18051409862006298354
13140716 1 18265894842253015883
13380535 21 18051704234790910905
13380535 76 18049433756180162643
16945 1 18408879642075572955
17990270 104 17978508959777214714
193761 8 18409725196539873289
20510252 161 18272649013460278872
20588541 1 18411705348425700719
20645476 183 17823998757144921518
21501502 16 18050848024491500750
22802520 49 18270410519423387350
2334 1 17977663439567170699
23552423 10 17830170560376428854
23559900 14 18199188392005647382
2748010 2 18121776390023009639
2897 32 17112127997945881805
5084963 1 18131069350499876128
66348 1 18410005507685896233
7364860 26 17766564925322576680

> <PUBCHEM_SHAPE_MULTIPOLES>
265.52
3.94
2.83
0.67
1.61
0.38
-0.03
-0.96
-0.41
-0.81
-0.18
0.17
-0.07
0.28

> <PUBCHEM_SHAPE_SELFOVERLAP>
573.604

> <PUBCHEM_SHAPE_VOLUME>
145.5

> <PUBCHEM_COORDINATE_TYPE>
2
5
10

$$$$
