16269211
  -OEChem-01171812123D

 54 56  0     0  0  0  0  0  0999 V2000
    2.8202   -0.8272   -2.1072 S   0  0  0  0  0  0  0  0  0  0  0  0
   -5.2126    0.0646   -2.4074 F   0  0  0  0  0  0  0  0  0  0  0  0
    4.1529   -1.1730   -2.5522 O   0  0  0  0  0  0  0  0  0  0  0  0
    1.6852   -0.9309   -2.9987 O   0  0  0  0  0  0  0  0  0  0  0  0
    3.8772    4.0340    2.0969 O   0  0  0  0  0  0  0  0  0  0  0  0
   -1.3490   -2.0618    0.8071 O   0  0  0  0  0  0  0  0  0  0  0  0
   -0.8876   -4.0805    1.8125 O   0  0  0  0  0  0  0  0  0  0  0  0
   -5.5647    2.2818   -0.8152 O   0  0  0  0  0  0  0  0  0  0  0  0
    2.8492    0.7445   -1.4256 N   0  0  0  0  0  0  0  0  0  0  0  0
    2.8363    3.0150    0.2879 N   0  0  0  0  0  0  0  0  0  0  0  0
    1.5791    1.1803   -0.7700 C   0  0  0  0  0  0  0  0  0  0  0  0
    4.0409    1.0518   -0.5782 C   0  0  0  0  0  0  0  0  0  0  0  0
    1.6385    2.6790   -0.4907 C   0  0  0  0  0  0  0  0  0  0  0  0
    4.0921    2.5504   -0.3028 C   0  0  0  0  0  0  0  0  0  0  0  0
    2.4677   -1.7813   -0.6645 C   0  0  0  0  0  0  0  0  0  0  0  0
    2.8541    3.7664    1.4618 C   0  0  0  0  0  0  0  0  0  0  0  0
    1.1452   -2.0435   -0.3075 C   0  0  0  0  0  0  0  0  0  0  0  0
    3.5121   -2.2726    0.1189 C   0  0  0  0  0  0  0  0  0  0  0  0
    1.5228    4.2662    1.9629 C   0  0  0  0  0  0  0  0  0  0  0  0
    0.8668   -2.7968    0.8330 C   0  0  0  0  0  0  0  0  0  0  0  0
    3.2338   -3.0261    1.2594 C   0  0  0  0  0  0  0  0  0  0  0  0
    1.9111   -3.2882    1.6163 C   0  0  0  0  0  0  0  0  0  0  0  0
   -0.5121   -3.0678    1.2068 C   0  0  0  0  0  0  0  0  0  0  0  0
   -2.7379   -2.2127    1.1199 C   0  0  0  0  0  0  0  0  0  0  0  0
   -3.4882   -1.0195    0.6055 C   0  0  0  0  0  0  0  0  0  0  0  0
   -4.0135   -1.0297   -0.6867 C   0  0  0  0  0  0  0  0  0  0  0  0
   -3.6611    0.0998    1.4198 C   0  0  0  0  0  0  0  0  0  0  0  0
   -4.7116    0.0793   -1.1646 C   0  0  0  0  0  0  0  0  0  0  0  0
   -4.3591    1.2088    0.9418 C   0  0  0  0  0  0  0  0  0  0  0  0
   -4.8844    1.1985   -0.3503 C   0  0  0  0  0  0  0  0  0  0  0  0
   -5.7033    3.3911    0.0713 C   0  0  0  0  0  0  0  0  0  0  0  0
    0.7242    0.9759   -1.4222 H   0  0  0  0  0  0  0  0  0  0  0  0
    1.4421    0.6539    0.1801 H   0  0  0  0  0  0  0  0  0  0  0  0
    3.9765    0.5103    0.3713 H   0  0  0  0  0  0  0  0  0  0  0  0
    4.9616    0.7599   -1.0923 H   0  0  0  0  0  0  0  0  0  0  0  0
    0.7221    2.9900    0.0138 H   0  0  0  0  0  0  0  0  0  0  0  0
    1.7026    3.2406   -1.4305 H   0  0  0  0  0  0  0  0  0  0  0  0
    4.9401    2.7807    0.3497 H   0  0  0  0  0  0  0  0  0  0  0  0
    4.2330    3.1076   -1.2369 H   0  0  0  0  0  0  0  0  0  0  0  0
    0.3360   -1.6674   -0.9279 H   0  0  0  0  0  0  0  0  0  0  0  0
    4.5495   -2.0783   -0.1379 H   0  0  0  0  0  0  0  0  0  0  0  0
    0.8781    3.4228    2.2242 H   0  0  0  0  0  0  0  0  0  0  0  0
    1.0446    4.8955    1.2076 H   0  0  0  0  0  0  0  0  0  0  0  0
    1.6761    4.8711    2.8619 H   0  0  0  0  0  0  0  0  0  0  0  0
    4.0468   -3.4072    1.8703 H   0  0  0  0  0  0  0  0  0  0  0  0
    1.7117   -3.8739    2.5099 H   0  0  0  0  0  0  0  0  0  0  0  0
   -3.1221   -3.1307    0.6586 H   0  0  0  0  0  0  0  0  0  0  0  0
   -2.8639   -2.3013    2.2060 H   0  0  0  0  0  0  0  0  0  0  0  0
   -3.8835   -1.8947   -1.3315 H   0  0  0  0  0  0  0  0  0  0  0  0
   -3.2541    0.1195    2.4274 H   0  0  0  0  0  0  0  0  0  0  0  0
   -4.4555    2.0441    1.6268 H   0  0  0  0  0  0  0  0  0  0  0  0
   -6.2839    3.1252    0.9612 H   0  0  0  0  0  0  0  0  0  0  0  0
   -4.7313    3.8278    0.3246 H   0  0  0  0  0  0  0  0  0  0  0  0
   -6.2704    4.1615   -0.4615 H   0  0  0  0  0  0  0  0  0  0  0  0
  1  3  2  0  0  0  0
  1  4  2  0  0  0  0
  1  9  1  0  0  0  0
  1 15  1  0  0  0  0
  2 28  1  0  0  0  0
  5 16  2  0  0  0  0
  6 23  1  0  0  0  0
  6 24  1  0  0  0  0
  7 23  2  0  0  0  0
  8 30  1  0  0  0  0
  8 31  1  0  0  0  0
  9 11  1  0  0  0  0
  9 12  1  0  0  0  0
 10 13  1  0  0  0  0
 10 14  1  0  0  0  0
 10 16  1  0  0  0  0
 11 13  1  0  0  0  0
 11 32  1  0  0  0  0
 11 33  1  0  0  0  0
 12 14  1  0  0  0  0
 12 34  1  0  0  0  0
 12 35  1  0  0  0  0
 13 36  1  0  0  0  0
 13 37  1  0  0  0  0
 14 38  1  0  0  0  0
 14 39  1  0  0  0  0
 15 17  1  0  0  0  0
 15 18  2  0  0  0  0
 16 19  1  0  0  0  0
 17 20  2  0  0  0  0
 17 40  1  0  0  0  0
 18 21  1  0  0  0  0
 18 41  1  0  0  0  0
 19 42  1  0  0  0  0
 19 43  1  0  0  0  0
 19 44  1  0  0  0  0
 20 22  1  0  0  0  0
 20 23  1  0  0  0  0
 21 22  2  0  0  0  0
 21 45  1  0  0  0  0
 22 46  1  0  0  0  0
 24 25  1  0  0  0  0
 24 47  1  0  0  0  0
 24 48  1  0  0  0  0
 25 26  2  0  0  0  0
 25 27  1  0  0  0  0
 26 28  1  0  0  0  0
 26 49  1  0  0  0  0
 27 29  2  0  0  0  0
 27 50  1  0  0  0  0
 28 30  2  0  0  0  0
 29 30  1  0  0  0  0
 29 51  1  0  0  0  0
 31 52  1  0  0  0  0
 31 53  1  0  0  0  0
 31 54  1  0  0  0  0
M  END
> <PUBCHEM_COMPOUND_CID>
16269211

> <PUBCHEM_CONFORMER_RMSD>
1.2

> <PUBCHEM_CONFORMER_DIVERSEORDER>
1
27
63
40
66
100
113
75
68
73
28
65
76
29
77
19
101
86
69
71
96
9
46
111
91
25
60
104
84
17
15
81
20
7
87
72
105
55
79
4
106
61
47
83
52
112
49
94
12
39
43
114
85
45
3
6
74
44
33
42
58
16
92
51
102
90
26
48
80
31
53
78
97
99
32
8
103
95
70
62
57
93
67
110
36
88
64
109
38
82
11
13
14
24
37
108
18
54
22
2
98
89
41
34
56
107
5
21
50
10
30
59
23
35

> <PUBCHEM_MMFF94_PARTIAL_CHARGES>
38
1 1.45
10 -0.66
11 0.36
12 0.36
13 0.3
14 0.3
15 -0.01
16 0.57
17 -0.15
18 -0.15
19 0.06
2 -0.19
20 0.09
21 -0.15
22 -0.15
23 0.63
24 0.42
25 -0.14
26 -0.15
27 -0.15
28 0.19
29 -0.15
3 -0.65
30 0.08
31 0.28
4 -0.65
40 0.15
41 0.15
45 0.15
46 0.15
49 0.15
5 -0.57
50 0.15
51 0.15
6 -0.43
7 -0.57
8 -0.36
9 -0.85

> <PUBCHEM_EFFECTIVE_ROTOR_COUNT>
9.2

> <PUBCHEM_PHARMACOPHORE_FEATURES>
8
1 3 acceptor
1 4 acceptor
1 5 acceptor
1 7 acceptor
1 8 acceptor
6 15 17 18 20 21 22 rings
6 25 26 27 28 29 30 rings
6 9 10 11 12 13 14 rings

> <PUBCHEM_HEAVY_ATOM_COUNT>
31

> <PUBCHEM_ATOM_DEF_STEREO_COUNT>
0

> <PUBCHEM_ATOM_UDEF_STEREO_COUNT>
0

> <PUBCHEM_BOND_DEF_STEREO_COUNT>
0

> <PUBCHEM_BOND_UDEF_STEREO_COUNT>
0

> <PUBCHEM_ISOTOPIC_ATOM_COUNT>
0

> <PUBCHEM_COMPONENT_COUNT>
1

> <PUBCHEM_CACTVS_TAUTO_COUNT>
1

> <PUBCHEM_CONFORMER_ID>
00F83F9B00000001

> <PUBCHEM_MMFF94_ENERGY>
74.8342

> <PUBCHEM_FEATURE_SELFOVERLAP>
40.617

> <PUBCHEM_SHAPE_FINGERPRINT>
10256941 240 17829301907852609637
10439779 11 18336258016100690138
10764073 3 18262782057001307242
10842077 115 18190172563407260473
11331351 85 17615956725669047210
11582403 64 17841432836964299334
12156800 1 16158455154628933488
12422481 6 17096066074790309746
12788726 201 17980213984394832948
12925494 130 18115594739012014153
13383661 66 13592312375291499895
13617811 41 17824835670757514319
14347329 18 17677916684442775974
14932701 244 18052248794270033991
20567600 299 18336826381897367747
20764821 26 18191584142620860625
21133410 62 17973193693384042945
21591340 35 18409165489292191457
21860390 5 18272650134647001502
22122407 14 17975991869310372745
22393880 68 18337402599031179463
238918 7 17981327004074537176
376196 1 18056200413136761208
4371632 12 18340480192718316265
508180 173 18266194850161392626
508706 21 18045515350052538951
5252454 2 17895494569418685591
550186 7 17257380072824688904
5895379 119 17774168868224451579
60111433 81 18197477576696753960
9982175 69 18050832610287152525

> <PUBCHEM_SHAPE_MULTIPOLES>
589.36
11.72
6.17
2.29
16.82
3.29
0.88
7.62
3.34
-4.81
-4.87
-1.28
-0.11
1.9

> <PUBCHEM_SHAPE_SELFOVERLAP>
1235.581

> <PUBCHEM_SHAPE_VOLUME>
335.7

> <PUBCHEM_COORDINATE_TYPE>
2
5
10

$$$$
