1377102
  -OEChem-01171811583D

 34 35  0     0  0  0  0  0  0999 V2000
   -4.2776    0.5842   -0.9085 S   0  0  0  0  0  0  0  0  0  0  0  0
   -1.5170   -0.1581    0.5075 N   0  0  0  0  0  0  0  0  0  0  0  0
   -1.5740   -0.0060   -0.9543 C   0  0  0  0  0  0  0  0  0  0  0  0
   -2.7825   -0.6763    1.0494 C   0  0  0  0  0  0  0  0  0  0  0  0
   -0.4122   -1.0463    0.8766 C   0  0  0  0  0  0  0  0  0  0  0  0
   -2.5931    1.0412   -1.3978 C   0  0  0  0  0  0  0  0  0  0  0  0
   -3.9475    0.2902    0.8495 C   0  0  0  0  0  0  0  0  0  0  0  0
    0.9141   -0.5147    0.4156 C   0  0  0  0  0  0  0  0  0  0  0  0
    1.8395   -1.3522   -0.1984 C   0  0  0  0  0  0  0  0  0  0  0  0
    1.2021    0.8317    0.6152 C   0  0  0  0  0  0  0  0  0  0  0  0
    2.4292    1.3457    0.1961 C   0  0  0  0  0  0  0  0  0  0  0  0
    3.0666   -0.8380   -0.6174 C   0  0  0  0  0  0  0  0  0  0  0  0
    3.3613    0.5108   -0.4202 C   0  0  0  0  0  0  0  0  0  0  0  0
    1.5462   -2.8000   -0.4198 C   0  0  0  0  0  0  0  0  0  0  0  0
    2.7449    2.7880    0.4064 C   0  0  0  0  0  0  0  0  0  0  0  0
   -1.7893   -0.9692   -1.4383 H   0  0  0  0  0  0  0  0  0  0  0  0
   -0.6183    0.3333   -1.3673 H   0  0  0  0  0  0  0  0  0  0  0  0
   -2.6734   -0.8250    2.1316 H   0  0  0  0  0  0  0  0  0  0  0  0
   -3.0250   -1.6586    0.6213 H   0  0  0  0  0  0  0  0  0  0  0  0
   -0.6212   -2.0511    0.4959 H   0  0  0  0  0  0  0  0  0  0  0  0
   -0.3556   -1.1343    1.9699 H   0  0  0  0  0  0  0  0  0  0  0  0
   -2.3528    2.0233   -0.9757 H   0  0  0  0  0  0  0  0  0  0  0  0
   -2.5714    1.1406   -2.4880 H   0  0  0  0  0  0  0  0  0  0  0  0
   -4.8538   -0.1241    1.3029 H   0  0  0  0  0  0  0  0  0  0  0  0
   -3.7472    1.2496    1.3390 H   0  0  0  0  0  0  0  0  0  0  0  0
    0.4898    1.4898    1.1068 H   0  0  0  0  0  0  0  0  0  0  0  0
    3.8038   -1.4742   -1.1001 H   0  0  0  0  0  0  0  0  0  0  0  0
    4.3201    0.8995   -0.7532 H   0  0  0  0  0  0  0  0  0  0  0  0
    1.3125   -3.3005    0.5257 H   0  0  0  0  0  0  0  0  0  0  0  0
    0.7164   -2.9234   -1.1234 H   0  0  0  0  0  0  0  0  0  0  0  0
    2.4089   -3.3234   -0.8474 H   0  0  0  0  0  0  0  0  0  0  0  0
    2.3379    3.3851   -0.4156 H   0  0  0  0  0  0  0  0  0  0  0  0
    2.3198    3.1490    1.3491 H   0  0  0  0  0  0  0  0  0  0  0  0
    3.8259    2.9563    0.4576 H   0  0  0  0  0  0  0  0  0  0  0  0
  1  6  1  0  0  0  0
  1  7  1  0  0  0  0
  2  3  1  0  0  0  0
  2  4  1  0  0  0  0
  2  5  1  0  0  0  0
  3  6  1  0  0  0  0
  3 16  1  0  0  0  0
  3 17  1  0  0  0  0
  4  7  1  0  0  0  0
  4 18  1  0  0  0  0
  4 19  1  0  0  0  0
  5  8  1  0  0  0  0
  5 20  1  0  0  0  0
  5 21  1  0  0  0  0
  6 22  1  0  0  0  0
  6 23  1  0  0  0  0
  7 24  1  0  0  0  0
  7 25  1  0  0  0  0
  8  9  2  0  0  0  0
  8 10  1  0  0  0  0
  9 12  1  0  0  0  0
  9 14  1  0  0  0  0
 10 11  2  0  0  0  0
 10 26  1  0  0  0  0
 11 13  1  0  0  0  0
 11 15  1  0  0  0  0
 12 13  2  0  0  0  0
 12 27  1  0  0  0  0
 13 28  1  0  0  0  0
 14 29  1  0  0  0  0
 14 30  1  0  0  0  0
 14 31  1  0  0  0  0
 15 32  1  0  0  0  0
 15 33  1  0  0  0  0
 15 34  1  0  0  0  0
M  END
> <PUBCHEM_COMPOUND_CID>
1377102

> <PUBCHEM_CONFORMER_RMSD>
0.6

> <PUBCHEM_CONFORMER_DIVERSEORDER>
1
4
9
5
11
6
3
2
7
8
10
12

> <PUBCHEM_MMFF94_PARTIAL_CHARGES>
18
1 -0.46
10 -0.15
11 -0.14
12 -0.15
13 -0.15
14 0.14
15 0.14
2 -0.81
26 0.15
27 0.15
28 0.15
3 0.27
4 0.27
5 0.41
6 0.23
7 0.23
8 -0.14
9 -0.14

> <PUBCHEM_EFFECTIVE_ROTOR_COUNT>
3.2

> <PUBCHEM_PHARMACOPHORE_FEATURES>
3
1 2 cation
6 1 2 3 4 6 7 rings
6 8 9 10 11 12 13 rings

> <PUBCHEM_HEAVY_ATOM_COUNT>
15

> <PUBCHEM_ATOM_DEF_STEREO_COUNT>
0

> <PUBCHEM_ATOM_UDEF_STEREO_COUNT>
0

> <PUBCHEM_BOND_DEF_STEREO_COUNT>
0

> <PUBCHEM_BOND_UDEF_STEREO_COUNT>
0

> <PUBCHEM_ISOTOPIC_ATOM_COUNT>
0

> <PUBCHEM_COMPONENT_COUNT>
1

> <PUBCHEM_CACTVS_TAUTO_COUNT>
1

> <PUBCHEM_CONFORMER_ID>
0015034E00000001

> <PUBCHEM_MMFF94_ENERGY>
36.8835

> <PUBCHEM_FEATURE_SELFOVERLAP>
15.223

> <PUBCHEM_SHAPE_FINGERPRINT>
10498660 4 17168141192189356525
10608611 8 18333448746558949861
107287 299 18335143093787351223
10751810 167 16200151010765922781
11031198 65 18410577279460056102
11132069 177 17822008757110184565
11471102 20 18412829066583920650
11543360 7 18271511070971098607
11615757 297 18273496758547355487
12654215 9 18335699408496205252
12730499 353 18408326592486129019
12932764 1 18113336405714080851
13134695 92 18266729195885687166
13764800 53 17312822641685923541
14250199 8 18413105039728968469
15219456 202 18333170561405719267
16752209 62 15482380981348341053
16945 1 18341894061133439338
17539 30 17116921314888142622
1813 80 17415012248761991206
18186145 218 18271531982671061720
19049666 15 18043247942464460349
19422 9 17632578262373421415
19786989 88 18411696616757084107
20645476 183 17561077016945436303
20645477 70 18343024350349509895
21486144 27 18408885144245138181
21524375 3 18120648299914948464
21639500 275 18342171172075048690
21730867 7 18408606963260488642
22096605 113 18411972585685876661
2255824 54 18273214183927427710
22802520 49 18189613847837847589
22854114 111 18341895194672301152
22892500 29 18410006620140545916
231179 274 18259982686747339672
232386 152 15410598264616255999
23402539 116 17530962505540825550
23402655 69 18343584018947644061
23526113 38 18118118069929596795
23557571 272 17676779746717940843
23559900 14 17385723539235099859
23598291 2 17559967523380991223
238 59 18194093305738832407
25 1 18411142437263985786
2748010 2 18195258938588492394
3060560 45 18343582928273916670
3082319 5 17346876758549385677
474 4 18270958067550511720
495365 180 18342160185659735361
6049 1 18113907009441407869
633830 44 17916605226646360601
74978 22 16630233797064015919
77492 1 17131838650839291611
81228 2 17257084295443203042
8272917 22 18058743381705494695

> <PUBCHEM_SHAPE_MULTIPOLES>
307.56
7.2
2.24
1.16
5.29
0.01
-0.09
-2.22
-0.91
-2.64
-0.02
0.91
-0.05
1.01

> <PUBCHEM_SHAPE_SELFOVERLAP>
620.533

> <PUBCHEM_SHAPE_VOLUME>
182.2

> <PUBCHEM_COORDINATE_TYPE>
2
5
10

$$$$
