1132520
  -OEChem-01171811593D

 41 43  0     0  0  0  0  0  0999 V2000
    3.1897   -0.5845    0.0179 O   0  0  0  0  0  0  0  0  0  0  0  0
    0.9961    2.2043    0.0087 O   0  0  0  0  0  0  0  0  0  0  0  0
   -4.9265    2.1784    0.4274 O   0  0  0  0  0  0  0  0  0  0  0  0
   -4.8438   -2.5246    0.4359 O   0  0  0  0  0  0  0  0  0  0  0  0
   -3.2845    3.3701   -0.6598 O   0  0  0  0  0  0  0  0  0  0  0  0
   -3.1623   -3.6612   -0.6503 O   0  0  0  0  0  0  0  0  0  0  0  0
    0.5542   -0.0787   -0.0059 N   0  0  0  0  0  0  0  0  0  0  0  0
    5.0650    0.6743    0.0652 C   0  0  0  0  0  0  0  0  0  0  0  0
    4.5520   -0.6184    0.0346 C   0  0  0  0  0  0  0  0  0  0  0  0
    2.8275    0.7247    0.0377 C   0  0  0  0  0  0  0  0  0  0  0  0
   -0.8623   -0.1035   -0.0579 C   0  0  0  0  0  0  0  0  0  0  0  0
    3.9374    1.5370    0.0667 C   0  0  0  0  0  0  0  0  0  0  0  0
    1.4374    1.0289    0.0258 C   0  0  0  0  0  0  0  0  0  0  0  0
   -1.5156   -1.3230   -0.0809 C   0  0  0  0  0  0  0  0  0  0  0  0
   -1.5578    1.0925   -0.0844 C   0  0  0  0  0  0  0  0  0  0  0  0
   -2.9094   -1.3476   -0.1322 C   0  0  0  0  0  0  0  0  0  0  0  0
   -2.9516    1.0681   -0.1356 C   0  0  0  0  0  0  0  0  0  0  0  0
    6.4606    0.8426    0.0864 C   0  0  0  0  0  0  0  0  0  0  0  0
   -3.6273   -0.1520   -0.1596 C   0  0  0  0  0  0  0  0  0  0  0  0
    5.3363   -1.7704    0.0232 C   0  0  0  0  0  0  0  0  0  0  0  0
    7.2757   -0.2976    0.0760 C   0  0  0  0  0  0  0  0  0  0  0  0
    6.7211   -1.5797    0.0447 C   0  0  0  0  0  0  0  0  0  0  0  0
   -3.7000    2.3146   -0.1635 C   0  0  0  0  0  0  0  0  0  0  0  0
   -3.6143   -2.6193   -0.1568 C   0  0  0  0  0  0  0  0  0  0  0  0
   -5.7612    3.3411    0.4613 C   0  0  0  0  0  0  0  0  0  0  0  0
   -5.6365   -3.7162    0.4754 C   0  0  0  0  0  0  0  0  0  0  0  0
    3.9401    2.6181    0.0867 H   0  0  0  0  0  0  0  0  0  0  0  0
    0.9920   -0.9982    0.0052 H   0  0  0  0  0  0  0  0  0  0  0  0
   -0.9504   -2.2514   -0.0563 H   0  0  0  0  0  0  0  0  0  0  0  0
   -1.0988    2.0685   -0.0629 H   0  0  0  0  0  0  0  0  0  0  0  0
    6.9059    1.8326    0.1106 H   0  0  0  0  0  0  0  0  0  0  0  0
   -4.7124   -0.1710   -0.2273 H   0  0  0  0  0  0  0  0  0  0  0  0
    4.8988   -2.7614   -0.0009 H   0  0  0  0  0  0  0  0  0  0  0  0
    8.3564   -0.1812    0.0922 H   0  0  0  0  0  0  0  0  0  0  0  0
    7.3784   -2.4458    0.0370 H   0  0  0  0  0  0  0  0  0  0  0  0
   -5.2734    4.1388    1.0293 H   0  0  0  0  0  0  0  0  0  0  0  0
   -6.6966    3.0744    0.9600 H   0  0  0  0  0  0  0  0  0  0  0  0
   -5.9862    3.6732   -0.5564 H   0  0  0  0  0  0  0  0  0  0  0  0
   -5.1198   -4.4939    1.0452 H   0  0  0  0  0  0  0  0  0  0  0  0
   -5.8513   -4.0596   -0.5408 H   0  0  0  0  0  0  0  0  0  0  0  0
   -6.5800   -3.4811    0.9749 H   0  0  0  0  0  0  0  0  0  0  0  0
  1  9  1  0  0  0  0
  1 10  1  0  0  0  0
  2 13  2  0  0  0  0
  3 23  1  0  0  0  0
  3 25  1  0  0  0  0
  4 24  1  0  0  0  0
  4 26  1  0  0  0  0
  5 23  2  0  0  0  0
  6 24  2  0  0  0  0
  7 11  1  0  0  0  0
  7 13  1  0  0  0  0
  7 28  1  0  0  0  0
  8  9  1  0  0  0  0
  8 12  1  0  0  0  0
  8 18  2  0  0  0  0
  9 20  2  0  0  0  0
 10 12  2  0  0  0  0
 10 13  1  0  0  0  0
 11 14  2  0  0  0  0
 11 15  1  0  0  0  0
 12 27  1  0  0  0  0
 14 16  1  0  0  0  0
 14 29  1  0  0  0  0
 15 17  2  0  0  0  0
 15 30  1  0  0  0  0
 16 19  2  0  0  0  0
 16 24  1  0  0  0  0
 17 19  1  0  0  0  0
 17 23  1  0  0  0  0
 18 21  1  0  0  0  0
 18 31  1  0  0  0  0
 19 32  1  0  0  0  0
 20 22  1  0  0  0  0
 20 33  1  0  0  0  0
 21 22  2  0  0  0  0
 21 34  1  0  0  0  0
 22 35  1  0  0  0  0
 25 36  1  0  0  0  0
 25 37  1  0  0  0  0
 25 38  1  0  0  0  0
 26 39  1  0  0  0  0
 26 40  1  0  0  0  0
 26 41  1  0  0  0  0
M  END
> <PUBCHEM_COMPOUND_CID>
1132520

> <PUBCHEM_CONFORMER_RMSD>
0.8

> <PUBCHEM_CONFORMER_DIVERSEORDER>
2
15
20
26
12
29
4
25
17
21
10
24
3
14
28
1
8
11
23
7
19
18
13
27
6
9
16
5
22

> <PUBCHEM_MMFF94_PARTIAL_CHARGES>
34
1 -0.28
10 0.05
11 0.12
12 -0.15
13 0.71
14 -0.15
15 -0.15
16 0.09
17 0.09
18 -0.15
19 -0.15
2 -0.57
20 -0.15
21 -0.15
22 -0.15
23 0.63
24 0.63
25 0.28
26 0.28
27 0.15
28 0.37
29 0.15
3 -0.43
30 0.15
31 0.15
32 0.15
33 0.15
34 0.15
35 0.15
4 -0.43
5 -0.57
6 -0.57
7 -0.55
9 0.14

> <PUBCHEM_EFFECTIVE_ROTOR_COUNT>
7

> <PUBCHEM_PHARMACOPHORE_FEATURES>
8
1 1 acceptor
1 2 acceptor
1 5 acceptor
1 6 acceptor
1 7 donor
5 1 8 9 10 12 rings
6 11 14 15 16 17 19 rings
6 8 9 18 20 21 22 rings

> <PUBCHEM_HEAVY_ATOM_COUNT>
26

> <PUBCHEM_ATOM_DEF_STEREO_COUNT>
0

> <PUBCHEM_ATOM_UDEF_STEREO_COUNT>
0

> <PUBCHEM_BOND_DEF_STEREO_COUNT>
0

> <PUBCHEM_BOND_UDEF_STEREO_COUNT>
0

> <PUBCHEM_ISOTOPIC_ATOM_COUNT>
0

> <PUBCHEM_COMPONENT_COUNT>
1

> <PUBCHEM_CACTVS_TAUTO_COUNT>
2

> <PUBCHEM_CONFORMER_ID>
001147E800000002

> <PUBCHEM_MMFF94_ENERGY>
73.7316

> <PUBCHEM_FEATURE_SELFOVERLAP>
40.7

> <PUBCHEM_SHAPE_FINGERPRINT>
10050765 1 18339080509436063088
10165383 225 18268711615746946745
10319926 262 18342163475905176536
10411042 1 18122063367760642459
10595046 47 18334859476339417244
10835480 77 18343011208351230728
11524674 6 17418091005646650487
11545043 162 18201433701321603048
11796584 16 18342739577470632558
11809386 21 18260258659623375418
12107183 9 18120086178990630650
12616971 3 17240491303591364716
12643181 29 18339075970314631062
12760667 363 18270115846397687807
13073987 5 18411134783943546160
13167823 11 18409163338083359350
13248334 5 17330837916975213359
13540713 5 18043549380766447637
14347332 77 18337953505716766207
14420673 8 18339082571362834358
14790565 3 17763183544741573977
14866123 147 18410578392732357139
15021287 119 17530974574293679549
15042514 8 18409732893997019337
15183329 4 18336259038382066296
15196674 1 18410854365655325814
15230672 131 18192993721445511854
15250474 111 18261376829116891826
15361156 5 17968109611841440404
15439362 3 17981325582698799133
15537594 2 17676767570200651456
15927050 60 18266737987905840055
17492 89 18265894842110376214
17844677 252 18338803411420793508
19141452 34 18409167675673391380
19301679 30 18265062495372988763
21033648 29 17703209789877746608
21065198 57 18412260649311562080
21130935 74 18410005530216287874
21236236 1 18411980265214041359
21267235 1 18339084895187970342
21639891 77 18202283632774764553
220451 1 18040998398141627762
23081809 10 17822010917937416996
23522609 53 18050039801809844369
23559900 14 18340757256072874497
335352 9 18339642239560549052
4073 2 18260270767964059090
4214541 1 18411135831657239876
44062 13 18412263926081127430
497634 4 18260264178687564293
5104073 3 18342451552457650320
513202 73 18335430114337260755
559249 180 18410853231182787362
5969126 39 18271517711165027463
59755656 520 18336261237621729829
7226269 152 17916584224351703457
7970288 3 17978506760902659191

> <PUBCHEM_SHAPE_MULTIPOLES>
494.87
18.25
4.07
0.65
20.19
1.2
0
3.38
-1.6
-10.28
-0.05
-0.21
0.01
0.06

> <PUBCHEM_SHAPE_SELFOVERLAP>
1084.065

> <PUBCHEM_SHAPE_VOLUME>
269.3

> <PUBCHEM_COORDINATE_TYPE>
2
5
10

$$$$
