16809729
  -OEChem-01171812113D

 42 44  0     1  0  0  0  0  0999 V2000
   -2.0365    1.5310    0.6564 F   0  0  0  0  0  0  0  0  0  0  0  0
   -3.7904   -2.6917   -0.6303 F   0  0  0  0  0  0  0  0  0  0  0  0
    5.7004   -1.3767   -0.2947 O   0  0  0  0  0  0  0  0  0  0  0  0
    0.9459    1.8036   -1.2509 O   0  0  0  0  0  0  0  0  0  0  0  0
   -1.2433   -2.0507   -0.8263 O   0  0  0  0  0  0  0  0  0  0  0  0
    3.0890   -0.4019    0.2818 N   0  0  0  0  0  0  0  0  0  0  0  0
   -0.5880   -0.5854    0.8480 N   0  0  0  0  0  0  0  0  0  0  0  0
    1.6799   -0.1982   -0.0478 C   0  0  1  0  0  0  0  0  0  0  0  0
    3.4070   -1.8350    0.3501 C   0  0  0  0  0  0  0  0  0  0  0  0
    3.9562    0.2598   -0.7029 C   0  0  0  0  0  0  0  0  0  0  0  0
    0.7888   -1.0021    0.9096 C   0  0  0  0  0  0  0  0  0  0  0  0
    4.8843   -2.0219    0.6836 C   0  0  0  0  0  0  0  0  0  0  0  0
    5.4208    0.0229   -0.3456 C   0  0  0  0  0  0  0  0  0  0  0  0
    1.3411    1.2851   -0.0588 C   0  0  0  0  0  0  0  0  0  0  0  0
    1.3470    2.2584    0.9132 C   0  0  0  0  0  0  0  0  0  0  0  0
    0.9286    3.4516    0.2773 C   0  0  0  0  0  0  0  0  0  0  0  0
   -1.5031   -1.1536   -0.0286 C   0  0  0  0  0  0  0  0  0  0  0  0
    0.6967    3.1225   -1.0378 C   0  0  0  0  0  0  0  0  0  0  0  0
   -2.8789   -0.5944    0.0120 C   0  0  0  0  0  0  0  0  0  0  0  0
   -3.0788    0.7418    0.3586 C   0  0  0  0  0  0  0  0  0  0  0  0
   -3.9708   -1.4058   -0.2958 C   0  0  0  0  0  0  0  0  0  0  0  0
   -4.3705    1.2666    0.3971 C   0  0  0  0  0  0  0  0  0  0  0  0
   -5.2626   -0.8810   -0.2574 C   0  0  0  0  0  0  0  0  0  0  0  0
   -5.4626    0.4552    0.0891 C   0  0  0  0  0  0  0  0  0  0  0  0
    1.4788   -0.5757   -1.0623 H   0  0  0  0  0  0  0  0  0  0  0  0
    2.8568   -2.3461    1.1455 H   0  0  0  0  0  0  0  0  0  0  0  0
    3.1811   -2.3266   -0.6050 H   0  0  0  0  0  0  0  0  0  0  0  0
    3.7616   -0.1351   -1.7089 H   0  0  0  0  0  0  0  0  0  0  0  0
    3.8006    1.3433   -0.7277 H   0  0  0  0  0  0  0  0  0  0  0  0
    0.8205   -2.0748    0.6905 H   0  0  0  0  0  0  0  0  0  0  0  0
    1.0971   -0.8532    1.9519 H   0  0  0  0  0  0  0  0  0  0  0  0
    5.1280   -1.6306    1.6790 H   0  0  0  0  0  0  0  0  0  0  0  0
    5.1369   -3.0871    0.6759 H   0  0  0  0  0  0  0  0  0  0  0  0
    6.0674    0.4627   -1.1117 H   0  0  0  0  0  0  0  0  0  0  0  0
    5.6830    0.4840    0.6145 H   0  0  0  0  0  0  0  0  0  0  0  0
   -0.8858    0.1412    1.4917 H   0  0  0  0  0  0  0  0  0  0  0  0
    1.6179    2.1268    1.9509 H   0  0  0  0  0  0  0  0  0  0  0  0
    0.8102    4.4289    0.7222 H   0  0  0  0  0  0  0  0  0  0  0  0
    0.3681    3.6813   -1.9018 H   0  0  0  0  0  0  0  0  0  0  0  0
   -4.5258    2.3070    0.6669 H   0  0  0  0  0  0  0  0  0  0  0  0
   -6.1126   -1.5130   -0.4973 H   0  0  0  0  0  0  0  0  0  0  0  0
   -6.4683    0.8639    0.1191 H   0  0  0  0  0  0  0  0  0  0  0  0
  1 20  1  0  0  0  0
  2 21  1  0  0  0  0
  3 12  1  0  0  0  0
  3 13  1  0  0  0  0
  4 14  1  0  0  0  0
  4 18  1  0  0  0  0
  5 17  2  0  0  0  0
  6  8  1  0  0  0  0
  6  9  1  0  0  0  0
  6 10  1  0  0  0  0
  7 11  1  0  0  0  0
  7 17  1  0  0  0  0
  7 36  1  0  0  0  0
  8 11  1  0  0  0  0
  8 14  1  0  0  0  0
  8 25  1  0  0  0  0
  9 12  1  0  0  0  0
  9 26  1  0  0  0  0
  9 27  1  0  0  0  0
 10 13  1  0  0  0  0
 10 28  1  0  0  0  0
 10 29  1  0  0  0  0
 11 30  1  0  0  0  0
 11 31  1  0  0  0  0
 12 32  1  0  0  0  0
 12 33  1  0  0  0  0
 13 34  1  0  0  0  0
 13 35  1  0  0  0  0
 14 15  2  0  0  0  0
 15 16  1  0  0  0  0
 15 37  1  0  0  0  0
 16 18  2  0  0  0  0
 16 38  1  0  0  0  0
 17 19  1  0  0  0  0
 18 39  1  0  0  0  0
 19 20  2  0  0  0  0
 19 21  1  0  0  0  0
 20 22  1  0  0  0  0
 21 23  2  0  0  0  0
 22 24  2  0  0  0  0
 22 40  1  0  0  0  0
 23 24  1  0  0  0  0
 23 41  1  0  0  0  0
 24 42  1  0  0  0  0
M  END
> <PUBCHEM_COMPOUND_CID>
16809729

> <PUBCHEM_CONFORMER_RMSD>
0.8

> <PUBCHEM_CONFORMER_DIVERSEORDER>
1
8
35
189
179
188
152
167
217
86
135
181
87
28
161
51
123
169
215
201
194
92
108
52
11
67
180
202
63
130
193
121
71
107
82
40
96
69
168
98
79
195
70
116
112
29
163
73
149
88
126
134
90
80
129
156
210
43
64
53
44
198
68
128
91
173
164
158
57
199
22
21
175
160
204
165
20
133
81
16
150
209
151
192
4
148
127
203
159
41
103
140
186
99
146
174
33
17
154
111
109
162
206
191
61
185
27
74
56
110
155
147
2
200
6
197
55
117
94
119
54
31
138
143
30
207
145
24
76
12
46
136
101
216
59
187
48
66
190
23
214
196
102
97
13
60
177
205
125
37
50
5
34
122
137
45
106
7
211
183
212
124
170
75
89
178
176
36
142
84
105
114
139
100
208
171
113
184
120
172
18
131
118
132
58
65
9
157
182
93
47
25
3
62
78
26
15
104
153
39
213
144
49
42
83
10
85
166
141
72
38
95
19
77
32
115
14

> <PUBCHEM_MMFF94_PARTIAL_CHARGES>
31
1 -0.19
10 0.27
11 0.3
12 0.28
13 0.28
14 -0.04
15 -0.15
16 -0.15
17 0.54
18 -0.01
19 0.09
2 -0.19
20 0.19
21 0.19
22 -0.15
23 -0.15
24 -0.15
3 -0.56
36 0.37
37 0.15
38 0.15
39 0.15
4 -0.28
40 0.15
41 0.15
42 0.15
5 -0.57
6 -0.81
7 -0.73
8 0.45
9 0.27

> <PUBCHEM_EFFECTIVE_ROTOR_COUNT>
7.2

> <PUBCHEM_PHARMACOPHORE_FEATURES>
8
1 3 acceptor
1 4 acceptor
1 5 acceptor
1 6 cation
1 7 donor
5 4 14 15 16 18 rings
6 19 20 21 22 23 24 rings
6 3 6 9 10 12 13 rings

> <PUBCHEM_HEAVY_ATOM_COUNT>
24

> <PUBCHEM_ATOM_DEF_STEREO_COUNT>
0

> <PUBCHEM_ATOM_UDEF_STEREO_COUNT>
1

> <PUBCHEM_BOND_DEF_STEREO_COUNT>
0

> <PUBCHEM_BOND_UDEF_STEREO_COUNT>
0

> <PUBCHEM_ISOTOPIC_ATOM_COUNT>
0

> <PUBCHEM_COMPONENT_COUNT>
1

> <PUBCHEM_CACTVS_TAUTO_COUNT>
2

> <PUBCHEM_CONFORMER_ID>
01007F0100000001

> <PUBCHEM_MMFF94_ENERGY>
42.4283

> <PUBCHEM_FEATURE_SELFOVERLAP>
40.597

> <PUBCHEM_SHAPE_FINGERPRINT>
10366900 7 17167857578503308155
12107183 9 17617658752541080026
12166972 35 18272932752127191777
12236239 1 18335703818984824987
12516196 113 18412543206704057250
12788726 201 18117276957020273594
13004483 165 18337101264484043738
13134695 92 18411135874538464748
13590594 115 18335144163467011793
14170010 4 18410572933011363225
14341114 176 18411141376560193947
14347329 18 16517346835393278573
15196674 1 18411701010456003793
15536298 74 18269834371214943489
1601671 61 18341050735493388998
17492 89 18194681699200424959
17980427 23 15769504187434113168
1813 80 17749395815200348342
18186145 218 17896306073677233211
18335252 114 18336533929796528381
18681886 176 18343011225203591107
21033648 29 17095790101845969477
21267235 1 18410864252037298443
21285901 2 18127981814876014190
21478907 32 18119526540551985162
21641784 216 17605290497112365468
221357 26 18261104175875743853
221490 88 18263931118949521699
22224240 67 9439395813673466838
22950370 63 18408886213755467366
23402539 116 18342453707930020918
23557571 272 16271662104411812185
23559900 14 18341042034269306345
249057 3 18410853257749033343
3004659 81 18260551087578989286
3178227 256 18335155176332176411
335352 9 18411981339441298709
3411729 13 17987225819960678296
345986 75 17970049064142099538
34797466 226 17203614817614686472
350125 39 18410577293073023009
4409770 3 17900808358401397180
474 4 17824537711237457109
5104073 3 18272090543215523123
7164475 11 18117558423628750990
9709674 26 18120936363450638355
9971528 1 18411131467891333080
9981440 41 17400356149115338904

> <PUBCHEM_SHAPE_MULTIPOLES>
451.79
11.78
3.18
0.92
0.2
2.09
0.03
-6.09
0.62
-0.87
0.25
-0.2
0.18
-1

> <PUBCHEM_SHAPE_SELFOVERLAP>
968.093

> <PUBCHEM_SHAPE_VOLUME>
249.7

> <PUBCHEM_COORDINATE_TYPE>
2
5
10

$$$$
