15944984
  -OEChem-01171811463D

 47 50  0     1  0  0  0  0  0999 V2000
    3.6726   -2.0763    0.1841 O   0  0  0  0  0  0  0  0  0  0  0  0
    0.7149    2.2235   -0.4612 O   0  0  0  0  0  0  0  0  0  0  0  0
   -2.7495    1.9053    1.7396 O   0  0  0  0  0  0  0  0  0  0  0  0
   -4.4796   -1.6568   -0.9542 O   0  0  0  0  0  0  0  0  0  0  0  0
   -4.8828    0.6942    0.4541 O   0  0  0  0  0  0  0  0  0  0  0  0
    0.4118   -2.9494    0.0931 N   0  0  0  0  0  0  0  0  0  0  0  0
    1.7112   -3.3156    0.0601 N   0  0  0  0  0  0  0  0  0  0  0  0
    5.6276   -0.8654    0.4677 N   0  0  0  0  0  0  0  0  0  0  0  0
    4.7071    2.5962    0.8996 N   0  0  0  0  0  0  0  0  0  0  0  0
    1.9834    0.3532    0.3556 C   0  0  1  0  0  0  0  0  0  0  0  0
    1.4724   -1.0410    0.2447 C   0  0  0  0  0  0  0  0  0  0  0  0
    0.2163   -1.5974    0.2093 C   0  0  0  0  0  0  0  0  0  0  0  0
    2.3289   -2.1424    0.1599 C   0  0  0  0  0  0  0  0  0  0  0  0
    3.5231    0.3294    0.4698 C   0  0  0  0  0  0  0  0  0  0  0  0
    1.4997    1.1741   -0.7876 C   0  0  0  0  0  0  0  0  0  0  0  0
   -1.0967   -1.0068    0.2712 C   0  0  0  0  0  0  0  0  0  0  0  0
    4.2620   -0.8134    0.3772 C   0  0  0  0  0  0  0  0  0  0  0  0
    1.6906    1.0826   -2.1338 C   0  0  0  0  0  0  0  0  0  0  0  0
   -2.1701   -1.6195   -0.3767 C   0  0  0  0  0  0  0  0  0  0  0  0
   -1.2971    0.1782    0.9806 C   0  0  0  0  0  0  0  0  0  0  0  0
   -2.5681    0.7494    1.0421 C   0  0  0  0  0  0  0  0  0  0  0  0
   -3.4412   -1.0485   -0.3155 C   0  0  0  0  0  0  0  0  0  0  0  0
   -3.6404    0.1360    0.3940 C   0  0  0  0  0  0  0  0  0  0  0  0
    0.9664    2.1620   -2.6938 C   0  0  0  0  0  0  0  0  0  0  0  0
    4.1774    1.5822    0.7075 C   0  0  0  0  0  0  0  0  0  0  0  0
    0.3910    2.8258   -1.6354 C   0  0  0  0  0  0  0  0  0  0  0  0
   -2.5863    3.1274    1.0227 C   0  0  0  0  0  0  0  0  0  0  0  0
   -4.7214   -1.2753   -2.3069 C   0  0  0  0  0  0  0  0  0  0  0  0
   -5.7231    0.2883    1.5321 C   0  0  0  0  0  0  0  0  0  0  0  0
    1.6214    0.7782    1.3007 H   0  0  0  0  0  0  0  0  0  0  0  0
   -0.2856   -3.6820    0.0442 H   0  0  0  0  0  0  0  0  0  0  0  0
    2.2730    0.3401   -2.6601 H   0  0  0  0  0  0  0  0  0  0  0  0
   -2.0388   -2.5374   -0.9454 H   0  0  0  0  0  0  0  0  0  0  0  0
   -0.4983    0.6587    1.5344 H   0  0  0  0  0  0  0  0  0  0  0  0
    0.8751    2.4233   -3.7381 H   0  0  0  0  0  0  0  0  0  0  0  0
   -0.2433    3.6965   -1.5548 H   0  0  0  0  0  0  0  0  0  0  0  0
    6.1736   -0.0254    0.6081 H   0  0  0  0  0  0  0  0  0  0  0  0
    6.0870   -1.7640    0.3900 H   0  0  0  0  0  0  0  0  0  0  0  0
   -3.1221    3.1038    0.0682 H   0  0  0  0  0  0  0  0  0  0  0  0
   -1.5236    3.3205    0.8541 H   0  0  0  0  0  0  0  0  0  0  0  0
   -2.9945    3.9383    1.6322 H   0  0  0  0  0  0  0  0  0  0  0  0
   -5.5832   -1.8397   -2.6732 H   0  0  0  0  0  0  0  0  0  0  0  0
   -3.8553   -1.5129   -2.9328 H   0  0  0  0  0  0  0  0  0  0  0  0
   -4.9498   -0.2067   -2.3712 H   0  0  0  0  0  0  0  0  0  0  0  0
   -5.9168   -0.7880    1.4855 H   0  0  0  0  0  0  0  0  0  0  0  0
   -6.6751    0.8186    1.4424 H   0  0  0  0  0  0  0  0  0  0  0  0
   -5.2683    0.5466    2.4936 H   0  0  0  0  0  0  0  0  0  0  0  0
  1 13  1  0  0  0  0
  1 17  1  0  0  0  0
  2 15  1  0  0  0  0
  2 26  1  0  0  0  0
  3 21  1  0  0  0  0
  3 27  1  0  0  0  0
  4 22  1  0  0  0  0
  4 28  1  0  0  0  0
  5 23  1  0  0  0  0
  5 29  1  0  0  0  0
  6  7  1  0  0  0  0
  6 12  1  0  0  0  0
  6 31  1  0  0  0  0
  7 13  2  0  0  0  0
  8 17  1  0  0  0  0
  8 37  1  0  0  0  0
  8 38  1  0  0  0  0
  9 25  3  0  0  0  0
 10 11  1  0  0  0  0
 10 14  1  0  0  0  0
 10 15  1  0  0  0  0
 10 30  1  0  0  0  0
 11 12  2  0  0  0  0
 11 13  1  0  0  0  0
 12 16  1  0  0  0  0
 14 17  2  0  0  0  0
 14 25  1  0  0  0  0
 15 18  2  0  0  0  0
 16 19  2  0  0  0  0
 16 20  1  0  0  0  0
 18 24  1  0  0  0  0
 18 32  1  0  0  0  0
 19 22  1  0  0  0  0
 19 33  1  0  0  0  0
 20 21  2  0  0  0  0
 20 34  1  0  0  0  0
 21 23  1  0  0  0  0
 22 23  2  0  0  0  0
 24 26  2  0  0  0  0
 24 35  1  0  0  0  0
 26 36  1  0  0  0  0
 27 39  1  0  0  0  0
 27 40  1  0  0  0  0
 27 41  1  0  0  0  0
 28 42  1  0  0  0  0
 28 43  1  0  0  0  0
 28 44  1  0  0  0  0
 29 45  1  0  0  0  0
 29 46  1  0  0  0  0
 29 47  1  0  0  0  0
M  END
> <PUBCHEM_COMPOUND_CID>
15944984

> <PUBCHEM_CONFORMER_RMSD>
0.8

> <PUBCHEM_CONFORMER_DIVERSEORDER>
7
3
15
10
1
13
5
8
12
14
6
4
11
2
9

> <PUBCHEM_MMFF94_PARTIAL_CHARGES>
37
1 -0.14
10 0.5
11 -0.18
12 -0.2
13 0.35
14 -0.07
15 -0.04
16 0.05
17 0.18
18 -0.15
19 -0.15
2 -0.28
20 -0.15
21 0.08
22 0.08
23 0.08
24 -0.15
25 0.49
26 -0.01
27 0.28
28 0.28
29 0.28
3 -0.36
31 0.27
32 0.15
33 0.15
34 0.15
35 0.15
36 0.15
37 0.4
38 0.4
4 -0.36
5 -0.36
6 0.3
7 -0.71
8 -0.9
9 -0.56

> <PUBCHEM_EFFECTIVE_ROTOR_COUNT>
5.4

> <PUBCHEM_PHARMACOPHORE_FEATURES>
12
1 2 acceptor
1 3 acceptor
1 4 acceptor
1 5 acceptor
1 6 donor
1 8 cation
1 8 donor
1 9 acceptor
5 2 15 18 24 26 rings
5 6 7 11 12 13 rings
6 1 10 11 13 14 17 rings
6 16 19 20 21 22 23 rings

> <PUBCHEM_HEAVY_ATOM_COUNT>
29

> <PUBCHEM_ATOM_DEF_STEREO_COUNT>
0

> <PUBCHEM_ATOM_UDEF_STEREO_COUNT>
1

> <PUBCHEM_BOND_DEF_STEREO_COUNT>
0

> <PUBCHEM_BOND_UDEF_STEREO_COUNT>
0

> <PUBCHEM_ISOTOPIC_ATOM_COUNT>
0

> <PUBCHEM_COMPONENT_COUNT>
1

> <PUBCHEM_CACTVS_TAUTO_COUNT>
4

> <PUBCHEM_CONFORMER_ID>
00F34D1800000007

> <PUBCHEM_MMFF94_ENERGY>
91.6227

> <PUBCHEM_FEATURE_SELFOVERLAP>
61.026

> <PUBCHEM_SHAPE_FINGERPRINT>
11513181 2 17340403732060201933
11578080 2 17840266031319308057
12166972 35 18262227941252327695
12236239 1 18272649073974721575
12422481 6 18117256096269229864
12633257 1 16950568838714923465
12788726 201 16701752544800583009
13140716 1 18191596447923436939
13583140 156 16271345427920163714
14787075 74 17916862564107425640
14840074 17 17604995995716669036
14955137 171 18187944888245210592
15081414 286 18259986002625759244
1601671 61 18041283278900953380
17349148 13 18333732433464780891
17357779 13 17895746314198633237
17980427 23 18272369814705231317
1813 80 17605006831501678078
192875 21 18335983168200514069
20511986 3 18129929153222054413
20691752 17 18041848298823175194
20739085 24 18187089446971851812
21033648 29 16081361994830265079
21304253 335 18411143523780104301
22149856 69 18196401241682659171
23419403 2 15315119183506113234
23557571 272 16916792937269708247
23559900 14 17988923388419403786
350125 39 18341615875938030578
4409770 3 16532294442048134551
463206 1 18340207496454324219
474 4 18259993681837458171
6669772 16 17050182569684117913
9981440 41 17543633488019523256

> <PUBCHEM_SHAPE_MULTIPOLES>
547.54
10.24
3.44
1.77
3.39
0.36
1.17
-0.47
-2.53
-1.45
0.4
1.23
1.19
-1.72

> <PUBCHEM_SHAPE_SELFOVERLAP>
1212.092

> <PUBCHEM_SHAPE_VOLUME>
294.8

> <PUBCHEM_COORDINATE_TYPE>
2
5
10

$$$$
