1519685
  -OEChem-01171811483D

 24 25  0     0  0  0  0  0  0999 V2000
    3.2180    1.5140    0.1966 O   0  0  0  0  0  0  0  0  0  0  0  0
   -4.3515    1.3976   -0.2746 O   0  0  0  0  0  0  0  0  0  0  0  0
   -2.2038   -1.1427    0.4718 N   0  0  0  0  0  0  0  0  0  0  0  0
   -3.4689   -0.6497    0.4649 N   0  0  0  0  0  0  0  0  0  0  0  0
    0.1149   -0.4088   -0.0478 C   0  0  0  0  0  0  0  0  0  0  0  0
   -1.3382   -0.1903   -0.0033 C   0  0  0  0  0  0  0  0  0  0  0  0
    0.9875    0.6697    0.0973 C   0  0  0  0  0  0  0  0  0  0  0  0
   -2.0014    0.9160   -0.3822 C   0  0  0  0  0  0  0  0  0  0  0  0
    0.6208   -1.6951   -0.2354 C   0  0  0  0  0  0  0  0  0  0  0  0
    2.3661    0.4619    0.0549 C   0  0  0  0  0  0  0  0  0  0  0  0
   -3.4302    0.6248   -0.0748 C   0  0  0  0  0  0  0  0  0  0  0  0
    1.9994   -1.9028   -0.2779 C   0  0  0  0  0  0  0  0  0  0  0  0
    2.8720   -0.8243   -0.1328 C   0  0  0  0  0  0  0  0  0  0  0  0
    4.6152    1.2298    0.1433 C   0  0  0  0  0  0  0  0  0  0  0  0
    0.6163    1.6798    0.2537 H   0  0  0  0  0  0  0  0  0  0  0  0
   -1.9228   -1.8848    1.0975 H   0  0  0  0  0  0  0  0  0  0  0  0
   -1.6339    1.8389   -0.7951 H   0  0  0  0  0  0  0  0  0  0  0  0
   -0.0367   -2.5520   -0.3595 H   0  0  0  0  0  0  0  0  0  0  0  0
   -4.2516   -1.2003    0.7915 H   0  0  0  0  0  0  0  0  0  0  0  0
    2.3927   -2.9044   -0.4260 H   0  0  0  0  0  0  0  0  0  0  0  0
    3.9305   -1.0568   -0.1763 H   0  0  0  0  0  0  0  0  0  0  0  0
    4.9081    0.8329   -0.8347 H   0  0  0  0  0  0  0  0  0  0  0  0
    4.9248    0.5765    0.9661 H   0  0  0  0  0  0  0  0  0  0  0  0
    5.1434    2.1799    0.2736 H   0  0  0  0  0  0  0  0  0  0  0  0
  1 10  1  0  0  0  0
  1 14  1  0  0  0  0
  2 11  2  0  0  0  0
  3  4  1  0  0  0  0
  3  6  1  0  0  0  0
  3 16  1  0  0  0  0
  4 11  1  0  0  0  0
  4 19  1  0  0  0  0
  5  6  1  0  0  0  0
  5  7  2  0  0  0  0
  5  9  1  0  0  0  0
  6  8  2  0  0  0  0
  7 10  1  0  0  0  0
  7 15  1  0  0  0  0
  8 11  1  0  0  0  0
  8 17  1  0  0  0  0
  9 12  2  0  0  0  0
  9 18  1  0  0  0  0
 10 13  2  0  0  0  0
 12 13  1  0  0  0  0
 12 20  1  0  0  0  0
 13 21  1  0  0  0  0
 14 22  1  0  0  0  0
 14 23  1  0  0  0  0
 14 24  1  0  0  0  0
M  END
> <PUBCHEM_COMPOUND_CID>
1519685

> <PUBCHEM_CONFORMER_RMSD>
0.6

> <PUBCHEM_CONFORMER_DIVERSEORDER>
1
4
3
2

> <PUBCHEM_MMFF94_PARTIAL_CHARGES>
21
1 -0.36
10 0.08
11 0.62
12 -0.15
13 -0.15
14 0.28
15 0.15
16 0.4
17 0.15
18 0.15
19 0.37
2 -0.57
20 0.15
21 0.15
3 -0.52
4 -0.41
5 0.03
6 0.07
7 -0.15
8 -0.14
9 -0.15

> <PUBCHEM_EFFECTIVE_ROTOR_COUNT>
2

> <PUBCHEM_PHARMACOPHORE_FEATURES>
6
1 1 acceptor
1 2 acceptor
1 3 donor
1 4 donor
5 3 4 6 8 11 rings
6 5 7 9 10 12 13 rings

> <PUBCHEM_HEAVY_ATOM_COUNT>
14

> <PUBCHEM_ATOM_DEF_STEREO_COUNT>
0

> <PUBCHEM_ATOM_UDEF_STEREO_COUNT>
0

> <PUBCHEM_BOND_DEF_STEREO_COUNT>
0

> <PUBCHEM_BOND_UDEF_STEREO_COUNT>
0

> <PUBCHEM_ISOTOPIC_ATOM_COUNT>
0

> <PUBCHEM_COMPONENT_COUNT>
1

> <PUBCHEM_CACTVS_TAUTO_COUNT>
5

> <PUBCHEM_CONFORMER_ID>
0017304500000001

> <PUBCHEM_MMFF94_ENERGY>
56.8822

> <PUBCHEM_FEATURE_SELFOVERLAP>
32.051

> <PUBCHEM_SHAPE_FINGERPRINT>
10608611 8 18336544928358394973
10980938 120 18342175566085230726
11132069 177 18114181942972144621
11471102 20 18341891857677917092
11543360 7 14692286304773118120
12932764 1 17274812567309692419
13214271 11 18335137630926418085
13380535 76 18410011078533156010
14123255 52 18270395117939786648
14325111 11 18410856572529979207
14415576 193 18410858737383550100
14897335 6 18413102870506525567
14993402 34 16128653059161128173
15196674 1 18410293605396714703
15219456 202 18408889520605920171
15375358 24 18334011683627287433
15442244 35 17909271286546719608
15536298 74 18343022164432299430
15775835 57 18202282532529477750
16945 1 18196376922480497546
18175812 5 18334577919046256039
18186145 218 18130520685850293704
200 152 17988635290497529927
20201158 50 18339362946600998855
20279233 1 18333735710535428955
20645477 56 18259985955586931405
20645477 70 18200593596764989711
21524375 3 18340484590469369350
23402539 116 18041268963067924340
23402655 69 18200868487983986365
23559900 14 18268144267240319698
25 1 18341610430167405676
2748010 2 18409459080403467742
3071541 37 18409454661609893086
3545911 37 18409733958547613021
449060 50 18409171008726073533
449060 62 18343021068835863224
4990 188 17846228769271533100
5104073 3 18335706005402520443
53812653 166 18343299314392786880
7364860 26 18341613647172185718
81539 233 18408322190144618206
9709674 26 18409454686900109939

> <PUBCHEM_SHAPE_MULTIPOLES>
266.41
7.67
1.76
0.65
1.3
0.37
-0.01
-3.68
0.23
-0.89
-0.07
0.06
0.03
0.52

> <PUBCHEM_SHAPE_SELFOVERLAP>
574.928

> <PUBCHEM_SHAPE_VOLUME>
148.5

> <PUBCHEM_COORDINATE_TYPE>
2
5
10

$$$$
