6497814
  -OEChem-01171812073D

 47 49  0     0  0  0  0  0  0999 V2000
    4.5455    0.5470    1.0050 S   0  0  0  0  0  0  0  0  0  0  0  0
    0.0388   -2.0485   -1.3205 S   0  0  0  0  0  0  0  0  0  0  0  0
   -0.7012    1.8316   -1.8217 O   0  0  0  0  0  0  0  0  0  0  0  0
    3.9638   -2.7762    1.0549 O   0  0  0  0  0  0  0  0  0  0  0  0
    2.1904    1.8742    0.6710 N   0  0  0  0  0  0  0  0  0  0  0  0
   -1.7345    1.8950    0.2914 N   0  0  0  0  0  0  0  0  0  0  0  0
    2.4006    2.7601   -1.3187 N   0  0  0  0  0  0  0  0  0  0  0  0
    3.5506    2.0513   -1.0336 N   0  0  0  0  0  0  0  0  0  0  0  0
    2.5058   -1.7240   -0.4647 N   0  0  0  0  0  0  0  0  0  0  0  0
    1.1823   -3.5443    0.4179 N   0  0  0  0  0  0  0  0  0  0  0  0
   -0.0919   -4.0608    0.2602 N   0  0  0  0  0  0  0  0  0  0  0  0
    0.2537    3.2276   -0.1335 C   0  0  0  0  0  0  0  0  0  0  0  0
    1.6246    2.6300   -0.2883 C   0  0  0  0  0  0  0  0  0  0  0  0
   -2.8177    1.0243    0.1487 C   0  0  0  0  0  0  0  0  0  0  0  0
   -3.6861    0.7822    1.2130 C   0  0  0  0  0  0  0  0  0  0  0  0
   -0.7756    2.2460   -0.6677 C   0  0  0  0  0  0  0  0  0  0  0  0
    3.4055    1.5281    0.1627 C   0  0  0  0  0  0  0  0  0  0  0  0
   -4.9694   -0.7213   -0.1762 C   0  0  0  0  0  0  0  0  0  0  0  0
   -4.7619   -0.0907    1.0505 C   0  0  0  0  0  0  0  0  0  0  0  0
   -3.0250    0.3935   -1.0781 C   0  0  0  0  0  0  0  0  0  0  0  0
   -4.1010   -0.4793   -1.2405 C   0  0  0  0  0  0  0  0  0  0  0  0
    1.6260    1.5151    1.9514 C   0  0  0  0  0  0  0  0  0  0  0  0
   -3.4880    1.4438    2.5380 C   0  0  0  0  0  0  0  0  0  0  0  0
   -6.1196   -1.6545   -0.3503 C   0  0  0  0  0  0  0  0  0  0  0  0
    4.7233   -0.8570   -0.1342 C   0  0  0  0  0  0  0  0  0  0  0  0
    3.6965   -1.9093    0.2270 C   0  0  0  0  0  0  0  0  0  0  0  0
    1.3563   -2.5098   -0.3462 C   0  0  0  0  0  0  0  0  0  0  0  0
   -0.7920   -3.3742   -0.6173 C   0  0  0  0  0  0  0  0  0  0  0  0
    0.1818    4.1402   -0.7369 H   0  0  0  0  0  0  0  0  0  0  0  0
    0.0560    3.5194    0.9022 H   0  0  0  0  0  0  0  0  0  0  0  0
   -1.6357    2.3304    1.2040 H   0  0  0  0  0  0  0  0  0  0  0  0
   -5.4410   -0.2845    1.8775 H   0  0  0  0  0  0  0  0  0  0  0  0
   -2.4043    0.5266   -1.9520 H   0  0  0  0  0  0  0  0  0  0  0  0
    1.8781    2.3021    2.6663 H   0  0  0  0  0  0  0  0  0  0  0  0
    2.0262    0.5554    2.2846 H   0  0  0  0  0  0  0  0  0  0  0  0
    0.5436    1.4114    1.8658 H   0  0  0  0  0  0  0  0  0  0  0  0
   -4.2518   -0.9667   -2.2002 H   0  0  0  0  0  0  0  0  0  0  0  0
   -2.5170    1.1700    2.9640 H   0  0  0  0  0  0  0  0  0  0  0  0
   -3.5510    2.5326    2.4383 H   0  0  0  0  0  0  0  0  0  0  0  0
   -4.2534    1.1418    3.2614 H   0  0  0  0  0  0  0  0  0  0  0  0
   -6.9750   -1.3438    0.2592 H   0  0  0  0  0  0  0  0  0  0  0  0
   -6.4594   -1.6753   -1.3914 H   0  0  0  0  0  0  0  0  0  0  0  0
   -5.8284   -2.6681   -0.0570 H   0  0  0  0  0  0  0  0  0  0  0  0
    4.6317   -0.5476   -1.1801 H   0  0  0  0  0  0  0  0  0  0  0  0
    5.7203   -1.2913   -0.0071 H   0  0  0  0  0  0  0  0  0  0  0  0
    2.4287   -0.9536   -1.1234 H   0  0  0  0  0  0  0  0  0  0  0  0
   -1.8117   -3.6233   -0.8752 H   0  0  0  0  0  0  0  0  0  0  0  0
  1 17  1  0  0  0  0
  1 25  1  0  0  0  0
  2 27  1  0  0  0  0
  2 28  1  0  0  0  0
  3 16  2  0  0  0  0
  4 26  2  0  0  0  0
  5 13  1  0  0  0  0
  5 17  1  0  0  0  0
  5 22  1  0  0  0  0
  6 14  1  0  0  0  0
  6 16  1  0  0  0  0
  6 31  1  0  0  0  0
  7  8  1  0  0  0  0
  7 13  2  0  0  0  0
  8 17  2  0  0  0  0
  9 26  1  0  0  0  0
  9 27  1  0  0  0  0
  9 46  1  0  0  0  0
 10 11  1  0  0  0  0
 10 27  2  0  0  0  0
 11 28  2  0  0  0  0
 12 13  1  0  0  0  0
 12 16  1  0  0  0  0
 12 29  1  0  0  0  0
 12 30  1  0  0  0  0
 14 15  2  0  0  0  0
 14 20  1  0  0  0  0
 15 19  1  0  0  0  0
 15 23  1  0  0  0  0
 18 19  2  0  0  0  0
 18 21  1  0  0  0  0
 18 24  1  0  0  0  0
 19 32  1  0  0  0  0
 20 21  2  0  0  0  0
 20 33  1  0  0  0  0
 21 37  1  0  0  0  0
 22 34  1  0  0  0  0
 22 35  1  0  0  0  0
 22 36  1  0  0  0  0
 23 38  1  0  0  0  0
 23 39  1  0  0  0  0
 23 40  1  0  0  0  0
 24 41  1  0  0  0  0
 24 42  1  0  0  0  0
 24 43  1  0  0  0  0
 25 26  1  0  0  0  0
 25 44  1  0  0  0  0
 25 45  1  0  0  0  0
 28 47  1  0  0  0  0
M  END
> <PUBCHEM_COMPOUND_CID>
6497814

> <PUBCHEM_CONFORMER_RMSD>
1.2

> <PUBCHEM_CONFORMER_DIVERSEORDER>
1
57
155
168
182
29
16
223
200
142
206
48
172
105
175
230
129
24
252
45
136
55
100
158
137
201
96
43
261
192
257
227
34
186
162
134
19
214
11
131
216
170
30
44
143
33
205
71
232
215
20
157
128
59
177
246
77
253
194
107
188
204
185
236
198
85
103
152
159
154
258
169
241
121
122
171
88
147
115
23
218
98
184
52
219
40
189
58
222
235
247
225
126
54
76
251
237
138
255
233
146
67
21
106
153
210
32
220
145
56
90
39
86
211
81
117
102
80
262
25
173
13
50
203
108
83
70
14
4
174
28
181
244
74
176
197
130
151
78
224
132
250
239
66
148
245
124
75
199
178
63
133
167
10
243
231
5
123
179
120
248
101
93
180
127
69
240
112
163
113
15
208
17
53
51
161
254
125
79
196
73
229
193
202
156
82
104
37
140
8
31
183
209
92
87
114
49
217
27
191
38
91
226
26
99
46
213
164
207
221
260
259
84
190
118
212
165
89
135
64
149
139
109
228
94
195
9
35
60
150
72
110
47
6
119
166
111
238
2
144
42
22
62
234
61
97
160
95
187
242
116
141
36
18
3
256
65
68
7
12
249
41

> <PUBCHEM_MMFF94_PARTIAL_CHARGES>
34
1 -0.29
10 -0.34
11 -0.34
12 0.24
13 0.01
14 0.12
15 -0.14
16 0.57
17 0.24
18 -0.14
19 -0.15
2 -0.08
20 -0.15
21 -0.15
22 0.26
23 0.14
24 0.14
25 0.29
26 0.57
27 0.44
28 0.23
3 -0.57
31 0.37
32 0.15
33 0.15
37 0.15
4 -0.57
46 0.37
47 0.15
5 0.05
6 -0.55
7 -0.34
8 -0.34
9 -0.49

> <PUBCHEM_EFFECTIVE_ROTOR_COUNT>
9

> <PUBCHEM_PHARMACOPHORE_FEATURES>
10
1 11 acceptor
1 3 acceptor
1 4 acceptor
1 6 donor
1 9 donor
3 5 7 13 cation
3 5 8 17 cation
5 2 10 11 27 28 rings
5 5 7 8 13 17 rings
6 14 15 18 19 20 21 rings

> <PUBCHEM_HEAVY_ATOM_COUNT>
28

> <PUBCHEM_ATOM_DEF_STEREO_COUNT>
0

> <PUBCHEM_ATOM_UDEF_STEREO_COUNT>
0

> <PUBCHEM_BOND_DEF_STEREO_COUNT>
0

> <PUBCHEM_BOND_UDEF_STEREO_COUNT>
0

> <PUBCHEM_ISOTOPIC_ATOM_COUNT>
0

> <PUBCHEM_COMPONENT_COUNT>
1

> <PUBCHEM_CACTVS_TAUTO_COUNT>
6

> <PUBCHEM_CONFORMER_ID>
0063261600000001

> <PUBCHEM_MMFF94_ENERGY>
57.1652

> <PUBCHEM_FEATURE_SELFOVERLAP>
53.304

> <PUBCHEM_SHAPE_FINGERPRINT>
10675989 125 16970813279055912239
10708813 3 18343023293818768103
1100329 8 18338231682237909790
12156800 1 16595956638132651150
12596602 18 17489872652204397848
13122387 1 18123181304054027606
13383661 66 17844544214474335806
13402501 40 18408881832488009166
1361 2 18408885174220394803
14747281 78 17096908210872177837
14784336 7 17843392132609567961
152267 14 17472691430132521051
17138139 8 17627495375022184783
19591789 44 18411131399235062398
19930381 70 18337108964991374075
20028762 73 18272650164300790590
20645477 70 18041273378437502501
20764821 26 18264216965892040850
338550 245 18265329688875824519
3737641 26 18054798290903440766
373842 8 18047755085889198179
392239 28 18338518521438907826
437795 70 18129404694844973926
445580 102 18121494648842956614
463206 1 18342453798377333811
5309563 4 18409446947189337285
6287921 2 17987531316225088959

> <PUBCHEM_SHAPE_MULTIPOLES>
537.32
10.63
4.75
1.59
6.8
2.91
0.47
2
1.86
-2.91
-0.32
0.71
-0.8
-1.4

> <PUBCHEM_SHAPE_SELFOVERLAP>
1113.98

> <PUBCHEM_SHAPE_VOLUME>
310.8

> <PUBCHEM_COORDINATE_TYPE>
2
5
10

$$$$
