936738
  -OEChem-01171811493D

 34 35  0     0  0  0  0  0  0999 V2000
   -3.1582   -0.1468    0.2619 N   0  0  0  0  0  0  0  0  0  0  0  0
   -0.3155   -0.0856   -0.0105 N   0  0  0  0  0  0  0  0  0  0  0  0
    5.3072    0.1463   -0.0522 N   0  0  0  0  0  0  0  0  0  0  0  0
   -2.5180    0.8259   -0.6317 C   0  0  0  0  0  0  0  0  0  0  0  0
   -2.3839   -1.3941    0.2793 C   0  0  0  0  0  0  0  0  0  0  0  0
   -1.0949    1.1461   -0.1677 C   0  0  0  0  0  0  0  0  0  0  0  0
   -0.9570   -1.1475    0.7748 C   0  0  0  0  0  0  0  0  0  0  0  0
   -4.5345   -0.4036   -0.1606 C   0  0  0  0  0  0  0  0  0  0  0  0
    1.0827   -0.0282   -0.0200 C   0  0  0  0  0  0  0  0  0  0  0  0
   -5.3441    0.8780   -0.1099 C   0  0  0  0  0  0  0  0  0  0  0  0
    1.7652    1.1152    0.4409 C   0  0  0  0  0  0  0  0  0  0  0  0
    1.8502   -1.1119   -0.4917 C   0  0  0  0  0  0  0  0  0  0  0  0
    3.1588    1.1727    0.4304 C   0  0  0  0  0  0  0  0  0  0  0  0
    3.2438   -1.0544   -0.5020 C   0  0  0  0  0  0  0  0  0  0  0  0
    3.8982    0.0879   -0.0410 C   0  0  0  0  0  0  0  0  0  0  0  0
   -3.0494    1.7826   -0.6431 H   0  0  0  0  0  0  0  0  0  0  0  0
   -2.4929    0.4492   -1.6632 H   0  0  0  0  0  0  0  0  0  0  0  0
   -2.3518   -1.8452   -0.7218 H   0  0  0  0  0  0  0  0  0  0  0  0
   -2.8578   -2.1210    0.9501 H   0  0  0  0  0  0  0  0  0  0  0  0
   -0.6327    1.8034   -0.9148 H   0  0  0  0  0  0  0  0  0  0  0  0
   -1.1304    1.6887    0.7859 H   0  0  0  0  0  0  0  0  0  0  0  0
   -0.9695   -0.8558    1.8330 H   0  0  0  0  0  0  0  0  0  0  0  0
   -0.4045   -2.0917    0.7065 H   0  0  0  0  0  0  0  0  0  0  0  0
   -4.5833   -0.8374   -1.1672 H   0  0  0  0  0  0  0  0  0  0  0  0
   -4.9950   -1.1224    0.5282 H   0  0  0  0  0  0  0  0  0  0  0  0
   -5.1932    1.4216    0.8292 H   0  0  0  0  0  0  0  0  0  0  0  0
   -5.1278    1.5468   -0.9485 H   0  0  0  0  0  0  0  0  0  0  0  0
   -6.4111    0.6364   -0.1756 H   0  0  0  0  0  0  0  0  0  0  0  0
    1.2234    1.9750    0.8272 H   0  0  0  0  0  0  0  0  0  0  0  0
    1.3617   -2.0079   -0.8682 H   0  0  0  0  0  0  0  0  0  0  0  0
    3.6575    2.0673    0.7946 H   0  0  0  0  0  0  0  0  0  0  0  0
    3.8088   -1.9051   -0.8745 H   0  0  0  0  0  0  0  0  0  0  0  0
    5.8438   -0.6403   -0.3926 H   0  0  0  0  0  0  0  0  0  0  0  0
    5.7822    0.9738    0.2831 H   0  0  0  0  0  0  0  0  0  0  0  0
  1  4  1  0  0  0  0
  1  5  1  0  0  0  0
  1  8  1  0  0  0  0
  2  6  1  0  0  0  0
  2  7  1  0  0  0  0
  2  9  1  0  0  0  0
  3 15  1  0  0  0  0
  3 33  1  0  0  0  0
  3 34  1  0  0  0  0
  4  6  1  0  0  0  0
  4 16  1  0  0  0  0
  4 17  1  0  0  0  0
  5  7  1  0  0  0  0
  5 18  1  0  0  0  0
  5 19  1  0  0  0  0
  6 20  1  0  0  0  0
  6 21  1  0  0  0  0
  7 22  1  0  0  0  0
  7 23  1  0  0  0  0
  8 10  1  0  0  0  0
  8 24  1  0  0  0  0
  8 25  1  0  0  0  0
  9 11  2  0  0  0  0
  9 12  1  0  0  0  0
 10 26  1  0  0  0  0
 10 27  1  0  0  0  0
 10 28  1  0  0  0  0
 11 13  1  0  0  0  0
 11 29  1  0  0  0  0
 12 14  2  0  0  0  0
 12 30  1  0  0  0  0
 13 15  2  0  0  0  0
 13 31  1  0  0  0  0
 14 15  1  0  0  0  0
 14 32  1  0  0  0  0
M  END
> <PUBCHEM_COMPOUND_CID>
936738

> <PUBCHEM_CONFORMER_RMSD>
0.6

> <PUBCHEM_CONFORMER_DIVERSEORDER>
1
4
5
9
2
3
7
8
11
10
6

> <PUBCHEM_MMFF94_PARTIAL_CHARGES>
20
1 -0.81
11 -0.15
12 -0.15
13 -0.15
14 -0.15
15 0.1
2 -0.84
29 0.15
3 -0.9
30 0.15
31 0.15
32 0.15
33 0.4
34 0.4
4 0.27
5 0.27
6 0.37
7 0.37
8 0.27
9 0.1

> <PUBCHEM_EFFECTIVE_ROTOR_COUNT>
3.2

> <PUBCHEM_PHARMACOPHORE_FEATURES>
6
1 1 cation
1 2 cation
1 3 cation
1 3 donor
6 1 2 4 5 6 7 rings
6 9 11 12 13 14 15 rings

> <PUBCHEM_HEAVY_ATOM_COUNT>
15

> <PUBCHEM_ATOM_DEF_STEREO_COUNT>
0

> <PUBCHEM_ATOM_UDEF_STEREO_COUNT>
0

> <PUBCHEM_BOND_DEF_STEREO_COUNT>
0

> <PUBCHEM_BOND_UDEF_STEREO_COUNT>
0

> <PUBCHEM_ISOTOPIC_ATOM_COUNT>
0

> <PUBCHEM_COMPONENT_COUNT>
1

> <PUBCHEM_CACTVS_TAUTO_COUNT>
1

> <PUBCHEM_CONFORMER_ID>
000E4B2200000001

> <PUBCHEM_MMFF94_ENERGY>
54.7083

> <PUBCHEM_FEATURE_SELFOVERLAP>
30.449

> <PUBCHEM_SHAPE_FINGERPRINT>
10608611 8 18410570703997299832
11401426 45 18408321090601179375
11471102 20 18273215300681974712
12119455 92 17989486325118573455
12500047 106 18409165549511676827
12815109 37 18342457040887725182
13533116 47 13470416517336825245
14115302 16 17968106342806760694
15048467 5 17822015337211098508
15196674 1 18338234976287460217
15219456 202 18412545443907316690
15242439 84 18411702088381797870
15375358 24 18411139147124059567
17834072 33 17846774144166024877
17834076 25 18260830401437661087
18175812 5 18339643442229869910
18186145 218 18261103067795176285
18522853 276 18272651238232063504
200 152 17632576054522880323
20201158 50 18413392033659396778
20279233 1 18410862065904167430
20528008 55 18412262856697632619
20645477 56 18261110772945490757
20645477 70 18130509621994012398
21267235 1 18412272734980079558
22485316 2 18272650151705473415
23402539 116 18409160026373229215
23402655 69 18272930501316278517
23557571 272 18338243772734332579
23559900 14 18408323285440451730
26918003 58 18272088305210370682
351380 180 18411134740381871938
3545911 37 18411702088381791381
366044 4 18260547823055600459
4028521 119 18261385629493642957
4047638 21 18335421266218937464
4072396 5 18342164545753206378
42788 4 18411418414598174469
474 4 15358841083096207732
4990 188 18413390921368336239
5104073 3 18410292561735506499
542803 24 16443067200805465036
69090 78 18413666924630727231
7364860 26 18263075514193735650
77779 3 18343021094927322933
8272917 22 17631742564621896847
8809292 202 18261959647240383882
9709674 26 18411987965769188991

> <PUBCHEM_SHAPE_MULTIPOLES>
293.75
10.1
1.38
0.75
2.67
0.08
0.01
-1.24
-0.63
0.08
0.06
0
0.04
0.61

> <PUBCHEM_SHAPE_SELFOVERLAP>
603.901

> <PUBCHEM_SHAPE_VOLUME>
167.3

> <PUBCHEM_COORDINATE_TYPE>
2
5
10

$$$$
