5195681
  -OEChem-01171811453D

 60 64  0     1  0  0  0  0  0999 V2000
    2.4267    1.7617    0.5770 O   0  0  0  0  0  0  0  0  0  0  0  0
   -2.0452    1.6015   -3.0307 O   0  0  0  0  0  0  0  0  0  0  0  0
   -4.8662   -0.2686    0.3578 O   0  0  0  0  0  0  0  0  0  0  0  0
   -4.5056    0.5982   -2.2477 O   0  0  0  0  0  0  0  0  0  0  0  0
    2.7394   -0.5271   -0.0008 N   0  0  0  0  0  0  0  0  0  0  0  0
    2.0841   -1.7051    0.0467 N   0  0  0  0  0  0  0  0  0  0  0  0
    2.0501    3.9437    1.2779 N   0  0  0  0  0  0  0  0  0  0  0  0
   -1.2662    4.0489    2.7222 N   0  0  0  0  0  0  0  0  0  0  0  0
   -0.2484    0.8745    1.4482 C   0  0  2  0  0  0  0  0  0  0  0  0
    0.7922   -0.0081    0.8610 C   0  0  0  0  0  0  0  0  0  0  0  0
    2.0055    0.5064    0.4871 C   0  0  0  0  0  0  0  0  0  0  0  0
   -1.3751    0.8011    0.4698 C   0  0  0  0  0  0  0  0  0  0  0  0
    0.8986   -1.3826    0.5810 C   0  0  0  0  0  0  0  0  0  0  0  0
    0.2874    2.3112    1.5877 C   0  0  0  0  0  0  0  0  0  0  0  0
    1.5344    2.6804    1.1698 C   0  0  0  0  0  0  0  0  0  0  0  0
   -0.0927   -2.4016    0.8117 C   0  0  0  0  0  0  0  0  0  0  0  0
   -2.6103    0.2951    0.8697 C   0  0  0  0  0  0  0  0  0  0  0  0
   -1.1875    1.2382   -0.8400 C   0  0  0  0  0  0  0  0  0  0  0  0
    4.0380   -0.4631   -0.5020 C   0  0  0  0  0  0  0  0  0  0  0  0
   -2.2393    1.1693   -1.7535 C   0  0  0  0  0  0  0  0  0  0  0  0
   -3.6621    0.2259   -0.0441 C   0  0  0  0  0  0  0  0  0  0  0  0
   -3.4766    0.6630   -1.3556 C   0  0  0  0  0  0  0  0  0  0  0  0
   -1.0222   -2.7023   -0.1813 C   0  0  0  0  0  0  0  0  0  0  0  0
   -0.1179   -3.0824    2.0265 C   0  0  0  0  0  0  0  0  0  0  0  0
   -0.5710    3.2713    2.2146 C   0  0  0  0  0  0  0  0  0  0  0  0
    4.4812    0.7032   -1.1138 C   0  0  0  0  0  0  0  0  0  0  0  0
    4.8752   -1.5657   -0.3836 C   0  0  0  0  0  0  0  0  0  0  0  0
   -1.9822   -3.6894    0.0419 C   0  0  0  0  0  0  0  0  0  0  0  0
   -1.0778   -4.0695    2.2497 C   0  0  0  0  0  0  0  0  0  0  0  0
    5.7814    0.7678   -1.6149 C   0  0  0  0  0  0  0  0  0  0  0  0
    6.1754   -1.5011   -0.8846 C   0  0  0  0  0  0  0  0  0  0  0  0
   -2.0100   -4.3729    1.2574 C   0  0  0  0  0  0  0  0  0  0  0  0
    6.6284   -0.3343   -1.5002 C   0  0  0  0  0  0  0  0  0  0  0  0
   -1.5844    0.6396   -3.9776 C   0  0  0  0  0  0  0  0  0  0  0  0
   -5.8064    0.6645    0.8863 C   0  0  0  0  0  0  0  0  0  0  0  0
   -5.0509   -0.6919   -2.5137 C   0  0  0  0  0  0  0  0  0  0  0  0
   -0.5315    0.4956    2.4385 H   0  0  0  0  0  0  0  0  0  0  0  0
   -2.7618   -0.0487    1.8899 H   0  0  0  0  0  0  0  0  0  0  0  0
   -0.2361    1.6435   -1.1751 H   0  0  0  0  0  0  0  0  0  0  0  0
   -1.0127   -2.1811   -1.1356 H   0  0  0  0  0  0  0  0  0  0  0  0
    0.6013   -2.8569    2.8102 H   0  0  0  0  0  0  0  0  0  0  0  0
    1.5087    4.6947    1.6857 H   0  0  0  0  0  0  0  0  0  0  0  0
    2.9876    4.1178    0.9386 H   0  0  0  0  0  0  0  0  0  0  0  0
    3.8473    1.5687   -1.2755 H   0  0  0  0  0  0  0  0  0  0  0  0
    4.5546   -2.4846    0.1002 H   0  0  0  0  0  0  0  0  0  0  0  0
   -2.7085   -3.9247   -0.7306 H   0  0  0  0  0  0  0  0  0  0  0  0
   -1.1000   -4.6015    3.1963 H   0  0  0  0  0  0  0  0  0  0  0  0
    6.1310    1.6718   -2.1050 H   0  0  0  0  0  0  0  0  0  0  0  0
    6.8360   -2.3585   -0.7939 H   0  0  0  0  0  0  0  0  0  0  0  0
   -2.7578   -5.1410    1.4315 H   0  0  0  0  0  0  0  0  0  0  0  0
    7.6401   -0.2848   -1.8923 H   0  0  0  0  0  0  0  0  0  0  0  0
   -0.6074    0.2460   -3.6791 H   0  0  0  0  0  0  0  0  0  0  0  0
   -2.3036   -0.1792   -4.0782 H   0  0  0  0  0  0  0  0  0  0  0  0
   -1.4807    1.1351   -4.9467 H   0  0  0  0  0  0  0  0  0  0  0  0
   -5.4096    1.1377    1.7901 H   0  0  0  0  0  0  0  0  0  0  0  0
   -6.7184    0.1208    1.1474 H   0  0  0  0  0  0  0  0  0  0  0  0
   -6.0546    1.4267    0.1410 H   0  0  0  0  0  0  0  0  0  0  0  0
   -4.3222   -1.4930   -2.3464 H   0  0  0  0  0  0  0  0  0  0  0  0
   -5.3517   -0.7197   -3.5652 H   0  0  0  0  0  0  0  0  0  0  0  0
   -5.9429   -0.8552   -1.9027 H   0  0  0  0  0  0  0  0  0  0  0  0
  1 11  1  0  0  0  0
  1 15  1  0  0  0  0
  2 20  1  0  0  0  0
  2 34  1  0  0  0  0
  3 21  1  0  0  0  0
  3 35  1  0  0  0  0
  4 22  1  0  0  0  0
  4 36  1  0  0  0  0
  5  6  1  0  0  0  0
  5 11  1  0  0  0  0
  5 19  1  0  0  0  0
  6 13  2  0  0  0  0
  7 15  1  0  0  0  0
  7 42  1  0  0  0  0
  7 43  1  0  0  0  0
  8 25  3  0  0  0  0
  9 10  1  0  0  0  0
  9 12  1  0  0  0  0
  9 14  1  0  0  0  0
  9 37  1  0  0  0  0
 10 11  2  0  0  0  0
 10 13  1  0  0  0  0
 12 17  2  0  0  0  0
 12 18  1  0  0  0  0
 13 16  1  0  0  0  0
 14 15  2  0  0  0  0
 14 25  1  0  0  0  0
 16 23  2  0  0  0  0
 16 24  1  0  0  0  0
 17 21  1  0  0  0  0
 17 38  1  0  0  0  0
 18 20  2  0  0  0  0
 18 39  1  0  0  0  0
 19 26  2  0  0  0  0
 19 27  1  0  0  0  0
 20 22  1  0  0  0  0
 21 22  2  0  0  0  0
 23 28  1  0  0  0  0
 23 40  1  0  0  0  0
 24 29  2  0  0  0  0
 24 41  1  0  0  0  0
 26 30  1  0  0  0  0
 26 44  1  0  0  0  0
 27 31  2  0  0  0  0
 27 45  1  0  0  0  0
 28 32  2  0  0  0  0
 28 46  1  0  0  0  0
 29 32  1  0  0  0  0
 29 47  1  0  0  0  0
 30 33  2  0  0  0  0
 30 48  1  0  0  0  0
 31 33  1  0  0  0  0
 31 49  1  0  0  0  0
 32 50  1  0  0  0  0
 33 51  1  0  0  0  0
 34 52  1  0  0  0  0
 34 53  1  0  0  0  0
 34 54  1  0  0  0  0
 35 55  1  0  0  0  0
 35 56  1  0  0  0  0
 35 57  1  0  0  0  0
 36 58  1  0  0  0  0
 36 59  1  0  0  0  0
 36 60  1  0  0  0  0
M  END
> <PUBCHEM_COMPOUND_CID>
5195681

> <PUBCHEM_CONFORMER_RMSD>
1

> <PUBCHEM_CONFORMER_DIVERSEORDER>
2
1
3

> <PUBCHEM_MMFF94_PARTIAL_CHARGES>
50
1 -0.14
10 -0.18
11 -0.09
12 -0.14
13 0.23
14 -0.07
15 0.18
16 0.05
17 -0.15
18 -0.15
19 -0.02
2 -0.36
20 0.08
21 0.08
22 0.08
23 -0.15
24 -0.15
25 0.49
26 -0.15
27 -0.15
28 -0.15
29 -0.15
3 -0.36
30 -0.15
31 -0.15
32 -0.15
33 -0.15
34 0.28
35 0.28
36 0.28
38 0.15
39 0.15
4 -0.36
40 0.15
41 0.15
42 0.4
43 0.4
44 0.15
45 0.15
46 0.15
47 0.15
48 0.15
49 0.15
5 0.59
50 0.15
51 0.15
6 -0.71
7 -0.9
8 -0.56
9 0.46

> <PUBCHEM_EFFECTIVE_ROTOR_COUNT>
6.4

> <PUBCHEM_PHARMACOPHORE_FEATURES>
13
1 1 acceptor
1 2 acceptor
1 3 acceptor
1 4 acceptor
1 6 acceptor
1 7 cation
1 7 donor
1 8 acceptor
5 5 6 10 11 13 rings
6 1 9 10 11 14 15 rings
6 12 17 18 20 21 22 rings
6 16 23 24 28 29 32 rings
6 19 26 27 30 31 33 rings

> <PUBCHEM_HEAVY_ATOM_COUNT>
36

> <PUBCHEM_ATOM_DEF_STEREO_COUNT>
0

> <PUBCHEM_ATOM_UDEF_STEREO_COUNT>
1

> <PUBCHEM_BOND_DEF_STEREO_COUNT>
0

> <PUBCHEM_BOND_UDEF_STEREO_COUNT>
0

> <PUBCHEM_ISOTOPIC_ATOM_COUNT>
0

> <PUBCHEM_COMPONENT_COUNT>
1

> <PUBCHEM_CACTVS_TAUTO_COUNT>
2

> <PUBCHEM_CONFORMER_ID>
004F47A100000002

> <PUBCHEM_MMFF94_ENERGY>
141.1515

> <PUBCHEM_FEATURE_SELFOVERLAP>
66.084

> <PUBCHEM_SHAPE_FINGERPRINT>
10032420 55 18270954631486978185
10119406 146 18053124839097759926
10165383 225 18187652379666347479
10581848 31 18335691707668252434
11115154 58 17418083318167295905
11445158 3 17464584984230022776
11578080 2 18120104037501947068
12156800 1 12155826469572305769
12293681 4 18201454566040657178
12788726 201 18058737883809440952
13149001 5 18340479071172461768
13540713 4 18124316270794756818
13911987 19 18336267842769760386
14040221 97 17903362855554175780
14114206 34 18128238026639129957
14279260 333 18128259983203043854
15274700 242 18196933258717072602
15324884 4 17896591972491695801
15775530 1 18051126196717625530
15815584 197 17404801187079821617
1813 80 17418370286032579636
19319366 153 17765169271452488016
19958102 18 18188214213119020886
20775438 99 17268026519014240031
22182313 1 18055351598892458416
23559900 14 18342459296542244896
3729539 64 18336265635357017370
4058900 60 18116439124722450881
4258327 124 17315385689405777006
44802255 64 17168726162820529134
5171179 24 17983862468945060370
57527306 92 17560524997910558825
7237137 82 18190762997120211798

> <PUBCHEM_SHAPE_MULTIPOLES>
697.46
10.88
4.74
2.89
11.61
2.66
1.88
0.69
7.76
-1.78
-4.46
-2.51
-1.75
1.15

> <PUBCHEM_SHAPE_SELFOVERLAP>
1553.651

> <PUBCHEM_SHAPE_VOLUME>
370.5

> <PUBCHEM_COORDINATE_TYPE>
2
5
10

$$$$
