9658379
  -OEChem-01171811503D

 25 26  0     0  0  0  0  0  0999 V2000
   -4.0445    1.0681    0.0009 O   0  0  0  0  0  0  0  0  0  0  0  0
    2.9259    0.6148   -0.0002 N   0  0  0  0  0  0  0  0  0  0  0  0
    0.5665    0.6135    0.0016 N   0  0  0  0  0  0  0  0  0  0  0  0
    3.3340   -1.5349    0.0008 N   0  0  0  0  0  0  0  0  0  0  0  0
    1.9657   -1.3513    0.0017 N   0  0  0  0  0  0  0  0  0  0  0  0
    3.1237    2.0150   -0.0013 N   0  0  0  0  0  0  0  0  0  0  0  0
   -0.6050   -0.0518    0.0004 N   0  0  0  0  0  0  0  0  0  0  0  0
    3.8918   -0.3452   -0.0006 C   0  0  0  0  0  0  0  0  0  0  0  0
    1.7855   -0.0821    0.0012 C   0  0  0  0  0  0  0  0  0  0  0  0
    5.3356   -0.0447   -0.0022 C   0  0  0  0  0  0  0  0  0  0  0  0
   -3.0143    0.1822    0.0002 C   0  0  0  0  0  0  0  0  0  0  0  0
   -1.6895    0.7020    0.0010 C   0  0  0  0  0  0  0  0  0  0  0  0
   -3.4876   -1.1092   -0.0015 C   0  0  0  0  0  0  0  0  0  0  0  0
   -4.8994   -1.0105   -0.0018 C   0  0  0  0  0  0  0  0  0  0  0  0
   -5.1883    0.3342   -0.0003 C   0  0  0  0  0  0  0  0  0  0  0  0
    5.6168    0.5289    0.8865 H   0  0  0  0  0  0  0  0  0  0  0  0
    5.9203   -0.9702   -0.0022 H   0  0  0  0  0  0  0  0  0  0  0  0
    5.6150    0.5279   -0.8921 H   0  0  0  0  0  0  0  0  0  0  0  0
    0.5586    1.6306    0.0015 H   0  0  0  0  0  0  0  0  0  0  0  0
    3.6466    2.3298   -0.8176 H   0  0  0  0  0  0  0  0  0  0  0  0
    3.6486    2.3308    0.8134 H   0  0  0  0  0  0  0  0  0  0  0  0
   -1.5883    1.8031    0.0025 H   0  0  0  0  0  0  0  0  0  0  0  0
   -2.8952   -2.0132   -0.0024 H   0  0  0  0  0  0  0  0  0  0  0  0
   -5.6167   -1.8185   -0.0030 H   0  0  0  0  0  0  0  0  0  0  0  0
   -6.1075    0.9016    0.0001 H   0  0  0  0  0  0  0  0  0  0  0  0
  1 11  1  0  0  0  0
  1 15  1  0  0  0  0
  2  6  1  0  0  0  0
  2  8  1  0  0  0  0
  2  9  1  0  0  0  0
  3  7  1  0  0  0  0
  3  9  1  0  0  0  0
  3 19  1  0  0  0  0
  4  5  1  0  0  0  0
  4  8  2  0  0  0  0
  5  9  2  0  0  0  0
  6 20  1  0  0  0  0
  6 21  1  0  0  0  0
  7 12  2  0  0  0  0
  8 10  1  0  0  0  0
 10 16  1  0  0  0  0
 10 17  1  0  0  0  0
 10 18  1  0  0  0  0
 11 12  1  0  0  0  0
 11 13  2  0  0  0  0
 12 22  1  0  0  0  0
 13 14  1  0  0  0  0
 13 23  1  0  0  0  0
 14 15  2  0  0  0  0
 14 24  1  0  0  0  0
 15 25  1  0  0  0  0
M  END
> <PUBCHEM_COMPOUND_CID>
9658379

> <PUBCHEM_CONFORMER_RMSD>
0.6

> <PUBCHEM_CONFORMER_DIVERSEORDER>
1
26
21
8
9
13
18
14
6
25
20
24
4
5
19
23
22
3
10
17
15
2
16
7
11
12

> <PUBCHEM_MMFF94_PARTIAL_CHARGES>
22
1 -0.28
10 0.18
11 0.05
12 0.47
13 -0.15
14 -0.15
15 -0.01
19 0.4
2 0.45
20 0.36
21 0.36
22 0.06
23 0.15
24 0.15
25 0.15
3 -0.44
4 -0.34
5 -0.34
6 -0.87
7 -0.49
8 0.01
9 0.27

> <PUBCHEM_EFFECTIVE_ROTOR_COUNT>
3

> <PUBCHEM_PHARMACOPHORE_FEATURES>
7
1 1 acceptor
1 3 donor
1 6 donor
1 7 acceptor
4 2 3 5 9 cation
5 1 11 13 14 15 rings
5 2 4 5 8 9 rings

> <PUBCHEM_HEAVY_ATOM_COUNT>
15

> <PUBCHEM_ATOM_DEF_STEREO_COUNT>
0

> <PUBCHEM_ATOM_UDEF_STEREO_COUNT>
0

> <PUBCHEM_BOND_DEF_STEREO_COUNT>
1

> <PUBCHEM_BOND_UDEF_STEREO_COUNT>
0

> <PUBCHEM_ISOTOPIC_ATOM_COUNT>
0

> <PUBCHEM_COMPONENT_COUNT>
1

> <PUBCHEM_CACTVS_TAUTO_COUNT>
2

> <PUBCHEM_CONFORMER_ID>
0093600B00000001

> <PUBCHEM_MMFF94_ENERGY>
14.3434

> <PUBCHEM_FEATURE_SELFOVERLAP>
35.522

> <PUBCHEM_SHAPE_FINGERPRINT>
10680689 15 17603304847916421701
12107183 9 17691972557476586801
12815109 37 18408603651972546263
13167823 11 18412261740180481839
14123238 8 18260266347630243351
14252887 29 17560808706022316974
15242433 33 18410856551319172727
15477762 27 18411139104759715198
17834072 33 18412263973246685413
17834076 25 17240203235343735091
18186145 218 17675918807300802569
200 152 18272932717508730363
20279233 1 17894920623995142843
20645477 56 18041838407914406285
20645477 70 18339643343377608966
21267235 1 18411990164834226655
22485316 2 18410008827970058983
23402539 116 17603862291030614837
23402655 69 18410855438679712164
23557571 272 17458621185952651541
23559900 14 18410288142393824537
26918003 58 18411417310817907851
300161 21 18409441471390618057
3268164 11 16515957104224768815
33824 294 18335138661840505562
42 15 18410013230290289071
4214541 1 18410856530102837985
42788 4 18410573985156725892
5104073 3 18410575102254490145
542803 24 17312825969815884757
77779 3 18411138035028002345
9709674 26 18410863148389355079

> <PUBCHEM_SHAPE_MULTIPOLES>
272.94
12.57
1.38
0.57
2.4
0.09
0
-0.93
0.01
-0.5
0
0.05
-0.01
0

> <PUBCHEM_SHAPE_SELFOVERLAP>
578.462

> <PUBCHEM_SHAPE_VOLUME>
154.3

> <PUBCHEM_COORDINATE_TYPE>
2
5
10

$$$$
