24980873
  -OEChem-01171812123D

 66 68  0     0  0  0  0  0  0999 V2000
    2.3344   -1.5638   -0.3643 O   0  0  0  0  0  0  0  0  0  0  0  0
   -1.7751   -2.5500    0.9071 O   0  0  0  0  0  0  0  0  0  0  0  0
   -4.1153    0.1721   -2.0371 O   0  0  0  0  0  0  0  0  0  0  0  0
   -5.3112    0.7497    0.4039 O   0  0  0  0  0  0  0  0  0  0  0  0
    2.4448    0.9221   -1.9608 O   0  0  0  0  0  0  0  0  0  0  0  0
    0.5107    3.4915    1.3803 O   0  0  0  0  0  0  0  0  0  0  0  0
    3.0203    2.2525   -0.1269 N   0  0  0  0  0  0  0  0  0  0  0  0
   -0.0901    2.3952   -0.6087 N   0  0  0  0  0  0  0  0  0  0  0  0
   -1.4402   -1.5190    1.7765 N   0  0  0  0  0  0  0  0  0  0  0  0
    4.0755    0.0722   -0.5823 C   0  0  0  0  0  0  0  0  0  0  0  0
    2.0954    3.3435   -0.4264 C   0  0  0  0  0  0  0  0  0  0  0  0
    0.4473   -2.3830    0.8396 C   0  0  0  0  0  0  0  0  0  0  0  0
    1.8926   -2.6056    0.5034 C   0  0  0  0  0  0  0  0  0  0  0  0
    3.6541   -1.2287   -0.3069 C   0  0  0  0  0  0  0  0  0  0  0  0
    3.1173    1.1091   -0.9391 C   0  0  0  0  0  0  0  0  0  0  0  0
   -0.6428   -3.0566    0.3554 C   0  0  0  0  0  0  0  0  0  0  0  0
   -0.1079   -1.4378    1.7195 C   0  0  0  0  0  0  0  0  0  0  0  0
    0.7554    3.1000    0.2438 C   0  0  0  0  0  0  0  0  0  0  0  0
   -1.4179    1.9766   -0.3548 C   0  0  0  0  0  0  0  0  0  0  0  0
    5.4313    0.3944   -0.5176 C   0  0  0  0  0  0  0  0  0  0  0  0
    3.8349    2.4264    1.0675 C   0  0  0  0  0  0  0  0  0  0  0  0
    4.5881   -2.2072    0.0334 C   0  0  0  0  0  0  0  0  0  0  0  0
   -3.4338    0.8585   -1.0779 C   0  0  0  0  0  0  0  0  0  0  0  0
   -2.1255    1.2721   -1.3289 C   0  0  0  0  0  0  0  0  0  0  0  0
   -4.0345    1.1494    0.1469 C   0  0  0  0  0  0  0  0  0  0  0  0
   -2.0182    2.2673    0.8705 C   0  0  0  0  0  0  0  0  0  0  0  0
    6.3656   -0.5841   -0.1778 C   0  0  0  0  0  0  0  0  0  0  0  0
    5.9439   -1.8849    0.0979 C   0  0  0  0  0  0  0  0  0  0  0  0
   -3.3267    1.8538    1.1211 C   0  0  0  0  0  0  0  0  0  0  0  0
   -0.8192   -4.1635   -0.5941 C   0  0  0  0  0  0  0  0  0  0  0  0
    0.5956   -0.4307    2.5307 C   0  0  0  0  0  0  0  0  0  0  0  0
   -3.5564   -1.0674   -2.4678 C   0  0  0  0  0  0  0  0  0  0  0  0
   -5.5054   -0.1254    1.5133 C   0  0  0  0  0  0  0  0  0  0  0  0
   -4.6775   -1.9958   -2.8836 C   0  0  0  0  0  0  0  0  0  0  0  0
   -6.7092   -1.0030    1.2441 C   0  0  0  0  0  0  0  0  0  0  0  0
    2.5141    4.2940   -0.0782 H   0  0  0  0  0  0  0  0  0  0  0  0
    1.9701    3.4201   -1.5123 H   0  0  0  0  0  0  0  0  0  0  0  0
    2.4487   -2.6167    1.4505 H   0  0  0  0  0  0  0  0  0  0  0  0
    2.0193   -3.5720    0.0017 H   0  0  0  0  0  0  0  0  0  0  0  0
    5.7835    1.3957   -0.7515 H   0  0  0  0  0  0  0  0  0  0  0  0
    4.7253    3.0039    0.8033 H   0  0  0  0  0  0  0  0  0  0  0  0
    4.1217    1.4761    1.5218 H   0  0  0  0  0  0  0  0  0  0  0  0
    3.2660    2.9819    1.8201 H   0  0  0  0  0  0  0  0  0  0  0  0
    0.2705    2.1341   -1.5238 H   0  0  0  0  0  0  0  0  0  0  0  0
    4.3102   -3.2389    0.2267 H   0  0  0  0  0  0  0  0  0  0  0  0
   -1.6583    1.0526   -2.2860 H   0  0  0  0  0  0  0  0  0  0  0  0
   -1.5355    2.8074    1.6725 H   0  0  0  0  0  0  0  0  0  0  0  0
    7.4219   -0.3351   -0.1343 H   0  0  0  0  0  0  0  0  0  0  0  0
    6.6725   -2.6483    0.3548 H   0  0  0  0  0  0  0  0  0  0  0  0
   -3.7850    2.0932    2.0769 H   0  0  0  0  0  0  0  0  0  0  0  0
   -0.1801   -4.0275   -1.4721 H   0  0  0  0  0  0  0  0  0  0  0  0
   -1.8549   -4.2293   -0.9427 H   0  0  0  0  0  0  0  0  0  0  0  0
   -0.5574   -5.1157   -0.1230 H   0  0  0  0  0  0  0  0  0  0  0  0
    1.2074    0.2171    1.8945 H   0  0  0  0  0  0  0  0  0  0  0  0
   -0.1012    0.2091    3.0826 H   0  0  0  0  0  0  0  0  0  0  0  0
    1.2540   -0.9155    3.2585 H   0  0  0  0  0  0  0  0  0  0  0  0
   -2.8918   -0.8809   -3.3183 H   0  0  0  0  0  0  0  0  0  0  0  0
   -2.9780   -1.5392   -1.6641 H   0  0  0  0  0  0  0  0  0  0  0  0
   -4.6250   -0.7607    1.6716 H   0  0  0  0  0  0  0  0  0  0  0  0
   -5.6756    0.4741    2.4141 H   0  0  0  0  0  0  0  0  0  0  0  0
   -5.3574   -2.1777   -2.0448 H   0  0  0  0  0  0  0  0  0  0  0  0
   -5.2734   -1.5468   -3.6850 H   0  0  0  0  0  0  0  0  0  0  0  0
   -4.2824   -2.9543   -3.2317 H   0  0  0  0  0  0  0  0  0  0  0  0
   -7.6027   -0.3923    1.0786 H   0  0  0  0  0  0  0  0  0  0  0  0
   -6.5573   -1.5970    0.3369 H   0  0  0  0  0  0  0  0  0  0  0  0
   -6.8947   -1.6803    2.0824 H   0  0  0  0  0  0  0  0  0  0  0  0
  1 13  1  0  0  0  0
  1 14  1  0  0  0  0
  2  9  1  0  0  0  0
  2 16  1  0  0  0  0
  3 23  1  0  0  0  0
  3 32  1  0  0  0  0
  4 25  1  0  0  0  0
  4 33  1  0  0  0  0
  5 15  2  0  0  0  0
  6 18  2  0  0  0  0
  7 11  1  0  0  0  0
  7 15  1  0  0  0  0
  7 21  1  0  0  0  0
  8 18  1  0  0  0  0
  8 19  1  0  0  0  0
  8 44  1  0  0  0  0
  9 17  2  0  0  0  0
 10 14  1  0  0  0  0
 10 15  1  0  0  0  0
 10 20  2  0  0  0  0
 11 18  1  0  0  0  0
 11 36  1  0  0  0  0
 11 37  1  0  0  0  0
 12 13  1  0  0  0  0
 12 16  2  0  0  0  0
 12 17  1  0  0  0  0
 13 38  1  0  0  0  0
 13 39  1  0  0  0  0
 14 22  2  0  0  0  0
 16 30  1  0  0  0  0
 17 31  1  0  0  0  0
 19 24  2  0  0  0  0
 19 26  1  0  0  0  0
 20 27  1  0  0  0  0
 20 40  1  0  0  0  0
 21 41  1  0  0  0  0
 21 42  1  0  0  0  0
 21 43  1  0  0  0  0
 22 28  1  0  0  0  0
 22 45  1  0  0  0  0
 23 24  1  0  0  0  0
 23 25  2  0  0  0  0
 24 46  1  0  0  0  0
 25 29  1  0  0  0  0
 26 29  2  0  0  0  0
 26 47  1  0  0  0  0
 27 28  2  0  0  0  0
 27 48  1  0  0  0  0
 28 49  1  0  0  0  0
 29 50  1  0  0  0  0
 30 51  1  0  0  0  0
 30 52  1  0  0  0  0
 30 53  1  0  0  0  0
 31 54  1  0  0  0  0
 31 55  1  0  0  0  0
 31 56  1  0  0  0  0
 32 34  1  0  0  0  0
 32 57  1  0  0  0  0
 32 58  1  0  0  0  0
 33 35  1  0  0  0  0
 33 59  1  0  0  0  0
 33 60  1  0  0  0  0
 34 61  1  0  0  0  0
 34 62  1  0  0  0  0
 34 63  1  0  0  0  0
 35 64  1  0  0  0  0
 35 65  1  0  0  0  0
 35 66  1  0  0  0  0
M  END
> <PUBCHEM_COMPOUND_CID>
24980873

> <PUBCHEM_CONFORMER_RMSD>
1.2

> <PUBCHEM_CONFORMER_DIVERSEORDER>
1
22
8
23
52
45
65
55
13
47
31
37
28
53
63
60
32
38
43
40
49
18
56
16
39
57
30
34
4
42
51
11
27
5
48
62
3
25
19
54
41
35
15
36
21
50
17
7
2
44
46
58
64
59
29
26
24
6
14
61
33
12
20
9
10

> <PUBCHEM_MMFF94_PARTIAL_CHARGES>
41
1 -0.36
10 0.09
11 0.36
12 -0.18
13 0.46
14 0.08
15 0.54
16 -0.04
17 0.11
18 0.57
19 0.12
2 -0.02
20 -0.15
21 0.3
22 -0.15
23 0.08
24 -0.15
25 0.08
26 -0.15
27 -0.15
28 -0.15
29 -0.15
3 -0.36
30 0.18
31 0.18
32 0.28
33 0.28
4 -0.36
40 0.15
44 0.37
45 0.15
46 0.15
47 0.15
48 0.15
49 0.15
5 -0.57
50 0.15
6 -0.57
7 -0.66
8 -0.55
9 -0.41

> <PUBCHEM_EFFECTIVE_ROTOR_COUNT>
13

> <PUBCHEM_PHARMACOPHORE_FEATURES>
10
1 1 acceptor
1 3 acceptor
1 4 acceptor
1 5 acceptor
1 6 acceptor
1 8 donor
1 9 acceptor
5 2 9 12 16 17 rings
6 10 14 20 22 27 28 rings
6 19 23 24 25 26 29 rings

> <PUBCHEM_HEAVY_ATOM_COUNT>
35

> <PUBCHEM_ATOM_DEF_STEREO_COUNT>
0

> <PUBCHEM_ATOM_UDEF_STEREO_COUNT>
0

> <PUBCHEM_BOND_DEF_STEREO_COUNT>
0

> <PUBCHEM_BOND_UDEF_STEREO_COUNT>
0

> <PUBCHEM_ISOTOPIC_ATOM_COUNT>
0

> <PUBCHEM_COMPONENT_COUNT>
1

> <PUBCHEM_CACTVS_TAUTO_COUNT>
2

> <PUBCHEM_CONFORMER_ID>
017D2D8900000001

> <PUBCHEM_MMFF94_ENERGY>
108.5038

> <PUBCHEM_FEATURE_SELFOVERLAP>
50.756

> <PUBCHEM_SHAPE_FINGERPRINT>
11513181 2 17909548355599862534
11578080 2 17773587416311328130
12156800 1 15975484707343620152
12166972 35 17749682800535560510
12422481 6 17826547562800577497
13402501 40 18260838076713089216
14394314 77 18266748987006238944
15484559 13 15014557109728410436
15968369 153 18271252710870253457
19930381 70 18193003620800907507
20764821 26 18337959012123243864
20775438 99 17478852397335738391
21133410 90 17560528411913589880
22113638 7 18335427842088317196
3383291 50 18408325467252651394
392239 28 18337125479393497435
437795 51 18187918517921798407
463206 1 18412824702781415364
484989 97 18187662326394289890
508706 21 17821719525074287221
5104073 3 17131548461490507977
563151 248 17917724525953152411
6287921 2 17619352000595255474
6669772 16 18263639727025550712
9896288 288 17768257812563180680

> <PUBCHEM_SHAPE_MULTIPOLES>
670.12
12.94
4.53
2.06
0.14
0.17
-0.55
2.88
-1.29
-1.15
0.37
2.85
0.63
-0.89

> <PUBCHEM_SHAPE_SELFOVERLAP>
1412.087

> <PUBCHEM_SHAPE_VOLUME>
379.4

> <PUBCHEM_COORDINATE_TYPE>
2
5
10

$$$$
