18574891
  -OEChem-01171812113D

 48 50  0     1  0  0  0  0  0999 V2000
   -2.4978    1.2001    2.5465 Cl  0  0  0  0  0  0  0  0  0  0  0  0
    1.4009   -1.1067    1.0551 S   0  0  0  0  0  0  0  0  0  0  0  0
   -0.3941   -1.1666   -1.2884 S   0  0  0  0  0  0  0  0  0  0  0  0
    0.6385    0.0931    1.3476 O   0  0  0  0  0  0  0  0  0  0  0  0
    1.7641   -2.0480    2.0977 O   0  0  0  0  0  0  0  0  0  0  0  0
    1.4015    2.1573   -2.0715 O   0  0  0  0  0  0  0  0  0  0  0  0
   -0.1399    3.9321    0.1511 O   0  0  0  0  0  0  0  0  0  0  0  0
    2.7871   -0.6762    0.1709 N   0  0  1  0  0  0  0  0  0  0  0  0
    2.1296    2.1673    0.1619 N   0  0  0  0  0  0  0  0  0  0  0  0
   -1.1198    1.9844   -0.7187 N   0  0  0  0  0  0  0  0  0  0  0  0
    3.6878    0.3769    0.7415 C   0  0  1  0  0  0  0  0  0  0  0  0
    5.1027   -0.1797    0.5630 C   0  0  0  0  0  0  0  0  0  0  0  0
    4.9775   -1.1250   -0.6175 C   0  0  0  0  0  0  0  0  0  0  0  0
    3.6270   -1.7776   -0.3739 C   0  0  0  0  0  0  0  0  0  0  0  0
    3.4643    1.6747   -0.0230 C   0  0  0  0  0  0  0  0  0  0  0  0
    0.3378   -2.0625   -0.0259 C   0  0  0  0  0  0  0  0  0  0  0  0
   -0.0237   -3.3914   -0.0582 C   0  0  0  0  0  0  0  0  0  0  0  0
    1.2404    2.3565   -0.8782 C   0  0  0  0  0  0  0  0  0  0  0  0
   -0.9132   -3.6778   -1.1337 C   0  0  0  0  0  0  0  0  0  0  0  0
   -1.1977   -2.5571   -1.8823 C   0  0  0  0  0  0  0  0  0  0  0  0
   -0.0969    2.8567   -0.4246 C   0  0  0  0  0  0  0  0  0  0  0  0
   -2.4954    2.2381   -0.3597 C   0  0  0  0  0  0  0  0  0  0  0  0
   -3.2423    0.9694   -0.0651 C   0  0  0  0  0  0  0  0  0  0  0  0
   -3.2935    0.4321    1.2213 C   0  0  0  0  0  0  0  0  0  0  0  0
   -3.8955    0.3259   -1.1161 C   0  0  0  0  0  0  0  0  0  0  0  0
   -3.9982   -0.7487    1.4562 C   0  0  0  0  0  0  0  0  0  0  0  0
   -4.6000   -0.8549   -0.8810 C   0  0  0  0  0  0  0  0  0  0  0  0
   -4.6512   -1.3922    0.4051 C   0  0  0  0  0  0  0  0  0  0  0  0
    3.4858    0.5267    1.8088 H   0  0  0  0  0  0  0  0  0  0  0  0
    5.8586    0.5954    0.4056 H   0  0  0  0  0  0  0  0  0  0  0  0
    5.3882   -0.7496    1.4562 H   0  0  0  0  0  0  0  0  0  0  0  0
    5.7911   -1.8541   -0.6641 H   0  0  0  0  0  0  0  0  0  0  0  0
    4.9665   -0.5612   -1.5576 H   0  0  0  0  0  0  0  0  0  0  0  0
    3.7251   -2.5869    0.3573 H   0  0  0  0  0  0  0  0  0  0  0  0
    3.2008   -2.1706   -1.3006 H   0  0  0  0  0  0  0  0  0  0  0  0
    4.1424    2.4501    0.3500 H   0  0  0  0  0  0  0  0  0  0  0  0
    3.6635    1.5460   -1.0929 H   0  0  0  0  0  0  0  0  0  0  0  0
    1.8395    2.4078    1.1056 H   0  0  0  0  0  0  0  0  0  0  0  0
    0.3309   -4.1258    0.6533 H   0  0  0  0  0  0  0  0  0  0  0  0
   -1.3240   -4.6560   -1.3472 H   0  0  0  0  0  0  0  0  0  0  0  0
   -1.8399   -2.4877   -2.7489 H   0  0  0  0  0  0  0  0  0  0  0  0
   -0.9094    1.1453   -1.2515 H   0  0  0  0  0  0  0  0  0  0  0  0
   -2.9515    2.7502   -1.2163 H   0  0  0  0  0  0  0  0  0  0  0  0
   -2.5495    2.9572    0.4644 H   0  0  0  0  0  0  0  0  0  0  0  0
   -3.8621    0.7297   -2.1246 H   0  0  0  0  0  0  0  0  0  0  0  0
   -4.0468   -1.1810    2.4524 H   0  0  0  0  0  0  0  0  0  0  0  0
   -5.1069   -1.3572   -1.6998 H   0  0  0  0  0  0  0  0  0  0  0  0
   -5.1985   -2.3124    0.5876 H   0  0  0  0  0  0  0  0  0  0  0  0
  1 24  1  0  0  0  0
  2  4  2  0  0  0  0
  2  5  2  0  0  0  0
  2  8  1  0  0  0  0
  2 16  1  0  0  0  0
  3 16  1  0  0  0  0
  3 20  1  0  0  0  0
  6 18  2  0  0  0  0
  7 21  2  0  0  0  0
  8 11  1  0  0  0  0
  8 14  1  0  0  0  0
  9 15  1  0  0  0  0
  9 18  1  0  0  0  0
  9 38  1  0  0  0  0
 10 21  1  0  0  0  0
 10 22  1  0  0  0  0
 10 42  1  0  0  0  0
 11 12  1  0  0  0  0
 11 15  1  0  0  0  0
 11 29  1  0  0  0  0
 12 13  1  0  0  0  0
 12 30  1  0  0  0  0
 12 31  1  0  0  0  0
 13 14  1  0  0  0  0
 13 32  1  0  0  0  0
 13 33  1  0  0  0  0
 14 34  1  0  0  0  0
 14 35  1  0  0  0  0
 15 36  1  0  0  0  0
 15 37  1  0  0  0  0
 16 17  2  0  0  0  0
 17 19  1  0  0  0  0
 17 39  1  0  0  0  0
 18 21  1  0  0  0  0
 19 20  2  0  0  0  0
 19 40  1  0  0  0  0
 20 41  1  0  0  0  0
 22 23  1  0  0  0  0
 22 43  1  0  0  0  0
 22 44  1  0  0  0  0
 23 24  1  0  0  0  0
 23 25  2  0  0  0  0
 24 26  2  0  0  0  0
 25 27  1  0  0  0  0
 25 45  1  0  0  0  0
 26 28  1  0  0  0  0
 26 46  1  0  0  0  0
 27 28  2  0  0  0  0
 27 47  1  0  0  0  0
 28 48  1  0  0  0  0
M  END
> <PUBCHEM_COMPOUND_CID>
18574891

> <PUBCHEM_CONFORMER_RMSD>
1.4

> <PUBCHEM_CONFORMER_DIVERSEORDER>
6
86
68
20
24
152
12
32
85
4
22
52
116
159
127
67
83
34
27
75
13
31
135
35
122
121
140
136
59
47
105
53
45
123
103
120
124
14
54
49
93
146
61
1
130
97
129
82
109
125
55
43
115
11
151
44
157
72
100
26
63
92
18
149
48
141
155
160
19
8
156
89
162
150
126
113
80
2
51
69
102
50
76
148
144
142
23
62
163
138
60
134
56
88
64
128
81
118
74
25
147
95
145
94
143
71
3
153
99
96
36
40
104
30
133
78
42
16
132
38
106
77
39
108
131
158
21
110
17
70
10
66
119
37
139
101
117
79
114
154
161
65
87
9
137
57
15
91
73
98
58
90
7
28
29
33
107
5
111
112
84
46
41

> <PUBCHEM_MMFF94_PARTIAL_CHARGES>
35
1 -0.18
10 -0.73
11 0.36
14 0.36
15 0.3
16 -0.02
17 -0.15
18 0.63
19 -0.15
2 1.5
20 -0.11
21 0.63
22 0.44
23 -0.14
24 0.18
25 -0.15
26 -0.15
27 -0.15
28 -0.15
3 -0.08
38 0.37
39 0.15
4 -0.65
40 0.15
41 0.15
42 0.37
45 0.15
46 0.15
47 0.15
48 0.15
5 -0.65
6 -0.57
7 -0.57
8 -0.85
9 -0.73

> <PUBCHEM_EFFECTIVE_ROTOR_COUNT>
10

> <PUBCHEM_PHARMACOPHORE_FEATURES>
9
1 10 donor
1 4 acceptor
1 5 acceptor
1 6 acceptor
1 7 acceptor
1 9 donor
5 3 16 17 19 20 rings
5 8 11 12 13 14 rings
6 23 24 25 26 27 28 rings

> <PUBCHEM_HEAVY_ATOM_COUNT>
28

> <PUBCHEM_ATOM_DEF_STEREO_COUNT>
0

> <PUBCHEM_ATOM_UDEF_STEREO_COUNT>
1

> <PUBCHEM_BOND_DEF_STEREO_COUNT>
0

> <PUBCHEM_BOND_UDEF_STEREO_COUNT>
0

> <PUBCHEM_ISOTOPIC_ATOM_COUNT>
0

> <PUBCHEM_COMPONENT_COUNT>
1

> <PUBCHEM_CACTVS_TAUTO_COUNT>
4

> <PUBCHEM_CONFORMER_ID>
011B6E2B00000006

> <PUBCHEM_MMFF94_ENERGY>
40.3089

> <PUBCHEM_FEATURE_SELFOVERLAP>
45.689

> <PUBCHEM_SHAPE_FINGERPRINT>
10076449 9 18129396934329491606
10366900 7 17167578289280062843
10616163 171 18193272996855160797
10906281 52 18120375355033990221
1100329 8 18266170819856294695
12467345 10 18340204223151252406
13583140 156 17894344497425397067
14251751 93 18412539890535935815
14840074 17 18410862066383968517
14955137 171 18410302435944797687
15297060 5 17704079499154210635
17357779 13 18113905931294288696
19591789 44 18411413990792428782
20261772 1 18411979187003176674
20764821 26 16681752165907889207
21033648 29 18129926923553864129
21796203 349 18118998938026858504
2818148 4 17977953710943151151
35225 105 17178305348206625023
463206 1 18263925608696306865
469060 322 16950563234252016324
6287921 2 17916044394539201311
6438718 38 17843684602090783214
9896288 288 18054780681912405088

> <PUBCHEM_SHAPE_MULTIPOLES>
547.38
8.81
4.18
1.78
1.91
0.09
0.5
-1.17
1.2
-0.01
-1.36
-0.89
-0.07
-0.78

> <PUBCHEM_SHAPE_SELFOVERLAP>
1119.676

> <PUBCHEM_SHAPE_VOLUME>
316.3

> <PUBCHEM_COORDINATE_TYPE>
2
5
10

$$$$
