2086196
  -OEChem-01171811533D

 39 40  0     0  0  0  0  0  0999 V2000
    8.9817   -1.2373   -0.5521 Cl  0  0  0  0  0  0  0  0  0  0  0  0
   -6.0266    1.5661   -0.4787 O   0  0  0  0  0  0  0  0  0  0  0  0
    0.0066    0.3352    0.2747 O   0  0  0  0  0  0  0  0  0  0  0  0
    2.2226   -0.9790   -0.1731 O   0  0  0  0  0  0  0  0  0  0  0  0
   -1.2538    2.1892    0.8327 O   0  0  0  0  0  0  0  0  0  0  0  0
    3.5974    0.8752    0.2781 N   0  0  0  0  0  0  0  0  0  0  0  0
    5.9396    1.2019    0.2635 N   0  0  0  0  0  0  0  0  0  0  0  0
   -4.7325   -0.3206    0.2576 C   0  0  0  0  0  0  0  0  0  0  0  0
   -5.9282    0.2354   -0.1973 C   0  0  0  0  0  0  0  0  0  0  0  0
   -4.6602   -1.6850    0.5381 C   0  0  0  0  0  0  0  0  0  0  0  0
   -3.5456    0.5023    0.4481 C   0  0  0  0  0  0  0  0  0  0  0  0
   -7.0514   -0.5732   -0.3719 C   0  0  0  0  0  0  0  0  0  0  0  0
   -5.7834   -2.4935    0.3636 C   0  0  0  0  0  0  0  0  0  0  0  0
   -6.9789   -1.9376   -0.0913 C   0  0  0  0  0  0  0  0  0  0  0  0
    1.2112    1.0916    0.4358 C   0  0  0  0  0  0  0  0  0  0  0  0
    4.9025    0.3660    0.0788 C   0  0  0  0  0  0  0  0  0  0  0  0
    2.3942    0.1942    0.1437 C   0  0  0  0  0  0  0  0  0  0  0  0
   -2.2726    0.0791    0.2943 C   0  0  0  0  0  0  0  0  0  0  0  0
    5.0060   -0.9576   -0.2931 C   0  0  0  0  0  0  0  0  0  0  0  0
   -1.1473    1.0175    0.5069 C   0  0  0  0  0  0  0  0  0  0  0  0
    6.2843   -1.4671   -0.4925 C   0  0  0  0  0  0  0  0  0  0  0  0
    7.3905   -0.6437   -0.3145 C   0  0  0  0  0  0  0  0  0  0  0  0
    7.1665    0.6714    0.0605 C   0  0  0  0  0  0  0  0  0  0  0  0
   -5.7227    1.9694   -1.8120 C   0  0  0  0  0  0  0  0  0  0  0  0
   -3.7524   -2.1516    0.9118 H   0  0  0  0  0  0  0  0  0  0  0  0
   -3.7318    1.5369    0.7276 H   0  0  0  0  0  0  0  0  0  0  0  0
   -7.9868   -0.1473   -0.7249 H   0  0  0  0  0  0  0  0  0  0  0  0
   -5.7288   -3.5552    0.5860 H   0  0  0  0  0  0  0  0  0  0  0  0
   -7.8538   -2.5669   -0.2259 H   0  0  0  0  0  0  0  0  0  0  0  0
    1.2182    1.9311   -0.2682 H   0  0  0  0  0  0  0  0  0  0  0  0
    1.2856    1.4543    1.4670 H   0  0  0  0  0  0  0  0  0  0  0  0
    3.5668    1.8548    0.5500 H   0  0  0  0  0  0  0  0  0  0  0  0
   -2.0298   -0.9349   -0.0052 H   0  0  0  0  0  0  0  0  0  0  0  0
    4.2004   -1.6546   -0.4501 H   0  0  0  0  0  0  0  0  0  0  0  0
    6.4059   -2.5065   -0.7865 H   0  0  0  0  0  0  0  0  0  0  0  0
    7.9880    1.3643    0.2152 H   0  0  0  0  0  0  0  0  0  0  0  0
   -6.4318    1.5234   -2.5166 H   0  0  0  0  0  0  0  0  0  0  0  0
   -4.6999    1.6892   -2.0825 H   0  0  0  0  0  0  0  0  0  0  0  0
   -5.8125    3.0577   -1.8691 H   0  0  0  0  0  0  0  0  0  0  0  0
  1 22  1  0  0  0  0
  2  9  1  0  0  0  0
  2 24  1  0  0  0  0
  3 15  1  0  0  0  0
  3 20  1  0  0  0  0
  4 17  2  0  0  0  0
  5 20  2  0  0  0  0
  6 16  1  0  0  0  0
  6 17  1  0  0  0  0
  6 32  1  0  0  0  0
  7 16  2  0  0  0  0
  7 23  1  0  0  0  0
  8  9  1  0  0  0  0
  8 10  2  0  0  0  0
  8 11  1  0  0  0  0
  9 12  2  0  0  0  0
 10 13  1  0  0  0  0
 10 25  1  0  0  0  0
 11 18  2  0  0  0  0
 11 26  1  0  0  0  0
 12 14  1  0  0  0  0
 12 27  1  0  0  0  0
 13 14  2  0  0  0  0
 13 28  1  0  0  0  0
 14 29  1  0  0  0  0
 15 17  1  0  0  0  0
 15 30  1  0  0  0  0
 15 31  1  0  0  0  0
 16 19  1  0  0  0  0
 18 20  1  0  0  0  0
 18 33  1  0  0  0  0
 19 21  2  0  0  0  0
 19 34  1  0  0  0  0
 21 22  1  0  0  0  0
 21 35  1  0  0  0  0
 22 23  2  0  0  0  0
 23 36  1  0  0  0  0
 24 37  1  0  0  0  0
 24 38  1  0  0  0  0
 24 39  1  0  0  0  0
M  END
> <PUBCHEM_COMPOUND_CID>
2086196

> <PUBCHEM_CONFORMER_RMSD>
0.8

> <PUBCHEM_CONFORMER_DIVERSEORDER>
1
164
191
182
154
138
212
123
223
245
139
175
110
48
82
58
93
8
252
189
270
4
151
118
221
237
248
56
222
60
176
65
71
269
160
16
173
31
255
143
89
236
190
120
162
230
113
102
112
172
12
158
145
266
83
128
6
132
30
227
155
267
240
98
170
247
117
24
239
2
179
209
153
257
219
85
251
94
86
129
92
103
133
104
243
141
199
263
229
253
193
246
152
261
149
208
14
127
66
186
241
142
198
11
108
88
148
70
62
159
18
111
256
46
100
22
126
124
213
29
109
215
134
157
201
41
165
235
177
214
232
185
242
195
90
95
163
146
119
78
271
87
116
32
63
10
125
184
202
225
249
218
57
15
181
226
107
207
23
59
74
238
188
258
150
76
97
169
167
224
250
49
7
204
105
61
192
216
55
233
35
140
68
147
52
72
187
196
144
99
51
28
168
130
156
42
53
262
20
174
44
180
25
260
171
244
161
47
114
272
106
137
234
79
3
217
254
183
220
38
268
194
26
121
80
131
19
54
69
40
135
178
115
197
77
9
34
50
81
211
21
265
228
166
259
67
203
45
75
64
231
91
37
264
39
206
36
33
101
200
13
205
96
210
122
5
73
84
17
136
43
27
273

> <PUBCHEM_MMFF94_PARTIAL_CHARGES>
34
1 -0.18
10 -0.15
11 -0.18
12 -0.15
13 -0.15
14 -0.15
15 0.34
16 0.43
17 0.57
18 -0.14
19 -0.15
2 -0.36
20 0.71
21 -0.15
22 0.18
23 0.16
24 0.28
25 0.15
26 0.15
27 0.15
28 0.15
29 0.15
3 -0.43
32 0.37
33 0.15
34 0.15
35 0.15
36 0.15
4 -0.57
5 -0.57
6 -0.55
7 -0.62
8 0.03
9 0.08

> <PUBCHEM_EFFECTIVE_ROTOR_COUNT>
8

> <PUBCHEM_PHARMACOPHORE_FEATURES>
6
1 2 acceptor
1 4 acceptor
1 5 acceptor
1 6 donor
6 7 16 19 21 22 23 rings
6 8 9 10 12 13 14 rings

> <PUBCHEM_HEAVY_ATOM_COUNT>
24

> <PUBCHEM_ATOM_DEF_STEREO_COUNT>
0

> <PUBCHEM_ATOM_UDEF_STEREO_COUNT>
0

> <PUBCHEM_BOND_DEF_STEREO_COUNT>
1

> <PUBCHEM_BOND_UDEF_STEREO_COUNT>
0

> <PUBCHEM_ISOTOPIC_ATOM_COUNT>
0

> <PUBCHEM_COMPONENT_COUNT>
1

> <PUBCHEM_CACTVS_TAUTO_COUNT>
3

> <PUBCHEM_CONFORMER_ID>
001FD53400000001

> <PUBCHEM_MMFF94_ENERGY>
76.8127

> <PUBCHEM_FEATURE_SELFOVERLAP>
30.447

> <PUBCHEM_SHAPE_FINGERPRINT>
10 15 9223229650257481261
10066227 49 18271248219031398094
10299344 5 18060143149806126626
11200772 48 17603870031052813075
11315181 36 18131072649915786225
11524674 6 16487256595070475455
11719270 70 18272368659802581910
12091667 2 17530967982172617857
13668630 136 18413392021164807094
13885169 127 18408885118322587445
14178184 131 17773876592054858535
14251752 14 18187359913688945801
14251764 18 11024104348223893784
14849402 71 12750939079600901490
150020 25 18411133619759658260
15183329 4 15791448235979334406
15352257 5 18413671318034338694
15419008 91 18338496613180528752
15461852 350 18260835886675368404
15510794 2 18413386540912994970
15690457 1 17847058900018091582
15716309 27 17775567554526230407
18681886 176 18336824281426018000
21033650 10 17676766484033575905
21150785 3 17603307059819239558
21267235 1 18343024405993745424
21315763 28 18413389851800290120
21623969 137 17775573034799207030
22224240 67 14908178651497817148
22288116 15 14490479750594554947
232437 2 18343303682907549499
23559900 14 18341887537252632345
23576562 1 16227192468469875142
246663 6 17418380186401130046
3004659 81 18259982699373713928
3711267 37 11458715971963732606
4073 2 18040721415015355298
4107672 100 18113896027516390237
58083652 198 15913319208925231033
59682541 35 17704067405179984546
67123 10 18412265052438699220
9953998 17 11455892473447645247
999808 66 18262808475171741331

> <PUBCHEM_SHAPE_MULTIPOLES>
462.34
28.19
2.06
0.88
25.51
0.3
0.24
10.08
5.97
-2.98
0.13
-0.79
-0.3
1.97

> <PUBCHEM_SHAPE_SELFOVERLAP>
967.753

> <PUBCHEM_SHAPE_VOLUME>
260.2

> <PUBCHEM_COORDINATE_TYPE>
2
5
10

$$$$
