15992142
  -OEChem-01171812063D

 38 40  0     1  0  0  0  0  0999 V2000
   -1.1019   -2.0437   -0.6987 S   0  0  0  0  0  0  0  0  0  0  0  0
    2.4045    0.7935   -0.1265 O   0  0  0  0  0  0  0  0  0  0  0  0
    4.0924   -1.0621    1.2921 O   0  0  0  0  0  0  0  0  0  0  0  0
   -1.0464   -3.0283    0.3650 O   0  0  0  0  0  0  0  0  0  0  0  0
   -1.2053   -2.4685   -2.0815 O   0  0  0  0  0  0  0  0  0  0  0  0
   -6.2556    2.1656   -0.5955 O   0  5  0  0  0  0  0  0  0  0  0  0
   -6.1527    1.6674    1.5400 O   0  0  0  0  0  0  0  0  0  0  0  0
    0.2195   -0.9542   -0.5074 N   0  0  0  0  0  0  0  0  0  0  0  0
   -5.7310    1.5498    0.3639 N   0  3  0  0  0  0  0  0  0  0  0  0
    1.9309   -0.0182    0.9570 C   0  0  1  0  0  0  0  0  0  0  0  0
    0.4474   -0.2715    0.7321 C   0  0  0  0  0  0  0  0  0  0  0  0
    2.7153   -1.3228    1.0025 C   0  0  0  0  0  0  0  0  0  0  0  0
    3.7725    0.8551   -0.1652 C   0  0  0  0  0  0  0  0  0  0  0  0
    4.5904   -0.0374    0.5312 C   0  0  0  0  0  0  0  0  0  0  0  0
   -2.4760   -0.9772   -0.3830 C   0  0  0  0  0  0  0  0  0  0  0  0
    4.3419    1.8577   -0.9508 C   0  0  0  0  0  0  0  0  0  0  0  0
    5.9778    0.0989    0.4776 C   0  0  0  0  0  0  0  0  0  0  0  0
   -3.0578   -0.2947   -1.4374 C   0  0  0  0  0  0  0  0  0  0  0  0
   -2.9446   -0.8437    0.9126 C   0  0  0  0  0  0  0  0  0  0  0  0
    5.7297    1.9849   -1.0147 C   0  0  0  0  0  0  0  0  0  0  0  0
    6.5463    1.1103   -0.2972 C   0  0  0  0  0  0  0  0  0  0  0  0
   -4.1417    0.5473   -1.1885 C   0  0  0  0  0  0  0  0  0  0  0  0
   -4.0285   -0.0019    1.1615 C   0  0  0  0  0  0  0  0  0  0  0  0
   -4.6270    0.6937    0.1110 C   0  0  0  0  0  0  0  0  0  0  0  0
    2.0659    0.5475    1.8888 H   0  0  0  0  0  0  0  0  0  0  0  0
   -0.0777    0.6897    0.6934 H   0  0  0  0  0  0  0  0  0  0  0  0
    0.0514   -0.8422    1.5780 H   0  0  0  0  0  0  0  0  0  0  0  0
    2.3333   -1.9773    1.7932 H   0  0  0  0  0  0  0  0  0  0  0  0
    2.6705   -1.8748    0.0551 H   0  0  0  0  0  0  0  0  0  0  0  0
    0.5855   -0.5022   -1.3547 H   0  0  0  0  0  0  0  0  0  0  0  0
    3.7130    2.5484   -1.5059 H   0  0  0  0  0  0  0  0  0  0  0  0
    6.6214   -0.5834    1.0261 H   0  0  0  0  0  0  0  0  0  0  0  0
   -2.6892   -0.3893   -2.4542 H   0  0  0  0  0  0  0  0  0  0  0  0
   -2.4906   -1.3737    1.7442 H   0  0  0  0  0  0  0  0  0  0  0  0
    6.1751    2.7688   -1.6205 H   0  0  0  0  0  0  0  0  0  0  0  0
    7.6264    1.2142   -0.3456 H   0  0  0  0  0  0  0  0  0  0  0  0
   -4.5819    1.0746   -2.0310 H   0  0  0  0  0  0  0  0  0  0  0  0
   -4.3793    0.0884    2.1864 H   0  0  0  0  0  0  0  0  0  0  0  0
  1  4  2  0  0  0  0
  1  5  2  0  0  0  0
  1  8  1  0  0  0  0
  1 15  1  0  0  0  0
  2 10  1  0  0  0  0
  2 13  1  0  0  0  0
  3 12  1  0  0  0  0
  3 14  1  0  0  0  0
  6  9  1  0  0  0  0
  7  9  2  0  0  0  0
  8 11  1  0  0  0  0
  8 30  1  0  0  0  0
  9 24  1  0  0  0  0
 10 11  1  0  0  0  0
 10 12  1  0  0  0  0
 10 25  1  0  0  0  0
 11 26  1  0  0  0  0
 11 27  1  0  0  0  0
 12 28  1  0  0  0  0
 12 29  1  0  0  0  0
 13 14  1  0  0  0  0
 13 16  2  0  0  0  0
 14 17  2  0  0  0  0
 15 18  2  0  0  0  0
 15 19  1  0  0  0  0
 16 20  1  0  0  0  0
 16 31  1  0  0  0  0
 17 21  1  0  0  0  0
 17 32  1  0  0  0  0
 18 22  1  0  0  0  0
 18 33  1  0  0  0  0
 19 23  2  0  0  0  0
 19 34  1  0  0  0  0
 20 21  2  0  0  0  0
 20 35  1  0  0  0  0
 21 36  1  0  0  0  0
 22 24  2  0  0  0  0
 22 37  1  0  0  0  0
 23 24  1  0  0  0  0
 23 38  1  0  0  0  0
M  CHG  2   6  -1   9   1
M  END
> <PUBCHEM_COMPOUND_CID>
15992142

> <PUBCHEM_CONFORMER_RMSD>
0.8

> <PUBCHEM_CONFORMER_DIVERSEORDER>
1
33
45
24
50
48
16
25
51
54
2
42
5
10
49
3
55
13
20
26
30
53
19
15
23
7
52
12
21
18
46
6
40
31
28
8
9
27
34
39
43
35
47
36
22
41
44
4
29
38
37
14
11
17
32

> <PUBCHEM_MMFF94_PARTIAL_CHARGES>
33
1 1.45
10 0.28
11 0.36
12 0.28
13 0.08
14 0.08
15 -0.01
16 -0.15
17 -0.15
18 -0.15
19 -0.15
2 -0.36
20 -0.15
21 -0.15
22 -0.15
23 -0.15
24 0.13
3 -0.36
30 0.42
31 0.15
32 0.15
33 0.15
34 0.15
35 0.15
36 0.15
37 0.15
38 0.15
4 -0.65
5 -0.65
6 -0.52
7 -0.52
8 -0.91
9 0.91

> <PUBCHEM_EFFECTIVE_ROTOR_COUNT>
5.8

> <PUBCHEM_PHARMACOPHORE_FEATURES>
11
1 2 acceptor
1 3 acceptor
1 4 acceptor
1 5 acceptor
1 6 acceptor
1 6 anion
1 7 acceptor
1 8 donor
6 13 14 16 17 20 21 rings
6 15 18 19 22 23 24 rings
6 2 3 10 12 13 14 rings

> <PUBCHEM_HEAVY_ATOM_COUNT>
24

> <PUBCHEM_ATOM_DEF_STEREO_COUNT>
0

> <PUBCHEM_ATOM_UDEF_STEREO_COUNT>
1

> <PUBCHEM_BOND_DEF_STEREO_COUNT>
0

> <PUBCHEM_BOND_UDEF_STEREO_COUNT>
0

> <PUBCHEM_ISOTOPIC_ATOM_COUNT>
0

> <PUBCHEM_COMPONENT_COUNT>
1

> <PUBCHEM_CACTVS_TAUTO_COUNT>
1

> <PUBCHEM_CONFORMER_ID>
00F4054E00000001

> <PUBCHEM_MMFF94_ENERGY>
58.1928

> <PUBCHEM_FEATURE_SELFOVERLAP>
55.965

> <PUBCHEM_SHAPE_FINGERPRINT>
105312 117 17989489649249447471
10670039 82 17489315143963978025
11089746 13 18060411452476921192
11370993 144 17458343018090261083
11796584 16 17561088042786173470
12236239 1 18410009962078743738
12596602 18 17676209048543505737
12616971 3 18040985281385547338
12730499 353 16877942720663009242
12788726 201 17917436375917185376
12892183 10 16298943152760839987
13668630 136 9943808897893798368
13785724 45 17759515574141731018
14341114 176 17313104124825203436
15183329 4 15913332368557228022
15188451 53 9007066729641738836
15238133 3 18272079509713356762
16110190 28 17967536804220910124
17349148 13 9943534045977606358
18785283 64 14996860934378078046
19377110 9 11097852965454938158
20621476 66 18342178881763150976
20681677 155 18341328989650874746
21120745 212 17613451355565665559
21756936 100 18336545018384013579
22122407 14 18261404350972035825
22393880 68 15267336331796504270
23402655 69 18335135440925685074
23559900 14 13398336997443598563
2838139 119 18343576326951568689
312425 54 16081091446435426833
44880568 143 15698280005919731817
497634 4 17970055854116856807
5104073 3 17750506446746250312
57724786 102 18336547105759030039
59682541 52 15625668197765060189
6328613 192 18342177812696531344
6608658 132 17560796573209841201

> <PUBCHEM_SHAPE_MULTIPOLES>
452.58
16.72
2.34
1.41
3.04
0.56
0.24
-12.77
-1.27
-1.25
0.52
-0.95
0.27
-1.9

> <PUBCHEM_SHAPE_SELFOVERLAP>
965.589

> <PUBCHEM_SHAPE_VOLUME>
252.1

> <PUBCHEM_COORDINATE_TYPE>
2
5
10

$$$$
