2739875
  -OEChem-01171811573D

 30 32  0     0  0  0  0  0  0999 V2000
    2.2946   -1.2340    0.5862 S   0  0  0  0  0  0  0  0  0  0  0  0
   -0.4589   -0.3215    0.9425 S   0  0  0  0  0  0  0  0  0  0  0  0
    2.0560   -1.3360    2.0154 O   0  0  0  0  0  0  0  0  0  0  0  0
    2.8505   -2.3435   -0.1681 O   0  0  0  0  0  0  0  0  0  0  0  0
   -4.7938    0.9158    0.9326 O   0  0  0  0  0  0  0  0  0  0  0  0
    3.1893    0.1751    0.2729 N   0  0  0  0  0  0  0  0  0  0  0  0
   -3.4539    0.5980    1.1185 N   0  0  0  0  0  0  0  0  0  0  0  0
    3.4046    0.5587   -1.1493 C   0  0  0  0  0  0  0  0  0  0  0  0
    2.8595    1.4052    1.0508 C   0  0  0  0  0  0  0  0  0  0  0  0
    3.6889    2.0511   -1.0881 C   0  0  0  0  0  0  0  0  0  0  0  0
    2.7562    2.5153    0.0135 C   0  0  0  0  0  0  0  0  0  0  0  0
    0.6621   -1.0192   -0.1246 C   0  0  0  0  0  0  0  0  0  0  0  0
    0.1600   -1.3080   -1.3475 C   0  0  0  0  0  0  0  0  0  0  0  0
   -1.6789   -0.3965   -0.2568 C   0  0  0  0  0  0  0  0  0  0  0  0
   -1.2152   -0.9447   -1.4323 C   0  0  0  0  0  0  0  0  0  0  0  0
   -3.0610    0.0739   -0.0445 C   0  0  0  0  0  0  0  0  0  0  0  0
   -4.0957    0.0346   -0.9928 C   0  0  0  0  0  0  0  0  0  0  0  0
   -5.1644    0.5757   -0.3283 C   0  0  0  0  0  0  0  0  0  0  0  0
    4.2472    0.0068   -1.5744 H   0  0  0  0  0  0  0  0  0  0  0  0
    2.5099    0.3754   -1.7502 H   0  0  0  0  0  0  0  0  0  0  0  0
    1.9419    1.3263    1.6356 H   0  0  0  0  0  0  0  0  0  0  0  0
    3.6884    1.5964    1.7412 H   0  0  0  0  0  0  0  0  0  0  0  0
    3.5032    2.5524   -2.0419 H   0  0  0  0  0  0  0  0  0  0  0  0
    4.7319    2.2295   -0.8002 H   0  0  0  0  0  0  0  0  0  0  0  0
    3.0302    3.4930    0.4195 H   0  0  0  0  0  0  0  0  0  0  0  0
    1.7295    2.5784   -0.3670 H   0  0  0  0  0  0  0  0  0  0  0  0
    0.7263   -1.7541   -2.1544 H   0  0  0  0  0  0  0  0  0  0  0  0
   -1.8124   -1.0886   -2.3240 H   0  0  0  0  0  0  0  0  0  0  0  0
   -4.0897   -0.3271   -2.0104 H   0  0  0  0  0  0  0  0  0  0  0  0
   -6.1926    0.7779   -0.5889 H   0  0  0  0  0  0  0  0  0  0  0  0
  1  3  2  0  0  0  0
  1  4  2  0  0  0  0
  1  6  1  0  0  0  0
  1 12  1  0  0  0  0
  2 12  1  0  0  0  0
  2 14  1  0  0  0  0
  5  7  1  0  0  0  0
  5 18  1  0  0  0  0
  6  8  1  0  0  0  0
  6  9  1  0  0  0  0
  7 16  2  0  0  0  0
  8 10  1  0  0  0  0
  8 19  1  0  0  0  0
  8 20  1  0  0  0  0
  9 11  1  0  0  0  0
  9 21  1  0  0  0  0
  9 22  1  0  0  0  0
 10 11  1  0  0  0  0
 10 23  1  0  0  0  0
 10 24  1  0  0  0  0
 11 25  1  0  0  0  0
 11 26  1  0  0  0  0
 12 13  2  0  0  0  0
 13 15  1  0  0  0  0
 13 27  1  0  0  0  0
 14 15  2  0  0  0  0
 14 16  1  0  0  0  0
 15 28  1  0  0  0  0
 16 17  1  0  0  0  0
 17 18  2  0  0  0  0
 17 29  1  0  0  0  0
 18 30  1  0  0  0  0
M  END
> <PUBCHEM_COMPOUND_CID>
2739875

> <PUBCHEM_CONFORMER_RMSD>
0.6

> <PUBCHEM_CONFORMER_DIVERSEORDER>
1
23
31
26
17
8
35
30
24
29
22
7
15
2
20
25
12
10
21
16
4
11
28
19
5
13
9
6
36
3
27
18
32
14
34
33

> <PUBCHEM_MMFF94_PARTIAL_CHARGES>
20
1 1.5
12 -0.02
13 -0.15
14 0.04
15 -0.15
16 0.29
17 -0.15
18 -0.01
2 -0.08
27 0.15
28 0.15
29 0.15
3 -0.65
30 0.15
4 -0.65
5 -0.02
6 -0.85
7 -0.41
8 0.36
9 0.36

> <PUBCHEM_EFFECTIVE_ROTOR_COUNT>
4

> <PUBCHEM_PHARMACOPHORE_FEATURES>
6
1 3 acceptor
1 4 acceptor
1 7 acceptor
5 2 12 13 14 15 rings
5 5 7 16 17 18 rings
5 6 8 9 10 11 rings

> <PUBCHEM_HEAVY_ATOM_COUNT>
18

> <PUBCHEM_ATOM_DEF_STEREO_COUNT>
0

> <PUBCHEM_ATOM_UDEF_STEREO_COUNT>
0

> <PUBCHEM_BOND_DEF_STEREO_COUNT>
0

> <PUBCHEM_BOND_UDEF_STEREO_COUNT>
0

> <PUBCHEM_ISOTOPIC_ATOM_COUNT>
0

> <PUBCHEM_COMPONENT_COUNT>
1

> <PUBCHEM_CACTVS_TAUTO_COUNT>
1

> <PUBCHEM_CONFORMER_ID>
0029CEA300000001

> <PUBCHEM_MMFF94_ENERGY>
18.9568

> <PUBCHEM_FEATURE_SELFOVERLAP>
30.464

> <PUBCHEM_SHAPE_FINGERPRINT>
10382601 240 18114168779398652568
10498660 4 17775283897912076321
10670039 82 17632307730879078729
10980938 120 18409160030541667244
11796584 16 8718826496798824969
12633257 1 17168409567373467424
12644460 14 18409172086367148195
13464513 79 8430325640944974744
13583140 156 18260550056491211947
13675066 3 16515405136597746247
14115302 16 17489866029654964254
1420 369 7853585603386050565
14251740 57 12757146866079055049
14251764 30 12686462519948217432
14251764 38 18116421558312459901
14251764 75 18124608719155588857
14252887 29 14996286885659340227
14289901 80 17676482848265581347
14863182 85 7925915894141657696
15239154 128 18409728465490169949
15342168 16 18114744948601814093
15806764 133 18043807576508061606
17134986 127 18270684293834797364
17868525 174 17608916599976101657
1813 80 17983581793370694182
18186145 218 18259981544228263387
19862831 5 16702308965902358395
20233049 118 17132111334207890634
20626108 58 10375602451396458500
20645476 183 18060415858596694782
20775530 9 9509535885372208148
21033648 29 17531236245619059637
21041028 32 18117263762949246472
21503847 285 18335986376393248016
2255824 54 18339078190380433602
22854114 111 18410288125234787792
22854114 59 17313103042783406735
23557571 272 16127511856312333238
23559900 14 17917433060308142023
25 1 18262804085508890228
251288 83 14056720179610673492
2637199 183 18271537471734296276
3060560 45 18060143128616107702
31174 14 17531796966331447154
3286 77 17096637708761578050
427121 178 16588025736238976512
4409770 3 15749820360769731967
4463277 69 10087652484969418992
449060 62 18409168826592595412
474 4 18262235633095889748
49207404 50 17022615386054826293
495365 180 17531794784498545403
4990 188 14692568819158060751
5374978 207 13767923516294761711
633830 44 18262801894780060244
6442390 28 17459483310701668002
7832392 63 18200871902372145364
9999458 23 18335704888463746158

> <PUBCHEM_SHAPE_MULTIPOLES>
350.56
9.24
2.06
1.46
9.27
0.31
-0.12
4.69
0.26
-2.74
0.07
-0.33
-0.19
-0.97

> <PUBCHEM_SHAPE_SELFOVERLAP>
724.119

> <PUBCHEM_SHAPE_VOLUME>
202.1

> <PUBCHEM_COORDINATE_TYPE>
2
5
10

$$$$
