326813
  -OEChem-01171811553D

 43 46  0     1  0  0  0  0  0999 V2000
   -1.7269   -1.4612    0.4215 O   0  0  0  0  0  0  0  0  0  0  0  0
    6.1481    2.0109    0.3685 O   0  5  0  0  0  0  0  0  0  0  0  0
    5.0502    2.2269    2.2622 O   0  0  0  0  0  0  0  0  0  0  0  0
   -2.3205    0.6453   -0.5171 N   0  0  0  0  0  0  0  0  0  0  0  0
   -1.8321    1.5759   -1.3626 N   0  0  0  0  0  0  0  0  0  0  0  0
   -1.0893   -3.5572    1.1922 N   0  0  0  0  0  0  0  0  0  0  0  0
    5.1372    1.8088    1.0829 N   0  3  0  0  0  0  0  0  0  0  0  0
    2.1497   -4.2888   -0.2516 N   0  0  0  0  0  0  0  0  0  0  0  0
    0.7662   -1.1163   -1.1171 C   0  0  1  0  0  0  0  0  0  0  0  0
   -0.3585   -0.1462   -1.0894 C   0  0  0  0  0  0  0  0  0  0  0  0
   -1.4752   -0.4027   -0.3384 C   0  0  0  0  0  0  0  0  0  0  0  0
    1.9120   -0.3504   -0.5405 C   0  0  0  0  0  0  0  0  0  0  0  0
   -0.6373    1.0827   -1.7149 C   0  0  0  0  0  0  0  0  0  0  0  0
    0.4235   -2.3549   -0.2694 C   0  0  0  0  0  0  0  0  0  0  0  0
   -0.7439   -2.4740    0.4297 C   0  0  0  0  0  0  0  0  0  0  0  0
   -3.5770    0.8101    0.0624 C   0  0  0  0  0  0  0  0  0  0  0  0
    3.0475   -0.1126   -1.3124 C   0  0  0  0  0  0  0  0  0  0  0  0
    1.8419    0.1246    0.7677 C   0  0  0  0  0  0  0  0  0  0  0  0
    0.2067    1.8305   -2.6625 C   0  0  0  0  0  0  0  0  0  0  0  0
    4.1170    0.6030   -0.7740 C   0  0  0  0  0  0  0  0  0  0  0  0
    2.9113    0.8402    1.3062 C   0  0  0  0  0  0  0  0  0  0  0  0
    4.0490    1.0795    0.5353 C   0  0  0  0  0  0  0  0  0  0  0  0
    1.3772   -3.4235   -0.2594 C   0  0  0  0  0  0  0  0  0  0  0  0
   -3.8337    0.2609    1.3128 C   0  0  0  0  0  0  0  0  0  0  0  0
   -4.5577    1.5245   -0.6151 C   0  0  0  0  0  0  0  0  0  0  0  0
   -5.0904    0.4283    1.8945 C   0  0  0  0  0  0  0  0  0  0  0  0
   -5.8144    1.6920   -0.0331 C   0  0  0  0  0  0  0  0  0  0  0  0
   -6.0806    1.1438    1.2217 C   0  0  0  0  0  0  0  0  0  0  0  0
    0.9531   -1.4267   -2.1530 H   0  0  0  0  0  0  0  0  0  0  0  0
    3.1138   -0.4774   -2.3339 H   0  0  0  0  0  0  0  0  0  0  0  0
    0.9740   -0.0491    1.3979 H   0  0  0  0  0  0  0  0  0  0  0  0
   -0.3895    2.5051   -3.2863 H   0  0  0  0  0  0  0  0  0  0  0  0
    0.9452    2.4324   -2.1232 H   0  0  0  0  0  0  0  0  0  0  0  0
    0.7417    1.1503   -3.3331 H   0  0  0  0  0  0  0  0  0  0  0  0
    4.9867    0.7703   -1.4043 H   0  0  0  0  0  0  0  0  0  0  0  0
    2.8233    1.1948    2.3300 H   0  0  0  0  0  0  0  0  0  0  0  0
   -3.0839   -0.2576    1.9009 H   0  0  0  0  0  0  0  0  0  0  0  0
   -4.3838    1.9546   -1.5980 H   0  0  0  0  0  0  0  0  0  0  0  0
   -0.4691   -4.3514    1.2804 H   0  0  0  0  0  0  0  0  0  0  0  0
   -1.9802   -3.5507    1.6726 H   0  0  0  0  0  0  0  0  0  0  0  0
   -5.2947    0.0123    2.8768 H   0  0  0  0  0  0  0  0  0  0  0  0
   -6.5864    2.2476   -0.5574 H   0  0  0  0  0  0  0  0  0  0  0  0
   -7.0583    1.2763    1.6757 H   0  0  0  0  0  0  0  0  0  0  0  0
  1 11  1  0  0  0  0
  1 15  1  0  0  0  0
  2  7  1  0  0  0  0
  3  7  2  0  0  0  0
  4  5  1  0  0  0  0
  4 11  1  0  0  0  0
  4 16  1  0  0  0  0
  5 13  2  0  0  0  0
  6 15  1  0  0  0  0
  6 39  1  0  0  0  0
  6 40  1  0  0  0  0
  7 22  1  0  0  0  0
  8 23  3  0  0  0  0
  9 10  1  0  0  0  0
  9 12  1  0  0  0  0
  9 14  1  0  0  0  0
  9 29  1  0  0  0  0
 10 11  2  0  0  0  0
 10 13  1  0  0  0  0
 12 17  2  0  0  0  0
 12 18  1  0  0  0  0
 13 19  1  0  0  0  0
 14 15  2  0  0  0  0
 14 23  1  0  0  0  0
 16 24  2  0  0  0  0
 16 25  1  0  0  0  0
 17 20  1  0  0  0  0
 17 30  1  0  0  0  0
 18 21  2  0  0  0  0
 18 31  1  0  0  0  0
 19 32  1  0  0  0  0
 19 33  1  0  0  0  0
 19 34  1  0  0  0  0
 20 22  2  0  0  0  0
 20 35  1  0  0  0  0
 21 22  1  0  0  0  0
 21 36  1  0  0  0  0
 24 26  1  0  0  0  0
 24 37  1  0  0  0  0
 25 27  2  0  0  0  0
 25 38  1  0  0  0  0
 26 28  2  0  0  0  0
 26 41  1  0  0  0  0
 27 28  1  0  0  0  0
 27 42  1  0  0  0  0
 28 43  1  0  0  0  0
M  CHG  2   2  -1   7   1
M  END
> <PUBCHEM_COMPOUND_CID>
326813

> <PUBCHEM_CONFORMER_RMSD>
0.8

> <PUBCHEM_CONFORMER_DIVERSEORDER>
1
2

> <PUBCHEM_MMFF94_PARTIAL_CHARGES>
39
1 -0.14
10 -0.18
11 -0.09
12 -0.14
13 0.11
14 -0.07
15 0.18
16 -0.02
17 -0.15
18 -0.15
19 0.18
2 -0.52
20 -0.15
21 -0.15
22 0.13
23 0.49
24 -0.15
25 -0.15
26 -0.15
27 -0.15
28 -0.15
3 -0.52
30 0.15
31 0.15
35 0.15
36 0.15
37 0.15
38 0.15
39 0.4
4 0.59
40 0.4
41 0.15
42 0.15
43 0.15
5 -0.71
6 -0.9
7 0.91
8 -0.56
9 0.46

> <PUBCHEM_EFFECTIVE_ROTOR_COUNT>
3.4

> <PUBCHEM_PHARMACOPHORE_FEATURES>
12
1 1 acceptor
1 2 acceptor
1 2 anion
1 3 acceptor
1 5 acceptor
1 6 cation
1 6 donor
1 8 acceptor
5 4 5 10 11 13 rings
6 1 9 10 11 14 15 rings
6 12 17 18 20 21 22 rings
6 16 24 25 26 27 28 rings

> <PUBCHEM_HEAVY_ATOM_COUNT>
28

> <PUBCHEM_ATOM_DEF_STEREO_COUNT>
0

> <PUBCHEM_ATOM_UDEF_STEREO_COUNT>
1

> <PUBCHEM_BOND_DEF_STEREO_COUNT>
0

> <PUBCHEM_BOND_UDEF_STEREO_COUNT>
0

> <PUBCHEM_ISOTOPIC_ATOM_COUNT>
0

> <PUBCHEM_COMPONENT_COUNT>
1

> <PUBCHEM_CACTVS_TAUTO_COUNT>
2

> <PUBCHEM_CONFORMER_ID>
0004FC9D00000001

> <PUBCHEM_MMFF94_ENERGY>
85.1352

> <PUBCHEM_FEATURE_SELFOVERLAP>
61.077

> <PUBCHEM_SHAPE_FINGERPRINT>
10006869 2 17914896427201596793
10074138 170 17970340627696723987
10165383 225 18410586067495900396
11112241 14 18273493494504488969
11578080 2 18199482124486471236
12107698 1 17202212819735054964
12422481 6 18040989622969729770
12633257 1 18263354944845056360
12788726 201 17762904663719388631
13140716 1 17970646287902919965
13540713 4 17825382977838638165
13955234 65 18268149755828806850
14178342 30 18189626105912465243
14400156 162 17604706634994893360
14739800 52 17917425376595370617
14787075 74 18201718479334190977
15183329 4 14764357028526505032
15338160 23 18049158075436672520
15775530 1 17247779768255262813
17913733 40 18412258406937388883
1813 80 12035727557378538426
18785283 64 18336825278423160074
1979834 28 18260557692563321117
20775438 99 9509733737277461713
21033648 29 18336268959804473529
21120745 212 17255967196150774462
21304303 172 17976822317393666454
21637258 2 13479129129148551089
22149856 69 17971785215516807865
22182313 1 17750795441947121015
22224240 67 18409168822898904353
23559900 14 17606974888791261735
25222932 49 15866360235750293577
283562 15 17982714565984472991
2838139 119 17132117935172159392
350125 39 18118127969913610470
427121 178 18410300185286820102
4340502 62 18412549790493406507
469060 322 18115012109148736407
474 4 18131349726297697185
56616090 13 17274532230584094704
56616090 284 10952053372430343149
58807428 26 18187081758469202226
59755656 520 18273209815987691214
6442390 28 18411705408418437262
70251023 43 17762311653885877559
7288768 16 17772164647832858968

> <PUBCHEM_SHAPE_MULTIPOLES>
533.71
11.68
3.49
1.85
5.27
4.6
-0.11
-10.8
6.52
-2.93
0.33
-0.38
-1.17
1.89

> <PUBCHEM_SHAPE_SELFOVERLAP>
1193.013

> <PUBCHEM_SHAPE_VOLUME>
281.8

> <PUBCHEM_COORDINATE_TYPE>
2
5
10

$$$$
