3836104
  -OEChem-01171811423D

 45 48  0     1  0  0  0  0  0999 V2000
   -2.8039   -2.0469   -1.2975 O   0  0  0  0  0  0  0  0  0  0  0  0
   -1.3726    0.0091    2.5930 O   0  0  0  0  0  0  0  0  0  0  0  0
    4.7800    1.4382    1.4065 O   0  0  0  0  0  0  0  0  0  0  0  0
   -1.9238   -1.3182    0.7461 N   0  0  0  0  0  0  0  0  0  0  0  0
   -0.1397   -2.6166   -0.0551 N   0  0  0  0  0  0  0  0  0  0  0  0
    4.4308    0.5398   -0.7306 N   0  0  0  0  0  0  0  0  0  0  0  0
   -3.1117    1.0572   -1.4016 C   0  0  2  0  0  0  0  0  0  0  0  0
   -2.4216    2.0504    0.4742 C   0  0  1  0  0  0  0  0  0  0  0  0
   -3.5015    0.0440   -0.3081 C   0  0  2  0  0  0  0  0  0  0  0  0
   -3.0268    0.7279    0.9833 C   0  0  1  0  0  0  0  0  0  0  0  0
   -1.8045    1.6507   -0.8690 C   0  0  0  0  0  0  0  0  0  0  0  0
   -4.0538    2.2705   -1.2859 C   0  0  0  0  0  0  0  0  0  0  0  0
   -3.5776    2.9560    0.0083 C   0  0  0  0  0  0  0  0  0  0  0  0
   -2.7231   -1.2460   -0.3767 C   0  0  0  0  0  0  0  0  0  0  0  0
   -2.0076   -0.2143    1.5715 C   0  0  0  0  0  0  0  0  0  0  0  0
   -1.0700   -2.4544    1.0340 C   0  0  0  0  0  0  0  0  0  0  0  0
    0.9916   -1.8341   -0.2227 C   0  0  0  0  0  0  0  0  0  0  0  0
    1.5372   -1.1130    0.8559 C   0  0  0  0  0  0  0  0  0  0  0  0
    1.6260   -1.7405   -1.4755 C   0  0  0  0  0  0  0  0  0  0  0  0
    2.6768   -0.3265    0.6876 C   0  0  0  0  0  0  0  0  0  0  0  0
    2.7657   -0.9539   -1.6436 C   0  0  0  0  0  0  0  0  0  0  0  0
    3.2911   -0.2470   -0.5622 C   0  0  0  0  0  0  0  0  0  0  0  0
    5.1048    1.3181    0.2222 C   0  0  0  0  0  0  0  0  0  0  0  0
    6.3341    2.0496   -0.3541 C   0  0  0  0  0  0  0  0  0  0  0  0
   -3.0493    0.6365   -2.4074 H   0  0  0  0  0  0  0  0  0  0  0  0
   -1.7327    2.5315    1.1716 H   0  0  0  0  0  0  0  0  0  0  0  0
   -4.5729   -0.1807   -0.2927 H   0  0  0  0  0  0  0  0  0  0  0  0
   -3.8397    0.8757    1.7016 H   0  0  0  0  0  0  0  0  0  0  0  0
   -0.9913    0.9242   -0.7834 H   0  0  0  0  0  0  0  0  0  0  0  0
   -1.4531    2.5088   -1.4526 H   0  0  0  0  0  0  0  0  0  0  0  0
   -5.1084    1.9821   -1.2346 H   0  0  0  0  0  0  0  0  0  0  0  0
   -3.9254    2.9469   -2.1386 H   0  0  0  0  0  0  0  0  0  0  0  0
   -3.2165    3.9669   -0.2129 H   0  0  0  0  0  0  0  0  0  0  0  0
   -4.3777    3.0340    0.7510 H   0  0  0  0  0  0  0  0  0  0  0  0
   -0.6004   -2.3788    2.0189 H   0  0  0  0  0  0  0  0  0  0  0  0
   -1.7188   -3.3377    1.0565 H   0  0  0  0  0  0  0  0  0  0  0  0
   -0.4533   -3.1516   -0.8581 H   0  0  0  0  0  0  0  0  0  0  0  0
    1.1048   -1.1529    1.8506 H   0  0  0  0  0  0  0  0  0  0  0  0
    1.2292   -2.2847   -2.3298 H   0  0  0  0  0  0  0  0  0  0  0  0
    3.0236    0.1868    1.5730 H   0  0  0  0  0  0  0  0  0  0  0  0
    3.2338   -0.9010   -2.6234 H   0  0  0  0  0  0  0  0  0  0  0  0
    4.8169    0.5460   -1.6724 H   0  0  0  0  0  0  0  0  0  0  0  0
    6.8933    1.3811   -1.0142 H   0  0  0  0  0  0  0  0  0  0  0  0
    6.9837    2.3650    0.4666 H   0  0  0  0  0  0  0  0  0  0  0  0
    5.9961    2.9247   -0.9147 H   0  0  0  0  0  0  0  0  0  0  0  0
  1 14  2  0  0  0  0
  2 15  2  0  0  0  0
  3 23  2  0  0  0  0
  4 14  1  0  0  0  0
  4 15  1  0  0  0  0
  4 16  1  0  0  0  0
  5 16  1  0  0  0  0
  5 17  1  0  0  0  0
  5 37  1  0  0  0  0
  6 22  1  0  0  0  0
  6 23  1  0  0  0  0
  6 42  1  0  0  0  0
  7  9  1  0  0  0  0
  7 11  1  0  0  0  0
  7 12  1  0  0  0  0
  7 25  1  0  0  0  0
  8 10  1  0  0  0  0
  8 11  1  0  0  0  0
  8 13  1  0  0  0  0
  8 26  1  0  0  0  0
  9 10  1  0  0  0  0
  9 14  1  0  0  0  0
  9 27  1  0  0  0  0
 10 15  1  0  0  0  0
 10 28  1  0  0  0  0
 11 29  1  0  0  0  0
 11 30  1  0  0  0  0
 12 13  1  0  0  0  0
 12 31  1  0  0  0  0
 12 32  1  0  0  0  0
 13 33  1  0  0  0  0
 13 34  1  0  0  0  0
 16 35  1  0  0  0  0
 16 36  1  0  0  0  0
 17 18  2  0  0  0  0
 17 19  1  0  0  0  0
 18 20  1  0  0  0  0
 18 38  1  0  0  0  0
 19 21  2  0  0  0  0
 19 39  1  0  0  0  0
 20 22  2  0  0  0  0
 20 40  1  0  0  0  0
 21 22  1  0  0  0  0
 21 41  1  0  0  0  0
 23 24  1  0  0  0  0
 24 43  1  0  0  0  0
 24 44  1  0  0  0  0
 24 45  1  0  0  0  0
M  END
> <PUBCHEM_COMPOUND_CID>
3836104

> <PUBCHEM_CONFORMER_RMSD>
0.8

> <PUBCHEM_CONFORMER_DIVERSEORDER>
1
47
42
59
61
35
46
28
15
66
36
76
40
20
54
11
48
16
63
72
37
44
49
41
74
62
29
7
3
18
21
34
58
64
52
45
9
71
13
50
60
2
77
39
67
10
8
26
17
23
24
53
51
75
79
68
43
65
69
55
70
22
31
73
56
33
12
32
38
19
78
25
14
5
6
27
30
4
57

> <PUBCHEM_MMFF94_PARTIAL_CHARGES>
25
1 -0.57
10 0.06
14 0.57
15 0.57
16 0.67
17 0.1
18 -0.15
19 -0.15
2 -0.57
20 -0.15
21 -0.15
22 0.12
23 0.57
24 0.06
3 -0.57
37 0.4
38 0.15
39 0.15
4 -0.42
40 0.15
41 0.15
42 0.37
5 -0.87
6 -0.55
9 0.06

> <PUBCHEM_EFFECTIVE_ROTOR_COUNT>
5.8

> <PUBCHEM_PHARMACOPHORE_FEATURES>
9
1 1 acceptor
1 2 acceptor
1 3 acceptor
1 5 cation
1 5 donor
1 6 donor
5 4 9 10 14 15 rings
6 17 18 19 20 21 22 rings
7 7 8 9 10 11 12 13 rings

> <PUBCHEM_HEAVY_ATOM_COUNT>
24

> <PUBCHEM_ATOM_DEF_STEREO_COUNT>
0

> <PUBCHEM_ATOM_UDEF_STEREO_COUNT>
4

> <PUBCHEM_BOND_DEF_STEREO_COUNT>
0

> <PUBCHEM_BOND_UDEF_STEREO_COUNT>
0

> <PUBCHEM_ISOTOPIC_ATOM_COUNT>
0

> <PUBCHEM_COMPONENT_COUNT>
1

> <PUBCHEM_CACTVS_TAUTO_COUNT>
2

> <PUBCHEM_CONFORMER_ID>
003A88C800000001

> <PUBCHEM_MMFF94_ENERGY>
78.5724

> <PUBCHEM_FEATURE_SELFOVERLAP>
45.764

> <PUBCHEM_SHAPE_FINGERPRINT>
10498660 4 18339642248186913045
10670039 82 18191607435051258276
10675989 125 17613143079650604572
11640471 11 18114453445156314627
12363563 72 10663518384370768671
12403259 415 18337686230133953590
12549972 3 17606990320303340730
12596602 18 16806165604937491376
13103583 49 11747220104317842972
13134695 92 17253708279181511099
13383661 66 13316373035747102004
13965767 371 17387689401569009612
13994607 96 18341329002198030412
14142880 1 17967530169092120919
14251764 30 12175041311494437117
14251764 38 18336266855339245948
14251764 75 18125448514232139257
14468879 13 18262243209755589449
14739800 52 18265031700636208016
14950920 106 13912621454039390908
15163728 17 18410575050598739890
15295992 7 17753909207152979355
15463212 79 18412536639204131542
17780758 139 10809333451993836662
21095088 737 18272930514006098873
21401589 2 18187089421044260497
21403212 168 10954274335085848959
21864079 5 18334577897539757766
22907989 373 17060337379957896495
22956985 138 15662833211635452330
23227448 37 18411420622469801701
23503958 8 8790880795931932462
23559900 14 18129377091158934666
27216 239 18114190734891252523
2838139 119 18118957001897121141
341906 21 18337942481121111112
469060 322 18117295846076042571
484985 159 10159708979738558933
508706 21 18337392746523778308
526903 126 18337954480938001893
5486654 36 8790889605015449278
56633871 153 8646473155502827965
574716 61 13973682897086460824
7808743 9 18409166636412410448
9981440 41 18187080654667947435

> <PUBCHEM_SHAPE_MULTIPOLES>
461.36
10.45
3.08
1.67
14.89
0.23
0.34
9.43
-1.08
-1.14
-0.31
-0.42
-0.21
0.98

> <PUBCHEM_SHAPE_SELFOVERLAP>
1010.605

> <PUBCHEM_SHAPE_VOLUME>
256.6

> <PUBCHEM_COORDINATE_TYPE>
2
5
10

$$$$
