17578650
  -OEChem-01171812103D

 42 44  0     1  0  0  0  0  0999 V2000
   -5.1708    3.2421    0.3128 Cl  0  0  0  0  0  0  0  0  0  0  0  0
    2.4120    3.1176   -0.0908 S   0  0  0  0  0  0  0  0  0  0  0  0
   -1.2430   -1.1383    1.5131 S   0  0  0  0  0  0  0  0  0  0  0  0
    1.1187   -2.0291    3.1496 S   0  0  0  0  0  0  0  0  0  0  0  0
    2.6012    4.3962   -0.7451 O   0  0  0  0  0  0  0  0  0  0  0  0
    1.1267    2.7163    0.4450 O   0  0  0  0  0  0  0  0  0  0  0  0
    3.6785   -1.6613   -1.5797 O   0  0  0  0  0  0  0  0  0  0  0  0
    0.3804   -1.7758   -1.8810 O   0  0  0  0  0  0  0  0  0  0  0  0
    3.1213   -0.2342    0.1632 N   0  0  0  0  0  0  0  0  0  0  0  0
    0.9442   -1.9831    0.3940 N   0  0  0  0  0  0  0  0  0  0  0  0
    3.8617    0.9087   -0.3058 C   0  0  1  0  0  0  0  0  0  0  0  0
    3.0049    1.8207   -1.1819 C   0  0  0  0  0  0  0  0  0  0  0  0
    4.2895    1.7228    0.8807 C   0  0  0  0  0  0  0  0  0  0  0  0
    2.2763   -2.4967    0.2118 C   0  0  2  0  0  0  0  0  0  0  0  0
    3.6415    2.8719    1.1009 C   0  0  0  0  0  0  0  0  0  0  0  0
    3.0912   -1.4403   -0.5227 C   0  0  0  0  0  0  0  0  0  0  0  0
    2.2632   -3.8070   -0.5601 C   0  0  0  0  0  0  0  0  0  0  0  0
    0.1087   -1.6682   -0.6924 C   0  0  0  0  0  0  0  0  0  0  0  0
    0.3968   -1.7646    1.6658 C   0  0  0  0  0  0  0  0  0  0  0  0
   -1.1962   -1.1665   -0.2012 C   0  0  0  0  0  0  0  0  0  0  0  0
   -2.1887   -0.7904   -1.0093 C   0  0  0  0  0  0  0  0  0  0  0  0
   -3.5064   -0.2841   -0.5822 C   0  0  0  0  0  0  0  0  0  0  0  0
   -3.6930    1.0807   -0.3628 C   0  0  0  0  0  0  0  0  0  0  0  0
   -4.5665   -1.1716   -0.3971 C   0  0  0  0  0  0  0  0  0  0  0  0
   -4.9396    1.5580    0.0416 C   0  0  0  0  0  0  0  0  0  0  0  0
   -5.8131   -0.6944    0.0073 C   0  0  0  0  0  0  0  0  0  0  0  0
   -5.9997    0.6705    0.2266 C   0  0  0  0  0  0  0  0  0  0  0  0
    4.7319    0.5624   -0.8739 H   0  0  0  0  0  0  0  0  0  0  0  0
    3.6203    2.3091   -1.9453 H   0  0  0  0  0  0  0  0  0  0  0  0
    2.1532    1.3256   -1.6554 H   0  0  0  0  0  0  0  0  0  0  0  0
    5.0885    1.3858    1.5302 H   0  0  0  0  0  0  0  0  0  0  0  0
    2.5742   -0.1429    1.0150 H   0  0  0  0  0  0  0  0  0  0  0  0
    2.7885   -2.6794    1.1598 H   0  0  0  0  0  0  0  0  0  0  0  0
    3.8341    3.5597    1.9112 H   0  0  0  0  0  0  0  0  0  0  0  0
    1.9159   -3.6975   -1.5921 H   0  0  0  0  0  0  0  0  0  0  0  0
    3.2731   -4.2302   -0.6107 H   0  0  0  0  0  0  0  0  0  0  0  0
    1.6178   -4.5423   -0.0672 H   0  0  0  0  0  0  0  0  0  0  0  0
   -2.0670   -0.8439   -2.0889 H   0  0  0  0  0  0  0  0  0  0  0  0
   -2.8663    1.7737   -0.5074 H   0  0  0  0  0  0  0  0  0  0  0  0
   -4.4364   -2.2380   -0.5645 H   0  0  0  0  0  0  0  0  0  0  0  0
   -6.6385   -1.3854    0.1514 H   0  0  0  0  0  0  0  0  0  0  0  0
   -6.9767    1.0280    0.5416 H   0  0  0  0  0  0  0  0  0  0  0  0
  1 25  1  0  0  0  0
  2  5  2  0  0  0  0
  2  6  2  0  0  0  0
  2 12  1  0  0  0  0
  2 15  1  0  0  0  0
  3 19  1  0  0  0  0
  3 20  1  0  0  0  0
  4 19  2  0  0  0  0
  7 16  2  0  0  0  0
  8 18  2  0  0  0  0
  9 11  1  0  0  0  0
  9 16  1  0  0  0  0
  9 32  1  0  0  0  0
 10 14  1  0  0  0  0
 10 18  1  0  0  0  0
 10 19  1  0  0  0  0
 11 12  1  0  0  0  0
 11 13  1  0  0  0  0
 11 28  1  0  0  0  0
 12 29  1  0  0  0  0
 12 30  1  0  0  0  0
 13 15  2  0  0  0  0
 13 31  1  0  0  0  0
 14 16  1  0  0  0  0
 14 17  1  0  0  0  0
 14 33  1  0  0  0  0
 15 34  1  0  0  0  0
 17 35  1  0  0  0  0
 17 36  1  0  0  0  0
 17 37  1  0  0  0  0
 18 20  1  0  0  0  0
 20 21  2  0  0  0  0
 21 22  1  0  0  0  0
 21 38  1  0  0  0  0
 22 23  2  0  0  0  0
 22 24  1  0  0  0  0
 23 25  1  0  0  0  0
 23 39  1  0  0  0  0
 24 26  2  0  0  0  0
 24 40  1  0  0  0  0
 25 27  2  0  0  0  0
 26 27  1  0  0  0  0
 26 41  1  0  0  0  0
 27 42  1  0  0  0  0
M  END
> <PUBCHEM_COMPOUND_CID>
17578650

> <PUBCHEM_CONFORMER_RMSD>
0.8

> <PUBCHEM_CONFORMER_DIVERSEORDER>
1
273
146
324
21
347
191
259
89
295
70
17
240
310
277
250
315
236
322
341
230
22
287
266
88
112
356
326
370
344
18
297
46
114
215
318
330
288
235
336
271
40
221
105
147
308
270
293
138
258
359
325
306
210
222
272
280
96
249
4
219
213
106
365
84
363
232
204
87
197
67
34
108
275
63
196
256
133
245
187
372
58
319
255
93
124
228
281
314
48
82
251
217
211
337
170
334
342
154
83
299
183
184
302
354
180
116
145
348
107
220
335
73
296
126
352
30
243
233
327
247
61
91
285
264
24
206
333
331
346
10
290
366
190
95
358
158
223
102
338
85
369
54
149
292
121
261
128
242
329
109
161
162
268
202
179
312
79
225
115
216
205
317
151
53
142
253
164
340
6
218
166
71
134
207
350
7
224
120
182
122
74
361
175
194
64
279
305
320
321
199
284
263
192
248
189
303
77
163
3
200
349
231
78
214
130
44
12
311
178
274
286
60
237
118
152
123
56
298
47
173
367
360
9
110
141
328
265
171
45
33
80
169
131
289
132
66
38
62
229
143
49
353
176
267
188
135
186
148
15
241
332
59
371
307
323
11
201
339
35
55
262
155
14
283
159
153
29
32
65
41
137
226
36
81
282
304
51
19
101
157
198
301
129
2
156
140
97
23
209
144
300
99
309
260
57
125
25
291
37
185
234
139
90
136
5
127
343
100
316
345
364
8
86
238
294
278
111
193
39
172
368
244
31
150
16
203
246
362
357
276
227
76
103
254
177
252
13
68
165
168
355
239
94
75
50
313
20
104
69
117
160
26
98
43
208
113
212
257
195
72
52
167
92
27
181
351
28
174
119
42
269

> <PUBCHEM_MMFF94_PARTIAL_CHARGES>
34
1 -0.18
10 -0.42
11 0.44
12 0.11
13 -0.29
14 0.36
15 -0.17
16 0.57
18 0.62
19 0.58
2 1.21
20 0.12
21 -0.18
22 0.03
23 -0.15
24 -0.15
25 0.18
26 -0.15
27 -0.15
3 -0.24
31 0.15
32 0.37
34 0.15
38 0.15
39 0.15
4 -0.38
40 0.15
41 0.15
42 0.15
5 -0.65
6 -0.65
7 -0.57
8 -0.57
9 -0.73

> <PUBCHEM_EFFECTIVE_ROTOR_COUNT>
5.8

> <PUBCHEM_PHARMACOPHORE_FEATURES>
9
1 4 acceptor
1 5 acceptor
1 6 acceptor
1 7 acceptor
1 8 acceptor
1 9 donor
5 2 11 12 13 15 rings
5 3 10 18 19 20 rings
6 22 23 24 25 26 27 rings

> <PUBCHEM_HEAVY_ATOM_COUNT>
27

> <PUBCHEM_ATOM_DEF_STEREO_COUNT>
0

> <PUBCHEM_ATOM_UDEF_STEREO_COUNT>
2

> <PUBCHEM_BOND_DEF_STEREO_COUNT>
1

> <PUBCHEM_BOND_UDEF_STEREO_COUNT>
0

> <PUBCHEM_ISOTOPIC_ATOM_COUNT>
0

> <PUBCHEM_COMPONENT_COUNT>
1

> <PUBCHEM_CACTVS_TAUTO_COUNT>
2

> <PUBCHEM_CONFORMER_ID>
010C3A9A00000001

> <PUBCHEM_MMFF94_ENERGY>
56.6367

> <PUBCHEM_FEATURE_SELFOVERLAP>
45.69

> <PUBCHEM_SHAPE_FINGERPRINT>
10483366 6 18337128825869821508
10675989 125 18341897449663189705
11070050 100 17167867434962694449
11796584 16 10953744365990692067
12422481 6 18121469446138453152
12633257 1 17023736961230282196
12925494 130 18267583516848620257
13590594 115 17977393737322470554
13617811 41 17625516258461385023
14028597 1 17388817466947102066
14251764 30 11459516399037628136
14251764 38 18336550524801274737
14468879 13 18048320238700938634
14849402 71 18259701199339219490
15001296 14 18270120102573420849
15082195 135 18127670670787202543
15142526 21 18115022038675235403
15238133 3 18188489190057670948
15475509 84 17104236291897668969
17349148 13 15068624898724492947
17844677 252 18342182120669691047
21475661 188 18261109728967809512
21860390 5 18341055125166224534
23559900 14 18126844898510432319
245318 6 17752495522862625229
2838139 119 18271237326529500948
338550 245 18409169891671346365
3411729 13 18408882953980934089
34797466 226 17988929959819736383
3493558 16 18411989065755369073
392239 28 18042131002460843027
474 4 18336543923114241767
508180 173 18198363813523167780
5104073 3 18260832541070106707
513532 50 17988934383567382396
5776283 40 18193011511363693388
5895379 119 17771628945173023289
6086070 43 17825642492848056679
7288768 16 17753603847810335800
960060 61 12175624018064765106

> <PUBCHEM_SHAPE_MULTIPOLES>
535.63
11.58
4.75
1.7
16.66
3.18
-1.11
7.08
0.65
-4.61
-0.14
-1.21
-1.27
0.02

> <PUBCHEM_SHAPE_SELFOVERLAP>
1100.719

> <PUBCHEM_SHAPE_VOLUME>
311.2

> <PUBCHEM_COORDINATE_TYPE>
2
5
10

$$$$
