9677496
  -OEChem-01171811533D

 42 44  0     0  0  0  0  0  0999 V2000
   -2.9293   -0.5590   -0.5959 O   0  0  0  0  0  0  0  0  0  0  0  0
   -1.2010    1.6011   -0.8638 O   0  0  0  0  0  0  0  0  0  0  0  0
   -7.1595    0.3503   -0.0022 O   0  0  0  0  0  0  0  0  0  0  0  0
   -6.3721   -1.6365   -0.7840 O   0  5  0  0  0  0  0  0  0  0  0  0
   -6.1016   -0.5980   -0.1411 N   0  3  0  0  0  0  0  0  0  0  0  0
   -6.6616    1.4186    0.7347 N   0  0  0  0  0  0  0  0  0  0  0  0
    3.4422   -0.2853    0.0100 N   0  0  0  0  0  0  0  0  0  0  0  0
    4.7367   -0.6363    0.2176 N   0  0  0  0  0  0  0  0  0  0  0  0
    7.0501   -0.2021    0.3652 N   0  0  0  0  0  0  0  0  0  0  0  0
    5.7806    1.5133   -0.1176 N   0  0  0  0  0  0  0  0  0  0  0  0
    7.4910   -1.5058    0.6784 N   0  0  0  0  0  0  0  0  0  0  0  0
    7.0924    1.9412   -0.0726 N   0  0  0  0  0  0  0  0  0  0  0  0
   -3.7690   -0.8779    0.5121 C   0  0  0  0  0  0  0  0  0  0  0  0
   -5.0471   -0.1093    0.4801 C   0  0  0  0  0  0  0  0  0  0  0  0
   -1.5878   -0.7202   -0.4226 C   0  0  0  0  0  0  0  0  0  0  0  0
   -0.7204    0.3638   -0.5576 C   0  0  0  0  0  0  0  0  0  0  0  0
   -5.3933    1.1165    1.0102 C   0  0  0  0  0  0  0  0  0  0  0  0
    1.1559   -1.0763   -0.0646 C   0  0  0  0  0  0  0  0  0  0  0  0
   -1.0835   -1.9821   -0.1084 C   0  0  0  0  0  0  0  0  0  0  0  0
    0.6514    0.1857   -0.3785 C   0  0  0  0  0  0  0  0  0  0  0  0
    0.2885   -2.1603    0.0704 C   0  0  0  0  0  0  0  0  0  0  0  0
   -4.5698    2.0543    1.7896 C   0  0  0  0  0  0  0  0  0  0  0  0
    2.5861   -1.2619    0.1230 C   0  0  0  0  0  0  0  0  0  0  0  0
   -1.3020    1.9333   -2.2471 C   0  0  0  0  0  0  0  0  0  0  0  0
    5.7850    0.2338    0.1466 C   0  0  0  0  0  0  0  0  0  0  0  0
    7.8379    0.8990    0.2183 C   0  0  0  0  0  0  0  0  0  0  0  0
   -3.9771   -1.9548    0.4985 H   0  0  0  0  0  0  0  0  0  0  0  0
   -3.2534   -0.6569    1.4567 H   0  0  0  0  0  0  0  0  0  0  0  0
   -1.7452   -2.8382   -0.0091 H   0  0  0  0  0  0  0  0  0  0  0  0
    1.3094    1.0445   -0.4873 H   0  0  0  0  0  0  0  0  0  0  0  0
    0.6666   -3.1501    0.3129 H   0  0  0  0  0  0  0  0  0  0  0  0
   -5.0398    3.0402    1.8696 H   0  0  0  0  0  0  0  0  0  0  0  0
   -4.4122    1.6720    2.8032 H   0  0  0  0  0  0  0  0  0  0  0  0
   -3.5899    2.1919    1.3206 H   0  0  0  0  0  0  0  0  0  0  0  0
    2.9253   -2.2852    0.3703 H   0  0  0  0  0  0  0  0  0  0  0  0
   -1.7058    2.9463   -2.3275 H   0  0  0  0  0  0  0  0  0  0  0  0
   -0.3151    1.9110   -2.7199 H   0  0  0  0  0  0  0  0  0  0  0  0
   -1.9806    1.2445   -2.7603 H   0  0  0  0  0  0  0  0  0  0  0  0
    4.9240   -1.6125    0.4378 H   0  0  0  0  0  0  0  0  0  0  0  0
    8.9130    0.8887    0.3297 H   0  0  0  0  0  0  0  0  0  0  0  0
    8.1411   -1.8703   -0.0170 H   0  0  0  0  0  0  0  0  0  0  0  0
    7.9801   -1.5429    1.5719 H   0  0  0  0  0  0  0  0  0  0  0  0
  1 13  1  0  0  0  0
  1 15  1  0  0  0  0
  2 16  1  0  0  0  0
  2 24  1  0  0  0  0
  3  5  1  0  0  0  0
  3  6  1  0  0  0  0
  4  5  1  0  0  0  0
  5 14  2  0  0  0  0
  6 17  2  0  0  0  0
  7  8  1  0  0  0  0
  7 23  2  0  0  0  0
  8 25  1  0  0  0  0
  8 39  1  0  0  0  0
  9 11  1  0  0  0  0
  9 25  1  0  0  0  0
  9 26  1  0  0  0  0
 10 12  1  0  0  0  0
 10 25  2  0  0  0  0
 11 41  1  0  0  0  0
 11 42  1  0  0  0  0
 12 26  2  0  0  0  0
 13 14  1  0  0  0  0
 13 27  1  0  0  0  0
 13 28  1  0  0  0  0
 14 17  1  0  0  0  0
 15 16  2  0  0  0  0
 15 19  1  0  0  0  0
 16 20  1  0  0  0  0
 17 22  1  0  0  0  0
 18 20  2  0  0  0  0
 18 21  1  0  0  0  0
 18 23  1  0  0  0  0
 19 21  2  0  0  0  0
 19 29  1  0  0  0  0
 20 30  1  0  0  0  0
 21 31  1  0  0  0  0
 22 32  1  0  0  0  0
 22 33  1  0  0  0  0
 22 34  1  0  0  0  0
 23 35  1  0  0  0  0
 24 36  1  0  0  0  0
 24 37  1  0  0  0  0
 24 38  1  0  0  0  0
 26 40  1  0  0  0  0
M  CHG  2   4  -1   5   1
M  END
> <PUBCHEM_COMPOUND_CID>
9677496

> <PUBCHEM_CONFORMER_RMSD>
1

> <PUBCHEM_CONFORMER_DIVERSEORDER>
1
164
155
118
69
167
88
46
97
170
168
86
160
151
27
107
95
131
41
127
114
50
154
94
169
153
56
52
105
82
144
42
99
74
146
148
126
25
48
121
150
180
90
106
112
147
13
117
133
34
172
81
55
140
134
171
101
57
165
35
23
152
179
139
143
63
125
182
33
77
76
20
73
19
15
158
38
91
175
79
49
162
136
163
178
64
68
176
70
83
72
108
93
141
85
53
32
130
166
116
89
11
2
75
66
45
149
100
119
177
137
102
142
39
123
87
183
51
98
43
96
184
28
110
24
61
113
156
109
59
80
3
111
103
129
161
145
92
36
62
9
22
54
37
78
128
138
181
71
120
115
174
5
135
159
65
44
10
21
7
132
58
29
6
18
47
8
67
173
104
12
40
60
30
157
16
4
122
26
14
124
17
84
31

> <PUBCHEM_MMFF94_PARTIAL_CHARGES>
34
1 -0.36
10 -0.34
11 -0.87
12 -0.34
13 0.46
14 -0.26
15 0.08
16 0.08
17 0.11
18 0.09
19 -0.15
2 -0.36
20 -0.15
21 -0.15
22 0.18
23 0.3
24 0.28
25 0.27
26 0.04
29 0.15
3 -0.12
30 0.15
31 0.15
35 0.06
39 0.4
4 -0.63
40 0.15
41 0.36
42 0.36
5 0.95
6 -0.41
7 -0.49
8 -0.44
9 0.45

> <PUBCHEM_EFFECTIVE_ROTOR_COUNT>
7

> <PUBCHEM_PHARMACOPHORE_FEATURES>
11
1 1 acceptor
1 11 donor
1 2 acceptor
1 4 anion
1 6 acceptor
1 7 acceptor
1 8 donor
4 8 9 10 25 cation
5 3 5 6 14 17 rings
5 9 10 12 25 26 rings
6 15 16 18 19 20 21 rings

> <PUBCHEM_HEAVY_ATOM_COUNT>
26

> <PUBCHEM_ATOM_DEF_STEREO_COUNT>
0

> <PUBCHEM_ATOM_UDEF_STEREO_COUNT>
0

> <PUBCHEM_BOND_DEF_STEREO_COUNT>
1

> <PUBCHEM_BOND_UDEF_STEREO_COUNT>
0

> <PUBCHEM_ISOTOPIC_ATOM_COUNT>
0

> <PUBCHEM_COMPONENT_COUNT>
1

> <PUBCHEM_CACTVS_TAUTO_COUNT>
2

> <PUBCHEM_CONFORMER_ID>
0093AAB800000001

> <PUBCHEM_MMFF94_ENERGY>
62.642

> <PUBCHEM_FEATURE_SELFOVERLAP>
55.827

> <PUBCHEM_SHAPE_FINGERPRINT>
10 15 18186524301741587592
106641 1 18261398866888863011
11315181 36 18411136953345161755
11991303 11 15410604921984734581
12166972 35 9511457823302609834
13167372 99 18343304752206421112
13540713 4 17534614919875333095
14251764 18 18411417332229505614
14849402 71 18341898549227207633
15048467 5 18273216391260900131
15183329 4 12103845635640406196
15461852 350 17632570575004356847
16989713 51 16773222033541530119
20281389 69 18333730213267316908
21150785 3 12895069613530899930
21304253 13 18410856581147080293
22224240 67 18113899368352177891
23576562 1 14188989208271788009
24771293 8 18410016545662592413
249057 3 14333119806684831730
350125 39 18408884048986819012
4073 2 18408609192497124602
445580 37 17632866321086773112
5104073 3 17604981521465280576
54039377 194 8646475333478203233
5758199 1 18408888433863409827
59682541 35 17894916260250315440
59755656 215 11671788165329895300
6328613 192 18413110584262495184

> <PUBCHEM_SHAPE_MULTIPOLES>
471.74
22.53
2.12
1.12
23.07
0.18
-0.25
6.3
5.78
-0.28
-0.05
-1.33
0.73
-1.41

> <PUBCHEM_SHAPE_SELFOVERLAP>
1005.817

> <PUBCHEM_SHAPE_VOLUME>
265

> <PUBCHEM_COORDINATE_TYPE>
2
5
10

$$$$
