9594421
  -OEChem-01171812003D

 35 36  0     0  0  0  0  0  0999 V2000
   -1.1901    2.6315   -0.7623 S   0  0  0  0  0  0  0  0  0  0  0  0
    4.7973    1.1430    1.4219 F   0  0  0  0  0  0  0  0  0  0  0  0
   -1.8380    3.8377   -0.2847 O   0  0  0  0  0  0  0  0  0  0  0  0
   -1.0683    2.3779   -2.1852 O   0  0  0  0  0  0  0  0  0  0  0  0
   -2.0014   -2.4199   -1.8156 O   0  5  0  0  0  0  0  0  0  0  0  0
   -3.2501   -3.2766   -0.2263 O   0  0  0  0  0  0  0  0  0  0  0  0
    0.3468    2.4945   -0.0416 N   0  0  0  0  0  0  0  0  0  0  0  0
   -2.6432   -2.3094   -0.7442 N   0  3  0  0  0  0  0  0  0  0  0  0
    1.0715    1.2646   -0.3107 N   0  0  0  0  0  0  0  0  0  0  0  0
   -2.0454    1.2643   -0.0367 C   0  0  0  0  0  0  0  0  0  0  0  0
   -3.3836   -0.8748    1.1000 C   0  0  0  0  0  0  0  0  0  0  0  0
   -2.6838   -1.0451   -0.0945 C   0  0  0  0  0  0  0  0  0  0  0  0
   -2.0093    0.0331   -0.6675 C   0  0  0  0  0  0  0  0  0  0  0  0
   -2.7345    1.4517    1.1487 C   0  0  0  0  0  0  0  0  0  0  0  0
   -3.4089    0.3734    1.7217 C   0  0  0  0  0  0  0  0  0  0  0  0
   -4.1154   -2.0098    1.7405 C   0  0  0  0  0  0  0  0  0  0  0  0
    3.1378    0.0750    0.0987 C   0  0  0  0  0  0  0  0  0  0  0  0
    2.2529    1.2212    0.2347 C   0  0  0  0  0  0  0  0  0  0  0  0
    4.3930    0.0830    0.7073 C   0  0  0  0  0  0  0  0  0  0  0  0
    2.7289   -1.0342   -0.6417 C   0  0  0  0  0  0  0  0  0  0  0  0
    5.2389   -1.0183    0.5757 C   0  0  0  0  0  0  0  0  0  0  0  0
    3.5750   -2.1354   -0.7734 C   0  0  0  0  0  0  0  0  0  0  0  0
    4.8300   -2.1274   -0.1648 C   0  0  0  0  0  0  0  0  0  0  0  0
   -1.4529   -0.0810   -1.5934 H   0  0  0  0  0  0  0  0  0  0  0  0
   -2.7595    2.4133    1.6521 H   0  0  0  0  0  0  0  0  0  0  0  0
   -3.9470    0.5249    2.6537 H   0  0  0  0  0  0  0  0  0  0  0  0
   -4.5994   -1.6740    2.6672 H   0  0  0  0  0  0  0  0  0  0  0  0
   -4.9353   -2.3758    1.1136 H   0  0  0  0  0  0  0  0  0  0  0  0
   -3.4378   -2.8111    2.0533 H   0  0  0  0  0  0  0  0  0  0  0  0
    0.5737    3.0155    0.8138 H   0  0  0  0  0  0  0  0  0  0  0  0
    2.6207    2.0755    0.8313 H   0  0  0  0  0  0  0  0  0  0  0  0
    1.7567   -1.0695   -1.1264 H   0  0  0  0  0  0  0  0  0  0  0  0
    6.2159   -1.0119    1.0499 H   0  0  0  0  0  0  0  0  0  0  0  0
    3.2567   -2.9994   -1.3495 H   0  0  0  0  0  0  0  0  0  0  0  0
    5.4887   -2.9848   -0.2672 H   0  0  0  0  0  0  0  0  0  0  0  0
  1  3  2  0  0  0  0
  1  4  2  0  0  0  0
  1  7  1  0  0  0  0
  1 10  1  0  0  0  0
  2 19  1  0  0  0  0
  5  8  1  0  0  0  0
  6  8  2  0  0  0  0
  7  9  1  0  0  0  0
  7 30  1  0  0  0  0
  8 12  1  0  0  0  0
  9 18  2  0  0  0  0
 10 13  2  0  0  0  0
 10 14  1  0  0  0  0
 11 12  2  0  0  0  0
 11 15  1  0  0  0  0
 11 16  1  0  0  0  0
 12 13  1  0  0  0  0
 13 24  1  0  0  0  0
 14 15  2  0  0  0  0
 14 25  1  0  0  0  0
 15 26  1  0  0  0  0
 16 27  1  0  0  0  0
 16 28  1  0  0  0  0
 16 29  1  0  0  0  0
 17 18  1  0  0  0  0
 17 19  1  0  0  0  0
 17 20  2  0  0  0  0
 18 31  1  0  0  0  0
 19 21  2  0  0  0  0
 20 22  1  0  0  0  0
 20 32  1  0  0  0  0
 21 23  1  0  0  0  0
 21 33  1  0  0  0  0
 22 23  2  0  0  0  0
 22 34  1  0  0  0  0
 23 35  1  0  0  0  0
M  CHG  2   5  -1   8   1
M  END
> <PUBCHEM_COMPOUND_CID>
9594421

> <PUBCHEM_CONFORMER_RMSD>
0.8

> <PUBCHEM_CONFORMER_DIVERSEORDER>
1
26
24
44
32
17
11
55
22
38
50
21
28
12
15
43
56
14
10
51
23
53
25
16
9
48
52
4
46
49
2
45
36
7
47
54
13
29
19
27
34
8
5
33
42
6
20
3
31
37
35
30
18
41
40
39

> <PUBCHEM_MMFF94_PARTIAL_CHARGES>
32
1 1.45
10 -0.01
11 -0.14
12 0.13
13 -0.15
14 -0.15
15 -0.15
16 0.14
17 0.09
18 0.3
19 0.19
2 -0.19
20 -0.15
21 -0.15
22 -0.15
23 -0.15
24 0.15
25 0.15
26 0.15
3 -0.65
30 0.42
31 0.06
32 0.15
33 0.15
34 0.15
35 0.15
4 -0.65
5 -0.52
6 -0.52
7 -0.58
8 0.91
9 -0.43

> <PUBCHEM_EFFECTIVE_ROTOR_COUNT>
5

> <PUBCHEM_PHARMACOPHORE_FEATURES>
9
1 3 acceptor
1 4 acceptor
1 5 acceptor
1 5 anion
1 6 acceptor
1 7 donor
1 9 acceptor
6 10 11 12 13 14 15 rings
6 17 19 20 21 22 23 rings

> <PUBCHEM_HEAVY_ATOM_COUNT>
23

> <PUBCHEM_ATOM_DEF_STEREO_COUNT>
0

> <PUBCHEM_ATOM_UDEF_STEREO_COUNT>
0

> <PUBCHEM_BOND_DEF_STEREO_COUNT>
1

> <PUBCHEM_BOND_UDEF_STEREO_COUNT>
0

> <PUBCHEM_ISOTOPIC_ATOM_COUNT>
0

> <PUBCHEM_COMPONENT_COUNT>
1

> <PUBCHEM_CACTVS_TAUTO_COUNT>
1

> <PUBCHEM_CONFORMER_ID>
0092663500000001

> <PUBCHEM_MMFF94_ENERGY>
53.5279

> <PUBCHEM_FEATURE_SELFOVERLAP>
45.773

> <PUBCHEM_SHAPE_FINGERPRINT>
107951 10 17244996934643430809
10928967 22 18336836307820444794
11014199 57 18195531612813976694
11370993 144 17845378747793292304
11552529 35 17703498987047470806
12363563 72 17895196657179665680
12403259 327 16916516955371364945
12422481 6 18124909826980606867
12553582 1 18266186199875439604
12633257 1 17417824971071885811
13583140 156 17060046099265095800
14100547 121 17917430955747682615
14251751 93 18189896422616310546
14950920 106 17632298964945156666
16110190 28 18342188760340691786
1813 80 17822583797032657965
19141452 34 18412830161911552521
21315759 227 17677333955991435530
21673915 165 18271803566565222458
221490 88 18339924806349749040
23559900 14 18051125896882226110
23598288 3 18114190691768045813
341906 21 11023241184631095558
4015057 19 17985519226984294032
4921388 177 18043530517085187356
56633871 153 18342186587225208563
7097593 13 18128268980721392777
9709674 26 18269264682568604644

> <PUBCHEM_SHAPE_MULTIPOLES>
431.48
10.36
3.81
1.5
12.3
0.67
-0.08
-6.04
3.88
-3.22
-1.21
-1.09
-0.1
0.97

> <PUBCHEM_SHAPE_SELFOVERLAP>
909.488

> <PUBCHEM_SHAPE_VOLUME>
245.3

> <PUBCHEM_COORDINATE_TYPE>
2
5
10

$$$$
