2300157
  -OEChem-01171811483D

 47 49  0     0  0  0  0  0  0999 V2000
    2.9555    0.4917   -1.0379 O   0  0  0  0  0  0  0  0  0  0  0  0
   -3.7078    0.6460   -1.9807 O   0  0  0  0  0  0  0  0  0  0  0  0
    7.5195   -0.3616    0.0698 O   0  0  0  0  0  0  0  0  0  0  0  0
   -3.0489   -0.8587   -0.3263 N   0  0  0  0  0  0  0  0  0  0  0  0
   -4.5275   -1.4477    1.4402 N   0  0  0  0  0  0  0  0  0  0  0  0
   -0.7028   -0.0582   -0.3741 C   0  0  0  0  0  0  0  0  0  0  0  0
   -1.7307   -1.0492   -0.9111 C   0  0  0  0  0  0  0  0  0  0  0  0
    0.6774   -0.2468   -1.0045 C   0  0  0  0  0  0  0  0  0  0  0  0
    1.6952    0.7262   -0.4250 C   0  0  0  0  0  0  0  0  0  0  0  0
   -3.9419    0.0127   -0.9557 C   0  0  0  0  0  0  0  0  0  0  0  0
   -5.2567    0.1419   -0.2865 C   0  0  0  0  0  0  0  0  0  0  0  0
   -3.3919   -1.5355    0.8299 C   0  0  0  0  0  0  0  0  0  0  0  0
   -5.4938   -0.5936    0.8827 C   0  0  0  0  0  0  0  0  0  0  0  0
   -6.2406    0.9838   -0.8156 C   0  0  0  0  0  0  0  0  0  0  0  0
    4.0691    0.7763   -0.2910 C   0  0  0  0  0  0  0  0  0  0  0  0
   -6.7359   -0.4717    1.5154 C   0  0  0  0  0  0  0  0  0  0  0  0
   -7.4728    1.0935   -0.1728 C   0  0  0  0  0  0  0  0  0  0  0  0
   -7.7205    0.3673    0.9906 C   0  0  0  0  0  0  0  0  0  0  0  0
    5.2377    0.0521   -0.4955 C   0  0  0  0  0  0  0  0  0  0  0  0
    4.0178    1.7866    0.6622 C   0  0  0  0  0  0  0  0  0  0  0  0
    6.3711    0.3424    0.2641 C   0  0  0  0  0  0  0  0  0  0  0  0
    5.1512    2.0767    1.4218 C   0  0  0  0  0  0  0  0  0  0  0  0
    6.3278    1.3546    1.2228 C   0  0  0  0  0  0  0  0  0  0  0  0
    7.3864   -1.7132   -0.3680 C   0  0  0  0  0  0  0  0  0  0  0  0
    8.5631   -2.5157    0.1451 C   0  0  0  0  0  0  0  0  0  0  0  0
   -0.6278   -0.1689    0.7151 H   0  0  0  0  0  0  0  0  0  0  0  0
   -1.0500    0.9664   -0.5575 H   0  0  0  0  0  0  0  0  0  0  0  0
   -1.3974   -2.0714   -0.6950 H   0  0  0  0  0  0  0  0  0  0  0  0
   -1.8033   -0.9526   -2.0007 H   0  0  0  0  0  0  0  0  0  0  0  0
    0.6194   -0.1115   -2.0916 H   0  0  0  0  0  0  0  0  0  0  0  0
    1.0272   -1.2748   -0.8475 H   0  0  0  0  0  0  0  0  0  0  0  0
    1.3842    1.7581   -0.6256 H   0  0  0  0  0  0  0  0  0  0  0  0
    1.7352    0.5612    0.6597 H   0  0  0  0  0  0  0  0  0  0  0  0
   -2.5983   -2.1877    1.2266 H   0  0  0  0  0  0  0  0  0  0  0  0
   -6.0665    1.5579   -1.7213 H   0  0  0  0  0  0  0  0  0  0  0  0
   -6.9449   -1.0316    2.4239 H   0  0  0  0  0  0  0  0  0  0  0  0
   -8.2406    1.7456   -0.5790 H   0  0  0  0  0  0  0  0  0  0  0  0
   -8.6811    0.4541    1.4901 H   0  0  0  0  0  0  0  0  0  0  0  0
    5.2412   -0.7102   -1.2691 H   0  0  0  0  0  0  0  0  0  0  0  0
    3.1314    2.3911    0.8283 H   0  0  0  0  0  0  0  0  0  0  0  0
    5.1200    2.8694    2.1637 H   0  0  0  0  0  0  0  0  0  0  0  0
    7.2079    1.5862    1.8165 H   0  0  0  0  0  0  0  0  0  0  0  0
    7.3711   -1.7369   -1.4632 H   0  0  0  0  0  0  0  0  0  0  0  0
    6.4742   -2.1810    0.0229 H   0  0  0  0  0  0  0  0  0  0  0  0
    8.4990   -3.5575   -0.1816 H   0  0  0  0  0  0  0  0  0  0  0  0
    9.5059   -2.0905   -0.2148 H   0  0  0  0  0  0  0  0  0  0  0  0
    8.5999   -2.4900    1.2392 H   0  0  0  0  0  0  0  0  0  0  0  0
  1  9  1  0  0  0  0
  1 15  1  0  0  0  0
  2 10  2  0  0  0  0
  3 21  1  0  0  0  0
  3 24  1  0  0  0  0
  4  7  1  0  0  0  0
  4 10  1  0  0  0  0
  4 12  1  0  0  0  0
  5 12  2  0  0  0  0
  5 13  1  0  0  0  0
  6  7  1  0  0  0  0
  6  8  1  0  0  0  0
  6 26  1  0  0  0  0
  6 27  1  0  0  0  0
  7 28  1  0  0  0  0
  7 29  1  0  0  0  0
  8  9  1  0  0  0  0
  8 30  1  0  0  0  0
  8 31  1  0  0  0  0
  9 32  1  0  0  0  0
  9 33  1  0  0  0  0
 10 11  1  0  0  0  0
 11 13  1  0  0  0  0
 11 14  2  0  0  0  0
 12 34  1  0  0  0  0
 13 16  2  0  0  0  0
 14 17  1  0  0  0  0
 14 35  1  0  0  0  0
 15 19  1  0  0  0  0
 15 20  2  0  0  0  0
 16 18  1  0  0  0  0
 16 36  1  0  0  0  0
 17 18  2  0  0  0  0
 17 37  1  0  0  0  0
 18 38  1  0  0  0  0
 19 21  2  0  0  0  0
 19 39  1  0  0  0  0
 20 22  1  0  0  0  0
 20 40  1  0  0  0  0
 21 23  1  0  0  0  0
 22 23  2  0  0  0  0
 22 41  1  0  0  0  0
 23 42  1  0  0  0  0
 24 25  1  0  0  0  0
 24 43  1  0  0  0  0
 24 44  1  0  0  0  0
 25 45  1  0  0  0  0
 25 46  1  0  0  0  0
 25 47  1  0  0  0  0
M  END
> <PUBCHEM_COMPOUND_CID>
2300157

> <PUBCHEM_CONFORMER_RMSD>
1

> <PUBCHEM_CONFORMER_DIVERSEORDER>
2
252
130
145
8
98
30
166
245
95
187
6
120
169
24
164
55
127
215
203
5
80
23
115
93
68
9
181
234
140
212
63
191
219
32
29
126
85
92
151
94
35
206
1
236
72
96
67
224
78
108
81
114
106
175
39
33
73
129
31
65
176
27
3
38
7
163
102
59
76
232
75
53
156
228
205
49
153
134
113
184
128
119
137
213
54
90
34
143
256
46
157
174
97
148
28
186
16
244
11
254
194
13
249
250
217
190
116
188
196
132
255
103
243
41
239
210
200
172
88
40
117
45
192
193
233
235
238
118
136
147
227
105
204
211
251
112
135
144
152
58
201
133
122
10
26
160
131
248
61
12
225
141
159
142
237
242
57
69
71
230
226
214
222
110
223
123
124
83
173
125
209
52
62
18
47
51
161
14
170
111
220
43
4
189
99
229
89
107
121
60
17
138
183
178
109
70
101
195
25
179
82
44
149
86
221
77
79
167
21
207
198
87
36
202
22
241
56
64
66
216
146
158
74
253
19
246
218
171
155
100
20
185
15
199
180
197
165
182
37
240
168
154
247
91
48
84
139
208
162
50
231
42
104
150
177

> <PUBCHEM_MMFF94_PARTIAL_CHARGES>
31
1 -0.36
10 0.54
11 0.09
12 0.45
13 0.18
14 -0.15
15 0.08
16 -0.15
17 -0.15
18 -0.15
19 -0.15
2 -0.57
20 -0.15
21 0.08
22 -0.15
23 -0.15
24 0.28
3 -0.36
34 0.06
35 0.15
36 0.15
37 0.15
38 0.15
39 0.15
4 -0.42
40 0.15
41 0.15
42 0.15
5 -0.63
7 0.3
9 0.28

> <PUBCHEM_EFFECTIVE_ROTOR_COUNT>
8

> <PUBCHEM_PHARMACOPHORE_FEATURES>
6
1 1 acceptor
1 2 acceptor
1 3 acceptor
6 11 13 14 16 17 18 rings
6 15 19 20 21 22 23 rings
6 4 5 10 11 12 13 rings

> <PUBCHEM_HEAVY_ATOM_COUNT>
25

> <PUBCHEM_ATOM_DEF_STEREO_COUNT>
0

> <PUBCHEM_ATOM_UDEF_STEREO_COUNT>
0

> <PUBCHEM_BOND_DEF_STEREO_COUNT>
0

> <PUBCHEM_BOND_UDEF_STEREO_COUNT>
0

> <PUBCHEM_ISOTOPIC_ATOM_COUNT>
0

> <PUBCHEM_COMPONENT_COUNT>
1

> <PUBCHEM_CACTVS_TAUTO_COUNT>
1

> <PUBCHEM_CONFORMER_ID>
002318FD00000002

> <PUBCHEM_MMFF94_ENERGY>
70.1652

> <PUBCHEM_FEATURE_SELFOVERLAP>
30.478

> <PUBCHEM_SHAPE_FINGERPRINT>
10 15 18041000686921775549
10299344 5 14996282517825397168
10319926 262 17968380160305149409
11315181 36 14979958095106353175
11524674 6 18260550060871140603
12166972 35 14273456998156782423
13914758 101 17775570810027044960
14251764 18 14923661977981328753
14344974 204 17897459504135735427
14347424 109 17988638619561622664
14444916 359 17313106332454777371
14856354 85 16081093705730551643
15183329 4 14692576541134732354
15301273 46 18113899355872938070
15348495 7 18263644141892968464
15352257 5 17530682091874951930
15419008 145 17988082176040744864
15419008 47 18333725815021392132
15716309 27 14201391686279095253
1577012 14 17274536633326376332
15799311 1 15430037638901315320
18335252 98 7997969085426507240
20281389 69 18131632300553933337
21049683 271 11819284355771858174
21130935 74 18271522117369059934
21150785 3 10809344451299605658
21591340 7 17489582372834575239
21781055 127 17750816367164917397
220451 1 15285352938214620488
23081809 10 17417523730940736516
23389318 12 11891339763354225650
2838139 119 17632858633691684881
3178227 256 18412824678035088798
397638 26 18409727378536734474
4093350 32 18410009897196019890
437795 160 14979657910561349807
439807 62 18041561339901376986
5719381 82 17895470325283270386
6371009 1 16128662967698036784
9995097 26 9007048064220512881
999808 66 12179846096304689201

> <PUBCHEM_SHAPE_MULTIPOLES>
486.92
28.73
1.83
1.37
13.54
0.23
-0.06
3.09
-6.91
4.09
-0.54
-1.59
-0.08
1.83

> <PUBCHEM_SHAPE_SELFOVERLAP>
1033.964

> <PUBCHEM_SHAPE_VOLUME>
270

> <PUBCHEM_COORDINATE_TYPE>
2
5
10

$$$$
