6269547
  -OEChem-01171811443D

 31 33  0     0  0  0  0  0  0999 V2000
   -5.6562   -2.5434   -0.8391 Br  0  0  0  0  0  0  0  0  0  0  0  0
   -3.4747   -0.2468   -1.1501 S   0  0  0  0  0  0  0  0  0  0  0  0
   -0.2204   -0.9449    0.2450 O   0  0  0  0  0  0  0  0  0  0  0  0
    1.5643    0.6006   -0.0738 N   0  0  0  0  0  0  0  0  0  0  0  0
    1.6922    1.9749   -0.2629 N   0  0  0  0  0  0  0  0  0  0  0  0
   -0.5202    1.4324   -0.0492 C   0  0  0  0  0  0  0  0  0  0  0  0
    0.4869    2.4743   -0.2494 C   0  0  0  0  0  0  0  0  0  0  0  0
    0.2340    0.1691    0.0689 C   0  0  0  0  0  0  0  0  0  0  0  0
    2.6488   -0.2616   -0.0303 C   0  0  0  0  0  0  0  0  0  0  0  0
   -1.8432    1.5609    0.0177 C   0  0  0  0  0  0  0  0  0  0  0  0
    0.1722    3.9209   -0.4193 C   0  0  0  0  0  0  0  0  0  0  0  0
   -2.8321    0.5243    0.2161 C   0  0  0  0  0  0  0  0  0  0  0  0
    2.5146   -1.5876   -0.4577 C   0  0  0  0  0  0  0  0  0  0  0  0
    3.8887    0.1851    0.4407 C   0  0  0  0  0  0  0  0  0  0  0  0
    3.6058   -2.4554   -0.4144 C   0  0  0  0  0  0  0  0  0  0  0  0
    4.9798   -0.6827    0.4838 C   0  0  0  0  0  0  0  0  0  0  0  0
   -3.3285    0.0735    1.3946 C   0  0  0  0  0  0  0  0  0  0  0  0
    4.8383   -2.0030    0.0562 C   0  0  0  0  0  0  0  0  0  0  0  0
   -4.2872   -0.9586    1.1809 C   0  0  0  0  0  0  0  0  0  0  0  0
   -4.4631   -1.2320   -0.1577 C   0  0  0  0  0  0  0  0  0  0  0  0
   -2.2634    2.5602   -0.0824 H   0  0  0  0  0  0  0  0  0  0  0  0
   -0.4558    4.0612   -1.3032 H   0  0  0  0  0  0  0  0  0  0  0  0
    1.0951    4.4934   -0.5466 H   0  0  0  0  0  0  0  0  0  0  0  0
   -0.3543    4.2912    0.4644 H   0  0  0  0  0  0  0  0  0  0  0  0
    1.5890   -1.9733   -0.8733 H   0  0  0  0  0  0  0  0  0  0  0  0
    4.0223    1.2075    0.7855 H   0  0  0  0  0  0  0  0  0  0  0  0
   -3.0384    0.4440    2.3698 H   0  0  0  0  0  0  0  0  0  0  0  0
    3.4990   -3.4806   -0.7568 H   0  0  0  0  0  0  0  0  0  0  0  0
    5.9394   -0.3312    0.8512 H   0  0  0  0  0  0  0  0  0  0  0  0
    5.6885   -2.6780    0.0879 H   0  0  0  0  0  0  0  0  0  0  0  0
   -4.8159   -1.4688    1.9765 H   0  0  0  0  0  0  0  0  0  0  0  0
  1 20  1  0  0  0  0
  2 12  1  0  0  0  0
  2 20  1  0  0  0  0
  3  8  2  0  0  0  0
  4  5  1  0  0  0  0
  4  8  1  0  0  0  0
  4  9  1  0  0  0  0
  5  7  2  0  0  0  0
  6  7  1  0  0  0  0
  6  8  1  0  0  0  0
  6 10  2  0  0  0  0
  7 11  1  0  0  0  0
  9 13  2  0  0  0  0
  9 14  1  0  0  0  0
 10 12  1  0  0  0  0
 10 21  1  0  0  0  0
 11 22  1  0  0  0  0
 11 23  1  0  0  0  0
 11 24  1  0  0  0  0
 12 17  2  0  0  0  0
 13 15  1  0  0  0  0
 13 25  1  0  0  0  0
 14 16  2  0  0  0  0
 14 26  1  0  0  0  0
 15 18  2  0  0  0  0
 15 28  1  0  0  0  0
 16 18  1  0  0  0  0
 16 29  1  0  0  0  0
 17 19  1  0  0  0  0
 17 27  1  0  0  0  0
 18 30  1  0  0  0  0
 19 20  2  0  0  0  0
 19 31  1  0  0  0  0
M  END
> <PUBCHEM_COMPOUND_CID>
6269547

> <PUBCHEM_CONFORMER_RMSD>
0.6

> <PUBCHEM_CONFORMER_DIVERSEORDER>
1
2
3
6
4
5

> <PUBCHEM_MMFF94_PARTIAL_CHARGES>
28
1 -0.06
10 -0.11
11 0.06
12 -0.01
13 -0.15
14 -0.15
15 -0.15
16 -0.15
17 -0.15
18 -0.15
19 -0.15
2 -0.08
20 0.1
21 0.15
25 0.15
26 0.15
27 0.15
28 0.15
29 0.15
3 -0.57
30 0.15
31 0.15
4 -0.11
5 -0.51
6 0.03
7 0.37
8 0.62
9 0.12

> <PUBCHEM_EFFECTIVE_ROTOR_COUNT>
2.2

> <PUBCHEM_PHARMACOPHORE_FEATURES>
6
1 1 hydrophobe
1 3 acceptor
1 5 acceptor
5 2 12 17 19 20 rings
5 4 5 6 7 8 rings
6 9 13 14 15 16 18 rings

> <PUBCHEM_HEAVY_ATOM_COUNT>
20

> <PUBCHEM_ATOM_DEF_STEREO_COUNT>
0

> <PUBCHEM_ATOM_UDEF_STEREO_COUNT>
0

> <PUBCHEM_BOND_DEF_STEREO_COUNT>
1

> <PUBCHEM_BOND_UDEF_STEREO_COUNT>
0

> <PUBCHEM_ISOTOPIC_ATOM_COUNT>
0

> <PUBCHEM_COMPONENT_COUNT>
1

> <PUBCHEM_CACTVS_TAUTO_COUNT>
1

> <PUBCHEM_CONFORMER_ID>
005FAA6B00000001

> <PUBCHEM_MMFF94_ENERGY>
66.0254

> <PUBCHEM_FEATURE_SELFOVERLAP>
30.446

> <PUBCHEM_SHAPE_FINGERPRINT>
11543360 7 15068920666914021066
11552529 35 17987236638201990241
11806522 49 18410009952871545986
12032990 46 18336268955250491304
12363563 72 18334304144908756283
12403259 226 18267861693068070144
12553582 1 18339095825183146823
12596602 18 17275388724224759178
12623949 98 17704082763424347078
12892183 10 17632856404270913864
13009979 54 17988656206819430617
13140716 1 17691411131978949744
13533116 47 18197781210079046251
13544653 18 18408606937522372468
13583140 156 15194709104788770586
13862211 1 18408599258379719410
13955234 65 17981327008533249489
1420 369 18413953884048624703
14251740 57 17846228751875990486
1454969 45 18338516452108443148
14767858 380 18189352285173300308
14787075 74 18260272962465402672
14790565 3 17760656162952744036
15196674 1 18410293588290679074
15342168 16 9223242849277401491
15352361 1 18410292510386081375
15415430 10 18413668015430945095
15842332 3 17985292861259868921
15880784 105 18059859449989267498
17357779 13 18261381222335139989
17492 89 18267022946048247811
17539 30 18116989988243061549
1813 80 18342751701398392733
18222031 100 18409722980389548138
18927931 339 18265057920852549134
19141452 34 18270405958437300337
193927 3 18261684704776957531
19784866 240 18341611555818297495
200 152 18342452673539007351
20028762 73 18201717409566380495
20261772 1 18131628980744738878
20281475 54 18411426098094453821
20645477 70 18189608522611007485
21267235 1 18411707569240505302
221490 88 18261961872175588523
22393880 68 17896019084179201607
22950370 63 18411427184884489190
23402539 116 18338794524727185298
23559900 14 18337662131478650681
23622692 118 18342171202946921933
314194 84 18337680809632012123
3421961 26 18339641247491408817
3472631 163 11386353843232407427
46194498 28 17532085167305753615
5104073 3 18125997175361272802
58779409 54 18117270350802045973
76465 3 18411698807417271311
7970288 3 18410853252674279679
9709674 26 18189618414073762059

> <PUBCHEM_SHAPE_MULTIPOLES>
405.55
11.29
3.36
0.97
2.74
2.18
-0.12
-11.42
-0.21
-0.66
0.89
1.02
-0.14
-0.47

> <PUBCHEM_SHAPE_SELFOVERLAP>
857.985

> <PUBCHEM_SHAPE_VOLUME>
231.8

> <PUBCHEM_COORDINATE_TYPE>
2
5
10

$$$$
