51360632
  -OEChem-01171812173D

 54 60  0     1  0  0  0  0  0999 V2000
    4.1197   -1.0797   -1.9226 O   0  0  0  0  0  0  0  0  0  0  0  0
    2.9049   -0.1532    2.3029 N   0  0  0  0  0  0  0  0  0  0  0  0
   -1.2663    0.0096    0.0830 N   0  0  0  0  0  0  0  0  0  0  0  0
    4.3679   -0.2828   -0.7251 C   0  0  2  0  0  0  0  0  0  0  0  0
    3.0744   -0.2484   -2.5176 C   0  0  2  0  0  0  0  0  0  0  0  0
    2.9563   -0.2256   -0.2116 C   0  0  0  0  0  0  0  0  0  0  0  0
    4.7323    1.0580   -1.3687 C   0  0  0  0  0  0  0  0  0  0  0  0
    3.8285    1.0809   -2.6265 C   0  0  0  0  0  0  0  0  0  0  0  0
    2.1363   -0.2049   -1.3499 C   0  0  0  0  0  0  0  0  0  0  0  0
    2.3694   -0.1621    1.0399 C   0  0  0  0  0  0  0  0  0  0  0  0
    0.7645   -0.1250   -1.2749 C   0  0  0  0  0  0  0  0  0  0  0  0
    0.9763   -0.0871    1.1682 C   0  0  0  0  0  0  0  0  0  0  0  0
    0.1727   -0.0702   -0.0037 C   0  0  0  0  0  0  0  0  0  0  0  0
    0.6995   -0.0389    2.5634 C   0  0  0  0  0  0  0  0  0  0  0  0
    1.9020   -0.0810    3.2333 C   0  0  0  0  0  0  0  0  0  0  0  0
   -1.9051    1.3145    0.1032 C   0  0  0  0  0  0  0  0  0  0  0  0
   -1.9741   -1.2472    0.0897 C   0  0  0  0  0  0  0  0  0  0  0  0
    4.3128   -0.2053    2.6305 C   0  0  0  0  0  0  0  0  0  0  0  0
   -3.2102    1.5904   -0.3698 C   0  0  0  0  0  0  0  0  0  0  0  0
   -2.9965   -1.5362   -0.8284 C   0  0  0  0  0  0  0  0  0  0  0  0
   -4.1285    0.6252   -1.0841 C   0  0  0  0  0  0  0  0  0  0  0  0
   -3.4407   -0.5078   -1.8236 C   0  0  0  0  0  0  0  0  0  0  0  0
   -1.6048   -2.2601    1.0021 C   0  0  0  0  0  0  0  0  0  0  0  0
   -1.1855    2.4083    0.6597 C   0  0  0  0  0  0  0  0  0  0  0  0
   -3.6237   -2.7957   -0.8177 C   0  0  0  0  0  0  0  0  0  0  0  0
   -3.7512    2.8906   -0.2057 C   0  0  0  0  0  0  0  0  0  0  0  0
   -1.7303    3.6880    0.7881 C   0  0  0  0  0  0  0  0  0  0  0  0
   -2.2339   -3.5066    1.0070 C   0  0  0  0  0  0  0  0  0  0  0  0
   -3.0228    3.9279    0.3643 C   0  0  0  0  0  0  0  0  0  0  0  0
   -3.2442   -3.7752    0.0948 C   0  0  0  0  0  0  0  0  0  0  0  0
    5.1113   -0.7465   -0.0771 H   0  0  0  0  0  0  0  0  0  0  0  0
    2.6821   -0.6830   -3.4382 H   0  0  0  0  0  0  0  0  0  0  0  0
    4.5569    1.9148   -0.7105 H   0  0  0  0  0  0  0  0  0  0  0  0
    5.7828    1.0645   -1.6801 H   0  0  0  0  0  0  0  0  0  0  0  0
    3.1668    1.9524   -2.6509 H   0  0  0  0  0  0  0  0  0  0  0  0
    4.4592    1.0944   -3.5225 H   0  0  0  0  0  0  0  0  0  0  0  0
    0.1621   -0.1025   -2.1773 H   0  0  0  0  0  0  0  0  0  0  0  0
   -0.2720    0.0276    3.0340 H   0  0  0  0  0  0  0  0  0  0  0  0
    2.1185   -0.0626    4.2931 H   0  0  0  0  0  0  0  0  0  0  0  0
    4.4419   -0.0969    3.7106 H   0  0  0  0  0  0  0  0  0  0  0  0
    4.8207    0.6161    2.1191 H   0  0  0  0  0  0  0  0  0  0  0  0
    4.7054   -1.1728    2.3085 H   0  0  0  0  0  0  0  0  0  0  0  0
   -4.6945    1.1877   -1.8394 H   0  0  0  0  0  0  0  0  0  0  0  0
   -4.8604    0.2404   -0.3615 H   0  0  0  0  0  0  0  0  0  0  0  0
   -4.1505   -0.9548   -2.5309 H   0  0  0  0  0  0  0  0  0  0  0  0
   -2.5908   -0.1591   -2.4228 H   0  0  0  0  0  0  0  0  0  0  0  0
   -0.8258   -2.1023    1.7391 H   0  0  0  0  0  0  0  0  0  0  0  0
   -0.1723    2.2926    1.0322 H   0  0  0  0  0  0  0  0  0  0  0  0
   -4.4186   -3.0193   -1.5254 H   0  0  0  0  0  0  0  0  0  0  0  0
   -4.7627    3.1043   -0.5483 H   0  0  0  0  0  0  0  0  0  0  0  0
   -1.9313   -4.2642    1.7238 H   0  0  0  0  0  0  0  0  0  0  0  0
   -1.1418    4.4869    1.2293 H   0  0  0  0  0  0  0  0  0  0  0  0
   -3.4619    4.9152    0.4661 H   0  0  0  0  0  0  0  0  0  0  0  0
   -3.7367   -4.7428    0.0933 H   0  0  0  0  0  0  0  0  0  0  0  0
  1  4  1  0  0  0  0
  1  5  1  0  0  0  0
  2 10  1  0  0  0  0
  2 15  1  0  0  0  0
  2 18  1  0  0  0  0
  3 13  1  0  0  0  0
  3 16  1  0  0  0  0
  3 17  1  0  0  0  0
  4  6  1  0  0  0  0
  4  7  1  0  0  0  0
  4 31  1  0  0  0  0
  5  8  1  0  0  0  0
  5  9  1  0  0  0  0
  5 32  1  0  0  0  0
  6  9  1  0  0  0  0
  6 10  2  0  0  0  0
  7  8  1  0  0  0  0
  7 33  1  0  0  0  0
  7 34  1  0  0  0  0
  8 35  1  0  0  0  0
  8 36  1  0  0  0  0
  9 11  2  0  0  0  0
 10 12  1  0  0  0  0
 11 13  1  0  0  0  0
 11 37  1  0  0  0  0
 12 13  2  0  0  0  0
 12 14  1  0  0  0  0
 14 15  2  0  0  0  0
 14 38  1  0  0  0  0
 15 39  1  0  0  0  0
 16 19  1  0  0  0  0
 16 24  2  0  0  0  0
 17 20  1  0  0  0  0
 17 23  2  0  0  0  0
 18 40  1  0  0  0  0
 18 41  1  0  0  0  0
 18 42  1  0  0  0  0
 19 21  1  0  0  0  0
 19 26  2  0  0  0  0
 20 22  1  0  0  0  0
 20 25  2  0  0  0  0
 21 22  1  0  0  0  0
 21 43  1  0  0  0  0
 21 44  1  0  0  0  0
 22 45  1  0  0  0  0
 22 46  1  0  0  0  0
 23 28  1  0  0  0  0
 23 47  1  0  0  0  0
 24 27  1  0  0  0  0
 24 48  1  0  0  0  0
 25 30  1  0  0  0  0
 25 49  1  0  0  0  0
 26 29  1  0  0  0  0
 26 50  1  0  0  0  0
 27 29  2  0  0  0  0
 27 52  1  0  0  0  0
 28 30  2  0  0  0  0
 28 51  1  0  0  0  0
 29 53  1  0  0  0  0
 30 54  1  0  0  0  0
M  END
> <PUBCHEM_COMPOUND_CID>
51360632

> <PUBCHEM_CONFORMER_RMSD>
0.6

> <PUBCHEM_CONFORMER_DIVERSEORDER>
1
8
10
3
9
6
5
12
7
11
4
2

> <PUBCHEM_MMFF94_PARTIAL_CHARGES>
38
1 -0.56
10 -0.15
11 -0.15
13 0.1
14 -0.15
15 -0.3
16 0.1
17 0.1
18 0.26
19 -0.14
2 0.05
20 -0.14
21 0.14
22 0.14
23 -0.15
24 -0.15
25 -0.15
26 -0.15
27 -0.15
28 -0.15
29 -0.15
3 -0.3
30 -0.15
37 0.15
38 0.15
39 0.15
4 0.42
47 0.15
48 0.15
49 0.15
5 0.42
50 0.15
51 0.15
52 0.15
53 0.15
54 0.15
6 -0.14
9 -0.14

> <PUBCHEM_EFFECTIVE_ROTOR_COUNT>
2.2

> <PUBCHEM_PHARMACOPHORE_FEATURES>
9
1 1 acceptor
1 2 cation
1 3 cation
5 2 10 12 14 15 rings
6 16 19 24 26 27 29 rings
6 17 20 23 25 28 30 rings
6 6 9 10 11 12 13 rings
7 1 4 5 6 7 8 9 rings
7 3 16 17 19 20 21 22 rings

> <PUBCHEM_HEAVY_ATOM_COUNT>
30

> <PUBCHEM_ATOM_DEF_STEREO_COUNT>
0

> <PUBCHEM_ATOM_UDEF_STEREO_COUNT>
2

> <PUBCHEM_BOND_DEF_STEREO_COUNT>
0

> <PUBCHEM_BOND_UDEF_STEREO_COUNT>
0

> <PUBCHEM_ISOTOPIC_ATOM_COUNT>
0

> <PUBCHEM_COMPONENT_COUNT>
1

> <PUBCHEM_CACTVS_TAUTO_COUNT>
1

> <PUBCHEM_CONFORMER_ID>
030FB37800000001

> <PUBCHEM_MMFF94_ENERGY>
137.2882

> <PUBCHEM_FEATURE_SELFOVERLAP>
45.798

> <PUBCHEM_SHAPE_FINGERPRINT>
10169797 241 16601817193722950707
10369192 42 13553203185216652398
11049842 53 18194118508570482130
11115154 58 7844099004709993163
11578080 2 17417821672284217472
11640471 11 17748831778113889381
12128747 34 17769903863343431002
12160290 23 18335693932597610087
12553582 1 18265332983733341163
12714826 92 17774461445855204822
12788726 201 18260831544358320299
13009979 54 17895736453138786402
133893 2 15410889674226609106
13583140 156 17632286853296020230
13617811 41 18338509739101479285
13726171 33 18263659513839734341
14251757 17 17059204826698319148
14251757 5 18337399317923818775
14400156 260 17985248688086011237
14932701 244 17826817002688541372
15219462 58 18053908906181847194
15324884 4 17773584108801738415
15463212 79 18261961734673617405
15842332 3 17822004298723057106
16090146 7 17968923207327789691
16752209 62 18335412466058080587
1813 80 18055638566863711283
20600515 1 18266435737676310225
20693207 138 17346594149390455933
20905425 154 17832123293407557105
21033650 10 18201162040134511144
21133410 230 12163704294366002034
21756936 100 17097810974058274012
22182313 1 17274812567626431168
22440779 20 17271766950012686593
22907989 373 18338247049778289391
23557571 272 18202273714956727608
23559900 14 18200875063726479814
24893989 43 16617502578440336133
25265897 201 17620246070905014101
4169191 19 16517680168501648676
48014 12 14285039550060764748
5252454 2 17552922828472286241
57527585 21 17105149243257862868
5895379 119 18335697226626445060
59755656 520 16806761432865368360
633830 44 17096674078976852158
81228 2 18273208699665628057
9658208 31 18059010558783589041
9849439 229 18123742050900898305

> <PUBCHEM_SHAPE_MULTIPOLES>
601.55
8.92
3.86
2.71
4.99
0.79
0.93
0.04
-3.56
-7.63
0.79
4.06
-0.21
-0.79

> <PUBCHEM_SHAPE_SELFOVERLAP>
1380.533

> <PUBCHEM_SHAPE_VOLUME>
314.1

> <PUBCHEM_COORDINATE_TYPE>
2
5
10

$$$$
