3822493
  -OEChem-01171811513D

 47 51  0     0  0  0  0  0  0999 V2000
    1.4402    1.4082    0.1381 S   0  0  0  0  0  0  0  0  0  0  0  0
   -6.1271    2.0389    0.0579 O   0  0  0  0  0  0  0  0  0  0  0  0
    6.3389    3.0227   -0.8044 O   0  0  0  0  0  0  0  0  0  0  0  0
   -3.5335    0.9567    0.0770 N   0  0  0  0  0  0  0  0  0  0  0  0
   -1.2073    1.1776    0.0937 N   0  0  0  0  0  0  0  0  0  0  0  0
    2.1224   -2.4111   -0.0245 N   0  0  0  0  0  0  0  0  0  0  0  0
    4.6123    0.9685    0.1775 N   0  0  0  0  0  0  0  0  0  0  0  0
    4.3124   -1.3888    0.0647 N   0  0  0  0  0  0  0  0  0  0  0  0
   -2.2228   -0.9987   -0.0366 C   0  0  0  0  0  0  0  0  0  0  0  0
   -0.9766   -1.6276   -0.0539 C   0  0  0  0  0  0  0  0  0  0  0  0
   -3.3382   -1.9901   -0.0680 C   0  0  0  0  0  0  0  0  0  0  0  0
   -1.1527   -3.1223   -0.1003 C   0  0  0  0  0  0  0  0  0  0  0  0
   -2.6063   -3.2389   -0.5794 C   0  0  0  0  0  0  0  0  0  0  0  0
   -2.2875    0.3707    0.0440 C   0  0  0  0  0  0  0  0  0  0  0  0
    0.1872   -0.8449    0.0070 C   0  0  0  0  0  0  0  0  0  0  0  0
   -0.0177    0.5314    0.0737 C   0  0  0  0  0  0  0  0  0  0  0  0
   -3.9351    1.9091   -0.9656 C   0  0  0  0  0  0  0  0  0  0  0  0
   -4.2985    1.0617    1.3236 C   0  0  0  0  0  0  0  0  0  0  0  0
    1.5870   -1.1604    0.0217 C   0  0  0  0  0  0  0  0  0  0  0  0
   -5.4417    1.8237   -1.1770 C   0  0  0  0  0  0  0  0  0  0  0  0
   -5.7905    1.0269    1.0076 C   0  0  0  0  0  0  0  0  0  0  0  0
    2.3861   -0.0195    0.0896 C   0  0  0  0  0  0  0  0  0  0  0  0
    3.7694   -0.1568    0.1098 C   0  0  0  0  0  0  0  0  0  0  0  0
    3.4647   -2.4310    0.0011 C   0  0  0  0  0  0  0  0  0  0  0  0
    6.0292    0.8654    0.1999 C   0  0  0  0  0  0  0  0  0  0  0  0
    6.6857    2.2283    0.3225 C   0  0  0  0  0  0  0  0  0  0  0  0
   -3.7329   -2.1512    0.9404 H   0  0  0  0  0  0  0  0  0  0  0  0
   -4.1463   -1.7037   -0.7470 H   0  0  0  0  0  0  0  0  0  0  0  0
   -0.4599   -3.6040   -0.7952 H   0  0  0  0  0  0  0  0  0  0  0  0
   -1.0311   -3.5417    0.9037 H   0  0  0  0  0  0  0  0  0  0  0  0
   -2.6229   -3.2407   -1.6783 H   0  0  0  0  0  0  0  0  0  0  0  0
   -3.0822   -4.1673   -0.2486 H   0  0  0  0  0  0  0  0  0  0  0  0
   -3.4256    1.6933   -1.9121 H   0  0  0  0  0  0  0  0  0  0  0  0
   -3.6525    2.9201   -0.6487 H   0  0  0  0  0  0  0  0  0  0  0  0
   -4.0388    2.0071    1.8149 H   0  0  0  0  0  0  0  0  0  0  0  0
   -4.0538    0.2459    2.0133 H   0  0  0  0  0  0  0  0  0  0  0  0
   -5.7657    2.5967   -1.8809 H   0  0  0  0  0  0  0  0  0  0  0  0
   -5.7342    0.8510   -1.5906 H   0  0  0  0  0  0  0  0  0  0  0  0
   -6.0926    0.0478    0.6168 H   0  0  0  0  0  0  0  0  0  0  0  0
   -6.3691    1.2141    1.9177 H   0  0  0  0  0  0  0  0  0  0  0  0
    4.1692    1.8803    0.2032 H   0  0  0  0  0  0  0  0  0  0  0  0
    3.9245   -3.4122   -0.0343 H   0  0  0  0  0  0  0  0  0  0  0  0
    6.3746    0.3841   -0.7231 H   0  0  0  0  0  0  0  0  0  0  0  0
    6.3528    0.2454    1.0442 H   0  0  0  0  0  0  0  0  0  0  0  0
    7.7755    2.1378    0.3636 H   0  0  0  0  0  0  0  0  0  0  0  0
    6.3477    2.7520    1.2224 H   0  0  0  0  0  0  0  0  0  0  0  0
    6.6611    2.5627   -1.5983 H   0  0  0  0  0  0  0  0  0  0  0  0
  1 16  1  0  0  0  0
  1 22  1  0  0  0  0
  2 20  1  0  0  0  0
  2 21  1  0  0  0  0
  3 26  1  0  0  0  0
  3 47  1  0  0  0  0
  4 14  1  0  0  0  0
  4 17  1  0  0  0  0
  4 18  1  0  0  0  0
  5 14  2  0  0  0  0
  5 16  1  0  0  0  0
  6 19  1  0  0  0  0
  6 24  2  0  0  0  0
  7 23  1  0  0  0  0
  7 25  1  0  0  0  0
  7 41  1  0  0  0  0
  8 23  2  0  0  0  0
  8 24  1  0  0  0  0
  9 10  2  0  0  0  0
  9 11  1  0  0  0  0
  9 14  1  0  0  0  0
 10 12  1  0  0  0  0
 10 15  1  0  0  0  0
 11 13  1  0  0  0  0
 11 27  1  0  0  0  0
 11 28  1  0  0  0  0
 12 13  1  0  0  0  0
 12 29  1  0  0  0  0
 12 30  1  0  0  0  0
 13 31  1  0  0  0  0
 13 32  1  0  0  0  0
 15 16  2  0  0  0  0
 15 19  1  0  0  0  0
 17 20  1  0  0  0  0
 17 33  1  0  0  0  0
 17 34  1  0  0  0  0
 18 21  1  0  0  0  0
 18 35  1  0  0  0  0
 18 36  1  0  0  0  0
 19 22  2  0  0  0  0
 20 37  1  0  0  0  0
 20 38  1  0  0  0  0
 21 39  1  0  0  0  0
 21 40  1  0  0  0  0
 22 23  1  0  0  0  0
 24 42  1  0  0  0  0
 25 26  1  0  0  0  0
 25 43  1  0  0  0  0
 25 44  1  0  0  0  0
 26 45  1  0  0  0  0
 26 46  1  0  0  0  0
M  END
> <PUBCHEM_COMPOUND_CID>
3822493

> <PUBCHEM_CONFORMER_RMSD>
0.8

> <PUBCHEM_CONFORMER_DIVERSEORDER>
1
6
4
5
2
3

> <PUBCHEM_MMFF94_PARTIAL_CHARGES>
27
1 -0.08
10 -0.14
11 0.14
12 0.14
14 0.41
16 0.3
17 0.37
18 0.37
19 0.26
2 -0.56
20 0.28
21 0.28
22 0.04
23 0.41
24 0.47
25 0.37
26 0.28
3 -0.68
4 -0.84
41 0.4
42 0.15
47 0.4
5 -0.57
6 -0.57
7 -0.87
8 -0.62
9 -0.14

> <PUBCHEM_EFFECTIVE_ROTOR_COUNT>
5.8

> <PUBCHEM_PHARMACOPHORE_FEATURES>
12
1 2 acceptor
1 3 acceptor
1 3 donor
1 7 donor
3 4 5 14 cation
3 6 8 24 cation
3 7 8 23 cation
5 1 15 16 19 22 rings
5 9 10 11 12 13 rings
6 2 4 17 18 20 21 rings
6 5 9 10 14 15 16 rings
6 6 8 19 22 23 24 rings

> <PUBCHEM_HEAVY_ATOM_COUNT>
26

> <PUBCHEM_ATOM_DEF_STEREO_COUNT>
0

> <PUBCHEM_ATOM_UDEF_STEREO_COUNT>
0

> <PUBCHEM_BOND_DEF_STEREO_COUNT>
0

> <PUBCHEM_BOND_UDEF_STEREO_COUNT>
0

> <PUBCHEM_ISOTOPIC_ATOM_COUNT>
0

> <PUBCHEM_COMPONENT_COUNT>
1

> <PUBCHEM_CACTVS_TAUTO_COUNT>
3

> <PUBCHEM_CONFORMER_ID>
003A539D00000001

> <PUBCHEM_MMFF94_ENERGY>
80.9333

> <PUBCHEM_FEATURE_SELFOVERLAP>
61.253

> <PUBCHEM_SHAPE_FINGERPRINT>
10 15 18113339721233791016
10050765 1 18410855464956769030
10366900 7 17060335210598355730
10411042 1 17546444943367813295
10493431 412 18411141320678009907
10906281 52 17917723370037361033
11578080 2 17345171484787255099
12107183 9 18263350396965060626
12236239 1 17631726051121496193
12390115 104 18271821162993135970
12403259 415 18189335659059790173
12788726 201 17274548607046501280
13140716 1 18411982438552337667
13540713 5 18338497712765944554
13631057 29 18126844030436343590
13911987 19 18340475678760831869
14765038 42 18129958809960840217
14790565 3 18124883360875767633
15196674 1 18411699889828495466
15778101 99 18411984697894564880
16087824 20 18268425927750593551
17980427 23 17895758529713351204
18608769 82 18338518663895515307
19427546 20 18267583683528788727
20642791 178 18044102469601486068
20645477 56 18335415764276446341
21033648 144 18411129226066110957
21033648 29 17749667373314148989
21236236 1 18340767151550618494
21279426 13 18343590646836328630
21421861 104 17968926488941260458
21521721 280 18340772538241337929
21859007 373 17533765010503812980
22311459 1 18123751955232678286
23558518 356 17898573339056189459
23559900 14 18201435823452892722
249057 3 18340489959674810070
25147074 1 18339346526819986338
335352 9 18339923697847935974
34934 24 18410006628851942434
350125 39 18340488971515411483
3545911 37 18411702067165554192
4073 2 18187368779008334642
5104073 3 18408319995406112434
59554788 62 17822003199354140118
6327066 14 18336539444059860621
6328613 192 18341896294405858504
7808743 9 18409725188203243848

> <PUBCHEM_SHAPE_MULTIPOLES>
502.27
14.74
3.52
0.85
9.95
1.65
-0.02
-13.83
-0.18
0.09
0.61
-0.88
-0.34
-0.25

> <PUBCHEM_SHAPE_SELFOVERLAP>
1096.077

> <PUBCHEM_SHAPE_VOLUME>
276.4

> <PUBCHEM_COORDINATE_TYPE>
2
5
10

$$$$
