239677
  -OEChem-01171812143D

 30 32  0     0  0  0  0  0  0999 V2000
   -0.8402    2.5617    0.8087 Cl  0  0  0  0  0  0  0  0  0  0  0  0
   -3.4174    0.4877   -0.8065 O   0  0  0  0  0  0  0  0  0  0  0  0
    0.5327   -2.3005    0.5513 O   0  0  0  0  0  0  0  0  0  0  0  0
    1.9697    2.8210    0.0146 O   0  0  0  0  0  0  0  0  0  0  0  0
   -1.3758   -0.4364    1.0379 N   0  0  0  0  0  0  0  0  0  0  0  0
    2.2327   -0.7674    0.0349 C   0  0  0  0  0  0  0  0  0  0  0  0
   -0.1235   -0.0235    0.6761 C   0  0  0  0  0  0  0  0  0  0  0  0
    2.6105    0.5668   -0.1058 C   0  0  0  0  0  0  0  0  0  0  0  0
    0.8565   -1.1231    0.4302 C   0  0  0  0  0  0  0  0  0  0  0  0
   -2.1877   -1.3010    0.2243 C   0  0  0  0  0  0  0  0  0  0  0  0
    0.2643    1.2532    0.5338 C   0  0  0  0  0  0  0  0  0  0  0  0
    1.6394    1.6472    0.1381 C   0  0  0  0  0  0  0  0  0  0  0  0
    3.1668   -1.7843   -0.2006 C   0  0  0  0  0  0  0  0  0  0  0  0
   -3.5053   -0.6733   -0.1346 C   0  0  0  0  0  0  0  0  0  0  0  0
    3.9211    0.8871   -0.4816 C   0  0  0  0  0  0  0  0  0  0  0  0
    4.4717   -1.4623   -0.5748 C   0  0  0  0  0  0  0  0  0  0  0  0
    4.8483   -0.1286   -0.7150 C   0  0  0  0  0  0  0  0  0  0  0  0
   -4.7832   -1.0558    0.0902 C   0  0  0  0  0  0  0  0  0  0  0  0
   -5.5792   -0.0421   -0.4945 C   0  0  0  0  0  0  0  0  0  0  0  0
   -4.7016    0.8737   -1.0266 C   0  0  0  0  0  0  0  0  0  0  0  0
   -2.3688   -2.2335    0.7712 H   0  0  0  0  0  0  0  0  0  0  0  0
   -1.6854   -1.5725   -0.7132 H   0  0  0  0  0  0  0  0  0  0  0  0
   -1.8981    0.2618    1.5635 H   0  0  0  0  0  0  0  0  0  0  0  0
    2.8986   -2.8325   -0.0982 H   0  0  0  0  0  0  0  0  0  0  0  0
    4.2391    1.9198   -0.5978 H   0  0  0  0  0  0  0  0  0  0  0  0
    5.1945   -2.2524   -0.7568 H   0  0  0  0  0  0  0  0  0  0  0  0
    5.8645    0.1208   -1.0064 H   0  0  0  0  0  0  0  0  0  0  0  0
   -5.1219   -1.9434    0.6047 H   0  0  0  0  0  0  0  0  0  0  0  0
   -6.6577    0.0143   -0.5242 H   0  0  0  0  0  0  0  0  0  0  0  0
   -4.8247    1.8029   -1.5635 H   0  0  0  0  0  0  0  0  0  0  0  0
  1 11  1  0  0  0  0
  2 14  1  0  0  0  0
  2 20  1  0  0  0  0
  3  9  2  0  0  0  0
  4 12  2  0  0  0  0
  5  7  1  0  0  0  0
  5 10  1  0  0  0  0
  5 23  1  0  0  0  0
  6  8  1  0  0  0  0
  6  9  1  0  0  0  0
  6 13  2  0  0  0  0
  7  9  1  0  0  0  0
  7 11  2  0  0  0  0
  8 12  1  0  0  0  0
  8 15  2  0  0  0  0
 10 14  1  0  0  0  0
 10 21  1  0  0  0  0
 10 22  1  0  0  0  0
 11 12  1  0  0  0  0
 13 16  1  0  0  0  0
 13 24  1  0  0  0  0
 14 18  2  0  0  0  0
 15 17  1  0  0  0  0
 15 25  1  0  0  0  0
 16 17  2  0  0  0  0
 16 26  1  0  0  0  0
 17 27  1  0  0  0  0
 18 19  1  0  0  0  0
 18 28  1  0  0  0  0
 19 20  2  0  0  0  0
 19 29  1  0  0  0  0
 20 30  1  0  0  0  0
M  END
> <PUBCHEM_COMPOUND_CID>
239677

> <PUBCHEM_CONFORMER_RMSD>
0.6

> <PUBCHEM_CONFORMER_DIVERSEORDER>
1
10
19
27
14
22
9
28
24
11
29
3
26
23
13
18
16
8
20
15
21
7
6
17
12
5
25
4
2

> <PUBCHEM_MMFF94_PARTIAL_CHARGES>
28
1 -0.14
10 0.55
11 0.15
12 0.47
13 -0.15
14 -0.04
15 -0.15
16 -0.15
17 -0.15
18 -0.15
19 -0.15
2 -0.28
20 -0.01
23 0.4
24 0.15
25 0.15
26 0.15
27 0.15
28 0.15
29 0.15
3 -0.57
30 0.15
4 -0.57
5 -0.87
6 0.09
7 0.11
8 0.09
9 0.47

> <PUBCHEM_EFFECTIVE_ROTOR_COUNT>
3

> <PUBCHEM_PHARMACOPHORE_FEATURES>
8
1 2 acceptor
1 3 acceptor
1 4 acceptor
1 5 cation
1 5 donor
5 2 14 18 19 20 rings
6 6 7 8 9 11 12 rings
6 6 8 13 15 16 17 rings

> <PUBCHEM_HEAVY_ATOM_COUNT>
20

> <PUBCHEM_ATOM_DEF_STEREO_COUNT>
0

> <PUBCHEM_ATOM_UDEF_STEREO_COUNT>
0

> <PUBCHEM_BOND_DEF_STEREO_COUNT>
0

> <PUBCHEM_BOND_UDEF_STEREO_COUNT>
0

> <PUBCHEM_ISOTOPIC_ATOM_COUNT>
0

> <PUBCHEM_COMPONENT_COUNT>
1

> <PUBCHEM_CACTVS_TAUTO_COUNT>
3

> <PUBCHEM_CONFORMER_ID>
0003A83D00000001

> <PUBCHEM_MMFF94_ENERGY>
49.8245

> <PUBCHEM_FEATURE_SELFOVERLAP>
40.618

> <PUBCHEM_SHAPE_FINGERPRINT>
10498660 4 16951109695984386965
10693767 8 18200867388093278439
11471102 20 18410576205955608738
11578080 2 13119439323960727012
116883 192 18271248209712871940
12011746 2 18412272748640207918
12236239 1 17561370590939880443
12730499 353 18113622279196388115
12788726 201 18271244906819711712
13134695 92 17774999124121109049
13944108 23 16819371482833572405
14911166 2 18409451392533216642
15099037 51 18411419518405009943
15183329 4 18340768148605432501
15196674 1 18410573972562097789
15210252 30 17676491648511861468
15475509 35 14189026510342147182
16945 1 18266761223688766112
17349148 13 17132122355025452103
17357779 13 18411698764172374756
17959699 21 18040719160109694500
1813 80 14548740620549056243
18186145 218 18040988557975965647
19784866 140 18341050735693712707
19862831 5 18409730655543643707
200 152 18060139825332556440
20612939 158 18410578413547875245
20645477 70 18272376398937549206
21029758 11 18342179972969726496
21267235 1 18341342127496975019
21279426 13 18264487286927893733
21637258 2 15913054162604595950
221357 26 18410567388841567405
221490 88 18265901448013209987
22224240 67 8718536190857352118
22289505 5 18408880711554078460
22393880 68 18335131012456064087
22854114 59 8862943879154329223
23402539 116 18200880569341666600
23402655 69 18410573980993835399
23559900 14 18341612680962773888
23566358 2 18194117413152809853
23622692 118 18122906422358979586
25 1 18260823808932218475
25147074 1 18192441775302862810
2748010 2 17691423210154128840
2871803 45 18411141303556175894
3004659 81 18187646865181975734
3009799 131 18408319982710555112
3060560 45 18413105069804438678
3323516 105 18335698355928654389
34934 24 18341326812281784058
4072396 5 18335689560479184730
4280585 95 17262446098209091774
46194498 28 18041279984339446605
495365 180 17986947638838391192
5281201 14 18335139821417865341
5283173 99 18262514788758910973
543358 83 18336828593678535011
7164475 11 18198628726889596588
7471813 234 17561080315011191393
9709674 26 18191586556877641019

> <PUBCHEM_SHAPE_MULTIPOLES>
390.87
10.65
2.37
0.9
7.91
1.07
0.02
-2.35
4.05
-1.16
-0.37
0.28
0.08
0.32

> <PUBCHEM_SHAPE_SELFOVERLAP>
856.731

> <PUBCHEM_SHAPE_VOLUME>
212.7

> <PUBCHEM_COORDINATE_TYPE>
2
5
10

$$$$
