8031010
  -OEChem-01171812103D

 40 41  0     0  0  0  0  0  0999 V2000
   -1.6773   -2.0009   -0.0943 S   0  0  0  0  0  0  0  0  0  0  0  0
   -4.6925    1.1777    2.4811 F   0  0  0  0  0  0  0  0  0  0  0  0
   -1.8143   -2.7286    1.1529 O   0  0  0  0  0  0  0  0  0  0  0  0
   -2.0086   -2.6412   -1.3529 O   0  0  0  0  0  0  0  0  0  0  0  0
   -2.1841    0.0254   -2.2659 O   0  0  0  0  0  0  0  0  0  0  0  0
    3.5099    2.6860    0.0538 O   0  0  0  0  0  0  0  0  0  0  0  0
    5.2709   -1.6223   -0.1928 O   0  0  0  0  0  0  0  0  0  0  0  0
    2.1476    0.8557    0.5216 N   0  0  0  0  0  0  0  0  0  0  0  0
   -0.1047   -1.3497   -0.1936 N   0  0  0  0  0  0  0  0  0  0  0  0
    4.4370    0.5630   -0.0819 N   0  0  0  0  0  0  0  0  0  0  0  0
    2.0063   -0.5249    0.6351 C   0  0  0  0  0  0  0  0  0  0  0  0
    0.6710   -1.0996    1.0287 C   0  0  0  0  0  0  0  0  0  0  0  0
   -2.6651   -0.5392    0.0160 C   0  0  0  0  0  0  0  0  0  0  0  0
    3.0331   -1.3510    0.4016 C   0  0  0  0  0  0  0  0  0  0  0  0
    3.3704    1.4627    0.1581 C   0  0  0  0  0  0  0  0  0  0  0  0
    4.3548   -0.8288    0.0140 C   0  0  0  0  0  0  0  0  0  0  0  0
    0.9879    1.7084    0.7883 C   0  0  0  0  0  0  0  0  0  0  0  0
   -2.7994    0.2965   -1.0809 C   0  0  0  0  0  0  0  0  0  0  0  0
   -3.2941   -0.2566    1.2182 C   0  0  0  0  0  0  0  0  0  0  0  0
    5.7252    1.1348   -0.4598 C   0  0  0  0  0  0  0  0  0  0  0  0
   -3.5834    1.4451   -0.9733 C   0  0  0  0  0  0  0  0  0  0  0  0
   -4.0781    0.8920    1.3258 C   0  0  0  0  0  0  0  0  0  0  0  0
   -4.2228    1.7429    0.2301 C   0  0  0  0  0  0  0  0  0  0  0  0
   -2.3898    0.9526   -3.3298 C   0  0  0  0  0  0  0  0  0  0  0  0
    0.1155   -0.4591    1.7178 H   0  0  0  0  0  0  0  0  0  0  0  0
    0.8141   -2.0543    1.5503 H   0  0  0  0  0  0  0  0  0  0  0  0
    0.0304   -0.6406   -0.9271 H   0  0  0  0  0  0  0  0  0  0  0  0
    2.9323   -2.4281    0.4853 H   0  0  0  0  0  0  0  0  0  0  0  0
    0.1485    1.4197    0.1503 H   0  0  0  0  0  0  0  0  0  0  0  0
    1.2124    2.7579    0.5771 H   0  0  0  0  0  0  0  0  0  0  0  0
    0.7192    1.6367    1.8465 H   0  0  0  0  0  0  0  0  0  0  0  0
   -3.1972   -0.8981    2.0881 H   0  0  0  0  0  0  0  0  0  0  0  0
    6.4924    0.3738   -0.6204 H   0  0  0  0  0  0  0  0  0  0  0  0
    6.0516    1.8165    0.3321 H   0  0  0  0  0  0  0  0  0  0  0  0
    5.5938    1.7159   -1.3782 H   0  0  0  0  0  0  0  0  0  0  0  0
   -3.7426    2.1530   -1.7793 H   0  0  0  0  0  0  0  0  0  0  0  0
   -4.8337    2.6369    0.3156 H   0  0  0  0  0  0  0  0  0  0  0  0
   -1.9820    1.9404   -3.0896 H   0  0  0  0  0  0  0  0  0  0  0  0
   -3.4420    0.9955   -3.6313 H   0  0  0  0  0  0  0  0  0  0  0  0
   -1.8284    0.5802   -4.1931 H   0  0  0  0  0  0  0  0  0  0  0  0
  1  3  2  0  0  0  0
  1  4  2  0  0  0  0
  1  9  1  0  0  0  0
  1 13  1  0  0  0  0
  2 22  1  0  0  0  0
  5 18  1  0  0  0  0
  5 24  1  0  0  0  0
  6 15  2  0  0  0  0
  7 16  2  0  0  0  0
  8 11  1  0  0  0  0
  8 15  1  0  0  0  0
  8 17  1  0  0  0  0
  9 12  1  0  0  0  0
  9 27  1  0  0  0  0
 10 15  1  0  0  0  0
 10 16  1  0  0  0  0
 10 20  1  0  0  0  0
 11 12  1  0  0  0  0
 11 14  2  0  0  0  0
 12 25  1  0  0  0  0
 12 26  1  0  0  0  0
 13 18  2  0  0  0  0
 13 19  1  0  0  0  0
 14 16  1  0  0  0  0
 14 28  1  0  0  0  0
 17 29  1  0  0  0  0
 17 30  1  0  0  0  0
 17 31  1  0  0  0  0
 18 21  1  0  0  0  0
 19 22  2  0  0  0  0
 19 32  1  0  0  0  0
 20 33  1  0  0  0  0
 20 34  1  0  0  0  0
 20 35  1  0  0  0  0
 21 23  2  0  0  0  0
 21 36  1  0  0  0  0
 22 23  1  0  0  0  0
 23 37  1  0  0  0  0
 24 38  1  0  0  0  0
 24 39  1  0  0  0  0
 24 40  1  0  0  0  0
M  END
> <PUBCHEM_COMPOUND_CID>
8031010

> <PUBCHEM_CONFORMER_RMSD>
0.8

> <PUBCHEM_CONFORMER_DIVERSEORDER>
11
85
72
53
45
60
2
19
41
38
71
25
44
80
50
43
42
29
40
9
65
77
23
13
47
34
58
36
20
84
46
78
17
15
68
28
75
12
37
81
26
82
24
69
49
56
79
21
30
74
54
59
16
76
22
86
39
66
3
62
7
73
61
57
31
35
64
33
10
32
63
52
70
87
88
27
83
4
55
67
18
14
1
51
8
48
5
6

> <PUBCHEM_MMFF94_PARTIAL_CHARGES>
29
1 1.45
10 -0.42
11 -0.03
12 0.49
13 -0.01
14 -0.14
15 0.69
16 0.62
17 0.3
18 0.08
19 -0.15
2 -0.19
20 0.3
21 -0.15
22 0.19
23 -0.15
24 0.28
27 0.42
28 0.15
3 -0.65
32 0.15
36 0.15
37 0.15
4 -0.65
5 -0.36
6 -0.57
7 -0.57
8 -0.47
9 -0.91

> <PUBCHEM_EFFECTIVE_ROTOR_COUNT>
5

> <PUBCHEM_PHARMACOPHORE_FEATURES>
8
1 3 acceptor
1 4 acceptor
1 5 acceptor
1 6 acceptor
1 7 acceptor
1 9 donor
6 13 18 19 21 22 23 rings
6 8 10 11 14 15 16 rings

> <PUBCHEM_HEAVY_ATOM_COUNT>
24

> <PUBCHEM_ATOM_DEF_STEREO_COUNT>
0

> <PUBCHEM_ATOM_UDEF_STEREO_COUNT>
0

> <PUBCHEM_BOND_DEF_STEREO_COUNT>
0

> <PUBCHEM_BOND_UDEF_STEREO_COUNT>
0

> <PUBCHEM_ISOTOPIC_ATOM_COUNT>
0

> <PUBCHEM_COMPONENT_COUNT>
1

> <PUBCHEM_CACTVS_TAUTO_COUNT>
1

> <PUBCHEM_CONFORMER_ID>
007A8B220000000B

> <PUBCHEM_MMFF94_ENERGY>
53.1809

> <PUBCHEM_FEATURE_SELFOVERLAP>
40.62

> <PUBCHEM_SHAPE_FINGERPRINT>
10366900 7 17022897939521807569
11135926 11 18411134720030928246
11370993 144 18335143072428455310
11405975 8 18408600379608699106
11552529 35 18055912336289258950
11595378 159 15574705894284670892
12173636 292 17988354983499105831
12363563 72 10591756619158846059
12633257 1 18338226090353877462
12788726 201 17632025126441955888
13583140 156 14201942593149318134
14787075 74 11963692014130280990
15163728 17 16055216566564040065
15183329 4 18412826868119853958
15788980 27 16200155417412846456
18186145 218 18260822709620894866
18219364 16 18188762860703823005
21033648 29 17968361377828102020
21756936 100 17988928868491692361
21864079 5 17095790088591795932
221357 26 18268706280531914406
22907989 373 17629747118595204151
23402655 69 18413110580700594760
23503958 25 17240757359287264508
3459 83 18058732382273267654
350125 39 18340771545808863515
469060 322 16805884125523557507
474 4 18129662985461372371
497634 4 18340483473688319095
5104073 3 18336824290728161546
543358 83 18411703184453150298
6287921 2 17679031644852040436
633830 44 18272088288426263686
7399639 24 17549820435927825370

> <PUBCHEM_SHAPE_MULTIPOLES>
446.19
11.19
2.56
1.92
9.92
0.65
1.15
-3.91
-1.09
0.1
0.07
-3.33
-0.64
0.11

> <PUBCHEM_SHAPE_SELFOVERLAP>
928.24

> <PUBCHEM_SHAPE_VOLUME>
256.9

> <PUBCHEM_COORDINATE_TYPE>
2
5
10

$$$$
