594763
  -OEChem-01171811403D

 20 21  0     0  0  0  0  0  0999 V2000
   -3.9507    0.8466   -0.2451 O   0  0  0  0  0  0  0  0  0  0  0  0
   -1.3362   -1.2569    0.3561 N   0  0  0  0  0  0  0  0  0  0  0  0
   -2.6759   -1.0362    0.3438 N   0  0  0  0  0  0  0  0  0  0  0  0
   -0.6788   -0.1061    0.0016 C   0  0  0  0  0  0  0  0  0  0  0  0
    0.7885   -0.0161   -0.0055 C   0  0  0  0  0  0  0  0  0  0  0  0
   -1.5503    0.8709   -0.3033 C   0  0  0  0  0  0  0  0  0  0  0  0
    1.4140    1.2002    0.2688 C   0  0  0  0  0  0  0  0  0  0  0  0
    1.5555   -1.1469   -0.2866 C   0  0  0  0  0  0  0  0  0  0  0  0
   -2.8929    0.2644   -0.0789 C   0  0  0  0  0  0  0  0  0  0  0  0
    2.8062    1.2859    0.2618 C   0  0  0  0  0  0  0  0  0  0  0  0
    2.9477   -1.0611   -0.2935 C   0  0  0  0  0  0  0  0  0  0  0  0
    3.5730    0.1552   -0.0193 C   0  0  0  0  0  0  0  0  0  0  0  0
   -0.9191   -1.9814    0.9239 H   0  0  0  0  0  0  0  0  0  0  0  0
   -1.3751    1.8847   -0.6180 H   0  0  0  0  0  0  0  0  0  0  0  0
    0.8430    2.0957    0.5004 H   0  0  0  0  0  0  0  0  0  0  0  0
    1.0939   -2.1051   -0.5117 H   0  0  0  0  0  0  0  0  0  0  0  0
   -3.3330   -1.7644    0.5896 H   0  0  0  0  0  0  0  0  0  0  0  0
    3.2934    2.2323    0.4772 H   0  0  0  0  0  0  0  0  0  0  0  0
    3.5452   -1.9409   -0.5141 H   0  0  0  0  0  0  0  0  0  0  0  0
    4.6570    0.2219   -0.0246 H   0  0  0  0  0  0  0  0  0  0  0  0
  1  9  2  0  0  0  0
  2  3  1  0  0  0  0
  2  4  1  0  0  0  0
  2 13  1  0  0  0  0
  3  9  1  0  0  0  0
  3 17  1  0  0  0  0
  4  5  1  0  0  0  0
  4  6  2  0  0  0  0
  5  7  2  0  0  0  0
  5  8  1  0  0  0  0
  6  9  1  0  0  0  0
  6 14  1  0  0  0  0
  7 10  1  0  0  0  0
  7 15  1  0  0  0  0
  8 11  2  0  0  0  0
  8 16  1  0  0  0  0
 10 12  2  0  0  0  0
 10 18  1  0  0  0  0
 11 12  1  0  0  0  0
 11 19  1  0  0  0  0
 12 20  1  0  0  0  0
M  END
> <PUBCHEM_COMPOUND_CID>
594763

> <PUBCHEM_CONFORMER_RMSD>
0.4

> <PUBCHEM_CONFORMER_DIVERSEORDER>
1
3
2

> <PUBCHEM_MMFF94_PARTIAL_CHARGES>
20
1 -0.57
10 -0.15
11 -0.15
12 -0.15
13 0.4
14 0.15
15 0.15
16 0.15
17 0.37
18 0.15
19 0.15
2 -0.52
20 0.15
3 -0.41
4 0.07
5 0.03
6 -0.14
7 -0.15
8 -0.15
9 0.62

> <PUBCHEM_EFFECTIVE_ROTOR_COUNT>
1

> <PUBCHEM_PHARMACOPHORE_FEATURES>
5
1 1 acceptor
1 2 donor
1 3 donor
5 2 3 4 6 9 rings
6 5 7 8 10 11 12 rings

> <PUBCHEM_HEAVY_ATOM_COUNT>
12

> <PUBCHEM_ATOM_DEF_STEREO_COUNT>
0

> <PUBCHEM_ATOM_UDEF_STEREO_COUNT>
0

> <PUBCHEM_BOND_DEF_STEREO_COUNT>
0

> <PUBCHEM_BOND_UDEF_STEREO_COUNT>
0

> <PUBCHEM_ISOTOPIC_ATOM_COUNT>
0

> <PUBCHEM_COMPONENT_COUNT>
1

> <PUBCHEM_CACTVS_TAUTO_COUNT>
5

> <PUBCHEM_CONFORMER_ID>
0009134B00000001

> <PUBCHEM_MMFF94_ENERGY>
42.4595

> <PUBCHEM_FEATURE_SELFOVERLAP>
26.977

> <PUBCHEM_SHAPE_FINGERPRINT>
10130415 120 18340483370545520920
10219947 1 17560803212695750902
10608611 8 18410289233120416609
11062470 55 18060699472424465525
11471102 20 18342173349887341892
12932764 1 17167850972200119188
13380535 76 18411134740382261727
13571099 22 18202285771145860870
13922767 16 18271801324523475408
14144814 61 18341334417993508808
14325111 11 18410855485897978561
14648413 74 18263926712197375576
14993402 34 16415478268116342924
15219456 202 18410857684926502386
15775835 57 17967249775872168634
16945 1 18341619196042682506
17844478 74 18260275148192436137
18175812 5 18408886256404278302
18186145 218 18338517443602167341
200 152 17775277270793051015
20201158 50 18413109433353755774
20279233 1 18410012143373581658
20528008 55 18410007741216641701
20645477 70 18200875080294757190
20871998 22 17913774912645968718
23402539 116 18339066129906012301
23402655 69 18272363136210609453
2748010 2 18338802328677480934
528886 8 18413665820792126370
53812653 166 18408882927947074578
6333449 129 18408038541819458111
69090 78 18413101771527797255
7364860 26 18264482880529487274
8809292 202 18333737913853898842

> <PUBCHEM_SHAPE_MULTIPOLES>
231.12
6.22
1.39
0.65
1.93
0.04
-0.01
-0.63
-0.21
-0.39
0.05
-0.02
0
0.43

> <PUBCHEM_SHAPE_SELFOVERLAP>
502.432

> <PUBCHEM_SHAPE_VOLUME>
127.4

> <PUBCHEM_COORDINATE_TYPE>
2
5
10

$$$$
