568445
  -OEChem-01171811473D

 20 21  0     0  0  0  0  0  0999 V2000
    5.0429    0.1720   -0.0214 Br  0  0  0  0  0  0  0  0  0  0  0  0
   -4.3568    0.8938   -0.2504 O   0  0  0  0  0  0  0  0  0  0  0  0
   -1.7765   -1.2505    0.3555 N   0  0  0  0  0  0  0  0  0  0  0  0
   -3.1126   -1.0088    0.3404 N   0  0  0  0  0  0  0  0  0  0  0  0
   -1.1006   -0.1099    0.0027 C   0  0  0  0  0  0  0  0  0  0  0  0
    0.3680   -0.0427   -0.0013 C   0  0  0  0  0  0  0  0  0  0  0  0
   -1.9560    0.8808   -0.3036 C   0  0  0  0  0  0  0  0  0  0  0  0
    1.0117    1.1634    0.2747 C   0  0  0  0  0  0  0  0  0  0  0  0
    1.1176   -1.1850   -0.2828 C   0  0  0  0  0  0  0  0  0  0  0  0
   -3.3084    0.2951   -0.0821 C   0  0  0  0  0  0  0  0  0  0  0  0
    2.4051    1.2275    0.2691 C   0  0  0  0  0  0  0  0  0  0  0  0
    2.5109   -1.1210   -0.2884 C   0  0  0  0  0  0  0  0  0  0  0  0
    3.1548    0.0853   -0.0123 C   0  0  0  0  0  0  0  0  0  0  0  0
   -1.3720   -1.9815    0.9239 H   0  0  0  0  0  0  0  0  0  0  0  0
   -1.7643    1.8918   -0.6176 H   0  0  0  0  0  0  0  0  0  0  0  0
    0.4542    2.0674    0.5064 H   0  0  0  0  0  0  0  0  0  0  0  0
    0.6411   -2.1355   -0.5096 H   0  0  0  0  0  0  0  0  0  0  0  0
   -3.7814   -1.7269    0.5846 H   0  0  0  0  0  0  0  0  0  0  0  0
    2.8915    2.1747    0.4879 H   0  0  0  0  0  0  0  0  0  0  0  0
    3.0803   -2.0196   -0.5117 H   0  0  0  0  0  0  0  0  0  0  0  0
  1 13  1  0  0  0  0
  2 10  2  0  0  0  0
  3  4  1  0  0  0  0
  3  5  1  0  0  0  0
  3 14  1  0  0  0  0
  4 10  1  0  0  0  0
  4 18  1  0  0  0  0
  5  6  1  0  0  0  0
  5  7  2  0  0  0  0
  6  8  2  0  0  0  0
  6  9  1  0  0  0  0
  7 10  1  0  0  0  0
  7 15  1  0  0  0  0
  8 11  1  0  0  0  0
  8 16  1  0  0  0  0
  9 12  2  0  0  0  0
  9 17  1  0  0  0  0
 11 13  2  0  0  0  0
 11 19  1  0  0  0  0
 12 13  1  0  0  0  0
 12 20  1  0  0  0  0
M  END
> <PUBCHEM_COMPOUND_CID>
568445

> <PUBCHEM_CONFORMER_RMSD>
0.4

> <PUBCHEM_CONFORMER_DIVERSEORDER>
1
2
3

> <PUBCHEM_MMFF94_PARTIAL_CHARGES>
20
1 -0.11
10 0.62
11 -0.15
12 -0.15
13 0.11
14 0.4
15 0.15
16 0.15
17 0.15
18 0.37
19 0.15
2 -0.57
20 0.15
3 -0.52
4 -0.41
5 0.07
6 0.03
7 -0.14
8 -0.15
9 -0.15

> <PUBCHEM_EFFECTIVE_ROTOR_COUNT>
1

> <PUBCHEM_PHARMACOPHORE_FEATURES>
6
1 1 hydrophobe
1 2 acceptor
1 3 donor
1 4 donor
5 3 4 5 7 10 rings
6 6 8 9 11 12 13 rings

> <PUBCHEM_HEAVY_ATOM_COUNT>
13

> <PUBCHEM_ATOM_DEF_STEREO_COUNT>
0

> <PUBCHEM_ATOM_UDEF_STEREO_COUNT>
0

> <PUBCHEM_BOND_DEF_STEREO_COUNT>
0

> <PUBCHEM_BOND_UDEF_STEREO_COUNT>
0

> <PUBCHEM_ISOTOPIC_ATOM_COUNT>
0

> <PUBCHEM_COMPONENT_COUNT>
1

> <PUBCHEM_CACTVS_TAUTO_COUNT>
5

> <PUBCHEM_CONFORMER_ID>
0008AC7D00000001

> <PUBCHEM_MMFF94_ENERGY>
43.439

> <PUBCHEM_FEATURE_SELFOVERLAP>
32.051

> <PUBCHEM_SHAPE_FINGERPRINT>
10219947 1 17632861910524475630
10608611 8 18410289233294476937
11062470 55 18410855447253815918
11401426 45 18201996638532546744
11471102 20 18342736295582634724
12032990 46 18342464733749223782
124424 183 18409164415666229736
12500047 106 18333446556072939867
12932764 1 16660630886687715285
13214271 11 18410853291227823295
13380535 76 18411418405839798607
13760787 19 17894914040395911834
13922767 16 18273210919915748184
14144814 61 18341897363683552873
14325111 11 18411136973786029849
14911166 2 18272094898723661332
14993402 34 16630522934067294980
15219456 202 18410857680694864659
15375358 24 18413670201553416038
15775835 57 17894910711136731587
16945 1 18273501177973764042
18175812 5 18336546105036827532
18186145 218 18337675222058719535
18522853 276 18343864403071285432
200 152 17775560944808828397
20201158 50 18412827966819254178
20279233 1 18410860957728713103
20645477 56 18259983747936824597
20645477 70 18129943364757485198
22485316 2 18334855013509706946
23402539 116 18186512215703584181
23402655 69 18200305525108843877
23559900 14 18409731721450147414
3312278 4 18412830187327766018
4072396 5 18340472375793447882
5104073 3 18409730698472095104
53812653 166 18410571786423672826
69090 78 18412820292319422807
7364860 26 18265048025163762986
8809292 202 18261679263143181426

> <PUBCHEM_SHAPE_MULTIPOLES>
257.64
8.22
1.32
0.66
1.06
0.08
0.01
-0.95
0.24
0.02
-0.03
0.06
0
0.39

> <PUBCHEM_SHAPE_SELFOVERLAP>
544

> <PUBCHEM_SHAPE_VOLUME>
149.1

> <PUBCHEM_COORDINATE_TYPE>
2
5
10

$$$$
