970858
  -OEChem-01171811483D

 42 43  0     0  0  0  0  0  0999 V2000
   -0.9282   -3.0232   -1.1709 S   0  0  0  0  0  0  0  0  0  0  0  0
   -1.0254    2.2482   -0.2523 O   0  0  0  0  0  0  0  0  0  0  0  0
    4.7067    0.3983    0.3969 N   0  0  0  0  0  0  0  0  0  0  0  0
    2.1226   -0.7804   -0.1218 N   0  0  0  0  0  0  0  0  0  0  0  0
    1.3161   -1.8041   -0.5810 N   0  0  0  0  0  0  0  0  0  0  0  0
   -0.5500   -0.5116   -0.0517 N   0  0  0  0  0  0  0  0  0  0  0  0
    3.8766   -0.1285    1.4876 C   0  0  0  0  0  0  0  0  0  0  0  0
    3.8637    0.8673   -0.7100 C   0  0  0  0  0  0  0  0  0  0  0  0
    2.9623   -1.2508    0.9842 C   0  0  0  0  0  0  0  0  0  0  0  0
    2.9491   -0.2551   -1.2129 C   0  0  0  0  0  0  0  0  0  0  0  0
    5.5761    1.4703    0.8776 C   0  0  0  0  0  0  0  0  0  0  0  0
   -0.0734   -1.7149   -0.5619 C   0  0  0  0  0  0  0  0  0  0  0  0
   -1.8506    0.0260    0.1175 C   0  0  0  0  0  0  0  0  0  0  0  0
   -2.0524    1.3916    0.0116 C   0  0  0  0  0  0  0  0  0  0  0  0
   -2.8968   -0.8409    0.3858 C   0  0  0  0  0  0  0  0  0  0  0  0
   -4.1825   -0.3266    0.5532 C   0  0  0  0  0  0  0  0  0  0  0  0
   -3.3383    1.9058    0.1788 C   0  0  0  0  0  0  0  0  0  0  0  0
   -4.4033    1.0467    0.4497 C   0  0  0  0  0  0  0  0  0  0  0  0
   -5.3212   -1.2450    0.8430 C   0  0  0  0  0  0  0  0  0  0  0  0
   -0.7510    2.5268   -1.6234 C   0  0  0  0  0  0  0  0  0  0  0  0
    3.2687    0.6686    1.9370 H   0  0  0  0  0  0  0  0  0  0  0  0
    4.5181   -0.5352    2.2787 H   0  0  0  0  0  0  0  0  0  0  0  0
    4.4955    1.1968   -1.5437 H   0  0  0  0  0  0  0  0  0  0  0  0
    3.2548    1.7280   -0.4012 H   0  0  0  0  0  0  0  0  0  0  0  0
    3.5708   -2.1129    0.6774 H   0  0  0  0  0  0  0  0  0  0  0  0
    2.3279   -1.5819    1.8159 H   0  0  0  0  0  0  0  0  0  0  0  0
    2.3048    0.1498   -2.0034 H   0  0  0  0  0  0  0  0  0  0  0  0
    3.5563   -1.0514   -1.6654 H   0  0  0  0  0  0  0  0  0  0  0  0
    5.0075    2.3224    1.2671 H   0  0  0  0  0  0  0  0  0  0  0  0
    6.2257    1.8288    0.0715 H   0  0  0  0  0  0  0  0  0  0  0  0
    6.2351    1.1034    1.6724 H   0  0  0  0  0  0  0  0  0  0  0  0
    1.7653   -2.6397   -0.9441 H   0  0  0  0  0  0  0  0  0  0  0  0
    0.1799    0.1932    0.0370 H   0  0  0  0  0  0  0  0  0  0  0  0
   -2.7528   -1.9021    0.5461 H   0  0  0  0  0  0  0  0  0  0  0  0
   -3.5178    2.9747    0.1009 H   0  0  0  0  0  0  0  0  0  0  0  0
   -5.3996    1.4606    0.5800 H   0  0  0  0  0  0  0  0  0  0  0  0
   -6.2767   -0.8056    0.5369 H   0  0  0  0  0  0  0  0  0  0  0  0
   -5.2122   -2.1877    0.2958 H   0  0  0  0  0  0  0  0  0  0  0  0
   -5.3657   -1.4616    1.9149 H   0  0  0  0  0  0  0  0  0  0  0  0
   -1.6103    3.0145   -2.0944 H   0  0  0  0  0  0  0  0  0  0  0  0
   -0.4978    1.6087   -2.1630 H   0  0  0  0  0  0  0  0  0  0  0  0
    0.1053    3.2053   -1.6700 H   0  0  0  0  0  0  0  0  0  0  0  0
  1 12  2  0  0  0  0
  2 14  1  0  0  0  0
  2 20  1  0  0  0  0
  3  7  1  0  0  0  0
  3  8  1  0  0  0  0
  3 11  1  0  0  0  0
  4  5  1  0  0  0  0
  4  9  1  0  0  0  0
  4 10  1  0  0  0  0
  5 12  1  0  0  0  0
  5 32  1  0  0  0  0
  6 12  1  0  0  0  0
  6 13  1  0  0  0  0
  6 33  1  0  0  0  0
  7  9  1  0  0  0  0
  7 21  1  0  0  0  0
  7 22  1  0  0  0  0
  8 10  1  0  0  0  0
  8 23  1  0  0  0  0
  8 24  1  0  0  0  0
  9 25  1  0  0  0  0
  9 26  1  0  0  0  0
 10 27  1  0  0  0  0
 10 28  1  0  0  0  0
 11 29  1  0  0  0  0
 11 30  1  0  0  0  0
 11 31  1  0  0  0  0
 13 14  2  0  0  0  0
 13 15  1  0  0  0  0
 14 17  1  0  0  0  0
 15 16  2  0  0  0  0
 15 34  1  0  0  0  0
 16 18  1  0  0  0  0
 16 19  1  0  0  0  0
 17 18  2  0  0  0  0
 17 35  1  0  0  0  0
 18 36  1  0  0  0  0
 19 37  1  0  0  0  0
 19 38  1  0  0  0  0
 19 39  1  0  0  0  0
 20 40  1  0  0  0  0
 20 41  1  0  0  0  0
 20 42  1  0  0  0  0
M  END
> <PUBCHEM_COMPOUND_CID>
970858

> <PUBCHEM_CONFORMER_RMSD>
0.8

> <PUBCHEM_CONFORMER_DIVERSEORDER>
1
73
2
17
14
80
76
72
27
31
35
50
29
70
16
74
60
44
71
36
79
55
15
24
61
21
52
32
37
47
33
58
41
43
40
68
22
11
59
23
75
64
46
77
82
25
83
13
69
20
62
54
63
19
34
65
42
66
10
8
30
67
48
18
45
49
81
39
51
7
56
12
28
3
78
4
5
38
6
57
26
53
9

> <PUBCHEM_MMFF94_PARTIAL_CHARGES>
25
1 -0.38
10 0.27
11 0.27
12 0.5
13 0.12
14 0.08
15 -0.15
16 -0.14
17 -0.15
18 -0.15
19 0.14
2 -0.36
20 0.28
3 -0.81
32 0.37
33 0.37
34 0.15
35 0.15
36 0.15
4 -0.55
5 -0.42
6 -0.55
7 0.27
8 0.27
9 0.27

> <PUBCHEM_EFFECTIVE_ROTOR_COUNT>
6.2

> <PUBCHEM_PHARMACOPHORE_FEATURES>
7
1 1 acceptor
1 2 acceptor
1 3 cation
1 5 donor
1 6 donor
6 13 14 15 16 17 18 rings
6 3 4 7 8 9 10 rings

> <PUBCHEM_HEAVY_ATOM_COUNT>
20

> <PUBCHEM_ATOM_DEF_STEREO_COUNT>
0

> <PUBCHEM_ATOM_UDEF_STEREO_COUNT>
0

> <PUBCHEM_BOND_DEF_STEREO_COUNT>
0

> <PUBCHEM_BOND_UDEF_STEREO_COUNT>
0

> <PUBCHEM_ISOTOPIC_ATOM_COUNT>
0

> <PUBCHEM_COMPONENT_COUNT>
1

> <PUBCHEM_CACTVS_TAUTO_COUNT>
3

> <PUBCHEM_CONFORMER_ID>
000ED06A00000001

> <PUBCHEM_MMFF94_ENERGY>
67.6193

> <PUBCHEM_FEATURE_SELFOVERLAP>
35.565

> <PUBCHEM_SHAPE_FINGERPRINT>
10366900 7 17095534984856811064
10498660 4 18341898446078952560
10670039 82 18262253140137002020
107951 10 14045744837489263837
10906281 52 18263947496324277489
11132069 177 18336271137220523701
11595378 159 18188194464626466602
12403259 118 18186801374429950589
12403259 415 18200884980215187286
12403814 3 18335693945060466861
12596602 18 17603580846498691624
12633257 1 18129929183239327088
13140716 1 18122907800246312066
13583140 156 17531230773339886463
14341114 328 17822016414773077488
15196674 1 18410578344575015561
18186145 218 16702017556550663306
18769570 83 16153983535808305301
19862831 5 11384113050976276630
20261772 1 18410855486298976734
20645477 56 18202283636758351662
20715895 44 17606952885642792837
21652331 79 18408601470276931024
23227448 37 18058164101964465852
23402539 116 18333445448335413331
23557571 272 18267322979193042295
23559900 14 17979356356957110543
3009799 131 18187353343148644943
3027735 51 11891872966432960221
350125 39 18268999678733659726
3524813 1 18272646878898319584
4921388 177 14691990510116980197
5104073 3 18337962164687268747
633830 44 17417255303731552117
6442390 28 18273220798108816870
7064713 232 18340212899043439989
7097593 13 17174045418895487459
7808743 9 18271239547370445560
90316 7 17749956527296836909
9925002 15 17984136243488319727

> <PUBCHEM_SHAPE_MULTIPOLES>
389.65
10.89
2.74
1.25
4.95
0.32
0.15
-2.66
-4.65
-1.25
1.13
0.7
-0.02
0.33

> <PUBCHEM_SHAPE_SELFOVERLAP>
786.626

> <PUBCHEM_SHAPE_VOLUME>
231.9

> <PUBCHEM_COORDINATE_TYPE>
2
5
10

$$$$
