20961894
  -OEChem-01171812083D

 41 43  0     0  0  0  0  0  0999 V2000
   -3.5434   -2.0807   -0.5301 S   0  0  0  0  0  0  0  0  0  0  0  0
   -2.0145    2.9162   -1.5441 S   0  0  0  0  0  0  0  0  0  0  0  0
    0.5326    1.4015    2.3611 O   0  0  0  0  0  0  0  0  0  0  0  0
   -0.9824   -1.5019   -2.1672 O   0  0  0  0  0  0  0  0  0  0  0  0
   -0.7642    2.0136    0.5179 N   0  0  0  0  0  0  0  0  0  0  0  0
    0.1386   -2.0674   -0.1816 N   0  0  0  0  0  0  0  0  0  0  0  0
   -2.6401    0.6900   -0.1387 N   0  0  0  0  0  0  0  0  0  0  0  0
    1.3351   -1.3158   -0.2664 C   0  0  0  0  0  0  0  0  0  0  0  0
    2.2890   -1.3723    0.7499 C   0  0  0  0  0  0  0  0  0  0  0  0
   -2.3350   -0.1418    0.9200 C   0  0  0  0  0  0  0  0  0  0  0  0
    3.6808    0.1804   -0.4703 C   0  0  0  0  0  0  0  0  0  0  0  0
   -3.2535   -1.3188    1.0783 C   0  0  0  0  0  0  0  0  0  0  0  0
    3.4617   -0.6243    0.6479 C   0  0  0  0  0  0  0  0  0  0  0  0
    1.5541   -0.5112   -1.3846 C   0  0  0  0  0  0  0  0  0  0  0  0
   -1.8547    1.7040   -0.2820 C   0  0  0  0  0  0  0  0  0  0  0  0
    2.7269    0.2369   -1.4865 C   0  0  0  0  0  0  0  0  0  0  0  0
   -1.3071    0.0465    1.7685 C   0  0  0  0  0  0  0  0  0  0  0  0
   -0.4076    1.2196    1.5941 C   0  0  0  0  0  0  0  0  0  0  0  0
   -2.0131   -3.0368   -0.6611 C   0  0  0  0  0  0  0  0  0  0  0  0
    2.0806   -2.2256    1.9588 C   0  0  0  0  0  0  0  0  0  0  0  0
   -0.8980   -2.1149   -1.1062 C   0  0  0  0  0  0  0  0  0  0  0  0
   -0.0988    3.1579    0.1367 C   0  0  0  0  0  0  0  0  0  0  0  0
    4.9347    0.9804   -0.5797 C   0  0  0  0  0  0  0  0  0  0  0  0
   -0.6218    3.7645   -0.9347 C   0  0  0  0  0  0  0  0  0  0  0  0
   -2.8799   -2.0611    1.7914 H   0  0  0  0  0  0  0  0  0  0  0  0
   -4.2180   -0.9646    1.4589 H   0  0  0  0  0  0  0  0  0  0  0  0
    4.2077   -0.6628    1.4383 H   0  0  0  0  0  0  0  0  0  0  0  0
    0.8683   -0.4086   -2.2127 H   0  0  0  0  0  0  0  0  0  0  0  0
    0.0355   -2.6349    0.6547 H   0  0  0  0  0  0  0  0  0  0  0  0
    2.8856    0.8628   -2.3608 H   0  0  0  0  0  0  0  0  0  0  0  0
   -1.1002   -0.6283    2.5911 H   0  0  0  0  0  0  0  0  0  0  0  0
   -1.7968   -3.5562    0.2764 H   0  0  0  0  0  0  0  0  0  0  0  0
   -2.1388   -3.8005   -1.4356 H   0  0  0  0  0  0  0  0  0  0  0  0
    2.9263   -2.1602    2.6522 H   0  0  0  0  0  0  0  0  0  0  0  0
    1.9792   -3.2782    1.6744 H   0  0  0  0  0  0  0  0  0  0  0  0
    1.1894   -1.9070    2.5084 H   0  0  0  0  0  0  0  0  0  0  0  0
    0.7672    3.4917    0.6899 H   0  0  0  0  0  0  0  0  0  0  0  0
    5.2118    1.1422   -1.6270 H   0  0  0  0  0  0  0  0  0  0  0  0
    5.7745    0.4640   -0.1026 H   0  0  0  0  0  0  0  0  0  0  0  0
    4.8015    1.9545   -0.0987 H   0  0  0  0  0  0  0  0  0  0  0  0
   -0.2438    4.6704   -1.3860 H   0  0  0  0  0  0  0  0  0  0  0  0
  1 12  1  0  0  0  0
  1 19  1  0  0  0  0
  2 15  1  0  0  0  0
  2 24  1  0  0  0  0
  3 18  2  0  0  0  0
  4 21  2  0  0  0  0
  5 15  1  0  0  0  0
  5 18  1  0  0  0  0
  5 22  1  0  0  0  0
  6  8  1  0  0  0  0
  6 21  1  0  0  0  0
  6 29  1  0  0  0  0
  7 10  1  0  0  0  0
  7 15  2  0  0  0  0
  8  9  2  0  0  0  0
  8 14  1  0  0  0  0
  9 13  1  0  0  0  0
  9 20  1  0  0  0  0
 10 12  1  0  0  0  0
 10 17  2  0  0  0  0
 11 13  2  0  0  0  0
 11 16  1  0  0  0  0
 11 23  1  0  0  0  0
 12 25  1  0  0  0  0
 12 26  1  0  0  0  0
 13 27  1  0  0  0  0
 14 16  2  0  0  0  0
 14 28  1  0  0  0  0
 16 30  1  0  0  0  0
 17 18  1  0  0  0  0
 17 31  1  0  0  0  0
 19 21  1  0  0  0  0
 19 32  1  0  0  0  0
 19 33  1  0  0  0  0
 20 34  1  0  0  0  0
 20 35  1  0  0  0  0
 20 36  1  0  0  0  0
 22 24  2  0  0  0  0
 22 37  1  0  0  0  0
 23 38  1  0  0  0  0
 23 39  1  0  0  0  0
 23 40  1  0  0  0  0
 24 41  1  0  0  0  0
M  END
> <PUBCHEM_COMPOUND_CID>
20961894

> <PUBCHEM_CONFORMER_RMSD>
1

> <PUBCHEM_CONFORMER_DIVERSEORDER>
1
117
22
173
39
56
66
79
75
110
26
165
9
10
55
36
32
81
140
118
88
62
170
116
92
101
76
87
4
60
3
158
122
38
150
100
40
28
14
172
86
124
164
157
43
19
17
112
80
107
166
58
6
97
91
109
85
129
114
115
54
119
21
68
25
145
34
174
20
18
142
15
143
48
5
95
70
69
45
152
156
57
108
23
123
125
46
102
49
53
144
83
41
98
74
94
27
52
77
162
24
168
99
63
8
106
93
163
126
67
12
130
155
159
147
30
138
169
84
133
64
148
105
103
35
44
51
73
135
47
121
113
50
149
37
72
160
137
78
29
111
96
167
65
31
132
136
82
61
120
151
104
71
2
131
13
59
42
141
33
89
7
175
90
127
11
161
16
128
139
153
171
154
146
134

> <PUBCHEM_MMFF94_PARTIAL_CHARGES>
31
1 -0.46
10 0.03
11 -0.14
12 0.37
13 -0.15
14 -0.15
15 0.65
16 -0.15
17 -0.14
18 0.62
19 0.29
2 -0.24
20 0.14
21 0.57
22 -0.04
23 0.14
24 -0.05
27 0.15
28 0.15
29 0.37
3 -0.57
30 0.15
31 0.15
37 0.15
4 -0.57
41 0.15
5 -0.23
6 -0.55
7 -0.62
8 0.12
9 -0.14

> <PUBCHEM_EFFECTIVE_ROTOR_COUNT>
6

> <PUBCHEM_PHARMACOPHORE_FEATURES>
6
1 3 acceptor
1 4 acceptor
1 6 donor
5 2 5 15 22 24 rings
6 5 7 10 15 17 18 rings
6 8 9 11 13 14 16 rings

> <PUBCHEM_HEAVY_ATOM_COUNT>
24

> <PUBCHEM_ATOM_DEF_STEREO_COUNT>
0

> <PUBCHEM_ATOM_UDEF_STEREO_COUNT>
0

> <PUBCHEM_BOND_DEF_STEREO_COUNT>
0

> <PUBCHEM_BOND_UDEF_STEREO_COUNT>
0

> <PUBCHEM_ISOTOPIC_ATOM_COUNT>
0

> <PUBCHEM_COMPONENT_COUNT>
1

> <PUBCHEM_CACTVS_TAUTO_COUNT>
2

> <PUBCHEM_CONFORMER_ID>
013FDA6600000001

> <PUBCHEM_MMFF94_ENERGY>
62.0879

> <PUBCHEM_FEATURE_SELFOVERLAP>
30.533

> <PUBCHEM_SHAPE_FINGERPRINT>
10165383 225 16976234506708725972
10498660 4 18413112749063162454
10863032 1 17968376715134638489
10871710 139 18263095434251677684
11370993 70 17616232698775995732
11578080 2 17974812281430984996
12054548 360 18410288146572656233
12156800 1 16037372578965454687
12403814 3 18409736166171151523
12422481 6 17769069574224647360
128993 33 17413612561653138432
133893 2 17763190532990721175
13994607 96 17607276378283838876
14142880 1 18200050459754031201
14251751 93 18193572081788538206
14787075 74 18119541066041527604
14955137 171 17769415834551451435
15852999 172 17403723463678122099
16945 1 17903360312225712859
17357779 13 17773862268021518439
17492 54 17975431409477536404
18981168 100 18054800489710477422
192875 21 17313677039435229988
20600515 1 17914632767168377455
20691752 17 18047177824613525619
20715895 44 17612579035076043621
22907989 373 18338790118096345861
23419403 2 15402659876790120443
238 59 17331401974170562253
35225 105 17916003699533914630
469060 322 18337679735985250658

> <PUBCHEM_SHAPE_MULTIPOLES>
474.93
5.98
4.04
1.93
5.06
2.63
0.42
-1.57
-0.74
-2.58
-0.95
-0.04
-0.16
-0.58

> <PUBCHEM_SHAPE_SELFOVERLAP>
995.116

> <PUBCHEM_SHAPE_VOLUME>
271.1

> <PUBCHEM_COORDINATE_TYPE>
2
5
10

$$$$
