6470483
  -OEChem-01171812093D

 40 41  0     0  0  0  0  0  0999 V2000
   -0.6742   -1.4846    0.4141 S   0  0  0  0  0  0  0  0  0  0  0  0
    3.2790   -1.4110    1.1084 O   0  0  0  0  0  0  0  0  0  0  0  0
    0.1369   -0.9312    1.4818 O   0  0  0  0  0  0  0  0  0  0  0  0
   -1.0941   -2.8721    0.4608 O   0  0  0  0  0  0  0  0  0  0  0  0
    3.3556    0.2825   -0.5251 N   0  0  0  0  0  0  0  0  0  0  0  0
    0.0808   -1.1877   -1.0797 N   0  0  0  0  0  0  0  0  0  0  0  0
    3.8040    1.6528   -0.5969 C   0  0  0  0  0  0  0  0  0  0  0  0
    3.7970    2.0935    0.8531 C   0  0  0  0  0  0  0  0  0  0  0  0
    2.9299   -0.4385   -1.7050 C   0  0  0  0  0  0  0  0  0  0  0  0
    4.0915    0.8136    1.6261 C   0  0  0  0  0  0  0  0  0  0  0  0
    3.5104   -0.2675    0.7453 C   0  0  0  0  0  0  0  0  0  0  0  0
    1.6932    0.1784   -2.3551 C   0  0  0  0  0  0  0  0  0  0  0  0
    0.4617    0.1919   -1.4532 C   0  0  0  0  0  0  0  0  0  0  0  0
   -2.1407   -0.5067    0.2807 C   0  0  0  0  0  0  0  0  0  0  0  0
   -3.2853   -1.0738   -0.2524 C   0  0  0  0  0  0  0  0  0  0  0  0
   -2.1173    0.8081    0.7123 C   0  0  0  0  0  0  0  0  0  0  0  0
   -4.4370    1.0248    0.0727 C   0  0  0  0  0  0  0  0  0  0  0  0
   -4.4424   -0.3021   -0.3573 C   0  0  0  0  0  0  0  0  0  0  0  0
   -3.2745    1.5799    0.6076 C   0  0  0  0  0  0  0  0  0  0  0  0
   -5.6745    1.8497   -0.0381 C   0  0  0  0  0  0  0  0  0  0  0  0
    3.1397    2.2712   -1.2043 H   0  0  0  0  0  0  0  0  0  0  0  0
    4.8134    1.6630   -1.0208 H   0  0  0  0  0  0  0  0  0  0  0  0
    2.7985    2.4596    1.1242 H   0  0  0  0  0  0  0  0  0  0  0  0
    4.5152    2.8919    1.0592 H   0  0  0  0  0  0  0  0  0  0  0  0
    2.7478   -1.4859   -1.4414 H   0  0  0  0  0  0  0  0  0  0  0  0
    3.7654   -0.4257   -2.4141 H   0  0  0  0  0  0  0  0  0  0  0  0
    3.6174    0.8145    2.6105 H   0  0  0  0  0  0  0  0  0  0  0  0
    5.1683    0.6450    1.7261 H   0  0  0  0  0  0  0  0  0  0  0  0
    1.4644   -0.3969   -3.2614 H   0  0  0  0  0  0  0  0  0  0  0  0
    1.9020    1.2010   -2.6879 H   0  0  0  0  0  0  0  0  0  0  0  0
   -0.3747    0.6465   -1.9947 H   0  0  0  0  0  0  0  0  0  0  0  0
    0.6599    0.7953   -0.5624 H   0  0  0  0  0  0  0  0  0  0  0  0
   -0.1158   -1.8235   -1.8628 H   0  0  0  0  0  0  0  0  0  0  0  0
   -3.3079   -2.1021   -0.5996 H   0  0  0  0  0  0  0  0  0  0  0  0
   -1.2224    1.2592    1.1294 H   0  0  0  0  0  0  0  0  0  0  0  0
   -5.3420   -0.7459   -0.7755 H   0  0  0  0  0  0  0  0  0  0  0  0
   -3.2582    2.6121    0.9474 H   0  0  0  0  0  0  0  0  0  0  0  0
   -5.4322    2.9070   -0.1906 H   0  0  0  0  0  0  0  0  0  0  0  0
   -6.2843    1.5348   -0.8917 H   0  0  0  0  0  0  0  0  0  0  0  0
   -6.2721    1.7548    0.8739 H   0  0  0  0  0  0  0  0  0  0  0  0
  1  3  2  0  0  0  0
  1  4  2  0  0  0  0
  1  6  1  0  0  0  0
  1 14  1  0  0  0  0
  2 11  2  0  0  0  0
  5  7  1  0  0  0  0
  5  9  1  0  0  0  0
  5 11  1  0  0  0  0
  6 13  1  0  0  0  0
  6 33  1  0  0  0  0
  7  8  1  0  0  0  0
  7 21  1  0  0  0  0
  7 22  1  0  0  0  0
  8 10  1  0  0  0  0
  8 23  1  0  0  0  0
  8 24  1  0  0  0  0
  9 12  1  0  0  0  0
  9 25  1  0  0  0  0
  9 26  1  0  0  0  0
 10 11  1  0  0  0  0
 10 27  1  0  0  0  0
 10 28  1  0  0  0  0
 12 13  1  0  0  0  0
 12 29  1  0  0  0  0
 12 30  1  0  0  0  0
 13 31  1  0  0  0  0
 13 32  1  0  0  0  0
 14 15  2  0  0  0  0
 14 16  1  0  0  0  0
 15 18  1  0  0  0  0
 15 34  1  0  0  0  0
 16 19  2  0  0  0  0
 16 35  1  0  0  0  0
 17 18  2  0  0  0  0
 17 19  1  0  0  0  0
 17 20  1  0  0  0  0
 18 36  1  0  0  0  0
 19 37  1  0  0  0  0
 20 38  1  0  0  0  0
 20 39  1  0  0  0  0
 20 40  1  0  0  0  0
M  END
> <PUBCHEM_COMPOUND_CID>
6470483

> <PUBCHEM_CONFORMER_RMSD>
0.8

> <PUBCHEM_CONFORMER_DIVERSEORDER>
1
3
21
50
41
39
96
75
22
46
86
49
53
108
104
71
68
54
34
57
56
103
28
16
20
72
12
100
64
80
116
59
6
77
33
91
74
43
109
76
15
70
24
87
102
95
7
105
112
23
67
99
73
97
84
101
65
110
14
27
92
79
26
83
69
19
88
13
30
82
90
4
29
17
42
106
114
89
35
47
52
36
66
93
85
11
2
9
78
25
62
115
18
10
45
37
5
38
58
8
63
98
51
113
44
117
32
60
107
40
48
61
94
81
55
31
111

> <PUBCHEM_MMFF94_PARTIAL_CHARGES>
23
1 1.45
10 0.06
11 0.57
13 0.36
14 -0.01
15 -0.15
16 -0.15
17 -0.14
18 -0.15
19 -0.15
2 -0.57
20 0.14
3 -0.65
33 0.42
34 0.15
35 0.15
36 0.15
37 0.15
4 -0.65
5 -0.66
6 -0.91
7 0.3
9 0.3

> <PUBCHEM_EFFECTIVE_ROTOR_COUNT>
6.8

> <PUBCHEM_PHARMACOPHORE_FEATURES>
6
1 2 acceptor
1 3 acceptor
1 4 acceptor
1 6 donor
5 5 7 8 10 11 rings
6 14 15 16 17 18 19 rings

> <PUBCHEM_HEAVY_ATOM_COUNT>
20

> <PUBCHEM_ATOM_DEF_STEREO_COUNT>
0

> <PUBCHEM_ATOM_UDEF_STEREO_COUNT>
0

> <PUBCHEM_BOND_DEF_STEREO_COUNT>
0

> <PUBCHEM_BOND_UDEF_STEREO_COUNT>
0

> <PUBCHEM_ISOTOPIC_ATOM_COUNT>
0

> <PUBCHEM_COMPONENT_COUNT>
1

> <PUBCHEM_CACTVS_TAUTO_COUNT>
2

> <PUBCHEM_CONFORMER_ID>
0062BB5300000001

> <PUBCHEM_MMFF94_ENERGY>
20.5523

> <PUBCHEM_FEATURE_SELFOVERLAP>
30.464

> <PUBCHEM_SHAPE_FINGERPRINT>
10498660 4 18059860579459976208
10646746 165 18341898484648976508
11128504 68 12823296822932329784
11140007 195 18187925011516671570
12422481 6 16951687970413197549
12553582 1 16081080524496830710
12596602 18 17096096890579778689
12633257 1 18042106804515259912
12644460 14 15647347359193497246
12788726 201 17319599159012338234
13675066 3 17095521798937836797
14178342 30 17823698766611969498
14251764 30 10519701228671899525
14251764 38 18131355184885028761
14468879 13 17988927833119879882
14957384 54 17916298515074821340
15238133 3 18410571812747910232
15664445 248 10015565217208632482
17349148 13 17894635876643781471
17959699 21 16916519038567893777
18186145 218 17559976362466066455
20388580 30 11527937959345057555
212916 134 18335138691751724055
21756936 100 17766549532941087904
22950370 63 9583517642243580989
23184049 59 17095521798763893350
23227448 37 17273686757439167524
23557571 272 18199481041374315343
23559900 14 18129956593477997662
238 59 15913336801311604396
312423 11 13398092862980702876
3323516 105 15123502627482575719
341906 21 18411704321791432156
345986 75 16588849205802813272
3472631 163 18343017783708426581
351380 180 18202563964709658468
3680242 22 18339648819851210953
474 4 17748833990270012307
495365 180 18131354077073194510
5352402 22 13334456458586060093
59682541 52 15553599579364065557
633830 44 18271804601330321327
8509985 295 17022910038376524573
960060 61 14549018766978983057

> <PUBCHEM_SHAPE_MULTIPOLES>
387.87
10.64
2.13
1.65
5.06
0.13
-0.59
-6.29
0.88
0.49
0.52
-1.95
0.19
0.32

> <PUBCHEM_SHAPE_SELFOVERLAP>
786.667

> <PUBCHEM_SHAPE_VOLUME>
227.1

> <PUBCHEM_COORDINATE_TYPE>
2
5
10

$$$$
