24687947
  -OEChem-01171812123D

 60 62  0     0  0  0  0  0  0999 V2000
    2.9305    1.2255    1.3975 S   0  0  0  0  0  0  0  0  0  0  0  0
    2.8393    0.9841    2.8211 O   0  0  0  0  0  0  0  0  0  0  0  0
    4.0988    1.8531    0.8196 O   0  0  0  0  0  0  0  0  0  0  0  0
   -0.8535    1.7732   -2.3129 O   0  0  0  0  0  0  0  0  0  0  0  0
    1.5332    2.0758    0.8852 N   0  0  0  0  0  0  0  0  0  0  0  0
   -2.7783    1.7229   -1.0047 N   0  0  0  0  0  0  0  0  0  0  0  0
   -0.9286    3.0817   -0.3158 C   0  0  0  0  0  0  0  0  0  0  0  0
   -0.8969    2.4632    1.0830 C   0  0  0  0  0  0  0  0  0  0  0  0
    0.4545    3.5645   -0.7565 C   0  0  0  0  0  0  0  0  0  0  0  0
    0.2337    1.4530    1.2668 C   0  0  0  0  0  0  0  0  0  0  0  0
    1.5421    2.5159   -0.5390 C   0  0  0  0  0  0  0  0  0  0  0  0
   -1.4915    2.1217   -1.3230 C   0  0  0  0  0  0  0  0  0  0  0  0
   -3.5515    0.8191   -1.8254 C   0  0  0  0  0  0  0  0  0  0  0  0
    2.6735   -0.3128    0.5708 C   0  0  0  0  0  0  0  0  0  0  0  0
   -4.5343   -0.0162   -1.0118 C   0  0  0  0  0  0  0  0  0  0  0  0
   -3.8603   -0.8931    0.0016 C   0  0  0  0  0  0  0  0  0  0  0  0
   -2.8394   -1.8658   -0.5349 C   0  0  0  0  0  0  0  0  0  0  0  0
   -2.4306   -2.9431    0.4733 C   0  0  0  0  0  0  0  0  0  0  0  0
   -2.2099   -2.3472    1.8586 C   0  0  0  0  0  0  0  0  0  0  0  0
   -3.4723   -1.6475    2.3628 C   0  0  0  0  0  0  0  0  0  0  0  0
   -4.1480   -0.8159    1.3126 C   0  0  0  0  0  0  0  0  0  0  0  0
    3.1752   -0.5058   -0.7164 C   0  0  0  0  0  0  0  0  0  0  0  0
    1.9674   -1.3350    1.2048 C   0  0  0  0  0  0  0  0  0  0  0  0
    2.9706   -1.7212   -1.3695 C   0  0  0  0  0  0  0  0  0  0  0  0
    1.7628   -2.5504    0.5516 C   0  0  0  0  0  0  0  0  0  0  0  0
    2.2644   -2.7434   -0.7356 C   0  0  0  0  0  0  0  0  0  0  0  0
    3.5160   -1.9036   -2.7478 C   0  0  0  0  0  0  0  0  0  0  0  0
    2.0332   -4.0525   -1.4161 C   0  0  0  0  0  0  0  0  0  0  0  0
   -1.6039    3.9481   -0.3022 H   0  0  0  0  0  0  0  0  0  0  0  0
   -0.7452    3.2769    1.8054 H   0  0  0  0  0  0  0  0  0  0  0  0
   -1.8452    1.9902    1.3585 H   0  0  0  0  0  0  0  0  0  0  0  0
    0.4510    3.8827   -1.8060 H   0  0  0  0  0  0  0  0  0  0  0  0
    0.7096    4.4546   -0.1656 H   0  0  0  0  0  0  0  0  0  0  0  0
    0.0291    0.5751    0.6457 H   0  0  0  0  0  0  0  0  0  0  0  0
    0.2549    1.1442    2.3169 H   0  0  0  0  0  0  0  0  0  0  0  0
    1.3959    1.6598   -1.2030 H   0  0  0  0  0  0  0  0  0  0  0  0
    2.5048    2.9755   -0.7852 H   0  0  0  0  0  0  0  0  0  0  0  0
   -3.2603    2.1768   -0.2345 H   0  0  0  0  0  0  0  0  0  0  0  0
   -4.1073    1.4419   -2.5356 H   0  0  0  0  0  0  0  0  0  0  0  0
   -2.8777    0.1904   -2.4177 H   0  0  0  0  0  0  0  0  0  0  0  0
   -5.1182   -0.6464   -1.6938 H   0  0  0  0  0  0  0  0  0  0  0  0
   -5.2525    0.6548   -0.5230 H   0  0  0  0  0  0  0  0  0  0  0  0
   -3.2274   -2.3612   -1.4328 H   0  0  0  0  0  0  0  0  0  0  0  0
   -1.9413   -1.3102   -0.8318 H   0  0  0  0  0  0  0  0  0  0  0  0
   -3.2136   -3.7102    0.5281 H   0  0  0  0  0  0  0  0  0  0  0  0
   -1.5190   -3.4440    0.1282 H   0  0  0  0  0  0  0  0  0  0  0  0
   -1.3832   -1.6266    1.8166 H   0  0  0  0  0  0  0  0  0  0  0  0
   -1.9133   -3.1308    2.5648 H   0  0  0  0  0  0  0  0  0  0  0  0
   -4.1892   -2.3931    2.7268 H   0  0  0  0  0  0  0  0  0  0  0  0
   -3.2096   -1.0116    3.2158 H   0  0  0  0  0  0  0  0  0  0  0  0
   -4.9030   -0.1163    1.6614 H   0  0  0  0  0  0  0  0  0  0  0  0
    3.7231    0.2887   -1.2162 H   0  0  0  0  0  0  0  0  0  0  0  0
    1.5653   -1.2072    2.2058 H   0  0  0  0  0  0  0  0  0  0  0  0
    1.2089   -3.3355    1.0593 H   0  0  0  0  0  0  0  0  0  0  0  0
    4.0457   -1.0105   -3.0971 H   0  0  0  0  0  0  0  0  0  0  0  0
    2.7071   -2.0977   -3.4596 H   0  0  0  0  0  0  0  0  0  0  0  0
    4.2306   -2.7326   -2.7733 H   0  0  0  0  0  0  0  0  0  0  0  0
    1.4630   -3.9117   -2.3400 H   0  0  0  0  0  0  0  0  0  0  0  0
    2.9852   -4.5416   -1.6458 H   0  0  0  0  0  0  0  0  0  0  0  0
    1.4598   -4.7411   -0.7855 H   0  0  0  0  0  0  0  0  0  0  0  0
  1  2  2  0  0  0  0
  1  3  2  0  0  0  0
  1  5  1  0  0  0  0
  1 14  1  0  0  0  0
  4 12  2  0  0  0  0
  5 10  1  0  0  0  0
  5 11  1  0  0  0  0
  6 12  1  0  0  0  0
  6 13  1  0  0  0  0
  6 38  1  0  0  0  0
  7  8  1  0  0  0  0
  7  9  1  0  0  0  0
  7 12  1  0  0  0  0
  7 29  1  0  0  0  0
  8 10  1  0  0  0  0
  8 30  1  0  0  0  0
  8 31  1  0  0  0  0
  9 11  1  0  0  0  0
  9 32  1  0  0  0  0
  9 33  1  0  0  0  0
 10 34  1  0  0  0  0
 10 35  1  0  0  0  0
 11 36  1  0  0  0  0
 11 37  1  0  0  0  0
 13 15  1  0  0  0  0
 13 39  1  0  0  0  0
 13 40  1  0  0  0  0
 14 22  2  0  0  0  0
 14 23  1  0  0  0  0
 15 16  1  0  0  0  0
 15 41  1  0  0  0  0
 15 42  1  0  0  0  0
 16 17  1  0  0  0  0
 16 21  2  0  0  0  0
 17 18  1  0  0  0  0
 17 43  1  0  0  0  0
 17 44  1  0  0  0  0
 18 19  1  0  0  0  0
 18 45  1  0  0  0  0
 18 46  1  0  0  0  0
 19 20  1  0  0  0  0
 19 47  1  0  0  0  0
 19 48  1  0  0  0  0
 20 21  1  0  0  0  0
 20 49  1  0  0  0  0
 20 50  1  0  0  0  0
 21 51  1  0  0  0  0
 22 24  1  0  0  0  0
 22 52  1  0  0  0  0
 23 25  2  0  0  0  0
 23 53  1  0  0  0  0
 24 26  2  0  0  0  0
 24 27  1  0  0  0  0
 25 26  1  0  0  0  0
 25 54  1  0  0  0  0
 26 28  1  0  0  0  0
 27 55  1  0  0  0  0
 27 56  1  0  0  0  0
 27 57  1  0  0  0  0
 28 58  1  0  0  0  0
 28 59  1  0  0  0  0
 28 60  1  0  0  0  0
M  END
> <PUBCHEM_COMPOUND_CID>
24687947

> <PUBCHEM_CONFORMER_RMSD>
1.4

> <PUBCHEM_CONFORMER_DIVERSEORDER>
1
47
46
4
51
44
21
49
18
34
17
2
25
10
19
29
42
27
41
48
38
55
7
45
30
31
16
14
52
35
37
33
23
20
22
6
57
58
9
24
26
59
32
13
54
60
12
50
53
8
28
39
15
40
36
11
43
3
56
5

> <PUBCHEM_MMFF94_PARTIAL_CHARGES>
29
1 1.45
10 0.36
11 0.36
12 0.57
13 0.3
14 -0.01
15 0.14
16 -0.28
17 0.14
2 -0.65
20 0.14
21 -0.29
22 -0.15
23 -0.15
24 -0.14
25 -0.15
26 -0.14
27 0.14
28 0.14
3 -0.65
38 0.37
4 -0.57
5 -0.85
51 0.15
52 0.15
53 0.15
54 0.15
6 -0.73
7 0.06

> <PUBCHEM_EFFECTIVE_ROTOR_COUNT>
9

> <PUBCHEM_PHARMACOPHORE_FEATURES>
7
1 2 acceptor
1 3 acceptor
1 4 acceptor
1 6 donor
6 14 22 23 24 25 26 rings
6 16 17 18 19 20 21 rings
6 5 7 8 9 10 11 rings

> <PUBCHEM_HEAVY_ATOM_COUNT>
28

> <PUBCHEM_ATOM_DEF_STEREO_COUNT>
0

> <PUBCHEM_ATOM_UDEF_STEREO_COUNT>
0

> <PUBCHEM_BOND_DEF_STEREO_COUNT>
0

> <PUBCHEM_BOND_UDEF_STEREO_COUNT>
0

> <PUBCHEM_ISOTOPIC_ATOM_COUNT>
0

> <PUBCHEM_COMPONENT_COUNT>
1

> <PUBCHEM_CACTVS_TAUTO_COUNT>
2

> <PUBCHEM_CONFORMER_ID>
0178B54B00000001

> <PUBCHEM_MMFF94_ENERGY>
31.973

> <PUBCHEM_FEATURE_SELFOVERLAP>
35.54

> <PUBCHEM_SHAPE_FINGERPRINT>
10675989 125 17468438588034152789
108634 29 18261382317567656891
11488393 25 18059857238882670526
12156800 1 11392874234477844585
12422481 6 17903615712852343112
12596602 18 16199012006835018061
12712778 12 17684912623517552130
13122387 1 17615962210515499659
13402501 40 18335126627199178067
1361 2 18271226314692764863
13617811 41 17313936404495620093
13726171 33 17750251307908443333
13773456 22 17321319774714194443
13947920 24 17971225657727635734
14251757 17 18335693915206679587
14725015 67 17903900185663042811
14932701 244 15795154758411991959
15635459 17 18412535514106601551
17093844 170 18337096908786020328
17357779 13 18341623581025138706
17921350 177 18043517515981448482
17974551 9 17630892586331096305
19315092 285 16412056579504125103
20587220 17 17775575251746098185
20764821 26 18334842914328592091
21285901 2 18261935398292666405
22907989 373 17900285021147390687
23536364 44 17694813751690651366
238 59 17762030522210988519
238918 7 18199168741860231906
3493558 16 12761383546716557404
35225 105 17190693090281458487
3737641 26 18130519552047545108
463206 1 17407383102849728215
5081480 168 18128001691694704279
57307002 85 18410007694420823514
6287921 2 17837794561150934339
6823239 73 18334303088447164662

> <PUBCHEM_SHAPE_MULTIPOLES>
552.51
7.82
4.9
2.44
3.64
0.08
0.09
3.53
-0.48
-1.4
-0.91
-0.36
0.3
3.42

> <PUBCHEM_SHAPE_SELFOVERLAP>
1134.464

> <PUBCHEM_SHAPE_VOLUME>
318.4

> <PUBCHEM_COORDINATE_TYPE>
2
5
10

$$$$
