44460176
  -OEChem-01171812173D

 43 45  0     1  0  0  0  0  0999 V2000
   -3.1342   -2.6465   -0.2029 S   0  0  0  0  0  0  0  0  0  0  0  0
    0.1083   -1.5915   -1.9465 O   0  0  0  0  0  0  0  0  0  0  0  0
   -2.2748    1.9252   -2.0167 O   0  0  0  0  0  0  0  0  0  0  0  0
    2.4415    1.1090    3.2054 O   0  5  0  0  0  0  0  0  0  0  0  0
    2.4116    2.8337    1.8475 O   0  0  0  0  0  0  0  0  0  0  0  0
   -2.4003    0.9742    0.0980 N   0  0  0  0  0  0  0  0  0  0  0  0
    2.8292   -1.3728   -1.7297 N   0  0  0  0  0  0  0  0  0  0  0  0
    2.2165    1.6201    2.0849 N   0  3  0  0  0  0  0  0  0  0  0  0
   -1.6780   -0.2551   -0.2109 C   0  0  1  0  0  0  0  0  0  0  0  0
   -0.1947   -0.1310   -0.0873 C   0  0  0  0  0  0  0  0  0  0  0  0
    0.6545   -0.8087   -0.9656 C   0  0  0  0  0  0  0  0  0  0  0  0
   -2.2593   -1.4123    0.5992 C   0  0  0  0  0  0  0  0  0  0  0  0
    0.3379    0.6681    0.9166 C   0  0  0  0  0  0  0  0  0  0  0  0
    2.0394   -0.7067   -0.8662 C   0  0  0  0  0  0  0  0  0  0  0  0
    2.5733    0.1069    0.1551 C   0  0  0  0  0  0  0  0  0  0  0  0
    1.7193    0.7881    1.0390 C   0  0  0  0  0  0  0  0  0  0  0  0
   -2.1851   -1.6304    1.9574 C   0  0  0  0  0  0  0  0  0  0  0  0
   -2.6324    1.9566   -0.8423 C   0  0  0  0  0  0  0  0  0  0  0  0
    3.9672    0.2103    0.2553 C   0  0  0  0  0  0  0  0  0  0  0  0
   -3.4060    3.1154   -0.2407 C   0  0  0  0  0  0  0  0  0  0  0  0
   -2.8553   -2.8266    2.3445 C   0  0  0  0  0  0  0  0  0  0  0  0
    4.7836   -0.4753   -0.6327 C   0  0  0  0  0  0  0  0  0  0  0  0
   -3.4163   -3.4772    1.2676 C   0  0  0  0  0  0  0  0  0  0  0  0
    4.1696   -1.2466   -1.5987 C   0  0  0  0  0  0  0  0  0  0  0  0
   -3.6505    4.2338   -1.2375 C   0  0  0  0  0  0  0  0  0  0  0  0
   -0.1650   -0.9606   -3.1927 C   0  0  0  0  0  0  0  0  0  0  0  0
   -1.9220   -0.4389   -1.2633 H   0  0  0  0  0  0  0  0  0  0  0  0
   -0.3089    1.1932    1.6156 H   0  0  0  0  0  0  0  0  0  0  0  0
   -2.7113    1.1224    1.0544 H   0  0  0  0  0  0  0  0  0  0  0  0
   -1.6802   -0.9679    2.6485 H   0  0  0  0  0  0  0  0  0  0  0  0
    4.4466    0.8190    1.0176 H   0  0  0  0  0  0  0  0  0  0  0  0
   -4.3655    2.7373    0.1299 H   0  0  0  0  0  0  0  0  0  0  0  0
   -2.8416    3.5050    0.6143 H   0  0  0  0  0  0  0  0  0  0  0  0
   -2.9233   -3.1910    3.3613 H   0  0  0  0  0  0  0  0  0  0  0  0
    5.8632   -0.4070   -0.5697 H   0  0  0  0  0  0  0  0  0  0  0  0
   -3.9784   -4.4003    1.2741 H   0  0  0  0  0  0  0  0  0  0  0  0
    4.7566   -1.8048   -2.3206 H   0  0  0  0  0  0  0  0  0  0  0  0
   -2.7051    4.6374   -1.6149 H   0  0  0  0  0  0  0  0  0  0  0  0
   -4.2288    3.8760   -2.0958 H   0  0  0  0  0  0  0  0  0  0  0  0
   -4.2071    5.0496   -0.7663 H   0  0  0  0  0  0  0  0  0  0  0  0
   -0.9970   -1.4858   -3.6700 H   0  0  0  0  0  0  0  0  0  0  0  0
    0.7140   -1.0390   -3.8395 H   0  0  0  0  0  0  0  0  0  0  0  0
   -0.4353    0.0939   -3.0758 H   0  0  0  0  0  0  0  0  0  0  0  0
  1 12  1  0  0  0  0
  1 23  1  0  0  0  0
  2 11  1  0  0  0  0
  2 26  1  0  0  0  0
  3 18  2  0  0  0  0
  4  8  1  0  0  0  0
  5  8  2  0  0  0  0
  6  9  1  0  0  0  0
  6 18  1  0  0  0  0
  6 29  1  0  0  0  0
  7 14  1  0  0  0  0
  7 24  2  0  0  0  0
  8 16  1  0  0  0  0
  9 10  1  0  0  0  0
  9 12  1  0  0  0  0
  9 27  1  0  0  0  0
 10 11  1  0  0  0  0
 10 13  2  0  0  0  0
 11 14  2  0  0  0  0
 12 17  2  0  0  0  0
 13 16  1  0  0  0  0
 13 28  1  0  0  0  0
 14 15  1  0  0  0  0
 15 16  2  0  0  0  0
 15 19  1  0  0  0  0
 17 21  1  0  0  0  0
 17 30  1  0  0  0  0
 18 20  1  0  0  0  0
 19 22  2  0  0  0  0
 19 31  1  0  0  0  0
 20 25  1  0  0  0  0
 20 32  1  0  0  0  0
 20 33  1  0  0  0  0
 21 23  2  0  0  0  0
 21 34  1  0  0  0  0
 22 24  1  0  0  0  0
 22 35  1  0  0  0  0
 23 36  1  0  0  0  0
 24 37  1  0  0  0  0
 25 38  1  0  0  0  0
 25 39  1  0  0  0  0
 25 40  1  0  0  0  0
 26 41  1  0  0  0  0
 26 42  1  0  0  0  0
 26 43  1  0  0  0  0
M  CHG  2   4  -1   8   1
M  END
> <PUBCHEM_COMPOUND_CID>
44460176

> <PUBCHEM_CONFORMER_RMSD>
0.8

> <PUBCHEM_CONFORMER_DIVERSEORDER>
3
47
72
18
31
13
63
68
73
69
71
55
33
61
42
62
57
56
40
64
70
29
58
21
37
15
35
67
39
41
28
54
14
26
7
51
19
38
52
5
36
12
9
44
65
24
25
34
8
45
60
4
46
6
10
66
2
16
32
43
59
23
48
22
11
74
20
1
27
53
50
30
49
17

> <PUBCHEM_MMFF94_PARTIAL_CHARGES>
32
1 -0.08
10 -0.14
11 0.08
12 -0.14
13 -0.15
14 0.31
16 0.13
17 -0.15
18 0.57
19 -0.15
2 -0.36
20 0.06
21 -0.15
22 -0.15
23 -0.11
24 0.16
26 0.28
28 0.15
29 0.37
3 -0.57
30 0.15
31 0.15
34 0.15
35 0.15
36 0.15
37 0.15
4 -0.52
5 -0.52
6 -0.73
7 -0.62
8 0.91
9 0.62

> <PUBCHEM_EFFECTIVE_ROTOR_COUNT>
7

> <PUBCHEM_PHARMACOPHORE_FEATURES>
11
1 2 acceptor
1 25 hydrophobe
1 3 acceptor
1 4 acceptor
1 4 anion
1 5 acceptor
1 6 donor
1 7 acceptor
5 1 12 17 21 23 rings
6 10 11 13 14 15 16 rings
6 7 14 15 19 22 24 rings

> <PUBCHEM_HEAVY_ATOM_COUNT>
26

> <PUBCHEM_ATOM_DEF_STEREO_COUNT>
0

> <PUBCHEM_ATOM_UDEF_STEREO_COUNT>
1

> <PUBCHEM_BOND_DEF_STEREO_COUNT>
0

> <PUBCHEM_BOND_UDEF_STEREO_COUNT>
0

> <PUBCHEM_ISOTOPIC_ATOM_COUNT>
0

> <PUBCHEM_COMPONENT_COUNT>
1

> <PUBCHEM_CACTVS_TAUTO_COUNT>
2

> <PUBCHEM_CONFORMER_ID>
02A6689000000003

> <PUBCHEM_MMFF94_ENERGY>
76.8517

> <PUBCHEM_FEATURE_SELFOVERLAP>
55.94

> <PUBCHEM_SHAPE_FINGERPRINT>
10165383 225 17974867072650929565
11578080 2 18270134494560150688
11582403 64 17263217083323942097
11796584 16 18190185586286652810
12160290 23 17967800653384547273
12363563 72 17899706940235675923
12549972 3 18271793606282511882
12633257 1 17344097244536506531
12714826 92 18267327415704679566
12788726 201 17822008740099134003
13583140 156 18342454846566112622
13681431 1 17465670391764596109
14468879 13 17985233457050233057
14955137 171 16700363960483474542
15219462 58 18117532185045916274
15842332 3 16805591560751131376
1813 80 17974876139379502635
18219364 16 17846784013637133958
20600515 1 17901103337409089739
20739085 24 17045405230015118545
21792961 116 18200329732066685966
22182313 1 18130778010426801128
229495 10 17701811309591796961
23419403 2 18130516300409187912
23493267 7 18335702685292553568
23557571 272 18261950872832947733
23559900 14 18188207727153355358
238 59 17488725797030694461
2748010 2 18059565923349966232
469060 322 17264941353800185559
6009941 240 18263640672472145978
6049 1 18271528692615369520
6442390 28 18045792191535023193
7399639 24 17982442999623440640
81228 2 18259984907714754721
9981440 41 17197933670434517360

> <PUBCHEM_SHAPE_MULTIPOLES>
500.5
7.7
4.09
2.69
4.52
2.42
0.26
-0.27
-0.06
-8.1
0.45
1.34
-0.07
3.68

> <PUBCHEM_SHAPE_SELFOVERLAP>
1070.545

> <PUBCHEM_SHAPE_VOLUME>
280.6

> <PUBCHEM_COORDINATE_TYPE>
2
5
10

$$$$
