2567438
  -OEChem-01171812033D

 30 32  0     0  0  0  0  0  0999 V2000
    2.6362   -2.6851   -1.5937 Cl  0  0  0  0  0  0  0  0  0  0  0  0
    0.7168   -1.8130    0.5504 O   0  0  0  0  0  0  0  0  0  0  0  0
   -5.2566    0.1868    0.7250 O   0  0  0  0  0  0  0  0  0  0  0  0
    5.2601    2.5078    0.7031 O   0  5  0  0  0  0  0  0  0  0  0  0
    6.0200    1.2244   -0.9077 O   0  0  0  0  0  0  0  0  0  0  0  0
    5.1567    1.5023   -0.0405 N   0  3  0  0  0  0  0  0  0  0  0  0
   -4.7513    1.2866   -1.1564 N   0  0  0  0  0  0  0  0  0  0  0  0
   -6.0741    1.5473   -0.8515 N   0  0  0  0  0  0  0  0  0  0  0  0
   -0.5089   -1.2515    0.3653 C   0  0  0  0  0  0  0  0  0  0  0  0
   -3.0222   -0.1017   -0.0144 C   0  0  0  0  0  0  0  0  0  0  0  0
    1.8278   -1.0026    0.3860 C   0  0  0  0  0  0  0  0  0  0  0  0
   -1.5366   -1.5051    1.2739 C   0  0  0  0  0  0  0  0  0  0  0  0
   -0.7380   -0.4228   -0.7332 C   0  0  0  0  0  0  0  0  0  0  0  0
   -2.7932   -0.9303    1.0840 C   0  0  0  0  0  0  0  0  0  0  0  0
   -1.9947    0.1521   -0.9230 C   0  0  0  0  0  0  0  0  0  0  0  0
    2.7822   -1.3045   -0.5693 C   0  0  0  0  0  0  0  0  0  0  0  0
    1.9474    0.1079    1.2042 C   0  0  0  0  0  0  0  0  0  0  0  0
    4.0284    0.6526    0.1043 C   0  0  0  0  0  0  0  0  0  0  0  0
    3.8913   -0.4705   -0.7114 C   0  0  0  0  0  0  0  0  0  0  0  0
    3.0563    0.9418    1.0621 C   0  0  0  0  0  0  0  0  0  0  0  0
   -4.3218    0.4925   -0.2108 C   0  0  0  0  0  0  0  0  0  0  0  0
   -6.3256    0.8850    0.2535 C   0  0  0  0  0  0  0  0  0  0  0  0
   -1.3634   -2.1497    2.1314 H   0  0  0  0  0  0  0  0  0  0  0  0
    0.0375   -0.2218   -1.4672 H   0  0  0  0  0  0  0  0  0  0  0  0
   -3.5683   -1.1516    1.8132 H   0  0  0  0  0  0  0  0  0  0  0  0
   -2.1522    0.7916   -1.7881 H   0  0  0  0  0  0  0  0  0  0  0  0
    1.2045    0.3389    1.9623 H   0  0  0  0  0  0  0  0  0  0  0  0
    4.6377   -0.7133   -1.4648 H   0  0  0  0  0  0  0  0  0  0  0  0
    3.1311    1.8065    1.7165 H   0  0  0  0  0  0  0  0  0  0  0  0
   -7.2432    0.8260    0.8177 H   0  0  0  0  0  0  0  0  0  0  0  0
  1 16  1  0  0  0  0
  2  9  1  0  0  0  0
  2 11  1  0  0  0  0
  3 21  1  0  0  0  0
  3 22  1  0  0  0  0
  4  6  1  0  0  0  0
  5  6  2  0  0  0  0
  6 18  1  0  0  0  0
  7  8  1  0  0  0  0
  7 21  2  0  0  0  0
  8 22  2  0  0  0  0
  9 12  2  0  0  0  0
  9 13  1  0  0  0  0
 10 14  2  0  0  0  0
 10 15  1  0  0  0  0
 10 21  1  0  0  0  0
 11 16  2  0  0  0  0
 11 17  1  0  0  0  0
 12 14  1  0  0  0  0
 12 23  1  0  0  0  0
 13 15  2  0  0  0  0
 13 24  1  0  0  0  0
 14 25  1  0  0  0  0
 15 26  1  0  0  0  0
 16 19  1  0  0  0  0
 17 20  2  0  0  0  0
 17 27  1  0  0  0  0
 18 19  2  0  0  0  0
 18 20  1  0  0  0  0
 19 28  1  0  0  0  0
 20 29  1  0  0  0  0
 22 30  1  0  0  0  0
M  CHG  2   4  -1   6   1
M  END
> <PUBCHEM_COMPOUND_CID>
2567438

> <PUBCHEM_CONFORMER_RMSD>
0.6

> <PUBCHEM_CONFORMER_DIVERSEORDER>
1
4
10
14
5
8
9
6
3
2
7
12
13
11

> <PUBCHEM_MMFF94_PARTIAL_CHARGES>
30
1 -0.18
10 0.05
11 0.08
12 -0.15
13 -0.15
14 -0.15
15 -0.15
16 0.18
17 -0.15
18 0.13
19 -0.15
2 -0.17
20 -0.15
21 0.43
22 0.33
23 0.15
24 0.15
25 0.15
26 0.15
27 0.15
28 0.15
29 0.15
3 -0.28
30 0.15
4 -0.52
5 -0.52
6 0.91
7 -0.34
8 -0.34
9 0.08

> <PUBCHEM_EFFECTIVE_ROTOR_COUNT>
4

> <PUBCHEM_PHARMACOPHORE_FEATURES>
7
1 2 acceptor
1 4 acceptor
1 4 anion
1 5 acceptor
5 3 7 8 21 22 rings
6 11 16 17 18 19 20 rings
6 9 10 12 13 14 15 rings

> <PUBCHEM_HEAVY_ATOM_COUNT>
22

> <PUBCHEM_ATOM_DEF_STEREO_COUNT>
0

> <PUBCHEM_ATOM_UDEF_STEREO_COUNT>
0

> <PUBCHEM_BOND_DEF_STEREO_COUNT>
0

> <PUBCHEM_BOND_UDEF_STEREO_COUNT>
0

> <PUBCHEM_ISOTOPIC_ATOM_COUNT>
0

> <PUBCHEM_COMPONENT_COUNT>
1

> <PUBCHEM_CACTVS_TAUTO_COUNT>
1

> <PUBCHEM_CONFORMER_ID>
00272D0E00000001

> <PUBCHEM_MMFF94_ENERGY>
64.9574

> <PUBCHEM_FEATURE_SELFOVERLAP>
35.604

> <PUBCHEM_SHAPE_FINGERPRINT>
10 15 17313391153268701697
10498660 4 18408042909405539977
106641 1 16950290637257776681
10693767 8 16845023295341174710
11796584 16 13470396760829907741
12236239 1 16056596513174536639
12403259 118 17970627617906937208
12596602 18 16298102077805459681
12633257 1 13118007707627574912
12730499 353 18341620312613386362
12788726 201 18340764845196022425
12969540 114 18338504271401817959
13402501 40 18334292076040787148
13955234 65 18115868486388109027
14123256 34 8790612541276320760
14341114 328 15068630387196318419
14528608 73 17989199361210581645
14848160 23 9583514309396470929
15081414 286 18411426089504863497
15183329 4 16630813196420667912
15210252 30 18413106195323702144
15238133 3 16298393430842382638
15961568 22 18261111859288023757
16752209 62 14189579602691917495
17870717 6 13542465367559737953
17980427 23 17313670480767234710
18335252 98 18272092734298105455
193927 3 10663823009084009211
20028762 73 12179848315938118936
20374829 77 11671784870989291083
20612939 158 18059581248083474198
20645477 56 18335140908034210467
20645477 70 18059861610352711382
21033648 29 18265608961331072856
21150785 3 17846210086364339981
221357 26 17988925526654084776
22289505 5 18272368633752715904
23402655 69 17988643008105530146
23557571 272 18189066437123881338
23559900 14 17677062217542190191
25122255 55 10447927304154217381
2838139 119 18338505413478165372
2916195 48 18260265244366999673
293599 30 18335138712915402168
29717793 49 13830133901347933664
3004659 81 16199871657266037366
316301 35 10519979357752743028
3472631 163 17967816084664010916
34797466 226 18343302527460841087
46194498 28 18129666275158395510
465052 167 9439396960519685201
495365 180 18272362053847410122
5104073 3 17459189582599824497
56616090 163 18411422834309672938
59682541 35 18040446512440868529
59682541 52 17703229503281626654
6025842 7 18131354068573099718
633830 44 18267860593472078863
636775 8 10666318828821508664
7808743 9 18113898316206100248
960060 61 16630805487006982791

> <PUBCHEM_SHAPE_MULTIPOLES>
416.2
14.29
2.1
1.27
8.68
0.29
-0.01
-10.34
-2.6
-2.7
-0.31
0.05
0.27
1.62

> <PUBCHEM_SHAPE_SELFOVERLAP>
911.283

> <PUBCHEM_SHAPE_VOLUME>
227.3

> <PUBCHEM_COORDINATE_TYPE>
2
5
10

$$$$
