22586130
  -OEChem-01171812063D

 50 51  0     0  0  0  0  0  0999 V2000
    2.8738    1.3138    0.5455 S   0  0  0  0  0  0  0  0  0  0  0  0
   -2.7425    2.5475    0.4051 F   0  0  0  0  0  0  0  0  0  0  0  0
    4.0570    0.6693    0.0106 O   0  0  0  0  0  0  0  0  0  0  0  0
    2.7747    2.7558    0.6514 O   0  0  0  0  0  0  0  0  0  0  0  0
    0.8168   -2.6639   -0.5965 O   0  0  0  0  0  0  0  0  0  0  0  0
    2.9130   -1.8136   -0.2231 O   0  0  0  0  0  0  0  0  0  0  0  0
    0.1203   -1.1175    2.4214 O   0  0  0  0  0  0  0  0  0  0  0  0
   -0.0395    1.1262   -2.0757 N   0  0  0  0  0  0  0  0  0  0  0  0
    2.4693    0.6013    2.0512 N   0  0  0  0  0  0  0  0  0  0  0  0
   -0.9229    0.8265    1.6038 N   0  0  0  0  0  0  0  0  0  0  0  0
    1.6100    0.9275   -0.6021 C   0  0  0  0  0  0  0  0  0  0  0  0
    0.8217    1.8329   -1.2775 C   0  0  0  0  0  0  0  0  0  0  0  0
    1.2087   -0.3690   -1.0087 C   0  0  0  0  0  0  0  0  0  0  0  0
    0.1876   -0.2164   -1.9204 C   0  0  0  0  0  0  0  0  0  0  0  0
    0.8125    3.3108   -1.2331 C   0  0  0  0  0  0  0  0  0  0  0  0
   -1.0361    1.7089   -2.9495 C   0  0  0  0  0  0  0  0  0  0  0  0
   -0.5937   -1.2317   -2.6599 C   0  0  0  0  0  0  0  0  0  0  0  0
    1.7363   -1.6343   -0.5808 C   0  0  0  0  0  0  0  0  0  0  0  0
    1.2106    1.0050    2.6967 C   0  0  0  0  0  0  0  0  0  0  0  0
    0.0946    0.0953    2.2392 C   0  0  0  0  0  0  0  0  0  0  0  0
    1.2771   -3.9549   -0.1813 C   0  0  0  0  0  0  0  0  0  0  0  0
   -2.1105    0.3496    1.0481 C   0  0  0  0  0  0  0  0  0  0  0  0
    0.1300   -4.9388   -0.2687 C   0  0  0  0  0  0  0  0  0  0  0  0
   -3.0090    1.2343    0.4514 C   0  0  0  0  0  0  0  0  0  0  0  0
   -2.3982   -1.0147    1.0889 C   0  0  0  0  0  0  0  0  0  0  0  0
   -4.1948    0.7544   -0.1049 C   0  0  0  0  0  0  0  0  0  0  0  0
   -3.5842   -1.4944    0.5328 C   0  0  0  0  0  0  0  0  0  0  0  0
   -4.4824   -0.6099   -0.0640 C   0  0  0  0  0  0  0  0  0  0  0  0
    1.8154    3.7105   -1.4162 H   0  0  0  0  0  0  0  0  0  0  0  0
    0.4608    3.6630   -0.2578 H   0  0  0  0  0  0  0  0  0  0  0  0
    0.1741    3.7715   -1.9912 H   0  0  0  0  0  0  0  0  0  0  0  0
   -1.5419    2.5232   -2.4243 H   0  0  0  0  0  0  0  0  0  0  0  0
   -0.5322    2.0752   -3.8471 H   0  0  0  0  0  0  0  0  0  0  0  0
   -1.7991    0.9752   -3.2140 H   0  0  0  0  0  0  0  0  0  0  0  0
   -0.0341   -2.1618   -2.7952 H   0  0  0  0  0  0  0  0  0  0  0  0
   -0.8412   -0.9021   -3.6741 H   0  0  0  0  0  0  0  0  0  0  0  0
   -1.5240   -1.4625   -2.1325 H   0  0  0  0  0  0  0  0  0  0  0  0
    2.7213   -0.3865    2.1867 H   0  0  0  0  0  0  0  0  0  0  0  0
    1.3198    0.8775    3.7792 H   0  0  0  0  0  0  0  0  0  0  0  0
    1.0017    2.0641    2.5237 H   0  0  0  0  0  0  0  0  0  0  0  0
    1.6383   -3.8963    0.8513 H   0  0  0  0  0  0  0  0  0  0  0  0
    2.0940   -4.2772   -0.8360 H   0  0  0  0  0  0  0  0  0  0  0  0
   -0.7948    1.8330    1.5258 H   0  0  0  0  0  0  0  0  0  0  0  0
   -0.7022   -4.6166    0.3660 H   0  0  0  0  0  0  0  0  0  0  0  0
   -0.2542   -4.9921   -1.2927 H   0  0  0  0  0  0  0  0  0  0  0  0
    0.4466   -5.9380    0.0429 H   0  0  0  0  0  0  0  0  0  0  0  0
   -1.7532   -1.7619    1.5291 H   0  0  0  0  0  0  0  0  0  0  0  0
   -4.8933    1.4432   -0.5707 H   0  0  0  0  0  0  0  0  0  0  0  0
   -3.8082   -2.5568    0.5624 H   0  0  0  0  0  0  0  0  0  0  0  0
   -5.4052   -0.9835   -0.4979 H   0  0  0  0  0  0  0  0  0  0  0  0
  1  3  2  0  0  0  0
  1  4  2  0  0  0  0
  1  9  1  0  0  0  0
  1 11  1  0  0  0  0
  2 24  1  0  0  0  0
  5 18  1  0  0  0  0
  5 21  1  0  0  0  0
  6 18  2  0  0  0  0
  7 20  2  0  0  0  0
  8 12  1  0  0  0  0
  8 14  1  0  0  0  0
  8 16  1  0  0  0  0
  9 19  1  0  0  0  0
  9 38  1  0  0  0  0
 10 20  1  0  0  0  0
 10 22  1  0  0  0  0
 10 43  1  0  0  0  0
 11 12  2  0  0  0  0
 11 13  1  0  0  0  0
 12 15  1  0  0  0  0
 13 14  2  0  0  0  0
 13 18  1  0  0  0  0
 14 17  1  0  0  0  0
 15 29  1  0  0  0  0
 15 30  1  0  0  0  0
 15 31  1  0  0  0  0
 16 32  1  0  0  0  0
 16 33  1  0  0  0  0
 16 34  1  0  0  0  0
 17 35  1  0  0  0  0
 17 36  1  0  0  0  0
 17 37  1  0  0  0  0
 19 20  1  0  0  0  0
 19 39  1  0  0  0  0
 19 40  1  0  0  0  0
 21 23  1  0  0  0  0
 21 41  1  0  0  0  0
 21 42  1  0  0  0  0
 22 24  1  0  0  0  0
 22 25  2  0  0  0  0
 23 44  1  0  0  0  0
 23 45  1  0  0  0  0
 23 46  1  0  0  0  0
 24 26  2  0  0  0  0
 25 27  1  0  0  0  0
 25 47  1  0  0  0  0
 26 28  1  0  0  0  0
 26 48  1  0  0  0  0
 27 28  2  0  0  0  0
 27 49  1  0  0  0  0
 28 50  1  0  0  0  0
M  END
> <PUBCHEM_COMPOUND_CID>
22586130

> <PUBCHEM_CONFORMER_RMSD>
1

> <PUBCHEM_CONFORMER_DIVERSEORDER>
2
55
31
107
34
17
122
47
38
111
96
43
129
91
83
62
3
142
58
19
14
141
66
52
131
140
93
144
51
120
56
10
70
1
98
126
130
7
78
89
15
123
80
106
41
26
67
110
143
145
100
73
115
109
25
114
35
44
133
105
88
95
48
72
18
40
85
113
61
42
74
50
21
60
20
104
102
86
76
146
79
137
9
63
116
94
117
75
12
121
134
82
69
65
64
68
81
37
92
112
13
71
84
5
16
138
24
39
30
87
119
54
127
46
125
29
49
135
36
23
90
97
28
27
8
57
6
22
59
147
139
128
132
103
53
136
118
124
45
4
101
33
11
32
108
99
77

> <PUBCHEM_MMFF94_PARTIAL_CHARGES>
33
1 1.5
10 -0.55
11 -0.06
12 -0.33
13 -0.09
14 -0.33
15 0.18
16 0.26
17 0.18
18 0.81
19 0.42
2 -0.19
20 0.57
21 0.28
22 0.12
24 0.19
25 -0.15
26 -0.15
27 -0.15
28 -0.15
3 -0.65
38 0.42
4 -0.65
43 0.37
47 0.15
48 0.15
49 0.15
5 -0.43
50 0.15
6 -0.57
7 -0.57
8 0.05
9 -0.91

> <PUBCHEM_EFFECTIVE_ROTOR_COUNT>
9

> <PUBCHEM_PHARMACOPHORE_FEATURES>
9
1 10 donor
1 3 acceptor
1 4 acceptor
1 6 acceptor
1 7 acceptor
1 8 cation
1 9 donor
5 8 11 12 13 14 rings
6 22 24 25 26 27 28 rings

> <PUBCHEM_HEAVY_ATOM_COUNT>
28

> <PUBCHEM_ATOM_DEF_STEREO_COUNT>
0

> <PUBCHEM_ATOM_UDEF_STEREO_COUNT>
0

> <PUBCHEM_BOND_DEF_STEREO_COUNT>
0

> <PUBCHEM_BOND_UDEF_STEREO_COUNT>
0

> <PUBCHEM_ISOTOPIC_ATOM_COUNT>
0

> <PUBCHEM_COMPONENT_COUNT>
1

> <PUBCHEM_CACTVS_TAUTO_COUNT>
2

> <PUBCHEM_CONFORMER_ID>
0158A31200000002

> <PUBCHEM_MMFF94_ENERGY>
54.1918

> <PUBCHEM_FEATURE_SELFOVERLAP>
45.693

> <PUBCHEM_SHAPE_FINGERPRINT>
10064457 181 18270116962724940958
104564 63 16009575876806010173
10863032 1 18271249304892765073
11244481 83 18049708633928838154
11370993 70 18411701027630643747
11578080 2 18122345674953368548
12156800 1 16597576909997035227
12788726 201 16173142941954218404
13583140 156 17845637171654671193
14713325 29 13488217816833572350
14787075 74 17631172076842452560
16945 1 18264790885386959077
17492 54 16056042492242138689
20600515 1 16979569256956552745
20691752 17 17771047591532612471
21330990 113 18334865965808096422
229495 10 17982716494487410438
23419403 2 17120543148664397456
23559900 14 18411700950605932569
3052486 1 17478605072097547963
35225 105 17556852847420941982
3797600 57 17203613687521257941
513532 50 17824522107847780391

> <PUBCHEM_SHAPE_MULTIPOLES>
528.51
5.52
4.14
2.66
4.17
5.06
-0.13
-1.53
1.47
-1.36
-1.26
-0.35
-0.87
0.41

> <PUBCHEM_SHAPE_SELFOVERLAP>
1100.722

> <PUBCHEM_SHAPE_VOLUME>
304.8

> <PUBCHEM_COORDINATE_TYPE>
2
5
10

$$$$
