2726842
  -OEChem-01171811573D

 34 34  0     0  0  0  0  0  0999 V2000
    0.9923   -1.8930    1.5578 Cl  0  0  0  0  0  0  0  0  0  0  0  0
    3.4018    1.7942   -1.0215 F   0  0  0  0  0  0  0  0  0  0  0  0
   -2.9525    1.6027   -1.1130 O   0  0  0  0  0  0  0  0  0  0  0  0
   -1.2121    2.5403    0.9450 O   0  0  0  0  0  0  0  0  0  0  0  0
    1.5675    1.9952    1.1987 O   0  0  0  0  0  0  0  0  0  0  0  0
   -2.7114   -0.3038    0.2332 N   0  0  0  0  0  0  0  0  0  0  0  0
   -0.0190    0.6910    0.1046 N   0  0  0  0  0  0  0  0  0  0  0  0
   -3.8912   -1.0346   -0.1924 C   0  0  0  0  0  0  0  0  0  0  0  0
   -3.9630   -2.3658    0.5644 C   0  0  0  0  0  0  0  0  0  0  0  0
   -5.1369   -0.1963    0.1132 C   0  0  0  0  0  0  0  0  0  0  0  0
   -3.8041   -1.3045   -1.6990 C   0  0  0  0  0  0  0  0  0  0  0  0
   -2.3783    0.9270   -0.2742 C   0  0  0  0  0  0  0  0  0  0  0  0
   -1.1298    1.4829    0.3406 C   0  0  0  0  0  0  0  0  0  0  0  0
    2.3265    0.0353    0.1613 C   0  0  0  0  0  0  0  0  0  0  0  0
    1.2642    0.9977    0.5498 C   0  0  0  0  0  0  0  0  0  0  0  0
    2.2748   -1.2807    0.5761 C   0  0  0  0  0  0  0  0  0  0  0  0
    3.3581    0.5142   -0.6244 C   0  0  0  0  0  0  0  0  0  0  0  0
    3.2930   -2.1528    0.1911 C   0  0  0  0  0  0  0  0  0  0  0  0
    4.3763   -0.3579   -1.0095 C   0  0  0  0  0  0  0  0  0  0  0  0
    4.3439   -1.6913   -0.6017 C   0  0  0  0  0  0  0  0  0  0  0  0
   -4.0159   -2.2022    1.6471 H   0  0  0  0  0  0  0  0  0  0  0  0
   -4.8433   -2.9474    0.2689 H   0  0  0  0  0  0  0  0  0  0  0  0
   -3.0743   -2.9782    0.3717 H   0  0  0  0  0  0  0  0  0  0  0  0
   -5.1825    0.7275   -0.4718 H   0  0  0  0  0  0  0  0  0  0  0  0
   -5.1734    0.0846    1.1723 H   0  0  0  0  0  0  0  0  0  0  0  0
   -6.0500   -0.7599   -0.1118 H   0  0  0  0  0  0  0  0  0  0  0  0
   -2.8731   -1.8251   -1.9529 H   0  0  0  0  0  0  0  0  0  0  0  0
   -4.6378   -1.9343   -2.0309 H   0  0  0  0  0  0  0  0  0  0  0  0
   -3.8401   -0.3891   -2.2977 H   0  0  0  0  0  0  0  0  0  0  0  0
   -2.1135   -0.7206    0.9417 H   0  0  0  0  0  0  0  0  0  0  0  0
   -0.1477   -0.1603   -0.4373 H   0  0  0  0  0  0  0  0  0  0  0  0
    3.2827   -3.1950    0.5002 H   0  0  0  0  0  0  0  0  0  0  0  0
    5.1946    0.0017   -1.6265 H   0  0  0  0  0  0  0  0  0  0  0  0
    5.1369   -2.3701   -0.9016 H   0  0  0  0  0  0  0  0  0  0  0  0
  1 16  1  0  0  0  0
  2 17  1  0  0  0  0
  3 12  2  0  0  0  0
  4 13  2  0  0  0  0
  5 15  2  0  0  0  0
  6  8  1  0  0  0  0
  6 12  1  0  0  0  0
  6 30  1  0  0  0  0
  7 13  1  0  0  0  0
  7 15  1  0  0  0  0
  7 31  1  0  0  0  0
  8  9  1  0  0  0  0
  8 10  1  0  0  0  0
  8 11  1  0  0  0  0
  9 21  1  0  0  0  0
  9 22  1  0  0  0  0
  9 23  1  0  0  0  0
 10 24  1  0  0  0  0
 10 25  1  0  0  0  0
 10 26  1  0  0  0  0
 11 27  1  0  0  0  0
 11 28  1  0  0  0  0
 11 29  1  0  0  0  0
 12 13  1  0  0  0  0
 14 15  1  0  0  0  0
 14 16  1  0  0  0  0
 14 17  2  0  0  0  0
 16 18  2  0  0  0  0
 17 19  1  0  0  0  0
 18 20  1  0  0  0  0
 18 32  1  0  0  0  0
 19 20  2  0  0  0  0
 19 33  1  0  0  0  0
 20 34  1  0  0  0  0
M  END
> <PUBCHEM_COMPOUND_CID>
2726842

> <PUBCHEM_CONFORMER_RMSD>
0.8

> <PUBCHEM_CONFORMER_DIVERSEORDER>
1
14
25
12
23
4
17
16
10
22
19
13
2
5
18
24
11
20
9
15
26
21
6
3
7
8

> <PUBCHEM_MMFF94_PARTIAL_CHARGES>
22
1 -0.18
12 0.63
13 0.63
14 0.09
15 0.54
16 0.18
17 0.19
18 -0.15
19 -0.15
2 -0.19
20 -0.15
3 -0.57
30 0.37
31 0.37
32 0.15
33 0.15
34 0.15
4 -0.57
5 -0.57
6 -0.73
7 -0.49
8 0.3

> <PUBCHEM_EFFECTIVE_ROTOR_COUNT>
6

> <PUBCHEM_PHARMACOPHORE_FEATURES>
7
1 3 acceptor
1 4 acceptor
1 5 acceptor
1 6 donor
1 7 donor
4 8 9 10 11 hydrophobe
6 14 16 17 18 19 20 rings

> <PUBCHEM_HEAVY_ATOM_COUNT>
20

> <PUBCHEM_ATOM_DEF_STEREO_COUNT>
0

> <PUBCHEM_ATOM_UDEF_STEREO_COUNT>
0

> <PUBCHEM_BOND_DEF_STEREO_COUNT>
0

> <PUBCHEM_BOND_UDEF_STEREO_COUNT>
0

> <PUBCHEM_ISOTOPIC_ATOM_COUNT>
0

> <PUBCHEM_COMPONENT_COUNT>
1

> <PUBCHEM_CACTVS_TAUTO_COUNT>
6

> <PUBCHEM_CONFORMER_ID>
00299BBA00000001

> <PUBCHEM_MMFF94_ENERGY>
47.1788

> <PUBCHEM_FEATURE_SELFOVERLAP>
35.529

> <PUBCHEM_SHAPE_FINGERPRINT>
10498660 4 17167853162870908503
10616163 171 18341615854458276327
108634 29 18042696181096829986
11089746 13 11602827938628778550
11543360 7 17894916230322765740
11806522 49 18410573960067443200
12251169 10 10447923958331885048
12553582 1 18341040861711793763
12596599 1 18195818357973431262
12633257 1 16988291957926064791
12670546 177 18187368713997970198
12707595 3 17917983966972369448
12788726 201 18129097810846955945
12892183 10 11023526000638740404
13103583 49 17773620341562735323
13533116 47 17843395439903535239
13675066 3 13470695844914055751
13989917 61 16822503467111748459
14576447 43 18337113376365859870
14617045 38 18333737914323449163
15209294 21 9078818668132141958
15239191 94 18202560700566110271
15537594 2 18200039567817331639
16752209 62 18057025935789274789
18915474 69 18410294726467711646
19422 9 18341338790523533932
200 152 18409450271430525936
20281475 54 18341897355072837585
20291156 8 18343016701070245125
20403669 9 18201723933631492407
20626108 58 17968924294107041730
20645477 70 18200296840747878637
20871999 31 18186519869699529781
21634736 98 18409451371390670046
21713013 43 18259983756067472743
221357 26 18409449202342800587
221490 88 18410015463536249930
2215653 11 18411691102794549367
22393880 68 18114741508765468038
22646028 28 18343864389922489862
22950370 63 18341057397457111611
23379529 103 18201451224852370846
235170 7 16950554493835819895
23559900 14 18409721872230359568
2838139 119 15936706921276755390
2871803 45 18333166176302229763
3004659 81 18333730199818198503
3323516 105 18409729594607535490
4259306 186 18341889723285088023
4280585 95 17400924098975636302
46194498 28 17314226855589332463
465052 167 18060424646495252327
4921388 177 16805615784677956123
58051976 378 18115023125275769036
6786 2 11117099100233578688
960060 61 18338508733624665383

> <PUBCHEM_SHAPE_MULTIPOLES>
378.62
10.06
2.62
1.23
3.94
0.08
0.1
-4.37
3.18
0.06
-0.57
0.05
-0.15
-0.23

> <PUBCHEM_SHAPE_SELFOVERLAP>
780.682

> <PUBCHEM_SHAPE_VOLUME>
218.2

> <PUBCHEM_COORDINATE_TYPE>
2
5
10

$$$$
