2337473
  -OEChem-01171811383D

 36 38  0     0  0  0  0  0  0999 V2000
   -2.0384   -0.8819    1.1955 S   0  0  0  0  0  0  0  0  0  0  0  0
   -1.9958   -0.2689    2.5252 O   0  0  0  0  0  0  0  0  0  0  0  0
   -2.6954   -2.1839    1.0545 O   0  0  0  0  0  0  0  0  0  0  0  0
    0.6471    0.8474    1.6895 O   0  0  0  0  0  0  0  0  0  0  0  0
    1.7084   -0.4524    0.0236 N   0  0  0  0  0  0  0  0  0  0  0  0
    1.2294   -1.4648   -0.7778 N   0  0  0  0  0  0  0  0  0  0  0  0
   -0.5025   -0.8942    0.4983 C   0  0  0  0  0  0  0  0  0  0  0  0
   -0.0806   -1.7294   -0.4583 C   0  0  0  0  0  0  0  0  0  0  0  0
    0.6608   -0.0351    0.8482 C   0  0  0  0  0  0  0  0  0  0  0  0
   -2.9478    0.2345    0.1522 C   0  0  0  0  0  0  0  0  0  0  0  0
    2.9874    0.0478   -0.1167 C   0  0  0  0  0  0  0  0  0  0  0  0
   -0.8041   -2.8386   -1.1356 C   0  0  0  0  0  0  0  0  0  0  0  0
   -3.6152   -0.2732   -0.9426 C   0  0  0  0  0  0  0  0  0  0  0  0
   -2.9596    1.5773    0.4655 C   0  0  0  0  0  0  0  0  0  0  0  0
    3.4085    1.1499    0.6414 C   0  0  0  0  0  0  0  0  0  0  0  0
    3.8864   -0.5388   -1.0190 C   0  0  0  0  0  0  0  0  0  0  0  0
   -4.3274    0.6026   -1.7620 C   0  0  0  0  0  0  0  0  0  0  0  0
   -3.6719    2.4531   -0.3539 C   0  0  0  0  0  0  0  0  0  0  0  0
    4.7011    1.6546    0.5002 C   0  0  0  0  0  0  0  0  0  0  0  0
    5.1791   -0.0342   -1.1601 C   0  0  0  0  0  0  0  0  0  0  0  0
   -4.3558    1.9656   -1.4677 C   0  0  0  0  0  0  0  0  0  0  0  0
    5.5864    1.0626   -0.4005 C   0  0  0  0  0  0  0  0  0  0  0  0
    1.8240   -2.2136   -1.1081 H   0  0  0  0  0  0  0  0  0  0  0  0
   -0.4508   -2.9439   -2.1679 H   0  0  0  0  0  0  0  0  0  0  0  0
   -1.8800   -2.6862   -1.2001 H   0  0  0  0  0  0  0  0  0  0  0  0
   -0.6130   -3.7853   -0.6205 H   0  0  0  0  0  0  0  0  0  0  0  0
   -3.6202   -1.3286   -1.1873 H   0  0  0  0  0  0  0  0  0  0  0  0
   -2.4265    1.9754    1.3228 H   0  0  0  0  0  0  0  0  0  0  0  0
    2.7652    1.6520    1.3540 H   0  0  0  0  0  0  0  0  0  0  0  0
    3.6188   -1.3910   -1.6364 H   0  0  0  0  0  0  0  0  0  0  0  0
   -4.8622    0.2231   -2.6278 H   0  0  0  0  0  0  0  0  0  0  0  0
   -3.6925    3.5148   -0.1259 H   0  0  0  0  0  0  0  0  0  0  0  0
    5.0189    2.5091    1.0906 H   0  0  0  0  0  0  0  0  0  0  0  0
    5.8688   -0.4939   -1.8619 H   0  0  0  0  0  0  0  0  0  0  0  0
   -4.9105    2.6476   -2.1055 H   0  0  0  0  0  0  0  0  0  0  0  0
    6.5927    1.4559   -0.5108 H   0  0  0  0  0  0  0  0  0  0  0  0
  1  2  2  0  0  0  0
  1  3  2  0  0  0  0
  1  7  1  0  0  0  0
  1 10  1  0  0  0  0
  4  9  2  0  0  0  0
  5  6  1  0  0  0  0
  5  9  1  0  0  0  0
  5 11  1  0  0  0  0
  6  8  1  0  0  0  0
  6 23  1  0  0  0  0
  7  8  2  0  0  0  0
  7  9  1  0  0  0  0
  8 12  1  0  0  0  0
 10 13  2  0  0  0  0
 10 14  1  0  0  0  0
 11 15  2  0  0  0  0
 11 16  1  0  0  0  0
 12 24  1  0  0  0  0
 12 25  1  0  0  0  0
 12 26  1  0  0  0  0
 13 17  1  0  0  0  0
 13 27  1  0  0  0  0
 14 18  2  0  0  0  0
 14 28  1  0  0  0  0
 15 19  1  0  0  0  0
 15 29  1  0  0  0  0
 16 20  2  0  0  0  0
 16 30  1  0  0  0  0
 17 21  2  0  0  0  0
 17 31  1  0  0  0  0
 18 21  1  0  0  0  0
 18 32  1  0  0  0  0
 19 22  2  0  0  0  0
 19 33  1  0  0  0  0
 20 22  1  0  0  0  0
 20 34  1  0  0  0  0
 21 35  1  0  0  0  0
 22 36  1  0  0  0  0
M  END
> <PUBCHEM_COMPOUND_CID>
2337473

> <PUBCHEM_CONFORMER_RMSD>
0.6

> <PUBCHEM_CONFORMER_DIVERSEORDER>
2
6
5
4
7
1
3

> <PUBCHEM_MMFF94_PARTIAL_CHARGES>
32
1 1.33
10 -0.01
11 0.12
12 0.14
13 -0.15
14 -0.15
15 -0.15
16 -0.15
17 -0.15
18 -0.15
19 -0.15
2 -0.65
20 -0.15
21 -0.15
22 -0.15
23 0.4
27 0.15
28 0.15
29 0.15
3 -0.65
30 0.15
31 0.15
32 0.15
33 0.15
34 0.15
35 0.15
36 0.15
4 -0.57
5 -0.16
6 -0.52
8 -0.04
9 0.62

> <PUBCHEM_EFFECTIVE_ROTOR_COUNT>
3

> <PUBCHEM_PHARMACOPHORE_FEATURES>
7
1 2 acceptor
1 3 acceptor
1 4 acceptor
1 6 donor
5 5 6 7 8 9 rings
6 10 13 14 17 18 21 rings
6 11 15 16 19 20 22 rings

> <PUBCHEM_HEAVY_ATOM_COUNT>
22

> <PUBCHEM_ATOM_DEF_STEREO_COUNT>
0

> <PUBCHEM_ATOM_UDEF_STEREO_COUNT>
0

> <PUBCHEM_BOND_DEF_STEREO_COUNT>
0

> <PUBCHEM_BOND_UDEF_STEREO_COUNT>
0

> <PUBCHEM_ISOTOPIC_ATOM_COUNT>
0

> <PUBCHEM_COMPONENT_COUNT>
1

> <PUBCHEM_CACTVS_TAUTO_COUNT>
3

> <PUBCHEM_CONFORMER_ID>
0023AAC100000002

> <PUBCHEM_MMFF94_ENERGY>
64.9188

> <PUBCHEM_FEATURE_SELFOVERLAP>
35.541

> <PUBCHEM_SHAPE_FINGERPRINT>
10498660 4 18337100177514933325
105312 117 18408888429652617950
11046707 91 12319732566348092925
11089746 13 18409720760635215436
11370993 144 12108051254631481637
11552529 35 13480002158555821024
11796584 16 12175619555752292541
11961588 58 18261939817529144493
12403259 415 18271811254276925768
12555020 224 17846508010934276446
12596602 18 14634877435084926837
12633257 1 16008750220988171444
12670546 177 17561360686349780604
12788726 201 15840148772140118929
12892183 10 13840543987493518157
12969540 114 18343298163093547300
13103583 49 11386653945102213117
13544653 18 9799401226554611227
13583140 156 18187368770085720482
14178342 30 15647349544867835579
14251757 5 16557889273108720294
14251764 30 15266480985555823285
14251764 75 17761490292936230789
15209294 21 16081084887629546196
17349148 13 16917356926615764586
17492 54 18189030081006105085
17780758 139 10881395430808440500
18186145 218 18130522885126886946
193927 3 12031782604052581724
200 152 16415482653283012472
20645477 56 18261402139237094147
20645477 70 17704084979959442966
21033648 29 18341326773247511056
21401589 2 17968383338702761561
21403212 168 8646503959566470391
221357 26 17775276171350501573
22393880 68 17845921957908450109
23402539 116 16558762191321189906
23557571 272 18115041774050193919
23559900 14 18193269698747974626
2838139 119 18261662684427201997
341906 21 17967529095160632704
3737641 26 8934736521203414388
4015057 19 16845575366031359514
4028521 119 18411979161054180852
4371632 12 14473273613174100224
5924683 9 12901843730730160425
633830 44 17274005483010069002
7970288 3 13542163031637397037
90127 26 18041571342394471056
9981440 41 18187080637836003971

> <PUBCHEM_SHAPE_MULTIPOLES>
429.03
10.94
2.37
1.64
9.53
0.46
-0.39
-6.8
4.21
-1.8
0.44
-1.18
0.09
1.39

> <PUBCHEM_SHAPE_SELFOVERLAP>
926.258

> <PUBCHEM_SHAPE_VOLUME>
235.3

> <PUBCHEM_COORDINATE_TYPE>
2
5
10

$$$$
